data_PCOD9376079
_publ_section_title
;
Structure prediction by ZEFSAII (Michael W. Deem and Ramdas Pophale) SiO2 
 PCOD9376079
Probable space group: I B A 2
;
_chemical_formula_sum "Si O2"
_cell_formula_units_Z 56
_cell_length_a 18.383676
_cell_length_b 5.500649
_cell_length_c 26.409801
_cell_angle_alpha 90.000000
_cell_angle_beta 90.000000
_cell_angle_gamma 90.000000
_cell_volume 2670.615832
_symmetry_space_group_name_H-M "I B A 2"
_symmetry_group_IT_number 45
_symmetry_cell_setting 'orthorhombic'
loop_
_space_group_symop_operation_xyz
x,y,z
-x,-y,z
-x,y,1/2+z
x,-y,1/2+z
1/2+x,1/2+y,1/2+z
1/2-x,1/2-y,1/2+z
1/2-x,1/2+y,z
1/2+x,1/2-y,z
loop_
_atom_site_type_symbol
_atom_site_label
_atom_site_fract_x
_atom_site_fract_y
_atom_site_fract_z
Si Si1 0.756083 0.137510 0.340480
Si Si2 0.099381 0.400701 0.301366
Si Si3 0.911163 0.002006 0.970220
Si Si4 0.204976 0.994783 0.555528
Si Si5 0.105719 0.899626 0.266512
Si Si6 0.705952 0.497876 0.675252
Si Si7 0.583766 0.001366 0.919664
O O1 0.750463 0.387535 0.370308
O O2 0.687632 0.133132 0.301591
O O3 0.828530 0.131556 0.307532
O O4 0.076000 0.626498 0.267209
O O5 0.084221 0.466544 0.359480
O O6 0.066668 0.141064 0.286787
O O7 0.889002 0.765656 0.936887
O O8 0.886235 0.254593 0.944170
O O9 0.868346 0.985632 0.022788
O O10 0.000000 0.000000 0.974775
O O11 0.250993 0.746797 0.545001
O O12 0.188518 0.000330 0.615632
O O13 0.137749 0.969477 0.212222
O O14 0.754166 0.255329 0.685554
O O15 0.500000 0.000000 0.936208
#
# Coordination Sequence:
#
# PCOD9376079 Si02
#       7
#     8   8   8   8   8   8   8
#     4   8  14  23  36  57  89 120 151 186 229 289
#     4  10  18  29  46  69  99 129 168 217 256 300
#     4  10  21  40  62  81 108 151 195 234 283 352
#     4  10  21  37  58  87 117 143 182 241 298 336
#     4  10  17  28  46  72 104 138 171 205 255 329
#     4  10  18  30  51  77 107 143 178 217 274 342
#     4  10  21  37  57  77 100 142 198 238 277 338
#
# _framework density 20.968945000000001
#
# number of rings (size 3 to 8) (size 9 to 14) (size 15 to 20)
#    0.000    2.286    0.000    5.143    0.000    0.000 
#    0.000   12.857    0.000    1.714    0.000    0.000 
#    0.000    0.000    0.000    0.000    0.000    0.000 
#
# Total GULP energy -156120.992429 kJ/mol
# GULP energy per Si atom -5575.749730 kJ/mol
# Density = 2.092122 g / cm^3
# Si number density = 20.968945 Si / 1000 Ang^3
#
#
#
# Elastic Constant Matrix: (Units=GPa)
#
#
# Indices 1 2 3 4 5 6 
#
# 1 51.4589 31.5411 17.5160 0.0000 0.0000 0.0000
# 2 31.5411 233.5301 50.6811 0.0000 0.0000 0.0000
# 3 17.5160 50.6811 85.3966 0.0000 0.0000 0.0000
# 4 0.0000 0.0000 0.0000 22.4370 0.0000 0.0000
# 5 0.0000 0.0000 0.0000 0.0000 -35.1765 0.0000
# 6 0.0000 0.0000 0.0000 0.0000 0.0000 18.6253
#
#
#
# Elastic Compliance Matrix: (Units=1/GPa)
#
#
# Indices 1 2 3 4 5 6 
#
# 1 0.021897 -0.002276 -0.003141 0.000000 0.000000 0.000000
# 2 -0.002276 0.005152 -0.002591 0.000000 0.000000 0.000000
# 3 -0.003141 -0.002591 0.013892 0.000000 0.000000 0.000000
# 4 0.000000 0.000000 0.000000 0.044569 0.000000 0.000000
# 5 0.000000 0.000000 0.000000 0.000000 -0.028428 0.000000
# 6 0.000000 0.000000 0.000000 0.000000 0.000000 0.053690
#
#
# Mechanical properties :
#
#
# Convention : Reuss Voigt Hill
#
# Bulk Modulus (GPa) = 40.11858 63.31801 51.71830
# Shear Modulus (GPa) = 37.01096 19.22032 28.11564
#
# Velocity S-wave (km/s) = 4.20579 3.03084 3.66570
# Velocity P-wave (km/s) = 6.53902 6.51994 6.52949
#
# Compressibility (1/GPa) = 0.02492611
#
# Stress axis : x y z
#
# Youngs Moduli (GPa) = 45.66833 194.11037 71.98514
#
# Poissons Ratio (x) = 0.44177 0.22608
# Poissons Ratio (y) = 0.10393 0.18649
# Poissons Ratio (z) = 0.14343 0.50287
#
# Static dielectric constant tensor:
#      x y z
#    x 1.830750 0.000000 0.000000 
#    y 0.000000 1.883060 0.000000 
#    z 0.000000 0.000000 1.684560 
# 
# From -- ./inp_files/9853.got.cif
#   From: 2010.05.17/outbox.cif.g08.bks.cpg/sg45_5_cif.got.tgz:9853.got - 2010.06.03 19:51:22.
