data_PCOD9376994
_publ_section_title
;
Structure prediction by ZEFSAII (Michael W. Deem and Ramdas Pophale) SiO2 
 PCOD9376994
Probable space group: I B A 2
;
_chemical_formula_sum "Si O2"
_cell_formula_units_Z 60
_cell_length_a 12.642043
_cell_length_b 26.098011
_cell_length_c 8.392940
_cell_angle_alpha 90.000000
_cell_angle_beta 90.000000
_cell_angle_gamma 90.000000
_cell_volume 2769.100968
_symmetry_space_group_name_H-M "I B A 2"
_symmetry_group_IT_number 45
_symmetry_cell_setting 'orthorhombic'
loop_
_space_group_symop_operation_xyz
x,y,z
-x,-y,z
-x,y,1/2+z
x,-y,1/2+z
1/2+x,1/2+y,1/2+z
1/2-x,1/2-y,1/2+z
1/2-x,1/2+y,z
1/2+x,1/2-y,z
loop_
_atom_site_type_symbol
_atom_site_label
_atom_site_fract_x
_atom_site_fract_y
_atom_site_fract_z
Si Si1 0.500000 0.500000 0.314730
Si Si2 0.273804 0.157024 0.503563
Si Si3 0.849739 0.749424 0.629453
Si Si4 0.124202 0.550470 0.133130
Si Si5 0.441623 0.760901 0.973117
Si Si6 0.631237 0.433852 0.064295
Si Si7 0.332789 0.325201 0.668165
Si Si8 0.598998 0.935643 0.512190
O O1 0.578330 0.464584 0.210978
O O2 0.425412 0.461945 0.417098
O O3 0.217684 0.199387 0.609500
O O4 0.389614 0.182907 0.479116
O O5 0.197860 0.156355 0.347353
O O6 0.306818 0.101964 0.567688
O O7 0.900234 0.756216 0.802404
O O8 0.781067 0.697735 0.618656
O O9 0.934306 0.742794 0.490861
O O10 0.241098 0.563806 0.071183
O O11 0.114419 0.559985 0.321928
O O12 0.113425 0.490334 0.095068
O O13 0.023311 0.578055 0.051174
O O14 0.401159 0.724183 0.116060
O O15 0.613290 0.373056 0.080751
#
# Coordination Sequence:
#
# PCOD9376994 Si02
#       8
#     4   8   8   8   8   8   8   8
#     4  10  26  44  70  96 130 180 230 272 330 388
#     4  10  22  41  65  94 133 171 223 267 337 392
#     4  10  22  42  65  97 132 170 221 275 334 402
#     4  11  23  42  66  96 140 170 228 268 334 384
#     4  10  22  40  65  94 128 172 219 273 327 407
#     4  11  23  46  67  97 133 175 223 278 328 393
#     4  10  22  42  65  95 130 174 213 278 332 387
#     4  11  23  42  66 101 129 184 211 282 323 401
#
# _framework density 21.667681000000002
#
# number of rings (size 3 to 8) (size 9 to 14) (size 15 to 20)
#    0.000    1.600    1.333    3.200    1.867    3.200 
#    9.600    0.000    0.000    0.000    0.000    0.000 
#    0.000    0.000    0.000    0.000    0.000    0.000 
#
# Total GULP energy -167201.498303 kJ/mol
# GULP energy per Si atom -5573.383277 kJ/mol
# Density = 2.161836 g / cm^3
# Si number density = 21.667681 Si / 1000 Ang^3
#
#
#
# Elastic Constant Matrix: (Units=GPa)
#
#
# Indices 1 2 3 4 5 6 
#
# 1 45.4743 -17.3384 16.0404 0.0039 0.0007 0.0000
# 2 -17.3384 48.1337 14.8300 0.0046 0.0005 0.0000
# 3 16.0404 14.8300 37.8879 0.0007 -0.0038 -0.0010
# 4 0.0039 0.0046 0.0007 -10.8556 0.0081 -0.0002
# 5 0.0007 0.0005 -0.0038 0.0081 -24.0676 0.0003
# 6 0.0000 0.0000 -0.0010 -0.0002 0.0003 24.6293
#
#
#
# Elastic Compliance Matrix: (Units=1/GPa)
#
#
# Indices 1 2 3 4 5 6 
#
# 1 0.039205 0.021874 -0.025160 0.000022 0.000006 -0.000001
# 2 0.021874 0.035829 -0.023285 0.000022 0.000005 -0.000001
# 3 -0.025160 -0.023285 0.046160 -0.000016 -0.000008 0.000002
# 4 0.000022 0.000022 -0.000016 -0.092118 -0.000031 -0.000001
# 5 0.000006 0.000005 -0.000008 -0.000031 -0.041550 0.000000
# 6 -0.000001 -0.000001 0.000002 -0.000001 0.000000 0.040602
#
#
# Mechanical properties :
#
#
# Convention : Reuss Voigt Hill
#
# Bulk Modulus (GPa) = 14.69455 17.61776 16.15615
# Shear Modulus (GPa) = 48.09822 5.80547 26.95185
#
# Velocity S-wave (km/s) = 4.71660 1.63864 3.53068
# Velocity P-wave (km/s) = 6.03807 3.42472 4.90851
#
# Compressibility (1/GPa) = 0.06805244
#
# Stress axis : x y z
#
# Youngs Moduli (GPa) = 25.50665 27.91047 21.66393
#
# Poissons Ratio (x) = -0.61052 0.54507
# Poissons Ratio (y) = -0.55794 0.50444
# Poissons Ratio (z) = 0.64175 0.64989
#
# Static dielectric constant tensor:
#      x y z
#    x 1.915160 0.000010 0.000000 
#    y 0.000010 1.819780 0.000000 
#    z 0.000000 0.000000 1.806500 
# 
# From -- ./inp_files/1458.got.cif
#   From: 2010.05.17/outbox.cif.g08.bks.cpg/sg45_1_cif.got.tgz:1458.got - 2010.06.03 19:51:22.
