data_PCOD9376184
_publ_section_title
;
Structure prediction by ZEFSAII (Michael W. Deem and Ramdas Pophale) SiO2 
 PCOD9376184
Probable space group: I B A 2
;
_chemical_formula_sum "Si O2"
_cell_formula_units_Z 52
_cell_length_a 8.953647
_cell_length_b 11.803442
_cell_length_c 17.899069
_cell_angle_alpha 90.000000
_cell_angle_beta 90.000000
_cell_angle_gamma 90.000000
_cell_volume 1891.642578
_symmetry_space_group_name_H-M "I B A 2"
_symmetry_group_IT_number 45
_symmetry_cell_setting 'orthorhombic'
loop_
_space_group_symop_operation_xyz
x,y,z
-x,-y,z
-x,y,1/2+z
x,-y,1/2+z
1/2+x,1/2+y,1/2+z
1/2-x,1/2-y,1/2+z
1/2-x,1/2+y,z
1/2+x,1/2-y,z
loop_
_atom_site_type_symbol
_atom_site_label
_atom_site_fract_x
_atom_site_fract_y
_atom_site_fract_z
Si Si1 0.426679 0.262136 0.076730
Si Si2 0.272700 0.005704 0.218885
Si Si3 0.670539 0.585154 0.571718
Si Si4 0.000000 0.000000 0.800318
Si Si5 0.238873 0.501455 0.913105
Si Si6 0.482539 0.812555 0.907142
Si Si7 0.477688 0.814617 0.245009
O O1 0.496340 0.387175 0.082486
O O2 0.260762 0.208234 0.074150
O O3 0.484596 0.223000 0.160127
O O4 0.486253 0.234231 0.990906
O O5 0.268448 0.014624 0.130511
O O6 0.396610 0.086885 0.253474
O O7 0.112995 0.058069 0.241282
O O8 0.316594 0.877160 0.239230
O O9 0.700155 0.529007 0.493413
O O10 0.868505 0.967689 0.856357
O O11 0.179761 0.372772 0.909219
O O12 0.103434 0.587147 0.900352
O O13 0.505150 0.750658 0.825773
#
# Coordination Sequence:
#
# PCOD9376184 Si02
#       7
#     8   8   8   4   8   8   8
#     4  10  23  39  62  90 126 163 211 236 318 374
#     4  10  20  36  61  88 119 150 211 255 311 352
#     4  10  23  42  56  86 126 168 197 256 302 382
#     4  12  20  32  56  96 116 140 200 282 308 340
#     4  10  20  36  61  88 119 150 211 255 311 352
#     4  10  18  40  65  89 116 169 206 253 295 387
#     4  10  18  40  65  89 116 169 206 253 295 387
#
# _framework density 27.489336000000002
#
# number of rings (size 3 to 8) (size 9 to 14) (size 15 to 20)
#    0.000    1.846    3.077    1.846    0.000    6.769 
#    2.769    3.077    0.000    0.000    0.000    0.000 
#    0.000    0.000    0.000    0.000    0.000    0.000 
#
# Total GULP energy -144859.448079 kJ/mol
# GULP energy per Si atom -5571.517234 kJ/mol
# Density = 2.742677 g / cm^3
# Si number density = 27.489336 Si / 1000 Ang^3
#
#
#
# Elastic Constant Matrix: (Units=GPa)
#
#
# Indices 1 2 3 4 5 6 
#
# 1 104.4429 10.9705 -6.8486 0.0000 0.0000 0.0000
# 2 10.9705 45.4798 18.0898 0.0000 0.0000 0.0000
# 3 -6.8486 18.0898 153.0449 0.0000 0.0000 0.0000
# 4 0.0000 0.0000 0.0000 49.4909 0.0000 0.0000
# 5 0.0000 0.0000 0.0000 0.0000 38.6575 0.0000
# 6 0.0000 0.0000 0.0000 0.0000 0.0000 39.2296
#
#
#
# Elastic Compliance Matrix: (Units=1/GPa)
#
#
# Indices 1 2 3 4 5 6 
#
# 1 0.009907 -0.002693 0.000762 0.000000 0.000000 0.000000
# 2 -0.002693 0.023804 -0.002934 0.000000 0.000000 0.000000
# 3 0.000762 -0.002934 0.006915 0.000000 0.000000 0.000000
# 4 0.000000 0.000000 0.000000 0.020206 0.000000 0.000000
# 5 0.000000 0.000000 0.000000 0.000000 0.025868 0.000000
# 6 0.000000 0.000000 0.000000 0.000000 0.000000 0.025491
#
#
# Mechanical properties :
#
#
# Convention : Reuss Voigt Hill
#
# Bulk Modulus (GPa) = 32.36651 38.59900 35.48275
# Shear Modulus (GPa) = 37.81549 44.19267 41.00408
#
# Velocity S-wave (km/s) = 3.71299 4.01388 3.86636
# Velocity P-wave (km/s) = 5.49377 5.96268 5.73302
#
# Compressibility (1/GPa) = 0.03089613
#
# Stress axis : x y z
#
# Youngs Moduli (GPa) = 100.93470 42.00899 144.61468
#
# Poissons Ratio (x) = 0.11312 -0.11014
# Poissons Ratio (y) = 0.27179 0.42432
# Poissons Ratio (z) = -0.07687 0.12326
#
# Static dielectric constant tensor:
#      x y z
#    x 2.142840 0.000000 0.000000 
#    y 0.000000 2.424790 0.000000 
#    z 0.000000 0.000000 2.231820 
# 
# From -- ./inp_files/7665.got.cif
#   From: 2010.05.17/outbox.cif.g08.bks.cpg/sg45_4_cif.got.tgz:7665.got - 2010.06.03 19:51:22.
