data_PCOD9376013
_publ_section_title
;
Structure prediction by ZEFSAII (Michael W. Deem and Ramdas Pophale) SiO2 
 PCOD9376013
Probable space group: I M M 2
;
_chemical_formula_sum "Si O2"
_cell_formula_units_Z 32
_cell_length_a 18.000000
_cell_length_b 15.000000
_cell_length_c 12.000000
_cell_angle_alpha 90.000000
_cell_angle_beta 90.000000
_cell_angle_gamma 90.000000
_cell_volume 3240.000000
_symmetry_space_group_name_H-M "I M M 2"
_symmetry_group_IT_number 44
_symmetry_cell_setting 'orthorhombic'
loop_
_space_group_symop_operation_xyz
x,y,z
-x,-y,z
-x,y,z
x,-y,z
1/2+x,1/2+y,1/2+z
1/2-x,1/2-y,1/2+z
1/2-x,1/2+y,1/2+z
1/2+x,1/2-y,1/2+z
loop_
_atom_site_type_symbol
_atom_site_label
_atom_site_fract_x
_atom_site_fract_y
_atom_site_fract_z
Si Si1 0.822020 0.893285 0.118310
Si Si2 0.847503 0.401806 0.630301
Si Si3 0.283511 0.105131 0.735885
Si Si4 0.915343 0.742945 0.239957
Si Si5 0.699938 0.601435 0.001193
Si Si6 0.412891 0.898359 0.371035
Si Si7 0.702706 0.739628 0.409082
Si Si8 0.583184 0.263238 0.005484
O O1 0.738263 0.892584 0.168043
O O2 0.878248 0.833547 0.191194
O O3 0.841011 0.000000 0.103702
O O4 0.812562 0.833030 0.006441
O O5 0.853839 0.500000 0.574852
O O6 0.899195 0.401612 0.738265
O O7 0.869029 0.318574 0.554407
O O8 0.361930 0.157239 0.720854
O O9 0.246773 0.099664 0.614560
O O10 0.232955 0.174356 0.809945
O O11 0.288858 0.000000 0.776438
O O12 0.919777 0.752842 0.372875
O O13 0.000000 0.731363 0.197165
O O14 0.698680 0.500000 0.954163
O O15 0.735083 0.683554 0.931002
O O16 0.619202 0.640910 0.030194
O O17 0.500000 0.890558 0.397537
O O18 0.368222 0.807675 0.402673
O O19 0.388042 0.000000 0.411225
O O20 0.500000 0.256227 0.051261
#
# Coordination Sequence:
#
# PCOD9376013 Si02
#       8
#     8   8   8   8   8   8   8   8
#     4  11  23  40  64  92 117 156 211 256 301 363
#     4  10  20  37  63  92 121 157 200 255 312 364
#     4  11  23  42  65  94 124 157 205 258 307 361
#     4  11  23  40  60  88 127 166 200 247 306 363
#     4  11  23  39  61  88 121 162 206 252 301 360
#     4  10  22  38  60  93 127 160 203 256 311 364
#     4  12  21  40  68  89 119 163 206 254 309 362
#     4  11  22  37  59  89 124 160 198 245 307 369
#
# _framework density 9.8765429999999999
#
# number of rings (size 3 to 8) (size 9 to 14) (size 15 to 20)
#    0.000    1.125    3.750    2.625    0.000    4.000 
#    0.000    2.500    0.000    1.875    0.000    0.000 
#    0.000    0.000    0.000    0.000    0.000    0.000 
#
# Total GULP energy -178436.419326 kJ/mol
# GULP energy per Si atom -5576.138104 kJ/mol
# Density = 0.985406 g / cm^3
# Si number density = 9.876543 Si / 1000 Ang^3
#
#
#
# Elastic Constant Matrix: (Units=GPa)
#
#
# Indices 1 2 3 4 5 6 
#
# 1 112.2507 50.8551 1.7846 0.0000 0.0000 0.0000
# 2 50.8551 196.3293 19.7741 0.0000 0.0000 0.0000
# 3 1.7846 19.7741 26.3554 0.0000 0.0000 0.0000
# 4 0.0000 0.0000 0.0000 32.8415 0.0000 0.0000
# 5 0.0000 0.0000 0.0000 0.0000 24.6860 0.0000
# 6 0.0000 0.0000 0.0000 0.0000 0.0000 24.2233
#
#
#
# Elastic Compliance Matrix: (Units=1/GPa)
#
#
# Indices 1 2 3 4 5 6 
#
# 1 0.010140 -0.002766 0.001389 0.000000 0.000000 0.000000
# 2 -0.002766 0.006265 -0.004513 0.000000 0.000000 0.000000
# 3 0.001389 -0.004513 0.041235 0.000000 0.000000 0.000000
# 4 0.000000 0.000000 0.000000 0.030449 0.000000 0.000000
# 5 0.000000 0.000000 0.000000 0.000000 0.040509 0.000000
# 6 0.000000 0.000000 0.000000 0.000000 0.000000 0.041283
#
#
# Mechanical properties :
#
#
# Convention : Reuss Voigt Hill
#
# Bulk Modulus (GPa) = 21.80614 53.30701 37.55658
# Shear Modulus (GPa) = 25.38756 33.85160 29.61958
#
# Velocity S-wave (km/s) = 3.58892 4.14422 3.87653
# Velocity P-wave (km/s) = 5.31386 7.06716 6.25227
#
# Compressibility (1/GPa) = 0.04585864
#
# Stress axis : x y z
#
# Youngs Moduli (GPa) = 98.62051 159.62687 24.25133
#
# Poissons Ratio (x) = 0.44160 -0.03369
# Poissons Ratio (y) = 0.27283 0.10944
# Poissons Ratio (z) = -0.13699 0.72039
#
# Static dielectric constant tensor:
#      x y z
#    x 1.757560 0.000000 0.000000 
#    y 0.000000 1.698760 0.000000 
#    z 0.000000 0.000000 1.731740 
# 
# From -- ./inp_files/13998.got.cif
#   From: 2010.05.17/outbox.ucp.g08.bks.cvg/sg44_7_cif.got.tgz:13998.got - 2010.06.11 16:32:36.
