data_PCOD9376811
_publ_section_title
;
Structure prediction by ZEFSAII (Michael W. Deem and Ramdas Pophale) SiO2 
 PCOD9376811
Probable space group: I B A 2
;
_chemical_formula_sum "Si O2"
_cell_formula_units_Z 48
_cell_length_a 13.451343
_cell_length_b 9.778113
_cell_length_c 17.056587
_cell_angle_alpha 90.000000
_cell_angle_beta 90.000000
_cell_angle_gamma 90.000000
_cell_volume 2243.431599
_symmetry_space_group_name_H-M "I B A 2"
_symmetry_group_IT_number 45
_symmetry_cell_setting 'orthorhombic'
loop_
_space_group_symop_operation_xyz
x,y,z
-x,-y,z
-x,y,1/2+z
x,-y,1/2+z
1/2+x,1/2+y,1/2+z
1/2-x,1/2-y,1/2+z
1/2-x,1/2+y,z
1/2+x,1/2-y,z
loop_
_atom_site_type_symbol
_atom_site_label
_atom_site_fract_x
_atom_site_fract_y
_atom_site_fract_z
Si Si1 0.096317 0.410831 0.637400
Si Si2 0.787875 0.099594 0.331364
Si Si3 0.978743 0.157521 0.623382
Si Si4 0.368060 0.690868 0.979242
Si Si5 0.201003 0.495815 0.985577
Si Si6 0.789991 0.150436 0.728182
O O1 0.121241 0.446356 0.546859
O O2 0.197761 0.425208 0.685357
O O3 0.000000 0.500000 0.660644
O O4 0.066032 0.254349 0.651366
O O5 0.873451 0.162585 0.387241
O O6 0.703571 0.050321 0.395497
O O7 0.746521 0.216956 0.275450
O O8 0.826661 0.965633 0.288107
O O9 0.964437 0.194715 0.531852
O O10 0.876127 0.191936 0.667842
O O11 0.000000 0.000000 0.634298
O O12 0.305594 0.561478 0.012538
O O13 0.307922 0.832609 0.988169
#
# Coordination Sequence:
#
# PCOD9376811 Si02
#       6
#     8   8   8   8   8   8
#     4  12  25  42  69  99 133 178 226 270 330 397
#     4  10  21  40  74  90 130 184 204 272 347 379
#     4  12  27  42  67 101 131 177 225 271 332 397
#     4  10  21  43  67  97 125 173 227 261 330 386
#     4  10  21  42  68  96 126 173 226 264 329 386
#     4  12  23  44  67  95 143 169 213 280 332 401
#
# _framework density 21.395793999999999
#
# number of rings (size 3 to 8) (size 9 to 14) (size 15 to 20)
#    1.000    0.000    5.000    2.000    2.333    0.000 
#    0.000   10.000    0.000    0.000    0.000    0.000 
#    0.000    0.000    0.000    0.000    0.000    0.000 
#
# Total GULP energy -133824.699163 kJ/mol
# GULP energy per Si atom -5576.029132 kJ/mol
# Density = 2.134710 g / cm^3
# Si number density = 21.395794 Si / 1000 Ang^3
#
#
#
# Elastic Constant Matrix: (Units=GPa)
#
#
# Indices 1 2 3 4 5 6 
#
# 1 35.3306 -18.5035 12.9071 0.0000 0.0000 0.0000
# 2 -18.5035 80.2422 14.8234 0.0000 0.0000 0.0000
# 3 12.9071 14.8234 75.1436 0.0000 0.0000 0.0000
# 4 0.0000 0.0000 0.0000 32.7627 0.0000 0.0000
# 5 0.0000 0.0000 0.0000 0.0000 11.2495 0.0000
# 6 0.0000 0.0000 0.0000 0.0000 0.0000 26.3179
#
#
#
# Elastic Compliance Matrix: (Units=1/GPa)
#
#
# Indices 1 2 3 4 5 6 
#
# 1 0.036519 0.009942 -0.008234 0.000000 0.000000 0.000000
# 2 0.009942 0.015640 -0.004793 0.000000 0.000000 0.000000
# 3 -0.008234 -0.004793 0.015668 0.000000 0.000000 0.000000
# 4 0.000000 0.000000 0.000000 0.030523 0.000000 0.000000
# 5 0.000000 0.000000 0.000000 0.000000 0.088893 0.000000
# 6 0.000000 0.000000 0.000000 0.000000 0.000000 0.037997
#
#
# Mechanical properties :
#
#
# Convention : Reuss Voigt Hill
#
# Bulk Modulus (GPa) = 16.21861 23.24115 19.72988
# Shear Modulus (GPa) = 19.84428 26.16531 23.00479
#
# Velocity S-wave (km/s) = 3.04877 3.50082 3.28258
# Velocity P-wave (km/s) = 4.47102 5.21795 4.85886
#
# Compressibility (1/GPa) = 0.06165755
#
# Stress axis : x y z
#
# Youngs Moduli (GPa) = 27.38288 63.93711 63.82562
#
# Poissons Ratio (x) = -0.63568 0.52554
# Poissons Ratio (y) = -0.27225 0.30592
# Poissons Ratio (z) = 0.22547 0.30646
#
# Static dielectric constant tensor:
#      x y z
#    x 1.759230 0.000000 0.000000 
#    y 0.000000 1.746700 0.000000 
#    z 0.000000 0.000000 1.795230 
# 
# From -- ./inp_files/7559.got.cif
#   From: 2010.05.17/outbox.cif.g08.bks.cpg/sg45_4_cif.got.tgz:7559.got - 2010.06.03 19:51:22.
