data_PCOD9376703
_publ_section_title
;
Structure prediction by ZEFSAII (Michael W. Deem and Ramdas Pophale) SiO2 
 PCOD9376703
Probable space group: I B A 2
;
_chemical_formula_sum "Si O2"
_cell_formula_units_Z 44
_cell_length_a 32.763217
_cell_length_b 7.403758
_cell_length_c 8.271149
_cell_angle_alpha 90.000000
_cell_angle_beta 90.000000
_cell_angle_gamma 90.000000
_cell_volume 2006.340305
_symmetry_space_group_name_H-M "I B A 2"
_symmetry_group_IT_number 45
_symmetry_cell_setting 'orthorhombic'
loop_
_space_group_symop_operation_xyz
x,y,z
-x,-y,z
-x,y,1/2+z
x,-y,1/2+z
1/2+x,1/2+y,1/2+z
1/2-x,1/2-y,1/2+z
1/2-x,1/2+y,z
1/2+x,1/2-y,z
loop_
_atom_site_type_symbol
_atom_site_label
_atom_site_fract_x
_atom_site_fract_y
_atom_site_fract_z
Si Si1 0.213156 0.584578 0.562600
Si Si2 0.000000 0.000000 0.520741
Si Si3 0.793080 0.774030 0.712989
Si Si4 0.375998 0.878495 0.129828
Si Si5 0.383132 0.269543 0.265727
Si Si6 0.938788 0.117758 0.763936
O O1 0.205184 0.371184 0.567229
O O2 0.214682 0.673858 0.385548
O O3 0.254854 0.606726 0.662163
O O4 0.172474 0.655749 0.652726
O O5 0.972305 0.134411 0.623924
O O6 0.032876 0.110977 0.419326
O O7 0.838193 0.855081 0.732443
O O8 0.385332 0.090369 0.155238
O O9 0.384409 0.806413 0.948991
O O10 0.404195 0.766546 0.250770
O O11 0.416726 0.423101 0.245589
#
# Coordination Sequence:
#
# PCOD9376703 Si02
#       6
#     8   4   8   8   8   8
#     4  10  21  38  57  88 125 164 211 257 303 367
#     4  10  24  42  70  94 128 156 208 270 314 394
#     4  10  21  38  57  88 125 164 211 257 303 367
#     4  10  23  41  65  94 127 170 213 256 316 380
#     4  10  23  41  65  94 127 170 213 256 316 380
#     4  11  22  46  66  94 128 164 206 262 326 375
#
# _framework density 21.930477
#
# number of rings (size 3 to 8) (size 9 to 14) (size 15 to 20)
#    0.000    1.818    1.818    1.091    5.091    1.455 
#    0.000    5.455    0.000    0.000    0.000    0.000 
#    0.000    0.000    0.000    0.000    0.000    0.000 
#
# Total GULP energy -122792.217537 kJ/mol
# GULP energy per Si atom -5581.464434 kJ/mol
# Density = 2.188056 g / cm^3
# Si number density = 21.930477 Si / 1000 Ang^3
#
#
#
# Elastic Constant Matrix: (Units=GPa)
#
#
# Indices 1 2 3 4 5 6 
#
# 1 124.2415 41.3377 36.6239 0.0000 0.0000 0.0000
# 2 41.3377 59.3039 3.0377 0.0000 0.0000 0.0000
# 3 36.6239 3.0377 59.4370 0.0000 0.0000 0.0000
# 4 0.0000 0.0000 0.0000 14.1853 0.0000 0.0000
# 5 0.0000 0.0000 0.0000 0.0000 31.3766 0.0000
# 6 0.0000 0.0000 0.0000 0.0000 0.0000 21.3949
#
#
#
# Elastic Compliance Matrix: (Units=1/GPa)
#
#
# Indices 1 2 3 4 5 6 
#
# 1 0.013273 -0.008856 -0.007726 0.000000 0.000000 0.000000
# 2 -0.008856 0.022816 0.004291 0.000000 0.000000 0.000000
# 3 -0.007726 0.004291 0.021366 0.000000 0.000000 0.000000
# 4 0.000000 0.000000 0.000000 0.070496 0.000000 0.000000
# 5 0.000000 0.000000 0.000000 0.000000 0.031871 0.000000
# 6 0.000000 0.000000 0.000000 0.000000 0.000000 0.046740
#
#
# Mechanical properties :
#
#
# Convention : Reuss Voigt Hill
#
# Bulk Modulus (GPa) = 30.42088 44.99788 37.70938
# Shear Modulus (GPa) = 20.65259 24.19023 22.42141
#
# Velocity S-wave (km/s) = 3.07209 3.32481 3.20095
# Velocity P-wave (km/s) = 5.14639 5.94156 5.55821
#
# Compressibility (1/GPa) = 0.03287215
#
# Stress axis : x y z
#
# Youngs Moduli (GPa) = 75.34157 43.82954 46.80389
#
# Poissons Ratio (x) = 0.38816 0.36160
# Poissons Ratio (y) = 0.66723 -0.20083
# Poissons Ratio (z) = 0.58208 -0.18807
#
# Static dielectric constant tensor:
#      x y z
#    x 1.795310 0.000000 0.000000 
#    y 0.000000 1.783540 0.000000 
#    z 0.000000 0.000000 1.848950 
# 
# From -- ./inp_files/2723.got.cif
#   From: 2010.05.17/outbox.cif.g08.bks.cpg/sg45_2_cif.got.tgz:2723.got - 2010.06.03 19:51:22.
