data_PCOD9376697
_publ_section_title
;
Structure prediction by ZEFSAII (Michael W. Deem and Ramdas Pophale) SiO2 
 PCOD9376697
Probable space group: I B A 2
;
_chemical_formula_sum "Si O2"
_cell_formula_units_Z 64
_cell_length_a 20.668027
_cell_length_b 7.948308
_cell_length_c 16.913254
_cell_angle_alpha 90.000000
_cell_angle_beta 90.000000
_cell_angle_gamma 90.000000
_cell_volume 2778.439082
_symmetry_space_group_name_H-M "I B A 2"
_symmetry_group_IT_number 45
_symmetry_cell_setting 'orthorhombic'
loop_
_space_group_symop_operation_xyz
x,y,z
-x,-y,z
-x,y,1/2+z
x,-y,1/2+z
1/2+x,1/2+y,1/2+z
1/2-x,1/2-y,1/2+z
1/2-x,1/2+y,z
1/2+x,1/2-y,z
loop_
_atom_site_type_symbol
_atom_site_label
_atom_site_fract_x
_atom_site_fract_y
_atom_site_fract_z
Si Si1 0.592419 0.127089 0.549630
Si Si2 0.273650 0.283304 0.054405
Si Si3 0.539335 0.250206 0.074016
Si Si4 0.666156 0.597370 0.632454
Si Si5 0.298384 0.279995 0.388685
Si Si6 0.426437 0.724307 0.373478
Si Si7 0.305654 0.616971 0.304078
Si Si8 0.559860 0.323926 0.895432
O O1 0.667396 0.153482 0.569872
O O2 0.536369 0.232749 0.596172
O O3 0.587075 0.192560 0.458749
O O4 0.569137 0.936342 0.560973
O O5 0.310042 0.459448 0.069140
O O6 0.214210 0.252601 0.113909
O O7 0.241782 0.260503 0.967838
O O8 0.591408 0.351903 0.124653
O O9 0.541039 0.330975 0.987285
O O10 0.680345 0.535936 0.720235
O O11 0.301591 0.478298 0.372855
O O12 0.262357 0.206897 0.312894
O O13 0.372734 0.225764 0.392009
O O14 0.363158 0.750742 0.320750
O O15 0.431158 0.518840 0.372102
O O16 0.500363 0.767493 0.351571
#
# Coordination Sequence:
#
# PCOD9376697 Si02
#       8
#     8   8   8   8   8   8   8   8
#     4  10  21  37  64  95 123 160 222 274 320 377
#     4  12  23  39  65  95 123 171 227 267 325 396
#     4  10  21  38  61  94 128 164 212 276 323 390
#     4  12  25  42  62  93 136 175 212 276 346 395
#     4  11  22  38  63  93 121 169 219 269 315 390
#     4   9  18  37  60  91 122 160 210 271 317 386
#     4  11  24  41  61  92 133 168 211 270 343 391
#     4   9  18  34  62  91 120 158 218 267 315 371
#
# _framework density 23.034517000000001
#
# number of rings (size 3 to 8) (size 9 to 14) (size 15 to 20)
#    0.000    1.500    2.500    3.000    1.750    1.500 
#    0.000    6.250    0.000    6.000    0.000    0.000 
#    0.000    0.000    0.000    0.000    0.000    0.000 
#
# Total GULP energy -178503.150301 kJ/mol
# GULP energy per Si atom -5578.223447 kJ/mol
# Density = 2.298209 g / cm^3
# Si number density = 23.034517 Si / 1000 Ang^3
#
#
#
# Elastic Constant Matrix: (Units=GPa)
#
#
# Indices 1 2 3 4 5 6 
#
# 1 144.1509 19.6343 24.7310 0.0000 0.0000 0.0000
# 2 19.6343 43.9824 9.5168 0.0000 0.0000 0.0000
# 3 24.7310 9.5168 67.9628 0.0000 0.0000 0.0000
# 4 0.0000 0.0000 0.0000 18.3885 0.0000 0.0000
# 5 0.0000 0.0000 0.0000 0.0000 7.4987 0.0000
# 6 0.0000 0.0000 0.0000 0.0000 0.0000 27.7969
#
#
#
# Elastic Compliance Matrix: (Units=1/GPa)
#
#
# Indices 1 2 3 4 5 6 
#
# 1 0.007751 -0.002939 -0.002409 0.000000 0.000000 0.000000
# 2 -0.002939 0.024561 -0.002370 0.000000 0.000000 0.000000
# 3 -0.002409 -0.002370 0.015922 0.000000 0.000000 0.000000
# 4 0.000000 0.000000 0.000000 0.054382 0.000000 0.000000
# 5 0.000000 0.000000 0.000000 0.000000 0.133356 0.000000
# 6 0.000000 0.000000 0.000000 0.000000 0.000000 0.035975
#
#
# Mechanical properties :
#
#
# Convention : Reuss Voigt Hill
#
# Bulk Modulus (GPa) = 30.48871 40.42891 35.45881
# Shear Modulus (GPa) = 16.76079 24.21777 20.48928
#
# Velocity S-wave (km/s) = 2.70040 3.24600 2.98569
# Velocity P-wave (km/s) = 4.79455 5.62479 5.22618
#
# Compressibility (1/GPa) = 0.03279903
#
# Stress axis : x y z
#
# Youngs Moduli (GPa) = 129.02004 40.71483 62.80480
#
# Poissons Ratio (x) = 0.11965 0.15129
# Poissons Ratio (y) = 0.37916 0.14884
# Poissons Ratio (z) = 0.31080 0.09649
#
# Static dielectric constant tensor:
#      x y z
#    x 2.005010 0.000000 0.000000 
#    y 0.000000 1.944680 0.000000 
#    z 0.000000 0.000000 1.837780 
# 
# From -- ./inp_files/8465.got.cif
#   From: 2010.05.17/outbox.cif.g08.bks.cpg/sg45_5_cif.got.tgz:8465.got - 2010.06.03 19:51:22.
