data_PCOD9376732
_publ_section_title
;
Structure prediction by ZEFSAII (Michael W. Deem and Ramdas Pophale) SiO2 
 PCOD9376732
Probable space group: I B A 2
;
_chemical_formula_sum "Si O2"
_cell_formula_units_Z 44
_cell_length_a 12.940661
_cell_length_b 8.504621
_cell_length_c 16.636546
_cell_angle_alpha 90.000000
_cell_angle_beta 90.000000
_cell_angle_gamma 90.000000
_cell_volume 1830.942012
_symmetry_space_group_name_H-M "I B A 2"
_symmetry_group_IT_number 45
_symmetry_cell_setting 'orthorhombic'
loop_
_space_group_symop_operation_xyz
x,y,z
-x,-y,z
-x,y,1/2+z
x,-y,1/2+z
1/2+x,1/2+y,1/2+z
1/2-x,1/2-y,1/2+z
1/2-x,1/2+y,z
1/2+x,1/2-y,z
loop_
_atom_site_type_symbol
_atom_site_label
_atom_site_fract_x
_atom_site_fract_y
_atom_site_fract_z
Si Si1 0.000000 0.500000 0.342401
Si Si2 0.699014 0.064015 0.180501
Si Si3 0.000000 0.000000 0.144272
Si Si4 0.500000 0.000000 0.106290
Si Si5 0.675266 0.501627 0.529165
Si Si6 0.368136 0.821326 0.472212
Si Si7 0.136445 0.753314 0.243298
O O1 0.920887 0.598621 0.396632
O O2 0.928672 0.363011 0.300787
O O3 0.757031 0.091791 0.096346
O O4 0.762389 0.134687 0.255481
O O5 0.578639 0.095225 0.163801
O O6 0.695992 0.876397 0.189911
O O7 0.915321 0.926753 0.083429
O O8 0.941546 0.127040 0.199186
O O9 0.565663 0.887292 0.048174
O O10 0.630338 0.366593 0.472036
O O11 0.750987 0.618341 0.483707
#
# Coordination Sequence:
#
# PCOD9376732 Si02
#       7
#     4   8   4   4   8   8   8
#     4  11  27  48  64  96 147 207 246 278 354 451
#     4  10  21  38  67 104 134 175 232 303 367 413
#     4  10  22  42  72 108 134 172 236 316 388 422
#     4   9  17  34  62  94 131 165 218 294 362 407
#     4  10  21  39  67 100 127 165 228 301 359 404
#     4  10  23  41  65  93 135 184 232 285 347 431
#     4  11  25  42  69 103 147 191 238 295 361 448
#
# _framework density 24.031345000000002
#
# number of rings (size 3 to 8) (size 9 to 14) (size 15 to 20)
#    0.000    1.818    0.000    4.909    0.000   18.909 
#    0.000    2.727    0.000    0.000    0.000    0.000 
#    0.000    0.000    0.000    0.000    0.000    0.000 
#
# Total GULP energy -122657.623533 kJ/mol
# GULP energy per Si atom -5575.346524 kJ/mol
# Density = 2.397665 g / cm^3
# Si number density = 24.031345 Si / 1000 Ang^3
#
#
#
# Elastic Constant Matrix: (Units=GPa)
#
#
# Indices 1 2 3 4 5 6 
#
# 1 157.4541 43.7795 55.5791 0.0000 0.0000 0.0000
# 2 43.7795 131.1644 35.8398 0.0000 0.0000 0.0000
# 3 55.5791 35.8398 61.1069 0.0000 0.0000 0.0000
# 4 0.0000 0.0000 0.0000 33.8105 0.0000 0.0000
# 5 0.0000 0.0000 0.0000 0.0000 29.3269 0.0000
# 6 0.0000 0.0000 0.0000 0.0000 0.0000 57.0011
#
#
#
# Elastic Compliance Matrix: (Units=1/GPa)
#
#
# Indices 1 2 3 4 5 6 
#
# 1 0.009455 -0.000960 -0.008036 0.000000 0.000000 0.000000
# 2 -0.000960 0.009176 -0.004509 0.000000 0.000000 0.000000
# 3 -0.008036 -0.004509 0.026319 0.000000 0.000000 0.000000
# 4 0.000000 0.000000 0.000000 0.029577 0.000000 0.000000
# 5 0.000000 0.000000 0.000000 0.000000 0.034098 0.000000
# 6 0.000000 0.000000 0.000000 0.000000 0.000000 0.017544
#
#
# Mechanical properties :
#
#
# Convention : Reuss Voigt Hill
#
# Bulk Modulus (GPa) = 55.74364 68.90246 62.32305
# Shear Modulus (GPa) = 31.41515 38.32953 34.87234
#
# Velocity S-wave (km/s) = 3.61952 3.99805 3.81349
# Velocity P-wave (km/s) = 6.38079 7.07437 6.73651
#
# Compressibility (1/GPa) = 0.01793927
#
# Stress axis : x y z
#
# Youngs Moduli (GPa) = 105.76764 108.97447 37.99563
#
# Poissons Ratio (x) = 0.10460 0.30535
# Poissons Ratio (y) = 0.10152 0.17132
# Poissons Ratio (z) = 0.85000 0.49137
#
# Static dielectric constant tensor:
#      x y z
#    x 2.050260 0.000000 0.000000 
#    y 0.000000 1.939190 0.000000 
#    z 0.000000 0.000000 1.949920 
# 
# From -- ./inp_files/8128.got.cif
#   From: 2010.05.17/outbox.cif.g08.bks.cpg/sg45_5_cif.got.tgz:8128.got - 2010.06.03 19:51:22.
