data_PCOD9376273
_publ_section_title
;
Structure prediction by ZEFSAII (Michael W. Deem and Ramdas Pophale) SiO2 
 PCOD9376273
Probable space group: I B A 2
;
_chemical_formula_sum "Si O2"
_cell_formula_units_Z 60
_cell_length_a 33.086678
_cell_length_b 10.740114
_cell_length_c 8.769638
_cell_angle_alpha 90.000000
_cell_angle_beta 90.000000
_cell_angle_gamma 90.000000
_cell_volume 3116.332024
_symmetry_space_group_name_H-M "I B A 2"
_symmetry_group_IT_number 45
_symmetry_cell_setting 'orthorhombic'
loop_
_space_group_symop_operation_xyz
x,y,z
-x,-y,z
-x,y,1/2+z
x,-y,1/2+z
1/2+x,1/2+y,1/2+z
1/2-x,1/2-y,1/2+z
1/2-x,1/2+y,z
1/2+x,1/2-y,z
loop_
_atom_site_type_symbol
_atom_site_label
_atom_site_fract_x
_atom_site_fract_y
_atom_site_fract_z
Si Si1 0.376583 0.111281 0.863320
Si Si2 0.676938 0.315316 0.228564
Si Si3 0.123829 0.252467 0.681241
Si Si4 0.000000 0.500000 0.058988
Si Si5 0.192491 0.417439 0.829024
Si Si6 0.942309 0.596014 0.807117
Si Si7 0.762481 0.379757 0.636303
Si Si8 0.826304 0.050338 0.051469
O O1 0.358574 0.212648 0.745614
O O2 0.339386 0.018167 0.895632
O O3 0.412819 0.025509 0.804167
O O4 0.386537 0.179156 0.021213
O O5 0.718532 0.236603 0.226746
O O6 0.674191 0.403516 0.377108
O O7 0.673970 0.403484 0.081892
O O8 0.164112 0.317767 0.746954
O O9 0.087090 0.285776 0.792903
O O10 0.135901 0.113217 0.637578
O O11 0.972556 0.414010 0.165691
O O12 0.970080 0.581097 0.954767
O O13 0.220300 0.494654 0.713028
O O14 0.218635 0.368211 0.968271
O O15 0.714868 0.394329 0.623544
#
# Coordination Sequence:
#
# PCOD9376273 Si02
#       8
#     8   8   8   4   8   8   8   8
#     4   9  18  37  57  82 117 153 193 236 292 361
#     4  10  25  40  55  82 111 158 209 252 297 348
#     4  10  20  35  56  79 117 158 194 239 293 356
#     4  10  20  32  60  98 122 140 172 230 300 378
#     4  10  20  35  56  82 107 154 197 251 306 347
#     4  10  19  35  59  93 124 143 180 230 302 366
#     4  11  23  36  58  77 114 148 208 268 308 342
#     4  11  25  39  55  78 114 157 217 253 301 344
#
# _framework density 19.253402999999999
#
# number of rings (size 3 to 8) (size 9 to 14) (size 15 to 20)
#    0.000    1.867    2.667    0.800    5.600    0.000 
#    0.000    0.000    0.000    0.000    0.000    5.600 
#    0.000    0.000    0.000    0.000    0.000    0.000 
#
# Total GULP energy -167544.834666 kJ/mol
# GULP energy per Si atom -5584.827822 kJ/mol
# Density = 1.920958 g / cm^3
# Si number density = 19.253403 Si / 1000 Ang^3
#
#
#
# Elastic Constant Matrix: (Units=GPa)
#
#
# Indices 1 2 3 4 5 6 
#
# 1 88.5954 19.2533 23.1481 0.0000 0.0000 0.0000
# 2 19.2533 56.0250 13.3433 0.0000 0.0000 0.0000
# 3 23.1481 13.3433 59.2189 0.0000 0.0000 0.0000
# 4 0.0000 0.0000 0.0000 26.1545 0.0000 0.0000
# 5 0.0000 0.0000 0.0000 0.0000 29.2273 0.0000
# 6 0.0000 0.0000 0.0000 0.0000 0.0000 17.1099
#
#
#
# Elastic Compliance Matrix: (Units=1/GPa)
#
#
# Indices 1 2 3 4 5 6 
#
# 1 0.013187 -0.003492 -0.004368 0.000000 0.000000 0.000000
# 2 -0.003492 0.019786 -0.003093 0.000000 0.000000 0.000000
# 3 -0.004368 -0.003093 0.019291 0.000000 0.000000 0.000000
# 4 0.000000 0.000000 0.000000 0.038234 0.000000 0.000000
# 5 0.000000 0.000000 0.000000 0.000000 0.034215 0.000000
# 6 0.000000 0.000000 0.000000 0.000000 0.000000 0.058446
#
#
# Mechanical properties :
#
#
# Convention : Reuss Voigt Hill
#
# Bulk Modulus (GPa) = 32.94016 35.03653 33.98835
# Shear Modulus (GPa) = 23.23595 24.37134 23.80364
#
# Velocity S-wave (km/s) = 3.47774 3.56170 3.51997
# Velocity P-wave (km/s) = 5.76820 5.92885 5.84908
#
# Compressibility (1/GPa) = 0.03035808
#
# Stress axis : x y z
#
# Youngs Moduli (GPa) = 75.83041 50.54133 51.83781
#
# Poissons Ratio (x) = 0.17647 0.22643
# Poissons Ratio (y) = 0.26477 0.16035
# Poissons Ratio (z) = 0.33123 0.15634
#
# Static dielectric constant tensor:
#      x y z
#    x 1.661050 0.000000 0.000000 
#    y 0.000000 1.674970 0.000000 
#    z 0.000000 0.000000 1.715690 
# 
# From -- ./inp_files/2768.got.cif
#   From: 2010.05.17/outbox.cif.g08.bks.cpg/sg45_2_cif.got.tgz:2768.got - 2010.06.03 19:51:22.
