data_PCOD9376883
_publ_section_title
;
Structure prediction by ZEFSAII (Michael W. Deem and Ramdas Pophale) SiO2 
 PCOD9376883
Probable space group: I B A 2
;
_chemical_formula_sum "Si O2"
_cell_formula_units_Z 40
_cell_length_a 8.603456
_cell_length_b 20.142014
_cell_length_c 8.914923
_cell_angle_alpha 90.000000
_cell_angle_beta 90.000000
_cell_angle_gamma 90.000000
_cell_volume 1544.875308
_symmetry_space_group_name_H-M "I B A 2"
_symmetry_group_IT_number 45
_symmetry_cell_setting 'orthorhombic'
loop_
_space_group_symop_operation_xyz
x,y,z
-x,-y,z
-x,y,1/2+z
x,-y,1/2+z
1/2+x,1/2+y,1/2+z
1/2-x,1/2-y,1/2+z
1/2-x,1/2+y,z
1/2+x,1/2-y,z
loop_
_atom_site_type_symbol
_atom_site_label
_atom_site_fract_x
_atom_site_fract_y
_atom_site_fract_z
Si Si1 0.417218 0.881633 0.099790
Si Si2 0.220672 0.240498 0.712272
Si Si3 0.877114 0.945739 0.521451
Si Si4 0.444148 0.300875 0.922545
Si Si5 0.375109 0.942497 0.808423
O O1 0.347810 0.816697 0.175337
O O2 0.579421 0.911699 0.151017
O O3 0.276338 0.935676 0.124534
O O4 0.418912 0.881417 0.921202
O O5 0.322309 0.299134 0.783684
O O6 0.123565 0.246068 0.556511
O O7 0.104309 0.218399 0.844547
O O8 0.950134 0.873050 0.498648
O O9 0.795210 0.962211 0.361744
O O10 0.000000 0.000000 0.564994
O O11 0.500000 0.000000 0.840951
#
# Coordination Sequence:
#
# PCOD9376883 Si02
#       5
#     8   8   8   8   8
#     4   9  23  42  69 105 146 190 246 307 373 451
#     4  11  25  46  71 103 146 191 259 305 387 451
#     4   9  23  47  69 108 153 193 248 315 382 458
#     4  11  25  48  72 106 144 203 246 320 381 456
#     4  10  21  43  70 103 143 196 245 298 376 453
#
# _framework density 25.892057999999999
#
# number of rings (size 3 to 8) (size 9 to 14) (size 15 to 20)
#    1.200    0.800    0.000    1.800    5.600    1.600 
#   10.800    0.000    0.000    1.200    0.000    0.000 
#    0.000    0.000    0.000    0.000    0.000    0.000 
#
# Total GULP energy -111662.070460 kJ/mol
# GULP energy per Si atom -5583.103523 kJ/mol
# Density = 2.583313 g / cm^3
# Si number density = 25.892058 Si / 1000 Ang^3
#
#
#
# Elastic Constant Matrix: (Units=GPa)
#
#
# Indices 1 2 3 4 5 6 
#
# 1 93.5323 26.6456 14.3653 0.0000 0.0000 0.0000
# 2 26.6456 70.0896 13.7909 -0.0001 0.0000 0.0000
# 3 14.3653 13.7909 78.4390 -0.0005 0.0001 0.0000
# 4 0.0000 -0.0001 -0.0005 20.7509 0.0000 0.0000
# 5 0.0000 0.0000 0.0001 0.0000 58.7478 0.0000
# 6 0.0000 0.0000 0.0000 0.0000 0.0000 37.4251
#
#
#
# Elastic Compliance Matrix: (Units=1/GPa)
#
#
# Indices 1 2 3 4 5 6 
#
# 1 0.012150 -0.004331 -0.001464 0.000000 0.000000 0.000000
# 2 -0.004331 0.016323 -0.002077 0.000000 0.000000 0.000000
# 3 -0.001464 -0.002077 0.013382 0.000000 0.000000 0.000000
# 4 0.000000 0.000000 0.000000 0.048191 0.000000 0.000000
# 5 0.000000 0.000000 0.000000 0.000000 0.017022 0.000000
# 6 0.000000 0.000000 0.000000 0.000000 0.000000 0.026720
#
#
# Mechanical properties :
#
#
# Convention : Reuss Voigt Hill
#
# Bulk Modulus (GPa) = 38.29668 39.07383 38.68525
# Shear Modulus (GPa) = 31.59881 35.86871 33.73376
#
# Velocity S-wave (km/s) = 3.49722 3.72602 3.61343
# Velocity P-wave (km/s) = 5.57946 5.79955 5.69057
#
# Compressibility (1/GPa) = 0.02611192
#
# Stress axis : x y z
#
# Youngs Moduli (GPa) = 82.30358 61.26490 74.72765
#
# Poissons Ratio (x) = 0.26534 0.10938
# Poissons Ratio (y) = 0.35646 0.15518
# Poissons Ratio (z) = 0.12047 0.12722
#
# Static dielectric constant tensor:
#      x y z
#    x 2.049400 0.000000 0.000000 
#    y 0.000000 2.081430 0.000000 
#    z 0.000000 0.000000 2.048730 
# 
# From -- ./inp_files/3204.got.cif
#   From: 2010.05.17/outbox.cif.g08.bks.cpg/sg45_2_cif.got.tgz:3204.got - 2010.06.03 19:51:22.
