data_PCOD9376962
_publ_section_title
;
Structure prediction by ZEFSAII (Michael W. Deem and Ramdas Pophale) SiO2 
 PCOD9376962
Probable space group: I B A 2
;
_chemical_formula_sum "Si O2"
_cell_formula_units_Z 60
_cell_length_a 28.777352
_cell_length_b 7.900426
_cell_length_c 13.028333
_cell_angle_alpha 90.000000
_cell_angle_beta 90.000000
_cell_angle_gamma 90.000000
_cell_volume 2962.035022
_symmetry_space_group_name_H-M "I B A 2"
_symmetry_group_IT_number 45
_symmetry_cell_setting 'orthorhombic'
loop_
_space_group_symop_operation_xyz
x,y,z
-x,-y,z
-x,y,1/2+z
x,-y,1/2+z
1/2+x,1/2+y,1/2+z
1/2-x,1/2-y,1/2+z
1/2-x,1/2+y,z
1/2+x,1/2-y,z
loop_
_atom_site_type_symbol
_atom_site_label
_atom_site_fract_x
_atom_site_fract_y
_atom_site_fract_z
Si Si1 0.524848 0.329637 0.013480
Si Si2 0.196173 0.798865 0.425670
Si Si3 0.902779 0.743853 0.844565
Si Si4 0.409079 0.109427 0.742057
Si Si5 0.809071 0.705377 0.161005
Si Si6 0.500000 0.000000 0.114921
Si Si7 0.445616 0.457205 0.729302
Si Si8 0.754075 0.953101 0.291984
O O1 0.500000 0.500000 0.977998
O O2 0.493104 0.174532 0.052595
O O3 0.555066 0.395187 0.110906
O O4 0.555256 0.253896 0.923919
O O5 0.142171 0.814977 0.401363
O O6 0.201745 0.737740 0.541935
O O7 0.216727 0.674515 0.339055
O O8 0.224179 0.965383 0.394524
O O9 0.895970 0.548625 0.813929
O O10 0.916550 0.874887 0.754113
O O11 0.362543 0.151281 0.677532
O O12 0.453803 0.038288 0.680222
O O13 0.426641 0.290007 0.788122
O O14 0.796047 0.870722 0.227793
O O15 0.774527 0.570142 0.213543
O O16 0.500000 0.500000 0.747027
#
# Coordination Sequence:
#
# PCOD9376962 Si02
#       8
#     8   8   8   8   8   4   8   8
#     4  10  22  39  60  89 128 169 213 265 318 386
#     4  11  22  40  65  94 124 168 213 259 335 405
#     4  12  23  38  64  96 123 166 220 267 325 396
#     4  11  22  41  64  93 130 174 215 273 330 385
#     4  11  22  43  67  95 134 166 211 282 331 394
#     4  10  22  40  62  88 132 176 214 266 326 390
#     4  10  22  41  61  86 130 172 213 267 323 377
#     4  10  23  42  67  93 129 166 214 269 335 405
#
# _framework density 20.256343000000001
#
# number of rings (size 3 to 8) (size 9 to 14) (size 15 to 20)
#    0.000    1.333    1.333    6.000    0.000    2.667 
#    0.000    1.333    0.000    0.000    0.000    0.000 
#    0.000    0.000    0.000    0.000    0.000    0.000 
#
# Total GULP energy -167295.740244 kJ/mol
# GULP energy per Si atom -5576.524675 kJ/mol
# Density = 2.021024 g / cm^3
# Si number density = 20.256343 Si / 1000 Ang^3
#
#
#
# Elastic Constant Matrix: (Units=GPa)
#
#
# Indices 1 2 3 4 5 6 
#
# 1 89.8223 11.7692 15.4567 0.0000 0.0000 0.0000
# 2 11.7692 71.7002 10.4284 0.0000 0.0000 0.0000
# 3 15.4567 10.4284 86.9267 0.0000 0.0000 0.0000
# 4 0.0000 0.0000 0.0000 23.4601 0.0000 0.0000
# 5 0.0000 0.0000 0.0000 0.0000 20.5599 0.0000
# 6 0.0000 0.0000 0.0000 0.0000 0.0000 30.1635
#
#
#
# Elastic Compliance Matrix: (Units=1/GPa)
#
#
# Indices 1 2 3 4 5 6 
#
# 1 0.011672 -0.001643 -0.001878 0.000000 0.000000 0.000000
# 2 -0.001643 0.014426 -0.001439 0.000000 0.000000 0.000000
# 3 -0.001878 -0.001439 0.012011 0.000000 0.000000 0.000000
# 4 0.000000 0.000000 0.000000 0.042626 0.000000 0.000000
# 5 0.000000 0.000000 0.000000 0.000000 0.048638 0.000000
# 6 0.000000 0.000000 0.000000 0.000000 0.000000 0.033153
#
#
# Mechanical properties :
#
#
# Convention : Reuss Voigt Hill
#
# Bulk Modulus (GPa) = 35.47492 35.97308 35.72400
# Shear Modulus (GPa) = 27.49673 28.88969 28.19321
#
# Velocity S-wave (km/s) = 3.68834 3.78061 3.73476
# Velocity P-wave (km/s) = 5.97407 6.07082 6.02264
#
# Compressibility (1/GPa) = 0.02818893
#
# Stress axis : x y z
#
# Youngs Moduli (GPa) = 85.67848 69.32011 83.26041
#
# Poissons Ratio (x) = 0.11387 0.15639
# Poissons Ratio (y) = 0.14074 0.11977
# Poissons Ratio (z) = 0.16093 0.09972
#
# Static dielectric constant tensor:
#      x y z
#    x 1.713760 0.000000 0.000000 
#    y 0.000000 1.798110 0.000000 
#    z 0.000000 0.000000 1.726600 
# 
# From -- ./inp_files/4889.got.cif
#   From: 2010.05.17/outbox.cif.g08.bks.cpg/sg45_3_cif.got.tgz:4889.got - 2010.06.03 19:51:22.
