data_PCOD9376440
_publ_section_title
;
Structure prediction by ZEFSAII (Michael W. Deem and Ramdas Pophale) SiO2 
 PCOD9376440
Probable space group: I B A 2
;
_chemical_formula_sum "Si O2"
_cell_formula_units_Z 48
_cell_length_a 8.978310
_cell_length_b 27.548469
_cell_length_c 8.651570
_cell_angle_alpha 90.000000
_cell_angle_beta 90.000000
_cell_angle_gamma 90.000000
_cell_volume 2139.868031
_symmetry_space_group_name_H-M "I B A 2"
_symmetry_group_IT_number 45
_symmetry_cell_setting 'orthorhombic'
loop_
_space_group_symop_operation_xyz
x,y,z
-x,-y,z
-x,y,1/2+z
x,-y,1/2+z
1/2+x,1/2+y,1/2+z
1/2-x,1/2-y,1/2+z
1/2-x,1/2+y,z
1/2+x,1/2-y,z
loop_
_atom_site_type_symbol
_atom_site_label
_atom_site_fract_x
_atom_site_fract_y
_atom_site_fract_z
Si Si1 0.376125 0.232229 0.209810
Si Si2 0.189862 0.953100 0.564334
Si Si3 0.583437 0.893093 0.399204
Si Si4 0.696993 0.141533 0.563919
Si Si5 0.000000 0.000000 0.310415
Si Si6 0.500000 0.000000 0.513322
Si Si7 0.183181 0.303588 0.058370
O O1 0.272286 0.196262 0.105880
O O2 0.328541 0.284726 0.148417
O O3 0.340574 0.221116 0.388384
O O4 0.540983 0.214113 0.160953
O O5 0.180042 0.896663 0.521622
O O6 0.352281 0.977664 0.595274
O O7 0.129839 0.980827 0.416948
O O8 0.076932 0.960899 0.702538
O O9 0.426483 0.866440 0.433197
O O10 0.634967 0.881348 0.226335
O O11 0.559412 0.950267 0.430314
O O12 0.683518 0.861416 0.519296
#
# Coordination Sequence:
#
# PCOD9376440 Si02
#       7
#     8   8   8   8   4   4   8
#     4  10  20  37  59  83 114 151 194 243 297 352
#     4  10  21  38  57  81 114 151 193 238 296 359
#     4   9  19  33  56  87 117 143 189 249 295 342
#     4   9  19  35  55  82 113 147 189 238 290 353
#     4  10  22  38  54  78 120 156 180 238 308 358
#     4  10  20  36  64  90 110 152 206 250 292 360
#     4  10  20  37  58  84 117 155 194 243 298 358
#
# _framework density 22.431291999999999
#
# number of rings (size 3 to 8) (size 9 to 14) (size 15 to 20)
#    0.000    2.333    0.000    2.000    0.000   10.000 
#    0.000    8.333    0.000    0.000    0.000    0.000 
#    0.000    0.000    0.000    0.000    0.000    0.000 
#
# Total GULP energy -133660.492666 kJ/mol
# GULP energy per Si atom -5569.187194 kJ/mol
# Density = 2.238024 g / cm^3
# Si number density = 22.431292 Si / 1000 Ang^3
#
#
#
# Elastic Constant Matrix: (Units=GPa)
#
#
# Indices 1 2 3 4 5 6 
#
# 1 41.7556 9.9994 -1.0750 -0.0005 0.0004 0.0000
# 2 9.9994 106.7524 11.0220 0.0000 0.0001 0.0001
# 3 -1.0750 11.0220 45.3514 -0.0034 -0.0069 0.0006
# 4 -0.0005 0.0000 -0.0034 32.0745 -0.0002 0.0003
# 5 0.0004 0.0001 -0.0069 -0.0002 29.1165 0.0000
# 6 0.0000 0.0001 0.0006 0.0003 0.0000 29.0689
#
#
#
# Elastic Compliance Matrix: (Units=1/GPa)
#
#
# Indices 1 2 3 4 5 6 
#
# 1 0.024559 -0.002421 0.001171 0.000000 0.000000 0.000000
# 2 -0.002421 0.009847 -0.002451 0.000000 -0.000001 0.000000
# 3 0.001171 -0.002451 0.022673 0.000002 0.000005 0.000000
# 4 0.000000 0.000000 0.000002 0.031177 0.000000 0.000000
# 5 0.000000 -0.000001 0.000005 0.000000 0.034345 0.000000
# 6 0.000000 0.000000 0.000000 0.000000 0.000000 0.034401
#
#
# Mechanical properties :
#
#
# Convention : Reuss Voigt Hill
#
# Bulk Modulus (GPa) = 20.13007 25.97247 23.05127
# Shear Modulus (GPa) = 27.62977 29.64619 28.63798
#
# Velocity S-wave (km/s) = 3.51344 3.63939 3.57697
# Velocity P-wave (km/s) = 5.04506 5.40962 5.23052
#
# Compressibility (1/GPa) = 0.04967693
#
# Stress axis : x y z
#
# Youngs Moduli (GPa) = 40.71855 101.55075 44.10455
#
# Poissons Ratio (x) = 0.24588 -0.05163
# Poissons Ratio (y) = 0.09859 0.10808
# Poissons Ratio (z) = -0.04767 0.24887
#
# Static dielectric constant tensor:
#      x y z
#    x 1.911800 0.000000 0.000000 
#    y 0.000000 1.910890 0.000000 
#    z 0.000000 0.000000 1.805100 
# 
# From -- ./inp_files/1082.got.cif
#   From: 2010.05.17/outbox.cif.g08.bks.cpg/sg45_1_cif.got.tgz:1082.got - 2010.06.03 19:51:22.
