data_PCOD9376579
_publ_section_title
;
Structure prediction by ZEFSAII (Michael W. Deem and Ramdas Pophale) SiO2 
 PCOD9376579
Probable space group: I B A 2
;
_chemical_formula_sum "Si O2"
_cell_formula_units_Z 56
_cell_length_a 9.465213
_cell_length_b 17.264086
_cell_length_c 13.187099
_cell_angle_alpha 90.000000
_cell_angle_beta 90.000000
_cell_angle_gamma 90.000000
_cell_volume 2154.880787
_symmetry_space_group_name_H-M "I B A 2"
_symmetry_group_IT_number 45
_symmetry_cell_setting 'orthorhombic'
loop_
_space_group_symop_operation_xyz
x,y,z
-x,-y,z
-x,y,1/2+z
x,-y,1/2+z
1/2+x,1/2+y,1/2+z
1/2-x,1/2-y,1/2+z
1/2-x,1/2+y,z
1/2+x,1/2-y,z
loop_
_atom_site_type_symbol
_atom_site_label
_atom_site_fract_x
_atom_site_fract_y
_atom_site_fract_z
Si Si1 0.245474 0.197829 0.189820
Si Si2 0.123558 0.198719 0.391280
Si Si3 0.516583 0.788270 0.580377
Si Si4 0.192453 0.576583 0.892368
Si Si5 0.590722 0.579515 0.574744
Si Si6 0.065319 0.912457 0.253517
Si Si7 0.891848 0.404036 0.446530
O O1 0.196761 0.237591 0.293861
O O2 0.407860 0.210793 0.171608
O O3 0.202457 0.107014 0.166649
O O4 0.156510 0.241756 0.104612
O O5 0.053864 0.247651 0.480775
O O6 0.256015 0.148345 0.428223
O O7 0.013367 0.142002 0.334414
O O8 0.551940 0.877137 0.555241
O O9 0.308658 0.600666 0.979522
O O10 0.158120 0.490075 0.929526
O O11 0.034924 0.610842 0.882210
O O12 0.275090 0.580180 0.787823
O O13 0.500000 0.500000 0.545787
O O14 0.458422 0.617304 0.638165
O O15 0.000000 0.000000 0.256297
#
# Coordination Sequence:
#
# PCOD9376579 Si02
#       7
#     8   8   8   8   8   8   8
#     4  11  26  44  70 101 140 181 232 285 347 415
#     4  11  25  45  71 102 138 183 233 287 343 421
#     4  12  25  47  67 101 137 186 233 283 342 418
#     4  11  22  43  73 102 136 178 224 290 348 409
#     4  10  22  39  68 102 132 169 228 281 334 407
#     4  10  20  40  70 101 133 175 225 280 338 411
#     4  11  25  43  70 100 140 177 229 286 353 400
#
# _framework density 25.987518000000001
#
# number of rings (size 3 to 8) (size 9 to 14) (size 15 to 20)
#    0.000    1.143    4.286    1.286    4.000    0.000 
#    2.571    2.857    0.000    0.000    0.000    0.000 
#    0.000    0.000    0.000    0.000    0.000    0.000 
#
# Total GULP energy -155899.349602 kJ/mol
# GULP energy per Si atom -5567.833914 kJ/mol
# Density = 2.592837 g / cm^3
# Si number density = 25.987518 Si / 1000 Ang^3
#
#
#
# Elastic Constant Matrix: (Units=GPa)
#
#
# Indices 1 2 3 4 5 6 
#
# 1 110.7438 15.2072 27.7029 0.0000 -0.0001 0.0000
# 2 15.2072 71.2950 -2.5931 0.0000 -0.0001 0.0000
# 3 27.7029 -2.5931 83.3424 0.0000 -0.0006 0.0000
# 4 0.0000 0.0000 0.0000 14.2130 -0.0004 0.0000
# 5 -0.0001 -0.0001 -0.0006 -0.0004 -53.4471 0.0000
# 6 0.0000 0.0000 0.0000 0.0000 0.0000 25.3569
#
#
#
# Elastic Compliance Matrix: (Units=1/GPa)
#
#
# Indices 1 2 3 4 5 6 
#
# 1 0.010214 -0.002305 -0.003467 0.000000 0.000000 0.000000
# 2 -0.002305 0.014562 0.001219 0.000000 0.000000 0.000000
# 3 -0.003467 0.001219 0.013189 0.000000 0.000000 0.000000
# 4 0.000000 0.000000 0.000000 0.070358 -0.000001 0.000000
# 5 0.000000 0.000000 0.000000 -0.000001 -0.018710 0.000000
# 6 0.000000 0.000000 0.000000 0.000000 0.000000 0.039437
#
#
# Mechanical properties :
#
#
# Convention : Reuss Voigt Hill
#
# Bulk Modulus (GPa) = 34.64968 38.44614 36.54791
# Shear Modulus (GPa) = 33.83540 12.22883 23.03212
#
# Velocity S-wave (km/s) = 3.61222 2.17161 2.98027
# Velocity P-wave (km/s) = 5.54614 4.59500 5.09282
#
# Compressibility (1/GPa) = 0.02886029
#
# Stress axis : x y z
#
# Youngs Moduli (GPa) = 97.90942 68.67114 75.82113
#
# Poissons Ratio (x) = 0.15826 0.26285
# Poissons Ratio (y) = 0.22565 -0.09244
# Poissons Ratio (z) = 0.33942 -0.08372
#
# Static dielectric constant tensor:
#      x y z
#    x 2.088380 0.000000 0.000000 
#    y 0.000000 2.222900 0.000000 
#    z 0.000000 0.000000 2.119730 
# 
# From -- ./inp_files/5740.got.cif
#   From: 2010.05.17/outbox.cif.g08.bks.cpg/sg45_3_cif.got.tgz:5740.got - 2010.06.03 19:51:22.
