data_PCOD9376632
_publ_section_title
;
Structure prediction by ZEFSAII (Michael W. Deem and Ramdas Pophale) SiO2 
 PCOD9376632
Probable space group: I B A 2
;
_chemical_formula_sum "Si O2"
_cell_formula_units_Z 44
_cell_length_a 8.177653
_cell_length_b 28.571323
_cell_length_c 8.264370
_cell_angle_alpha 90.000000
_cell_angle_beta 90.000000
_cell_angle_gamma 90.000000
_cell_volume 1930.940012
_symmetry_space_group_name_H-M "I B A 2"
_symmetry_group_IT_number 45
_symmetry_cell_setting 'orthorhombic'
loop_
_space_group_symop_operation_xyz
x,y,z
-x,-y,z
-x,y,1/2+z
x,-y,1/2+z
1/2+x,1/2+y,1/2+z
1/2-x,1/2-y,1/2+z
1/2-x,1/2+y,z
1/2+x,1/2-y,z
loop_
_atom_site_type_symbol
_atom_site_label
_atom_site_fract_x
_atom_site_fract_y
_atom_site_fract_z
Si Si1 0.598802 0.218484 0.463050
Si Si2 0.826596 0.443262 0.337454
Si Si3 0.000000 0.500000 0.593086
Si Si4 0.074472 0.116761 0.473770
Si Si5 0.237427 0.304061 0.107647
Si Si6 0.723385 0.359278 0.165103
O O1 0.621789 0.269482 0.542078
O O2 0.411643 0.202738 0.481332
O O3 0.669477 0.211746 0.282661
O O4 0.701696 0.184763 0.580350
O O5 0.851127 0.483916 0.206937
O O6 0.650908 0.432307 0.416149
O O7 0.856004 0.394323 0.243688
O O8 0.948128 0.457171 0.479796
O O9 0.194183 0.143131 0.600312
O O10 0.100871 0.149372 0.315237
O O11 0.892438 0.114366 0.537052
#
# Coordination Sequence:
#
# PCOD9376632 Si02
#       6
#     8   8   4   8   8   8
#     4  12  25  41  64  94 132 179 225 276 326 390
#     4   9  24  40  73  94 133 171 218 278 345 394
#     4  10  20  50  66 102 128 170 226 290 336 422
#     4  10  22  42  63  98 130 174 217 269 332 397
#     4  12  25  41  64  94 132 179 225 276 326 390
#     4  10  22  42  63  98 130 174 217 269 332 397
#
# _framework density 22.786828
#
# number of rings (size 3 to 8) (size 9 to 14) (size 15 to 20)
#    1.091    0.364    0.000    5.455    2.545    0.000 
#    9.818    2.727    0.000    0.000    0.000    0.000 
#    0.000    0.000    0.000    0.000    0.000    0.000 
#
# Total GULP energy -122691.405930 kJ/mol
# GULP energy per Si atom -5576.882088 kJ/mol
# Density = 2.273496 g / cm^3
# Si number density = 22.786828 Si / 1000 Ang^3
#
#
#
# Elastic Constant Matrix: (Units=GPa)
#
#
# Indices 1 2 3 4 5 6 
#
# 1 67.6105 23.8563 13.8565 0.0004 0.0000 0.0000
# 2 23.8563 75.1858 37.1760 0.0007 0.0000 0.0001
# 3 13.8565 37.1760 98.4975 0.0016 0.0000 0.0003
# 4 0.0004 0.0007 0.0016 11.2315 0.0001 0.0001
# 5 0.0000 0.0000 0.0000 0.0001 22.0378 0.0002
# 6 0.0000 0.0001 0.0003 0.0001 0.0002 23.8249
#
#
#
# Elastic Compliance Matrix: (Units=1/GPa)
#
#
# Indices 1 2 3 4 5 6 
#
# 1 0.016670 -0.005077 -0.000429 0.000000 0.000000 0.000000
# 2 -0.005077 0.017899 -0.006041 0.000000 0.000000 0.000000
# 3 -0.000429 -0.006041 0.012493 -0.000001 0.000000 0.000000
# 4 0.000000 0.000000 -0.000001 0.089035 0.000000 -0.000001
# 5 0.000000 0.000000 0.000000 0.000000 0.045377 0.000000
# 6 0.000000 0.000000 0.000000 -0.000001 0.000000 0.041973
#
#
# Mechanical properties :
#
#
# Convention : Reuss Voigt Hill
#
# Bulk Modulus (GPa) = 41.72417 43.45237 42.58827
# Shear Modulus (GPa) = 19.64406 22.51250 21.07828
#
# Velocity S-wave (km/s) = 2.93930 3.14659 3.04471
# Velocity P-wave (km/s) = 5.46532 5.68435 5.57591
#
# Compressibility (1/GPa) = 0.02396692
#
# Stress axis : x y z
#
# Youngs Moduli (GPa) = 59.98788 55.87054 80.04496
#
# Poissons Ratio (x) = 0.28368 0.03432
# Poissons Ratio (y) = 0.30458 0.48357
# Poissons Ratio (z) = 0.02572 0.33752
#
# Static dielectric constant tensor:
#      x y z
#    x 1.862150 0.000000 0.000000 
#    y 0.000000 1.879690 0.000000 
#    z 0.000000 0.000000 1.921340 
# 
# From -- ./inp_files/1040.got.cif
#   From: 2010.05.17/outbox.cif.g08.bks.cpg/sg45_1_cif.got.tgz:1040.got - 2010.06.03 19:51:22.
