data_PCOD9376155
_publ_section_title
;
Structure prediction by ZEFSAII (Michael W. Deem and Ramdas Pophale) SiO2 
 PCOD9376155
Probable space group: I B A 2
;
_chemical_formula_sum "Si O2"
_cell_formula_units_Z 40
_cell_length_a 14.127460
_cell_length_b 5.413208
_cell_length_c 21.608590
_cell_angle_alpha 90.000000
_cell_angle_beta 90.000000
_cell_angle_gamma 90.000000
_cell_volume 1652.514316
_symmetry_space_group_name_H-M "I B A 2"
_symmetry_group_IT_number 45
_symmetry_cell_setting 'orthorhombic'
loop_
_space_group_symop_operation_xyz
x,y,z
-x,-y,z
-x,y,1/2+z
x,-y,1/2+z
1/2+x,1/2+y,1/2+z
1/2-x,1/2-y,1/2+z
1/2-x,1/2+y,z
1/2+x,1/2-y,z
loop_
_atom_site_type_symbol
_atom_site_label
_atom_site_fract_x
_atom_site_fract_y
_atom_site_fract_z
Si Si1 0.639907 0.465327 0.947720
Si Si2 0.189879 0.507492 0.751650
Si Si3 0.396692 0.810240 0.632746
Si Si4 0.388934 0.307394 0.587585
Si Si5 0.355450 0.969833 0.395383
O O1 0.601165 0.722515 0.923008
O O2 0.749775 0.473602 0.925776
O O3 0.598855 0.223508 0.915899
O O4 0.624869 0.421284 0.020032
O O5 0.262439 0.276697 0.744624
O O6 0.112318 0.435618 0.700054
O O7 0.152355 0.519372 0.821664
O O8 0.353947 0.532973 0.631151
O O9 0.502281 0.752158 0.607494
O O10 0.349184 0.026396 0.590749
#
# Coordination Sequence:
#
# PCOD9376155 Si02
#       5
#     8   8   8   8   8
#     4  10  18  35  60  87 125 163 206 267 324 389
#     4  12  21  40  62  94 137 163 216 272 326 404
#     4  10  23  40  62  89 127 178 218 259 329 389
#     4  10  21  42  62  86 129 175 219 264 317 402
#     4  10  19  35  58  94 124 160 208 264 340 374
#
# _framework density 24.205541
#
# number of rings (size 3 to 8) (size 9 to 14) (size 15 to 20)
#    0.000    1.600    4.000    2.400    0.000    0.000 
#   21.600    0.000    0.000   19.200    0.000    0.000 
#    0.000    0.000    0.000    0.000    0.000    0.000 
#
# Total GULP energy -111592.655260 kJ/mol
# GULP energy per Si atom -5579.632763 kJ/mol
# Density = 2.415045 g / cm^3
# Si number density = 24.205541 Si / 1000 Ang^3
#
#
#
# Elastic Constant Matrix: (Units=GPa)
#
#
# Indices 1 2 3 4 5 6 
#
# 1 106.1995 15.1175 32.8232 0.0000 0.0000 0.0000
# 2 15.1175 314.9667 85.2855 0.0000 0.0000 0.0000
# 3 32.8232 85.2855 226.5037 0.0000 0.0000 0.0000
# 4 0.0000 0.0000 0.0000 52.3034 0.0000 0.0000
# 5 0.0000 0.0000 0.0000 0.0000 -70.7193 0.0000
# 6 0.0000 0.0000 0.0000 0.0000 0.0000 -6.6378
#
#
#
# Elastic Compliance Matrix: (Units=1/GPa)
#
#
# Indices 1 2 3 4 5 6 
#
# 1 0.009860 -0.000096 -0.001393 0.000000 0.000000 0.000000
# 2 -0.000096 0.003536 -0.001318 0.000000 0.000000 0.000000
# 3 -0.001393 -0.001318 0.005113 0.000000 0.000000 0.000000
# 4 0.000000 0.000000 0.000000 0.019119 0.000000 0.000000
# 5 0.000000 0.000000 0.000000 0.000000 -0.014140 0.000000
# 6 0.000000 0.000000 0.000000 0.000000 0.000000 -0.150651
#
#
# Mechanical properties :
#
#
# Convention : Reuss Voigt Hill
#
# Bulk Modulus (GPa) = 77.53937 101.56916 89.55426
# Shear Modulus (GPa) = -42.64347 29.28549 -6.67899
#
# Velocity S-wave (km/s) = -4.20184 3.48209 -1.66291
# Velocity P-wave (km/s) = 2.92620 7.63012 5.77847
#
# Compressibility (1/GPa) = 0.01289667
#
# Stress axis : x y z
#
# Youngs Moduli (GPa) = 101.41614 282.77905 195.58479
#
# Poissons Ratio (x) = 0.02719 0.27239
# Poissons Ratio (y) = 0.00975 0.25770
# Poissons Ratio (z) = 0.14124 0.37259
#
# Static dielectric constant tensor:
#      x y z
#    x 2.048810 0.000000 0.000000 
#    y 0.000000 2.028930 0.000000 
#    z 0.000000 0.000000 1.907740 
# 
# From -- ./inp_files/8401.got.cif
#   From: 2010.05.17/outbox.cif.g08.bks.cpg/sg45_5_cif.got.tgz:8401.got - 2010.06.03 19:51:22.
