data_PCOD9376080
_publ_section_title
;
Structure prediction by ZEFSAII (Michael W. Deem and Ramdas Pophale) SiO2 
 PCOD9376080
Probable space group: I B A 2
;
_chemical_formula_sum "Si O2"
_cell_formula_units_Z 40
_cell_length_a 7.734257
_cell_length_b 24.037815
_cell_length_c 8.826541
_cell_angle_alpha 90.000000
_cell_angle_beta 90.000000
_cell_angle_gamma 90.000000
_cell_volume 1640.983183
_symmetry_space_group_name_H-M "I B A 2"
_symmetry_group_IT_number 45
_symmetry_cell_setting 'orthorhombic'
loop_
_space_group_symop_operation_xyz
x,y,z
-x,-y,z
-x,y,1/2+z
x,-y,1/2+z
1/2+x,1/2+y,1/2+z
1/2-x,1/2-y,1/2+z
1/2-x,1/2+y,z
1/2+x,1/2-y,z
loop_
_atom_site_type_symbol
_atom_site_label
_atom_site_fract_x
_atom_site_fract_y
_atom_site_fract_z
Si Si1 0.715863 0.507342 0.031770
Si Si2 0.318117 0.419652 0.769081
Si Si3 0.255016 0.200065 0.252098
Si Si4 0.599933 0.927121 0.796778
Si Si5 0.105153 0.306949 0.408753
O O1 0.628970 0.460195 0.134982
O O2 0.819916 0.548182 0.144133
O O3 0.619836 0.548969 0.917884
O O4 0.839920 0.469902 0.925158
O O5 0.364063 0.355138 0.755064
O O6 0.106626 0.421859 0.774146
O O7 0.165311 0.256861 0.300763
O O8 0.399308 0.191641 0.382915
O O9 0.338028 0.201457 0.083165
O O10 0.667574 0.866555 0.846345
#
# Coordination Sequence:
#
# PCOD9376080 Si02
#       5
#     8   8   8   8   8
#     4  10  17  28  46  78 113 148 175 232 289 352
#     4  10  18  28  49  77 114 145 186 226 293 339
#     4  11  24  40  60  86 119 156 199 242 289 344
#     4  10  18  28  49  77 114 145 186 226 293 339
#     4  11  24  40  60  86 119 156 199 242 289 344
#
# _framework density 24.375632
#
# number of rings (size 3 to 8) (size 9 to 14) (size 15 to 20)
#    0.000    1.600    2.000    6.000   11.200    0.000 
#    0.000    0.000    0.000    0.000    0.000    8.400 
#    0.000    0.000    0.000    0.000    0.000    0.000 
#
# Total GULP energy -111909.592305 kJ/mol
# GULP energy per Si atom -5595.479615 kJ/mol
# Density = 2.432015 g / cm^3
# Si number density = 24.375632 Si / 1000 Ang^3
#
#
#
# Elastic Constant Matrix: (Units=GPa)
#
#
# Indices 1 2 3 4 5 6 
#
# 1 37.2862 18.1188 24.5368 0.0003 0.0003 0.0000
# 2 18.1188 214.0222 62.5233 0.0006 0.0005 0.0001
# 3 24.5368 62.5233 169.0431 0.0043 -0.0004 0.0001
# 4 0.0003 0.0006 0.0043 20.6837 0.0001 0.0000
# 5 0.0003 0.0005 -0.0004 0.0001 37.2250 -0.0001
# 6 0.0000 0.0001 0.0001 0.0000 -0.0001 32.1228
#
#
#
# Elastic Compliance Matrix: (Units=1/GPa)
#
#
# Indices 1 2 3 4 5 6 
#
# 1 0.030033 -0.001423 -0.003833 0.000000 0.000000 0.000000
# 2 -0.001423 0.005306 -0.001756 0.000000 0.000000 0.000000
# 3 -0.003833 -0.001756 0.007121 -0.000001 0.000000 0.000000
# 4 0.000000 0.000000 -0.000001 0.048347 0.000000 0.000000
# 5 0.000000 0.000000 0.000000 0.000000 0.026864 0.000000
# 6 0.000000 0.000000 0.000000 0.000000 0.000000 0.031130
#
#
# Mechanical properties :
#
#
# Convention : Reuss Voigt Hill
#
# Bulk Modulus (GPa) = 35.16543 70.07882 52.62212
# Shear Modulus (GPa) = 29.01834 39.01783 34.01809
#
# Velocity S-wave (km/s) = 3.45406 4.00520 3.73980
# Velocity P-wave (km/s) = 5.51046 7.08525 6.34689
#
# Compressibility (1/GPa) = 0.02843702
#
# Stress axis : x y z
#
# Youngs Moduli (GPa) = 33.29626 188.47189 140.42004
#
# Poissons Ratio (x) = 0.26816 0.53825
# Poissons Ratio (y) = 0.04737 0.24657
# Poissons Ratio (z) = 0.12763 0.33094
#
# Static dielectric constant tensor:
#      x y z
#    x 2.055210 0.000000 0.000000 
#    y 0.000000 1.947840 0.000000 
#    z 0.000000 0.000000 1.897910 
# 
# From -- ./inp_files/946.got.cif
#   From: 2010.05.17/outbox.cif.g08.bks.cpg/sg45_1_cif.got.tgz:946.got - 2010.06.03 19:51:22.
