data_PCOD9376540
_publ_section_title
;
Structure prediction by ZEFSAII (Michael W. Deem and Ramdas Pophale) SiO2 
 PCOD9376540
Probable space group: I B A 2
;
_chemical_formula_sum "Si O2"
_cell_formula_units_Z 52
_cell_length_a 7.573301
_cell_length_b 18.854685
_cell_length_c 14.205109
_cell_angle_alpha 90.000000
_cell_angle_beta 90.000000
_cell_angle_gamma 90.000000
_cell_volume 2028.378833
_symmetry_space_group_name_H-M "I B A 2"
_symmetry_group_IT_number 45
_symmetry_cell_setting 'orthorhombic'
loop_
_space_group_symop_operation_xyz
x,y,z
-x,-y,z
-x,y,1/2+z
x,-y,1/2+z
1/2+x,1/2+y,1/2+z
1/2-x,1/2-y,1/2+z
1/2-x,1/2+y,z
1/2+x,1/2-y,z
loop_
_atom_site_type_symbol
_atom_site_label
_atom_site_fract_x
_atom_site_fract_y
_atom_site_fract_z
Si Si1 0.938924 0.649799 0.415940
Si Si2 0.366256 0.557156 0.405754
Si Si3 0.805642 0.810082 0.171277
Si Si4 0.687393 0.297545 0.396185
Si Si5 0.082084 0.654860 0.687276
Si Si6 0.500000 0.000000 0.404994
Si Si7 0.903933 0.930401 0.625511
O O1 0.838693 0.721749 0.442296
O O2 0.923825 0.652743 0.301637
O O3 0.139805 0.668558 0.440771
O O4 0.907491 0.569891 0.450159
O O5 0.500000 0.500000 0.368056
O O6 0.448146 0.636755 0.398649
O O7 0.173767 0.538641 0.360711
O O8 0.358343 0.550459 0.517889
O O9 0.790636 0.795245 0.284010
O O10 0.840961 0.728518 0.143838
O O11 0.617727 0.845669 0.148599
O O12 0.963023 0.863294 0.142041
O O13 0.215263 0.591937 0.665509
O O14 0.000000 0.000000 0.664570
#
# Coordination Sequence:
#
# PCOD9376540 Si02
#       7
#     8   8   8   8   8   4   8
#     4   9  20  36  64  94 120 153 210 254 320 373
#     4  10  24  43  60  87 128 167 210 253 310 373
#     4  10  20  39  66  93 125 161 210 261 313 366
#     4   9  20  38  61  95 120 159 208 262 310 363
#     4  10  20  39  65  90 126 160 200 266 309 370
#     4  10  22  42  60  90 126 164 200 264 312 370
#     4  11  25  41  59  94 127 168 216 248 313 382
#
# _framework density 25.636236
#
# number of rings (size 3 to 8) (size 9 to 14) (size 15 to 20)
#    0.000    2.154    1.538    0.000    4.308    7.385 
#    5.538    0.000    0.000    0.000    0.000    0.000 
#    0.000    0.000    0.000    0.000    0.000    0.000 
#
# Total GULP energy -144884.356246 kJ/mol
# GULP energy per Si atom -5572.475240 kJ/mol
# Density = 2.557789 g / cm^3
# Si number density = 25.636236 Si / 1000 Ang^3
#
#
#
# Elastic Constant Matrix: (Units=GPa)
#
#
# Indices 1 2 3 4 5 6 
#
# 1 111.7274 43.1933 13.9578 0.0000 0.0000 0.0000
# 2 43.1933 225.5370 10.2096 0.0000 0.0000 0.0000
# 3 13.9578 10.2096 79.6652 0.0000 0.0000 0.0000
# 4 0.0000 0.0000 0.0000 33.6791 0.0000 0.0000
# 5 0.0000 0.0000 0.0000 0.0000 6.5309 0.0000
# 6 0.0000 0.0000 0.0000 0.0000 0.0000 45.6689
#
#
#
# Elastic Compliance Matrix: (Units=1/GPa)
#
#
# Indices 1 2 3 4 5 6 
#
# 1 0.009839 -0.001817 -0.001491 0.000000 0.000000 0.000000
# 2 -0.001817 0.004795 -0.000296 0.000000 0.000000 0.000000
# 3 -0.001491 -0.000296 0.012852 0.000000 0.000000 0.000000
# 4 0.000000 0.000000 0.000000 0.029692 0.000000 0.000000
# 5 0.000000 0.000000 0.000000 0.000000 0.153118 0.000000
# 6 0.000000 0.000000 0.000000 0.000000 0.000000 0.021897
#
#
# Mechanical properties :
#
#
# Convention : Reuss Voigt Hill
#
# Bulk Modulus (GPa) = 49.31485 61.29456 55.30471
# Shear Modulus (GPa) = 20.31201 40.48036 30.39619
#
# Velocity S-wave (km/s) = 2.81787 3.97801 3.44710
# Velocity P-wave (km/s) = 5.46492 6.71273 6.12070
#
# Compressibility (1/GPa) = 0.02027787
#
# Stress axis : x y z
#
# Youngs Moduli (GPa) = 101.63647 208.54130 77.81050
#
# Poissons Ratio (x) = 0.37888 0.11602
# Poissons Ratio (y) = 0.18465 0.02305
# Poissons Ratio (z) = 0.15154 0.06178
#
# Static dielectric constant tensor:
#      x y z
#    x 2.075930 0.000000 0.000000 
#    y 0.000000 2.101410 0.000000 
#    z 0.000000 0.000000 2.081270 
# 
# From -- ./inp_files/7663.got.cif
#   From: 2010.05.17/outbox.cif.g08.bks.cpg/sg45_4_cif.got.tgz:7663.got - 2010.06.03 19:51:22.
