data_PCOD9376989
_publ_section_title
;
Structure prediction by ZEFSAII (Michael W. Deem and Ramdas Pophale) SiO2 
 PCOD9376989
Probable space group: I B A 2
;
_chemical_formula_sum "Si O2"
_cell_formula_units_Z 48
_cell_length_a 17.838830
_cell_length_b 16.131307
_cell_length_c 7.850370
_cell_angle_alpha 90.000000
_cell_angle_beta 90.000000
_cell_angle_gamma 90.000000
_cell_volume 2259.051072
_symmetry_space_group_name_H-M "I B A 2"
_symmetry_group_IT_number 45
_symmetry_cell_setting 'orthorhombic'
loop_
_space_group_symop_operation_xyz
x,y,z
-x,-y,z
-x,y,1/2+z
x,-y,1/2+z
1/2+x,1/2+y,1/2+z
1/2-x,1/2-y,1/2+z
1/2-x,1/2+y,z
1/2+x,1/2-y,z
loop_
_atom_site_type_symbol
_atom_site_label
_atom_site_fract_x
_atom_site_fract_y
_atom_site_fract_z
Si Si1 0.500000 0.000000 0.456640
Si Si2 0.751008 0.636408 0.649666
Si Si3 0.352275 0.754925 0.387688
Si Si4 0.905159 0.899191 0.552197
Si Si5 0.255553 0.961619 0.003152
Si Si6 0.904821 0.588583 0.198652
Si Si7 0.500000 0.500000 0.300175
O O1 0.473558 0.077212 0.568939
O O2 0.571006 0.025902 0.347010
O O3 0.693143 0.698754 0.747669
O O4 0.803089 0.697092 0.533399
O O5 0.736452 0.559995 0.516490
O O6 0.770709 0.579864 0.817658
O O7 0.407609 0.693766 0.487287
O O8 0.395223 0.822725 0.279009
O O9 0.817932 0.917753 0.583414
O O10 0.931777 0.961537 0.404402
O O11 0.962862 0.924941 0.697006
O O12 0.328349 0.939085 0.111853
#
# Coordination Sequence:
#
# PCOD9376989 Si02
#       7
#     4   8   8   8   8   8   4
#     4  10  24  42  64  92 130 178 218 262 334 418
#     4  11  23  38  65 101 132 165 220 282 335 383
#     4  11  23  38  61  97 131 164 214 284 337 376
#     4  10  22  40  63  90 121 163 212 260 318 383
#     4  11  22  42  69  92 123 176 224 263 321 413
#     4  11  23  42  65  93 129 170 219 272 332 396
#     4  10  22  42  62  86 126 170 208 252 320 400
#
# _framework density 21.247858999999998
#
# number of rings (size 3 to 8) (size 9 to 14) (size 15 to 20)
#    0.000    1.333    0.000    7.000    0.000    4.000 
#    0.000    3.333    0.000    0.000    0.000    0.000 
#    0.000    0.000    0.000    0.000    0.000    0.000 
#
# Total GULP energy -133671.152517 kJ/mol
# GULP energy per Si atom -5569.631355 kJ/mol
# Density = 2.119950 g / cm^3
# Si number density = 21.247859 Si / 1000 Ang^3
#
#
#
# Elastic Constant Matrix: (Units=GPa)
#
#
# Indices 1 2 3 4 5 6 
#
# 1 91.2794 24.8058 41.1679 0.0000 0.0000 0.0000
# 2 24.8058 125.5091 43.0221 0.0000 0.0000 0.0000
# 3 41.1679 43.0221 91.4186 0.0000 0.0000 0.0000
# 4 0.0000 0.0000 0.0000 35.6411 0.0000 0.0000
# 5 0.0000 0.0000 0.0000 0.0000 13.8165 0.0000
# 6 0.0000 0.0000 0.0000 0.0000 0.0000 27.5270
#
#
#
# Elastic Compliance Matrix: (Units=1/GPa)
#
#
# Indices 1 2 3 4 5 6 
#
# 1 0.013801 -0.000712 -0.005880 0.000000 0.000000 0.000000
# 2 -0.000712 0.009537 -0.004167 0.000000 0.000000 0.000000
# 3 -0.005880 -0.004167 0.015548 0.000000 0.000000 0.000000
# 4 0.000000 0.000000 0.000000 0.028058 0.000000 0.000000
# 5 0.000000 0.000000 0.000000 0.000000 0.072377 0.000000
# 6 0.000000 0.000000 0.000000 0.000000 0.000000 0.036328
#
#
# Mechanical properties :
#
#
# Convention : Reuss Voigt Hill
#
# Bulk Modulus (GPa) = 57.58118 58.46653 58.02385
# Shear Modulus (GPa) = 24.63601 28.67767 26.65684
#
# Velocity S-wave (km/s) = 3.40878 3.67778 3.54583
# Velocity P-wave (km/s) = 6.53082 6.75358 6.64313
#
# Compressibility (1/GPa) = 0.01736679
#
# Stress axis : x y z
#
# Youngs Moduli (GPa) = 72.46024 104.85700 64.31861
#
# Poissons Ratio (x) = 0.07468 0.37817
# Poissons Ratio (y) = 0.05160 0.26804
# Poissons Ratio (z) = 0.42604 0.43698
#
# Static dielectric constant tensor:
#      x y z
#    x 1.639370 0.000000 0.000000 
#    y 0.000000 1.755090 0.000000 
#    z 0.000000 0.000000 1.876840 
# 
# From -- ./inp_files/1738.got.cif
#   From: 2010.05.17/outbox.cif.g08.bks.cpg/sg45_1_cif.got.tgz:1738.got - 2010.06.03 19:51:22.
