data_PCOD9376255
_publ_section_title
;
Structure prediction by ZEFSAII (Michael W. Deem and Ramdas Pophale) SiO2 
 PCOD9376255
Probable space group: I B A 2
;
_chemical_formula_sum "Si O2"
_cell_formula_units_Z 56
_cell_length_a 22.039167
_cell_length_b 7.871439
_cell_length_c 17.008129
_cell_angle_alpha 90.000000
_cell_angle_beta 90.000000
_cell_angle_gamma 90.000000
_cell_volume 2950.569516
_symmetry_space_group_name_H-M "I B A 2"
_symmetry_group_IT_number 45
_symmetry_cell_setting 'orthorhombic'
loop_
_space_group_symop_operation_xyz
x,y,z
-x,-y,z
-x,y,1/2+z
x,-y,1/2+z
1/2+x,1/2+y,1/2+z
1/2-x,1/2-y,1/2+z
1/2-x,1/2+y,z
1/2+x,1/2-y,z
loop_
_atom_site_type_symbol
_atom_site_label
_atom_site_fract_x
_atom_site_fract_y
_atom_site_fract_z
Si Si1 0.243953 0.592165 0.468060
Si Si2 0.683148 0.125575 0.136194
Si Si3 0.635871 0.281428 0.536314
Si Si4 0.565190 0.067780 0.051888
Si Si5 0.936227 0.914584 0.955816
Si Si6 0.703173 0.781574 0.195460
Si Si7 0.676957 0.665225 0.366864
O O1 0.216219 0.561833 0.555104
O O2 0.301749 0.714995 0.486610
O O3 0.277341 0.456081 0.413979
O O4 0.189202 0.663797 0.416233
O O5 0.613367 0.147558 0.113770
O O6 0.726923 0.272259 0.166682
O O7 0.686972 0.978685 0.200599
O O8 0.598415 0.450963 0.513629
O O9 0.659245 0.287204 0.626447
O O10 0.598016 0.107837 0.523361
O O11 0.500000 0.000000 0.081357
O O12 0.555446 0.225948 0.992567
O O13 0.891050 0.895404 0.882319
O O14 0.000000 0.000000 0.936895
O O15 0.693472 0.687996 0.276896
#
# Coordination Sequence:
#
# PCOD9376255 Si02
#       7
#     8   8   8   8   8   8   8
#     4  10  19  34  58  87 114 153 205 251 304 362
#     4  10  20  36  58  87 115 156 200 250 297 366
#     4   9  21  37  58  87 116 150 207 250 294 362
#     4  11  20  35  61  86 114 152 204 251 284 336
#     4  11  22  38  62  86 116 162 211 245 290 352
#     4  10  21  35  56  86 125 147 188 253 321 356
#     4  11  21  35  58  89 121 155 192 250 318 360
#
# _framework density 18.979385000000001
#
# number of rings (size 3 to 8) (size 9 to 14) (size 15 to 20)
#    0.000    1.714    2.857    3.429    4.000    0.000 
#    0.000    0.714    0.000    3.429    0.000    0.000 
#    0.000    0.000    0.000    0.000    0.000    0.000 
#
# Total GULP energy -155876.702088 kJ/mol
# GULP energy per Si atom -5567.025075 kJ/mol
# Density = 1.893619 g / cm^3
# Si number density = 18.979385 Si / 1000 Ang^3
#
#
#
# Elastic Constant Matrix: (Units=GPa)
#
#
# Indices 1 2 3 4 5 6 
#
# 1 140.7316 36.0078 30.5438 0.0000 0.0000 0.0000
# 2 36.0078 52.8130 27.8072 0.0000 0.0000 0.0000
# 3 30.5438 27.8072 79.3423 0.0000 0.0000 0.0000
# 4 0.0000 0.0000 0.0000 8.3431 0.0000 0.0000
# 5 0.0000 0.0000 0.0000 0.0000 14.9625 0.0000
# 6 0.0000 0.0000 0.0000 0.0000 0.0000 37.0062
#
#
#
# Elastic Compliance Matrix: (Units=1/GPa)
#
#
# Indices 1 2 3 4 5 6 
#
# 1 0.008764 -0.005149 -0.001569 0.000000 0.000000 0.000000
# 2 -0.005149 0.026244 -0.007216 0.000000 0.000000 0.000000
# 3 -0.001569 -0.007216 0.015737 0.000000 0.000000 0.000000
# 4 0.000000 0.000000 0.000000 0.119860 0.000000 0.000000
# 5 0.000000 0.000000 0.000000 0.000000 0.066834 0.000000
# 6 0.000000 0.000000 0.000000 0.000000 0.000000 0.027023
#
#
# Mechanical properties :
#
#
# Convention : Reuss Voigt Hill
#
# Bulk Modulus (GPa) = 43.71184 51.28940 47.50062
# Shear Modulus (GPa) = 16.66919 23.96422 20.31671
#
# Velocity S-wave (km/s) = 2.96679 3.55723 3.27534
# Velocity P-wave (km/s) = 5.90060 6.62980 6.27580
#
# Compressibility (1/GPa) = 0.02287710
#
# Stress axis : x y z
#
# Youngs Moduli (GPa) = 114.10726 38.10323 63.54603
#
# Poissons Ratio (x) = 0.19619 0.09971
# Poissons Ratio (y) = 0.58752 0.45854
# Poissons Ratio (z) = 0.17905 0.27495
#
# Static dielectric constant tensor:
#      x y z
#    x 1.675250 0.000000 0.000000 
#    y 0.000000 1.805840 0.000000 
#    z 0.000000 0.000000 1.630890 
# 
# From -- ./inp_files/6945.got.cif
#   From: 2010.05.17/outbox.cif.g08.bks.cpg/sg45_4_cif.got.tgz:6945.got - 2010.06.03 19:51:22.
