data_PCOD9376183
_publ_section_title
;
Structure prediction by ZEFSAII (Michael W. Deem and Ramdas Pophale) SiO2 
 PCOD9376183
Probable space group: I B A 2
;
_chemical_formula_sum "Si O2"
_cell_formula_units_Z 44
_cell_length_a 8.974970
_cell_length_b 12.446690
_cell_length_c 16.687505
_cell_angle_alpha 90.000000
_cell_angle_beta 90.000000
_cell_angle_gamma 90.000000
_cell_volume 1864.138978
_symmetry_space_group_name_H-M "I B A 2"
_symmetry_group_IT_number 45
_symmetry_cell_setting 'orthorhombic'
loop_
_space_group_symop_operation_xyz
x,y,z
-x,-y,z
-x,y,1/2+z
x,-y,1/2+z
1/2+x,1/2+y,1/2+z
1/2-x,1/2-y,1/2+z
1/2-x,1/2+y,z
1/2+x,1/2-y,z
loop_
_atom_site_type_symbol
_atom_site_label
_atom_site_fract_x
_atom_site_fract_y
_atom_site_fract_z
Si Si1 0.483452 0.673064 0.008500
Si Si2 0.500000 0.500000 0.771728
Si Si3 0.303265 0.493486 0.430772
Si Si4 0.401331 0.651512 0.682251
Si Si5 0.429579 0.856695 0.885408
Si Si6 0.839889 0.757161 0.281530
O O1 0.525583 0.686034 0.100487
O O2 0.608075 0.592747 0.971871
O O3 0.332188 0.608199 0.987691
O O4 0.475293 0.782211 0.959618
O O5 0.624831 0.472543 0.844273
O O6 0.372554 0.527787 0.696587
O O7 0.137796 0.532245 0.416044
O O8 0.258946 0.719063 0.707143
O O9 0.533146 0.655509 0.753841
O O10 0.281550 0.804551 0.842109
O O11 0.561101 0.836561 0.821060
#
# Coordination Sequence:
#
# PCOD9376183 Si02
#       6
#     8   4   8   8   8   8
#     4  10  22  36  63  97 130 168 224 270 342 398
#     4  10  18  40  60  84 124 168 220 260 314 420
#     4  10  19  38  63  91 123 179 220 263 330 407
#     4  11  22  38  61  94 126 168 218 278 333 396
#     4  11  19  40  63  95 126 173 226 275 324 414
#     4  10  21  37  63  88 126 169 223 268 330 393
#
# _framework density 23.603390999999998
#
# number of rings (size 3 to 8) (size 9 to 14) (size 15 to 20)
#    0.000    1.818    3.636    4.364    2.545    0.000 
#    0.000    3.636    0.000    0.000    0.000    0.000 
#    0.000    0.000    0.000    0.000    0.000    0.000 
#
# Total GULP energy -122555.729681 kJ/mol
# GULP energy per Si atom -5570.714985 kJ/mol
# Density = 2.354967 g / cm^3
# Si number density = 23.603391 Si / 1000 Ang^3
#
#
#
# Elastic Constant Matrix: (Units=GPa)
#
#
# Indices 1 2 3 4 5 6 
#
# 1 165.2982 38.2103 64.2788 0.0000 0.0000 0.0000
# 2 38.2103 61.3720 37.7856 0.0000 0.0000 0.0000
# 3 64.2788 37.7856 153.3808 0.0000 0.0000 0.0000
# 4 0.0000 0.0000 0.0000 27.8203 0.0000 0.0000
# 5 0.0000 0.0000 0.0000 0.0000 26.2846 0.0000
# 6 0.0000 0.0000 0.0000 0.0000 0.0000 47.9889
#
#
#
# Elastic Compliance Matrix: (Units=1/GPa)
#
#
# Indices 1 2 3 4 5 6 
#
# 1 0.007767 -0.003338 -0.002433 0.000000 0.000000 0.000000
# 2 -0.003338 0.020642 -0.003686 0.000000 0.000000 0.000000
# 3 -0.002433 -0.003686 0.008447 0.000000 0.000000 0.000000
# 4 0.000000 0.000000 0.000000 0.035945 0.000000 0.000000
# 5 0.000000 0.000000 0.000000 0.000000 0.038045 0.000000
# 6 0.000000 0.000000 0.000000 0.000000 0.000000 0.020838
#
#
# Mechanical properties :
#
#
# Convention : Reuss Voigt Hill
#
# Bulk Modulus (GPa) = 55.73403 73.40003 64.56703
# Shear Modulus (GPa) = 31.93256 36.40384 34.16820
#
# Velocity S-wave (km/s) = 3.68214 3.93149 3.80886
# Velocity P-wave (km/s) = 6.46077 7.19539 6.83795
#
# Compressibility (1/GPa) = 0.01794236
#
# Stress axis : x y z
#
# Youngs Moduli (GPa) = 128.74418 48.44502 118.38019
#
# Poissons Ratio (x) = 0.16172 0.28799
# Poissons Ratio (y) = 0.42977 0.43638
# Poissons Ratio (z) = 0.31321 0.17858
#
# Static dielectric constant tensor:
#      x y z
#    x 1.983030 0.000000 0.000000 
#    y 0.000000 2.575510 0.000000 
#    z 0.000000 0.000000 1.896790 
# 
# From -- ./inp_files/5557.got.cif
#   From: 2010.05.17/outbox.cif.g08.bks.cpg/sg45_3_cif.got.tgz:5557.got - 2010.06.03 19:51:22.
