data_PCOD9376002
_publ_section_title
;
Structure prediction by ZEFSAII (Michael W. Deem and Ramdas Pophale) SiO2 
 PCOD9376002
Probable space group: I M M 2
;
_chemical_formula_sum "Si O2"
_cell_formula_units_Z 32
_cell_length_a 15.000000
_cell_length_b 9.000000
_cell_length_c 24.000000
_cell_angle_alpha 90.000000
_cell_angle_beta 90.000000
_cell_angle_gamma 90.000000
_cell_volume 3240.000000
_symmetry_space_group_name_H-M "I M M 2"
_symmetry_group_IT_number 44
_symmetry_cell_setting 'orthorhombic'
loop_
_space_group_symop_operation_xyz
x,y,z
-x,-y,z
-x,y,z
x,-y,z
1/2+x,1/2+y,1/2+z
1/2-x,1/2-y,1/2+z
1/2-x,1/2+y,1/2+z
1/2+x,1/2-y,1/2+z
loop_
_atom_site_type_symbol
_atom_site_label
_atom_site_fract_x
_atom_site_fract_y
_atom_site_fract_z
Si Si1 0.397379 0.323298 0.172450
Si Si2 0.642139 0.672684 0.049114
Si Si3 0.759112 0.820848 0.344020
Si Si4 0.149432 0.328997 0.018733
Si Si5 0.401753 0.325538 0.629232
Si Si6 0.732551 0.321602 0.722096
Si Si7 0.896333 0.176153 0.902415
Si Si8 0.404365 0.681152 0.930481
O O1 0.500000 0.304390 0.187017
O O2 0.376678 0.500000 0.173350
O O3 0.381093 0.264923 0.109315
O O4 0.330830 0.238369 0.212200
O O5 0.612688 0.500000 0.052127
O O6 0.746985 0.675581 0.036497
O O7 0.600006 0.738707 0.993494
O O8 0.796913 0.779362 0.283885
O O9 0.663487 0.752531 0.355774
O O10 0.823691 0.767081 0.392951
O O11 0.753401 0.000000 0.346908
O O12 0.124339 0.500000 0.009714
O O13 0.100269 0.258518 0.071086
O O14 0.132234 0.240507 0.962380
O O15 0.500000 0.315376 0.654617
O O16 0.383523 0.500000 0.618154
O O17 0.329664 0.264867 0.672406
O O18 0.731130 0.500000 0.719040
O O19 0.000000 0.207936 0.894231
O O20 0.882842 0.000000 0.901899
O O21 0.500000 0.715836 0.905182
O O22 0.397012 0.500000 0.933609
#
# Coordination Sequence:
#
# PCOD9376002 Si02
#       8
#     8   8   8   8   8   8   8   8
#     4  10  20  35  57  83 111 143 182 229 278 332
#     4   9  16  29  52  83 112 136 169 217 272 325
#     4  10  21  38  58  83 110 143 190 236 277 323
#     4  11  20  34  59  87 114 145 185 231 278 332
#     4  10  21  37  56  81 116 154 188 226 278 336
#     4  10  22  38  56  79 112 149 188 235 279 322
#     4  11  24  40  58  82 113 149 186 227 282 341
#     4   9  16  29  54  85 111 134 169 221 276 328
#
# _framework density 9.8765429999999999
#
# number of rings (size 3 to 8) (size 9 to 14) (size 15 to 20)
#    0.000    2.000    2.500    1.500    0.000    6.000 
#    0.000    5.000    0.000    0.375    0.000    1.750 
#    0.000    0.000    0.000    0.000    0.000    0.000 
#
# Total GULP energy -178447.463196 kJ/mol
# GULP energy per Si atom -5576.483225 kJ/mol
# Density = 0.985406 g / cm^3
# Si number density = 9.876543 Si / 1000 Ang^3
#
#
#
# Elastic Constant Matrix: (Units=GPa)
#
#
# Indices 1 2 3 4 5 6 
#
# 1 50.9411 16.9039 23.8398 0.0000 0.0000 0.0000
# 2 16.9039 -13.5559 -1.0798 0.0000 0.0000 0.0000
# 3 23.8398 -1.0798 52.3498 0.0000 0.0000 0.0000
# 4 0.0000 0.0000 0.0000 18.6585 0.0000 0.0000
# 5 0.0000 0.0000 0.0000 0.0000 -16.6471 0.0000
# 6 0.0000 0.0000 0.0000 0.0000 0.0000 17.9069
#
#
#
# Elastic Compliance Matrix: (Units=1/GPa)
#
#
# Indices 1 2 3 4 5 6 
#
# 1 0.016033 0.020541 -0.006878 0.000000 0.000000 0.000000
# 2 0.020541 -0.047332 -0.010331 0.000000 0.000000 0.000000
# 3 -0.006878 -0.010331 0.022021 0.000000 0.000000 0.000000
# 4 0.000000 0.000000 0.000000 0.053595 0.000000 0.000000
# 5 0.000000 0.000000 0.000000 0.000000 -0.060071 0.000000
# 6 0.000000 0.000000 0.000000 0.000000 0.000000 0.055845
#
#
# Mechanical properties :
#
#
# Convention : Reuss Voigt Hill
#
# Bulk Modulus (GPa) = -382.79993 18.78477 -182.00758
# Shear Modulus (GPa) = 153.58611 7.32174 80.45392
#
# Velocity S-wave (km/s) = 8.82733 1.92735 6.38891
# Velocity P-wave (km/s) = 9.50355 3.80570 6.15768
#
# Compressibility (1/GPa) = -0.00261233
#
# Stress axis : x y z
#
# Youngs Moduli (GPa) = 62.37105 -21.12739 45.41071
#
# Poissons Ratio (x) = 0.43397 0.31232
# Poissons Ratio (y) = -1.28115 0.46912
# Poissons Ratio (z) = 0.42897 -0.21826
#
# Static dielectric constant tensor:
#      x y z
#    x 1.734180 0.000000 0.000000 
#    y 0.000000 1.670210 0.000000 
#    z 0.000000 0.000000 1.688590 
# 
# From -- ./inp_files/25111.got.cif
#   From: 2010.05.17/outbox.ucp.g08.bks.cvg/sg44_13_cif.got.tgz:25111.got - 2010.06.11 16:32:36.
