data_PCOD9376480
_publ_section_title
;
Structure prediction by ZEFSAII (Michael W. Deem and Ramdas Pophale) SiO2 
 PCOD9376480
Probable space group: I B A 2
;
_chemical_formula_sum "Si O2"
_cell_formula_units_Z 60
_cell_length_a 13.436861
_cell_length_b 30.085413
_cell_length_c 9.114740
_cell_angle_alpha 90.000000
_cell_angle_beta 90.000000
_cell_angle_gamma 90.000000
_cell_volume 3684.665662
_symmetry_space_group_name_H-M "I B A 2"
_symmetry_group_IT_number 45
_symmetry_cell_setting 'orthorhombic'
loop_
_space_group_symop_operation_xyz
x,y,z
-x,-y,z
-x,y,1/2+z
x,-y,1/2+z
1/2+x,1/2+y,1/2+z
1/2-x,1/2-y,1/2+z
1/2-x,1/2+y,z
1/2+x,1/2-y,z
loop_
_atom_site_type_symbol
_atom_site_label
_atom_site_fract_x
_atom_site_fract_y
_atom_site_fract_z
Si Si1 0.406712 0.303805 0.957300
Si Si2 0.612455 0.811986 0.692744
Si Si3 0.912658 0.861462 0.966681
Si Si4 0.802339 0.134860 0.169660
Si Si5 0.801472 0.787999 0.166910
Si Si6 0.000000 0.000000 0.306947
Si Si7 0.083747 0.294453 0.528031
Si Si8 0.063562 0.936726 0.053864
O O1 0.492499 0.335827 0.897539
O O2 0.320072 0.299236 0.837562
O O3 0.366357 0.323803 0.107855
O O4 0.449592 0.255660 0.989694
O O5 0.689931 0.850094 0.649511
O O6 0.657805 0.762834 0.652709
O O7 0.505176 0.816106 0.618464
O O8 0.603378 0.814906 0.868722
O O9 0.836077 0.873132 0.837173
O O10 0.965499 0.904544 0.040323
O O11 0.862130 0.825270 0.074417
O O12 0.841119 0.094480 0.071058
O O13 0.687279 0.790896 0.116315
O O14 0.064422 0.030899 0.414753
O O15 0.943585 0.033352 0.198711
#
# Coordination Sequence:
#
# PCOD9376480 Si02
#       8
#     8   8   8   8   8   4   8   8
#     4  10  21  31  52  72 104 147 198 240 275 330
#     4  11  24  36  52  73 109 153 206 251 278 324
#     4  11  20  36  53  80 109 153 190 226 281 339
#     4  11  21  35  52  80 110 152 189 229 282 339
#     4  11  22  35  51  74 109 154 206 242 282 325
#     4  10  20  38  58  88 116 146 174 218 300 362
#     4  11  23  35  50  72 103 154 203 249 279 311
#     4  10  21  36  59  85 120 146 173 230 284 365
#
# _framework density 16.283702999999999
#
# number of rings (size 3 to 8) (size 9 to 14) (size 15 to 20)
#    0.000    1.333    5.333    1.600    5.600    0.000 
#    0.000    0.000    0.000    0.000    0.000    0.000 
#    0.000   18.133    0.000    0.000    0.000    0.000 
#
# Total GULP energy -167246.004507 kJ/mol
# GULP energy per Si atom -5574.866817 kJ/mol
# Density = 1.624664 g / cm^3
# Si number density = 16.283703 Si / 1000 Ang^3
#
#
#
# Elastic Constant Matrix: (Units=GPa)
#
#
# Indices 1 2 3 4 5 6 
#
# 1 108.2500 29.3882 38.1949 0.0001 0.0001 0.0000
# 2 29.3882 69.7684 26.6088 -0.0001 0.0002 0.0001
# 3 38.1949 26.6088 76.1426 -0.0003 0.0003 0.0002
# 4 0.0001 -0.0001 -0.0003 22.4082 -0.0001 0.0001
# 5 0.0001 0.0002 0.0003 -0.0001 22.4544 0.0000
# 6 0.0000 0.0001 0.0002 0.0001 0.0000 18.0400
#
#
#
# Elastic Compliance Matrix: (Units=1/GPa)
#
#
# Indices 1 2 3 4 5 6 
#
# 1 0.011788 -0.003127 -0.004820 0.000000 0.000000 0.000000
# 2 -0.003127 0.017367 -0.004500 0.000000 0.000000 0.000000
# 3 -0.004820 -0.004500 0.017124 0.000000 0.000000 0.000000
# 4 0.000000 0.000000 0.000000 0.044627 0.000000 0.000000
# 5 0.000000 0.000000 0.000000 0.000000 0.044535 0.000000
# 6 0.000000 0.000000 0.000000 0.000000 0.000000 0.055432
#
#
# Mechanical properties :
#
#
# Convention : Reuss Voigt Hill
#
# Bulk Modulus (GPa) = 46.76590 49.17165 47.96878
# Shear Modulus (GPa) = 22.43215 23.24513 22.83864
#
# Velocity S-wave (km/s) = 3.71561 3.78234 3.74912
# Velocity P-wave (km/s) = 6.86946 7.02404 6.94718
#
# Compressibility (1/GPa) = 0.02138310
#
# Stress axis : x y z
#
# Youngs Moduli (GPa) = 84.83556 57.58164 58.39794
#
# Poissons Ratio (x) = 0.18005 0.28149
# Poissons Ratio (y) = 0.26527 0.26282
# Poissons Ratio (z) = 0.40892 0.25914
#
# Static dielectric constant tensor:
#      x y z
#    x 1.544680 0.000000 0.000000 
#    y 0.000000 1.557050 0.000000 
#    z 0.000000 0.000000 1.572440 
# 
# From -- ./inp_files/1479.got.cif
#   From: 2010.05.17/outbox.cif.g08.bks.cpg/sg45_1_cif.got.tgz:1479.got - 2010.06.03 19:51:22.
