data_PCOD9376676
_publ_section_title
;
Structure prediction by ZEFSAII (Michael W. Deem and Ramdas Pophale) SiO2 
 PCOD9376676
Probable space group: I B A 2
;
_chemical_formula_sum "Si O2"
_cell_formula_units_Z 60
_cell_length_a 9.060153
_cell_length_b 20.400322
_cell_length_c 14.443978
_cell_angle_alpha 90.000000
_cell_angle_beta 90.000000
_cell_angle_gamma 90.000000
_cell_volume 2669.681011
_symmetry_space_group_name_H-M "I B A 2"
_symmetry_group_IT_number 45
_symmetry_cell_setting 'orthorhombic'
loop_
_space_group_symop_operation_xyz
x,y,z
-x,-y,z
-x,y,1/2+z
x,-y,1/2+z
1/2+x,1/2+y,1/2+z
1/2-x,1/2-y,1/2+z
1/2-x,1/2+y,z
1/2+x,1/2-y,z
loop_
_atom_site_type_symbol
_atom_site_label
_atom_site_fract_x
_atom_site_fract_y
_atom_site_fract_z
Si Si1 0.280470 0.368780 0.353990
Si Si2 0.562545 0.903286 0.354443
Si Si3 0.500000 0.000000 0.208442
Si Si4 0.782533 0.215248 0.064612
Si Si5 0.719531 0.631220 0.562895
Si Si6 0.000000 0.149241 0.208442
Si Si7 0.217468 0.215248 0.352273
Si Si8 0.062546 0.596713 0.562441
O O1 0.333221 0.382546 0.458443
O O2 0.390775 0.391352 0.274478
O O3 0.267197 0.289915 0.341717
O O4 0.113154 0.393502 0.347021
O O5 0.645682 0.834625 0.341500
O O6 0.597764 0.926643 0.458442
O O7 0.598071 0.954935 0.275504
O O8 0.598072 0.045065 0.141380
O O9 0.732804 0.289915 0.075168
O O10 0.645682 0.165374 0.075385
O O11 0.902703 0.193446 0.138927
O O12 0.838737 0.208621 0.958442
O O13 0.609226 0.608648 0.642407
O O14 0.886847 0.606498 0.569863
O O15 0.097298 0.193446 0.277957
#
# Coordination Sequence:
#
# PCOD9376676 Si02
#       8
#     8   8   4   8   8   8   8   8
#     4  10  21  37  57  85 120 154 191 240 299 356
#     4  10  22  40  62  87 118 157 198 242 291 346
#     4  12  22  38  60  88 116 154 210 252 276 326
#     4  10  21  37  57  85 120 154 191 240 299 356
#     4  10  21  37  57  85 120 154 191 240 299 356
#     4  12  20  29  52  85 116 146 180 226 288 354
#     4  10  21  37  57  85 120 154 191 240 299 356
#     4  10  22  40  62  87 118 157 198 242 291 346
#
# _framework density 22.474595000000001
#
# number of rings (size 3 to 8) (size 9 to 14) (size 15 to 20)
#    0.000    1.600    0.000    5.200    0.000    6.400 
#    0.000    0.000    0.000   12.800    0.000   29.867 
#    0.000    0.000    0.000    0.000    0.000    0.000 
#
# Total GULP energy -167865.670186 kJ/mol
# GULP energy per Si atom -5595.522340 kJ/mol
# Density = 2.242344 g / cm^3
# Si number density = 22.474595 Si / 1000 Ang^3
#
#
#
# Elastic Constant Matrix: (Units=GPa)
#
#
# Indices 1 2 3 4 5 6 
#
# 1 80.7017 -10.5721 65.7095 0.0000 0.0000 0.0000
# 2 -10.5721 52.7121 27.4601 0.0000 0.0000 0.0000
# 3 65.7095 27.4601 160.9872 0.0000 0.0000 0.0000
# 4 0.0000 0.0000 0.0000 28.7195 0.0000 0.0000
# 5 0.0000 0.0000 0.0000 0.0000 44.4636 0.0000
# 6 0.0000 0.0000 0.0000 0.0000 0.0000 5.7113
#
#
#
# Elastic Compliance Matrix: (Units=1/GPa)
#
#
# Indices 1 2 3 4 5 6 
#
# 1 0.022725 0.010306 -0.011033 0.000000 0.000000 0.000000
# 2 0.010306 0.025495 -0.008555 0.000000 0.000000 0.000000
# 3 -0.011033 -0.008555 0.012174 0.000000 0.000000 0.000000
# 4 0.000000 0.000000 0.000000 0.034820 0.000000 0.000000
# 5 0.000000 0.000000 0.000000 0.000000 0.022490 0.000000
# 6 0.000000 0.000000 0.000000 0.000000 0.000000 0.175091
#
#
# Mechanical properties :
#
#
# Convention : Reuss Voigt Hill
#
# Bulk Modulus (GPa) = 23.90727 51.06622 37.48675
# Shear Modulus (GPa) = 15.37026 29.89913 22.63469
#
# Velocity S-wave (km/s) = 2.61798 3.65136 3.17696
# Velocity P-wave (km/s) = 4.44960 6.36770 5.49302
#
# Compressibility (1/GPa) = 0.04182827
#
# Stress axis : x y z
#
# Youngs Moduli (GPa) = 44.00415 39.22398 82.13936
#
# Poissons Ratio (x) = -0.40423 0.90628
# Poissons Ratio (y) = -0.45349 0.70271
# Poissons Ratio (z) = 0.48552 0.33556
#
# Static dielectric constant tensor:
#      x y z
#    x 1.841670 0.000000 0.000000 
#    y 0.000000 1.813800 0.000000 
#    z 0.000000 0.000000 1.875490 
# 
# From -- ./inp_files/5818.got.cif
#   From: 2010.05.17/outbox.cif.g08.bks.cpg/sg45_3_cif.got.tgz:5818.got - 2010.06.03 19:51:22.
