data_PCOD9376295
_publ_section_title
;
Structure prediction by ZEFSAII (Michael W. Deem and Ramdas Pophale) SiO2 
 PCOD9376295
Probable space group: I B A 2
;
_chemical_formula_sum "Si O2"
_cell_formula_units_Z 56
_cell_length_a 31.370641
_cell_length_b 5.657183
_cell_length_c 13.390487
_cell_angle_alpha 90.000000
_cell_angle_beta 90.000000
_cell_angle_gamma 90.000000
_cell_volume 2376.402456
_symmetry_space_group_name_H-M "I B A 2"
_symmetry_group_IT_number 45
_symmetry_cell_setting 'orthorhombic'
loop_
_space_group_symop_operation_xyz
x,y,z
-x,-y,z
-x,y,1/2+z
x,-y,1/2+z
1/2+x,1/2+y,1/2+z
1/2-x,1/2-y,1/2+z
1/2-x,1/2+y,z
1/2+x,1/2-y,z
loop_
_atom_site_type_symbol
_atom_site_label
_atom_site_fract_x
_atom_site_fract_y
_atom_site_fract_z
Si Si1 0.000000 0.500000 0.490830
Si Si2 0.741795 0.631877 0.169341
Si Si3 0.914937 0.516716 0.612511
Si Si4 0.000000 0.000000 0.874444
Si Si5 0.144417 0.846842 0.234532
Si Si6 0.634683 0.969192 0.432789
Si Si7 0.582968 0.284012 0.299477
Si Si8 0.227654 0.627138 0.893454
O O1 0.958934 0.557557 0.556914
O O2 0.993293 0.253027 0.430554
O O3 0.748341 0.380144 0.116770
O O4 0.693039 0.645938 0.203459
O O5 0.770844 0.626699 0.270557
O O6 0.884935 0.729542 0.649677
O O7 0.883722 0.371301 0.536766
O O8 0.929633 0.397835 0.715004
O O9 0.955855 0.039264 0.815727
O O10 0.139221 0.709815 0.340150
O O11 0.125599 0.100910 0.256529
O O12 0.598471 0.155604 0.399107
O O13 0.680511 0.094028 0.437734
O O14 0.253398 0.385452 0.918105
#
# Coordination Sequence:
#
# PCOD9376295 Si02
#       8
#     4   8   8   4   8   8   8   8
#     4  12  28  54  76 110 148 194 250 310 378 454
#     4  10  19  37  67  99 135 191 243 299 360 432
#     4  11  28  45  72 111 151 191 247 321 370 449
#     4  12  28  50  84 106 142 204 252 300 392 460
#     4  11  24  42  71 105 146 197 250 304 380 449
#     4  11  22  46  69 102 148 195 252 300 384 443
#     4  11  26  44  75 106 144 197 247 313 375 458
#     4  10  19  36  68  99 133 192 244 300 356 437
#
# _framework density 23.56503
#
# number of rings (size 3 to 8) (size 9 to 14) (size 15 to 20)
#    0.000    1.143    4.286    2.571    8.000    1.143 
#    0.000    1.429    0.000    0.000    0.000    0.000 
#    0.000    0.000    0.000    0.000    0.000    0.000 
#
# Total GULP energy -156469.478151 kJ/mol
# GULP energy per Si atom -5588.195648 kJ/mol
# Density = 2.351140 g / cm^3
# Si number density = 23.565030 Si / 1000 Ang^3
#
#
#
# Elastic Constant Matrix: (Units=GPa)
#
#
# Indices 1 2 3 4 5 6 
#
# 1 115.1715 19.1031 37.9861 0.0000 0.0000 0.0000
# 2 19.1031 116.4755 25.3455 0.0000 0.0000 0.0000
# 3 37.9861 25.3455 62.5822 0.0000 0.0000 0.0000
# 4 0.0000 0.0000 0.0000 11.4144 0.0000 0.0000
# 5 0.0000 0.0000 0.0000 0.0000 -8.5835 0.0000
# 6 0.0000 0.0000 0.0000 0.0000 0.0000 38.2847
#
#
#
# Elastic Compliance Matrix: (Units=1/GPa)
#
#
# Indices 1 2 3 4 5 6 
#
# 1 0.010871 -0.000381 -0.006445 0.000000 0.000000 0.000000
# 2 -0.000381 0.009429 -0.003587 0.000000 0.000000 0.000000
# 3 -0.006445 -0.003587 0.021344 0.000000 0.000000 0.000000
# 4 0.000000 0.000000 0.000000 0.087609 0.000000 0.000000
# 5 0.000000 0.000000 0.000000 0.000000 -0.116502 0.000000
# 6 0.000000 0.000000 0.000000 0.000000 0.000000 0.026120
#
#
# Mechanical properties :
#
#
# Convention : Reuss Voigt Hill
#
# Bulk Modulus (GPa) = 48.03485 51.01093 49.52289
# Shear Modulus (GPa) = 75.03588 22.34276 48.68932
#
# Velocity S-wave (km/s) = 5.64900 3.08252 4.55044
# Velocity P-wave (km/s) = 7.93577 5.86200 6.97637
#
# Compressibility (1/GPa) = 0.02081822
#
# Stress axis : x y z
#
# Youngs Moduli (GPa) = 91.98450 106.06056 46.85249
#
# Poissons Ratio (x) = 0.04037 0.30194
# Poissons Ratio (y) = 0.03501 0.16808
# Poissons Ratio (z) = 0.59280 0.38049
#
# Static dielectric constant tensor:
#      x y z
#    x 1.855160 0.000000 0.000000 
#    y 0.000000 1.939380 0.000000 
#    z 0.000000 0.000000 1.985510 
# 
# From -- ./inp_files/5303.got.cif
#   From: 2010.05.17/outbox.cif.g08.bks.cpg/sg45_3_cif.got.tgz:5303.got - 2010.06.03 19:51:22.
