data_PCOD9376149
_publ_section_title
;
Structure prediction by ZEFSAII (Michael W. Deem and Ramdas Pophale) SiO2 
 PCOD9376149
Probable space group: I B A 2
;
_chemical_formula_sum "Si O2"
_cell_formula_units_Z 48
_cell_length_a 26.325751
_cell_length_b 8.081152
_cell_length_c 8.773836
_cell_angle_alpha 90.000000
_cell_angle_beta 90.000000
_cell_angle_gamma 90.000000
_cell_volume 1866.566887
_symmetry_space_group_name_H-M "I B A 2"
_symmetry_group_IT_number 45
_symmetry_cell_setting 'orthorhombic'
loop_
_space_group_symop_operation_xyz
x,y,z
-x,-y,z
-x,y,1/2+z
x,-y,1/2+z
1/2+x,1/2+y,1/2+z
1/2-x,1/2-y,1/2+z
1/2-x,1/2+y,z
1/2+x,1/2-y,z
loop_
_atom_site_type_symbol
_atom_site_label
_atom_site_fract_x
_atom_site_fract_y
_atom_site_fract_z
Si Si1 0.938276 0.351456 0.597170
Si Si2 0.963701 0.713274 0.455000
Si Si3 0.166826 0.513579 0.566112
Si Si4 0.375942 0.664200 0.647560
Si Si5 0.722970 0.827572 0.806989
Si Si6 0.178195 0.983873 0.391503
O O1 0.950982 0.539393 0.541575
O O2 0.951017 0.313498 0.775561
O O3 0.877866 0.349832 0.570191
O O4 0.977333 0.250504 0.490569
O O5 0.926935 0.834437 0.548388
O O6 0.144875 0.351875 0.654162
O O7 0.183123 0.433848 0.407456
O O8 0.216289 0.591195 0.642731
O O9 0.372916 0.580165 0.810543
O O10 0.335906 0.555574 0.553586
O O11 0.703663 0.642185 0.810094
O O12 0.778705 0.845586 0.875788
#
# Coordination Sequence:
#
# PCOD9376149 Si02
#       6
#     8   8   8   8   8   8
#     4  10  18  34  61  95 132 168 218 275 329 391
#     4  10  20  36  62  98 132 172 221 280 339 395
#     4  10  21  38  61  94 128 165 213 269 328 400
#     4  10  23  41  62  90 127 167 217 270 333 398
#     4  11  23  38  62  93 128 169 216 270 342 407
#     4  11  23  41  62  91 127 168 217 275 337 415
#
# _framework density 25.715661000000001
#
# number of rings (size 3 to 8) (size 9 to 14) (size 15 to 20)
#    0.000    1.667    0.000    7.000    0.000    6.667 
#    0.000    5.000    0.000    8.000    0.000    0.000 
#    0.000    0.000    0.000    0.000    0.000    0.000 
#
# Total GULP energy -134225.245102 kJ/mol
# GULP energy per Si atom -5592.718546 kJ/mol
# Density = 2.565713 g / cm^3
# Si number density = 25.715661 Si / 1000 Ang^3
#
#
#
# Elastic Constant Matrix: (Units=GPa)
#
#
# Indices 1 2 3 4 5 6 
#
# 1 141.5312 11.2300 36.4943 0.0000 0.0000 0.0000
# 2 11.2300 60.7673 39.6121 0.0000 0.0000 0.0000
# 3 36.4943 39.6121 83.0449 0.0000 0.0000 0.0000
# 4 0.0000 0.0000 0.0000 27.8433 0.0000 0.0000
# 5 0.0000 0.0000 0.0000 0.0000 23.1487 0.0000
# 6 0.0000 0.0000 0.0000 0.0000 0.0000 39.6202
#
#
#
# Elastic Compliance Matrix: (Units=1/GPa)
#
#
# Indices 1 2 3 4 5 6 
#
# 1 0.008027 0.001184 -0.004092 0.000000 0.000000 0.000000
# 2 0.001184 0.024057 -0.011995 0.000000 0.000000 0.000000
# 3 -0.004092 -0.011995 0.019562 0.000000 0.000000 0.000000
# 4 0.000000 0.000000 0.000000 0.035915 0.000000 0.000000
# 5 0.000000 0.000000 0.000000 0.000000 0.043199 0.000000
# 6 0.000000 0.000000 0.000000 0.000000 0.000000 0.025240
#
#
# Mechanical properties :
#
#
# Convention : Reuss Voigt Hill
#
# Bulk Modulus (GPa) = 45.79071 51.11293 48.45182
# Shear Modulus (GPa) = 25.89523 31.32290 28.60906
#
# Velocity S-wave (km/s) = 3.17674 3.49384 3.33906
# Velocity P-wave (km/s) = 5.59471 6.01625 5.80930
#
# Compressibility (1/GPa) = 0.02183849
#
# Stress axis : x y z
#
# Youngs Moduli (GPa) = 124.58223 41.56832 51.12000
#
# Poissons Ratio (x) = -0.04923 0.20920
# Poissons Ratio (y) = -0.14753 0.61321
# Poissons Ratio (z) = 0.50983 0.49863
#
# Static dielectric constant tensor:
#      x y z
#    x 2.115380 0.000000 0.000000 
#    y 0.000000 2.025220 0.000000 
#    z 0.000000 0.000000 1.975570 
# 
# From -- ./inp_files/2734.got.cif
#   From: 2010.05.17/outbox.cif.g08.bks.cpg/sg45_2_cif.got.tgz:2734.got - 2010.06.03 19:51:22.
