data_PCOD9376457
_publ_section_title
;
Structure prediction by ZEFSAII (Michael W. Deem and Ramdas Pophale) SiO2 
 PCOD9376457
Probable space group: I B A 2
;
_chemical_formula_sum "Si O2"
_cell_formula_units_Z 44
_cell_length_a 14.512559
_cell_length_b 15.828173
_cell_length_c 9.125220
_cell_angle_alpha 90.000000
_cell_angle_beta 90.000000
_cell_angle_gamma 90.000000
_cell_volume 2096.129598
_symmetry_space_group_name_H-M "I B A 2"
_symmetry_group_IT_number 45
_symmetry_cell_setting 'orthorhombic'
loop_
_space_group_symop_operation_xyz
x,y,z
-x,-y,z
-x,y,1/2+z
x,-y,1/2+z
1/2+x,1/2+y,1/2+z
1/2-x,1/2-y,1/2+z
1/2-x,1/2+y,z
1/2+x,1/2-y,z
loop_
_atom_site_type_symbol
_atom_site_label
_atom_site_fract_x
_atom_site_fract_y
_atom_site_fract_z
Si Si1 0.000000 0.000000 0.975150
Si Si2 0.627378 0.271177 0.167077
Si Si3 0.442796 0.379036 0.220173
Si Si4 0.076998 0.579193 0.671529
Si Si5 0.696682 0.752448 0.349828
Si Si6 0.386340 0.939099 0.844285
O O1 0.947136 0.936472 0.866111
O O2 0.063946 0.942686 0.081808
O O3 0.543092 0.334151 0.199082
O O4 0.589362 0.177585 0.149032
O O5 0.698547 0.259869 0.299313
O O6 0.680073 0.285321 0.012613
O O7 0.365121 0.307284 0.242875
O O8 0.088688 0.541649 0.510659
O O9 0.148981 0.526435 0.771932
O O10 0.978030 0.576290 0.749202
O O11 0.666006 0.850709 0.341050
#
# Coordination Sequence:
#
# PCOD9376457 Si02
#       6
#     4   8   8   8   8   8
#     4  10  24  42  76  94 126 184 224 282 340 402
#     4  11  25  42  66  97 132 176 219 272 336 394
#     4  11  22  48  67  98 134 174 231 280 340 403
#     4  10  20  37  60  90 121 161 204 252 313 374
#     4  11  25  42  66  97 132 176 219 272 336 394
#     4  10  20  37  60  90 121 161 204 252 313 374
#
# _framework density 20.991067999999999
#
# number of rings (size 3 to 8) (size 9 to 14) (size 15 to 20)
#    0.000    1.455    3.636    2.182    2.545    2.909 
#    6.545    0.000    0.000    0.000    0.000    0.000 
#    0.000    0.000    0.000    0.000    0.000    0.000 
#
# Total GULP energy -122556.154005 kJ/mol
# GULP energy per Si atom -5570.734273 kJ/mol
# Density = 2.094329 g / cm^3
# Si number density = 20.991068 Si / 1000 Ang^3
#
#
#
# Elastic Constant Matrix: (Units=GPa)
#
#
# Indices 1 2 3 4 5 6 
#
# 1 29.6260 -1.9106 3.5309 0.0000 0.0000 0.0000
# 2 -1.9106 30.1833 24.0098 0.0000 0.0000 0.0000
# 3 3.5309 24.0098 117.0189 0.0000 0.0000 0.0000
# 4 0.0000 0.0000 0.0000 32.9830 0.0000 0.0000
# 5 0.0000 0.0000 0.0000 0.0000 13.5859 0.0000
# 6 0.0000 0.0000 0.0000 0.0000 0.0000 -5.5998
#
#
#
# Elastic Compliance Matrix: (Units=1/GPa)
#
#
# Indices 1 2 3 4 5 6 
#
# 1 0.034194 0.003568 -0.001764 0.000000 0.000000 0.000000
# 2 0.003568 0.039965 -0.008308 0.000000 0.000000 0.000000
# 3 -0.001764 -0.008308 0.010303 0.000000 0.000000 0.000000
# 4 0.000000 0.000000 0.000000 0.030319 0.000000 0.000000
# 5 0.000000 0.000000 0.000000 0.000000 0.073606 0.000000
# 6 0.000000 0.000000 0.000000 0.000000 0.000000 -0.178576
#
#
# Mechanical properties :
#
#
# Convention : Reuss Voigt Hill
#
# Bulk Modulus (GPa) = 13.99477 25.34316 19.66897
# Shear Modulus (GPa) = 107.20967 18.27367 62.74167
#
# Velocity S-wave (km/s) = 7.15436 2.95370 5.47308
# Velocity P-wave (km/s) = 8.65609 4.87155 7.02353
#
# Compressibility (1/GPa) = 0.07145526
#
# Stress axis : x y z
#
# Youngs Moduli (GPa) = 29.24450 25.02179 97.05530
#
# Poissons Ratio (x) = -0.08927 0.17118
# Poissons Ratio (y) = -0.10433 0.80630
# Poissons Ratio (z) = 0.05158 0.20787
#
# Static dielectric constant tensor:
#      x y z
#    x 1.719420 0.000000 0.000000 
#    y 0.000000 2.019960 0.000000 
#    z 0.000000 0.000000 1.781600 
# 
# From -- ./inp_files/1676.got.cif
#   From: 2010.05.17/outbox.cif.g08.bks.cpg/sg45_1_cif.got.tgz:1676.got - 2010.06.03 19:51:22.
