data_PCOD9376935
_publ_section_title
;
Structure prediction by ZEFSAII (Michael W. Deem and Ramdas Pophale) SiO2 
 PCOD9376935
Probable space group: I B A 2
;
_chemical_formula_sum "Si O2"
_cell_formula_units_Z 64
_cell_length_a 13.732260
_cell_length_b 9.158860
_cell_length_c 22.923825
_cell_angle_alpha 90.000000
_cell_angle_beta 90.000000
_cell_angle_gamma 90.000000
_cell_volume 2883.171807
_symmetry_space_group_name_H-M "I B A 2"
_symmetry_group_IT_number 45
_symmetry_cell_setting 'orthorhombic'
loop_
_space_group_symop_operation_xyz
x,y,z
-x,-y,z
-x,y,1/2+z
x,-y,1/2+z
1/2+x,1/2+y,1/2+z
1/2-x,1/2-y,1/2+z
1/2-x,1/2+y,z
1/2+x,1/2-y,z
loop_
_atom_site_type_symbol
_atom_site_label
_atom_site_fract_x
_atom_site_fract_y
_atom_site_fract_z
Si Si1 0.363098 0.649535 0.607180
Si Si2 0.216506 0.563831 0.065872
Si Si3 0.348394 0.793453 0.993558
Si Si4 0.952219 0.853999 0.482329
Si Si5 0.875702 0.639796 0.869823
Si Si6 0.739413 0.275446 0.271750
Si Si7 0.595544 0.191397 0.374787
Si Si8 0.891240 0.026256 0.226123
O O1 0.266148 0.550689 0.609747
O O2 0.348789 0.822721 0.602204
O O3 0.402679 0.608111 0.543268
O O4 0.419112 0.596102 0.663403
O O5 0.288755 0.675393 0.031594
O O6 0.170267 0.454513 0.018769
O O7 0.462724 0.758947 0.997507
O O8 0.327814 0.777759 0.924563
O O9 0.886161 0.788907 0.431849
O O10 0.000000 0.000000 0.458220
O O11 0.812777 0.630649 0.811835
O O12 0.891745 0.476280 0.891700
O O13 0.981318 0.710213 0.858922
O O14 0.661819 0.220905 0.319502
O O15 0.812255 0.147452 0.249499
O O16 0.673555 0.376397 0.228758
O O17 0.000000 0.000000 0.254580
#
# Coordination Sequence:
#
# PCOD9376935 Si02
#       8
#     8   8   8   8   8   8   8   8
#     4  11  23  44  68  96 141 182 234 299 354 425
#     4  10  22  38  66  99 138 181 231 282 359 440
#     4  10  22  37  63 102 141 178 222 278 358 446
#     4  11  22  40  66 101 144 180 223 289 365 436
#     4  10  22  40  67 100 141 187 228 291 364 435
#     4  12  25  47  74 102 142 191 247 311 363 424
#     4  10  23  42  66 103 144 181 233 293 368 444
#     4  12  28  49  77 106 142 197 261 308 364 431
#
# _framework density 22.197776000000001
#
# number of rings (size 3 to 8) (size 9 to 14) (size 15 to 20)
#    0.000    1.250    2.500    2.625    5.250    4.000 
#    0.000    0.000    2.750    0.000    0.000    0.000 
#    0.000    0.000    0.000    0.000    0.000    0.000 
#
# Total GULP energy -178422.294026 kJ/mol
# GULP energy per Si atom -5575.696688 kJ/mol
# Density = 2.214725 g / cm^3
# Si number density = 22.197776 Si / 1000 Ang^3
#
#
#
# Elastic Constant Matrix: (Units=GPa)
#
#
# Indices 1 2 3 4 5 6 
#
# 1 114.3223 43.2791 24.5075 0.0000 0.0000 0.0000
# 2 43.2791 121.7663 35.2188 0.0000 0.0000 0.0000
# 3 24.5075 35.2188 74.9387 0.0000 0.0000 0.0000
# 4 0.0000 0.0000 0.0000 21.4275 0.0000 0.0000
# 5 0.0000 0.0000 0.0000 0.0000 25.3419 0.0000
# 6 0.0000 0.0000 0.0000 0.0000 0.0000 37.6870
#
#
#
# Elastic Compliance Matrix: (Units=1/GPa)
#
#
# Indices 1 2 3 4 5 6 
#
# 1 0.010339 -0.003121 -0.001914 0.000000 0.000000 0.000000
# 2 -0.003121 0.010447 -0.003889 0.000000 0.000000 0.000000
# 3 -0.001914 -0.003889 0.015798 0.000000 0.000000 0.000000
# 4 0.000000 0.000000 0.000000 0.046669 0.000000 0.000000
# 5 0.000000 0.000000 0.000000 0.000000 0.039460 0.000000
# 6 0.000000 0.000000 0.000000 0.000000 0.000000 0.026534
#
#
# Mechanical properties :
#
#
# Convention : Reuss Voigt Hill
#
# Bulk Modulus (GPa) = 53.37629 57.44866 55.41248
# Shear Modulus (GPa) = 28.84487 30.75941 29.80214
#
# Velocity S-wave (km/s) = 3.60870 3.72653 3.66809
# Velocity P-wave (km/s) = 6.43907 6.66728 6.55417
#
# Compressibility (1/GPa) = 0.01873491
#
# Stress axis : x y z
#
# Youngs Moduli (GPa) = 96.71964 95.72530 63.29935
#
# Poissons Ratio (x) = 0.29877 0.12118
# Poissons Ratio (y) = 0.30187 0.24616
# Poissons Ratio (z) = 0.18516 0.37226
#
# Static dielectric constant tensor:
#      x y z
#    x 1.906410 0.000000 0.000000 
#    y 0.000000 1.823950 0.000000 
#    z 0.000000 0.000000 1.860260 
# 
# From -- ./inp_files/9793.got.cif
#   From: 2010.05.17/outbox.cif.g08.bks.cpg/sg45_5_cif.got.tgz:9793.got - 2010.06.03 19:51:22.
