data_PCOD9376604
_publ_section_title
;
Structure prediction by ZEFSAII (Michael W. Deem and Ramdas Pophale) SiO2 
 PCOD9376604
Probable space group: I B A 2
;
_chemical_formula_sum "Si O2"
_cell_formula_units_Z 44
_cell_length_a 12.922865
_cell_length_b 10.806601
_cell_length_c 14.815121
_cell_angle_alpha 90.000000
_cell_angle_beta 90.000000
_cell_angle_gamma 90.000000
_cell_volume 2068.964920
_symmetry_space_group_name_H-M "I B A 2"
_symmetry_group_IT_number 45
_symmetry_cell_setting 'orthorhombic'
loop_
_space_group_symop_operation_xyz
x,y,z
-x,-y,z
-x,y,1/2+z
x,-y,1/2+z
1/2+x,1/2+y,1/2+z
1/2-x,1/2-y,1/2+z
1/2-x,1/2+y,z
1/2+x,1/2-y,z
loop_
_atom_site_type_symbol
_atom_site_label
_atom_site_fract_x
_atom_site_fract_y
_atom_site_fract_z
Si Si1 0.292057 0.214710 0.883700
Si Si2 0.853992 0.373758 0.630357
Si Si3 0.000000 0.500000 0.780445
Si Si4 0.151682 0.104765 0.725387
Si Si5 0.076187 0.170326 0.238761
Si Si6 0.153495 0.557648 0.436985
O O1 0.214053 0.171529 0.804647
O O2 0.395170 0.259313 0.831330
O O3 0.241811 0.336400 0.927933
O O4 0.311216 0.086967 0.937450
O O5 0.733354 0.406306 0.644041
O O6 0.863393 0.229548 0.654504
O O7 0.895347 0.411577 0.533595
O O8 0.921582 0.434082 0.710578
O O9 0.077349 0.431725 0.850885
O O10 0.043826 0.174428 0.711936
O O11 0.117088 0.967670 0.752636
#
# Coordination Sequence:
#
# PCOD9376604 Si02
#       6
#     8   8   4   8   8   8
#     4  11  22  44  66 103 138 186 224 287 346 419
#     4  11  25  43  71 103 136 184 237 291 344 418
#     4  12  22  50  68  98 138 190 232 290 344 422
#     4  10  21  42  72  95 143 182 229 283 346 422
#     4  10  20  42  69 102 134 189 229 281 355 409
#     4  12  26  44  72 105 141 183 238 287 356 413
#
# _framework density 21.266673000000001
#
# number of rings (size 3 to 8) (size 9 to 14) (size 15 to 20)
#    0.000    1.091    5.455    1.636    2.545    1.455 
#    3.273    0.000    0.000    0.000    0.000    0.000 
#    0.000    0.000    0.000    0.000    0.000    0.000 
#
# Total GULP energy -122649.754469 kJ/mol
# GULP energy per Si atom -5574.988839 kJ/mol
# Density = 2.121827 g / cm^3
# Si number density = 21.266673 Si / 1000 Ang^3
#
#
#
# Elastic Constant Matrix: (Units=GPa)
#
#
# Indices 1 2 3 4 5 6 
#
# 1 95.8040 33.6674 14.3811 0.0000 0.0000 0.0000
# 2 33.6674 110.3780 36.0517 0.0000 0.0000 0.0000
# 3 14.3811 36.0517 118.6666 0.0000 0.0000 0.0000
# 4 0.0000 0.0000 0.0000 16.2239 0.0000 0.0000
# 5 0.0000 0.0000 0.0000 0.0000 10.8543 0.0000
# 6 0.0000 0.0000 0.0000 0.0000 0.0000 40.0097
#
#
#
# Elastic Compliance Matrix: (Units=1/GPa)
#
#
# Indices 1 2 3 4 5 6 
#
# 1 0.011706 -0.003449 -0.000371 0.000000 0.000000 0.000000
# 2 -0.003449 0.011074 -0.002946 0.000000 0.000000 0.000000
# 3 -0.000371 -0.002946 0.009367 0.000000 0.000000 0.000000
# 4 0.000000 0.000000 0.000000 0.061637 0.000000 0.000000
# 5 0.000000 0.000000 0.000000 0.000000 0.092129 0.000000
# 6 0.000000 0.000000 0.000000 0.000000 0.000000 0.024994
#
#
# Mechanical properties :
#
#
# Convention : Reuss Voigt Hill
#
# Bulk Modulus (GPa) = 53.72264 54.78323 54.25293
# Shear Modulus (GPa) = 21.67830 29.46747 25.57289
#
# Velocity S-wave (km/s) = 3.19620 3.72643 3.47145
# Velocity P-wave (km/s) = 6.23997 6.65816 6.45245
#
# Compressibility (1/GPa) = 0.01861413
#
# Stress axis : x y z
#
# Youngs Moduli (GPa) = 85.42762 90.29935 106.75747
#
# Poissons Ratio (x) = 0.31148 0.03957
# Poissons Ratio (y) = 0.29468 0.31455
# Poissons Ratio (z) = 0.03166 0.26606
#
# Static dielectric constant tensor:
#      x y z
#    x 1.815080 0.000000 0.000000 
#    y 0.000000 1.863900 0.000000 
#    z 0.000000 0.000000 1.748560 
# 
# From -- ./inp_files/6447.got.cif
#   From: 2010.05.17/outbox.cif.g08.bks.cpg/sg45_4_cif.got.tgz:6447.got - 2010.06.03 19:51:22.
