data_PCOD9376920
_publ_section_title
;
Structure prediction by ZEFSAII (Michael W. Deem and Ramdas Pophale) SiO2 
 PCOD9376920
Probable space group: I B A 2
;
_chemical_formula_sum "Si O2"
_cell_formula_units_Z 40
_cell_length_a 18.598191
_cell_length_b 5.154237
_cell_length_c 18.213667
_cell_angle_alpha 90.000000
_cell_angle_beta 90.000000
_cell_angle_gamma 90.000000
_cell_volume 1745.952724
_symmetry_space_group_name_H-M "I B A 2"
_symmetry_group_IT_number 45
_symmetry_cell_setting 'orthorhombic'
loop_
_space_group_symop_operation_xyz
x,y,z
-x,-y,z
-x,y,1/2+z
x,-y,1/2+z
1/2+x,1/2+y,1/2+z
1/2-x,1/2-y,1/2+z
1/2-x,1/2+y,z
1/2+x,1/2-y,z
loop_
_atom_site_type_symbol
_atom_site_label
_atom_site_fract_x
_atom_site_fract_y
_atom_site_fract_z
Si Si1 0.561206 0.305733 0.930370
Si Si2 0.707659 0.422915 0.405049
Si Si3 0.939137 0.181653 0.178873
Si Si4 0.292656 0.574900 0.227760
Si Si5 0.000000 0.500000 0.313766
Si Si6 0.000000 0.500000 0.063911
O O1 0.500000 0.500000 0.899189
O O2 0.633889 0.465133 0.935920
O O3 0.563398 0.059488 0.873916
O O4 0.533437 0.206137 0.007802
O O5 0.731267 0.134031 0.425693
O O6 0.699983 0.431392 0.316316
O O7 0.866516 0.030309 0.194742
O O8 0.975075 0.286041 0.254098
O O9 0.936604 0.407103 0.118607
O O10 0.000000 0.000000 0.145895
O O11 0.268987 0.865209 0.207911
#
# Coordination Sequence:
#
# PCOD9376920 Si02
#       6
#     8   8   8   8   4   4
#     4  11  23  41  67  95 133 175 224 278 327 395
#     4  10  23  39  64 100 137 169 212 276 343 401
#     4  11  23  41  67  95 133 175 224 278 327 395
#     4  10  23  39  64 100 137 169 212 276 343 401
#     4  10  22  34  68 100 120 166 228 268 334 384
#     4  10  26  42  64  92 132 174 236 270 326 386
#
# _framework density 22.910126000000002
#
# number of rings (size 3 to 8) (size 9 to 14) (size 15 to 20)
#    0.000    1.600    2.000    1.200   11.200    0.000 
#    0.000    2.000    0.000    0.000    0.000    0.000 
#    0.000    0.000    0.000    0.000    0.000    0.000 
#
# Total GULP energy -111571.887667 kJ/mol
# GULP energy per Si atom -5578.594383 kJ/mol
# Density = 2.285798 g / cm^3
# Si number density = 22.910126 Si / 1000 Ang^3
#
#
#
# Elastic Constant Matrix: (Units=GPa)
#
#
# Indices 1 2 3 4 5 6 
#
# 1 69.6658 -8.1168 1.9887 0.0000 0.0000 0.0000
# 2 -8.1168 39.1012 22.0741 0.0000 0.0000 0.0000
# 3 1.9887 22.0741 100.3250 0.0000 0.0000 0.0000
# 4 0.0000 0.0000 0.0000 10.0968 0.0000 0.0000
# 5 0.0000 0.0000 0.0000 0.0000 6.8748 0.0000
# 6 0.0000 0.0000 0.0000 0.0000 0.0000 35.2553
#
#
#
# Elastic Compliance Matrix: (Units=1/GPa)
#
#
# Indices 1 2 3 4 5 6 
#
# 1 0.014817 0.003701 -0.001108 0.000000 0.000000 0.000000
# 2 0.003701 0.030127 -0.006702 0.000000 0.000000 0.000000
# 3 -0.001108 -0.006702 0.011464 0.000000 0.000000 0.000000
# 4 0.000000 0.000000 0.000000 0.099041 0.000000 0.000000
# 5 0.000000 0.000000 0.000000 0.000000 0.145458 0.000000
# 6 0.000000 0.000000 0.000000 0.000000 0.000000 0.028365
#
#
# Mechanical properties :
#
#
# Convention : Reuss Voigt Hill
#
# Bulk Modulus (GPa) = 20.75101 26.77599 23.76350
# Shear Modulus (GPa) = 14.14216 23.32178 18.73197
#
# Velocity S-wave (km/s) = 2.48722 3.19402 2.86252
# Velocity P-wave (km/s) = 4.16241 5.03142 4.61740
#
# Compressibility (1/GPa) = 0.04819043
#
# Stress axis : x y z
#
# Youngs Moduli (GPa) = 67.48945 33.19332 87.22816
#
# Poissons Ratio (x) = -0.12286 0.09666
# Poissons Ratio (y) = -0.24981 0.58460
# Poissons Ratio (z) = 0.07479 0.22246
#
# Static dielectric constant tensor:
#      x y z
#    x 1.844390 0.000000 0.000000 
#    y 0.000000 2.317090 0.000000 
#    z 0.000000 0.000000 1.809980 
# 
# From -- ./inp_files/7256.got.cif
#   From: 2010.05.17/outbox.cif.g08.bks.cpg/sg45_4_cif.got.tgz:7256.got - 2010.06.03 19:51:22.
