data_PCOD9376336
_publ_section_title
;
Structure prediction by ZEFSAII (Michael W. Deem and Ramdas Pophale) SiO2 
 PCOD9376336
Probable space group: I B A 2
;
_chemical_formula_sum "Si O2"
_cell_formula_units_Z 48
_cell_length_a 15.241553
_cell_length_b 8.442506
_cell_length_c 14.916914
_cell_angle_alpha 90.000000
_cell_angle_beta 90.000000
_cell_angle_gamma 90.000000
_cell_volume 1919.462291
_symmetry_space_group_name_H-M "I B A 2"
_symmetry_group_IT_number 45
_symmetry_cell_setting 'orthorhombic'
loop_
_space_group_symop_operation_xyz
x,y,z
-x,-y,z
-x,y,1/2+z
x,-y,1/2+z
1/2+x,1/2+y,1/2+z
1/2-x,1/2-y,1/2+z
1/2-x,1/2+y,z
1/2+x,1/2-y,z
loop_
_atom_site_type_symbol
_atom_site_label
_atom_site_fract_x
_atom_site_fract_y
_atom_site_fract_z
Si Si1 0.094967 0.935743 0.984750
Si Si2 0.259336 0.018694 0.378251
Si Si3 0.413315 0.087987 0.977423
Si Si4 0.532284 0.166576 0.275101
Si Si5 0.661311 0.724709 0.281574
Si Si6 0.102307 0.055760 0.163677
O O1 0.163944 0.918918 0.906106
O O2 0.091205 0.757928 0.025451
O O3 0.000000 0.000000 0.955494
O O4 0.128039 0.059234 0.059619
O O5 0.303377 0.095671 0.289249
O O6 0.325765 0.015963 0.463297
O O7 0.227161 0.841539 0.356550
O O8 0.430074 0.126063 0.872182
O O9 0.500000 0.000000 0.010611
O O10 0.442027 0.258363 0.298803
O O11 0.595434 0.278105 0.216054
O O12 0.500000 0.000000 0.231977
O O13 0.658833 0.585729 0.207906
O O14 0.000000 0.000000 0.160595
#
# Coordination Sequence:
#
# PCOD9376336 Si02
#       6
#     8   8   8   8   8   8
#     4  11  24  44  67  96 144 188 225 287 368 440
#     4  12  23  41  68 100 134 179 240 297 346 420
#     4  11  22  40  70 102 131 176 238 293 348 419
#     4  10  19  40  75 106 135 175 239 302 355 421
#     4  11  22  40  66  99 135 179 239 294 345 425
#     4   9  22  43  67  99 138 182 229 280 367 426
#
# _framework density 25.007003999999998
#
# number of rings (size 3 to 8) (size 9 to 14) (size 15 to 20)
#    0.000    1.333    5.000    2.000    0.000    1.333 
#    3.000    7.500    3.667    0.000    0.000    0.000 
#    0.000    0.000    0.000    0.000    0.000    0.000 
#
# Total GULP energy -133695.579974 kJ/mol
# GULP energy per Si atom -5570.649166 kJ/mol
# Density = 2.495009 g / cm^3
# Si number density = 25.007004 Si / 1000 Ang^3
#
#
#
# Elastic Constant Matrix: (Units=GPa)
#
#
# Indices 1 2 3 4 5 6 
#
# 1 113.4840 20.7800 18.5480 0.0000 0.0000 0.0000
# 2 20.7800 90.4056 31.0556 0.0000 0.0000 0.0000
# 3 18.5480 31.0556 66.5309 0.0000 0.0000 0.0000
# 4 0.0000 0.0000 0.0000 22.5529 0.0000 0.0000
# 5 0.0000 0.0000 0.0000 0.0000 15.4673 0.0000
# 6 0.0000 0.0000 0.0000 0.0000 0.0000 52.1673
#
#
#
# Elastic Compliance Matrix: (Units=1/GPa)
#
#
# Indices 1 2 3 4 5 6 
#
# 1 0.009401 -0.001501 -0.001920 0.000000 0.000000 0.000000
# 2 -0.001501 0.013413 -0.005843 0.000000 0.000000 0.000000
# 3 -0.001920 -0.005843 0.018293 0.000000 0.000000 0.000000
# 4 0.000000 0.000000 0.000000 0.044340 0.000000 0.000000
# 5 0.000000 0.000000 0.000000 0.000000 0.064653 0.000000
# 6 0.000000 0.000000 0.000000 0.000000 0.000000 0.019169
#
#
# Mechanical properties :
#
#
# Convention : Reuss Voigt Hill
#
# Bulk Modulus (GPa) = 44.28831 45.68752 44.98791
# Shear Modulus (GPa) = 25.59862 31.37328 28.48595
#
# Velocity S-wave (km/s) = 3.20294 3.54585 3.37874
# Velocity P-wave (km/s) = 5.60600 5.92230 5.76632
#
# Compressibility (1/GPa) = 0.02257932
#
# Stress axis : x y z
#
# Youngs Moduli (GPa) = 106.37721 74.55268 54.66532
#
# Poissons Ratio (x) = 0.11192 0.10496
# Poissons Ratio (y) = 0.15969 0.31939
# Poissons Ratio (z) = 0.20425 0.43558
#
# Static dielectric constant tensor:
#      x y z
#    x 1.986400 0.000000 0.000000 
#    y 0.000000 2.246630 0.000000 
#    z 0.000000 0.000000 2.000540 
# 
# From -- ./inp_files/8143.got.cif
#   From: 2010.05.17/outbox.cif.g08.bks.cpg/sg45_5_cif.got.tgz:8143.got - 2010.06.03 19:51:22.
