data_PCOD9376879
_publ_section_title
;
Structure prediction by ZEFSAII (Michael W. Deem and Ramdas Pophale) SiO2 
 PCOD9376879
Probable space group: I B A 2
;
_chemical_formula_sum "Si O2"
_cell_formula_units_Z 44
_cell_length_a 11.040049
_cell_length_b 18.566563
_cell_length_c 7.904030
_cell_angle_alpha 90.000000
_cell_angle_beta 90.000000
_cell_angle_gamma 90.000000
_cell_volume 1620.134598
_symmetry_space_group_name_H-M "I B A 2"
_symmetry_group_IT_number 45
_symmetry_cell_setting 'orthorhombic'
loop_
_space_group_symop_operation_xyz
x,y,z
-x,-y,z
-x,y,1/2+z
x,-y,1/2+z
1/2+x,1/2+y,1/2+z
1/2-x,1/2-y,1/2+z
1/2-x,1/2+y,z
1/2+x,1/2-y,z
loop_
_atom_site_type_symbol
_atom_site_label
_atom_site_fract_x
_atom_site_fract_y
_atom_site_fract_z
Si Si1 0.658256 0.924675 0.354420
Si Si2 0.932626 0.120672 0.078452
Si Si3 0.317383 0.820512 0.569173
Si Si4 0.500000 0.000000 0.097647
Si Si5 0.833093 0.051627 0.408483
Si Si6 0.394979 0.278467 0.782125
O O1 0.641198 0.849880 0.252865
O O2 0.778196 0.028631 0.909017
O O3 0.610073 0.980262 0.214701
O O4 0.553597 0.932796 0.494574
O O5 0.861488 0.076541 0.218692
O O6 0.868207 0.156693 0.916577
O O7 0.044803 0.072453 0.011858
O O8 0.988137 0.189961 0.184393
O O9 0.259943 0.891796 0.486650
O O10 0.392963 0.786290 0.415979
O O11 0.205720 0.769725 0.634925
#
# Coordination Sequence:
#
# PCOD9376879 Si02
#       6
#     8   8   8   4   8   8
#     4  11  23  44  67  99 138 181 232 293 361 407
#     4   9  21  42  70  99 138 180 238 290 343 453
#     4  11  23  41  70  96 141 189 225 299 348 416
#     4  10  24  44  66  98 134 174 242 284 334 438
#     4  10  21  43  67 100 140 176 231 294 359 419
#     4  10  22  41  62  99 131 180 238 275 352 413
#
# _framework density 27.158238999999998
#
# number of rings (size 3 to 8) (size 9 to 14) (size 15 to 20)
#    0.000    1.818    1.818    1.091    2.545    1.455 
#    0.000   15.455    0.000    0.000    0.000    0.000 
#    0.000    0.000    0.000    0.000    0.000    0.000 
#
# Total GULP energy -122746.713740 kJ/mol
# GULP energy per Si atom -5579.396079 kJ/mol
# Density = 2.709643 g / cm^3
# Si number density = 27.158239 Si / 1000 Ang^3
#
#
#
# Elastic Constant Matrix: (Units=GPa)
#
#
# Indices 1 2 3 4 5 6 
#
# 1 62.2584 18.6503 35.9437 0.0001 -0.0001 0.0000
# 2 18.6503 90.7002 12.2787 0.0001 -0.0001 0.0000
# 3 35.9437 12.2787 144.9723 0.0002 0.0001 -0.0001
# 4 0.0001 0.0001 0.0002 28.0790 0.0000 0.0000
# 5 -0.0001 -0.0001 0.0001 0.0000 16.3299 0.0000
# 6 0.0000 0.0000 -0.0001 0.0000 0.0000 -1.1093
#
#
#
# Elastic Compliance Matrix: (Units=1/GPa)
#
#
# Indices 1 2 3 4 5 6 
#
# 1 0.019751 -0.003438 -0.004606 0.000000 0.000000 0.000000
# 2 -0.003438 0.011752 -0.000143 0.000000 0.000000 0.000000
# 3 -0.004606 -0.000143 0.008052 0.000000 0.000000 -0.000001
# 4 0.000000 0.000000 0.000000 0.035614 0.000000 -0.000001
# 5 0.000000 0.000000 0.000000 0.000000 0.061237 0.000001
# 6 0.000000 0.000000 -0.000001 -0.000001 0.000001 -0.901483
#
#
# Mechanical properties :
#
#
# Convention : Reuss Voigt Hill
#
# Bulk Modulus (GPa) = 43.13811 47.96406 45.55109
# Shear Modulus (GPa) = -6.74785 24.06380 8.65798
#
# Velocity S-wave (km/s) = -1.57798 2.97990 1.78743
# Velocity P-wave (km/s) = 3.54943 5.43499 4.59007
#
# Compressibility (1/GPa) = 0.02318136
#
# Stress axis : x y z
#
# Youngs Moduli (GPa) = 50.63039 85.09492 124.19398
#
# Poissons Ratio (x) = 0.29254 0.57201
# Poissons Ratio (y) = 0.17406 0.01776
# Poissons Ratio (z) = 0.23319 0.01217
#
# Static dielectric constant tensor:
#      x y z
#    x 2.312550 0.000000 0.000000 
#    y 0.000000 2.203290 0.000000 
#    z 0.000000 0.000000 2.060630 
# 
# From -- ./inp_files/1345.got.cif
#   From: 2010.05.17/outbox.cif.g08.bks.cpg/sg45_1_cif.got.tgz:1345.got - 2010.06.03 19:51:22.
