data_PCOD9376386
_publ_section_title
;
Structure prediction by ZEFSAII (Michael W. Deem and Ramdas Pophale) SiO2 
 PCOD9376386
Probable space group: I B A 2
;
_chemical_formula_sum "Si O2"
_cell_formula_units_Z 64
_cell_length_a 20.430241
_cell_length_b 18.571830
_cell_length_c 8.340069
_cell_angle_alpha 90.000000
_cell_angle_beta 90.000000
_cell_angle_gamma 90.000000
_cell_volume 3164.447049
_symmetry_space_group_name_H-M "I B A 2"
_symmetry_group_IT_number 45
_symmetry_cell_setting 'orthorhombic'
loop_
_space_group_symop_operation_xyz
x,y,z
-x,-y,z
-x,y,1/2+z
x,-y,1/2+z
1/2+x,1/2+y,1/2+z
1/2-x,1/2-y,1/2+z
1/2-x,1/2+y,z
1/2+x,1/2-y,z
loop_
_atom_site_type_symbol
_atom_site_label
_atom_site_fract_x
_atom_site_fract_y
_atom_site_fract_z
Si Si1 0.562635 0.331615 0.822870
Si Si2 0.657746 0.693362 0.043946
Si Si3 0.738499 0.036033 0.503453
Si Si4 0.213628 0.392250 0.161628
Si Si5 0.162513 0.735395 0.500509
Si Si6 0.605481 0.530147 0.504495
Si Si7 0.423378 0.391208 0.834217
Si Si8 0.775274 0.679066 0.665147
O O1 0.593147 0.314781 0.651077
O O2 0.596610 0.273634 0.940930
O O3 0.485197 0.338996 0.826119
O O4 0.587929 0.410638 0.872194
O O5 0.717806 0.650603 0.128153
O O6 0.676154 0.776798 0.046262
O O7 0.640526 0.654652 0.879582
O O8 0.717981 0.074395 0.338374
O O9 0.816333 0.020850 0.501405
O O10 0.722782 0.094026 0.642439
O O11 0.706997 0.959611 0.542489
O O12 0.159351 0.332801 0.118326
O O13 0.202969 0.707401 0.341286
O O14 0.206418 0.794182 0.592024
O O15 0.584722 0.565331 0.670857
O O16 0.571492 0.454365 0.467015
#
# Coordination Sequence:
#
# PCOD9376386 Si02
#       8
#     8   8   8   8   8   8   8   8
#     4  11  22  40  53  76 112 154 202 248 284 340
#     4  10  21  38  54  81 107 153 198 244 286 343
#     4  12  21  37  56  87 117 154 188 244 297 359
#     4  11  22  35  58  79 117 145 194 239 300 352
#     4  10  21  37  57  80 106 151 199 250 300 349
#     4  12  23  36  53  81 115 160 204 237 282 342
#     4  12  25  37  56  78 119 164 206 240 284 337
#     4  10  20  34  58  78 112 143 194 246 301 350
#
# _framework density 20.224702000000001
#
# number of rings (size 3 to 8) (size 9 to 14) (size 15 to 20)
#    0.000    1.000    3.750    4.875    3.500    2.000 
#    0.000    0.000    0.000    0.000    0.000    0.875 
#    0.000    6.000    0.000    0.000    0.000    0.000 
#
# Total GULP energy -178921.618727 kJ/mol
# GULP energy per Si atom -5591.300585 kJ/mol
# Density = 2.017867 g / cm^3
# Si number density = 20.224702 Si / 1000 Ang^3
#
#
#
# Elastic Constant Matrix: (Units=GPa)
#
#
# Indices 1 2 3 4 5 6 
#
# 1 7.7551 12.4579 39.7272 0.0000 0.0000 0.0000
# 2 12.4579 94.2789 16.4321 0.0000 0.0000 0.0000
# 3 39.7272 16.4321 81.2953 0.0000 0.0000 0.0000
# 4 0.0000 0.0000 0.0000 30.5591 0.0000 0.0000
# 5 0.0000 0.0000 0.0000 0.0000 23.7115 0.0000
# 6 0.0000 0.0000 0.0000 0.0000 0.0000 27.3212
#
#
#
# Elastic Compliance Matrix: (Units=1/GPa)
#
#
# Indices 1 2 3 4 5 6 
#
# 1 -0.084216 0.004100 0.040326 0.000000 0.000000 0.000000
# 2 0.004100 0.010795 -0.004185 0.000000 0.000000 0.000000
# 3 0.040326 -0.004185 -0.006559 0.000000 0.000000 0.000000
# 4 0.000000 0.000000 0.000000 0.032724 0.000000 0.000000
# 5 0.000000 0.000000 0.000000 0.000000 0.042174 0.000000
# 6 0.000000 0.000000 0.000000 0.000000 0.000000 0.036602
#
#
# Mechanical properties :
#
#
# Convention : Reuss Voigt Hill
#
# Bulk Modulus (GPa) = 2002.07788 35.61821 1018.84805
# Shear Modulus (GPa) = -102.46797 23.96584 -39.25107
#
# Velocity S-wave (km/s) = -7.12564 3.44609 -4.41017
# Velocity P-wave (km/s) = 30.40340 5.78649 21.88436
#
# Compressibility (1/GPa) = 0.00049948
#
# Stress axis : x y z
#
# Youngs Moduli (GPa) = -11.87425 92.63923 -152.45159
#
# Poissons Ratio (x) = -0.37980 6.14772
# Poissons Ratio (y) = 0.04868 -0.63806
# Poissons Ratio (z) = 0.47884 0.38773
#
# Static dielectric constant tensor:
#      x y z
#    x 1.736220 0.000000 0.000000 
#    y 0.000000 1.713740 0.000000 
#    z 0.000000 0.000000 1.820390 
# 
# From -- ./inp_files/2385.got.cif
#   From: 2010.05.17/outbox.cif.g08.bks.cpg/sg45_2_cif.got.tgz:2385.got - 2010.06.03 19:51:22.
