data_PCOD9376679
_publ_section_title
;
Structure prediction by ZEFSAII (Michael W. Deem and Ramdas Pophale) SiO2 
 PCOD9376679
Probable space group: I B A 2
;
_chemical_formula_sum "Si O2"
_cell_formula_units_Z 56
_cell_length_a 21.431904
_cell_length_b 5.337942
_cell_length_c 21.055450
_cell_angle_alpha 90.000000
_cell_angle_beta 90.000000
_cell_angle_gamma 90.000000
_cell_volume 2408.791076
_symmetry_space_group_name_H-M "I B A 2"
_symmetry_group_IT_number 45
_symmetry_cell_setting 'orthorhombic'
loop_
_space_group_symop_operation_xyz
x,y,z
-x,-y,z
-x,y,1/2+z
x,-y,1/2+z
1/2+x,1/2+y,1/2+z
1/2-x,1/2-y,1/2+z
1/2-x,1/2+y,z
1/2+x,1/2-y,z
loop_
_atom_site_type_symbol
_atom_site_label
_atom_site_fract_x
_atom_site_fract_y
_atom_site_fract_z
Si Si1 0.500000 0.000000 0.272900
Si Si2 0.212750 0.515498 0.636381
Si Si3 0.399911 0.307868 0.830872
Si Si4 0.287096 0.994954 0.289296
Si Si5 0.100561 0.827217 0.590499
Si Si6 0.429645 0.387603 0.212162
Si Si7 0.500000 0.000000 0.540451
Si Si8 0.929679 0.109654 0.969348
O O1 0.530392 0.203062 0.318781
O O2 0.444972 0.101150 0.227888
O O3 0.239317 0.242308 0.619813
O O4 0.204572 0.514530 0.712857
O O5 0.148902 0.606769 0.604616
O O6 0.351004 0.084134 0.822658
O O7 0.392378 0.499278 0.772180
O O8 0.397552 0.408111 0.901617
O O9 0.240217 0.765816 0.305804
O O10 0.031320 0.708868 0.584406
O O11 0.102703 0.024304 0.648261
O O12 0.108119 0.966452 0.523793
O O13 0.500000 0.500000 0.210836
O O14 0.554305 0.113788 0.496244
O O15 0.000000 0.000000 0.963778
#
# Coordination Sequence:
#
# PCOD9376679 Si02
#       8
#     4   8   8   8   8   8   4   8
#     4  10  23  35  62  98 133 167 218 278 347 397
#     4  10  23  43  68  95 132 176 229 281 340 396
#     4  11  22  40  65  94 131 175 223 273 335 405
#     4  10  23  44  66  97 131 176 226 284 338 396
#     4  11  23  41  64  96 130 176 220 276 338 402
#     4  10  21  37  57  97 126 161 212 277 331 394
#     4  10  23  41  64  92 135 175 214 268 343 413
#     4  10  22  40  61  94 135 174 216 262 341 413
#
# _framework density 23.248177999999999
#
# number of rings (size 3 to 8) (size 9 to 14) (size 15 to 20)
#    0.000    1.714    1.429    3.000    4.000    7.429 
#    0.000    1.429    0.000    0.000    0.000    0.000 
#    0.000    0.000    0.000    0.000    0.000    0.000 
#
# Total GULP energy -156642.633544 kJ/mol
# GULP energy per Si atom -5594.379769 kJ/mol
# Density = 2.319526 g / cm^3
# Si number density = 23.248178 Si / 1000 Ang^3
#
#
#
# Elastic Constant Matrix: (Units=GPa)
#
#
# Indices 1 2 3 4 5 6 
#
# 1 63.0589 6.9561 19.9410 0.0000 0.0000 0.0000
# 2 6.9561 66.3384 26.8074 0.0000 0.0000 0.0000
# 3 19.9410 26.8074 147.2830 0.0000 0.0000 0.0000
# 4 0.0000 0.0000 0.0000 18.7257 0.0000 0.0000
# 5 0.0000 0.0000 0.0000 0.0000 16.2363 0.0000
# 6 0.0000 0.0000 0.0000 0.0000 0.0000 40.1228
#
#
#
# Elastic Compliance Matrix: (Units=1/GPa)
#
#
# Indices 1 2 3 4 5 6 
#
# 1 0.016617 -0.000899 -0.002086 0.000000 0.000000 0.000000
# 2 -0.000899 0.016320 -0.002849 0.000000 0.000000 0.000000
# 3 -0.002086 -0.002849 0.007591 0.000000 0.000000 0.000000
# 4 0.000000 0.000000 0.000000 0.053403 0.000000 0.000000
# 5 0.000000 0.000000 0.000000 0.000000 0.061590 0.000000
# 6 0.000000 0.000000 0.000000 0.000000 0.000000 0.024923
#
#
# Mechanical properties :
#
#
# Convention : Reuss Voigt Hill
#
# Bulk Modulus (GPa) = 34.65123 42.67658 38.66391
# Shear Modulus (GPa) = 24.78538 29.88201 27.33370
#
# Velocity S-wave (km/s) = 3.26869 3.58907 3.43262
# Velocity P-wave (km/s) = 5.40214 5.96423 5.69013
#
# Compressibility (1/GPa) = 0.02885901
#
# Stress axis : x y z
#
# Youngs Moduli (GPa) = 60.17898 61.27580 131.74229
#
# Poissons Ratio (x) = 0.05511 0.27483
# Poissons Ratio (y) = 0.05413 0.37528
# Poissons Ratio (z) = 0.12554 0.17455
#
# Static dielectric constant tensor:
#      x y z
#    x 1.901050 0.000000 0.000000 
#    y 0.000000 2.013390 0.000000 
#    z 0.000000 0.000000 1.835980 
# 
# From -- ./inp_files/9340.got.cif
#   From: 2010.05.17/outbox.cif.g08.bks.cpg/sg45_5_cif.got.tgz:9340.got - 2010.06.03 19:51:22.
