data_PCOD9376115
_publ_section_title
;
Structure prediction by ZEFSAII (Michael W. Deem and Ramdas Pophale) SiO2 
 PCOD9376115
Probable space group: I B A 2
;
_chemical_formula_sum "Si O2"
_cell_formula_units_Z 64
_cell_length_a 28.461810
_cell_length_b 20.534185
_cell_length_c 5.173445
_cell_angle_alpha 90.000000
_cell_angle_beta 90.000000
_cell_angle_gamma 90.000000
_cell_volume 3023.568568
_symmetry_space_group_name_H-M "I B A 2"
_symmetry_group_IT_number 45
_symmetry_cell_setting 'orthorhombic'
loop_
_space_group_symop_operation_xyz
x,y,z
-x,-y,z
-x,y,1/2+z
x,-y,1/2+z
1/2+x,1/2+y,1/2+z
1/2-x,1/2-y,1/2+z
1/2-x,1/2+y,z
1/2+x,1/2-y,z
loop_
_atom_site_type_symbol
_atom_site_label
_atom_site_fract_x
_atom_site_fract_y
_atom_site_fract_z
Si Si1 0.527791 0.261083 0.157980
Si Si2 0.122458 0.233475 0.426090
Si Si3 0.474554 0.418584 0.681648
Si Si4 0.214700 0.461035 0.457244
Si Si5 0.619913 0.588126 0.946178
Si Si6 0.689881 0.823411 0.180674
Si Si7 0.792505 0.772672 0.046656
Si Si8 0.680011 0.410416 0.924500
O O1 0.490836 0.240020 0.379132
O O2 0.580352 0.242325 0.243383
O O3 0.528105 0.339897 0.162801
O O4 0.106568 0.162942 0.530407
O O5 0.140839 0.287995 0.620179
O O6 0.170478 0.218460 0.274489
O O7 0.484087 0.436058 0.383988
O O8 0.427521 0.440603 0.827147
O O9 0.203006 0.516856 0.667145
O O10 0.192032 0.395183 0.570393
O O11 0.270630 0.446828 0.451062
O O12 0.654324 0.587718 0.699570
O O13 0.647133 0.562240 0.196606
O O14 0.737642 0.786889 0.081535
O O15 0.698940 0.803277 0.477013
O O16 0.808270 0.833738 0.863780
#
# Coordination Sequence:
#
# PCOD9376115 Si02
#       8
#     8   8   8   8   8   8   8   8
#     4   9  19  31  44  67 106 154 185 209 256 330
#     4  10  20  30  51  78 113 146 183 227 275 328
#     4   9  16  26  41  65 105 144 170 202 258 328
#     4  11  26  42  56  75 109 153 185 222 270 324
#     4  10  18  30  49  78 105 139 180 220 266 318
#     4  11  21  34  57  79 117 144 190 231 276 336
#     4  10  20  31  52  84 109 142 180 231 282 321
#     4  10  20  34  54  74 106 136 184 228 261 318
#
# _framework density 21.167041999999999
#
# number of rings (size 3 to 8) (size 9 to 14) (size 15 to 20)
#    0.000    2.000    2.500    1.500    3.500    3.000 
#    0.000    0.000    0.000    0.000    0.000    0.000 
#    0.000   38.000    0.000    7.500    0.000    5.500 
#
# Total GULP energy -178404.186705 kJ/mol
# GULP energy per Si atom -5575.130835 kJ/mol
# Density = 2.111886 g / cm^3
# Si number density = 21.167042 Si / 1000 Ang^3
#
#
#
# Elastic Constant Matrix: (Units=GPa)
#
#
# Indices 1 2 3 4 5 6 
#
# 1 43.9357 1.2942 -14.9393 0.0000 0.0000 0.0000
# 2 1.2942 47.0152 -5.4586 0.0000 0.0000 0.0000
# 3 -14.9393 -5.4586 66.0436 0.0000 0.0000 0.0000
# 4 0.0000 0.0000 0.0000 33.2711 0.0000 0.0000
# 5 0.0000 0.0000 0.0000 0.0000 5.1327 0.0000
# 6 0.0000 0.0000 0.0000 0.0000 0.0000 9.3498
#
#
#
# Elastic Compliance Matrix: (Units=1/GPa)
#
#
# Indices 1 2 3 4 5 6 
#
# 1 0.024657 -0.000031 0.005575 0.000000 0.000000 0.000000
# 2 -0.000031 0.021476 0.001768 0.000000 0.000000 0.000000
# 3 0.005575 0.001768 0.016549 0.000000 0.000000 0.000000
# 4 0.000000 0.000000 0.000000 0.030056 0.000000 0.000000
# 5 0.000000 0.000000 0.000000 0.000000 0.194831 0.000000
# 6 0.000000 0.000000 0.000000 0.000000 0.000000 0.106954
#
#
# Mechanical properties :
#
#
# Convention : Reuss Voigt Hill
#
# Bulk Modulus (GPa) = 12.93589 13.19857 13.06723
# Shear Modulus (GPa) = 12.32535 21.29060 16.80798
#
# Velocity S-wave (km/s) = 2.41569 3.17493 2.82097
# Velocity P-wave (km/s) = 3.72898 4.43726 4.09845
#
# Compressibility (1/GPa) = 0.07730430
#
# Stress axis : x y z
#
# Youngs Moduli (GPa) = 40.55627 46.56397 60.42773
#
# Poissons Ratio (x) = 0.00147 -0.33688
# Poissons Ratio (y) = 0.00128 -0.10683
# Poissons Ratio (z) = -0.22610 -0.08232
#
# Static dielectric constant tensor:
#      x y z
#    x 1.835600 0.000000 0.000000 
#    y 0.000000 1.889930 0.000000 
#    z 0.000000 0.000000 1.914020 
# 
# From -- ./inp_files/487.got.cif
#   From: 2010.05.17/outbox.cif.g08.bks.cpg/sg45_1_cif.got.tgz:487.got - 2010.06.03 19:51:22.
