data_PCOD9376592
_publ_section_title
;
Structure prediction by ZEFSAII (Michael W. Deem and Ramdas Pophale) SiO2 
 PCOD9376592
Probable space group: I B A 2
;
_chemical_formula_sum "Si O2"
_cell_formula_units_Z 64
_cell_length_a 28.609852
_cell_length_b 8.252159
_cell_length_c 10.504072
_cell_angle_alpha 90.000000
_cell_angle_beta 90.000000
_cell_angle_gamma 90.000000
_cell_volume 2479.938371
_symmetry_space_group_name_H-M "I B A 2"
_symmetry_group_IT_number 45
_symmetry_cell_setting 'orthorhombic'
loop_
_space_group_symop_operation_xyz
x,y,z
-x,-y,z
-x,y,1/2+z
x,-y,1/2+z
1/2+x,1/2+y,1/2+z
1/2-x,1/2-y,1/2+z
1/2-x,1/2+y,z
1/2+x,1/2-y,z
loop_
_atom_site_type_symbol
_atom_site_label
_atom_site_fract_x
_atom_site_fract_y
_atom_site_fract_z
Si Si1 0.692586 0.866279 0.077200
Si Si2 0.473982 0.224655 0.937519
Si Si3 0.179836 0.091653 0.913212
Si Si4 0.851494 0.325033 0.630430
Si Si5 0.595715 0.579512 0.789493
Si Si6 0.095586 0.771338 0.148377
Si Si7 0.758666 0.642809 0.933872
Si Si8 0.573930 0.110732 0.908971
O O1 0.644038 0.766769 0.075651
O O2 0.680179 0.020654 0.169760
O O3 0.734469 0.736142 0.056465
O O4 0.708400 0.990401 0.965118
O O5 0.451128 0.370306 0.859655
O O6 0.529375 0.223381 0.940269
O O7 0.451073 0.060226 0.881694
O O8 0.451047 0.220139 0.076475
O O9 0.210019 0.237019 0.849091
O O10 0.129427 0.031386 0.874797
O O11 0.212262 0.938868 0.880847
O O12 0.174145 0.178662 0.051561
O O13 0.877262 0.240105 0.746220
O O14 0.889953 0.389195 0.526697
O O15 0.589472 0.462308 0.669922
O O16 0.097349 0.675185 0.280866
#
# Coordination Sequence:
#
# PCOD9376592 Si02
#       8
#     8   8   8   8   8   8   8   8
#     4  10  20  41  72  97 139 189 232 300 355 423
#     4  11  27  46  73 106 144 189 246 307 359 444
#     4  10  21  43  64 100 138 185 236 297 362 432
#     4  11  22  43  69  98 142 191 241 297 364 445
#     4  12  25  43  69 107 144 191 237 298 379 437
#     4  12  25  46  74 105 152 193 241 302 374 444
#     4   9  20  40  72  98 140 180 246 300 351 438
#     4  11  26  47  74 104 140 194 250 299 369 439
#
# _framework density 25.807092000000001
#
# number of rings (size 3 to 8) (size 9 to 14) (size 15 to 20)
#    0.000    1.250    2.500    3.000    1.750    1.500 
#    0.000   10.000    0.000    0.000    0.000    0.000 
#    0.000    0.000    0.000    0.000    0.000    0.000 
#
# Total GULP energy -178466.030436 kJ/mol
# GULP energy per Si atom -5577.063451 kJ/mol
# Density = 2.574835 g / cm^3
# Si number density = 25.807092 Si / 1000 Ang^3
#
#
#
# Elastic Constant Matrix: (Units=GPa)
#
#
# Indices 1 2 3 4 5 6 
#
# 1 155.7573 28.3476 30.0045 0.0000 0.0000 0.0000
# 2 28.3476 90.5890 17.0125 0.0000 0.0000 0.0000
# 3 30.0045 17.0125 60.8681 0.0000 0.0000 0.0000
# 4 0.0000 0.0000 0.0000 25.9825 0.0000 0.0000
# 5 0.0000 0.0000 0.0000 0.0000 12.5503 0.0000
# 6 0.0000 0.0000 0.0000 0.0000 0.0000 8.8173
#
#
#
# Elastic Compliance Matrix: (Units=1/GPa)
#
#
# Indices 1 2 3 4 5 6 
#
# 1 0.007335 -0.001706 -0.003139 0.000000 0.000000 0.000000
# 2 -0.001706 0.012047 -0.002526 0.000000 0.000000 0.000000
# 3 -0.003139 -0.002526 0.018682 0.000000 0.000000 0.000000
# 4 0.000000 0.000000 0.000000 0.038487 0.000000 0.000000
# 5 0.000000 0.000000 0.000000 0.000000 0.079680 0.000000
# 6 0.000000 0.000000 0.000000 0.000000 0.000000 0.113414
#
#
# Mechanical properties :
#
#
# Convention : Reuss Voigt Hill
#
# Bulk Modulus (GPa) = 42.87718 50.88261 46.87990
# Shear Modulus (GPa) = 17.11376 24.92665 21.02020
#
# Velocity S-wave (km/s) = 2.57795 3.11124 2.85706
# Velocity P-wave (km/s) = 5.05091 5.71539 5.39339
#
# Compressibility (1/GPa) = 0.02332243
#
# Stress axis : x y z
#
# Youngs Moduli (GPa) = 136.32460 83.00741 53.52614
#
# Poissons Ratio (x) = 0.14160 0.16803
# Poissons Ratio (y) = 0.23256 0.13522
# Poissons Ratio (z) = 0.42794 0.20970
#
# Static dielectric constant tensor:
#      x y z
#    x 2.032680 0.000000 0.000000 
#    y 0.000000 2.154050 0.000000 
#    z 0.000000 0.000000 2.152670 
# 
# From -- ./inp_files/4980.got.cif
#   From: 2010.05.17/outbox.cif.g08.bks.cpg/sg45_3_cif.got.tgz:4980.got - 2010.06.03 19:51:22.
