data_PCOD9376494
_publ_section_title
;
Structure prediction by ZEFSAII (Michael W. Deem and Ramdas Pophale) SiO2 
 PCOD9376494
Probable space group: I B A 2
;
_chemical_formula_sum "Si O2"
_cell_formula_units_Z 60
_cell_length_a 16.727858
_cell_length_b 7.350022
_cell_length_c 20.982205
_cell_angle_alpha 90.000000
_cell_angle_beta 90.000000
_cell_angle_gamma 90.000000
_cell_volume 2579.764713
_symmetry_space_group_name_H-M "I B A 2"
_symmetry_group_IT_number 45
_symmetry_cell_setting 'orthorhombic'
loop_
_space_group_symop_operation_xyz
x,y,z
-x,-y,z
-x,y,1/2+z
x,-y,1/2+z
1/2+x,1/2+y,1/2+z
1/2-x,1/2-y,1/2+z
1/2-x,1/2+y,z
1/2+x,1/2-y,z
loop_
_atom_site_type_symbol
_atom_site_label
_atom_site_fract_x
_atom_site_fract_y
_atom_site_fract_z
Si Si1 0.654549 0.698032 0.826840
Si Si2 0.797380 0.826188 0.597255
Si Si3 0.178334 0.417391 0.873540
Si Si4 0.847728 0.503548 0.518897
Si Si5 0.520727 0.790305 0.332156
Si Si6 0.172239 0.854986 0.683164
Si Si7 0.000000 0.500000 0.587009
Si Si8 0.998127 0.218666 0.686193
O O1 0.729593 0.641826 0.869782
O O2 0.664721 0.918109 0.823312
O O3 0.561066 0.676476 0.847152
O O4 0.671146 0.604327 0.758344
O O5 0.843107 0.707687 0.545503
O O6 0.755210 0.722010 0.656704
O O7 0.723538 0.906177 0.556656
O O8 0.844140 0.983917 0.633269
O O9 0.110011 0.264628 0.860193
O O10 0.162467 0.491310 0.944039
O O11 0.931432 0.421757 0.541636
O O12 0.527774 0.770613 0.256033
O O13 0.500000 0.000000 0.349830
O O14 0.095603 0.724685 0.679533
O O15 0.964056 0.656784 0.632410
O O16 0.000000 0.000000 0.681869
#
# Coordination Sequence:
#
# PCOD9376494 Si02
#       8
#     8   8   8   8   8   8   4   8
#     4  10  22  38  65  95 128 175 221 284 345 404
#     4  10  21  40  64  90 130 171 217 284 335 408
#     4  11  23  41  64  94 136 180 233 272 340 420
#     4  11  24  40  64  92 130 181 227 270 338 416
#     4   9  21  40  64  92 132 175 220 283 342 410
#     4  10  20  38  61  97 127 161 224 283 347 405
#     4  12  24  40  66  98 130 178 224 284 352 410
#     4  11  22  39  64  97 134 168 220 285 356 411
#
# _framework density 23.257936999999998
#
# number of rings (size 3 to 8) (size 9 to 14) (size 15 to 20)
#    0.000    1.600    2.000    2.400    2.800    5.333 
#    0.000    0.000    0.000    0.800    0.000    0.000 
#    0.000    0.000    0.000    0.000    0.000    0.000 
#
# Total GULP energy -167369.447415 kJ/mol
# GULP energy per Si atom -5578.981581 kJ/mol
# Density = 2.320500 g / cm^3
# Si number density = 23.257937 Si / 1000 Ang^3
#
#
#
# Elastic Constant Matrix: (Units=GPa)
#
#
# Indices 1 2 3 4 5 6 
#
# 1 129.1674 10.4922 70.8234 0.0000 0.0000 0.0000
# 2 10.4922 41.8135 24.9769 0.0000 0.0000 0.0000
# 3 70.8234 24.9769 126.1778 0.0000 0.0000 0.0000
# 4 0.0000 0.0000 0.0000 26.8990 0.0000 0.0000
# 5 0.0000 0.0000 0.0000 0.0000 28.5311 0.0000
# 6 0.0000 0.0000 0.0000 0.0000 0.0000 25.4013
#
#
#
# Elastic Compliance Matrix: (Units=1/GPa)
#
#
# Indices 1 2 3 4 5 6 
#
# 1 0.011226 0.001074 -0.006514 0.000000 0.000000 0.000000
# 2 0.001074 0.027226 -0.005992 0.000000 0.000000 0.000000
# 3 -0.006514 -0.005992 0.012768 0.000000 0.000000 0.000000
# 4 0.000000 0.000000 0.000000 0.037176 0.000000 0.000000
# 5 0.000000 0.000000 0.000000 0.000000 0.035049 0.000000
# 6 0.000000 0.000000 0.000000 0.000000 0.000000 0.039368
#
#
# Mechanical properties :
#
#
# Convention : Reuss Voigt Hill
#
# Bulk Modulus (GPa) = 35.26652 56.63819 45.95236
# Shear Modulus (GPa) = 25.62408 28.89070 27.25739
#
# Velocity S-wave (km/s) = 3.32284 3.52829 3.42711
# Velocity P-wave (km/s) = 5.46972 6.40340 5.95489
#
# Compressibility (1/GPa) = 0.02835550
#
# Stress axis : x y z
#
# Youngs Moduli (GPa) = 89.07697 36.73016 78.32272
#
# Poissons Ratio (x) = -0.03945 0.51018
# Poissons Ratio (y) = -0.09567 0.46932
# Poissons Ratio (z) = 0.58024 0.22009
#
# Static dielectric constant tensor:
#      x y z
#    x 2.012290 0.000000 0.000000 
#    y 0.000000 1.984820 0.000000 
#    z 0.000000 0.000000 1.821780 
# 
# From -- ./inp_files/8348.got.cif
#   From: 2010.05.17/outbox.cif.g08.bks.cpg/sg45_5_cif.got.tgz:8348.got - 2010.06.03 19:51:22.
