data_PCOD9376303
_publ_section_title
;
Structure prediction by ZEFSAII (Michael W. Deem and Ramdas Pophale) SiO2 
 PCOD9376303
Probable space group: I B A 2
;
_chemical_formula_sum "Si O2"
_cell_formula_units_Z 56
_cell_length_a 13.736396
_cell_length_b 14.277648
_cell_length_c 13.397513
_cell_angle_alpha 90.000000
_cell_angle_beta 90.000000
_cell_angle_gamma 90.000000
_cell_volume 2627.566161
_symmetry_space_group_name_H-M "I B A 2"
_symmetry_group_IT_number 45
_symmetry_cell_setting 'orthorhombic'
loop_
_space_group_symop_operation_xyz
x,y,z
-x,-y,z
-x,y,1/2+z
x,-y,1/2+z
1/2+x,1/2+y,1/2+z
1/2-x,1/2-y,1/2+z
1/2-x,1/2+y,z
1/2+x,1/2-y,z
loop_
_atom_site_type_symbol
_atom_site_label
_atom_site_fract_x
_atom_site_fract_y
_atom_site_fract_z
Si Si1 0.841449 0.518671 0.479500
Si Si2 0.064926 0.350098 0.638636
Si Si3 0.271066 0.704209 0.222146
Si Si4 0.253832 0.165860 0.445705
Si Si5 0.341717 0.362575 0.517619
Si Si6 0.459845 0.701811 0.475568
Si Si7 0.089316 0.350468 0.305261
O O1 0.899208 0.563215 0.571711
O O2 0.834276 0.407859 0.479674
O O3 0.730361 0.554204 0.489634
O O4 0.883083 0.565188 0.378879
O O5 0.161827 0.299591 0.680644
O O6 0.018038 0.275267 0.563681
O O7 0.992847 0.375839 0.726592
O O8 0.264176 0.652458 0.328050
O O9 0.335311 0.654413 0.136830
O O10 0.318295 0.805111 0.247371
O O11 0.292231 0.269844 0.468753
O O12 0.146730 0.158591 0.493523
O O13 0.450337 0.368529 0.476191
O O14 0.449131 0.765290 0.376048
#
# Coordination Sequence:
#
# PCOD9376303 Si02
#       7
#     8   8   8   8   8   8   8
#     4  10  23  41  63  98 133 172 213 275 344 380
#     4  10  19  39  64  92 125 165 222 263 324 396
#     4  10  19  37  64  90 121 172 208 268 323 386
#     4  11  22  43  63  91 139 168 213 276 334 395
#     4  11  20  41  65  89 127 172 224 264 328 403
#     4  10  20  36  68  93 120 180 212 264 332 385
#     4  10  19  37  64  93 126 167 220 266 326 392
#
# _framework density 21.312498000000001
#
# number of rings (size 3 to 8) (size 9 to 14) (size 15 to 20)
#    0.000    1.714    7.143    0.857    0.000    0.571 
#    5.143    7.857    0.000    3.429    0.000    0.000 
#    0.000    0.000    0.000    0.000    0.000    0.000 
#
# Total GULP energy -156476.988827 kJ/mol
# GULP energy per Si atom -5588.463887 kJ/mol
# Density = 2.126399 g / cm^3
# Si number density = 21.312498 Si / 1000 Ang^3
#
#
#
# Elastic Constant Matrix: (Units=GPa)
#
#
# Indices 1 2 3 4 5 6 
#
# 1 105.3395 14.1595 30.1263 0.0000 0.0000 0.0000
# 2 14.1595 47.3928 12.4566 0.0000 0.0000 0.0000
# 3 30.1263 12.4566 98.1833 0.0000 0.0000 0.0000
# 4 0.0000 0.0000 0.0000 7.5503 0.0000 0.0000
# 5 0.0000 0.0000 0.0000 0.0000 27.6099 0.0000
# 6 0.0000 0.0000 0.0000 0.0000 0.0000 26.3829
#
#
#
# Elastic Compliance Matrix: (Units=1/GPa)
#
#
# Indices 1 2 3 4 5 6 
#
# 1 0.010665 -0.002407 -0.002967 0.000000 0.000000 0.000000
# 2 -0.002407 0.022371 -0.002100 0.000000 0.000000 0.000000
# 3 -0.002967 -0.002100 0.011362 0.000000 0.000000 0.000000
# 4 0.000000 0.000000 0.000000 0.132445 0.000000 0.000000
# 5 0.000000 0.000000 0.000000 0.000000 0.036219 0.000000
# 6 0.000000 0.000000 0.000000 0.000000 0.000000 0.037903
#
#
# Mechanical properties :
#
#
# Convention : Reuss Voigt Hill
#
# Bulk Modulus (GPa) = 33.95453 40.48893 37.22173
# Shear Modulus (GPa) = 18.13373 25.25352 21.69362
#
# Velocity S-wave (km/s) = 2.92010 3.44599 3.19389
# Velocity P-wave (km/s) = 5.22835 5.90527 5.57709
#
# Compressibility (1/GPa) = 0.02945115
#
# Stress axis : x y z
#
# Youngs Moduli (GPa) = 93.76309 44.70040 88.01364
#
# Poissons Ratio (x) = 0.10757 0.26115
# Poissons Ratio (y) = 0.22565 0.18481
# Poissons Ratio (z) = 0.27821 0.09386
#
# Static dielectric constant tensor:
#      x y z
#    x 1.795520 0.000000 0.000000 
#    y 0.000000 1.741900 0.000000 
#    z 0.000000 0.000000 1.781750 
# 
# From -- ./inp_files/6570.got.cif
#   From: 2010.05.17/outbox.cif.g08.bks.cpg/sg45_4_cif.got.tgz:6570.got - 2010.06.03 19:51:22.
