data_PCOD9376642
_publ_section_title
;
Structure prediction by ZEFSAII (Michael W. Deem and Ramdas Pophale) SiO2 
 PCOD9376642
Probable space group: I B A 2
;
_chemical_formula_sum "Si O2"
_cell_formula_units_Z 56
_cell_length_a 21.373785
_cell_length_b 5.582808
_cell_length_c 21.263368
_cell_angle_alpha 90.000000
_cell_angle_beta 90.000000
_cell_angle_gamma 90.000000
_cell_volume 2537.267077
_symmetry_space_group_name_H-M "I B A 2"
_symmetry_group_IT_number 45
_symmetry_cell_setting 'orthorhombic'
loop_
_space_group_symop_operation_xyz
x,y,z
-x,-y,z
-x,y,1/2+z
x,-y,1/2+z
1/2+x,1/2+y,1/2+z
1/2-x,1/2-y,1/2+z
1/2-x,1/2+y,z
1/2+x,1/2-y,z
loop_
_atom_site_type_symbol
_atom_site_label
_atom_site_fract_x
_atom_site_fract_y
_atom_site_fract_z
Si Si1 0.500000 0.000000 0.183270
Si Si2 0.570657 0.609357 0.128406
Si Si3 0.774650 0.557404 0.240927
Si Si4 0.225350 0.442596 0.388304
Si Si5 0.097493 0.821282 0.744462
Si Si6 0.000000 0.500000 0.445961
Si Si7 0.429343 0.390643 0.500825
Si Si8 0.902507 0.178718 0.884769
O O1 0.446051 0.113025 0.139012
O O2 0.532440 0.192187 0.228363
O O3 0.500000 0.500000 0.129121
O O4 0.605901 0.514743 0.189773
O O5 0.598811 0.500000 0.064615
O O6 0.758617 0.296475 0.213671
O O7 0.754326 0.539170 0.314615
O O8 0.847489 0.625883 0.240340
O O9 0.241382 0.703526 0.415559
O O10 0.152511 0.374117 0.388891
O O11 0.097811 0.923826 0.814615
O O12 0.053949 0.613025 0.490219
O O13 0.032440 0.307813 0.400868
O O14 0.500000 0.500000 0.500110
O O15 0.394099 0.485257 0.439458
#
# Coordination Sequence:
#
# PCOD9376642 Si02
#       8
#     4   8   8   8   8   4   8   8
#     4  10  21  35  56  84 115 153 186 238 295 361
#     4   9  20  36  54  79 111 151 193 229 285 352
#     4   9  19  35  56  81 113 155 200 242 289 347
#     4   9  19  35  56  81 113 155 200 242 289 347
#     4  10  21  34  55  86 119 149 189 244 296 346
#     4  10  21  35  56  84 115 153 186 238 295 361
#     4   9  20  36  54  79 111 151 193 229 285 352
#     4  10  21  34  55  86 119 149 189 244 296 346
#
# _framework density 22.070989999999998
#
# number of rings (size 3 to 8) (size 9 to 14) (size 15 to 20)
#    0.000    2.571    0.000    0.429    4.000   15.429 
#    0.000    0.000    0.000    1.714    0.000    0.000 
#    0.000    0.000    0.000    0.000    0.000    0.000 
#
# Total GULP energy -156027.501781 kJ/mol
# GULP energy per Si atom -5572.410778 kJ/mol
# Density = 2.202076 g / cm^3
# Si number density = 22.070990 Si / 1000 Ang^3
#
#
#
# Elastic Constant Matrix: (Units=GPa)
#
#
# Indices 1 2 3 4 5 6 
#
# 1 37.5424 12.8074 22.3355 0.0000 0.0000 0.0000
# 2 12.8074 78.5936 37.3855 0.0000 0.0000 0.0000
# 3 22.3355 37.3855 152.4360 0.0000 0.0000 0.0000
# 4 0.0000 0.0000 0.0000 12.3408 0.0000 0.0000
# 5 0.0000 0.0000 0.0000 0.0000 -2.8067 0.0000
# 6 0.0000 0.0000 0.0000 0.0000 0.0000 35.5446
#
#
#
# Elastic Compliance Matrix: (Units=1/GPa)
#
#
# Indices 1 2 3 4 5 6 
#
# 1 0.029854 -0.003152 -0.003601 0.000000 0.000000 0.000000
# 2 -0.003152 0.014737 -0.003152 0.000000 0.000000 0.000000
# 3 -0.003601 -0.003152 0.007861 0.000000 0.000000 0.000000
# 4 0.000000 0.000000 0.000000 0.081032 0.000000 0.000000
# 5 0.000000 0.000000 0.000000 0.000000 -0.356287 0.000000
# 6 0.000000 0.000000 0.000000 0.000000 0.000000 0.028134
#
#
# Mechanical properties :
#
#
# Convention : Reuss Voigt Hill
#
# Bulk Modulus (GPa) = 30.63649 45.95876 38.29763
# Shear Modulus (GPa) = -30.49213 22.08530 -4.20341
#
# Velocity S-wave (km/s) = -3.72095 3.16673 -1.38153
# Velocity P-wave (km/s) = 2.13298 5.85144 3.85290
#
# Compressibility (1/GPa) = 0.03264081
#
# Stress axis : x y z
#
# Youngs Moduli (GPa) = 33.49591 67.85697 127.21081
#
# Poissons Ratio (x) = 0.21388 0.45813
# Poissons Ratio (y) = 0.10558 0.40103
# Poissons Ratio (z) = 0.12063 0.21392
#
# Static dielectric constant tensor:
#      x y z
#    x 1.840020 0.000000 0.000000 
#    y 0.000000 1.969170 0.000000 
#    z 0.000000 0.000000 1.827790 
# 
# From -- ./inp_files/8716.got.cif
#   From: 2010.05.17/outbox.cif.g08.bks.cpg/sg45_5_cif.got.tgz:8716.got - 2010.06.03 19:51:22.
