data_PCOD9376623
_publ_section_title
;
Structure prediction by ZEFSAII (Michael W. Deem and Ramdas Pophale) SiO2 
 PCOD9376623
Probable space group: I B A 2
;
_chemical_formula_sum "Si O2"
_cell_formula_units_Z 64
_cell_length_a 16.098368
_cell_length_b 9.602773
_cell_length_c 21.436568
_cell_angle_alpha 90.000000
_cell_angle_beta 90.000000
_cell_angle_gamma 90.000000
_cell_volume 3313.857044
_symmetry_space_group_name_H-M "I B A 2"
_symmetry_group_IT_number 45
_symmetry_cell_setting 'orthorhombic'
loop_
_space_group_symop_operation_xyz
x,y,z
-x,-y,z
-x,y,1/2+z
x,-y,1/2+z
1/2+x,1/2+y,1/2+z
1/2-x,1/2-y,1/2+z
1/2-x,1/2+y,z
1/2+x,1/2-y,z
loop_
_atom_site_type_symbol
_atom_site_label
_atom_site_fract_x
_atom_site_fract_y
_atom_site_fract_z
Si Si1 0.171108 0.676711 0.580860
Si Si2 0.674585 0.056813 0.780039
Si Si3 0.558122 0.118943 0.676713
Si Si4 0.977975 0.162031 0.761482
Si Si5 0.832150 0.352530 0.059364
Si Si6 0.507084 0.167717 0.008973
Si Si7 0.300773 0.773501 0.229336
Si Si8 0.949728 0.645984 0.870355
O O1 0.181944 0.519258 0.554717
O O2 0.245456 0.772109 0.554230
O O3 0.183057 0.685088 0.656630
O O4 0.077509 0.717445 0.558402
O O5 0.592049 0.040512 0.737891
O O6 0.725544 0.171409 0.742984
O O7 0.643007 0.107005 0.846906
O O8 0.716415 0.908713 0.771823
O O9 0.516519 0.258173 0.701855
O O10 0.629109 0.158226 0.628578
O O11 0.500000 0.000000 0.646762
O O12 0.880883 0.192929 0.755270
O O13 0.013800 0.241995 0.821876
O O14 0.000000 0.000000 0.762264
O O15 0.910081 0.292803 0.019211
O O16 0.540933 0.201294 0.940275
O O17 0.500000 0.000000 0.012022
O O18 0.000000 0.500000 0.867357
#
# Coordination Sequence:
#
# PCOD9376623 Si02
#       8
#     8   8   8   8   8   8   8   8
#     4  11  21  39  61  98 127 159 204 261 308 381
#     4  11  22  34  59  87 123 162 193 252 311 369
#     4  11  18  37  60  83 119 167 201 241 313 386
#     4  11  23  35  59  87 118 156 205 260 309 366
#     4  11  21  38  64  93 126 159 208 252 314 374
#     4   9  21  40  68  87 115 173 221 250 297 378
#     4  12  21  37  56  93 130 153 195 254 322 374
#     4  10  20  45  63  80 114 168 223 243 296 378
#
# _framework density 19.312840999999999
#
# number of rings (size 3 to 8) (size 9 to 14) (size 15 to 20)
#    0.000    1.250    5.000    2.625    3.500    1.000 
#    2.250    1.875    0.000    0.000    0.000    0.000 
#    0.000    0.000    0.000    0.000    0.000    0.000 
#
# Total GULP energy -178337.308587 kJ/mol
# GULP energy per Si atom -5573.040893 kJ/mol
# Density = 1.926888 g / cm^3
# Si number density = 19.312841 Si / 1000 Ang^3
#
#
#
# Elastic Constant Matrix: (Units=GPa)
#
#
# Indices 1 2 3 4 5 6 
#
# 1 88.3458 44.8718 23.6521 0.0000 0.0000 0.0000
# 2 44.8718 101.7627 32.9969 0.0000 0.0000 0.0000
# 3 23.6521 32.9969 83.2928 0.0000 0.0000 0.0000
# 4 0.0000 0.0000 0.0000 15.4501 0.0000 0.0000
# 5 0.0000 0.0000 0.0000 0.0000 12.3414 0.0000
# 6 0.0000 0.0000 0.0000 0.0000 0.0000 37.2544
#
#
#
# Elastic Compliance Matrix: (Units=1/GPa)
#
#
# Indices 1 2 3 4 5 6 
#
# 1 0.014833 -0.005937 -0.001860 0.000000 0.000000 0.000000
# 2 -0.005937 0.013652 -0.003722 0.000000 0.000000 0.000000
# 3 -0.001860 -0.003722 0.014009 0.000000 0.000000 0.000000
# 4 0.000000 0.000000 0.000000 0.064724 0.000000 0.000000
# 5 0.000000 0.000000 0.000000 0.000000 0.081028 0.000000
# 6 0.000000 0.000000 0.000000 0.000000 0.000000 0.026842
#
#
# Mechanical properties :
#
#
# Convention : Reuss Voigt Hill
#
# Bulk Modulus (GPa) = 51.40280 52.93810 52.17045
# Shear Modulus (GPa) = 20.44056 24.46788 22.45422
#
# Velocity S-wave (km/s) = 3.25682 3.56325 3.41348
# Velocity P-wave (km/s) = 6.38875 6.66328 6.52746
#
# Compressibility (1/GPa) = 0.01945419
#
# Stress axis : x y z
#
# Youngs Moduli (GPa) = 67.41850 73.25055 71.38498
#
# Poissons Ratio (x) = 0.43491 0.13276
# Poissons Ratio (y) = 0.40029 0.26571
# Poissons Ratio (z) = 0.12539 0.27266
#
# Static dielectric constant tensor:
#      x y z
#    x 1.748960 0.000000 0.000000 
#    y 0.000000 1.529750 0.000000 
#    z 0.000000 0.000000 1.716310 
# 
# From -- ./inp_files/8963.got.cif
#   From: 2010.05.17/outbox.cif.g08.bks.cpg/sg45_5_cif.got.tgz:8963.got - 2010.06.03 19:51:22.
