data_PCOD9376323
_publ_section_title
;
Structure prediction by ZEFSAII (Michael W. Deem and Ramdas Pophale) SiO2 
 PCOD9376323
Probable space group: I B A 2
;
_chemical_formula_sum "Si O2"
_cell_formula_units_Z 56
_cell_length_a 13.278511
_cell_length_b 11.982249
_cell_length_c 14.465866
_cell_angle_alpha 90.000000
_cell_angle_beta 90.000000
_cell_angle_gamma 90.000000
_cell_volume 2301.612226
_symmetry_space_group_name_H-M "I B A 2"
_symmetry_group_IT_number 45
_symmetry_cell_setting 'orthorhombic'
loop_
_space_group_symop_operation_xyz
x,y,z
-x,-y,z
-x,y,1/2+z
x,-y,1/2+z
1/2+x,1/2+y,1/2+z
1/2-x,1/2-y,1/2+z
1/2-x,1/2+y,z
1/2+x,1/2-y,z
loop_
_atom_site_type_symbol
_atom_site_label
_atom_site_fract_x
_atom_site_fract_y
_atom_site_fract_z
Si Si1 0.630589 0.617048 0.687690
Si Si2 0.828158 0.649094 0.959337
Si Si3 0.210022 0.351744 0.236404
Si Si4 0.346635 0.033798 0.115505
Si Si5 0.037412 0.844824 0.491912
Si Si6 0.846257 0.772616 0.572819
Si Si7 0.671729 0.493451 0.863366
O O1 0.652407 0.736715 0.732642
O O2 0.732609 0.571209 0.639887
O O3 0.557877 0.636602 0.601820
O O4 0.610891 0.536516 0.773752
O O5 0.924182 0.728227 0.945347
O O6 0.755095 0.589613 0.885807
O O7 0.854689 0.545027 0.026573
O O8 0.758218 0.735064 0.017143
O O9 0.135351 0.449046 0.199708
O O10 0.304962 0.333842 0.164756
O O11 0.258730 0.389635 0.330982
O O12 0.395866 0.154071 0.099528
O O13 0.917431 0.835889 0.500521
O O14 0.096841 0.941382 0.438417
#
# Coordination Sequence:
#
# PCOD9376323 Si02
#       7
#     8   8   8   8   8   8   8
#     4  10  19  39  64  92 129 172 219 269 338 400
#     4  11  20  41  64  91 127 169 225 269 323 406
#     4   9  19  41  67  96 130 174 228 276 339 405
#     4   9  16  37  66  88 122 170 217 264 330 390
#     4  12  23  41  66  99 130 176 224 273 344 399
#     4  10  22  39  64  94 133 164 217 281 324 405
#     4  11  23  38  66  97 129 177 220 280 338 404
#
# _framework density 24.330772
#
# number of rings (size 3 to 8) (size 9 to 14) (size 15 to 20)
#    0.000    1.714    5.714    0.857    0.000    1.143 
#    5.143    0.000    0.000    0.000    7.429    0.000 
#    0.000    0.000    0.000    0.000    0.000    0.000 
#
# Total GULP energy -156114.292146 kJ/mol
# GULP energy per Si atom -5575.510434 kJ/mol
# Density = 2.427539 g / cm^3
# Si number density = 24.330772 Si / 1000 Ang^3
#
#
#
# Elastic Constant Matrix: (Units=GPa)
#
#
# Indices 1 2 3 4 5 6 
#
# 1 35.6400 -0.7227 7.1497 0.0000 0.0000 0.0000
# 2 -0.7227 150.1527 33.2563 0.0000 0.0000 0.0000
# 3 7.1497 33.2563 76.3067 0.0000 0.0000 0.0000
# 4 0.0000 0.0000 0.0000 37.3676 0.0000 0.0000
# 5 0.0000 0.0000 0.0000 0.0000 -6.5582 0.0000
# 6 0.0000 0.0000 0.0000 0.0000 0.0000 14.5585
#
#
#
# Elastic Compliance Matrix: (Units=1/GPa)
#
#
# Indices 1 2 3 4 5 6 
#
# 1 0.028685 0.000812 -0.003041 0.000000 0.000000 0.000000
# 2 0.000812 0.007394 -0.003299 0.000000 0.000000 0.000000
# 3 -0.003041 -0.003299 0.014828 0.000000 0.000000 0.000000
# 4 0.000000 0.000000 0.000000 0.026761 0.000000 0.000000
# 5 0.000000 0.000000 0.000000 0.000000 -0.152480 0.000000
# 6 0.000000 0.000000 0.000000 0.000000 0.000000 0.068688
#
#
# Mechanical properties :
#
#
# Convention : Reuss Voigt Hill
#
# Bulk Modulus (GPa) = 25.09408 37.94067 31.51738
# Shear Modulus (GPa) = 274.46822 23.90131 149.18476
#
# Velocity S-wave (km/s) = 10.63259 3.13764 7.83890
# Velocity P-wave (km/s) = 12.69142 5.36227 9.74233
#
# Compressibility (1/GPa) = 0.03985003
#
# Stress axis : x y z
#
# Youngs Moduli (GPa) = 34.86151 135.23743 67.44164
#
# Poissons Ratio (x) = -0.10977 0.20512
# Poissons Ratio (y) = -0.02830 0.22247
# Poissons Ratio (z) = 0.10603 0.44611
#
# Static dielectric constant tensor:
#      x y z
#    x 1.942300 0.000000 0.000000 
#    y 0.000000 1.992750 0.000000 
#    z 0.000000 0.000000 1.952210 
# 
# From -- ./inp_files/6163.got.cif
#   From: 2010.05.17/outbox.cif.g08.bks.cpg/sg45_4_cif.got.tgz:6163.got - 2010.06.03 19:51:22.
