data_PCOD9376938
_publ_section_title
;
Structure prediction by ZEFSAII (Michael W. Deem and Ramdas Pophale) SiO2 
 PCOD9376938
Probable space group: I B A 2
;
_chemical_formula_sum "Si O2"
_cell_formula_units_Z 56
_cell_length_a 11.164190
_cell_length_b 17.844892
_cell_length_c 11.760125
_cell_angle_alpha 90.000000
_cell_angle_beta 90.000000
_cell_angle_gamma 90.000000
_cell_volume 2342.896377
_symmetry_space_group_name_H-M "I B A 2"
_symmetry_group_IT_number 45
_symmetry_cell_setting 'orthorhombic'
loop_
_space_group_symop_operation_xyz
x,y,z
-x,-y,z
-x,y,1/2+z
x,-y,1/2+z
1/2+x,1/2+y,1/2+z
1/2-x,1/2-y,1/2+z
1/2-x,1/2+y,z
1/2+x,1/2-y,z
loop_
_atom_site_type_symbol
_atom_site_label
_atom_site_fract_x
_atom_site_fract_y
_atom_site_fract_z
Si Si1 0.366977 0.904580 0.469430
Si Si2 0.747786 0.889589 0.736072
Si Si3 0.632800 0.082448 0.926656
Si Si4 0.773651 0.441390 0.199102
Si Si5 0.251987 0.787698 0.032257
Si Si6 0.495487 0.293266 0.488156
Si Si7 0.020052 0.873281 0.740272
O O1 0.310112 0.872214 0.356483
O O2 0.508237 0.890862 0.479756
O O3 0.293281 0.896723 0.583736
O O4 0.355913 0.994638 0.446543
O O5 0.731510 0.814696 0.661633
O O6 0.888012 0.908074 0.745982
O O7 0.697934 0.969435 0.689248
O O8 0.634042 0.091301 0.791236
O O9 0.743066 0.129953 0.973635
O O10 0.638855 0.424210 0.240297
O O11 0.367299 0.746803 0.983398
O O12 0.122857 0.751978 0.011206
O O13 0.517598 0.327128 0.360647
O O14 0.482726 0.337627 0.610872
#
# Coordination Sequence:
#
# PCOD9376938 Si02
#       7
#     8   8   8   8   8   8   8
#     4  10  22  37  67 106 137 181 225 290 382 441
#     4  10  23  41  68 106 141 184 232 302 372 439
#     4  10  22  39  65  96 141 174 231 292 360 440
#     4  11  21  41  71 103 144 184 227 301 379 447
#     4  11  24  48  68  98 143 185 253 297 352 433
#     4  11  27  46  73  98 143 197 250 302 357 427
#     4  11  24  45  68 105 139 189 246 298 362 444
#
# _framework density 23.902038999999998
#
# number of rings (size 3 to 8) (size 9 to 14) (size 15 to 20)
#    0.000    1.429    2.857    1.286    2.000    6.857 
#    0.000    2.857    0.000    0.000    0.000    0.000 
#    0.000    0.000    0.000    0.000    0.000    0.000 
#
# Total GULP energy -156141.473361 kJ/mol
# GULP energy per Si atom -5576.481191 kJ/mol
# Density = 2.384764 g / cm^3
# Si number density = 23.902039 Si / 1000 Ang^3
#
#
#
# Elastic Constant Matrix: (Units=GPa)
#
#
# Indices 1 2 3 4 5 6 
#
# 1 90.7576 10.9330 8.3570 -0.0002 0.0000 0.0000
# 2 10.9330 28.7201 11.4171 0.0003 -0.0001 0.0000
# 3 8.3570 11.4171 142.5551 0.0006 -0.0002 0.0000
# 4 -0.0002 0.0003 0.0006 25.2302 -0.0002 0.0000
# 5 0.0000 -0.0001 -0.0002 -0.0002 42.1080 0.0000
# 6 0.0000 0.0000 0.0000 0.0000 0.0000 37.9389
#
#
#
# Elastic Compliance Matrix: (Units=1/GPa)
#
#
# Indices 1 2 3 4 5 6 
#
# 1 0.011563 -0.004268 -0.000336 0.000000 0.000000 0.000000
# 2 -0.004268 0.037539 -0.002756 0.000000 0.000000 0.000000
# 3 -0.000336 -0.002756 0.007255 0.000000 0.000000 0.000000
# 4 0.000000 0.000000 0.000000 0.039635 0.000000 0.000000
# 5 0.000000 0.000000 0.000000 0.000000 0.023748 0.000000
# 6 0.000000 0.000000 0.000000 0.000000 0.000000 0.026358
#
#
# Mechanical properties :
#
#
# Convention : Reuss Voigt Hill
#
# Bulk Modulus (GPa) = 24.01722 35.93858 29.97790
# Shear Modulus (GPa) = 28.62048 36.47711 32.54880
#
# Velocity S-wave (km/s) = 3.46411 3.91078 3.69420
# Velocity P-wave (km/s) = 5.10589 5.95489 5.54666
#
# Compressibility (1/GPa) = 0.04163679
#
# Stress axis : x y z
#
# Youngs Moduli (GPa) = 86.47910 26.63874 137.83068
#
# Poissons Ratio (x) = 0.11370 0.04632
# Poissons Ratio (y) = 0.36912 0.37990
# Poissons Ratio (z) = 0.02906 0.07342
#
# Static dielectric constant tensor:
#      x y z
#    x 1.855250 0.000000 0.000000 
#    y 0.000000 2.009790 0.000000 
#    z 0.000000 0.000000 1.973940 
# 
# From -- ./inp_files/3758.got.cif
#   From: 2010.05.17/outbox.cif.g08.bks.cpg/sg45_2_cif.got.tgz:3758.got - 2010.06.03 19:51:22.
