data_PCOD9376366
_publ_section_title
;
Structure prediction by ZEFSAII (Michael W. Deem and Ramdas Pophale) SiO2 
 PCOD9376366
Probable space group: I B A 2
;
_chemical_formula_sum "Si O2"
_cell_formula_units_Z 60
_cell_length_a 28.287223
_cell_length_b 12.117627
_cell_length_c 8.834332
_cell_angle_alpha 90.000000
_cell_angle_beta 90.000000
_cell_angle_gamma 90.000000
_cell_volume 3028.179469
_symmetry_space_group_name_H-M "I B A 2"
_symmetry_group_IT_number 45
_symmetry_cell_setting 'orthorhombic'
loop_
_space_group_symop_operation_xyz
x,y,z
-x,-y,z
-x,y,1/2+z
x,-y,1/2+z
1/2+x,1/2+y,1/2+z
1/2-x,1/2-y,1/2+z
1/2-x,1/2+y,z
1/2+x,1/2-y,z
loop_
_atom_site_type_symbol
_atom_site_label
_atom_site_fract_x
_atom_site_fract_y
_atom_site_fract_z
Si Si1 0.133442 0.630296 0.981800
Si Si2 0.144040 0.274488 0.147770
Si Si3 0.566927 0.076171 0.013122
Si Si4 0.149009 0.846482 0.157571
Si Si5 0.238377 0.596301 0.010306
Si Si6 0.000000 0.500000 0.766300
Si Si7 0.753003 0.273320 0.718014
Si Si8 0.155945 0.948126 0.478537
O O1 0.130920 0.690820 0.818968
O O2 0.183799 0.564168 0.992724
O O3 0.092772 0.541903 0.001673
O O4 0.131923 0.725203 0.109685
O O5 0.107686 0.333965 0.035652
O O6 0.198966 0.311849 0.136614
O O7 0.146353 0.145196 0.106389
O O8 0.533850 0.071784 0.160023
O O9 0.532326 0.078678 0.870152
O O10 0.205930 0.833794 0.165392
O O11 0.137401 0.896413 0.322125
O O12 0.135405 0.935939 0.031532
O O13 0.240598 0.700764 0.894039
O O14 0.245381 0.645407 0.177859
O O15 0.286723 0.535005 0.968975
#
# Coordination Sequence:
#
# PCOD9376366 Si02
#       8
#     8   8   8   8   8   4   8   8
#     4  10  20  35  56  82 111 149 193 234 279 339
#     4  10  20  35  56  82 111 149 193 234 279 339
#     4  11  22  40  62  88 114 140 182 234 300 355
#     4  10  20  33  51  78 117 159 196 231 271 317
#     4   8  16  30  46  71 107 149 192 229 263 308
#     4  10  24  42  60  86 114 138 176 238 312 360
#     4   8  16  30  46  71 107 149 192 229 263 308
#     4  10  20  33  51  78 117 159 196 231 271 317
#
# _framework density 19.813884000000002
#
# number of rings (size 3 to 8) (size 9 to 14) (size 15 to 20)
#    0.000    2.400    1.333    0.800    3.733    1.067 
#    0.000    0.000    0.000    0.000    0.000    5.600 
#    0.000    0.000    0.000    0.000    0.000    0.000 
#
# Total GULP energy -167161.978246 kJ/mol
# GULP energy per Si atom -5572.065942 kJ/mol
# Density = 1.976879 g / cm^3
# Si number density = 19.813884 Si / 1000 Ang^3
#
#
#
# Elastic Constant Matrix: (Units=GPa)
#
#
# Indices 1 2 3 4 5 6 
#
# 1 71.1843 19.5534 24.6033 0.0000 0.0000 0.0000
# 2 19.5534 53.7511 11.5714 0.0000 0.0000 0.0000
# 3 24.6033 11.5714 54.9963 0.0000 0.0000 0.0000
# 4 0.0000 0.0000 0.0000 16.1079 0.0000 0.0000
# 5 0.0000 0.0000 0.0000 0.0000 26.6321 0.0000
# 6 0.0000 0.0000 0.0000 0.0000 0.0000 11.2690
#
#
#
# Elastic Compliance Matrix: (Units=1/GPa)
#
#
# Indices 1 2 3 4 5 6 
#
# 1 0.017809 -0.004990 -0.006917 0.000000 0.000000 0.000000
# 2 -0.004990 0.020885 -0.002162 0.000000 0.000000 0.000000
# 3 -0.006917 -0.002162 0.021733 0.000000 0.000000 0.000000
# 4 0.000000 0.000000 0.000000 0.062081 0.000000 0.000000
# 5 0.000000 0.000000 0.000000 0.000000 0.037549 0.000000
# 6 0.000000 0.000000 0.000000 0.000000 0.000000 0.088739
#
#
# Mechanical properties :
#
#
# Convention : Reuss Voigt Hill
#
# Bulk Modulus (GPa) = 30.97062 32.37642 31.67352
# Shear Modulus (GPa) = 17.37939 19.08204 18.23071
#
# Velocity S-wave (km/s) = 2.96485 3.10669 3.03660
# Velocity P-wave (km/s) = 5.23308 5.40782 5.32117
#
# Compressibility (1/GPa) = 0.03228867
#
# Stress axis : x y z
#
# Youngs Moduli (GPa) = 56.14986 47.88170 46.01385
#
# Poissons Ratio (x) = 0.23891 0.31830
# Poissons Ratio (y) = 0.28016 0.09949
# Poissons Ratio (z) = 0.38842 0.10352
#
# Static dielectric constant tensor:
#      x y z
#    x 1.688780 0.000000 0.000000 
#    y 0.000000 1.722770 0.000000 
#    z 0.000000 0.000000 1.755290 
# 
# From -- ./inp_files/1492.got.cif
#   From: 2010.05.17/outbox.cif.g08.bks.cpg/sg45_1_cif.got.tgz:1492.got - 2010.06.03 19:51:22.
