data_PCOD9376996
_publ_section_title
;
Structure prediction by ZEFSAII (Michael W. Deem and Ramdas Pophale) SiO2 
 PCOD9376996
Probable space group: I B A 2
;
_chemical_formula_sum "Si O2"
_cell_formula_units_Z 60
_cell_length_a 24.313572
_cell_length_b 9.354937
_cell_length_c 11.516033
_cell_angle_alpha 90.000000
_cell_angle_beta 90.000000
_cell_angle_gamma 90.000000
_cell_volume 2619.343981
_symmetry_space_group_name_H-M "I B A 2"
_symmetry_group_IT_number 45
_symmetry_cell_setting 'orthorhombic'
loop_
_space_group_symop_operation_xyz
x,y,z
-x,-y,z
-x,y,1/2+z
x,-y,1/2+z
1/2+x,1/2+y,1/2+z
1/2-x,1/2-y,1/2+z
1/2-x,1/2+y,z
1/2+x,1/2-y,z
loop_
_atom_site_type_symbol
_atom_site_label
_atom_site_fract_x
_atom_site_fract_y
_atom_site_fract_z
Si Si1 0.675511 0.341487 0.106780
Si Si2 0.111906 0.349584 0.692928
Si Si3 0.417852 0.325095 0.422187
Si Si4 0.676126 0.195320 0.477291
Si Si5 0.500000 0.500000 0.782214
Si Si6 0.507783 0.782088 0.630126
Si Si7 0.392106 0.154665 0.767337
Si Si8 0.248769 0.573736 0.528915
O O1 0.634726 0.293648 0.208217
O O2 0.713979 0.479276 0.116466
O O3 0.712649 0.200957 0.083446
O O4 0.635071 0.365455 0.997467
O O5 0.101149 0.272688 0.814946
O O6 0.156435 0.279514 0.608841
O O7 0.133177 0.508701 0.717638
O O8 0.053143 0.344736 0.626210
O O9 0.449637 0.459957 0.367082
O O10 0.459770 0.239844 0.508939
O O11 0.622497 0.169970 0.400310
O O12 0.711759 0.333895 0.443948
O O13 0.711519 0.049301 0.470569
O O14 0.504563 0.630324 0.694152
O O15 0.545857 0.861703 0.724397
#
# Coordination Sequence:
#
# PCOD9376996 Si02
#       8
#     8   8   8   8   4   8   8   8
#     4  10  22  44  66  98 137 176 231 291 350 420
#     4  11  24  43  69 100 139 187 226 294 351 424
#     4  10  23  42  69  98 140 182 233 293 352 433
#     4  11  25  45  71 101 144 177 242 286 359 418
#     4  10  22  40  66 100 138 184 232 284 358 420
#     4  10  24  42  66 102 138 186 235 287 352 430
#     4  11  24  43  69 101 137 181 229 293 352 425
#     4  10  23  46  67 101 134 183 237 291 350 422
#
# _framework density 22.906499
#
# number of rings (size 3 to 8) (size 9 to 14) (size 15 to 20)
#    0.000    1.600    1.333    1.600    7.467    5.333 
#    9.600    0.000    0.000    0.000    0.000    0.000 
#    0.000    0.000    0.000    0.000    0.000    0.000 
#
# Total GULP energy -167476.111641 kJ/mol
# GULP energy per Si atom -5582.537055 kJ/mol
# Density = 2.285436 g / cm^3
# Si number density = 22.906499 Si / 1000 Ang^3
#
#
#
# Elastic Constant Matrix: (Units=GPa)
#
#
# Indices 1 2 3 4 5 6 
#
# 1 84.4517 34.1353 38.9957 0.0000 0.0000 0.0000
# 2 34.1353 114.9462 22.3228 0.0000 0.0000 0.0000
# 3 38.9957 22.3228 93.2774 0.0000 0.0000 0.0000
# 4 0.0000 0.0000 0.0000 10.4920 0.0000 0.0000
# 5 0.0000 0.0000 0.0000 0.0000 7.1084 0.0000
# 6 0.0000 0.0000 0.0000 0.0000 0.0000 49.2724
#
#
#
# Elastic Compliance Matrix: (Units=1/GPa)
#
#
# Indices 1 2 3 4 5 6 
#
# 1 0.015991 -0.003619 -0.005819 0.000000 0.000000 0.000000
# 2 -0.003619 0.009943 -0.000867 0.000000 0.000000 0.000000
# 3 -0.005819 -0.000867 0.013361 0.000000 0.000000 0.000000
# 4 0.000000 0.000000 0.000000 0.095311 0.000000 0.000000
# 5 0.000000 0.000000 0.000000 0.000000 0.140678 0.000000
# 6 0.000000 0.000000 0.000000 0.000000 0.000000 0.020295
#
#
# Mechanical properties :
#
#
# Convention : Reuss Voigt Hill
#
# Bulk Modulus (GPa) = 53.51749 53.73142 53.62445
# Shear Modulus (GPa) = 15.50796 26.52267 21.01531
#
# Velocity S-wave (km/s) = 2.60477 3.40644 3.03221
# Velocity P-wave (km/s) = 5.69742 6.24336 5.97662
#
# Compressibility (1/GPa) = 0.01868548
#
# Stress axis : x y z
#
# Youngs Moduli (GPa) = 62.53625 100.57687 74.84549
#
# Poissons Ratio (x) = 0.36395 0.43553
# Poissons Ratio (y) = 0.22630 0.06486
# Poissons Ratio (z) = 0.36391 0.08716
#
# Static dielectric constant tensor:
#      x y z
#    x 1.916780 0.000000 0.000000 
#    y 0.000000 2.341950 0.000000 
#    z 0.000000 0.000000 1.854390 
# 
# From -- ./inp_files/4882.got.cif
#   From: 2010.05.17/outbox.cif.g08.bks.cpg/sg45_3_cif.got.tgz:4882.got - 2010.06.03 19:51:22.
