data_PCOD9376865
_publ_section_title
;
Structure prediction by ZEFSAII (Michael W. Deem and Ramdas Pophale) SiO2 
 PCOD9376865
Probable space group: I B A 2
;
_chemical_formula_sum "Si O2"
_cell_formula_units_Z 48
_cell_length_a 15.667818
_cell_length_b 16.016188
_cell_length_c 8.063358
_cell_angle_alpha 90.000000
_cell_angle_beta 90.000000
_cell_angle_gamma 90.000000
_cell_volume 2023.408724
_symmetry_space_group_name_H-M "I B A 2"
_symmetry_group_IT_number 45
_symmetry_cell_setting 'orthorhombic'
loop_
_space_group_symop_operation_xyz
x,y,z
-x,-y,z
-x,y,1/2+z
x,-y,1/2+z
1/2+x,1/2+y,1/2+z
1/2-x,1/2-y,1/2+z
1/2-x,1/2+y,z
1/2+x,1/2-y,z
loop_
_atom_site_type_symbol
_atom_site_label
_atom_site_fract_x
_atom_site_fract_y
_atom_site_fract_z
Si Si1 0.900702 0.023491 0.813530
Si Si2 0.684572 0.390857 0.006724
Si Si3 0.131677 0.647374 0.095743
Si Si4 0.590717 0.757761 0.587734
Si Si5 0.092710 0.807132 0.963281
Si Si6 0.975360 0.596226 0.269066
O O1 0.878162 0.067813 0.641671
O O2 0.889859 0.095450 0.954099
O O3 0.838394 0.945781 0.847325
O O4 0.000000 0.000000 0.814043
O O5 0.778919 0.398704 0.081826
O O6 0.661809 0.292954 0.986520
O O7 0.149303 0.745690 0.072647
O O8 0.075323 0.612354 0.939627
O O9 0.068874 0.639155 0.252158
O O10 0.502528 0.717789 0.520653
O O11 0.602435 0.725836 0.776355
O O12 0.579883 0.856634 0.625257
O O13 0.000000 0.500000 0.244399
#
# Coordination Sequence:
#
# PCOD9376865 Si02
#       6
#     8   8   8   8   8   8
#     4  11  22  40  68  97 133 177 216 278 348 404
#     4  11  24  40  63 100 136 167 230 281 329 406
#     4  10  23  43  63  95 132 173 225 279 329 398
#     4   9  19  38  62  89 125 165 212 268 326 397
#     4   9  19  38  61  87 126 170 209 253 341 395
#     4  10  21  42  68  90 128 179 224 267 338 399
#
# _framework density 23.722345000000001
#
# number of rings (size 3 to 8) (size 9 to 14) (size 15 to 20)
#    0.000    2.000    1.667    1.000    4.667    0.000 
#    3.000   20.000    0.000    0.000    0.000    0.000 
#    0.000    0.000    0.000    0.000    0.000    0.000 
#
# Total GULP energy -133838.785840 kJ/mol
# GULP energy per Si atom -5576.616077 kJ/mol
# Density = 2.366835 g / cm^3
# Si number density = 23.722345 Si / 1000 Ang^3
#
#
#
# Elastic Constant Matrix: (Units=GPa)
#
#
# Indices 1 2 3 4 5 6 
#
# 1 71.1943 25.9613 -14.1322 0.0000 0.0000 0.0000
# 2 25.9613 137.9976 19.7559 0.0000 0.0000 0.0000
# 3 -14.1322 19.7559 55.7220 0.0000 0.0000 0.0000
# 4 0.0000 0.0000 0.0000 13.8028 0.0000 0.0000
# 5 0.0000 0.0000 0.0000 0.0000 15.5191 0.0000
# 6 0.0000 0.0000 0.0000 0.0000 0.0000 26.5132
#
#
#
# Elastic Compliance Matrix: (Units=1/GPa)
#
#
# Indices 1 2 3 4 5 6 
#
# 1 0.016587 -0.003922 0.005597 0.000000 0.000000 0.000000
# 2 -0.003922 0.008561 -0.004030 0.000000 0.000000 0.000000
# 3 0.005597 -0.004030 0.020795 0.000000 0.000000 0.000000
# 4 0.000000 0.000000 0.000000 0.072449 0.000000 0.000000
# 5 0.000000 0.000000 0.000000 0.000000 0.064437 0.000000
# 6 0.000000 0.000000 0.000000 0.000000 0.000000 0.037717
#
#
# Mechanical properties :
#
#
# Convention : Reuss Voigt Hill
#
# Bulk Modulus (GPa) = 24.25178 36.45377 30.35277
# Shear Modulus (GPa) = 20.92055 26.72230 23.82142
#
# Velocity S-wave (km/s) = 2.97289 3.35992 3.17231
# Velocity P-wave (km/s) = 4.69356 5.51836 5.12259
#
# Compressibility (1/GPa) = 0.04123408
#
# Stress axis : x y z
#
# Youngs Moduli (GPa) = 60.28723 116.80536 48.08936
#
# Poissons Ratio (x) = 0.45809 -0.26917
# Poissons Ratio (y) = 0.23644 0.19380
# Poissons Ratio (z) = -0.33745 0.47073
#
# Static dielectric constant tensor:
#      x y z
#    x 1.879980 0.000000 0.000000 
#    y 0.000000 2.027660 0.000000 
#    z 0.000000 0.000000 1.980850 
# 
# From -- ./inp_files/1709.got.cif
#   From: 2010.05.17/outbox.cif.g08.bks.cpg/sg45_1_cif.got.tgz:1709.got - 2010.06.03 19:51:22.
