data_PCOD9376057
_publ_section_title
;
Structure prediction by ZEFSAII (Michael W. Deem and Ramdas Pophale) SiO2 
 PCOD9376057
Probable space group: I B A 2
;
_chemical_formula_sum "Si O2"
_cell_formula_units_Z 48
_cell_length_a 28.397133
_cell_length_b 13.767212
_cell_length_c 5.252880
_cell_angle_alpha 90.000000
_cell_angle_beta 90.000000
_cell_angle_gamma 90.000000
_cell_volume 2053.610023
_symmetry_space_group_name_H-M "I B A 2"
_symmetry_group_IT_number 45
_symmetry_cell_setting 'orthorhombic'
loop_
_space_group_symop_operation_xyz
x,y,z
-x,-y,z
-x,y,1/2+z
x,-y,1/2+z
1/2+x,1/2+y,1/2+z
1/2-x,1/2-y,1/2+z
1/2-x,1/2+y,z
1/2+x,1/2-y,z
loop_
_atom_site_type_symbol
_atom_site_label
_atom_site_fract_x
_atom_site_fract_y
_atom_site_fract_z
Si Si1 0.670027 0.619354 0.418790
Si Si2 0.270659 0.065915 0.038211
Si Si3 0.472258 0.145115 0.057370
Si Si4 0.473054 0.621856 0.574225
Si Si5 0.371105 0.060786 0.929767
Si Si6 0.131409 0.100651 0.418224
O O1 0.724296 0.629556 0.491898
O O2 0.637083 0.653350 0.648902
O O3 0.657602 0.503478 0.389038
O O4 0.656051 0.658634 0.145493
O O5 0.321615 0.113024 0.992731
O O6 0.268136 0.017716 0.317904
O O7 0.507690 0.113788 0.831425
O O8 0.470242 0.261653 0.062594
O O9 0.419891 0.111742 0.992770
O O10 0.511225 0.596320 0.358502
O O11 0.422104 0.583025 0.496779
O O12 0.370069 0.971928 0.135231
#
# Coordination Sequence:
#
# PCOD9376057 Si02
#       6
#     8   8   8   8   8   8
#     4  10  17  30  48  75  99 130 163 212 251 289
#     4  10  16  30  48  73 104 130 161 193 252 307
#     4  10  21  37  55  72 102 138 169 205 247 299
#     4  10  21  37  52  70  98 139 175 203 246 298
#     4  10  21  32  53  83 102 131 160 209 252 297
#     4  10  18  30  51  73  97 130 175 202 246 297
#
# _framework density 23.373474000000002
#
# number of rings (size 3 to 8) (size 9 to 14) (size 15 to 20)
#    0.000    2.000    3.333    2.000    0.000    2.000 
#    0.000   10.000    0.000    2.000    0.000    0.000 
#    0.000    0.000    0.000    0.000    0.000    0.000 
#
# Total GULP energy -134091.394653 kJ/mol
# GULP energy per Si atom -5587.141444 kJ/mol
# Density = 2.332028 g / cm^3
# Si number density = 23.373474 Si / 1000 Ang^3
#
#
#
# Elastic Constant Matrix: (Units=GPa)
#
#
# Indices 1 2 3 4 5 6 
#
# 1 109.1293 8.3092 -33.9695 0.0000 0.0000 0.0000
# 2 8.3092 38.0309 -1.8140 0.0000 0.0000 0.0000
# 3 -33.9695 -1.8140 103.8256 0.0000 0.0000 0.0001
# 4 0.0000 0.0000 0.0000 10.9795 0.0000 0.0000
# 5 0.0000 0.0000 0.0000 0.0000 40.1564 0.0000
# 6 0.0000 0.0000 0.0001 0.0000 0.0000 -13.5301
#
#
#
# Elastic Compliance Matrix: (Units=1/GPa)
#
#
# Indices 1 2 3 4 5 6 
#
# 1 0.010368 -0.002105 0.003355 0.000000 0.000000 0.000000
# 2 -0.002105 0.026744 -0.000222 0.000000 0.000000 0.000000
# 3 0.003355 -0.000222 0.010725 0.000000 0.000000 0.000000
# 4 0.000000 0.000000 0.000000 0.091078 0.000000 0.000000
# 5 0.000000 0.000000 0.000000 0.000000 0.024903 0.000000
# 6 0.000000 0.000000 0.000000 0.000000 0.000000 -0.073909
#
#
# Mechanical properties :
#
#
# Convention : Reuss Voigt Hill
#
# Bulk Modulus (GPa) = 20.04211 21.78191 20.91201
# Shear Modulus (GPa) = 47.85434 26.08517 36.96975
#
# Velocity S-wave (km/s) = 4.52970 3.34431 3.98137
# Velocity P-wave (km/s) = 5.99591 4.92461 5.48647
#
# Compressibility (1/GPa) = 0.04989493
#
# Stress axis : x y z
#
# Youngs Moduli (GPa) = 96.44861 37.39179 93.23577
#
# Poissons Ratio (x) = 0.07872 -0.31285
# Poissons Ratio (y) = 0.20305 0.02065
# Poissons Ratio (z) = -0.32363 0.00828
#
# Static dielectric constant tensor:
#      x y z
#    x 1.865850 0.000000 0.000000 
#    y 0.000000 1.895920 0.000000 
#    z 0.000000 0.000000 1.939740 
# 
# From -- ./inp_files/280.got.cif
#   From: 2010.05.17/outbox.cif.g08.bks.cpg/sg45_1_cif.got.tgz:280.got - 2010.06.03 19:51:22.
