data_PCOD9376359
_publ_section_title
;
Structure prediction by ZEFSAII (Michael W. Deem and Ramdas Pophale) SiO2 
 PCOD9376359
Probable space group: I B A 2
;
_chemical_formula_sum "Si O2"
_cell_formula_units_Z 64
_cell_length_a 14.417391
_cell_length_b 12.438250
_cell_length_c 19.280364
_cell_angle_alpha 90.000000
_cell_angle_beta 90.000000
_cell_angle_gamma 90.000000
_cell_volume 3457.492025
_symmetry_space_group_name_H-M "I B A 2"
_symmetry_group_IT_number 45
_symmetry_cell_setting 'orthorhombic'
loop_
_space_group_symop_operation_xyz
x,y,z
-x,-y,z
-x,y,1/2+z
x,-y,1/2+z
1/2+x,1/2+y,1/2+z
1/2-x,1/2-y,1/2+z
1/2-x,1/2+y,z
1/2+x,1/2-y,z
loop_
_atom_site_type_symbol
_atom_site_label
_atom_site_fract_x
_atom_site_fract_y
_atom_site_fract_z
Si Si1 0.558993 0.225870 0.952780
Si Si2 0.704563 0.031713 0.960616
Si Si3 0.098937 0.970659 0.798827
Si Si4 0.901064 0.970659 0.961397
Si Si5 0.058993 0.725870 0.807444
Si Si6 0.204562 0.531713 0.799607
Si Si7 0.069551 0.602871 0.051349
Si Si8 0.930449 0.397129 0.208875
O O1 0.640435 0.137491 0.960027
O O2 0.604607 0.341959 0.962648
O O3 0.500000 0.219878 0.880112
O O4 0.484905 0.197186 0.012385
O O5 0.810414 0.033755 0.987417
O O6 0.708751 0.999999 0.880112
O O7 0.653276 0.939506 0.004408
O O8 0.104607 0.841960 0.797576
O O9 0.093180 0.000001 0.880112
O O10 0.189586 0.033755 0.772806
O O11 0.000000 0.000000 0.766049
O O12 0.000000 0.000000 0.994175
O O13 0.140435 0.637491 0.800196
O O14 0.984905 0.697187 0.747839
O O15 0.153275 0.439506 0.755817
O O16 0.095558 0.628989 0.130112
O O17 0.000000 0.500000 0.053296
O O18 0.000000 0.500000 0.206928
#
# Coordination Sequence:
#
# PCOD9376359 Si02
#       8
#     8   8   8   8   8   8   8   8
#     4  11  19  34  59  86 111 152 193 238 295 351
#     4  10  20  32  57  86 111 147 198 246 281 343
#     4  10  21  35  51  86 123 150 188 247 297 337
#     4  10  21  35  51  86 123 150 188 247 297 337
#     4  11  19  34  59  86 111 152 193 238 295 351
#     4  10  20  32  57  86 111 147 198 246 281 343
#     4   9  19  35  57  86 118 147 187 243 295 345
#     4   9  19  35  57  86 118 147 187 243 295 345
#
# _framework density 18.510528000000001
#
# number of rings (size 3 to 8) (size 9 to 14) (size 15 to 20)
#    0.000    2.000    5.000    0.000    0.000    6.000 
#    0.000    1.250    0.000    9.000    0.000    0.000 
#    0.000    0.000    0.000    0.000    0.000    0.000 
#
# Total GULP energy -178195.423481 kJ/mol
# GULP energy per Si atom -5568.606984 kJ/mol
# Density = 1.846840 g / cm^3
# Si number density = 18.510528 Si / 1000 Ang^3
#
#
#
# Elastic Constant Matrix: (Units=GPa)
#
#
# Indices 1 2 3 4 5 6 
#
# 1 146.8907 33.2883 19.9239 0.0000 0.0000 0.0000
# 2 33.2883 90.8551 9.5527 0.0000 0.0000 0.0000
# 3 19.9239 9.5527 86.6278 0.0000 0.0000 0.0000
# 4 0.0000 0.0000 0.0000 6.3871 0.0000 0.0000
# 5 0.0000 0.0000 0.0000 0.0000 -9.7285 0.0000
# 6 0.0000 0.0000 0.0000 0.0000 0.0000 15.1289
#
#
#
# Elastic Compliance Matrix: (Units=1/GPa)
#
#
# Indices 1 2 3 4 5 6 
#
# 1 0.007602 -0.002632 -0.001458 0.000000 0.000000 0.000000
# 2 -0.002632 0.012047 -0.000723 0.000000 0.000000 0.000000
# 3 -0.001458 -0.000723 0.011959 0.000000 0.000000 0.000000
# 4 0.000000 0.000000 0.000000 0.156564 0.000000 0.000000
# 5 0.000000 0.000000 0.000000 0.000000 -0.102790 0.000000
# 6 0.000000 0.000000 0.000000 0.000000 0.000000 0.066098
#
#
# Mechanical properties :
#
#
# Convention : Reuss Voigt Hill
#
# Bulk Modulus (GPa) = 45.49357 49.98926 47.74141
# Shear Modulus (GPa) = 29.68524 19.79809 24.74167
#
# Velocity S-wave (km/s) = 4.00896 3.27396 3.65996
# Velocity P-wave (km/s) = 6.78672 6.43088 6.61119
#
# Compressibility (1/GPa) = 0.02198113
#
# Stress axis : x y z
#
# Youngs Moduli (GPa) = 131.54389 83.00891 83.62082
#
# Poissons Ratio (x) = 0.21848 0.12193
# Poissons Ratio (y) = 0.34622 0.06047
# Poissons Ratio (z) = 0.19181 0.06002
#
# Static dielectric constant tensor:
#      x y z
#    x 1.707250 0.000000 0.000000 
#    y 0.000000 1.636800 0.000000 
#    z 0.000000 0.000000 1.615630 
# 
# From -- ./inp_files/8240.got.cif
#   From: 2010.05.17/outbox.cif.g08.bks.cpg/sg45_5_cif.got.tgz:8240.got - 2010.06.03 19:51:22.
