data_PCOD9376127
_publ_section_title
;
Structure prediction by ZEFSAII (Michael W. Deem and Ramdas Pophale) SiO2 
 PCOD9376127
Probable space group: I B A 2
;
_chemical_formula_sum "Si O2"
_cell_formula_units_Z 64
_cell_length_a 11.306531
_cell_length_b 16.946447
_cell_length_c 15.078557
_cell_angle_alpha 90.000000
_cell_angle_beta 90.000000
_cell_angle_gamma 90.000000
_cell_volume 2889.134881
_symmetry_space_group_name_H-M "I B A 2"
_symmetry_group_IT_number 45
_symmetry_cell_setting 'orthorhombic'
loop_
_space_group_symop_operation_xyz
x,y,z
-x,-y,z
-x,y,1/2+z
x,-y,1/2+z
1/2+x,1/2+y,1/2+z
1/2-x,1/2-y,1/2+z
1/2-x,1/2+y,z
1/2+x,1/2-y,z
loop_
_atom_site_type_symbol
_atom_site_label
_atom_site_fract_x
_atom_site_fract_y
_atom_site_fract_z
Si Si1 0.232757 0.911716 0.535540
Si Si2 0.609995 0.943689 0.510757
Si Si3 0.425571 0.251350 0.848485
Si Si4 0.875700 0.467418 0.303730
Si Si5 0.721406 0.380293 0.840565
Si Si6 0.201464 0.850149 0.713267
Si Si7 0.969355 0.297702 0.040714
Si Si8 0.609788 0.727368 0.213039
O O1 0.174350 0.893471 0.440333
O O2 0.158139 0.888399 0.621881
O O3 0.352777 0.856057 0.538779
O O4 0.277193 0.002988 0.536066
O O5 0.605241 0.935042 0.403630
O O6 0.581095 0.857185 0.547888
O O7 0.500000 0.000000 0.534967
O O8 0.318109 0.189583 0.847327
O O9 0.379605 0.330193 0.798119
O O10 0.534623 0.224935 0.787025
O O11 0.468118 0.250797 0.949372
O O12 0.790702 0.541849 0.315094
O O13 0.807956 0.406812 0.242716
O O14 0.000000 0.500000 0.268655
O O15 0.633693 0.354432 0.762727
O O16 0.264106 0.766832 0.692987
O O17 0.960930 0.238982 0.123036
#
# Coordination Sequence:
#
# PCOD9376127 Si02
#       8
#     8   8   8   8   8   8   8   8
#     4   8  16  30  48  76 111 141 178 231 285 337
#     4   8  14  27  49  76 107 139 174 224 285 339
#     4  10  20  35  51  75 111 145 182 231 287 351
#     4  10  18  32  55  81 108 142 183 233 290 341
#     4   9  19  35  53  76 109 145 185 235 289 346
#     4  10  20  32  51  80 108 141 187 236 288 343
#     4   9  17  31  51  78 109 143 182 226 282 345
#     4  10  20  34  53  76 106 148 187 226 287 352
#
# _framework density 22.151959999999999
#
# number of rings (size 3 to 8) (size 9 to 14) (size 15 to 20)
#    0.000    2.750    0.000    3.750    0.000    4.500 
#    0.000    8.125    0.000    0.000    0.000    5.250 
#    0.000    0.000    0.000    0.000    0.000    0.000 
#
# Total GULP energy -178381.543787 kJ/mol
# GULP energy per Si atom -5574.423243 kJ/mol
# Density = 2.210154 g / cm^3
# Si number density = 22.151960 Si / 1000 Ang^3
#
#
#
# Elastic Constant Matrix: (Units=GPa)
#
#
# Indices 1 2 3 4 5 6 
#
# 1 29.7222 26.0945 16.0283 0.0000 0.0000 0.0000
# 2 26.0945 66.8783 63.8106 0.0000 0.0000 0.0000
# 3 16.0283 63.8106 164.0780 0.0000 0.0000 0.0000
# 4 0.0000 0.0000 0.0000 12.2100 0.0000 0.0000
# 5 0.0000 0.0000 0.0000 0.0000 15.9803 0.0000
# 6 0.0000 0.0000 0.0000 0.0000 0.0000 30.8884
#
#
#
# Elastic Compliance Matrix: (Units=1/GPa)
#
#
# Indices 1 2 3 4 5 6 
#
# 1 0.053253 -0.025145 0.004577 0.000000 0.000000 0.000000
# 2 -0.025145 0.035647 -0.011407 0.000000 0.000000 0.000000
# 3 0.004577 -0.011407 0.010084 0.000000 0.000000 0.000000
# 4 0.000000 0.000000 0.000000 0.081900 0.000000 0.000000
# 5 0.000000 0.000000 0.000000 0.000000 0.062577 0.000000
# 6 0.000000 0.000000 0.000000 0.000000 0.000000 0.032375
#
#
# Mechanical properties :
#
#
# Convention : Reuss Voigt Hill
#
# Bulk Modulus (GPa) = 28.54413 52.50502 40.52458
# Shear Modulus (GPa) = 14.22619 22.13207 18.17913
#
# Velocity S-wave (km/s) = 2.53693 3.16429 2.86782
# Velocity P-wave (km/s) = 4.63626 6.09130 5.41290
#
# Compressibility (1/GPa) = 0.03503347
#
# Stress axis : x y z
#
# Youngs Moduli (GPa) = 18.77841 28.05246 99.16870
#
# Poissons Ratio (x) = 0.70538 -0.45389
# Poissons Ratio (y) = 0.47218 1.13123
# Poissons Ratio (z) = -0.08595 0.32000
#
# Static dielectric constant tensor:
#      x y z
#    x 1.860460 0.000000 0.000000 
#    y 0.000000 1.895790 0.000000 
#    z 0.000000 0.000000 1.835780 
# 
# From -- ./inp_files/6289.got.cif
#   From: 2010.05.17/outbox.cif.g08.bks.cpg/sg45_4_cif.got.tgz:6289.got - 2010.06.03 19:51:22.
