data_PCOD9376745
_publ_section_title
;
Structure prediction by ZEFSAII (Michael W. Deem and Ramdas Pophale) SiO2 
 PCOD9376745
Probable space group: I B A 2
;
_chemical_formula_sum "Si O2"
_cell_formula_units_Z 40
_cell_length_a 10.133012
_cell_length_b 11.237079
_cell_length_c 14.973580
_cell_angle_alpha 90.000000
_cell_angle_beta 90.000000
_cell_angle_gamma 90.000000
_cell_volume 1704.973520
_symmetry_space_group_name_H-M "I B A 2"
_symmetry_group_IT_number 45
_symmetry_cell_setting 'orthorhombic'
loop_
_space_group_symop_operation_xyz
x,y,z
-x,-y,z
-x,y,1/2+z
x,-y,1/2+z
1/2+x,1/2+y,1/2+z
1/2-x,1/2-y,1/2+z
1/2-x,1/2+y,z
1/2+x,1/2-y,z
loop_
_atom_site_type_symbol
_atom_site_label
_atom_site_fract_x
_atom_site_fract_y
_atom_site_fract_z
Si Si1 0.239865 0.185993 0.321950
Si Si2 0.239363 0.863738 0.015778
Si Si3 0.868452 0.055399 0.654034
Si Si4 0.514840 0.862882 0.781184
Si Si5 0.504227 0.214029 0.578596
O O1 0.201685 0.118655 0.412778
O O2 0.217359 0.106077 0.234252
O O3 0.394939 0.212922 0.322426
O O4 0.151544 0.302950 0.309455
O O5 0.398033 0.853148 0.018178
O O6 0.150374 0.747990 0.045147
O O7 0.201688 0.962602 0.088768
O O8 0.929453 0.160965 0.595207
O O9 0.000000 0.000000 0.697201
O O10 0.498456 0.849329 0.674469
O O11 0.500000 0.000000 0.807241
#
# Coordination Sequence:
#
# PCOD9376745 Si02
#       5
#     8   8   8   8   8
#     4  11  24  42  67 100 135 173 229 282 333 410
#     4  11  22  40  65  94 129 169 217 277 334 394
#     4   9  21  39  61  90 127 173 216 268 335 394
#     4  11  24  44  69  98 138 182 223 279 342 400
#     4  10  21  39  61  90 129 169 217 268 325 400
#
# _framework density 23.460775999999999
#
# number of rings (size 3 to 8) (size 9 to 14) (size 15 to 20)
#    0.000    1.600    0.000    4.800    0.000    7.200 
#    0.000    4.000    0.000    0.000    0.000    0.000 
#    0.000    0.000    0.000    0.000    0.000    0.000 
#
# Total GULP energy -111783.295844 kJ/mol
# GULP energy per Si atom -5589.164792 kJ/mol
# Density = 2.340738 g / cm^3
# Si number density = 23.460776 Si / 1000 Ang^3
#
#
#
# Elastic Constant Matrix: (Units=GPa)
#
#
# Indices 1 2 3 4 5 6 
#
# 1 134.8878 45.3156 13.1849 0.0000 0.0000 0.0000
# 2 45.3156 86.6389 20.4367 0.0000 0.0000 0.0000
# 3 13.1849 20.4367 108.3272 0.0000 0.0000 0.0000
# 4 0.0000 0.0000 0.0000 9.6399 0.0000 0.0000
# 5 0.0000 0.0000 0.0000 0.0000 11.6613 0.0000
# 6 0.0000 0.0000 0.0000 0.0000 0.0000 24.6458
#
#
#
# Elastic Compliance Matrix: (Units=1/GPa)
#
#
# Indices 1 2 3 4 5 6 
#
# 1 0.008999 -0.004656 -0.000217 0.000000 0.000000 0.000000
# 2 -0.004656 0.014488 -0.002167 0.000000 0.000000 0.000000
# 3 -0.000217 -0.002167 0.009666 0.000000 0.000000 0.000000
# 4 0.000000 0.000000 0.000000 0.103735 0.000000 0.000000
# 5 0.000000 0.000000 0.000000 0.000000 0.085754 0.000000
# 6 0.000000 0.000000 0.000000 0.000000 0.000000 0.040575
#
#
# Mechanical properties :
#
#
# Convention : Reuss Voigt Hill
#
# Bulk Modulus (GPa) = 52.42423 54.19202 53.30812
# Shear Modulus (GPa) = 17.62707 25.91717 21.77212
#
# Velocity S-wave (km/s) = 2.74404 3.32731 3.04965
# Velocity P-wave (km/s) = 5.69505 6.15715 5.93060
#
# Compressibility (1/GPa) = 0.01907515
#
# Stress axis : x y z
#
# Youngs Moduli (GPa) = 111.12577 69.02128 103.45054
#
# Poissons Ratio (x) = 0.32133 0.02245
# Poissons Ratio (y) = 0.51735 0.22414
# Poissons Ratio (z) = 0.02411 0.14955
#
# Static dielectric constant tensor:
#      x y z
#    x 1.956570 0.000000 0.000000 
#    y 0.000000 1.918700 0.000000 
#    z 0.000000 0.000000 1.873410 
# 
# From -- ./inp_files/7432.got.cif
#   From: 2010.05.17/outbox.cif.g08.bks.cpg/sg45_4_cif.got.tgz:7432.got - 2010.06.03 19:51:22.
