data_PCOD9376401
_publ_section_title
;
Structure prediction by ZEFSAII (Michael W. Deem and Ramdas Pophale) SiO2 
 PCOD9376401
Probable space group: I B A 2
;
_chemical_formula_sum "Si O2"
_cell_formula_units_Z 48
_cell_length_a 20.162005
_cell_length_b 9.791693
_cell_length_c 9.978544
_cell_angle_alpha 90.000000
_cell_angle_beta 90.000000
_cell_angle_gamma 90.000000
_cell_volume 1969.965785
_symmetry_space_group_name_H-M "I B A 2"
_symmetry_group_IT_number 45
_symmetry_cell_setting 'orthorhombic'
loop_
_space_group_symop_operation_xyz
x,y,z
-x,-y,z
-x,y,1/2+z
x,-y,1/2+z
1/2+x,1/2+y,1/2+z
1/2-x,1/2-y,1/2+z
1/2-x,1/2+y,z
1/2+x,1/2-y,z
loop_
_atom_site_type_symbol
_atom_site_label
_atom_site_fract_x
_atom_site_fract_y
_atom_site_fract_z
Si Si1 0.575166 0.588609 0.422870
Si Si2 0.437273 0.108595 0.357631
Si Si3 0.745996 0.393375 0.212896
Si Si4 0.575057 0.052353 0.138514
Si Si5 0.267271 0.362305 0.400872
Si Si6 0.587147 0.641948 0.719820
O O1 0.548231 0.731021 0.359981
O O2 0.655066 0.603305 0.417843
O O3 0.556982 0.591231 0.579069
O O4 0.562500 0.448648 0.343795
O O5 0.397049 0.079261 0.492557
O O6 0.500000 0.000000 0.354707
O O7 0.396381 0.068848 0.226396
O O8 0.761915 0.536278 0.286807
O O9 0.764976 0.281168 0.324163
O O10 0.665604 0.382898 0.211111
O O11 0.763212 0.371350 0.053144
O O12 0.577091 0.194868 0.217461
O O13 0.500000 0.000000 0.109876
#
# Coordination Sequence:
#
# PCOD9376401 Si02
#       6
#     8   8   8   8   8   8
#     4   9  19  35  55  79 106 140 181 223 269 323
#     4   9  18  34  54  76 103 134 172 218 267 319
#     4  10  20  35  54  79 111 145 184 227 274 328
#     4   9  18  34  54  76 103 134 172 218 267 319
#     4  10  20  35  54  79 111 145 184 227 274 328
#     4   9  19  35  55  79 106 140 181 223 269 323
#
# _framework density 24.365908000000001
#
# number of rings (size 3 to 8) (size 9 to 14) (size 15 to 20)
#    0.000    2.667    0.000    1.000    0.000    4.000 
#    0.000    6.667    0.000   18.000    0.000    0.000 
#    0.000    0.000    0.000    0.000    0.000    0.000 
#
# Total GULP energy -133769.895662 kJ/mol
# GULP energy per Si atom -5573.745653 kJ/mol
# Density = 2.431045 g / cm^3
# Si number density = 24.365908 Si / 1000 Ang^3
#
#
#
# Elastic Constant Matrix: (Units=GPa)
#
#
# Indices 1 2 3 4 5 6 
#
# 1 41.8148 -2.1745 -16.2273 0.0000 0.0000 0.0000
# 2 -2.1745 130.3314 75.2636 0.0000 0.0000 0.0000
# 3 -16.2273 75.2636 169.4596 0.0000 0.0000 0.0000
# 4 0.0000 0.0000 0.0000 171.5114 0.0000 0.0000
# 5 0.0000 0.0000 0.0000 0.0000 34.5636 0.0000
# 6 0.0000 0.0000 0.0000 0.0000 0.0000 35.8927
#
#
#
# Elastic Compliance Matrix: (Units=1/GPa)
#
#
# Indices 1 2 3 4 5 6 
#
# 1 0.025000 -0.001298 0.002971 0.000000 0.000000 0.000000
# 2 -0.001298 0.010387 -0.004738 0.000000 0.000000 0.000000
# 3 0.002971 -0.004738 0.008290 0.000000 0.000000 0.000000
# 4 0.000000 0.000000 0.000000 0.005831 0.000000 0.000000
# 5 0.000000 0.000000 0.000000 0.000000 0.028932 0.000000
# 6 0.000000 0.000000 0.000000 0.000000 0.000000 0.027861
#
#
# Mechanical properties :
#
#
# Convention : Reuss Voigt Hill
#
# Bulk Modulus (GPa) = 26.63371 50.59216 38.61294
# Shear Modulus (GPa) = 40.01709 67.37647 53.69678
#
# Velocity S-wave (km/s) = 4.05698 5.26422 4.69952
# Velocity P-wave (km/s) = 5.73584 7.59986 6.73267
#
# Compressibility (1/GPa) = 0.03754640
#
# Stress axis : x y z
#
# Youngs Moduli (GPa) = 39.99947 96.27483 120.63131
#
# Poissons Ratio (x) = 0.12500 -0.35836
# Poissons Ratio (y) = 0.05194 0.57150
# Poissons Ratio (z) = -0.11883 0.45611
#
# Static dielectric constant tensor:
#      x y z
#    x 1.966370 0.000000 0.000000 
#    y 0.000000 1.858070 0.000000 
#    z 0.000000 0.000000 2.054080 
# 
# From -- ./inp_files/4846.got.cif
#   From: 2010.05.17/outbox.cif.g08.bks.cpg/sg45_3_cif.got.tgz:4846.got - 2010.06.03 19:51:22.
