data_PCOD9376444
_publ_section_title
;
Structure prediction by ZEFSAII (Michael W. Deem and Ramdas Pophale) SiO2 
 PCOD9376444
Probable space group: I B A 2
;
_chemical_formula_sum "Si O2"
_cell_formula_units_Z 64
_cell_length_a 20.983168
_cell_length_b 9.436982
_cell_length_c 15.655934
_cell_angle_alpha 90.000000
_cell_angle_beta 90.000000
_cell_angle_gamma 90.000000
_cell_volume 3100.153274
_symmetry_space_group_name_H-M "I B A 2"
_symmetry_group_IT_number 45
_symmetry_cell_setting 'orthorhombic'
loop_
_space_group_symop_operation_xyz
x,y,z
-x,-y,z
-x,y,1/2+z
x,-y,1/2+z
1/2+x,1/2+y,1/2+z
1/2-x,1/2-y,1/2+z
1/2-x,1/2+y,z
1/2+x,1/2-y,z
loop_
_atom_site_type_symbol
_atom_site_label
_atom_site_fract_x
_atom_site_fract_y
_atom_site_fract_z
Si Si1 0.195057 0.903070 0.271440
Si Si2 0.074554 0.489512 0.433230
Si Si3 0.929289 0.781385 0.330038
Si Si4 0.703442 0.430980 0.968099
Si Si5 0.065765 0.965435 0.459657
Si Si6 0.570583 0.240044 0.821327
Si Si7 0.308584 0.708678 0.209513
Si Si8 0.687567 0.127833 0.030946
O O1 0.205101 0.965674 0.367185
O O2 0.126268 0.823215 0.272594
O O3 0.248594 0.786295 0.253099
O O4 0.200638 0.038125 0.208827
O O5 0.085420 0.328455 0.406173
O O6 0.086120 0.578995 0.345492
O O7 0.122472 0.551844 0.502521
O O8 0.000000 0.500000 0.456337
O O9 0.933985 0.931440 0.377389
O O10 0.872747 0.773897 0.263703
O O11 0.998344 0.750052 0.288178
O O12 0.633920 0.477169 0.003481
O O13 0.706130 0.260549 0.970444
O O14 0.758543 0.509320 0.018630
O O15 0.064662 0.811397 0.416132
O O16 0.000000 0.000000 0.507411
O O17 0.316365 0.792224 0.120884
#
# Coordination Sequence:
#
# PCOD9376444 Si02
#       8
#     8   8   8   8   8   8   8   8
#     4  11  22  40  65  92 119 167 222 256 305 374
#     4  10  21  39  65  93 122 163 209 261 307 376
#     4  10  20  36  65  96 116 159 210 255 312 368
#     4  11  22  40  65  88 119 167 216 258 306 381
#     4   9  17  34  63  94 115 143 210 268 300 355
#     4   9  18  37  64  93 116 149 214 261 295 361
#     4  12  25  39  60  91 131 164 200 265 320 378
#     4  12  25  41  59  91 136 166 203 262 329 375
#
# _framework density 20.64414
#
# number of rings (size 3 to 8) (size 9 to 14) (size 15 to 20)
#    0.000    1.500    5.000    2.250    3.500    0.000 
#    0.000    1.875    5.500    0.000    0.000    0.000 
#    0.000    0.000    0.000    0.000    0.000    0.000 
#
# Total GULP energy -178486.763227 kJ/mol
# GULP energy per Si atom -5577.711351 kJ/mol
# Density = 2.059715 g / cm^3
# Si number density = 20.644140 Si / 1000 Ang^3
#
#
#
# Elastic Constant Matrix: (Units=GPa)
#
#
# Indices 1 2 3 4 5 6 
#
# 1 165.8987 55.8759 32.3326 0.0000 0.0000 0.0000
# 2 55.8759 80.0370 17.3150 0.0000 0.0000 0.0000
# 3 32.3326 17.3150 47.9108 0.0000 0.0000 0.0000
# 4 0.0000 0.0000 0.0000 22.8736 0.0000 0.0000
# 5 0.0000 0.0000 0.0000 0.0000 8.8635 0.0000
# 6 0.0000 0.0000 0.0000 0.0000 0.0000 38.8383
#
#
#
# Elastic Compliance Matrix: (Units=1/GPa)
#
#
# Indices 1 2 3 4 5 6 
#
# 1 0.008503 -0.005093 -0.003897 0.000000 0.000000 0.000000
# 2 -0.005093 0.016604 -0.002564 0.000000 0.000000 0.000000
# 3 -0.003897 -0.002564 0.024429 0.000000 0.000000 0.000000
# 4 0.000000 0.000000 0.000000 0.043719 0.000000 0.000000
# 5 0.000000 0.000000 0.000000 0.000000 0.112823 0.000000
# 6 0.000000 0.000000 0.000000 0.000000 0.000000 0.025748
#
#
# Mechanical properties :
#
#
# Convention : Reuss Voigt Hill
#
# Bulk Modulus (GPa) = 37.83937 56.09928 46.96932
# Shear Modulus (GPa) = 18.95788 26.66993 22.81390
#
# Velocity S-wave (km/s) = 3.03366 3.59818 3.32792
# Velocity P-wave (km/s) = 5.53534 6.67053 6.12927
#
# Compressibility (1/GPa) = 0.02642750
#
# Stress axis : x y z
#
# Youngs Moduli (GPa) = 117.61049 60.22540 40.93501
#
# Poissons Ratio (x) = 0.30671 0.15954
# Poissons Ratio (y) = 0.59896 0.10496
# Poissons Ratio (z) = 0.45839 0.15442
#
# Static dielectric constant tensor:
#      x y z
#    x 1.778940 0.000000 0.000000 
#    y 0.000000 1.741410 0.000000 
#    z 0.000000 0.000000 1.742880 
# 
# From -- ./inp_files/8471.got.cif
#   From: 2010.05.17/outbox.cif.g08.bks.cpg/sg45_5_cif.got.tgz:8471.got - 2010.06.03 19:51:22.
