data_PCOD9376619
_publ_section_title
;
Structure prediction by ZEFSAII (Michael W. Deem and Ramdas Pophale) SiO2 
 PCOD9376619
Probable space group: I B A 2
;
_chemical_formula_sum "Si O2"
_cell_formula_units_Z 56
_cell_length_a 19.279375
_cell_length_b 10.979564
_cell_length_c 11.098550
_cell_angle_alpha 90.000000
_cell_angle_beta 90.000000
_cell_angle_gamma 90.000000
_cell_volume 2349.331427
_symmetry_space_group_name_H-M "I B A 2"
_symmetry_group_IT_number 45
_symmetry_cell_setting 'orthorhombic'
loop_
_space_group_symop_operation_xyz
x,y,z
-x,-y,z
-x,y,1/2+z
x,-y,1/2+z
1/2+x,1/2+y,1/2+z
1/2-x,1/2-y,1/2+z
1/2-x,1/2+y,z
1/2+x,1/2-y,z
loop_
_atom_site_type_symbol
_atom_site_label
_atom_site_fract_x
_atom_site_fract_y
_atom_site_fract_z
Si Si1 0.619516 0.842152 0.223480
Si Si2 0.000000 0.500000 0.109694
Si Si3 0.834631 0.865670 0.545238
Si Si4 0.478605 0.222642 0.432183
Si Si5 0.267557 0.966628 0.214139
Si Si6 0.000000 0.000000 0.898688
Si Si7 0.120496 0.953476 0.707533
Si Si8 0.373850 0.780095 0.313555
O O1 0.564983 0.945494 0.181735
O O2 0.626713 0.729964 0.133081
O O3 0.589004 0.793255 0.348511
O O4 0.694400 0.904489 0.210903
O O5 0.024177 0.382010 0.033005
O O6 0.756596 0.900126 0.589478
O O7 0.841334 0.804562 0.417565
O O8 0.878204 0.987520 0.574968
O O9 0.491808 0.366221 0.461505
O O10 0.548668 0.187069 0.355575
O O11 0.319905 0.885634 0.289547
O O12 0.191126 0.990514 0.263828
O O13 0.937923 0.013700 0.801640
O O14 0.121796 0.808394 0.699053
#
# Coordination Sequence:
#
# PCOD9376619 Si02
#       8
#     8   4   8   8   8   4   8   8
#     4  12  23  44  67 101 142 178 250 294 370 443
#     4  12  24  40  68 102 134 194 230 296 370 434
#     4  10  23  43  66  98 137 182 228 299 355 440
#     4  11  23  43  70  99 140 186 235 309 357 436
#     4  10  23  42  66  99 139 185 221 311 351 437
#     4  10  20  44  70  92 132 178 232 292 364 430
#     4   9  22  41  65  96 131 177 221 292 353 411
#     4  11  21  44  68  95 138 184 241 281 368 439
#
# _framework density 23.836566999999999
#
# number of rings (size 3 to 8) (size 9 to 14) (size 15 to 20)
#    0.857    0.571    2.857    3.000    0.000    1.143 
#    5.143   10.714    0.000    0.000    0.000    0.000 
#    0.000    0.000    0.000    0.000    0.000    0.000 
#
# Total GULP energy -156250.907800 kJ/mol
# GULP energy per Si atom -5580.389564 kJ/mol
# Density = 2.378231 g / cm^3
# Si number density = 23.836567 Si / 1000 Ang^3
#
#
#
# Elastic Constant Matrix: (Units=GPa)
#
#
# Indices 1 2 3 4 5 6 
#
# 1 120.0313 23.2024 0.4293 0.0000 0.0000 0.0000
# 2 23.2024 90.6050 20.2011 0.0000 0.0000 0.0000
# 3 0.4293 20.2011 40.0127 0.0000 0.0000 0.0000
# 4 0.0000 0.0000 0.0000 40.4044 0.0000 0.0000
# 5 0.0000 0.0000 0.0000 0.0000 18.9813 0.0000
# 6 0.0000 0.0000 0.0000 0.0000 0.0000 52.9367
#
#
#
# Elastic Compliance Matrix: (Units=1/GPa)
#
#
# Indices 1 2 3 4 5 6 
#
# 1 0.008814 -0.002520 0.001178 0.000000 0.000000 0.000000
# 2 -0.002520 0.013157 -0.006616 0.000000 0.000000 0.000000
# 3 0.001178 -0.006616 0.028319 0.000000 0.000000 0.000000
# 4 0.000000 0.000000 0.000000 0.024750 0.000000 0.000000
# 5 0.000000 0.000000 0.000000 0.000000 0.052683 0.000000
# 6 0.000000 0.000000 0.000000 0.000000 0.000000 0.018890
#
#
# Mechanical properties :
#
#
# Convention : Reuss Voigt Hill
#
# Bulk Modulus (GPa) = 29.09076 37.59050 33.34063
# Shear Modulus (GPa) = 28.73759 36.25223 32.49491
#
# Velocity S-wave (km/s) = 3.47596 3.90406 3.69621
# Velocity P-wave (km/s) = 5.32357 6.01054 5.67746
#
# Compressibility (1/GPa) = 0.03437517
#
# Stress axis : x y z
#
# Youngs Moduli (GPa) = 113.45585 76.00425 35.31142
#
# Poissons Ratio (x) = 0.19150 -0.04158
# Poissons Ratio (y) = 0.28587 0.23361
# Poissons Ratio (z) = -0.13360 0.50281
#
# Static dielectric constant tensor:
#      x y z
#    x 1.915240 0.000000 0.000000 
#    y 0.000000 1.994550 0.000000 
#    z 0.000000 0.000000 2.000570 
# 
# From -- ./inp_files/4644.got.cif
#   From: 2010.05.17/outbox.cif.g08.bks.cpg/sg45_3_cif.got.tgz:4644.got - 2010.06.03 19:51:22.
