data_PCOD9376409
_publ_section_title
;
Structure prediction by ZEFSAII (Michael W. Deem and Ramdas Pophale) SiO2 
 PCOD9376409
Probable space group: I B A 2
;
_chemical_formula_sum "Si O2"
_cell_formula_units_Z 64
_cell_length_a 20.963525
_cell_length_b 6.962046
_cell_length_c 17.392898
_cell_angle_alpha 90.000000
_cell_angle_beta 90.000000
_cell_angle_gamma 90.000000
_cell_volume 2538.476511
_symmetry_space_group_name_H-M "I B A 2"
_symmetry_group_IT_number 45
_symmetry_cell_setting 'orthorhombic'
loop_
_space_group_symop_operation_xyz
x,y,z
-x,-y,z
-x,y,1/2+z
x,-y,1/2+z
1/2+x,1/2+y,1/2+z
1/2-x,1/2-y,1/2+z
1/2-x,1/2+y,z
1/2+x,1/2-y,z
loop_
_atom_site_type_symbol
_atom_site_label
_atom_site_fract_x
_atom_site_fract_y
_atom_site_fract_z
Si Si1 0.861770 0.639603 0.326880
Si Si2 0.382620 0.682925 0.651924
Si Si3 0.010842 0.268612 0.401204
Si Si4 0.638230 0.139603 0.153004
Si Si5 0.489158 0.231388 0.578680
Si Si6 0.240271 0.874212 0.050032
Si Si7 0.617380 0.682925 0.327960
Si Si8 0.740271 0.625788 0.429851
O O1 0.916420 0.751174 0.373673
O O2 0.862013 0.706436 0.239942
O O3 0.876804 0.414056 0.326917
O O4 0.793462 0.646666 0.364814
O O5 0.456120 0.661451 0.626499
O O6 0.330324 0.616945 0.588779
O O7 0.370485 0.619521 0.739942
O O8 0.376804 0.914056 0.652966
O O9 0.000000 0.500000 0.394603
O O10 0.000000 0.220172 0.489942
O O11 0.956120 0.161451 0.353385
O O12 0.583580 0.251174 0.106211
O O13 0.706538 0.146666 0.115069
O O14 0.500000 0.000000 0.585281
O O15 0.252401 0.876916 0.952919
O O16 0.252401 0.123085 0.026964
O O17 0.669676 0.616945 0.391105
#
# Coordination Sequence:
#
# PCOD9376409 Si02
#       8
#     8   8   8   8   8   8   8   8
#     4  10  20  35  57  88 119 156 200 251 307 359
#     4  10  20  36  57  87 121 155 198 253 306 359
#     4   9  17  30  56  86 120 151 197 251 299 347
#     4  10  20  35  57  88 119 156 200 251 307 359
#     4   9  17  30  56  86 120 151 197 251 299 347
#     4  12  23  38  59  86 121 161 203 248 302 362
#     4  10  20  36  57  87 121 155 198 253 306 359
#     4  12  23  38  59  86 121 161 203 248 302 362
#
# _framework density 25.211970999999998
#
# number of rings (size 3 to 8) (size 9 to 14) (size 15 to 20)
#    0.000    1.750    2.500    3.000    3.500    3.000 
#    0.000    0.000    0.000    6.750    0.000    8.750 
#    0.000    0.000    0.000    0.000    0.000    0.000 
#
# Total GULP energy -178847.948669 kJ/mol
# GULP energy per Si atom -5588.998396 kJ/mol
# Density = 2.515459 g / cm^3
# Si number density = 25.211971 Si / 1000 Ang^3
#
#
#
# Elastic Constant Matrix: (Units=GPa)
#
#
# Indices 1 2 3 4 5 6 
#
# 1 184.2910 28.7578 87.2586 0.0000 0.0000 0.0000
# 2 28.7578 155.1226 14.5244 0.0000 0.0000 0.0000
# 3 87.2586 14.5244 160.1119 0.0000 0.0000 0.0000
# 4 0.0000 0.0000 0.0000 -1.7578 0.0000 0.0000
# 5 0.0000 0.0000 0.0000 0.0000 -33.2229 0.0000
# 6 0.0000 0.0000 0.0000 0.0000 0.0000 39.1638
#
#
#
# Elastic Compliance Matrix: (Units=1/GPa)
#
#
# Indices 1 2 3 4 5 6 
#
# 1 0.007468 -0.001012 -0.003978 0.000000 0.000000 0.000000
# 2 -0.001012 0.006639 -0.000051 0.000000 0.000000 0.000000
# 3 -0.003978 -0.000051 0.008418 0.000000 0.000000 0.000000
# 4 0.000000 0.000000 0.000000 -0.568899 0.000000 0.000000
# 5 0.000000 0.000000 0.000000 0.000000 -0.030100 0.000000
# 6 0.000000 0.000000 0.000000 0.000000 0.000000 0.025534
#
#
# Mechanical properties :
#
#
# Convention : Reuss Voigt Hill
#
# Bulk Modulus (GPa) = 80.36404 84.51189 82.43796
# Shear Modulus (GPa) = -9.31599 25.43562 8.05982
#
# Velocity S-wave (km/s) = -1.92434 3.17972 1.78991
# Velocity P-wave (km/s) = 5.19684 6.86106 6.08610
#
# Compressibility (1/GPa) = 0.01244338
#
# Stress axis : x y z
#
# Youngs Moduli (GPa) = 133.91209 150.62816 118.79102
#
# Poissons Ratio (x) = 0.15243 0.47254
# Poissons Ratio (y) = 0.13551 0.00603
# Poissons Ratio (z) = 0.53269 0.00764
#
# Static dielectric constant tensor:
#      x y z
#    x 1.843310 0.000000 0.000000 
#    y 0.000000 2.357430 0.000000 
#    z 0.000000 0.000000 1.886580 
# 
# From -- ./inp_files/6828.got.cif
#   From: 2010.05.17/outbox.cif.g08.bks.cpg/sg45_4_cif.got.tgz:6828.got - 2010.06.03 19:51:22.
