data_PCOD9376421
_publ_section_title
;
Structure prediction by ZEFSAII (Michael W. Deem and Ramdas Pophale) SiO2 
 PCOD9376421
Probable space group: I B A 2
;
_chemical_formula_sum "Si O2"
_cell_formula_units_Z 48
_cell_length_a 22.907438
_cell_length_b 11.388345
_cell_length_c 7.195809
_cell_angle_alpha 90.000000
_cell_angle_beta 90.000000
_cell_angle_gamma 90.000000
_cell_volume 1877.226872
_symmetry_space_group_name_H-M "I B A 2"
_symmetry_group_IT_number 45
_symmetry_cell_setting 'orthorhombic'
loop_
_space_group_symop_operation_xyz
x,y,z
-x,-y,z
-x,y,1/2+z
x,-y,1/2+z
1/2+x,1/2+y,1/2+z
1/2-x,1/2-y,1/2+z
1/2-x,1/2+y,z
1/2+x,1/2-y,z
loop_
_atom_site_type_symbol
_atom_site_label
_atom_site_fract_x
_atom_site_fract_y
_atom_site_fract_z
Si Si1 0.949037 0.802874 0.154290
Si Si2 0.311091 0.808893 0.558931
Si Si3 0.651033 0.833612 0.651624
Si Si4 0.145671 0.930303 0.514756
Si Si5 0.083214 0.839063 0.084850
Si Si6 0.245477 0.420650 0.908913
O O1 0.919243 0.674310 0.137914
O O2 0.924285 0.842967 0.357484
O O3 0.017525 0.818540 0.149008
O O4 0.920721 0.878409 0.983985
O O5 0.325100 0.858502 0.355824
O O6 0.373552 0.766768 0.639194
O O7 0.276839 0.688981 0.511513
O O8 0.275244 0.883686 0.705123
O O9 0.665586 0.695719 0.601983
O O10 0.684131 0.920493 0.517780
O O11 0.121220 0.044165 0.629458
O O12 0.203455 0.980931 0.412289
#
# Coordination Sequence:
#
# PCOD9376421 Si02
#       6
#     8   8   8   8   8   8
#     4   9  21  36  54  85 131 170 220 266 332 413
#     4  10  21  37  59  85 119 172 231 274 328 404
#     4   9  21  41  55  83 124 171 212 279 331 392
#     4   9  22  36  56  85 122 174 223 265 330 403
#     4  10  20  36  55  87 127 179 218 268 337 416
#     4  11  20  39  59  80 121 176 228 272 331 397
#
# _framework density 25.569634000000001
#
# number of rings (size 3 to 8) (size 9 to 14) (size 15 to 20)
#    1.000    1.333    1.667    0.500    2.333    5.333 
#    0.000    1.667    0.000    0.000    0.000    0.000 
#    0.000    5.333   18.333    1.000    1.000    0.000 
#
# Total GULP energy -133621.295366 kJ/mol
# GULP energy per Si atom -5567.553974 kJ/mol
# Density = 2.551144 g / cm^3
# Si number density = 25.569634 Si / 1000 Ang^3
#
#
#
# Elastic Constant Matrix: (Units=GPa)
#
#
# Indices 1 2 3 4 5 6 
#
# 1 227.2861 75.8440 75.9288 0.0000 0.0000 0.0000
# 2 75.8440 101.2316 56.9798 0.0000 0.0000 0.0000
# 3 75.9288 56.9798 86.2323 0.0000 0.0000 0.0000
# 4 0.0000 0.0000 0.0000 35.9873 0.0000 0.0000
# 5 0.0000 0.0000 0.0000 0.0000 51.7917 0.0000
# 6 0.0000 0.0000 0.0000 0.0000 0.0000 32.9379
#
#
#
# Elastic Compliance Matrix: (Units=1/GPa)
#
#
# Indices 1 2 3 4 5 6 
#
# 1 0.006664 -0.002691 -0.004090 0.000000 0.000000 0.000000
# 2 -0.002691 0.016814 -0.008741 0.000000 0.000000 0.000000
# 3 -0.004090 -0.008741 0.020974 0.000000 0.000000 0.000000
# 4 0.000000 0.000000 0.000000 0.027788 0.000000 0.000000
# 5 0.000000 0.000000 0.000000 0.000000 0.019308 0.000000
# 6 0.000000 0.000000 0.000000 0.000000 0.000000 0.030360
#
#
# Mechanical properties :
#
#
# Convention : Reuss Voigt Hill
#
# Bulk Modulus (GPa) = 74.57935 92.47281 83.52608
# Shear Modulus (GPa) = 31.76206 37.87653 34.81929
#
# Velocity S-wave (km/s) = 3.52828 3.85295 3.69418
# Velocity P-wave (km/s) = 6.76970 7.48580 7.13674
#
# Compressibility (1/GPa) = 0.01340854
#
# Stress axis : x y z
#
# Youngs Moduli (GPa) = 150.06371 59.47276 47.67896
#
# Poissons Ratio (x) = 0.16002 0.19499
# Poissons Ratio (y) = 0.40378 0.41678
# Poissons Ratio (z) = 0.61371 0.51987
#
# Static dielectric constant tensor:
#      x y z
#    x 2.021950 0.000000 0.000000 
#    y 0.000000 2.129450 0.000000 
#    z 0.000000 0.000000 2.272530 
# 
# From -- ./inp_files/2490.got.cif
#   From: 2010.05.17/outbox.cif.g08.bks.cpg/sg45_2_cif.got.tgz:2490.got - 2010.06.03 19:51:22.
