data_PCOD9376600
_publ_section_title
;
Structure prediction by ZEFSAII (Michael W. Deem and Ramdas Pophale) SiO2 
 PCOD9376600
Probable space group: I B A 2
;
_chemical_formula_sum "Si O2"
_cell_formula_units_Z 60
_cell_length_a 30.068225
_cell_length_b 8.630039
_cell_length_c 10.845193
_cell_angle_alpha 90.000000
_cell_angle_beta 90.000000
_cell_angle_gamma 90.000000
_cell_volume 2814.218637
_symmetry_space_group_name_H-M "I B A 2"
_symmetry_group_IT_number 45
_symmetry_cell_setting 'orthorhombic'
loop_
_space_group_symop_operation_xyz
x,y,z
-x,-y,z
-x,y,1/2+z
x,-y,1/2+z
1/2+x,1/2+y,1/2+z
1/2-x,1/2-y,1/2+z
1/2-x,1/2+y,z
1/2+x,1/2-y,z
loop_
_atom_site_type_symbol
_atom_site_label
_atom_site_fract_x
_atom_site_fract_y
_atom_site_fract_z
Si Si1 0.436078 0.272922 0.158720
Si Si2 0.075077 0.414076 0.882768
Si Si3 0.305586 0.707658 0.261110
Si Si4 0.652428 0.273808 0.995746
Si Si5 0.475250 0.800849 0.432830
Si Si6 0.500000 0.500000 0.801336
Si Si7 0.293407 0.335573 0.255450
Si Si8 0.649856 0.352126 0.511465
O O1 0.412152 0.160151 0.253315
O O2 0.461771 0.414852 0.222101
O O3 0.398996 0.317673 0.061210
O O4 0.472972 0.185093 0.079921
O O5 0.108860 0.333636 0.977424
O O6 0.065235 0.595938 0.881864
O O7 0.024504 0.354768 0.898398
O O8 0.297832 0.521868 0.263124
O O9 0.257876 0.789047 0.263949
O O10 0.334774 0.730210 0.385077
O O11 0.327597 0.756441 0.131268
O O12 0.682742 0.253030 0.872712
O O13 0.647260 0.461110 0.994094
O O14 0.475197 0.626057 0.384885
O O15 0.316311 0.303681 0.122289
#
# Coordination Sequence:
#
# PCOD9376600 Si02
#       8
#     8   8   8   8   8   4   8   8
#     4  11  23  43  65  98 136 172 233 284 339 413
#     4  10  23  46  66  93 140 181 223 282 352 405
#     4  10  22  40  66  98 130 178 227 285 353 419
#     4  10  21  40  67  94 130 185 225 283 347 419
#     4  10  24  42  65  99 133 177 228 282 342 408
#     4  10  24  40  72  98 126 186 234 276 344 426
#     4  10  20  42  65  91 134 175 229 287 352 414
#     4  10  22  39  65  98 132 176 232 285 338 419
#
# _framework density 21.320305999999999
#
# number of rings (size 3 to 8) (size 9 to 14) (size 15 to 20)
#    0.000    1.867    1.333    1.200    5.600    4.267 
#    9.600    0.000    0.000    0.000    0.000    0.000 
#    0.000    0.000    0.000    0.000    0.000    0.000 
#
# Total GULP energy -167226.460763 kJ/mol
# GULP energy per Si atom -5574.215359 kJ/mol
# Density = 2.127178 g / cm^3
# Si number density = 21.320306 Si / 1000 Ang^3
#
#
#
# Elastic Constant Matrix: (Units=GPa)
#
#
# Indices 1 2 3 4 5 6 
#
# 1 112.9015 53.5644 75.1915 0.0000 0.0000 0.0000
# 2 53.5644 62.9101 52.2501 0.0000 0.0000 0.0000
# 3 75.1915 52.2501 150.0836 0.0000 0.0000 0.0000
# 4 0.0000 0.0000 0.0000 3.2079 0.0000 0.0000
# 5 0.0000 0.0000 0.0000 0.0000 48.0645 0.0000
# 6 0.0000 0.0000 0.0000 0.0000 0.0000 35.5141
#
#
#
# Elastic Compliance Matrix: (Units=1/GPa)
#
#
# Indices 1 2 3 4 5 6 
#
# 1 0.017106 -0.010476 -0.004923 0.000000 0.000000 0.000000
# 2 -0.010476 0.028777 -0.004770 0.000000 0.000000 0.000000
# 3 -0.004923 -0.004770 0.010790 0.000000 0.000000 0.000000
# 4 0.000000 0.000000 0.000000 0.311734 0.000000 0.000000
# 5 0.000000 0.000000 0.000000 0.000000 0.020805 0.000000
# 6 0.000000 0.000000 0.000000 0.000000 0.000000 0.028158
#
#
# Mechanical properties :
#
#
# Convention : Reuss Voigt Hill
#
# Bulk Modulus (GPa) = 61.21757 76.43412 68.82584
# Shear Modulus (GPa) = 10.79554 27.01658 18.90606
#
# Velocity S-wave (km/s) = 2.25266 3.56360 2.98109
# Velocity P-wave (km/s) = 5.96168 7.27053 6.64839
#
# Compressibility (1/GPa) = 0.01633518
#
# Stress axis : x y z
#
# Youngs Moduli (GPa) = 58.45835 34.74962 92.67845
#
# Poissons Ratio (x) = 0.36404 0.45626
# Poissons Ratio (y) = 0.61242 0.44208
# Poissons Ratio (z) = 0.28779 0.16576
#
# Static dielectric constant tensor:
#      x y z
#    x 1.775560 0.000000 0.000000 
#    y 0.000000 1.789240 0.000000 
#    z 0.000000 0.000000 1.841730 
# 
# From -- ./inp_files/4944.got.cif
#   From: 2010.05.17/outbox.cif.g08.bks.cpg/sg45_3_cif.got.tgz:4944.got - 2010.06.03 19:51:22.
