data_PCOD9376973
_publ_section_title
;
Structure prediction by ZEFSAII (Michael W. Deem and Ramdas Pophale) SiO2 
 PCOD9376973
Probable space group: I B A 2
;
_chemical_formula_sum "Si O2"
_cell_formula_units_Z 60
_cell_length_a 17.006659
_cell_length_b 16.256393
_cell_length_c 8.615066
_cell_angle_alpha 90.000000
_cell_angle_beta 90.000000
_cell_angle_gamma 90.000000
_cell_volume 2381.780869
_symmetry_space_group_name_H-M "I B A 2"
_symmetry_group_IT_number 45
_symmetry_cell_setting 'orthorhombic'
loop_
_space_group_symop_operation_xyz
x,y,z
-x,-y,z
-x,y,1/2+z
x,-y,1/2+z
1/2+x,1/2+y,1/2+z
1/2-x,1/2-y,1/2+z
1/2-x,1/2+y,z
1/2+x,1/2-y,z
loop_
_atom_site_type_symbol
_atom_site_label
_atom_site_fract_x
_atom_site_fract_y
_atom_site_fract_z
Si Si1 0.752288 0.596274 0.318840
Si Si2 0.613197 0.180003 0.208036
Si Si3 0.547653 0.614822 0.529280
Si Si4 0.000000 0.500000 0.470155
Si Si5 0.060662 0.618597 0.210436
Si Si6 0.325516 0.479424 0.025545
Si Si7 0.605319 0.658433 0.872824
Si Si8 0.847208 0.248891 0.379331
O O1 0.841018 0.598876 0.260195
O O2 0.694886 0.552127 0.195707
O O3 0.737607 0.547839 0.476456
O O4 0.724998 0.691078 0.333878
O O5 0.521276 0.166840 0.177883
O O6 0.617349 0.245664 0.348531
O O7 0.655658 0.210449 0.050489
O O8 0.591282 0.527847 0.501046
O O9 0.571641 0.632476 0.705702
O O10 0.456453 0.633028 0.504862
O O11 0.585456 0.680233 0.410215
O O12 0.955122 0.434167 0.365069
O O13 0.938717 0.551692 0.574517
O O14 0.127502 0.684582 0.251258
O O15 0.321486 0.399080 0.915505
#
# Coordination Sequence:
#
# PCOD9376973 Si02
#       8
#     8   8   8   4   8   8   8   8
#     4  11  27  47  70 103 150 197 240 294 362 442
#     4  11  25  45  72 104 138 189 245 292 363 434
#     4  10  22  39  67 103 142 179 231 296 363 428
#     4  10  24  38  70 104 134 172 230 292 364 406
#     4  11  21  46  70 103 136 177 234 302 353 427
#     4  11  24  45  67 101 149 192 236 293 369 438
#     4  11  23  39  69 106 139 181 234 301 360 432
#     4  10  23  45  71 102 140 183 240 297 353 430
#
# _framework density 25.191234000000001
#
# number of rings (size 3 to 8) (size 9 to 14) (size 15 to 20)
#    0.000    1.333    4.000    0.400    5.600    3.200 
#    0.000    0.000    0.000    0.000    0.000    0.000 
#    0.000    0.000    0.000    0.000    0.000    0.000 
#
# Total GULP energy -167787.211894 kJ/mol
# GULP energy per Si atom -5592.907063 kJ/mol
# Density = 2.513390 g / cm^3
# Si number density = 25.191234 Si / 1000 Ang^3
#
#
#
# Elastic Constant Matrix: (Units=GPa)
#
#
# Indices 1 2 3 4 5 6 
#
# 1 52.0889 12.7784 0.0572 0.0000 0.0000 0.0000
# 2 12.7784 88.3624 27.5867 0.0000 0.0000 0.0000
# 3 0.0572 27.5867 93.9043 0.0000 0.0000 0.0000
# 4 0.0000 0.0000 0.0000 47.6059 0.0000 0.0000
# 5 0.0000 0.0000 0.0000 0.0000 20.3128 0.0000
# 6 0.0000 0.0000 0.0000 0.0000 0.0000 14.9168
#
#
#
# Elastic Compliance Matrix: (Units=1/GPa)
#
#
# Indices 1 2 3 4 5 6 
#
# 1 0.019976 -0.003176 0.000921 0.000000 0.000000 0.000000
# 2 -0.003176 0.012965 -0.003807 0.000000 0.000000 0.000000
# 3 0.000921 -0.003807 0.011767 0.000000 0.000000 0.000000
# 4 0.000000 0.000000 0.000000 0.021006 0.000000 0.000000
# 5 0.000000 0.000000 0.000000 0.000000 0.049230 0.000000
# 6 0.000000 0.000000 0.000000 0.000000 0.000000 0.067039
#
#
# Mechanical properties :
#
#
# Convention : Reuss Voigt Hill
#
# Bulk Modulus (GPa) = 30.69033 35.02224 32.85629
# Shear Modulus (GPa) = 24.39404 29.49597 26.94501
#
# Velocity S-wave (km/s) = 3.11522 3.42553 3.27405
# Velocity P-wave (km/s) = 5.01486 5.43860 5.23102
#
# Compressibility (1/GPa) = 0.03258355
#
# Stress axis : x y z
#
# Youngs Moduli (GPa) = 50.05966 77.13159 84.98403
#
# Poissons Ratio (x) = 0.24500 -0.07827
# Poissons Ratio (y) = 0.15901 0.32352
# Poissons Ratio (z) = -0.04610 0.29363
#
# Static dielectric constant tensor:
#      x y z
#    x 2.056360 0.000000 0.000000 
#    y 0.000000 2.033420 0.000000 
#    z 0.000000 0.000000 1.952170 
# 
# From -- ./inp_files/2145.got.cif
#   From: 2010.05.17/outbox.cif.g08.bks.cpg/sg45_2_cif.got.tgz:2145.got - 2010.06.03 19:51:22.
