data_PCOD9376258
_publ_section_title
;
Structure prediction by ZEFSAII (Michael W. Deem and Ramdas Pophale) SiO2 
 PCOD9376258
Probable space group: I B A 2
;
_chemical_formula_sum "Si O2"
_cell_formula_units_Z 48
_cell_length_a 25.031680
_cell_length_b 8.437022
_cell_length_c 8.898570
_cell_angle_alpha 90.000000
_cell_angle_beta 90.000000
_cell_angle_gamma 90.000000
_cell_volume 1879.314224
_symmetry_space_group_name_H-M "I B A 2"
_symmetry_group_IT_number 45
_symmetry_cell_setting 'orthorhombic'
loop_
_space_group_symop_operation_xyz
x,y,z
-x,-y,z
-x,y,1/2+z
x,-y,1/2+z
1/2+x,1/2+y,1/2+z
1/2-x,1/2-y,1/2+z
1/2-x,1/2+y,z
1/2+x,1/2-y,z
loop_
_atom_site_type_symbol
_atom_site_label
_atom_site_fract_x
_atom_site_fract_y
_atom_site_fract_z
Si Si1 0.065914 0.600591 0.411660
Si Si2 0.472795 0.212595 0.748266
Si Si3 0.732293 0.097172 0.591183
Si Si4 0.169723 0.091523 0.679926
Si Si5 0.668963 0.068123 0.319093
Si Si6 0.888999 0.103666 0.889036
O O1 0.045805 0.421824 0.370236
O O2 0.048405 0.660308 0.580561
O O3 0.128394 0.569080 0.377289
O O4 0.035980 0.704289 0.282801
O O5 0.445900 0.372070 0.810463
O O6 0.708522 0.260532 0.653128
O O7 0.723192 0.081354 0.415080
O O8 0.791346 0.054494 0.638138
O O9 0.688817 0.974392 0.655983
O O10 0.120108 0.106847 0.565440
O O11 0.142486 0.050785 0.835582
O O12 0.641488 0.237909 0.332156
#
# Coordination Sequence:
#
# PCOD9376258 Si02
#       6
#     8   8   8   8   8   8
#     4  10  19  34  61  94 131 167 217 276 328 390
#     4  10  20  36  62  98 132 172 221 280 338 395
#     4  11  23  38  62  92 127 166 214 268 341 408
#     4  11  24  41  62  91 126 168 215 274 335 415
#     4  10  21  38  61  94 127 165 212 268 329 400
#     4  10  23  41  62  90 127 167 217 269 333 398
#
# _framework density 25.541229999999999
#
# number of rings (size 3 to 8) (size 9 to 14) (size 15 to 20)
#    0.000    1.667    0.000    6.000    0.000    9.333 
#    0.000    0.000    0.000    8.000    0.000    0.000 
#    0.000    0.000    0.000    0.000    0.000    0.000 
#
# Total GULP energy -133893.662831 kJ/mol
# GULP energy per Si atom -5578.902618 kJ/mol
# Density = 2.548310 g / cm^3
# Si number density = 25.541230 Si / 1000 Ang^3
#
#
#
# Elastic Constant Matrix: (Units=GPa)
#
#
# Indices 1 2 3 4 5 6 
#
# 1 70.6636 14.1093 -0.4669 0.0000 0.0000 0.0000
# 2 14.1093 64.9795 0.7870 0.0000 0.0000 0.0000
# 3 -0.4669 0.7870 41.6363 0.0000 0.0000 0.0000
# 4 0.0000 0.0000 0.0000 22.3505 0.0000 0.0000
# 5 0.0000 0.0000 0.0000 0.0000 33.7741 0.0000
# 6 0.0000 0.0000 0.0000 0.0000 0.0000 34.6260
#
#
#
# Elastic Compliance Matrix: (Units=1/GPa)
#
#
# Indices 1 2 3 4 5 6 
#
# 1 0.014795 -0.003215 0.000227 0.000000 0.000000 0.000000
# 2 -0.003215 0.016092 -0.000340 0.000000 0.000000 0.000000
# 3 0.000227 -0.000340 0.024026 0.000000 0.000000 0.000000
# 4 0.000000 0.000000 0.000000 0.044742 0.000000 0.000000
# 5 0.000000 0.000000 0.000000 0.000000 0.029609 0.000000
# 6 0.000000 0.000000 0.000000 0.000000 0.000000 0.028880
#
#
# Mechanical properties :
#
#
# Convention : Reuss Voigt Hill
#
# Bulk Modulus (GPa) = 20.72296 22.90424 21.81360
# Shear Modulus (GPa) = 27.64167 29.00678 28.32423
#
# Velocity S-wave (km/s) = 3.29331 3.37365 3.33372
# Velocity P-wave (km/s) = 4.75314 4.91552 4.83501
#
# Compressibility (1/GPa) = 0.04825566
#
# Stress axis : x y z
#
# Youngs Moduli (GPa) = 67.59021 62.14372 41.62078
#
# Poissons Ratio (x) = 0.19981 -0.00943
# Poissons Ratio (y) = 0.21732 0.01416
# Poissons Ratio (z) = -0.01532 0.02114
#
# Static dielectric constant tensor:
#      x y z
#    x 2.198190 0.000000 0.000000 
#    y 0.000000 2.119500 0.000000 
#    z 0.000000 0.000000 1.970990 
# 
# From -- ./inp_files/2730.got.cif
#   From: 2010.05.17/outbox.cif.g08.bks.cpg/sg45_2_cif.got.tgz:2730.got - 2010.06.03 19:51:22.
