data_PCOD9376248
_publ_section_title
;
Structure prediction by ZEFSAII (Michael W. Deem and Ramdas Pophale) SiO2 
 PCOD9376248
Probable space group: I B A 2
;
_chemical_formula_sum "Si O2"
_cell_formula_units_Z 64
_cell_length_a 15.176267
_cell_length_b 19.509540
_cell_length_c 8.486323
_cell_angle_alpha 90.000000
_cell_angle_beta 90.000000
_cell_angle_gamma 90.000000
_cell_volume 2512.647385
_symmetry_space_group_name_H-M "I B A 2"
_symmetry_group_IT_number 45
_symmetry_cell_setting 'orthorhombic'
loop_
_space_group_symop_operation_xyz
x,y,z
-x,-y,z
-x,y,1/2+z
x,-y,1/2+z
1/2+x,1/2+y,1/2+z
1/2-x,1/2-y,1/2+z
1/2-x,1/2+y,z
1/2+x,1/2-y,z
loop_
_atom_site_type_symbol
_atom_site_label
_atom_site_fract_x
_atom_site_fract_y
_atom_site_fract_z
Si Si1 0.108608 0.543967 0.177390
Si Si2 0.856566 0.188849 0.780814
Si Si3 0.721626 0.715986 0.093747
Si Si4 0.185641 0.907610 0.308919
Si Si5 0.897493 0.406515 0.835232
Si Si6 0.679568 0.548295 0.654563
Si Si7 0.888481 0.667690 0.891055
Si Si8 0.994620 0.719789 0.168898
O O1 0.078221 0.468020 0.217670
O O2 0.214399 0.543207 0.155223
O O3 0.097023 0.590348 0.333936
O O4 0.075460 0.576258 0.014120
O O5 0.779995 0.222812 0.669589
O O6 0.845098 0.107286 0.779570
O O7 0.951923 0.208374 0.714151
O O8 0.845130 0.225232 0.949212
O O9 0.677877 0.664809 0.220659
O O10 0.799429 0.676101 0.989451
O O11 0.291764 0.907230 0.331472
O O12 0.149872 0.922348 0.484659
O O13 0.152868 0.971416 0.202577
O O14 0.936054 0.338493 0.759180
O O15 0.905322 0.706258 0.723167
O O16 0.963369 0.704013 0.993875
#
# Coordination Sequence:
#
# PCOD9376248 Si02
#       8
#     8   8   8   8   8   8   8   8
#     4  10  20  32  57  75 110 152 199 231 289 330
#     4  11  22  36  57  86 117 157 194 251 294 358
#     4  11  22  37  58  84 120 151 200 242 298 351
#     4  10  19  35  57  88 118 156 188 243 289 361
#     4  10  19  34  51  80 109 154 190 240 273 342
#     4  10  20  33  59  88 120 154 190 242 300 345
#     4  11  22  39  53  78 107 162 196 246 281 348
#     4  11  24  38  56  77 120 152 205 242 291 348
#
# _framework density 25.471140999999999
#
# number of rings (size 3 to 8) (size 9 to 14) (size 15 to 20)
#    0.000    1.500    3.750    3.000    5.250    1.500 
#    0.000    2.500    0.000    0.000    0.000    0.000 
#    0.000   65.000    0.000    0.000    0.000    0.000 
#
# Total GULP energy -178894.293177 kJ/mol
# GULP energy per Si atom -5590.446662 kJ/mol
# Density = 2.541317 g / cm^3
# Si number density = 25.471141 Si / 1000 Ang^3
#
#
#
# Elastic Constant Matrix: (Units=GPa)
#
#
# Indices 1 2 3 4 5 6 
#
# 1 20.5553 -1.1642 -8.3321 0.0000 0.0000 0.0000
# 2 -1.1642 116.5494 1.4684 0.0000 0.0000 0.0000
# 3 -8.3321 1.4684 97.8847 0.0000 0.0000 0.0000
# 4 0.0000 0.0000 0.0000 37.8632 0.0000 0.0000
# 5 0.0000 0.0000 0.0000 0.0000 22.3897 0.0000
# 6 0.0000 0.0000 0.0000 0.0000 0.0000 28.2374
#
#
#
# Elastic Compliance Matrix: (Units=1/GPa)
#
#
# Indices 1 2 3 4 5 6 
#
# 1 0.050411 0.000450 0.004284 0.000000 0.000000 0.000000
# 2 0.000450 0.008586 -0.000091 0.000000 0.000000 0.000000
# 3 0.004284 -0.000091 0.010582 0.000000 0.000000 0.000000
# 4 0.000000 0.000000 0.000000 0.026411 0.000000 0.000000
# 5 0.000000 0.000000 0.000000 0.000000 0.044663 0.000000
# 6 0.000000 0.000000 0.000000 0.000000 0.000000 0.035414
#
#
# Mechanical properties :
#
#
# Convention : Reuss Voigt Hill
#
# Bulk Modulus (GPa) = 12.67971 24.32595 18.50283
# Shear Modulus (GPa) = 25.89740 33.89920 29.89830
#
# Velocity S-wave (km/s) = 3.19209 3.65209 3.42981
# Velocity P-wave (km/s) = 4.30985 5.23018 4.79216
#
# Compressibility (1/GPa) = 0.07886618
#
# Stress axis : x y z
#
# Youngs Moduli (GPa) = 19.83675 116.47297 94.49878
#
# Poissons Ratio (x) = -0.05237 -0.40487
# Poissons Ratio (y) = -0.00892 0.00855
# Poissons Ratio (z) = -0.08499 0.01054
#
# Static dielectric constant tensor:
#      x y z
#    x 2.124190 0.000000 0.000000 
#    y 0.000000 2.009690 0.000000 
#    z 0.000000 0.000000 2.062780 
# 
# From -- ./inp_files/2378.got.cif
#   From: 2010.05.17/outbox.cif.g08.bks.cpg/sg45_2_cif.got.tgz:2378.got - 2010.06.03 19:51:22.
