data_PCOD9376339
_publ_section_title
;
Structure prediction by ZEFSAII (Michael W. Deem and Ramdas Pophale) SiO2 
 PCOD9376339
Probable space group: I B A 2
;
_chemical_formula_sum "Si O2"
_cell_formula_units_Z 56
_cell_length_a 12.140748
_cell_length_b 14.718524
_cell_length_c 14.498640
_cell_angle_alpha 90.000000
_cell_angle_beta 90.000000
_cell_angle_gamma 90.000000
_cell_volume 2590.818393
_symmetry_space_group_name_H-M "I B A 2"
_symmetry_group_IT_number 45
_symmetry_cell_setting 'orthorhombic'
loop_
_space_group_symop_operation_xyz
x,y,z
-x,-y,z
-x,y,1/2+z
x,-y,1/2+z
1/2+x,1/2+y,1/2+z
1/2-x,1/2-y,1/2+z
1/2-x,1/2+y,z
1/2+x,1/2-y,z
loop_
_atom_site_type_symbol
_atom_site_label
_atom_site_fract_x
_atom_site_fract_y
_atom_site_fract_z
Si Si1 0.521838 0.192758 0.454250
Si Si2 0.402389 0.182880 0.273402
Si Si3 0.897911 0.137326 0.160887
Si Si4 0.192684 0.626471 0.538377
Si Si5 0.355215 0.070882 0.099886
Si Si6 0.324819 0.345743 0.869448
Si Si7 0.879087 0.071455 0.677879
O O1 0.484208 0.156182 0.354904
O O2 0.405191 0.195214 0.510224
O O3 0.596874 0.126347 0.514343
O O4 0.592134 0.281359 0.426145
O O5 0.425599 0.279084 0.226282
O O6 0.407769 0.107039 0.194567
O O7 0.281496 0.197909 0.318452
O O8 0.789257 0.164724 0.103653
O O9 0.017006 0.108876 0.119938
O O10 0.869821 0.036644 0.196858
O O11 0.138191 0.536578 0.581736
O O12 0.261934 0.595310 0.447457
O O13 0.228046 0.094631 0.119433
O O14 0.383497 0.390601 0.782029
#
# Coordination Sequence:
#
# PCOD9376339 Si02
#       7
#     8   8   8   8   8   8   8
#     4  11  22  42  67  99 136 171 225 281 337 407
#     4  10  22  40  68  99 131 177 225 278 340 403
#     4  10  19  41  66  97 128 176 218 274 337 400
#     4  10  23  41  65  93 136 176 225 279 339 405
#     4  10  22  43  66  99 134 177 224 281 342 405
#     4  10  21  41  61  97 133 170 224 278 334 406
#     4   9  20  40  69  93 135 172 223 274 340 406
#
# _framework density 21.614792000000001
#
# number of rings (size 3 to 8) (size 9 to 14) (size 15 to 20)
#    0.000    2.000    1.429    1.286    0.000    2.286 
#   15.429   17.143    0.000    0.000    0.000    0.000 
#    0.000    0.000    0.000    0.000    0.000    0.000 
#
# Total GULP energy -155871.005501 kJ/mol
# GULP energy per Si atom -5566.821625 kJ/mol
# Density = 2.156560 g / cm^3
# Si number density = 21.614792 Si / 1000 Ang^3
#
#
#
# Elastic Constant Matrix: (Units=GPa)
#
#
# Indices 1 2 3 4 5 6 
#
# 1 80.2859 48.1678 66.3468 0.0000 0.0000 0.0000
# 2 48.1678 60.0099 56.0201 0.0000 0.0000 0.0000
# 3 66.3468 56.0201 101.6459 0.0000 0.0000 0.0000
# 4 0.0000 0.0000 0.0000 19.8942 0.0000 0.0000
# 5 0.0000 0.0000 0.0000 0.0000 30.0479 0.0000
# 6 0.0000 0.0000 0.0000 0.0000 0.0000 22.5971
#
#
#
# Elastic Compliance Matrix: (Units=1/GPa)
#
#
# Indices 1 2 3 4 5 6 
#
# 1 0.030903 -0.012306 -0.013389 0.000000 0.000000 0.000000
# 2 -0.012306 0.039223 -0.013584 0.000000 0.000000 0.000000
# 3 -0.013389 -0.013584 0.026064 0.000000 0.000000 0.000000
# 4 0.000000 0.000000 0.000000 0.050266 0.000000 0.000000
# 5 0.000000 0.000000 0.000000 0.000000 0.033280 0.000000
# 6 0.000000 0.000000 0.000000 0.000000 0.000000 0.044253
#
#
# Mechanical properties :
#
#
# Convention : Reuss Voigt Hill
#
# Bulk Modulus (GPa) = 56.71763 64.77901 60.74832
# Shear Modulus (GPa) = 16.21141 19.26831 17.73986
#
# Velocity S-wave (km/s) = 2.74161 2.98894 2.86794
# Velocity P-wave (km/s) = 6.02653 6.47661 6.25562
#
# Compressibility (1/GPa) = 0.01763120
#
# Stress axis : x y z
#
# Youngs Moduli (GPa) = 32.35951 25.49546 38.36686
#
# Poissons Ratio (x) = 0.31374 0.51369
# Poissons Ratio (y) = 0.39821 0.52119
# Poissons Ratio (z) = 0.43326 0.34634
#
# Static dielectric constant tensor:
#      x y z
#    x 1.855880 0.000000 0.000000 
#    y 0.000000 1.783810 0.000000 
#    z 0.000000 0.000000 1.805500 
# 
# From -- ./inp_files/6164.got.cif
#   From: 2010.05.17/outbox.cif.g08.bks.cpg/sg45_4_cif.got.tgz:6164.got - 2010.06.03 19:51:22.
