data_PCOD9376375
_publ_section_title
;
Structure prediction by ZEFSAII (Michael W. Deem and Ramdas Pophale) SiO2 
 PCOD9376375
Probable space group: I B A 2
;
_chemical_formula_sum "Si O2"
_cell_formula_units_Z 56
_cell_length_a 12.694625
_cell_length_b 17.484766
_cell_length_c 14.348113
_cell_angle_alpha 90.000000
_cell_angle_beta 90.000000
_cell_angle_gamma 90.000000
_cell_volume 3184.743714
_symmetry_space_group_name_H-M "I B A 2"
_symmetry_group_IT_number 45
_symmetry_cell_setting 'orthorhombic'
loop_
_space_group_symop_operation_xyz
x,y,z
-x,-y,z
-x,y,1/2+z
x,-y,1/2+z
1/2+x,1/2+y,1/2+z
1/2-x,1/2-y,1/2+z
1/2-x,1/2+y,z
1/2+x,1/2-y,z
loop_
_atom_site_type_symbol
_atom_site_label
_atom_site_fract_x
_atom_site_fract_y
_atom_site_fract_z
Si Si1 0.285161 1.000000 0.881580
Si Si2 0.877092 0.336001 0.388898
Si Si3 0.201687 0.793413 0.520606
Si Si4 0.606105 0.545819 0.520521
Si Si5 0.893895 0.954181 0.242639
Si Si6 0.877091 0.336001 0.874261
Si Si7 0.798313 0.793413 0.242553
O O1 0.353728 0.074612 0.863433
O O2 0.353729 0.925388 0.899727
O O3 0.206125 0.989132 0.794859
O O4 0.206125 0.010867 0.968301
O O5 0.835908 0.285222 0.474690
O O6 0.809603 0.312840 0.297297
O O7 0.000000 0.321395 0.381579
O O8 0.118277 0.862913 0.500476
O O9 0.309603 0.812840 0.465862
O O10 0.215592 0.789118 0.631580
O O11 0.500000 0.500000 0.492513
O O12 0.615382 0.537327 0.631580
O O13 0.881724 0.862913 0.262683
O O14 0.000000 0.000000 0.270647
O O15 0.835907 0.285222 0.788469
#
# Coordination Sequence:
#
# PCOD9376375 Si02
#       7
#     8   8   8   8   8   8   8
#     4  10  20  34  52  76 108 140 176 216 260 316
#     4  10  21  36  55  78 106 141 178 218 266 319
#     4   9  20  37  55  79 108 137 177 224 266 315
#     4   9  18  33  54  79 106 137 175 220 267 312
#     4   9  18  33  54  79 106 137 175 220 267 312
#     4  10  21  36  55  78 106 141 178 218 266 319
#     4   9  20  37  55  79 108 137 177 224 266 315
#
# _framework density 17.583832999999998
#
# number of rings (size 3 to 8) (size 9 to 14) (size 15 to 20)
#    0.000    2.571    0.000    0.857    0.000    9.143 
#    0.000    2.857    0.000    8.571    0.000    0.000 
#    0.000    0.000    0.000    0.000    0.000    0.000 
#
# Total GULP energy -156007.530985 kJ/mol
# GULP energy per Si atom -5571.697535 kJ/mol
# Density = 1.754381 g / cm^3
# Si number density = 17.583833 Si / 1000 Ang^3
#
#
#
# Elastic Constant Matrix: (Units=GPa)
#
#
# Indices 1 2 3 4 5 6 
#
# 1 85.4925 54.0815 31.1760 0.0000 0.0000 0.0000
# 2 54.0815 126.0235 56.7222 0.0001 0.0000 0.0000
# 3 31.1760 56.7222 85.5560 0.0002 0.0000 0.0000
# 4 0.0000 0.0001 0.0002 17.1634 0.0000 0.0000
# 5 0.0000 0.0000 0.0000 0.0000 28.3643 0.0000
# 6 0.0000 0.0000 0.0000 0.0000 0.0000 -1.4451
#
#
#
# Elastic Compliance Matrix: (Units=1/GPa)
#
#
# Indices 1 2 3 4 5 6 
#
# 1 0.016259 -0.006144 -0.001851 0.000000 0.000000 0.000000
# 2 -0.006144 0.013632 -0.006799 0.000000 0.000000 0.000000
# 3 -0.001851 -0.006799 0.016870 0.000000 0.000000 0.000000
# 4 0.000000 0.000000 0.000000 0.058264 0.000000 0.000001
# 5 0.000000 0.000000 0.000000 0.000000 0.035256 -0.000001
# 6 0.000000 0.000000 0.000000 0.000001 -0.000001 -0.691987
#
#
# Mechanical properties :
#
#
# Convention : Reuss Voigt Hill
#
# Bulk Modulus (GPa) = 58.23180 64.55905 61.39543
# Shear Modulus (GPa) = -9.68251 19.15598 4.73673
#
# Velocity S-wave (km/s) = -2.34914 3.30420 1.64306
# Velocity P-wave (km/s) = 5.08239 7.16601 6.21218
#
# Compressibility (1/GPa) = 0.01717275
#
# Stress axis : x y z
#
# Youngs Moduli (GPa) = 61.50590 73.35822 59.27582
#
# Poissons Ratio (x) = 0.45071 0.10973
# Poissons Ratio (y) = 0.37789 0.40300
# Poissons Ratio (z) = 0.11386 0.49875
#
# Static dielectric constant tensor:
#      x y z
#    x 1.578940 0.000000 0.000000 
#    y 0.000000 1.623010 0.000000 
#    z 0.000000 0.000000 1.575630 
# 
# From -- ./inp_files/6158.got.cif
#   From: 2010.05.17/outbox.cif.g08.bks.cpg/sg45_4_cif.got.tgz:6158.got - 2010.06.03 19:51:22.
