data_PCOD9376024
_publ_section_title
;
Structure prediction by ZEFSAII (Michael W. Deem and Ramdas Pophale) SiO2 
 PCOD9376024
Probable space group: I M M 2
;
_chemical_formula_sum "Si O2"
_cell_formula_units_Z 24
_cell_length_a 30.000000
_cell_length_b 9.000000
_cell_length_c 9.000000
_cell_angle_alpha 90.000000
_cell_angle_beta 90.000000
_cell_angle_gamma 90.000000
_cell_volume 2430.000000
_symmetry_space_group_name_H-M "I M M 2"
_symmetry_group_IT_number 44
_symmetry_cell_setting 'orthorhombic'
loop_
_space_group_symop_operation_xyz
x,y,z
-x,-y,z
-x,y,z
x,-y,z
1/2+x,1/2+y,1/2+z
1/2-x,1/2-y,1/2+z
1/2-x,1/2+y,1/2+z
1/2+x,1/2-y,1/2+z
loop_
_atom_site_type_symbol
_atom_site_label
_atom_site_fract_x
_atom_site_fract_y
_atom_site_fract_z
Si Si1 0.601247 0.331188 0.085610
Si Si2 0.447320 0.333316 0.399804
Si Si3 0.550273 0.820972 0.841233
Si Si4 0.284814 0.821292 0.480334
Si Si5 0.302536 0.177784 0.128983
Si Si6 0.120076 0.323312 0.106684
O O1 0.605627 0.500000 0.026851
O O2 0.579946 0.342378 0.248031
O O3 0.649939 0.253325 0.088844
O O4 0.563393 0.237666 0.001265
O O5 0.500000 0.297964 0.384021
O O6 0.444972 0.500000 0.469169
O O7 0.418363 0.214489 0.488719
O O8 0.500000 0.771626 0.795073
O O9 0.594147 0.767005 0.751661
O O10 0.549840 0.000000 0.834151
O O11 0.292866 0.796410 0.304574
O O12 0.239856 0.743178 0.538976
O O13 0.330481 0.767756 0.563556
O O14 0.280355 0.000000 0.502606
O O15 0.305882 0.000000 0.104452
O O16 0.125329 0.500000 0.118326
#
# Coordination Sequence:
#
# PCOD9376024 Si02
#       6
#     8   8   8   8   8   8
#     4  11  23  40  62  88 123 161 203 250 302 359
#     4  10  21  37  59  88 120 156 198 244 298 359
#     4  10  22  39  60  90 125 164 209 251 299 358
#     4  10  23  42  63  92 125 158 200 248 303 364
#     4  11  24  42  65  92 122 157 202 249 305 366
#     4  10  21  40  63  88 121 157 200 250 299 357
#
# _framework density 9.8765429999999999
#
# number of rings (size 3 to 8) (size 9 to 14) (size 15 to 20)
#    0.000    1.667    1.667    2.000    2.333    5.333 
#    0.000    0.000    0.000    0.000    0.000    0.000 
#    0.000    0.000    0.000    0.000    0.000    0.000 
#
# Total GULP energy -133734.561877 kJ/mol
# GULP energy per Si atom -5572.273412 kJ/mol
# Density = 0.985406 g / cm^3
# Si number density = 9.876543 Si / 1000 Ang^3
#
#
#
# Elastic Constant Matrix: (Units=GPa)
#
#
# Indices 1 2 3 4 5 6 
#
# 1 130.8801 12.3460 -7.3606 0.0000 0.0000 0.0000
# 2 12.3460 1.3107 2.4985 0.0000 0.0000 0.0000
# 3 -7.3606 2.4985 19.1602 0.0000 0.0000 0.0000
# 4 0.0000 0.0000 0.0000 22.2977 0.0000 0.0000
# 5 0.0000 0.0000 0.0000 0.0000 30.0918 0.0000
# 6 0.0000 0.0000 0.0000 0.0000 0.0000 4.3982
#
#
#
# Elastic Compliance Matrix: (Units=1/GPa)
#
#
# Indices 1 2 3 4 5 6 
#
# 1 -0.019343 0.261308 -0.041505 0.000000 0.000000 0.000000
# 2 0.261308 -2.514769 0.428309 0.000000 0.000000 0.000000
# 3 -0.041505 0.428309 -0.019604 0.000000 0.000000 0.000000
# 4 0.000000 0.000000 0.000000 0.044848 0.000000 0.000000
# 5 0.000000 0.000000 0.000000 0.000000 0.033232 0.000000
# 6 0.000000 0.000000 0.000000 0.000000 0.000000 0.227367
#
#
# Mechanical properties :
#
#
# Convention : Reuss Voigt Hill
#
# Bulk Modulus (GPa) = -0.79523 18.47986 8.84231
# Shear Modulus (GPa) = -1.26146 20.94868 9.84361
#
# Velocity S-wave (km/s) = -0.80000 3.26011 2.23476
# Velocity P-wave (km/s) = 1.12107 4.85250 3.33841
#
# Compressibility (1/GPa) = -1.25749406
#
# Stress axis : x y z
#
# Youngs Moduli (GPa) = -51.69832 -0.39765 -51.00887
#
# Poissons Ratio (x) = 0.10391 -2.11713
# Poissons Ratio (y) = 13.50917 21.84755
# Poissons Ratio (z) = -2.14575 0.17032
#
# Static dielectric constant tensor:
#      x y z
#    x 1.644900 0.000000 0.000000 
#    y 0.000000 1.710860 0.000000 
#    z 0.000000 0.000000 1.869240 
# 
# From -- ./inp_files/4870.got.cif
#   From: 2010.05.17/outbox.ucp.g08.bks.cvg/sg44_3_cif.got.tgz:4870.got - 2010.06.11 16:32:36.
