data_PCOD9376204
_publ_section_title
;
Structure prediction by ZEFSAII (Michael W. Deem and Ramdas Pophale) SiO2 
 PCOD9376204
Probable space group: I B A 2
;
_chemical_formula_sum "Si O2"
_cell_formula_units_Z 40
_cell_length_a 21.639346
_cell_length_b 21.588645
_cell_length_c 5.035929
_cell_angle_alpha 90.000000
_cell_angle_beta 90.000000
_cell_angle_gamma 90.000000
_cell_volume 2352.605535
_symmetry_space_group_name_H-M "I B A 2"
_symmetry_group_IT_number 45
_symmetry_cell_setting 'orthorhombic'
loop_
_space_group_symop_operation_xyz
x,y,z
-x,-y,z
-x,y,1/2+z
x,-y,1/2+z
1/2+x,1/2+y,1/2+z
1/2-x,1/2-y,1/2+z
1/2-x,1/2+y,z
1/2+x,1/2-y,z
loop_
_atom_site_type_symbol
_atom_site_label
_atom_site_fract_x
_atom_site_fract_y
_atom_site_fract_z
Si Si1 0.963269 0.764786 0.319100
Si Si2 0.167462 0.756647 0.579243
Si Si3 0.327605 0.539500 0.487050
Si Si4 0.216057 0.173285 0.576400
Si Si5 0.462875 0.414557 0.852030
O O1 0.900548 0.741509 0.183800
O O2 0.957392 0.839744 0.336871
O O3 0.981726 0.746828 0.616600
O O4 0.174654 0.789084 0.291932
O O5 0.214449 0.699085 0.601445
O O6 0.193233 0.806999 0.786272
O O7 0.314338 0.484331 0.691597
O O8 0.292304 0.600202 0.589452
O O9 0.399886 0.558548 0.468416
O O10 0.481916 0.431783 0.553590
#
# Coordination Sequence:
#
# PCOD9376204 Si02
#       5
#     8   8   8   8   8
#     4  10  19  30  51  76 100 126 160 208 257 298
#     4  10  19  35  56  73  99 128 167 215 254 320
#     4  12  24  35  50  68 100 133 175 215 240 290
#     4  10  21  35  53  74  96 132 174 208 262 298
#     4  10  21  33  48  65  96 134 173 211 238 281
#
# _framework density 17.002424000000001
#
# number of rings (size 3 to 8) (size 9 to 14) (size 15 to 20)
#    0.000    1.600    2.000    3.600    5.600    2.400 
#    0.000    0.000    0.000    0.000    0.000    0.000 
#    0.000    4.800    0.000    0.000    0.000    0.000 
#
# Total GULP energy -111598.967554 kJ/mol
# GULP energy per Si atom -5579.948378 kJ/mol
# Density = 1.696373 g / cm^3
# Si number density = 17.002424 Si / 1000 Ang^3
#
#
#
# Elastic Constant Matrix: (Units=GPa)
#
#
# Indices 1 2 3 4 5 6 
#
# 1 61.7348 27.5161 4.1684 0.0000 0.0000 0.0000
# 2 27.5161 54.7382 10.4836 0.0000 0.0000 0.0000
# 3 4.1684 10.4836 74.8211 0.0000 0.0000 0.0000
# 4 0.0000 0.0000 0.0000 17.7823 0.0000 0.0000
# 5 0.0000 0.0000 0.0000 0.0000 22.7196 0.0000
# 6 0.0000 0.0000 0.0000 0.0000 0.0000 19.8988
#
#
#
# Elastic Compliance Matrix: (Units=1/GPa)
#
#
# Indices 1 2 3 4 5 6 
#
# 1 0.020883 -0.010558 0.000316 0.000000 0.000000 0.000000
# 2 -0.010558 0.024110 -0.002790 0.000000 0.000000 0.000000
# 3 0.000316 -0.002790 0.013739 0.000000 0.000000 0.000000
# 4 0.000000 0.000000 0.000000 0.056236 0.000000 0.000000
# 5 0.000000 0.000000 0.000000 0.000000 0.044015 0.000000
# 6 0.000000 0.000000 0.000000 0.000000 0.000000 0.050254
#
#
# Mechanical properties :
#
#
# Convention : Reuss Voigt Hill
#
# Bulk Modulus (GPa) = 30.61135 30.62558 30.61846
# Shear Modulus (GPa) = 20.30951 22.02188 21.16570
#
# Velocity S-wave (km/s) = 3.45991 3.60282 3.53209
# Velocity P-wave (km/s) = 5.83134 5.94632 5.88911
#
# Compressibility (1/GPa) = 0.03266762
#
# Stress axis : x y z
#
# Youngs Moduli (GPa) = 47.88620 41.47577 72.78789
#
# Poissons Ratio (x) = 0.43790 -0.02300
# Poissons Ratio (y) = 0.50558 0.20308
# Poissons Ratio (z) = -0.01513 0.11572
#
# Static dielectric constant tensor:
#      x y z
#    x 1.607390 0.000000 0.000000 
#    y 0.000000 1.588100 0.000000 
#    z 0.000000 0.000000 1.581560 
# 
# From -- ./inp_files/270.got.cif
#   From: 2010.05.17/outbox.cif.g08.bks.cpg/sg45_1_cif.got.tgz:270.got - 2010.06.03 19:51:22.
