data_PCOD9376484
_publ_section_title
;
Structure prediction by ZEFSAII (Michael W. Deem and Ramdas Pophale) SiO2 
 PCOD9376484
Probable space group: I B A 2
;
_chemical_formula_sum "Si O2"
_cell_formula_units_Z 56
_cell_length_a 9.026018
_cell_length_b 21.081805
_cell_length_c 14.029834
_cell_angle_alpha 90.000000
_cell_angle_beta 90.000000
_cell_angle_gamma 90.000000
_cell_volume 2669.663475
_symmetry_space_group_name_H-M "I B A 2"
_symmetry_group_IT_number 45
_symmetry_cell_setting 'orthorhombic'
loop_
_space_group_symop_operation_xyz
x,y,z
-x,-y,z
-x,y,1/2+z
x,-y,1/2+z
1/2+x,1/2+y,1/2+z
1/2-x,1/2-y,1/2+z
1/2-x,1/2+y,z
1/2+x,1/2-y,z
loop_
_atom_site_type_symbol
_atom_site_label
_atom_site_fract_x
_atom_site_fract_y
_atom_site_fract_z
Si Si1 0.883639 0.707692 0.273660
Si Si2 0.718554 0.834371 0.501223
Si Si3 0.281446 0.165629 0.273712
Si Si4 0.500000 0.500000 0.137468
Si Si5 0.000000 0.500000 0.637468
Si Si6 0.250474 0.588307 0.094874
Si Si7 0.116361 0.292308 0.501275
Si Si8 0.249526 0.911693 0.180061
O O1 0.832470 0.778200 0.247318
O O2 0.872574 0.704525 0.387468
O O3 0.773927 0.654738 0.231777
O O4 0.053063 0.690780 0.248987
O O5 0.725408 0.846022 0.387468
O O6 0.832470 0.778200 0.527617
O O7 0.553063 0.809220 0.525948
O O8 0.749592 0.894424 0.567417
O O9 0.250408 0.105576 0.207518
O O10 0.394196 0.546316 0.076798
O O11 0.394196 0.453684 0.198137
O O12 0.106932 0.455015 0.576674
O O13 0.106932 0.544985 0.698261
O O14 0.226073 0.654738 0.043159
#
# Coordination Sequence:
#
# PCOD9376484 Si02
#       8
#     8   8   8   4   4   8   8   8
#     4  10  21  37  62  91 116 146 187 237 294 347
#     4  10  21  37  62  91 116 146 187 237 294 347
#     4  10  21  37  62  91 116 146 187 237 294 347
#     4  10  28  38  60  82 116 156 208 228 282 330
#     4  10  20  38  60  74 112 148 200 232 266 338
#     4  11  21  42  57  84 114 156 190 245 278 338
#     4  10  21  37  62  91 116 146 187 237 294 347
#     4  11  21  42  57  84 114 156 190 245 278 338
#
# _framework density 20.976426
#
# number of rings (size 3 to 8) (size 9 to 14) (size 15 to 20)
#    0.000    1.714    2.857    0.857    4.000    0.000 
#    0.000    8.571    0.000    0.000    0.000    0.000 
#    0.000    0.000    0.000    0.000    0.000    0.000 
#
# Total GULP energy -156387.643777 kJ/mol
# GULP energy per Si atom -5585.272992 kJ/mol
# Density = 2.092868 g / cm^3
# Si number density = 20.976426 Si / 1000 Ang^3
#
#
#
# Elastic Constant Matrix: (Units=GPa)
#
#
# Indices 1 2 3 4 5 6 
#
# 1 99.9056 30.8319 13.3275 0.0000 0.0000 0.0000
# 2 30.8319 88.3630 23.0088 0.0000 0.0000 0.0000
# 3 13.3275 23.0088 43.2434 0.0000 0.0000 0.0000
# 4 0.0000 0.0000 0.0000 9.3458 0.0000 0.0000
# 5 0.0000 0.0000 0.0000 0.0000 13.3983 0.0000
# 6 0.0000 0.0000 0.0000 0.0000 0.0000 40.1627
#
#
#
# Elastic Compliance Matrix: (Units=1/GPa)
#
#
# Indices 1 2 3 4 5 6 
#
# 1 0.011313 -0.003528 -0.001609 0.000000 0.000000 0.000000
# 2 -0.003528 0.014237 -0.006488 0.000000 0.000000 0.000000
# 3 -0.001609 -0.006488 0.027073 0.000000 0.000000 0.000000
# 4 0.000000 0.000000 0.000000 0.107000 0.000000 0.000000
# 5 0.000000 0.000000 0.000000 0.000000 0.074637 0.000000
# 6 0.000000 0.000000 0.000000 0.000000 0.000000 0.024899
#
#
# Mechanical properties :
#
#
# Convention : Reuss Voigt Hill
#
# Bulk Modulus (GPa) = 34.04575 40.64980 37.34777
# Shear Modulus (GPa) = 17.11154 23.53761 20.32457
#
# Velocity S-wave (km/s) = 2.85923 3.35341 3.11613
# Velocity P-wave (km/s) = 5.21210 5.86640 5.54890
#
# Compressibility (1/GPa) = 0.02937225
#
# Stress axis : x y z
#
# Youngs Moduli (GPa) = 88.39383 70.23720 36.93718
#
# Poissons Ratio (x) = 0.24782 0.05944
# Poissons Ratio (y) = 0.31188 0.23965
# Poissons Ratio (z) = 0.14225 0.45570
#
# Static dielectric constant tensor:
#      x y z
#    x 1.791130 0.000000 0.000000 
#    y 0.000000 1.721310 0.000000 
#    z 0.000000 0.000000 1.753340 
# 
# From -- ./inp_files/5757.got.cif
#   From: 2010.05.17/outbox.cif.g08.bks.cpg/sg45_3_cif.got.tgz:5757.got - 2010.06.03 19:51:22.
