data_PCOD9376160
_publ_section_title
;
Structure prediction by ZEFSAII (Michael W. Deem and Ramdas Pophale) SiO2 
 PCOD9376160
Probable space group: I B A 2
;
_chemical_formula_sum "Si O2"
_cell_formula_units_Z 52
_cell_length_a 10.548193
_cell_length_b 14.402746
_cell_length_c 15.348607
_cell_angle_alpha 90.000000
_cell_angle_beta 90.000000
_cell_angle_gamma 90.000000
_cell_volume 2331.805570
_symmetry_space_group_name_H-M "I B A 2"
_symmetry_group_IT_number 45
_symmetry_cell_setting 'orthorhombic'
loop_
_space_group_symop_operation_xyz
x,y,z
-x,-y,z
-x,y,1/2+z
x,-y,1/2+z
1/2+x,1/2+y,1/2+z
1/2-x,1/2-y,1/2+z
1/2-x,1/2+y,z
1/2+x,1/2-y,z
loop_
_atom_site_type_symbol
_atom_site_label
_atom_site_fract_x
_atom_site_fract_y
_atom_site_fract_z
Si Si1 0.887739 0.143576 0.045990
Si Si2 0.324729 0.146030 0.060896
Si Si3 0.815608 0.191812 0.732851
Si Si4 0.175272 0.646029 0.404806
Si Si5 0.000000 0.500000 0.982853
Si Si6 0.108385 0.146535 0.732851
Si Si7 0.387735 0.356424 0.419712
O O1 0.896995 0.254916 0.063927
O O2 0.886809 0.095513 0.139935
O O3 0.759255 0.137955 0.991921
O O4 0.000003 0.113770 0.982852
O O5 0.233937 0.142945 0.144791
O O6 0.421968 0.064493 0.048323
O O7 0.240750 0.137955 0.973780
O O8 0.766060 0.142943 0.820909
O O9 0.734052 0.287762 0.732851
O O10 0.968388 0.196157 0.732852
O O11 0.103007 0.745084 0.401776
O O12 0.078031 0.564494 0.417383
O O13 0.113192 0.095512 0.825767
#
# Coordination Sequence:
#
# PCOD9376160 Si02
#       7
#     8   8   8   8   4   8   8
#     4  10  18  36  61  89 118 158 201 254 293 363
#     4  10  22  36  61  88 125 156 205 250 314 351
#     4  10  20  35  59  95 122 165 200 259 300 373
#     4  10  22  36  61  88 125 156 205 250 314 351
#     4  12  24  42  58  92 120 168 200 256 308 380
#     4  10  20  32  61  98 126 150 214 254 310 344
#     4  10  18  36  61  89 118 158 201 254 293 363
#
# _framework density 22.300315999999999
#
# number of rings (size 3 to 8) (size 9 to 14) (size 15 to 20)
#    0.000    1.846    4.615    0.000    0.000    0.615 
#    0.000    2.308    0.000    1.846    0.000    0.000 
#    0.000    0.000    0.000    0.000    0.000    0.000 
#
# Total GULP energy -145129.348413 kJ/mol
# GULP energy per Si atom -5581.898016 kJ/mol
# Density = 2.224956 g / cm^3
# Si number density = 22.300316 Si / 1000 Ang^3
#
#
#
# Elastic Constant Matrix: (Units=GPa)
#
#
# Indices 1 2 3 4 5 6 
#
# 1 59.5102 14.3212 16.3995 0.0000 0.0000 0.0000
# 2 14.3212 50.4575 0.4456 0.0000 0.0000 0.0000
# 3 16.3995 0.4456 193.5752 0.0000 0.0000 0.0000
# 4 0.0000 0.0000 0.0000 -8.1595 0.0000 0.0000
# 5 0.0000 0.0000 0.0000 0.0000 39.4567 0.0000
# 6 0.0000 0.0000 0.0000 0.0000 0.0000 12.8011
#
#
#
# Elastic Compliance Matrix: (Units=1/GPa)
#
#
# Indices 1 2 3 4 5 6 
#
# 1 0.018492 -0.005235 -0.001555 0.000000 0.000000 0.000000
# 2 -0.005235 0.021301 0.000394 0.000000 0.000000 0.000000
# 3 -0.001555 0.000394 0.005297 0.000000 0.000000 0.000000
# 4 0.000000 0.000000 0.000000 -0.122556 0.000000 0.000000
# 5 0.000000 0.000000 0.000000 0.000000 0.025344 0.000000
# 6 0.000000 0.000000 0.000000 0.000000 0.000000 0.078118
#
#
# Mechanical properties :
#
#
# Convention : Reuss Voigt Hill
#
# Bulk Modulus (GPa) = 30.95986 40.65282 35.80634
# Shear Modulus (GPa) = 100.90343 26.97810 63.94077
#
# Velocity S-wave (km/s) = 6.73393 3.48194 5.36049
# Velocity P-wave (km/s) = 8.62405 5.86809 7.37593
#
# Compressibility (1/GPa) = 0.03229988
#
# Stress axis : x y z
#
# Youngs Moduli (GPa) = 54.07743 46.94625 188.79524
#
# Poissons Ratio (x) = 0.24575 0.29350
# Poissons Ratio (y) = 0.28308 -0.07447
# Poissons Ratio (z) = 0.08407 -0.01852
#
# Static dielectric constant tensor:
#      x y z
#    x 1.797850 0.000000 0.000000 
#    y 0.000000 1.829060 0.000000 
#    z 0.000000 0.000000 1.943640 
# 
# From -- ./inp_files/6226.got.cif
#   From: 2010.05.17/outbox.cif.g08.bks.cpg/sg45_4_cif.got.tgz:6226.got - 2010.06.03 19:51:22.
