data_PCOD9376031
_publ_section_title
;
Structure prediction by ZEFSAII (Michael W. Deem and Ramdas Pophale) SiO2 
 PCOD9376031
Probable space group: I M M 2
;
_chemical_formula_sum "Si O2"
_cell_formula_units_Z 32
_cell_length_a 9.000000
_cell_length_b 24.000000
_cell_length_c 15.000000
_cell_angle_alpha 90.000000
_cell_angle_beta 90.000000
_cell_angle_gamma 90.000000
_cell_volume 3240.000000
_symmetry_space_group_name_H-M "I M M 2"
_symmetry_group_IT_number 44
_symmetry_cell_setting 'orthorhombic'
loop_
_space_group_symop_operation_xyz
x,y,z
-x,-y,z
-x,y,z
x,-y,z
1/2+x,1/2+y,1/2+z
1/2-x,1/2-y,1/2+z
1/2-x,1/2+y,1/2+z
1/2+x,1/2-y,1/2+z
loop_
_atom_site_type_symbol
_atom_site_label
_atom_site_fract_x
_atom_site_fract_y
_atom_site_fract_z
Si Si1 0.322357 0.936583 0.057260
Si Si2 0.825742 0.619800 0.213849
Si Si3 0.826132 0.350699 0.713221
Si Si4 0.824587 0.123534 0.894470
Si Si5 0.825301 0.736879 0.455077
Si Si6 0.671296 0.639799 0.882603
Si Si7 0.328816 0.564196 0.054752
Si Si8 0.676546 0.756205 0.645560
O O1 0.500000 0.933391 0.042590
O O2 0.285518 0.892595 0.134218
O O3 0.285656 0.000000 0.081695
O O4 0.239150 0.917048 0.969407
O O5 0.730065 0.603826 0.298733
O O6 0.783233 0.580949 0.131871
O O7 0.788834 0.683422 0.185770
O O8 0.000000 0.617575 0.234964
O O9 0.784347 0.377871 0.806680
O O10 0.731560 0.294487 0.705729
O O11 0.000000 0.337603 0.706912
O O12 0.756010 0.184827 0.911021
O O13 0.000000 0.126832 0.900138
O O14 0.807175 0.795154 0.404662
O O15 0.759959 0.746976 0.552795
O O16 0.000000 0.723829 0.460534
O O17 0.500000 0.631857 0.853655
O O18 0.693908 0.604696 0.971651
O O19 0.500000 0.572584 0.085799
O O20 0.312833 0.500000 0.028548
O O21 0.500000 0.753192 0.632348
#
# Coordination Sequence:
#
# PCOD9376031 Si02
#       8
#     8   8   8   8   8   8   8   8
#     4  10  23  44  65  86 118 161 207 255 306 359
#     4  11  24  41  63  91 125 162 202 248 305 367
#     4  11  23  38  62  92 123 161 201 247 302 361
#     4  12  25  40  63  93 124 159 203 251 304 365
#     4  11  21  37  62  90 124 163 199 243 303 363
#     4  10  22  39  61  90 125 162 200 247 301 359
#     4  10  22  42  65  89 120 161 209 257 305 357
#     4  11  22  37  61  92 124 159 198 246 302 364
#
# _framework density 9.8765429999999999
#
# number of rings (size 3 to 8) (size 9 to 14) (size 15 to 20)
#    0.000    1.250    2.500    3.375    0.000    8.000 
#    0.000    0.000    0.000    0.000    0.000    0.000 
#    0.000    0.000    0.000    0.000    0.000    0.000 
#
# Total GULP energy -178868.674467 kJ/mol
# GULP energy per Si atom -5589.646077 kJ/mol
# Density = 0.985406 g / cm^3
# Si number density = 9.876543 Si / 1000 Ang^3
#
#
#
# Elastic Constant Matrix: (Units=GPa)
#
#
# Indices 1 2 3 4 5 6 
#
# 1 -23.5440 10.3950 12.2758 0.0000 0.0000 0.0000
# 2 10.3950 17.2078 -4.0351 0.0001 0.0000 0.0000
# 3 12.2758 -4.0351 56.3050 0.0001 0.0000 0.0000
# 4 0.0000 0.0001 0.0001 15.4919 0.0000 0.0000
# 5 0.0000 0.0000 0.0000 0.0000 19.7088 0.0000
# 6 0.0000 0.0000 0.0000 0.0000 0.0000 15.1751
#
#
#
# Elastic Compliance Matrix: (Units=1/GPa)
#
#
# Indices 1 2 3 4 5 6 
#
# 1 -0.029644 0.019755 0.007879 0.000000 0.000000 0.000000
# 2 0.019755 0.045942 -0.001015 0.000000 0.000000 0.000000
# 3 0.007879 -0.001015 0.015970 0.000000 0.000000 0.000000
# 4 0.000000 0.000000 0.000000 0.064550 0.000000 0.000000
# 5 0.000000 0.000000 0.000000 0.000000 0.050739 0.000000
# 6 0.000000 0.000000 0.000000 0.000000 0.000000 0.065897
#
#
# Mechanical properties :
#
#
# Convention : Reuss Voigt Hill
#
# Bulk Modulus (GPa) = 11.69508 9.69336 10.69422
# Shear Modulus (GPa) = 26.49462 12.16405 19.32934
#
# Velocity S-wave (km/s) = 3.66634 2.48423 3.13157
# Velocity P-wave (km/s) = 4.88428 3.62581 4.30132
#
# Compressibility (1/GPa) = 0.08550605
#
# Stress axis : x y z
#
# Youngs Moduli (GPa) = -33.73405 21.76673 62.61759
#
# Poissons Ratio (x) = -0.43000 -0.49335
# Poissons Ratio (y) = 0.66641 0.06353
# Poissons Ratio (z) = 0.26578 0.02208
#
# Static dielectric constant tensor:
#      x y z
#    x 1.668090 0.000000 0.000000 
#    y 0.000000 1.640640 0.000000 
#    z 0.000000 0.000000 1.722530 
# 
# From -- ./inp_files/16790.got.cif
#   From: 2010.05.17/outbox.ucp.g08.bks.cvg/sg44_9_cif.got.tgz:16790.got - 2010.06.11 16:32:36.
