data_PCOD9376626
_publ_section_title
;
Structure prediction by ZEFSAII (Michael W. Deem and Ramdas Pophale) SiO2 
 PCOD9376626
Probable space group: I B A 2
;
_chemical_formula_sum "Si O2"
_cell_formula_units_Z 40
_cell_length_a 16.189184
_cell_length_b 13.698264
_cell_length_c 8.693778
_cell_angle_alpha 90.000000
_cell_angle_beta 90.000000
_cell_angle_gamma 90.000000
_cell_volume 1927.964519
_symmetry_space_group_name_H-M "I B A 2"
_symmetry_group_IT_number 45
_symmetry_cell_setting 'orthorhombic'
loop_
_space_group_symop_operation_xyz
x,y,z
-x,-y,z
-x,y,1/2+z
x,-y,1/2+z
1/2+x,1/2+y,1/2+z
1/2-x,1/2-y,1/2+z
1/2-x,1/2+y,z
1/2+x,1/2-y,z
loop_
_atom_site_type_symbol
_atom_site_label
_atom_site_fract_x
_atom_site_fract_y
_atom_site_fract_z
Si Si1 0.384055 0.067485 0.190000
Si Si2 0.500000 0.000000 0.433930
Si Si3 0.214304 0.281871 0.525331
Si Si4 0.000000 0.000000 0.789989
Si Si5 0.228496 0.383847 0.203302
Si Si6 0.605500 0.600766 0.047056
O O1 0.314073 0.146965 0.162849
O O2 0.445642 0.073212 0.331770
O O3 0.343117 0.961535 0.204695
O O4 0.439587 0.063005 0.038683
O O5 0.239387 0.341044 0.374489
O O6 0.283546 0.208426 0.590018
O O7 0.135055 0.209683 0.500601
O O8 0.036361 0.084257 0.678391
O O9 0.928430 0.042384 0.900649
O O10 0.309887 0.434913 0.130291
#
# Coordination Sequence:
#
# PCOD9376626 Si02
#       6
#     8   4   8   4   8   8
#     4  11  22  43  66  92 135 166 221 264 330 384
#     4  10  24  38  64  94 126 182 198 266 330 390
#     4  10  24  42  65  99 125 174 222 269 320 386
#     4  10  20  48  66 100 132 172 212 276 342 374
#     4  10  24  42  66  97 124 176 220 269 317 386
#     4   9  24  40  68  99 130 171 216 268 329 392
#
# _framework density 20.74727
#
# number of rings (size 3 to 8) (size 9 to 14) (size 15 to 20)
#    1.200    0.800    2.000    0.000    5.600    3.200 
#    3.600    0.000    0.000    0.000    0.000    0.000 
#    0.000    0.000    0.000    0.000    0.000    0.000 
#
# Total GULP energy -111381.537771 kJ/mol
# GULP energy per Si atom -5569.076889 kJ/mol
# Density = 2.070005 g / cm^3
# Si number density = 20.747270 Si / 1000 Ang^3
#
#
#
# Elastic Constant Matrix: (Units=GPa)
#
#
# Indices 1 2 3 4 5 6 
#
# 1 40.7290 -1.8814 9.9765 0.0000 0.0000 0.0000
# 2 -1.8814 51.2239 -4.8308 0.0000 0.0000 0.0000
# 3 9.9765 -4.8308 65.1854 0.0000 0.0000 0.0000
# 4 0.0000 0.0000 0.0000 10.3742 0.0000 0.0000
# 5 0.0000 0.0000 0.0000 0.0000 19.8532 0.0000
# 6 0.0000 0.0000 0.0000 0.0000 0.0000 21.4850
#
#
#
# Elastic Compliance Matrix: (Units=1/GPa)
#
#
# Indices 1 2 3 4 5 6 
#
# 1 0.025526 0.000573 -0.003864 0.000000 0.000000 0.000000
# 2 0.000573 0.019672 0.001370 0.000000 0.000000 0.000000
# 3 -0.003864 0.001370 0.016034 0.000000 0.000000 0.000000
# 4 0.000000 0.000000 0.000000 0.096393 0.000000 0.000000
# 5 0.000000 0.000000 0.000000 0.000000 0.050370 0.000000
# 6 0.000000 0.000000 0.000000 0.000000 0.000000 0.046544
#
#
# Mechanical properties :
#
#
# Convention : Reuss Voigt Hill
#
# Bulk Modulus (GPa) = 17.42463 18.18520 17.80492
# Shear Modulus (GPa) = 18.01736 20.60075 19.30906
#
# Velocity S-wave (km/s) = 2.95009 3.15451 3.05401
# Velocity P-wave (km/s) = 4.47446 4.69596 4.58655
#
# Compressibility (1/GPa) = 0.05739002
#
# Stress axis : x y z
#
# Youngs Moduli (GPa) = 39.17649 50.83265 62.36828
#
# Poissons Ratio (x) = -0.02913 0.24100
# Poissons Ratio (y) = -0.02245 -0.08546
# Poissons Ratio (z) = 0.15138 -0.06965
#
# Static dielectric constant tensor:
#      x y z
#    x 1.793950 0.000000 0.000000 
#    y 0.000000 1.747580 0.000000 
#    z 0.000000 0.000000 1.756480 
# 
# From -- ./inp_files/1276.got.cif
#   From: 2010.05.17/outbox.cif.g08.bks.cpg/sg45_1_cif.got.tgz:1276.got - 2010.06.03 19:51:22.
