data_PCOD9376968
_publ_section_title
;
Structure prediction by ZEFSAII (Michael W. Deem and Ramdas Pophale) SiO2 
 PCOD9376968
Probable space group: I B A 2
;
_chemical_formula_sum "Si O2"
_cell_formula_units_Z 48
_cell_length_a 8.354732
_cell_length_b 14.263301
_cell_length_c 18.073080
_cell_angle_alpha 90.000000
_cell_angle_beta 90.000000
_cell_angle_gamma 90.000000
_cell_volume 2153.697687
_symmetry_space_group_name_H-M "I B A 2"
_symmetry_group_IT_number 45
_symmetry_cell_setting 'orthorhombic'
loop_
_space_group_symop_operation_xyz
x,y,z
-x,-y,z
-x,y,1/2+z
x,-y,1/2+z
1/2+x,1/2+y,1/2+z
1/2-x,1/2-y,1/2+z
1/2-x,1/2+y,z
1/2+x,1/2-y,z
loop_
_atom_site_type_symbol
_atom_site_label
_atom_site_fract_x
_atom_site_fract_y
_atom_site_fract_z
Si Si1 0.203603 0.626239 0.288260
Si Si2 0.959310 0.724274 0.543424
Si Si3 0.256242 0.371869 0.961581
Si Si4 0.184865 0.467359 0.559486
Si Si5 0.175801 0.960733 0.212640
Si Si6 0.994877 0.225908 0.212791
O O1 0.242660 0.636403 0.374158
O O2 0.203868 0.516989 0.265453
O O3 0.049396 0.683453 0.261190
O O4 0.347603 0.674834 0.242331
O O5 0.899836 0.814569 0.498952
O O6 0.821341 0.644295 0.551145
O O7 0.009775 0.747802 0.626877
O O8 0.100051 0.675183 0.498197
O O9 0.253676 0.479360 0.988308
O O10 0.279476 0.506027 0.630162
O O11 0.000000 0.500000 0.570337
O O12 0.151335 0.849783 0.217929
O O13 0.000000 0.000000 0.231136
#
# Coordination Sequence:
#
# PCOD9376968 Si02
#       6
#     8   8   8   8   8   8
#     4  11  24  41  62  96 132 165 213 269 325 379
#     4  11  22  40  68  94 127 172 218 262 319 392
#     4  11  24  41  62  96 132 165 213 269 325 379
#     4  10  22  39  62  91 124 165 213 258 315 384
#     4  10  22  39  62  91 124 165 213 258 315 384
#     4  11  22  40  68  94 127 172 218 262 319 392
#
# _framework density 22.287248999999999
#
# number of rings (size 3 to 8) (size 9 to 14) (size 15 to 20)
#    0.000    1.333    3.333    2.000    4.667    1.333 
#    0.000    8.333    0.000    0.000    0.000    0.000 
#    0.000    0.000    0.000    0.000    0.000    0.000 
#
# Total GULP energy -134247.860674 kJ/mol
# GULP energy per Si atom -5593.660861 kJ/mol
# Density = 2.223652 g / cm^3
# Si number density = 22.287249 Si / 1000 Ang^3
#
#
#
# Elastic Constant Matrix: (Units=GPa)
#
#
# Indices 1 2 3 4 5 6 
#
# 1 23.5468 10.7770 -12.5942 0.0000 0.0000 0.0000
# 2 10.7770 97.0835 35.5791 0.0000 0.0000 0.0000
# 3 -12.5942 35.5791 144.9811 0.0000 0.0000 0.0000
# 4 0.0000 0.0000 0.0000 31.7611 0.0000 0.0000
# 5 0.0000 0.0000 0.0000 0.0000 6.0008 0.0000
# 6 0.0000 0.0000 0.0000 0.0000 0.0000 27.3562
#
#
#
# Elastic Compliance Matrix: (Units=1/GPa)
#
#
# Indices 1 2 3 4 5 6 
#
# 1 0.049319 -0.007741 0.006184 0.000000 0.000000 0.000000
# 2 -0.007741 0.012533 -0.003748 0.000000 0.000000 0.000000
# 3 0.006184 -0.003748 0.008354 0.000000 0.000000 0.000000
# 4 0.000000 0.000000 0.000000 0.031485 0.000000 0.000000
# 5 0.000000 0.000000 0.000000 0.000000 0.166643 0.000000
# 6 0.000000 0.000000 0.000000 0.000000 0.000000 0.036555
#
#
# Mechanical properties :
#
#
# Convention : Reuss Voigt Hill
#
# Bulk Modulus (GPa) = 16.77955 37.01499 26.89727
# Shear Modulus (GPa) = 14.90908 28.48028 21.69468
#
# Velocity S-wave (km/s) = 2.58922 3.57861 3.12334
# Velocity P-wave (km/s) = 4.06003 5.80685 5.01016
#
# Compressibility (1/GPa) = 0.05959636
#
# Stress axis : x y z
#
# Youngs Moduli (GPa) = 20.27610 79.78707 119.69642
#
# Poissons Ratio (x) = 0.61764 -0.74020
# Poissons Ratio (y) = 0.15696 0.44865
# Poissons Ratio (z) = -0.12539 0.29906
#
# Static dielectric constant tensor:
#      x y z
#    x 1.861800 0.000000 0.000000 
#    y 0.000000 1.897280 0.000000 
#    z 0.000000 0.000000 1.738680 
# 
# From -- ./inp_files/1710.got.cif
#   From: 2010.05.17/outbox.cif.g08.bks.cpg/sg45_1_cif.got.tgz:1710.got - 2010.06.03 19:51:22.
