data_PCOD9376862
_publ_section_title
;
Structure prediction by ZEFSAII (Michael W. Deem and Ramdas Pophale) SiO2 
 PCOD9376862
Probable space group: I B A 2
;
_chemical_formula_sum "Si O2"
_cell_formula_units_Z 64
_cell_length_a 8.368769
_cell_length_b 27.195427
_cell_length_c 11.662304
_cell_angle_alpha 90.000000
_cell_angle_beta 90.000000
_cell_angle_gamma 90.000000
_cell_volume 2654.249966
_symmetry_space_group_name_H-M "I B A 2"
_symmetry_group_IT_number 45
_symmetry_cell_setting 'orthorhombic'
loop_
_space_group_symop_operation_xyz
x,y,z
-x,-y,z
-x,y,1/2+z
x,-y,1/2+z
1/2+x,1/2+y,1/2+z
1/2-x,1/2-y,1/2+z
1/2-x,1/2+y,z
1/2+x,1/2-y,z
loop_
_atom_site_type_symbol
_atom_site_label
_atom_site_fract_x
_atom_site_fract_y
_atom_site_fract_z
Si Si1 0.250339 0.923362 0.493950
Si Si2 0.911788 0.154885 0.122105
Si Si3 0.652510 0.135323 0.284821
Si Si4 0.244280 0.823250 0.640073
Si Si5 0.802333 0.187975 0.900764
Si Si6 0.560173 0.453022 0.616287
Si Si7 0.058812 0.450476 0.125914
Si Si8 0.970917 0.281981 0.958359
O O1 0.256700 0.903912 0.365327
O O2 0.248807 0.874933 0.574025
O O3 0.422963 0.946968 0.526743
O O4 0.085598 0.952128 0.521749
O O5 0.766126 0.167899 0.203672
O O6 0.958203 0.101142 0.169381
O O7 0.058754 0.191897 0.123458
O O8 0.865339 0.147216 0.988894
O O9 0.552148 0.099809 0.200382
O O10 0.575416 0.172798 0.374239
O O11 0.255895 0.827465 0.776445
O O12 0.373316 0.790240 0.575538
O O13 0.931646 0.231144 0.895225
O O14 0.658155 0.212552 0.970200
O O15 0.500000 0.500000 0.688639
O O16 0.752371 0.455499 0.592369
O O17 0.000000 0.500000 0.190737
#
# Coordination Sequence:
#
# PCOD9376862 Si02
#       8
#     8   8   8   8   8   8   8   8
#     4  10  22  45  66  98 147 183 243 292 364 431
#     4  10  25  44  72  98 146 180 243 291 367 422
#     4  10  25  44  70 102 143 190 235 308 356 437
#     4  10  25  45  70  99 138 187 232 296 362 431
#     4  12  27  44  72 101 137 190 236 300 364 430
#     4  10  21  42  67 101 137 188 231 293 349 426
#     4  11  22  42  71 100 145 189 244 299 362 433
#     4  11  27  44  70 103 141 181 248 293 364 438
#
# _framework density 24.112273999999999
#
# number of rings (size 3 to 8) (size 9 to 14) (size 15 to 20)
#    0.000    1.500    1.250    1.500   17.500    0.500 
#    0.000    2.500    0.000    0.000    0.000    0.000 
#    0.000    0.000    0.000    0.000    0.000    0.000 
#
# Total GULP energy -178354.197358 kJ/mol
# GULP energy per Si atom -5573.568667 kJ/mol
# Density = 2.405739 g / cm^3
# Si number density = 24.112274 Si / 1000 Ang^3
#
#
#
# Elastic Constant Matrix: (Units=GPa)
#
#
# Indices 1 2 3 4 5 6 
#
# 1 122.6106 13.3047 36.6260 -0.0001 -0.0001 0.0000
# 2 13.3047 68.0228 3.1400 0.0000 0.0000 0.0000
# 3 36.6260 3.1400 125.3756 0.0014 0.0006 0.0000
# 4 -0.0001 0.0000 0.0014 22.4860 0.0002 0.0000
# 5 -0.0001 0.0000 0.0006 0.0002 17.3200 0.0000
# 6 0.0000 0.0000 0.0000 0.0000 0.0000 39.5916
#
#
#
# Elastic Compliance Matrix: (Units=1/GPa)
#
#
# Indices 1 2 3 4 5 6 
#
# 1 0.009120 -0.001663 -0.002623 0.000000 0.000000 0.000000
# 2 -0.001663 0.015021 0.000110 0.000000 0.000000 0.000000
# 3 -0.002623 0.000110 0.008739 -0.000001 0.000000 0.000000
# 4 0.000000 0.000000 -0.000001 0.044472 -0.000001 0.000000
# 5 0.000000 0.000000 0.000000 -0.000001 0.057737 0.000000
# 6 0.000000 0.000000 0.000000 0.000000 0.000000 0.025258
#
#
# Mechanical properties :
#
#
# Convention : Reuss Voigt Hill
#
# Bulk Modulus (GPa) = 40.76824 46.90558 43.83691
# Shear Modulus (GPa) = 28.26861 33.40874 30.83868
#
# Velocity S-wave (km/s) = 3.42771 3.72633 3.58014
# Velocity P-wave (km/s) = 5.71051 6.16517 5.94219
#
# Compressibility (1/GPa) = 0.02452890
#
# Stress axis : x y z
#
# Youngs Moduli (GPa) = 109.65260 66.57302 114.42430
#
# Poissons Ratio (x) = 0.11069 0.30008
# Poissons Ratio (y) = 0.18232 -0.01253
# Poissons Ratio (z) = 0.28756 -0.00729
#
# Static dielectric constant tensor:
#      x y z
#    x 2.060360 0.000000 0.000000 
#    y 0.000000 2.039460 0.000000 
#    z 0.000000 0.000000 1.895560 
# 
# From -- ./inp_files/3406.got.cif
#   From: 2010.05.17/outbox.cif.g08.bks.cpg/sg45_2_cif.got.tgz:3406.got - 2010.06.03 19:51:22.
