data_PCOD9376362
_publ_section_title
;
Structure prediction by ZEFSAII (Michael W. Deem and Ramdas Pophale) SiO2 
 PCOD9376362
Probable space group: I B A 2
;
_chemical_formula_sum "Si O2"
_cell_formula_units_Z 48
_cell_length_a 21.865615
_cell_length_b 21.647558
_cell_length_c 5.203696
_cell_angle_alpha 90.000000
_cell_angle_beta 90.000000
_cell_angle_gamma 90.000000
_cell_volume 2463.102733
_symmetry_space_group_name_H-M "I B A 2"
_symmetry_group_IT_number 45
_symmetry_cell_setting 'orthorhombic'
loop_
_space_group_symop_operation_xyz
x,y,z
-x,-y,z
-x,y,1/2+z
x,-y,1/2+z
1/2+x,1/2+y,1/2+z
1/2-x,1/2-y,1/2+z
1/2-x,1/2+y,z
1/2+x,1/2-y,z
loop_
_atom_site_type_symbol
_atom_site_label
_atom_site_fract_x
_atom_site_fract_y
_atom_site_fract_z
Si Si1 0.285174 0.325037 0.495310
Si Si2 0.965496 0.726109 0.710721
Si Si3 0.667211 0.263714 0.499910
Si Si4 0.656002 0.062795 0.092794
Si Si5 0.532179 0.921663 0.290954
Si Si6 0.296419 0.924198 0.601379
O O1 0.326168 0.295860 0.721799
O O2 0.219273 0.289721 0.508801
O O3 0.268312 0.397199 0.521238
O O4 0.313204 0.311376 0.220543
O O5 0.899575 0.740913 0.587603
O O6 0.966365 0.652245 0.761929
O O7 0.014745 0.748187 0.495788
O O8 0.592479 0.056525 0.942068
O O9 0.692445 0.102913 0.884772
O O10 0.690920 0.997494 0.134629
O O11 0.656128 0.092567 0.373159
O O12 0.479431 0.940063 0.495700
#
# Coordination Sequence:
#
# PCOD9376362 Si02
#       6
#     8   8   8   8   8   8
#     4  10  20  33  52  74 100 130 169 222 259 314
#     4  10  20  33  51  74 104 140 174 214 257 303
#     4  10  20  33  51  76  99 131 173 211 267 315
#     4  10  20  34  51  69  95 135 170 211 259 311
#     4  10  20  33  49  70  97 135 183 222 252 288
#     4  10  20  34  49  69  94 129 168 206 265 307
#
# _framework density 19.487618000000001
#
# number of rings (size 3 to 8) (size 9 to 14) (size 15 to 20)
#    0.000    2.000    0.000    4.000    0.000    5.333 
#    0.000   10.000    0.000    2.000    0.000    0.000 
#    0.000    0.000    0.000  210.000    0.000    0.000 
#
# Total GULP energy -133637.140606 kJ/mol
# GULP energy per Si atom -5568.214192 kJ/mol
# Density = 1.944326 g / cm^3
# Si number density = 19.487618 Si / 1000 Ang^3
#
#
#
# Elastic Constant Matrix: (Units=GPa)
#
#
# Indices 1 2 3 4 5 6 
#
# 1 52.3353 12.5682 10.9919 0.0000 0.0000 0.0000
# 2 12.5682 27.2562 13.0063 0.0000 0.0000 0.0000
# 3 10.9919 13.0063 101.9453 0.0000 0.0000 0.0000
# 4 0.0000 0.0000 0.0000 9.2182 0.0000 0.0000
# 5 0.0000 0.0000 0.0000 0.0000 35.1095 0.0000
# 6 0.0000 0.0000 0.0000 0.0000 0.0000 22.7020
#
#
#
# Elastic Compliance Matrix: (Units=1/GPa)
#
#
# Indices 1 2 3 4 5 6 
#
# 1 0.021608 -0.009426 -0.001127 0.000000 0.000000 0.000000
# 2 -0.009426 0.043179 -0.004493 0.000000 0.000000 0.000000
# 3 -0.001127 -0.004493 0.010504 0.000000 0.000000 0.000000
# 4 0.000000 0.000000 0.000000 0.108481 0.000000 0.000000
# 5 0.000000 0.000000 0.000000 0.000000 0.028482 0.000000
# 6 0.000000 0.000000 0.000000 0.000000 0.000000 0.044049
#
#
# Mechanical properties :
#
#
# Convention : Reuss Voigt Hill
#
# Bulk Modulus (GPa) = 22.12403 28.29661 25.21032
# Shear Modulus (GPa) = 16.58590 23.07063 19.82826
#
# Velocity S-wave (km/s) = 2.92053 3.44446 3.19326
# Velocity P-wave (km/s) = 4.76971 5.51098 5.15369
#
# Compressibility (1/GPa) = 0.04519973
#
# Stress axis : x y z
#
# Youngs Moduli (GPa) = 46.27937 23.15936 95.20292
#
# Poissons Ratio (x) = 0.21830 0.10732
# Poissons Ratio (y) = 0.43622 0.42770
# Poissons Ratio (z) = 0.05217 0.10404
#
# Static dielectric constant tensor:
#      x y z
#    x 1.750400 0.000000 0.000000 
#    y 0.000000 1.743300 0.000000 
#    z 0.000000 0.000000 1.784710 
# 
# From -- ./inp_files/524.got.cif
#   From: 2010.05.17/outbox.cif.g08.bks.cpg/sg45_1_cif.got.tgz:524.got - 2010.06.03 19:51:22.
