data_PCOD9376850
_publ_section_title
;
Structure prediction by ZEFSAII (Michael W. Deem and Ramdas Pophale) SiO2 
 PCOD9376850
Probable space group: I B A 2
;
_chemical_formula_sum "Si O2"
_cell_formula_units_Z 60
_cell_length_a 14.385958
_cell_length_b 22.961779
_cell_length_c 8.753661
_cell_angle_alpha 90.000000
_cell_angle_beta 90.000000
_cell_angle_gamma 90.000000
_cell_volume 2891.572225
_symmetry_space_group_name_H-M "I B A 2"
_symmetry_group_IT_number 45
_symmetry_cell_setting 'orthorhombic'
loop_
_space_group_symop_operation_xyz
x,y,z
-x,-y,z
-x,y,1/2+z
x,-y,1/2+z
1/2+x,1/2+y,1/2+z
1/2-x,1/2-y,1/2+z
1/2-x,1/2+y,z
1/2+x,1/2-y,z
loop_
_atom_site_type_symbol
_atom_site_label
_atom_site_fract_x
_atom_site_fract_y
_atom_site_fract_z
Si Si1 0.432265 0.868350 0.936620
Si Si2 0.482567 0.752876 0.358964
Si Si3 0.886845 0.931701 0.568157
Si Si4 0.000000 0.000000 0.818114
Si Si5 0.825553 0.533469 0.048762
Si Si6 0.817726 0.308079 0.711371
Si Si7 0.370679 0.079576 0.874039
Si Si8 0.606636 0.299520 0.641221
O O1 0.460422 0.813197 0.832564
O O2 0.365958 0.924213 0.915077
O O3 0.533017 0.898774 0.948787
O O4 0.376335 0.836344 0.072844
O O5 0.383979 0.757640 0.273985
O O6 0.450625 0.744109 0.532634
O O7 0.550406 0.703001 0.299448
O O8 0.931243 0.962677 0.422565
O O9 0.779257 0.947935 0.581220
O O10 0.897056 0.862628 0.565214
O O11 0.940878 0.957207 0.712704
O O12 0.829074 0.467915 0.988222
O O13 0.880972 0.547906 0.206861
O O14 0.813677 0.361241 0.834787
O O15 0.715547 0.287145 0.666398
#
# Coordination Sequence:
#
# PCOD9376850 Si02
#       8
#     8   8   8   4   8   8   8   8
#     4  10  21  42  62  92 134 169 214 268 331 406
#     4  11  25  42  68  98 129 180 223 282 334 390
#     4  11  22  42  65  91 126 166 215 268 320 397
#     4  10  24  42  64  88 128 168 208 270 334 368
#     4  11  22  40  66  98 129 168 217 267 337 401
#     4  10  23  44  65  96 136 177 225 273 341 401
#     4  10  22  39  66  94 135 169 213 271 335 405
#     4  12  24  43  71  93 137 170 233 278 332 399
#
# _framework density 20.749956000000001
#
# number of rings (size 3 to 8) (size 9 to 14) (size 15 to 20)
#    0.000    1.333    4.000    2.000    1.867    5.333 
#    0.000    0.000    5.867    0.000    0.000    0.000 
#    0.000    0.000    0.000    0.000    0.000    0.000 
#
# Total GULP energy -167217.925811 kJ/mol
# GULP energy per Si atom -5573.930860 kJ/mol
# Density = 2.070273 g / cm^3
# Si number density = 20.749956 Si / 1000 Ang^3
#
#
#
# Elastic Constant Matrix: (Units=GPa)
#
#
# Indices 1 2 3 4 5 6 
#
# 1 113.8003 20.9296 41.7672 0.0001 0.0000 0.0000
# 2 20.9296 37.0833 0.7332 -0.0001 0.0001 0.0000
# 3 41.7672 0.7332 54.0216 -0.0007 0.0006 0.0000
# 4 0.0001 -0.0001 -0.0007 -2.8184 0.0006 0.0000
# 5 0.0000 0.0001 0.0006 0.0006 49.3766 0.0000
# 6 0.0000 0.0000 0.0000 0.0000 0.0000 33.9521
#
#
#
# Elastic Compliance Matrix: (Units=1/GPa)
#
#
# Indices 1 2 3 4 5 6 
#
# 1 0.014220 -0.007810 -0.010888 0.000004 0.000000 0.000000
# 2 -0.007810 0.031263 0.005614 -0.000003 0.000000 0.000000
# 3 -0.010888 0.005614 0.026853 -0.000008 0.000000 0.000000
# 4 0.000004 -0.000003 -0.000008 -0.354813 0.000004 0.000000
# 5 0.000000 0.000000 0.000000 0.000004 0.020253 0.000000
# 6 0.000000 0.000000 0.000000 0.000000 0.000000 0.029453
#
#
# Mechanical properties :
#
#
# Convention : Reuss Voigt Hill
#
# Bulk Modulus (GPa) = 21.66001 36.86279 29.26140
# Shear Modulus (GPa) = -26.14888 25.53375 -0.30756
#
# Velocity S-wave (km/s) = -3.55377 3.51172 -0.38542
# Velocity P-wave (km/s) = 2.52542 5.85207 3.73289
#
# Compressibility (1/GPa) = 0.04616802
#
# Stress axis : x y z
#
# Youngs Moduli (GPa) = 70.32349 31.98623 37.23943
#
# Poissons Ratio (x) = 0.24983 0.40547
# Poissons Ratio (y) = 0.54925 -0.20907
# Poissons Ratio (z) = 0.76570 -0.17958
#
# Static dielectric constant tensor:
#      x y z
#    x 1.698790 0.000000 0.000000 
#    y 0.000000 1.780430 0.000000 
#    z 0.000000 0.000000 1.798770 
# 
# From -- ./inp_files/1888.got.cif
#   From: 2010.05.17/outbox.cif.g08.bks.cpg/sg45_1_cif.got.tgz:1888.got - 2010.06.03 19:51:22.
