data_PCOD9376873
_publ_section_title
;
Structure prediction by ZEFSAII (Michael W. Deem and Ramdas Pophale) SiO2 
 PCOD9376873
Probable space group: I B A 2
;
_chemical_formula_sum "Si O2"
_cell_formula_units_Z 52
_cell_length_a 12.696261
_cell_length_b 8.171998
_cell_length_c 25.029606
_cell_angle_alpha 90.000000
_cell_angle_beta 90.000000
_cell_angle_gamma 90.000000
_cell_volume 2596.917223
_symmetry_space_group_name_H-M "I B A 2"
_symmetry_group_IT_number 45
_symmetry_cell_setting 'orthorhombic'
loop_
_space_group_symop_operation_xyz
x,y,z
-x,-y,z
-x,y,1/2+z
x,-y,1/2+z
1/2+x,1/2+y,1/2+z
1/2-x,1/2-y,1/2+z
1/2-x,1/2+y,z
1/2+x,1/2-y,z
loop_
_atom_site_type_symbol
_atom_site_label
_atom_site_fract_x
_atom_site_fract_y
_atom_site_fract_z
Si Si1 0.379399 0.437289 0.473590
Si Si2 0.075947 0.841332 0.585863
Si Si3 0.122155 0.043432 0.199252
Si Si4 0.261354 0.290903 0.261391
Si Si5 0.000000 0.500000 0.036599
Si Si6 0.163689 0.421972 0.945955
Si Si7 0.881264 0.538828 0.825263
O O1 0.500000 0.500000 0.470580
O O2 0.353822 0.381562 0.534401
O O3 0.288654 0.559869 0.455257
O O4 0.369379 0.267366 0.442693
O O5 0.131619 0.861193 0.642758
O O6 0.019194 0.666621 0.571732
O O7 0.000000 0.000000 0.586994
O O8 0.174612 0.161900 0.242100
O O9 0.184878 0.874413 0.209455
O O10 0.000000 0.000000 0.207564
O O11 0.197483 0.420121 0.295235
O O12 0.348032 0.213459 0.300801
O O13 0.900907 0.495374 0.995091
O O14 0.133751 0.489765 0.888230
O O15 0.000000 0.500000 0.810642
#
# Coordination Sequence:
#
# PCOD9376873 Si02
#       7
#     8   8   8   8   4   8   8
#     4  10  24  40  62  96 134 172 226 276 336 419
#     4   9  21  42  64  93 134 170 221 272 338 402
#     4  10  21  43  63  93 131 169 223 285 337 409
#     4  10  23  40  64  93 127 171 228 278 340 405
#     4  10  22  42  64 100 132 176 226 274 340 418
#     4  11  23  39  67  92 136 177 226 281 345 409
#     4  11  22  41  64  93 127 174 223 277 344 407
#
# _framework density 20.023741999999999
#
# number of rings (size 3 to 8) (size 9 to 14) (size 15 to 20)
#    0.000    1.846    0.769    1.846    6.462    3.692 
#   15.231    3.846    0.000    0.000    0.000    0.000 
#    0.000    0.000    0.000    0.000    0.000    0.000 
#
# Total GULP energy -144817.936523 kJ/mol
# GULP energy per Si atom -5569.920636 kJ/mol
# Density = 1.997817 g / cm^3
# Si number density = 20.023742 Si / 1000 Ang^3
#
#
#
# Elastic Constant Matrix: (Units=GPa)
#
#
# Indices 1 2 3 4 5 6 
#
# 1 141.5498 54.8045 42.5890 0.0000 0.0000 0.0000
# 2 54.8045 92.4690 32.9346 0.0000 0.0000 0.0000
# 3 42.5890 32.9346 85.9001 0.0000 0.0000 0.0000
# 4 0.0000 0.0000 0.0000 18.2614 0.0000 0.0000
# 5 0.0000 0.0000 0.0000 0.0000 19.4416 0.0000
# 6 0.0000 0.0000 0.0000 0.0000 0.0000 33.5820
#
#
#
# Elastic Compliance Matrix: (Units=1/GPa)
#
#
# Indices 1 2 3 4 5 6 
#
# 1 0.009814 -0.004729 -0.003053 0.000000 0.000000 0.000000
# 2 -0.004729 0.014804 -0.003331 0.000000 0.000000 0.000000
# 3 -0.003053 -0.003331 0.014432 0.000000 0.000000 0.000000
# 4 0.000000 0.000000 0.000000 0.054760 0.000000 0.000000
# 5 0.000000 0.000000 0.000000 0.000000 0.051436 0.000000
# 6 0.000000 0.000000 0.000000 0.000000 0.000000 0.029778
#
#
# Mechanical properties :
#
#
# Convention : Reuss Voigt Hill
#
# Bulk Modulus (GPa) = 59.43888 64.50836 61.97362
# Shear Modulus (GPa) = 24.64769 26.89637 25.77203
#
# Velocity S-wave (km/s) = 3.51226 3.66898 3.59147
# Velocity P-wave (km/s) = 6.79681 7.08762 6.94374
#
# Compressibility (1/GPa) = 0.01682401
#
# Stress axis : x y z
#
# Youngs Moduli (GPa) = 101.89294 67.54965 69.29036
#
# Poissons Ratio (x) = 0.31947 0.21151
# Poissons Ratio (y) = 0.48190 0.23081
# Poissons Ratio (z) = 0.31103 0.22501
#
# Static dielectric constant tensor:
#      x y z
#    x 1.697840 0.000000 0.000000 
#    y 0.000000 1.845620 0.000000 
#    z 0.000000 0.000000 1.748120 
# 
# From -- ./inp_files/10007.got.cif
#   From: 2010.05.17/outbox.cif.g08.bks.cpg/sg45_6_cif.got.tgz:10007.got - 2010.06.03 19:51:22.
