data_PCOD9376709
_publ_section_title
;
Structure prediction by ZEFSAII (Michael W. Deem and Ramdas Pophale) SiO2 
 PCOD9376709
Probable space group: I B A 2
;
_chemical_formula_sum "Si O2"
_cell_formula_units_Z 60
_cell_length_a 8.785732
_cell_length_b 12.574096
_cell_length_c 26.802095
_cell_angle_alpha 90.000000
_cell_angle_beta 90.000000
_cell_angle_gamma 90.000000
_cell_volume 2960.898128
_symmetry_space_group_name_H-M "I B A 2"
_symmetry_group_IT_number 45
_symmetry_cell_setting 'orthorhombic'
loop_
_space_group_symop_operation_xyz
x,y,z
-x,-y,z
-x,y,1/2+z
x,-y,1/2+z
1/2+x,1/2+y,1/2+z
1/2-x,1/2-y,1/2+z
1/2-x,1/2+y,z
1/2+x,1/2-y,z
loop_
_atom_site_type_symbol
_atom_site_label
_atom_site_fract_x
_atom_site_fract_y
_atom_site_fract_z
Si Si1 0.572137 0.114968 0.801530
Si Si2 0.057091 0.607838 0.085740
Si Si3 0.949691 0.884659 0.683555
Si Si4 0.014792 0.121254 0.400364
Si Si5 0.857043 0.668819 0.916302
Si Si6 0.808107 0.738610 0.130483
Si Si7 0.425896 0.664508 0.285828
Si Si8 0.000000 0.500000 0.990810
O O1 0.587243 0.129549 0.861553
O O2 0.459012 0.208850 0.784131
O O3 0.745771 0.134933 0.781375
O O4 0.500000 0.000000 0.790039
O O5 0.907679 0.682604 0.087353
O O6 0.000000 0.500000 0.113247
O O7 0.192051 0.673383 0.109993
O O8 0.101563 0.565300 0.030957
O O9 0.071958 0.797772 0.665499
O O10 0.968030 0.884058 0.743005
O O11 0.789663 0.846928 0.661500
O O12 0.000000 0.000000 0.664425
O O13 0.177690 0.161532 0.417007
O O14 0.015893 0.126960 0.340027
O O15 0.898315 0.207442 0.420933
O O16 0.000000 0.000000 0.416147
O O17 0.923249 0.588357 0.956678
#
# Coordination Sequence:
#
# PCOD9376709 Si02
#       8
#     8   8   8   8   8   8   8   4
#     4  10  21  38  60  82 130 167 200 249 300 351
#     4   9  21  40  63  86 119 152 192 253 310 363
#     4  11  22  37  63  88 123 153 204 246 287 370
#     4  10  23  39  62  87 132 170 205 252 304 363
#     4  10  22  39  63  90 122 166 212 249 312 361
#     4  10  21  40  62  89 117 157 193 243 321 358
#     4  10  22  37  57  93 120 167 209 243 295 355
#     4  10  22  40  68  88 124 154 208 258 308 374
#
# _framework density 20.264120999999999
#
# number of rings (size 3 to 8) (size 9 to 14) (size 15 to 20)
#    0.400    1.600    0.667    2.000    1.867    8.533 
#    0.000    3.333    0.000    0.000    0.000    0.000 
#    0.000    0.000    0.000    0.000    0.000    0.000 
#
# Total GULP energy -167339.564502 kJ/mol
# GULP energy per Si atom -5577.985483 kJ/mol
# Density = 2.021800 g / cm^3
# Si number density = 20.264121 Si / 1000 Ang^3
#
#
#
# Elastic Constant Matrix: (Units=GPa)
#
#
# Indices 1 2 3 4 5 6 
#
# 1 77.1717 43.6593 19.1644 0.0000 0.0000 0.0000
# 2 43.6593 143.2346 10.9577 0.0000 0.0000 0.0000
# 3 19.1644 10.9577 34.6743 0.0000 0.0000 0.0000
# 4 0.0000 0.0000 0.0000 26.0585 0.0000 0.0000
# 5 0.0000 0.0000 0.0000 0.0000 5.3594 0.0000
# 6 0.0000 0.0000 0.0000 0.0000 0.0000 11.3442
#
#
#
# Elastic Compliance Matrix: (Units=1/GPa)
#
#
# Indices 1 2 3 4 5 6 
#
# 1 0.017711 -0.004765 -0.008283 0.000000 0.000000 0.000000
# 2 -0.004765 0.008436 -0.000033 0.000000 0.000000 0.000000
# 3 -0.008283 -0.000033 0.033428 0.000000 0.000000 0.000000
# 4 0.000000 0.000000 0.000000 0.038375 0.000000 0.000000
# 5 0.000000 0.000000 0.000000 0.000000 0.186590 0.000000
# 6 0.000000 0.000000 0.000000 0.000000 0.000000 0.088151
#
#
# Mechanical properties :
#
#
# Convention : Reuss Voigt Hill
#
# Bulk Modulus (GPa) = 29.92703 44.73817 37.33260
# Shear Modulus (GPa) = 12.19543 20.63901 16.41722
#
# Velocity S-wave (km/s) = 2.45587 3.19486 2.84942
# Velocity P-wave (km/s) = 4.77936 5.97787 5.41190
#
# Compressibility (1/GPa) = 0.03341461
#
# Stress axis : x y z
#
# Youngs Moduli (GPa) = 56.46319 118.53415 29.91505
#
# Poissons Ratio (x) = 0.56478 0.24778
# Poissons Ratio (y) = 0.26903 0.00098
# Poissons Ratio (z) = 0.46768 0.00386
#
# Static dielectric constant tensor:
#      x y z
#    x 1.691460 0.000000 0.000000 
#    y 0.000000 1.731920 0.000000 
#    z 0.000000 0.000000 1.753020 
# 
# From -- ./inp_files/9971.got.cif
#   From: 2010.05.17/outbox.cif.g08.bks.cpg/sg45_5_cif.got.tgz:9971.got - 2010.06.03 19:51:22.
