data_PCOD9376088
_publ_section_title
;
Structure prediction by ZEFSAII (Michael W. Deem and Ramdas Pophale) SiO2 
 PCOD9376088
Probable space group: I B A 2
;
_chemical_formula_sum "Si O2"
_cell_formula_units_Z 56
_cell_length_a 14.820117
_cell_length_b 13.879145
_cell_length_c 14.858085
_cell_angle_alpha 90.000000
_cell_angle_beta 90.000000
_cell_angle_gamma 90.000000
_cell_volume 3056.167717
_symmetry_space_group_name_H-M "I B A 2"
_symmetry_group_IT_number 45
_symmetry_cell_setting 'orthorhombic'
loop_
_space_group_symop_operation_xyz
x,y,z
-x,-y,z
-x,y,1/2+z
x,-y,1/2+z
1/2+x,1/2+y,1/2+z
1/2-x,1/2-y,1/2+z
1/2-x,1/2+y,z
1/2+x,1/2-y,z
loop_
_atom_site_type_symbol
_atom_site_label
_atom_site_fract_x
_atom_site_fract_y
_atom_site_fract_z
Si Si1 0.947859 0.096022 0.738820
Si Si2 0.514456 0.707783 0.396753
Si Si3 0.245254 0.480656 0.047693
Si Si4 0.331950 0.845871 0.896753
Si Si5 0.254746 0.019344 0.245813
Si Si6 0.210429 0.133195 0.896753
Si Si7 0.447859 0.596022 0.554685
O O1 0.844144 0.066236 0.728810
O O2 0.958401 0.181545 0.809181
O O3 1.000000 0.120669 0.646753
O O4 0.000000 0.000000 0.771818
O O5 0.564779 0.809546 0.396753
O O6 0.601440 0.636014 0.396753
O O7 0.458400 0.681545 0.484324
O O8 0.206380 0.500000 0.146753
O O9 0.344144 0.433764 0.064696
O O10 0.190559 0.407282 0.984895
O O11 0.257837 0.575849 0.985454
O O12 0.309441 0.907282 0.808611
O O13 0.271519 0.747714 0.896753
O O14 0.242163 0.924151 0.308052
O O15 0.500000 0.500000 0.521687
#
# Coordination Sequence:
#
# PCOD9376088 Si02
#       7
#     8   8   8   8   8   8   8
#     4  11  17  28  50  80 103 136 170 217 280 316
#     4  10  17  32  46  69 116 136 168 216 252 340
#     4  11  19  32  53  79 111 140 180 221 272 328
#     4   9  22  33  47  77 110 152 174 209 281 326
#     4  11  19  32  53  79 111 140 180 221 272 328
#     4   9  18  32  45  72 108 144 172 212 266 321
#     4  11  17  28  50  80 103 136 170 217 280 316
#
# _framework density 18.323601
#
# number of rings (size 3 to 8) (size 9 to 14) (size 15 to 20)
#    0.857    0.857    5.714    2.143    0.000    1.143 
#    0.000    0.000    0.000    0.000    0.000   16.000 
#    0.000    0.000    0.000    0.000    0.000    0.000 
#
# Total GULP energy -155923.247018 kJ/mol
# GULP energy per Si atom -5568.687393 kJ/mol
# Density = 1.828190 g / cm^3
# Si number density = 18.323601 Si / 1000 Ang^3
#
#
#
# Elastic Constant Matrix: (Units=GPa)
#
#
# Indices 1 2 3 4 5 6 
#
# 1 23.0180 9.5735 17.1383 0.0000 0.0000 0.0000
# 2 9.5735 80.7128 59.6930 0.0000 0.0000 0.0000
# 3 17.1383 59.6930 150.3890 0.0000 0.0000 0.0000
# 4 0.0000 0.0000 0.0000 -1.8776 0.0000 0.0000
# 5 0.0000 0.0000 0.0000 0.0000 517.9235 0.0000
# 6 0.0000 0.0000 0.0000 0.0000 0.0000 19.6481
#
#
#
# Elastic Compliance Matrix: (Units=1/GPa)
#
#
# Indices 1 2 3 4 5 6 
#
# 1 0.047778 -0.002322 -0.004523 0.000000 0.000000 0.000000
# 2 -0.002322 0.017651 -0.006741 0.000000 0.000000 0.000000
# 3 -0.004523 -0.006741 0.009841 0.000000 0.000000 0.000000
# 4 0.000000 0.000000 0.000000 -0.532595 0.000000 0.000000
# 5 0.000000 0.000000 0.000000 0.000000 0.001931 0.000000
# 6 0.000000 0.000000 0.000000 0.000000 0.000000 0.050895
#
#
# Mechanical properties :
#
#
# Convention : Reuss Voigt Hill
#
# Bulk Modulus (GPa) = 20.79152 47.43660 34.11406
# Shear Modulus (GPa) = -13.83912 118.31981 52.24034
#
# Velocity S-wave (km/s) = -2.75118 8.04441 5.34526
# Velocity P-wave (km/s) = 1.13113 10.59376 7.53350
#
# Compressibility (1/GPa) = 0.04809653
#
# Stress axis : x y z
#
# Youngs Moduli (GPa) = 20.93022 56.65481 101.61865
#
# Poissons Ratio (x) = 0.13154 0.45964
# Poissons Ratio (y) = 0.04859 0.68505
# Poissons Ratio (z) = 0.09467 0.38193
#
# Static dielectric constant tensor:
#      x y z
#    x 1.626100 0.000000 0.000000 
#    y 0.000000 1.642860 0.000000 
#    z 0.000000 0.000000 1.644670 
# 
# From -- ./inp_files/6623.got.cif
#   From: 2010.05.17/outbox.cif.g08.bks.cpg/sg45_4_cif.got.tgz:6623.got - 2010.06.03 19:51:22.
