data_PCOD9376749
_publ_section_title
;
Structure prediction by ZEFSAII (Michael W. Deem and Ramdas Pophale) SiO2 
 PCOD9376749
Probable space group: I B A 2
;
_chemical_formula_sum "Si O2"
_cell_formula_units_Z 40
_cell_length_a 8.710712
_cell_length_b 16.580147
_cell_length_c 14.138518
_cell_angle_alpha 90.000000
_cell_angle_beta 90.000000
_cell_angle_gamma 90.000000
_cell_volume 2041.953842
_symmetry_space_group_name_H-M "I B A 2"
_symmetry_group_IT_number 45
_symmetry_cell_setting 'orthorhombic'
loop_
_space_group_symop_operation_xyz
x,y,z
-x,-y,z
-x,y,1/2+z
x,-y,1/2+z
1/2+x,1/2+y,1/2+z
1/2-x,1/2-y,1/2+z
1/2-x,1/2+y,z
1/2+x,1/2-y,z
loop_
_atom_site_type_symbol
_atom_site_label
_atom_site_fract_x
_atom_site_fract_y
_atom_site_fract_z
Si Si1 0.569815 0.758216 0.868370
Si Si2 0.318788 0.981572 0.768214
Si Si3 0.179051 0.144630 0.770667
Si Si4 0.338027 0.540828 0.593133
Si Si5 0.694061 0.862052 0.429834
O O1 0.668426 0.802134 0.786574
O O2 0.453719 0.693752 0.822262
O O3 0.474110 0.823832 0.927333
O O4 0.686009 0.710655 0.935348
O O5 0.286121 0.902233 0.826857
O O6 0.500000 0.000000 0.770548
O O7 0.224339 0.056889 0.813294
O O8 0.256970 0.980521 0.661269
O O9 0.138869 0.118132 0.663737
O O10 0.500000 0.500000 0.567562
O O11 0.236386 0.571711 0.506863
#
# Coordination Sequence:
#
# PCOD9376749 Si02
#       5
#     8   8   8   8   8
#     4  10  21  39  62  85 124 162 196 253 310 358
#     4  10  21  42  61  89 120 162 206 252 302 355
#     4   9  21  39  60  88 119 164 199 249 307 355
#     4  10  23  37  60  94 116 159 209 247 298 361
#     4  11  22  39  63  90 121 161 204 248 305 362
#
# _framework density 19.589082000000001
#
# number of rings (size 3 to 8) (size 9 to 14) (size 15 to 20)
#    1.200    0.800    2.000    1.200    2.800    2.400 
#    0.000    0.000    0.000    0.000    0.000    0.000 
#    0.000    0.000    0.000    0.000    0.000    0.000 
#
# Total GULP energy -111347.997914 kJ/mol
# GULP energy per Si atom -5567.399896 kJ/mol
# Density = 1.954450 g / cm^3
# Si number density = 19.589082 Si / 1000 Ang^3
#
#
#
# Elastic Constant Matrix: (Units=GPa)
#
#
# Indices 1 2 3 4 5 6 
#
# 1 88.3122 25.9384 14.4163 0.0000 0.0000 0.0000
# 2 25.9384 55.0194 6.8512 0.0000 0.0000 0.0000
# 3 14.4163 6.8512 59.1533 0.0000 0.0000 0.0000
# 4 0.0000 0.0000 0.0000 26.1710 0.0000 0.0000
# 5 0.0000 0.0000 0.0000 0.0000 10.6435 0.0000
# 6 0.0000 0.0000 0.0000 0.0000 0.0000 42.5066
#
#
#
# Elastic Compliance Matrix: (Units=1/GPa)
#
#
# Indices 1 2 3 4 5 6 
#
# 1 0.013525 -0.006053 -0.002595 0.000000 0.000000 0.000000
# 2 -0.006053 0.021150 -0.000974 0.000000 0.000000 0.000000
# 3 -0.002595 -0.000974 0.017651 0.000000 0.000000 0.000000
# 4 0.000000 0.000000 0.000000 0.038210 0.000000 0.000000
# 5 0.000000 0.000000 0.000000 0.000000 0.093954 0.000000
# 6 0.000000 0.000000 0.000000 0.000000 0.000000 0.023526
#
#
# Mechanical properties :
#
#
# Convention : Reuss Voigt Hill
#
# Bulk Modulus (GPa) = 30.22917 32.98853 31.60885
# Shear Modulus (GPa) = 20.98295 26.21612 23.59954
#
# Velocity S-wave (km/s) = 3.27640 3.66225 3.47469
# Velocity P-wave (km/s) = 5.45694 5.89573 5.68057
#
# Compressibility (1/GPa) = 0.03308064
#
# Stress axis : x y z
#
# Youngs Moduli (GPa) = 73.93738 47.28039 56.65541
#
# Poissons Ratio (x) = 0.28619 0.14703
# Poissons Ratio (y) = 0.44755 0.05521
# Poissons Ratio (z) = 0.19188 0.04607
#
# Static dielectric constant tensor:
#      x y z
#    x 1.707840 0.000000 0.000000 
#    y 0.000000 1.699700 0.000000 
#    z 0.000000 0.000000 1.677770 
# 
# From -- ./inp_files/5539.got.cif
#   From: 2010.05.17/outbox.cif.g08.bks.cpg/sg45_3_cif.got.tgz:5539.got - 2010.06.03 19:51:22.
