data_PCOD9376166
_publ_section_title
;
Structure prediction by ZEFSAII (Michael W. Deem and Ramdas Pophale) SiO2 
 PCOD9376166
Probable space group: I B A 2
;
_chemical_formula_sum "Si O2"
_cell_formula_units_Z 40
_cell_length_a 12.711782
_cell_length_b 11.630616
_cell_length_c 12.314727
_cell_angle_alpha 90.000000
_cell_angle_beta 90.000000
_cell_angle_gamma 90.000000
_cell_volume 1820.681344
_symmetry_space_group_name_H-M "I B A 2"
_symmetry_group_IT_number 45
_symmetry_cell_setting 'orthorhombic'
loop_
_space_group_symop_operation_xyz
x,y,z
-x,-y,z
-x,y,1/2+z
x,-y,1/2+z
1/2+x,1/2+y,1/2+z
1/2-x,1/2-y,1/2+z
1/2-x,1/2+y,z
1/2+x,1/2-y,z
loop_
_atom_site_type_symbol
_atom_site_label
_atom_site_fract_x
_atom_site_fract_y
_atom_site_fract_z
Si Si1 0.151077 0.936586 0.503470
Si Si2 0.000000 0.500000 0.592029
Si Si3 0.525957 0.241371 0.507469
Si Si4 0.673631 0.143599 0.660802
Si Si5 0.646283 0.366872 0.330463
Si Si6 0.000000 0.000000 0.177118
O O1 0.253927 0.884455 0.556771
O O2 0.066808 0.833470 0.492578
O O3 0.096999 0.017920 0.594518
O O4 0.167150 0.016715 0.399797
O O5 0.981504 0.388364 0.516701
O O6 0.098640 0.468055 0.668086
O O7 0.592662 0.240662 0.620576
O O8 0.606163 0.268249 0.410416
O O9 0.751478 0.164713 0.759977
O O10 0.548896 0.401734 0.252977
#
# Coordination Sequence:
#
# PCOD9376166 Si02
#       6
#     8   4   8   8   8   4
#     4  11  20  40  70 105 143 179 257 316 359 427
#     4   8  22  48  66 100 160 190 228 306 376 438
#     4  10  20  45  69 105 149 191 239 311 363 452
#     4   9  24  43  70 105 147 198 239 304 374 448
#     4  11  20  41  75 109 134 197 251 309 372 421
#     4  10  18  36  64 108 134 170 238 328 352 418
#
# _framework density 21.969795999999999
#
# number of rings (size 3 to 8) (size 9 to 14) (size 15 to 20)
#    1.200    0.800    4.000    0.000    0.000    1.600 
#    3.600    7.000    0.000    0.000    0.000    0.000 
#    0.000    0.000    0.000    0.000    0.000    0.000 
#
# Total GULP energy -111350.043067 kJ/mol
# GULP energy per Si atom -5567.502153 kJ/mol
# Density = 2.191979 g / cm^3
# Si number density = 21.969796 Si / 1000 Ang^3
#
#
#
# Elastic Constant Matrix: (Units=GPa)
#
#
# Indices 1 2 3 4 5 6 
#
# 1 84.9756 9.3251 26.6635 0.0000 0.0000 0.0000
# 2 9.3251 92.0745 18.0148 0.0000 0.0000 0.0000
# 3 26.6635 18.0148 83.7464 0.0000 0.0000 0.0000
# 4 0.0000 0.0000 0.0000 20.9228 0.0000 0.0000
# 5 0.0000 0.0000 0.0000 0.0000 27.4733 0.0000
# 6 0.0000 0.0000 0.0000 0.0000 0.0000 23.2633
#
#
#
# Elastic Compliance Matrix: (Units=1/GPa)
#
#
# Indices 1 2 3 4 5 6 
#
# 1 0.013099 -0.000533 -0.004056 0.000000 0.000000 0.000000
# 2 -0.000533 0.011360 -0.002274 0.000000 0.000000 0.000000
# 3 -0.004056 -0.002274 0.013721 0.000000 0.000000 0.000000
# 4 0.000000 0.000000 0.000000 0.047795 0.000000 0.000000
# 5 0.000000 0.000000 0.000000 0.000000 0.036399 0.000000
# 6 0.000000 0.000000 0.000000 0.000000 0.000000 0.042986
#
#
# Mechanical properties :
#
#
# Convention : Reuss Voigt Hill
#
# Bulk Modulus (GPa) = 40.89240 40.97816 40.93528
# Shear Modulus (GPa) = 26.70406 28.11807 27.41107
#
# Velocity S-wave (km/s) = 3.49017 3.58138 3.53607
# Velocity P-wave (km/s) = 5.90721 5.98283 5.94514
#
# Compressibility (1/GPa) = 0.02445442
#
# Stress axis : x y z
#
# Youngs Moduli (GPa) = 76.34031 88.03085 72.87949
#
# Poissons Ratio (x) = 0.04693 0.29559
# Poissons Ratio (y) = 0.04070 0.16572
# Poissons Ratio (z) = 0.30963 0.20017
#
# Static dielectric constant tensor:
#      x y z
#    x 1.868140 0.000000 0.000000 
#    y 0.000000 1.897210 0.000000 
#    z 0.000000 0.000000 1.846750 
# 
# From -- ./inp_files/6437.got.cif
#   From: 2010.05.17/outbox.cif.g08.bks.cpg/sg45_4_cif.got.tgz:6437.got - 2010.06.03 19:51:22.
