data_PCOD9376133
_publ_section_title
;
Structure prediction by ZEFSAII (Michael W. Deem and Ramdas Pophale) SiO2 
 PCOD9376133
Probable space group: I B A 2
;
_chemical_formula_sum "Si O2"
_cell_formula_units_Z 52
_cell_length_a 14.054140
_cell_length_b 20.261852
_cell_length_c 8.919077
_cell_angle_alpha 90.000000
_cell_angle_beta 90.000000
_cell_angle_gamma 90.000000
_cell_volume 2539.822273
_symmetry_space_group_name_H-M "I B A 2"
_symmetry_group_IT_number 45
_symmetry_cell_setting 'orthorhombic'
loop_
_space_group_symop_operation_xyz
x,y,z
-x,-y,z
-x,y,1/2+z
x,-y,1/2+z
1/2+x,1/2+y,1/2+z
1/2-x,1/2-y,1/2+z
1/2-x,1/2+y,z
1/2+x,1/2-y,z
loop_
_atom_site_type_symbol
_atom_site_label
_atom_site_fract_x
_atom_site_fract_y
_atom_site_fract_z
Si Si1 0.154132 0.353025 0.134100
Si Si2 0.160619 0.706079 0.972710
Si Si3 0.000000 0.500000 0.854987
Si Si4 0.047355 0.589935 0.109370
Si Si5 0.511179 0.648002 0.772507
Si Si6 0.620774 0.718445 0.513013
Si Si7 0.864066 0.864569 0.531954
O O1 0.153294 0.317609 0.298599
O O2 0.127422 0.296900 0.012786
O O3 0.257348 0.379854 0.086124
O O4 0.066397 0.401988 0.127118
O O5 0.096722 0.659603 0.078998
O O6 0.270962 0.694764 0.010566
O O7 0.137606 0.783447 0.006571
O O8 0.931786 0.546968 0.755835
O O9 0.937645 0.453747 0.962398
O O10 0.571197 0.694575 0.663834
O O11 0.437580 0.612978 0.660677
O O12 0.441726 0.689923 0.879488
O O13 0.587644 0.610902 0.877382
#
# Coordination Sequence:
#
# PCOD9376133 Si02
#       7
#     8   8   4   8   8   8   8
#     4  11  21  35  52  81 106 156 184 237 272 353
#     4  11  21  35  52  81 106 156 184 237 272 353
#     4  10  24  40  56  86 100 148 200 260 260 344
#     4  11  22  40  62  76 118 144 196 233 302 310
#     4  10  18  33  46  70 106 158 164 229 254 314
#     4  10  21  32  52  77 118 141 199 213 275 342
#     4  10  21  32  52  77 118 141 199 213 275 342
#
# _framework density 20.473873999999999
#
# number of rings (size 3 to 8) (size 9 to 14) (size 15 to 20)
#    0.000    1.538    4.615    1.846    0.000    2.462 
#    0.000    0.000    0.000    0.000    0.000    0.000 
#    0.000   86.154    0.000    0.000    0.000    0.000 
#
# Total GULP energy -144946.287758 kJ/mol
# GULP energy per Si atom -5574.857221 kJ/mol
# Density = 2.042727 g / cm^3
# Si number density = 20.473874 Si / 1000 Ang^3
#
#
#
# Elastic Constant Matrix: (Units=GPa)
#
#
# Indices 1 2 3 4 5 6 
#
# 1 108.5088 11.5615 29.8196 0.0000 0.0000 0.0000
# 2 11.5615 20.7388 -3.5492 0.0000 0.0000 0.0000
# 3 29.8196 -3.5492 91.3515 0.0000 0.0000 0.0000
# 4 0.0000 0.0000 0.0000 7.6520 0.0000 0.0000
# 5 0.0000 0.0000 0.0000 0.0000 31.0997 0.0000
# 6 0.0000 0.0000 0.0000 0.0000 0.0000 6.4249
#
#
#
# Elastic Compliance Matrix: (Units=1/GPa)
#
#
# Indices 1 2 3 4 5 6 
#
# 1 0.010999 -0.006791 -0.003854 0.000000 0.000000 0.000000
# 2 -0.006791 0.052735 0.004266 0.000000 0.000000 0.000000
# 3 -0.003854 0.004266 0.012371 0.000000 0.000000 0.000000
# 4 0.000000 0.000000 0.000000 0.130685 0.000000 0.000000
# 5 0.000000 0.000000 0.000000 0.000000 0.032155 0.000000
# 6 0.000000 0.000000 0.000000 0.000000 0.000000 0.155645
#
#
# Mechanical properties :
#
#
# Convention : Reuss Voigt Hill
#
# Bulk Modulus (GPa) = 15.78664 32.91809 24.35237
# Shear Modulus (GPa) = 11.66965 21.21979 16.44472
#
# Velocity S-wave (km/s) = 2.39001 3.22286 2.83716
# Velocity P-wave (km/s) = 3.91709 5.47377 4.75950
#
# Compressibility (1/GPa) = 0.06334470
#
# Stress axis : x y z
#
# Youngs Moduli (GPa) = 90.92093 18.96289 80.83725
#
# Poissons Ratio (x) = 0.12878 0.31155
# Poissons Ratio (y) = 0.61745 -0.34482
# Poissons Ratio (z) = 0.35042 -0.08089
#
# Static dielectric constant tensor:
#      x y z
#    x 1.753920 0.000000 0.000000 
#    y 0.000000 1.738900 0.000000 
#    z 0.000000 0.000000 1.814810 
# 
# From -- ./inp_files/1776.got.cif
#   From: 2010.05.17/outbox.cif.g08.bks.cpg/sg45_1_cif.got.tgz:1776.got - 2010.06.03 19:51:22.
