data_PCOD9376818
_publ_section_title
;
Structure prediction by ZEFSAII (Michael W. Deem and Ramdas Pophale) SiO2 
 PCOD9376818
Probable space group: I B A 2
;
_chemical_formula_sum "Si O2"
_cell_formula_units_Z 40
_cell_length_a 13.506047
_cell_length_b 4.945258
_cell_length_c 26.942246
_cell_angle_alpha 90.000000
_cell_angle_beta 90.000000
_cell_angle_gamma 90.000000
_cell_volume 1799.496507
_symmetry_space_group_name_H-M "I B A 2"
_symmetry_group_IT_number 45
_symmetry_cell_setting 'orthorhombic'
loop_
_space_group_symop_operation_xyz
x,y,z
-x,-y,z
-x,y,1/2+z
x,-y,1/2+z
1/2+x,1/2+y,1/2+z
1/2-x,1/2-y,1/2+z
1/2-x,1/2+y,z
1/2+x,1/2-y,z
loop_
_atom_site_type_symbol
_atom_site_label
_atom_site_fract_x
_atom_site_fract_y
_atom_site_fract_z
Si Si1 0.000000 0.500000 0.370180
Si Si2 0.683270 0.517418 0.010022
Si Si3 0.500000 0.500000 0.939908
Si Si4 0.685457 0.462552 0.125187
Si Si5 0.435093 0.735153 0.711314
Si Si6 0.685645 0.808381 0.305491
O O1 0.972578 0.749010 0.405346
O O2 0.091458 0.597694 0.336788
O O3 0.775820 0.317747 0.001784
O O4 0.653940 0.494364 0.068006
O O5 0.593586 0.440086 0.974785
O O6 0.717418 0.152850 0.132479
O O7 0.607555 0.581123 0.163568
O O8 0.500000 0.500000 0.738116
O O9 0.347338 0.822235 0.748042
O O10 0.500000 0.000000 0.700371
O O11 0.723098 0.507611 0.315754
#
# Coordination Sequence:
#
# PCOD9376818 Si02
#       6
#     4   8   4   8   8   8
#     4  12  28  46  68 104 132 170 240 288 334 422
#     4  10  23  43  68  98 136 173 222 274 333 407
#     4  12  26  44  72  98 134 176 224 290 348 394
#     4  10  21  41  63  96 135 177 223 269 328 411
#     4  12  24  40  67 102 139 179 227 281 333 414
#     4  12  26  46  72  98 137 183 222 283 350 404
#
# _framework density 22.228439000000002
#
# number of rings (size 3 to 8) (size 9 to 14) (size 15 to 20)
#    0.000    0.800    1.000    6.000    2.800    4.800 
#    1.800    0.000    0.000    0.000    0.000    0.000 
#    0.000    0.000    0.000    0.000    0.000    0.000 
#
# Total GULP energy -111993.395277 kJ/mol
# GULP energy per Si atom -5599.669764 kJ/mol
# Density = 2.217785 g / cm^3
# Si number density = 22.228439 Si / 1000 Ang^3
#
#
#
# Elastic Constant Matrix: (Units=GPa)
#
#
# Indices 1 2 3 4 5 6 
#
# 1 67.5727 -6.5459 39.1163 0.0000 0.0000 0.0000
# 2 -6.5459 85.0040 7.7374 0.0000 0.0000 0.0000
# 3 39.1163 7.7374 84.5189 0.0000 0.0000 0.0000
# 4 0.0000 0.0000 0.0000 -42.3111 0.0000 0.0000
# 5 0.0000 0.0000 0.0000 0.0000 -69.8228 0.0000
# 6 0.0000 0.0000 0.0000 0.0000 0.0000 40.0686
#
#
#
# Elastic Compliance Matrix: (Units=1/GPa)
#
#
# Indices 1 2 3 4 5 6 
#
# 1 0.020724 0.002490 -0.009819 0.000000 0.000000 0.000000
# 2 0.002490 0.012162 -0.002266 0.000000 0.000000 0.000000
# 3 -0.009819 -0.002266 0.016584 0.000000 0.000000 0.000000
# 4 0.000000 0.000000 0.000000 -0.023634 0.000000 0.000000
# 5 0.000000 0.000000 0.000000 0.000000 -0.014322 0.000000
# 6 0.000000 0.000000 0.000000 0.000000 0.000000 0.024957
#
#
# Mechanical properties :
#
#
# Convention : Reuss Voigt Hill
#
# Bulk Modulus (GPa) = 33.02582 35.30125 34.16354
# Shear Modulus (GPa) = 76.04060 -1.29387 37.37336
#
# Velocity S-wave (km/s) = 5.85517 -0.76377 4.10485
# Velocity P-wave (km/s) = 7.78462 3.89073 6.15378
#
# Compressibility (1/GPa) = 0.03027934
#
# Stress axis : x y z
#
# Youngs Moduli (GPa) = 48.25270 82.22265 60.30057
#
# Poissons Ratio (x) = -0.20471 0.59211
# Poissons Ratio (y) = -0.12013 0.13662
# Poissons Ratio (z) = 0.47381 0.18629
#
# Static dielectric constant tensor:
#      x y z
#    x 1.810750 0.000000 0.000000 
#    y 0.000000 1.854320 0.000000 
#    z 0.000000 0.000000 1.795360 
# 
# From -- ./inp_files/9736.got.cif
#   From: 2010.05.17/outbox.cif.g08.bks.cpg/sg45_5_cif.got.tgz:9736.got - 2010.06.03 19:51:22.
