data_PCOD9376988
_publ_section_title
;
Structure prediction by ZEFSAII (Michael W. Deem and Ramdas Pophale) SiO2 
 PCOD9376988
Probable space group: I B A 2
;
_chemical_formula_sum "Si O2"
_cell_formula_units_Z 60
_cell_length_a 7.582802
_cell_length_b 15.404746
_cell_length_c 22.719627
_cell_angle_alpha 90.000000
_cell_angle_beta 90.000000
_cell_angle_gamma 90.000000
_cell_volume 2653.905502
_symmetry_space_group_name_H-M "I B A 2"
_symmetry_group_IT_number 45
_symmetry_cell_setting 'orthorhombic'
loop_
_space_group_symop_operation_xyz
x,y,z
-x,-y,z
-x,y,1/2+z
x,-y,1/2+z
1/2+x,1/2+y,1/2+z
1/2-x,1/2-y,1/2+z
1/2-x,1/2+y,z
1/2+x,1/2-y,z
loop_
_atom_site_type_symbol
_atom_site_label
_atom_site_fract_x
_atom_site_fract_y
_atom_site_fract_z
Si Si1 0.276145 0.870019 0.382920
Si Si2 0.000000 0.000000 0.563500
Si Si3 0.174910 0.688704 0.405192
Si Si4 0.705913 0.030962 0.270840
Si Si5 0.202622 0.845762 0.776446
Si Si6 0.706133 0.981729 0.471554
Si Si7 0.725391 0.378310 0.647512
Si Si8 0.983209 0.717364 0.691682
O O1 0.172618 0.792243 0.415209
O O2 0.479971 0.844806 0.391049
O O3 0.245354 0.889651 0.314479
O O4 0.252601 0.962887 0.413422
O O5 0.163725 0.979707 0.520465
O O6 0.095448 0.071791 0.604049
O O7 0.281042 0.683876 0.343667
O O8 0.237270 0.620116 0.455093
O O9 0.747585 0.063837 0.205628
O O10 0.500000 0.000000 0.282278
O O11 0.829454 0.947622 0.280456
O O12 0.088104 0.781139 0.736866
O O13 0.381778 0.842186 0.737985
O O14 0.500000 0.000000 0.486489
O O15 0.926372 0.343475 0.641979
O O16 0.637323 0.285850 0.659163
#
# Coordination Sequence:
#
# PCOD9376988 Si02
#       8
#     8   4   8   8   8   8   8   8
#     4  11  22  41  67 105 141 179 231 283 370 454
#     4  12  28  52  68 100 130 186 256 308 350 432
#     4  11  21  38  67  99 139 182 216 285 354 431
#     4  12  20  37  67 103 145 190 220 284 372 451
#     4  11  19  36  63 100 146 177 221 272 362 438
#     4  10  25  51  70  97 142 184 239 302 362 432
#     4  11  24  45  66  96 140 174 243 294 355 434
#     4  10  22  40  63 101 137 183 225 291 355 442
#
# _framework density 22.60819
#
# number of rings (size 3 to 8) (size 9 to 14) (size 15 to 20)
#    0.000    1.067    4.000    3.600    1.867    0.533 
#    7.200    0.000    0.000    0.000    0.000    0.000 
#    0.000    0.000    0.000    0.000    0.000    0.000 
#
# Total GULP energy -167197.731139 kJ/mol
# GULP energy per Si atom -5573.257705 kJ/mol
# Density = 2.255673 g / cm^3
# Si number density = 22.608190 Si / 1000 Ang^3
#
#
#
# Elastic Constant Matrix: (Units=GPa)
#
#
# Indices 1 2 3 4 5 6 
#
# 1 45.7533 18.6022 21.6313 0.0000 0.0000 0.0000
# 2 18.6022 99.7050 6.9928 0.0000 0.0000 0.0000
# 3 21.6313 6.9928 51.6118 0.0000 0.0000 0.0000
# 4 0.0000 0.0000 0.0000 -4.3831 0.0000 0.0000
# 5 0.0000 0.0000 0.0000 0.0000 24.0697 0.0000
# 6 0.0000 0.0000 0.0000 0.0000 0.0000 25.0182
#
#
#
# Elastic Compliance Matrix: (Units=1/GPa)
#
#
# Indices 1 2 3 4 5 6 
#
# 1 0.029239 -0.004640 -0.011626 0.000000 0.000000 0.000000
# 2 -0.004640 0.010862 0.000473 0.000000 0.000000 0.000000
# 3 -0.011626 0.000473 0.024184 0.000000 0.000000 0.000000
# 4 0.000000 0.000000 0.000000 -0.228147 0.000000 0.000000
# 5 0.000000 0.000000 0.000000 0.000000 0.041546 0.000000
# 6 0.000000 0.000000 0.000000 0.000000 0.000000 0.039971
#
#
# Mechanical properties :
#
#
# Convention : Reuss Voigt Hill
#
# Bulk Modulus (GPa) = 30.58143 32.39140 31.48642
# Shear Modulus (GPa) = -125.44286 18.93052 -53.25617
#
# Velocity S-wave (km/s) = -7.45695 2.89681 -4.85873
# Velocity P-wave (km/s) = 7.78366 5.05441 4.18559
#
# Compressibility (1/GPa) = 0.03269958
#
# Stress axis : x y z
#
# Youngs Moduli (GPa) = 34.20045 92.06337 41.34968
#
# Poissons Ratio (x) = 0.42716 0.48073
# Poissons Ratio (y) = 0.15869 -0.01956
# Poissons Ratio (z) = 0.39761 -0.04354
#
# Static dielectric constant tensor:
#      x y z
#    x 1.994170 0.000000 0.000000 
#    y 0.000000 1.912000 0.000000 
#    z 0.000000 0.000000 1.829790 
# 
# From -- ./inp_files/9577.got.cif
#   From: 2010.05.17/outbox.cif.g08.bks.cpg/sg45_5_cif.got.tgz:9577.got - 2010.06.03 19:51:22.
