data_PCOD9376742
_publ_section_title
;
Structure prediction by ZEFSAII (Michael W. Deem and Ramdas Pophale) SiO2 
 PCOD9376742
Probable space group: I B A 2
;
_chemical_formula_sum "Si O2"
_cell_formula_units_Z 64
_cell_length_a 13.603195
_cell_length_b 8.921766
_cell_length_c 24.539259
_cell_angle_alpha 90.000000
_cell_angle_beta 90.000000
_cell_angle_gamma 90.000000
_cell_volume 2978.195455
_symmetry_space_group_name_H-M "I B A 2"
_symmetry_group_IT_number 45
_symmetry_cell_setting 'orthorhombic'
loop_
_space_group_symop_operation_xyz
x,y,z
-x,-y,z
-x,y,1/2+z
x,-y,1/2+z
1/2+x,1/2+y,1/2+z
1/2-x,1/2-y,1/2+z
1/2-x,1/2+y,z
1/2+x,1/2-y,z
loop_
_atom_site_type_symbol
_atom_site_label
_atom_site_fract_x
_atom_site_fract_y
_atom_site_fract_z
Si Si1 0.319472 0.132681 0.552760
Si Si2 0.846631 0.098960 0.702860
Si Si3 0.515043 0.328567 0.101890
Si Si4 0.313743 0.702929 0.652482
Si Si5 0.173718 0.338593 0.485323
Si Si6 0.003412 0.319748 0.409959
Si Si7 0.354424 0.667216 0.327853
Si Si8 0.690302 0.354811 0.884641
O O1 0.416059 0.231912 0.562948
O O2 0.261794 0.124361 0.610160
O O3 0.242430 0.217145 0.513830
O O4 0.343643 0.974476 0.526385
O O5 0.925709 0.155013 0.658784
O O6 0.742856 0.164428 0.681983
O O7 0.867183 0.150705 0.763620
O O8 0.844237 0.920481 0.696746
O O9 0.500000 0.500000 0.081728
O O10 0.410061 0.259030 0.117248
O O11 0.073054 0.274364 0.460633
O O12 0.234769 0.397702 0.433018
O O13 0.058863 0.260494 0.356178
O O14 0.000000 0.500000 0.410464
O O15 0.897578 0.243313 0.409761
O O16 0.349048 0.503692 0.355648
O O17 0.253728 0.753765 0.343073
#
# Coordination Sequence:
#
# PCOD9376742 Si02
#       8
#     8   8   8   8   8   8   8   8
#     4  11  22  40  65  90 122 165 206 250 308 367
#     4  10  21  39  62  89 120 159 201 248 308 368
#     4   9  20  39  60  89 124 157 203 252 299 366
#     4  10  21  39  60  88 124 156 201 255 300 364
#     4  11  23  41  62  89 124 163 206 252 307 363
#     4  11  24  42  62  92 128 161 210 263 307 371
#     4  11  23  40  65  92 123 167 208 253 317 372
#     4  11  23  42  63  91 128 162 208 261 307 371
#
# _framework density 21.489522999999998
#
# number of rings (size 3 to 8) (size 9 to 14) (size 15 to 20)
#    0.000    1.500    0.000    7.125    0.000    6.000 
#    0.000   10.000    0.000    0.000    0.000    0.000 
#    0.000    0.000    0.000    0.000    0.000    0.000 
#
# Total GULP energy -179085.267266 kJ/mol
# GULP energy per Si atom -5596.414602 kJ/mol
# Density = 2.144061 g / cm^3
# Si number density = 21.489523 Si / 1000 Ang^3
#
#
#
# Elastic Constant Matrix: (Units=GPa)
#
#
# Indices 1 2 3 4 5 6 
#
# 1 112.5839 26.7173 11.7870 0.0000 0.0000 0.0000
# 2 26.7173 72.9170 26.9675 0.0000 0.0000 0.0000
# 3 11.7870 26.9675 56.3742 0.0000 0.0000 0.0000
# 4 0.0000 0.0000 0.0000 33.8703 0.0000 0.0000
# 5 0.0000 0.0000 0.0000 0.0000 17.0350 0.0000
# 6 0.0000 0.0000 0.0000 0.0000 0.0000 36.2246
#
#
#
# Elastic Compliance Matrix: (Units=1/GPa)
#
#
# Indices 1 2 3 4 5 6 
#
# 1 0.009736 -0.003419 -0.000400 0.000000 0.000000 0.000000
# 2 -0.003419 0.017863 -0.007830 0.000000 0.000000 0.000000
# 3 -0.000400 -0.007830 0.021568 0.000000 0.000000 0.000000
# 4 0.000000 0.000000 0.000000 0.029524 0.000000 0.000000
# 5 0.000000 0.000000 0.000000 0.000000 0.058703 0.000000
# 6 0.000000 0.000000 0.000000 0.000000 0.000000 0.027606
#
#
# Mechanical properties :
#
#
# Convention : Reuss Voigt Hill
#
# Bulk Modulus (GPa) = 38.65804 41.42428 40.04116
# Shear Modulus (GPa) = 25.39103 29.18623 27.28863
#
# Velocity S-wave (km/s) = 3.44110 3.68932 3.56737
# Velocity P-wave (km/s) = 5.81520 6.12099 5.97005
#
# Compressibility (1/GPa) = 0.02586784
#
# Stress axis : x y z
#
# Youngs Moduli (GPa) = 102.71619 55.98188 46.36532
#
# Poissons Ratio (x) = 0.19142 0.01854
# Poissons Ratio (y) = 0.35122 0.36304
# Poissons Ratio (z) = 0.04108 0.43834
#
# Static dielectric constant tensor:
#      x y z
#    x 1.789440 0.000000 0.000000 
#    y 0.000000 1.750040 0.000000 
#    z 0.000000 0.000000 1.778130 
# 
# From -- ./inp_files/9787.got.cif
#   From: 2010.05.17/outbox.cif.g08.bks.cpg/sg45_5_cif.got.tgz:9787.got - 2010.06.03 19:51:22.
