data_PCOD9376448
_publ_section_title
;
Structure prediction by ZEFSAII (Michael W. Deem and Ramdas Pophale) SiO2 
 PCOD9376448
Probable space group: I B A 2
;
_chemical_formula_sum "Si O2"
_cell_formula_units_Z 52
_cell_length_a 11.082948
_cell_length_b 15.385470
_cell_length_c 14.584129
_cell_angle_alpha 90.000000
_cell_angle_beta 90.000000
_cell_angle_gamma 90.000000
_cell_volume 2486.832649
_symmetry_space_group_name_H-M "I B A 2"
_symmetry_group_IT_number 45
_symmetry_cell_setting 'orthorhombic'
loop_
_space_group_symop_operation_xyz
x,y,z
-x,-y,z
-x,y,1/2+z
x,-y,1/2+z
1/2+x,1/2+y,1/2+z
1/2-x,1/2-y,1/2+z
1/2-x,1/2+y,z
1/2+x,1/2-y,z
loop_
_atom_site_type_symbol
_atom_site_label
_atom_site_fract_x
_atom_site_fract_y
_atom_site_fract_z
Si Si1 0.500000 0.000000 0.335800
Si Si2 0.907248 0.811669 0.138264
Si Si3 0.384744 0.604584 0.334712
Si Si4 0.749455 0.570125 0.294884
Si Si5 0.841211 0.235000 0.184823
Si Si6 0.363610 0.170480 0.379275
Si Si7 0.613023 0.640760 0.451485
O O1 0.387372 0.958533 0.280405
O O2 0.558217 0.917325 0.389026
O O3 0.913617 0.840392 0.244102
O O4 0.779748 0.762693 0.132769
O O5 0.037201 0.766719 0.125825
O O6 0.895059 0.882036 0.057775
O O7 0.331426 0.515534 0.295824
O O8 0.276482 0.646939 0.392822
O O9 0.501723 0.600298 0.396648
O O10 0.694954 0.641442 0.227203
O O11 0.732171 0.610733 0.397049
O O12 0.866644 0.298084 0.272259
O O13 0.398456 0.254732 0.437866
#
# Coordination Sequence:
#
# PCOD9376448 Si02
#       7
#     4   8   8   8   8   8   8
#     4  10  20  36  66  94 118 174 204 266 330 390
#     4  11  23  38  63  95 123 172 218 268 328 390
#     4  10  21  42  59  93 122 167 215 263 319 387
#     4  10  21  40  64  90 128 168 217 270 332 389
#     4  10  21  40  63  90 127 166 216 269 322 394
#     4   9  20  36  63  87 124 160 210 254 322 378
#     4  11  23  37  64  91 128 168 214 266 318 397
#
# _framework density 20.910131
#
# number of rings (size 3 to 8) (size 9 to 14) (size 15 to 20)
#    0.000    1.846    3.077    1.385    6.462    0.000 
#    5.538    0.000    0.000   12.000    0.000    0.000 
#    0.000    0.000    0.000    0.000    0.000    0.000 
#
# Total GULP energy -144949.971932 kJ/mol
# GULP energy per Si atom -5574.998920 kJ/mol
# Density = 2.086254 g / cm^3
# Si number density = 20.910131 Si / 1000 Ang^3
#
#
#
# Elastic Constant Matrix: (Units=GPa)
#
#
# Indices 1 2 3 4 5 6 
#
# 1 157.4816 38.3540 34.5857 0.0000 0.0000 0.0000
# 2 38.3540 72.3346 -14.6789 0.0000 0.0000 0.0000
# 3 34.5857 -14.6789 39.3742 0.0000 0.0000 0.0000
# 4 0.0000 0.0000 0.0000 5.7533 0.0000 0.0000
# 5 0.0000 0.0000 0.0000 0.0000 14.9797 0.0000
# 6 0.0000 0.0000 0.0000 0.0000 0.0000 23.4222
#
#
#
# Elastic Compliance Matrix: (Units=1/GPa)
#
#
# Indices 1 2 3 4 5 6 
#
# 1 0.011387 -0.008727 -0.013256 0.000000 0.000000 0.000000
# 2 -0.008727 0.021645 0.015736 0.000000 0.000000 0.000000
# 3 -0.013256 0.015736 0.042907 0.000000 0.000000 0.000000
# 4 0.000000 0.000000 0.000000 0.173812 0.000000 0.000000
# 5 0.000000 0.000000 0.000000 0.000000 0.066757 0.000000
# 6 0.000000 0.000000 0.000000 0.000000 0.000000 0.042694
#
#
# Mechanical properties :
#
#
# Convention : Reuss Voigt Hill
#
# Bulk Modulus (GPa) = 15.76179 42.85688 29.30934
# Shear Modulus (GPa) = 12.72765 22.89303 17.81034
#
# Velocity S-wave (km/s) = 2.46983 3.31241 2.92165
# Velocity P-wave (km/s) = 3.96076 5.93040 5.04268
#
# Compressibility (1/GPa) = 0.06344456
#
# Stress axis : x y z
#
# Youngs Moduli (GPa) = 87.82222 46.19903 23.30613
#
# Poissons Ratio (x) = 0.40320 0.30893
# Poissons Ratio (y) = 0.76647 -0.36674
# Poissons Ratio (z) = 1.16413 -0.72697
#
# Static dielectric constant tensor:
#      x y z
#    x 1.779150 0.000000 0.000000 
#    y 0.000000 1.795790 0.000000 
#    z 0.000000 0.000000 1.737360 
# 
# From -- ./inp_files/6228.got.cif
#   From: 2010.05.17/outbox.cif.g08.bks.cpg/sg45_4_cif.got.tgz:6228.got - 2010.06.03 19:51:22.
