data_PCOD9376105
_publ_section_title
;
Structure prediction by ZEFSAII (Michael W. Deem and Ramdas Pophale) SiO2 
 PCOD9376105
Probable space group: I B A 2
;
_chemical_formula_sum "Si O2"
_cell_formula_units_Z 48
_cell_length_a 23.765000
_cell_length_b 7.179325
_cell_length_c 11.664827
_cell_angle_alpha 90.000000
_cell_angle_beta 90.000000
_cell_angle_gamma 90.000000
_cell_volume 1990.213806
_symmetry_space_group_name_H-M "I B A 2"
_symmetry_group_IT_number 45
_symmetry_cell_setting 'orthorhombic'
loop_
_space_group_symop_operation_xyz
x,y,z
-x,-y,z
-x,y,1/2+z
x,-y,1/2+z
1/2+x,1/2+y,1/2+z
1/2-x,1/2-y,1/2+z
1/2-x,1/2+y,z
1/2+x,1/2-y,z
loop_
_atom_site_type_symbol
_atom_site_label
_atom_site_fract_x
_atom_site_fract_y
_atom_site_fract_z
Si Si1 0.148099 0.272578 0.196270
Si Si2 0.571384 0.763660 0.324597
Si Si3 0.123417 0.333426 0.587051
Si Si4 0.556695 0.213042 0.364834
Si Si5 0.212321 0.431775 0.407535
Si Si6 0.330654 0.657013 0.962486
O O1 0.123217 0.447773 0.123531
O O2 0.099257 0.194026 0.275621
O O3 0.193679 0.348890 0.285977
O O4 0.171620 0.138885 0.099227
O O5 0.606349 0.739071 0.206777
O O6 0.505387 0.722387 0.333087
O O7 0.605850 0.648849 0.419394
O O8 0.567913 0.989244 0.346244
O O9 0.076335 0.270488 0.495804
O O10 0.182155 0.320653 0.514215
O O11 0.279001 0.456673 0.412396
O O12 0.186715 0.636108 0.420980
#
# Coordination Sequence:
#
# PCOD9376105 Si02
#       6
#     8   8   8   8   8   8
#     4   9  17  33  48  71 105 131 167 209 258 305
#     4  10  18  26  47  73 102 127 162 211 257 303
#     4   9  16  32  44  70 103 130 168 203 256 305
#     4   9  17  27  47  72 103 130 158 209 273 300
#     4  10  21  34  50  72 103 143 168 212 249 308
#     4  11  21  33  51  75 107 131 175 205 256 304
#
# _framework density 24.118010999999999
#
# number of rings (size 3 to 8) (size 9 to 14) (size 15 to 20)
#    0.000    2.333    6.667    0.000    4.667    1.333 
#    0.000    0.000    0.000    0.000    0.000    4.667 
#    0.000    0.000    0.000    0.000    0.000    0.000 
#
# Total GULP energy -133923.926091 kJ/mol
# GULP energy per Si atom -5580.163587 kJ/mol
# Density = 2.406312 g / cm^3
# Si number density = 24.118011 Si / 1000 Ang^3
#
#
#
# Elastic Constant Matrix: (Units=GPa)
#
#
# Indices 1 2 3 4 5 6 
#
# 1 100.6397 24.7702 9.3208 0.0000 0.0000 0.0000
# 2 24.7702 69.0068 24.6092 0.0000 0.0000 0.0000
# 3 9.3208 24.6092 129.6017 0.0000 0.0000 0.0000
# 4 0.0000 0.0000 0.0000 15.6299 0.0000 0.0000
# 5 0.0000 0.0000 0.0000 0.0000 19.8124 0.0000
# 6 0.0000 0.0000 0.0000 0.0000 0.0000 4.4297
#
#
#
# Elastic Compliance Matrix: (Units=1/GPa)
#
#
# Indices 1 2 3 4 5 6 
#
# 1 0.010900 -0.003897 -0.000044 0.000000 0.000000 0.000000
# 2 -0.003897 0.016937 -0.002936 0.000000 0.000000 0.000000
# 3 -0.000044 -0.002936 0.008277 0.000000 0.000000 0.000000
# 4 0.000000 0.000000 0.000000 0.063980 0.000000 0.000000
# 5 0.000000 0.000000 0.000000 0.000000 0.050473 0.000000
# 6 0.000000 0.000000 0.000000 0.000000 0.000000 0.225751
#
#
# Mechanical properties :
#
#
# Convention : Reuss Voigt Hill
#
# Bulk Modulus (GPa) = 44.72240 46.29428 45.50834
# Shear Modulus (GPa) = 12.57786 24.01092 18.29439
#
# Velocity S-wave (km/s) = 2.28614 3.15867 2.75714
# Velocity P-wave (km/s) = 5.05490 5.70434 5.38941
#
# Compressibility (1/GPa) = 0.02236016
#
# Stress axis : x y z
#
# Youngs Moduli (GPa) = 91.74643 59.04212 120.82294
#
# Poissons Ratio (x) = 0.23007 0.00531
# Poissons Ratio (y) = 0.35751 0.35471
# Poissons Ratio (z) = 0.00403 0.17334
#
# Static dielectric constant tensor:
#      x y z
#    x 2.010200 0.000000 0.000000 
#    y 0.000000 2.050480 0.000000 
#    z 0.000000 0.000000 1.906670 
# 
# From -- ./inp_files/3305.got.cif
#   From: 2010.05.17/outbox.cif.g08.bks.cpg/sg45_2_cif.got.tgz:3305.got - 2010.06.03 19:51:22.
