data_PCOD9376560
_publ_section_title
;
Structure prediction by ZEFSAII (Michael W. Deem and Ramdas Pophale) SiO2 
 PCOD9376560
Probable space group: I B A 2
;
_chemical_formula_sum "Si O2"
_cell_formula_units_Z 48
_cell_length_a 9.940493
_cell_length_b 16.019564
_cell_length_c 16.713589
_cell_angle_alpha 90.000000
_cell_angle_beta 90.000000
_cell_angle_gamma 90.000000
_cell_volume 2661.511420
_symmetry_space_group_name_H-M "I B A 2"
_symmetry_group_IT_number 45
_symmetry_cell_setting 'orthorhombic'
loop_
_space_group_symop_operation_xyz
x,y,z
-x,-y,z
-x,y,1/2+z
x,-y,1/2+z
1/2+x,1/2+y,1/2+z
1/2-x,1/2-y,1/2+z
1/2-x,1/2+y,z
1/2+x,1/2-y,z
loop_
_atom_site_type_symbol
_atom_site_label
_atom_site_fract_x
_atom_site_fract_y
_atom_site_fract_z
Si Si1 0.026967 0.169917 0.312730
Si Si2 0.621267 0.566427 0.953721
Si Si3 0.233042 0.309359 0.276729
Si Si4 0.369395 0.955328 0.393124
Si Si5 0.500000 0.500000 0.712586
Si Si6 0.500000 0.000000 0.547469
Si Si7 0.259322 0.577131 0.623461
O O1 0.068621 0.142629 0.401111
O O2 0.137663 0.230096 0.276270
O O3 0.882090 0.212632 0.306802
O O4 0.013690 0.082337 0.266008
O O5 0.500000 0.500000 0.964159
O O6 0.743867 0.517952 0.908403
O O7 0.675073 0.599134 0.038302
O O8 0.176735 0.378556 0.339275
O O9 0.244371 0.351000 0.189315
O O10 0.426552 0.937675 0.483272
O O11 0.500000 0.000000 0.354120
O O12 0.364721 0.511330 0.661327
O O13 0.614577 0.959828 0.601262
#
# Coordination Sequence:
#
# PCOD9376560 Si02
#       7
#     8   8   8   8   4   4   8
#     4  11  24  40  62  88 125 166 215 250 318 379
#     4  11  18  40  67  88 120 163 214 262 295 388
#     4  11  24  40  58  94 123 162 207 260 316 373
#     4   9  20  37  62  90 118 158 213 244 310 374
#     4  10  20  40  62  86 116 172 206 252 312 390
#     4   8  20  34  60  92 120 160 204 250 312 368
#     4  10  21  36  61  92 121 153 208 257 318 359
#
# _framework density 18.034865
#
# number of rings (size 3 to 8) (size 9 to 14) (size 15 to 20)
#    0.500    1.333    3.333    1.000    3.500    1.333 
#    0.000   10.000    0.000    0.000    0.000    0.000 
#    0.000    0.000    0.000    0.000    0.000    0.000 
#
# Total GULP energy -133767.354521 kJ/mol
# GULP energy per Si atom -5573.639772 kJ/mol
# Density = 1.799382 g / cm^3
# Si number density = 18.034865 Si / 1000 Ang^3
#
#
#
# Elastic Constant Matrix: (Units=GPa)
#
#
# Indices 1 2 3 4 5 6 
#
# 1 153.8788 41.9030 43.4963 0.0000 0.0000 0.0000
# 2 41.9030 55.1224 26.0350 0.0000 0.0000 0.0000
# 3 43.4963 26.0350 91.5006 0.0000 0.0000 0.0000
# 4 0.0000 0.0000 0.0000 0.1615 0.0000 0.0000
# 5 0.0000 0.0000 0.0000 0.0000 18.7470 0.0000
# 6 0.0000 0.0000 0.0000 0.0000 0.0000 33.4226
#
#
#
# Elastic Compliance Matrix: (Units=1/GPa)
#
#
# Indices 1 2 3 4 5 6 
#
# 1 0.008701 -0.005384 -0.002604 0.000000 0.000000 0.000000
# 2 -0.005384 0.024290 -0.004352 0.000000 0.000000 0.000000
# 3 -0.002604 -0.004352 0.013405 0.000000 0.000000 0.000000
# 4 0.000000 0.000000 0.000000 6.191587 0.000000 0.000000
# 5 0.000000 0.000000 0.000000 0.000000 0.053342 0.000000
# 6 0.000000 0.000000 0.000000 0.000000 0.000000 0.029920
#
#
# Mechanical properties :
#
#
# Convention : Reuss Voigt Hill
#
# Bulk Modulus (GPa) = 46.05015 58.15226 52.10121
# Shear Modulus (GPa) = 0.78701 23.07071 11.92886
#
# Velocity S-wave (km/s) = 0.66131 3.58051 2.57462
# Velocity P-wave (km/s) = 5.11591 7.02907 6.14737
#
# Compressibility (1/GPa) = 0.02171545
#
# Stress axis : x y z
#
# Youngs Moduli (GPa) = 114.93022 41.16938 74.59892
#
# Poissons Ratio (x) = 0.22167 0.19426
# Poissons Ratio (y) = 0.61882 0.32464
# Poissons Ratio (z) = 0.29929 0.17916
#
# Static dielectric constant tensor:
#      x y z
#    x 1.653060 0.000000 0.000000 
#    y 0.000000 1.590330 0.000000 
#    z 0.000000 0.000000 1.631630 
# 
# From -- ./inp_files/7606.got.cif
#   From: 2010.05.17/outbox.cif.g08.bks.cpg/sg45_4_cif.got.tgz:7606.got - 2010.06.03 19:51:22.
