data_PCOD9376806
_publ_section_title
;
Structure prediction by ZEFSAII (Michael W. Deem and Ramdas Pophale) SiO2 
 PCOD9376806
Probable space group: I B A 2
;
_chemical_formula_sum "Si O2"
_cell_formula_units_Z 48
_cell_length_a 8.292982
_cell_length_b 29.309762
_cell_length_c 8.644323
_cell_angle_alpha 90.000000
_cell_angle_beta 90.000000
_cell_angle_gamma 90.000000
_cell_volume 2101.135211
_symmetry_space_group_name_H-M "I B A 2"
_symmetry_group_IT_number 45
_symmetry_cell_setting 'orthorhombic'
loop_
_space_group_symop_operation_xyz
x,y,z
-x,-y,z
-x,y,1/2+z
x,-y,1/2+z
1/2+x,1/2+y,1/2+z
1/2-x,1/2-y,1/2+z
1/2-x,1/2+y,z
1/2+x,1/2-y,z
loop_
_atom_site_type_symbol
_atom_site_label
_atom_site_fract_x
_atom_site_fract_y
_atom_site_fract_z
Si Si1 0.768748 0.709029 0.154300
Si Si2 0.972684 0.836878 0.841439
Si Si3 0.831260 0.473050 0.999204
Si Si4 0.948992 0.735088 0.460973
Si Si5 0.351646 0.606518 0.128764
Si Si6 0.127148 0.035717 0.707664
O O1 0.639580 0.670134 0.189203
O O2 0.858868 0.714396 0.316189
O O3 0.670263 0.754426 0.104381
O O4 0.902160 0.705629 0.021614
O O5 0.000296 0.785952 0.906059
O O6 0.136353 0.859790 0.776187
O O7 0.879967 0.865870 0.970386
O O8 0.766928 0.456553 0.832698
O O9 0.000000 0.500000 0.993384
O O10 0.797820 0.428690 0.109364
O O11 0.709393 0.511024 0.064129
O O12 0.513306 0.576474 0.155179
O O13 0.000000 0.000000 0.778847
#
# Coordination Sequence:
#
# PCOD9376806 Si02
#       6
#     8   8   8   8   8   8
#     4  12  23  42  70 101 142 192 251 300 358 450
#     4  12  23  41  72 103 139 182 246 301 360 424
#     4  11  23  41  69 101 136 176 230 296 361 432
#     4  12  23  42  69 101 138 193 254 296 360 444
#     4  11  23  42  69  99 135 184 238 291 364 446
#     4  10  21  40  69  97 127 183 235 275 346 461
#
# _framework density 22.844794
#
# number of rings (size 3 to 8) (size 9 to 14) (size 15 to 20)
#    0.000    0.667    6.667    2.000    2.333    0.000 
#    0.000    1.667    3.667    0.000    0.000    0.000 
#    0.000    0.000    0.000    0.000    0.000    0.000 
#
# Total GULP energy -133974.540111 kJ/mol
# GULP energy per Si atom -5582.272505 kJ/mol
# Density = 2.279280 g / cm^3
# Si number density = 22.844794 Si / 1000 Ang^3
#
#
#
# Elastic Constant Matrix: (Units=GPa)
#
#
# Indices 1 2 3 4 5 6 
#
# 1 101.9617 24.5607 27.5004 0.0001 0.0001 0.0000
# 2 24.5607 76.1007 22.2920 0.0000 0.0001 0.0000
# 3 27.5004 22.2920 73.6977 -0.0009 -0.0006 0.0000
# 4 0.0001 0.0000 -0.0009 31.1712 0.0001 0.0001
# 5 0.0001 0.0001 -0.0006 0.0001 48.0033 -0.0002
# 6 0.0000 0.0000 0.0000 0.0001 -0.0002 38.5033
#
#
#
# Elastic Compliance Matrix: (Units=1/GPa)
#
#
# Indices 1 2 3 4 5 6 
#
# 1 0.011377 -0.002664 -0.003439 0.000000 0.000000 0.000000
# 2 -0.002664 0.015042 -0.003556 0.000000 0.000000 0.000000
# 3 -0.003439 -0.003556 0.015928 0.000000 0.000000 0.000000
# 4 0.000000 0.000000 0.000000 0.032081 0.000000 0.000000
# 5 0.000000 0.000000 0.000000 0.000000 0.020832 0.000000
# 6 0.000000 0.000000 0.000000 0.000000 0.000000 0.025972
#
#
# Mechanical properties :
#
#
# Convention : Reuss Voigt Hill
#
# Bulk Modulus (GPa) = 43.42542 44.49623 43.96083
# Shear Modulus (GPa) = 33.73219 35.36268 34.54743
#
# Velocity S-wave (km/s) = 3.84680 3.93867 3.89301
# Velocity P-wave (km/s) = 6.22741 6.34067 6.28430
#
# Compressibility (1/GPa) = 0.02302799
#
# Stress axis : x y z
#
# Youngs Moduli (GPa) = 87.89618 66.48092 62.78289
#
# Poissons Ratio (x) = 0.17713 0.21594
# Poissons Ratio (y) = 0.23418 0.22324
# Poissons Ratio (z) = 0.30232 0.23638
#
# Static dielectric constant tensor:
#      x y z
#    x 1.924400 0.000000 0.000000 
#    y 0.000000 1.865210 0.000000 
#    z 0.000000 0.000000 1.907730 
# 
# From -- ./inp_files/1064.got.cif
#   From: 2010.05.17/outbox.cif.g08.bks.cpg/sg45_1_cif.got.tgz:1064.got - 2010.06.03 19:51:22.
