data_PCOD9376574
_publ_section_title
;
Structure prediction by ZEFSAII (Michael W. Deem and Ramdas Pophale) SiO2 
 PCOD9376574
Probable space group: I B A 2
;
_chemical_formula_sum "Si O2"
_cell_formula_units_Z 64
_cell_length_a 15.882981
_cell_length_b 9.963220
_cell_length_c 17.171647
_cell_angle_alpha 90.000000
_cell_angle_beta 90.000000
_cell_angle_gamma 90.000000
_cell_volume 2717.338166
_symmetry_space_group_name_H-M "I B A 2"
_symmetry_group_IT_number 45
_symmetry_cell_setting 'orthorhombic'
loop_
_space_group_symop_operation_xyz
x,y,z
-x,-y,z
-x,y,1/2+z
x,-y,1/2+z
1/2+x,1/2+y,1/2+z
1/2-x,1/2-y,1/2+z
1/2-x,1/2+y,z
1/2+x,1/2-y,z
loop_
_atom_site_type_symbol
_atom_site_label
_atom_site_fract_x
_atom_site_fract_y
_atom_site_fract_z
Si Si1 0.375992 0.407437 0.692680
Si Si2 0.457660 0.310447 0.246958
Si Si3 0.380475 0.208028 0.011411
Si Si4 0.054527 0.801926 0.430373
Si Si5 0.903039 0.451557 0.164800
Si Si6 0.231347 0.267470 0.891610
Si Si7 0.768326 0.517268 0.286113
Si Si8 0.904332 0.995484 0.545832
O O1 0.447511 0.304260 0.714693
O O2 0.415651 0.551678 0.718987
O O3 0.291001 0.416551 0.737674
O O4 0.357223 0.402716 0.601334
O O5 0.465243 0.304572 0.339674
O O6 0.406896 0.187508 0.212622
O O7 0.476172 0.234357 0.976533
O O8 0.311921 0.219065 0.942388
O O9 0.376365 0.089777 0.075741
O O10 0.366429 0.350506 0.054258
O O11 0.144993 0.735210 0.440553
O O12 0.081047 0.951295 0.459636
O O13 0.844059 0.539286 0.223454
O O14 0.000000 0.500000 0.160349
O O15 0.225231 0.420143 0.861185
O O16 0.231643 0.156722 0.821037
O O17 0.000000 0.000000 0.577547
#
# Coordination Sequence:
#
# PCOD9376574 Si02
#       8
#     8   8   8   8   8   8   8   8
#     4  11  21  39  75 100 135 178 238 304 356 409
#     4  11  21  44  72 105 137 182 241 303 361 436
#     4  11  26  46  69 106 148 194 242 304 375 450
#     4  11  23  42  72 103 145 185 246 306 368 441
#     4  12  28  50  68 103 156 203 241 289 382 464
#     4  12  27  48  73 111 146 194 251 309 379 437
#     4  12  27  47  73 109 144 188 253 302 363 445
#     4  10  20  40  67 103 133 174 237 298 359 418
#
# _framework density 23.552461999999998
#
# number of rings (size 3 to 8) (size 9 to 14) (size 15 to 20)
#    0.000    0.750    5.000    2.250   10.500    1.000 
#    2.250    0.000    0.000    0.000    0.000    0.000 
#    0.000    0.000    0.000    0.000    0.000    0.000 
#
# Total GULP energy -178236.891439 kJ/mol
# GULP energy per Si atom -5569.902857 kJ/mol
# Density = 2.349886 g / cm^3
# Si number density = 23.552462 Si / 1000 Ang^3
#
#
#
# Elastic Constant Matrix: (Units=GPa)
#
#
# Indices 1 2 3 4 5 6 
#
# 1 95.2367 -1.7909 18.7181 0.0000 0.0000 0.0000
# 2 -1.7909 52.4182 8.2356 0.0000 0.0000 0.0000
# 3 18.7181 8.2356 105.1552 0.0000 0.0000 0.0000
# 4 0.0000 0.0000 0.0000 17.7029 0.0000 0.0000
# 5 0.0000 0.0000 0.0000 0.0000 22.2056 0.0000
# 6 0.0000 0.0000 0.0000 0.0000 0.0000 16.6505
#
#
#
# Elastic Compliance Matrix: (Units=1/GPa)
#
#
# Indices 1 2 3 4 5 6 
#
# 1 0.010905 0.000686 -0.001995 0.000000 0.000000 0.000000
# 2 0.000686 0.019358 -0.001638 0.000000 0.000000 0.000000
# 3 -0.001995 -0.001638 0.009993 0.000000 0.000000 0.000000
# 4 0.000000 0.000000 0.000000 0.056488 0.000000 0.000000
# 5 0.000000 0.000000 0.000000 0.000000 0.045034 0.000000
# 6 0.000000 0.000000 0.000000 0.000000 0.000000 0.060058
#
#
# Mechanical properties :
#
#
# Convention : Reuss Voigt Hill
#
# Bulk Modulus (GPa) = 29.10171 33.68175 31.39173
# Shear Modulus (GPa) = 22.81180 26.48827 24.65004
#
# Velocity S-wave (km/s) = 3.11553 3.35722 3.23863
# Velocity P-wave (km/s) = 5.03240 5.41846 5.22899
#
# Compressibility (1/GPa) = 0.03436225
#
# Stress axis : x y z
#
# Youngs Moduli (GPa) = 91.69992 51.65779 100.06851
#
# Poissons Ratio (x) = -0.03544 0.19963
# Poissons Ratio (y) = -0.06291 0.16393
# Poissons Ratio (z) = 0.18293 0.08463
#
# Static dielectric constant tensor:
#      x y z
#    x 1.943210 0.000000 0.000000 
#    y 0.000000 0.102790 0.000000 
#    z 0.000000 0.000000 2.073800 
# 
# From -- ./inp_files/8235.got.cif
#   From: 2010.05.17/outbox.cif.g08.bks.cpg/sg45_5_cif.got.tgz:8235.got - 2010.06.03 19:51:22.
