data_PCOD9376903
_publ_section_title
;
Structure prediction by ZEFSAII (Michael W. Deem and Ramdas Pophale) SiO2 
 PCOD9376903
Probable space group: I B A 2
;
_chemical_formula_sum "Si O2"
_cell_formula_units_Z 40
_cell_length_a 13.101925
_cell_length_b 10.734495
_cell_length_c 12.963839
_cell_angle_alpha 90.000000
_cell_angle_beta 90.000000
_cell_angle_gamma 90.000000
_cell_volume 1823.267354
_symmetry_space_group_name_H-M "I B A 2"
_symmetry_group_IT_number 45
_symmetry_cell_setting 'orthorhombic'
loop_
_space_group_symop_operation_xyz
x,y,z
-x,-y,z
-x,y,1/2+z
x,-y,1/2+z
1/2+x,1/2+y,1/2+z
1/2-x,1/2-y,1/2+z
1/2-x,1/2+y,z
1/2+x,1/2-y,z
loop_
_atom_site_type_symbol
_atom_site_label
_atom_site_fract_x
_atom_site_fract_y
_atom_site_fract_z
Si Si1 0.743586 0.882653 0.132130
Si Si2 0.681189 0.129933 0.038354
Si Si3 0.014750 0.360535 0.879192
Si Si4 0.047577 0.128171 0.238847
Si Si5 0.031405 0.315153 0.604656
O O1 0.764415 0.757353 0.067469
O O2 0.832605 0.887463 0.216791
O O3 0.627460 0.861829 0.169246
O O4 0.745414 0.007791 0.063658
O O5 0.580499 0.122676 0.113397
O O6 0.629256 0.143652 0.926634
O O7 0.000000 0.500000 0.838815
O O8 0.981004 0.245663 0.809668
O O9 0.947145 0.345498 0.984764
O O10 0.993014 0.171509 0.131338
O O11 0.000000 0.000000 0.276728
#
# Coordination Sequence:
#
# PCOD9376903 Si02
#       5
#     8   8   8   8   8
#     4  11  19  41  70  93 127 187 234 280 359 427
#     4   9  20  38  67  96 129 178 233 290 341 430
#     4  10  21  45  68  96 138 190 234 287 352 441
#     4  11  25  41  64 107 143 177 231 313 360 409
#     4   9  20  43  70  90 136 188 237 278 352 439
#
# _framework density 21.938637
#
# number of rings (size 3 to 8) (size 9 to 14) (size 15 to 20)
#    1.200    0.800    2.000    1.800    0.000    4.800 
#    7.200    0.000    0.000    0.000    0.000    0.000 
#    0.000    0.000    0.000    0.000    0.000    0.000 
#
# Total GULP energy -111357.305722 kJ/mol
# GULP energy per Si atom -5567.865286 kJ/mol
# Density = 2.188870 g / cm^3
# Si number density = 21.938637 Si / 1000 Ang^3
#
#
#
# Elastic Constant Matrix: (Units=GPa)
#
#
# Indices 1 2 3 4 5 6 
#
# 1 109.5167 70.8673 27.4682 0.0000 0.0000 0.0000
# 2 70.8673 202.2341 54.6274 0.0000 0.0000 0.0000
# 3 27.4682 54.6274 57.5877 0.0000 0.0000 0.0000
# 4 0.0000 0.0000 0.0000 40.4025 0.0000 0.0000
# 5 0.0000 0.0000 0.0000 0.0000 30.3366 0.0000
# 6 0.0000 0.0000 0.0000 0.0000 0.0000 23.4762
#
#
#
# Elastic Compliance Matrix: (Units=1/GPa)
#
#
# Indices 1 2 3 4 5 6 
#
# 1 0.012039 -0.003587 -0.002340 0.000000 0.000000 0.000000
# 2 -0.003587 0.007717 -0.005609 0.000000 0.000000 0.000000
# 3 -0.002340 -0.005609 0.023802 0.000000 0.000000 0.000000
# 4 0.000000 0.000000 0.000000 0.024751 0.000000 0.000000
# 5 0.000000 0.000000 0.000000 0.000000 0.032964 0.000000
# 6 0.000000 0.000000 0.000000 0.000000 0.000000 0.042596
#
#
# Mechanical properties :
#
#
# Convention : Reuss Voigt Hill
#
# Bulk Modulus (GPa) = 48.81484 75.02935 61.92210
# Shear Modulus (GPa) = 28.77385 33.26809 31.02097
#
# Velocity S-wave (km/s) = 3.62548 3.89834 3.76438
# Velocity P-wave (km/s) = 6.31066 7.38489 6.86881
#
# Compressibility (1/GPa) = 0.02048557
#
# Stress axis : x y z
#
# Youngs Moduli (GPa) = 83.06487 129.58778 42.01325
#
# Poissons Ratio (x) = 0.46477 0.09831
# Poissons Ratio (y) = 0.29792 0.23567
# Poissons Ratio (z) = 0.19438 0.72691
#
# Static dielectric constant tensor:
#      x y z
#    x 1.856830 0.000000 0.000000 
#    y 0.000000 1.808180 0.000000 
#    z 0.000000 0.000000 1.932620 
# 
# From -- ./inp_files/6432.got.cif
#   From: 2010.05.17/outbox.cif.g08.bks.cpg/sg45_4_cif.got.tgz:6432.got - 2010.06.03 19:51:22.
