data_PCOD9376558
_publ_section_title
;
Structure prediction by ZEFSAII (Michael W. Deem and Ramdas Pophale) SiO2 
 PCOD9376558
Probable space group: I B A 2
;
_chemical_formula_sum "Si O2"
_cell_formula_units_Z 60
_cell_length_a 9.177851
_cell_length_b 17.909904
_cell_length_c 16.929454
_cell_angle_alpha 90.000000
_cell_angle_beta 90.000000
_cell_angle_gamma 90.000000
_cell_volume 2782.769357
_symmetry_space_group_name_H-M "I B A 2"
_symmetry_group_IT_number 45
_symmetry_cell_setting 'orthorhombic'
loop_
_space_group_symop_operation_xyz
x,y,z
-x,-y,z
-x,y,1/2+z
x,-y,1/2+z
1/2+x,1/2+y,1/2+z
1/2-x,1/2-y,1/2+z
1/2-x,1/2+y,z
1/2+x,1/2-y,z
loop_
_atom_site_type_symbol
_atom_site_label
_atom_site_fract_x
_atom_site_fract_y
_atom_site_fract_z
Si Si1 0.533614 0.657341 0.653250
Si Si2 0.177683 0.301071 0.472302
Si Si3 0.664851 0.867186 0.811943
Si Si4 0.009379 0.153810 0.485911
Si Si5 0.540076 0.079483 0.037457
Si Si6 0.500000 0.000000 0.887472
Si Si7 0.200473 0.307735 0.147996
Si Si8 0.997216 0.088634 0.817671
O O1 0.514458 0.611801 0.570257
O O2 0.371798 0.690606 0.664844
O O3 0.643817 0.724499 0.633954
O O4 0.575755 0.618524 0.736122
O O5 0.124919 0.310551 0.381911
O O6 0.120093 0.221979 0.501034
O O7 0.350198 0.310580 0.469939
O O8 0.101065 0.368658 0.520215
O O9 0.592205 0.945097 0.834728
O O10 0.621936 0.835559 0.727968
O O11 0.836874 0.882340 0.813753
O O12 0.056180 0.112722 0.405297
O O13 0.651826 0.131620 0.082997
O O14 0.500000 0.000000 0.078220
O O15 0.590930 0.050296 0.950664
O O16 0.000000 0.000000 0.813909
#
# Coordination Sequence:
#
# PCOD9376558 Si02
#       8
#     8   8   8   8   8   4   8   8
#     4  11  24  42  63  95 125 162 210 261 309 373
#     4  10  20  40  61  93 123 160 210 251 298 381
#     4   9  20  39  60  83 126 159 205 247 306 371
#     4  11  22  40  68  90 125 168 206 253 322 363
#     4   9  20  36  59  87 127 153 198 259 295 362
#     4   8  18  36  54  90 114 160 200 248 296 358
#     4  11  22  40  63  92 125 161 209 254 310 370
#     4  10  24  45  58  90 128 163 208 264 307 373
#
# _framework density 21.561256
#
# number of rings (size 3 to 8) (size 9 to 14) (size 15 to 20)
#    0.400    1.600    1.333    1.600    0.933    1.600 
#    9.600    0.000    0.000    0.000    0.000    0.000 
#    0.000    0.000    0.000    0.000    0.000    0.000 
#
# Total GULP energy -167210.116109 kJ/mol
# GULP energy per Si atom -5573.670537 kJ/mol
# Density = 2.151218 g / cm^3
# Si number density = 21.561256 Si / 1000 Ang^3
#
#
#
# Elastic Constant Matrix: (Units=GPa)
#
#
# Indices 1 2 3 4 5 6 
#
# 1 40.4937 -3.2615 -10.8405 0.0000 0.0000 0.0000
# 2 -3.2615 85.6596 44.1768 0.0000 0.0000 0.0000
# 3 -10.8405 44.1768 151.1922 0.0000 0.0000 0.0000
# 4 0.0000 0.0000 0.0000 25.3202 0.0000 0.0000
# 5 0.0000 0.0000 0.0000 0.0000 21.8788 0.0000
# 6 0.0000 0.0000 0.0000 0.0000 0.0000 20.7426
#
#
#
# Elastic Compliance Matrix: (Units=1/GPa)
#
#
# Indices 1 2 3 4 5 6 
#
# 1 0.025179 0.000033 0.001796 0.000000 0.000000 0.000000
# 2 0.000033 0.013745 -0.004014 0.000000 0.000000 0.000000
# 3 0.001796 -0.004014 0.007916 0.000000 0.000000 0.000000
# 4 0.000000 0.000000 0.000000 0.039494 0.000000 0.000000
# 5 0.000000 0.000000 0.000000 0.000000 0.045706 0.000000
# 6 0.000000 0.000000 0.000000 0.000000 0.000000 0.048210
#
#
# Mechanical properties :
#
#
# Convention : Reuss Voigt Hill
#
# Bulk Modulus (GPa) = 23.54686 37.49945 30.52315
# Shear Modulus (GPa) = 25.15374 30.07303 27.61339
#
# Velocity S-wave (km/s) = 3.41928 3.73872 3.58256
# Velocity P-wave (km/s) = 5.15105 6.00559 5.59466
#
# Compressibility (1/GPa) = 0.04246852
#
# Stress axis : x y z
#
# Youngs Moduli (GPa) = 39.71628 72.75139 126.33134
#
# Poissons Ratio (x) = -0.00237 -0.22687
# Poissons Ratio (y) = -0.00129 0.50709
# Poissons Ratio (z) = -0.07132 0.29202
#
# Static dielectric constant tensor:
#      x y z
#    x 1.781690 0.000000 0.000000 
#    y 0.000000 1.779710 0.000000 
#    z 0.000000 0.000000 1.912820 
# 
# From -- ./inp_files/7686.got.cif
#   From: 2010.05.17/outbox.cif.g08.bks.cpg/sg45_4_cif.got.tgz:7686.got - 2010.06.03 19:51:22.
