data_PCOD9376538
_publ_section_title
;
Structure prediction by ZEFSAII (Michael W. Deem and Ramdas Pophale) SiO2 
 PCOD9376538
Probable space group: I B A 2
;
_chemical_formula_sum "Si O2"
_cell_formula_units_Z 40
_cell_length_a 8.428086
_cell_length_b 19.775857
_cell_length_c 9.088695
_cell_angle_alpha 90.000000
_cell_angle_beta 90.000000
_cell_angle_gamma 90.000000
_cell_volume 1514.836640
_symmetry_space_group_name_H-M "I B A 2"
_symmetry_group_IT_number 45
_symmetry_cell_setting 'orthorhombic'
loop_
_space_group_symop_operation_xyz
x,y,z
-x,-y,z
-x,y,1/2+z
x,-y,1/2+z
1/2+x,1/2+y,1/2+z
1/2-x,1/2-y,1/2+z
1/2-x,1/2+y,z
1/2+x,1/2-y,z
loop_
_atom_site_type_symbol
_atom_site_label
_atom_site_fract_x
_atom_site_fract_y
_atom_site_fract_z
Si Si1 0.375187 0.942352 0.650980
Si Si2 0.083419 0.381315 0.370317
Si Si3 0.866510 0.957386 0.710365
Si Si4 0.910527 0.182226 0.036640
Si Si5 0.198269 0.236122 0.839578
O O1 0.424641 0.914797 0.809160
O O2 0.410212 0.881289 0.543828
O O3 0.500000 0.000000 0.609015
O O4 0.210295 0.978653 0.627002
O O5 0.224497 0.429627 0.311031
O O6 0.140472 0.308371 0.321253
O O7 0.910060 0.893190 0.607987
O O8 0.000000 0.000000 0.796325
O O9 0.877059 0.231001 0.177185
O O10 0.767803 0.197483 0.920255
O O11 0.074435 0.199314 0.951596
#
# Coordination Sequence:
#
# PCOD9376538 Si02
#       5
#     8   8   8   8   8
#     4  10  20  39  64  95 133 176 230 289 358 434
#     4  10  23  41  66  97 134 184 235 294 359 437
#     4  10  22  41  68 105 143 183 237 304 374 436
#     4  11  25  46  73 104 144 192 245 309 372 444
#     4  11  25  47  70 103 143 191 250 302 370 445
#
# _framework density 26.40549
#
# number of rings (size 3 to 8) (size 9 to 14) (size 15 to 20)
#    0.000    1.600    0.000    4.200    0.000   10.400 
#    0.000   20.000    0.000    0.000    0.000    1.400 
#    0.000    0.000    0.000    0.000    0.000    0.000 
#
# Total GULP energy -111692.754901 kJ/mol
# GULP energy per Si atom -5584.637745 kJ/mol
# Density = 2.634539 g / cm^3
# Si number density = 26.405490 Si / 1000 Ang^3
#
#
#
# Elastic Constant Matrix: (Units=GPa)
#
#
# Indices 1 2 3 4 5 6 
#
# 1 66.6478 67.2057 19.9636 0.0000 -0.0001 -0.0001
# 2 67.2057 138.1272 49.1268 0.0000 -0.0001 0.0000
# 3 19.9636 49.1268 86.4353 0.0005 -0.0004 -0.0002
# 4 0.0000 0.0000 0.0005 28.0924 -0.0001 -0.0001
# 5 -0.0001 -0.0001 -0.0004 -0.0001 35.6403 0.0001
# 6 -0.0001 0.0000 -0.0002 -0.0001 0.0001 49.5963
#
#
#
# Elastic Compliance Matrix: (Units=1/GPa)
#
#
# Indices 1 2 3 4 5 6 
#
# 1 0.029653 -0.015030 0.001694 0.000000 0.000000 0.000000
# 2 -0.015030 0.016692 -0.006016 0.000000 0.000000 0.000000
# 3 0.001694 -0.006016 0.014597 0.000000 0.000000 0.000000
# 4 0.000000 0.000000 0.000000 0.035597 0.000000 0.000000
# 5 0.000000 0.000000 0.000000 0.000000 0.028058 0.000000
# 6 0.000000 0.000000 0.000000 0.000000 0.000000 0.020163
#
#
# Mechanical properties :
#
#
# Convention : Reuss Voigt Hill
#
# Bulk Modulus (GPa) = 44.96787 62.64472 53.80630
# Shear Modulus (GPa) = 26.19496 32.99340 29.59418
#
# Velocity S-wave (km/s) = 3.15306 3.53865 3.35141
# Velocity P-wave (km/s) = 5.50658 6.36173 5.94954
#
# Compressibility (1/GPa) = 0.02223810
#
# Stress axis : x y z
#
# Youngs Moduli (GPa) = 33.72386 59.90865 68.50562
#
# Poissons Ratio (x) = 0.90042 -0.11603
# Poissons Ratio (y) = 0.50686 0.41212
# Poissons Ratio (z) = -0.05712 0.36040
#
# Static dielectric constant tensor:
#      x y z
#    x 2.220750 0.000000 0.000000 
#    y 0.000000 2.166460 0.000000 
#    z 0.000000 0.000000 2.037500 
# 
# From -- ./inp_files/955.got.cif
#   From: 2010.05.17/outbox.cif.g08.bks.cpg/sg45_1_cif.got.tgz:955.got - 2010.06.03 19:51:22.
