data_PCOD9376492
_publ_section_title
;
Structure prediction by ZEFSAII (Michael W. Deem and Ramdas Pophale) SiO2 
 PCOD9376492
Probable space group: I B A 2
;
_chemical_formula_sum "Si O2"
_cell_formula_units_Z 60
_cell_length_a 8.722506
_cell_length_b 13.241701
_cell_length_c 25.501800
_cell_angle_alpha 90.000000
_cell_angle_beta 90.000000
_cell_angle_gamma 90.000000
_cell_volume 2945.478720
_symmetry_space_group_name_H-M "I B A 2"
_symmetry_group_IT_number 45
_symmetry_cell_setting 'orthorhombic'
loop_
_space_group_symop_operation_xyz
x,y,z
-x,-y,z
-x,y,1/2+z
x,-y,1/2+z
1/2+x,1/2+y,1/2+z
1/2-x,1/2-y,1/2+z
1/2-x,1/2+y,z
1/2+x,1/2-y,z
loop_
_atom_site_type_symbol
_atom_site_label
_atom_site_fract_x
_atom_site_fract_y
_atom_site_fract_z
Si Si1 0.541762 0.252403 0.743500
Si Si2 0.714831 0.160122 0.560424
Si Si3 0.500000 0.000000 0.512060
Si Si4 0.892110 0.409948 0.327578
Si Si5 0.271330 0.365106 0.680372
Si Si6 0.330707 0.466573 0.250731
Si Si7 0.704055 0.867238 0.441290
Si Si8 0.502841 0.305612 0.496203
O O1 0.529875 0.183132 0.795726
O O2 0.396703 0.306728 0.716491
O O3 0.609322 0.173865 0.701690
O O4 0.661721 0.345625 0.752095
O O5 0.584901 0.077851 0.549800
O O6 0.772766 0.162618 0.619766
O O7 0.624094 0.258594 0.538593
O O8 0.866523 0.138369 0.526120
O O9 0.369645 0.040196 0.472836
O O10 0.784235 0.472403 0.287768
O O11 0.808851 0.369593 0.378910
O O12 0.000000 0.500000 0.347400
O O13 0.298520 0.483379 0.693629
O O14 0.500000 0.500000 0.267403
O O15 0.593529 0.777879 0.463407
O O16 0.881155 0.859492 0.457145
#
# Coordination Sequence:
#
# PCOD9376492 Si02
#       8
#     8   8   4   8   8   8   8   8
#     4  10  21  39  60  89 126 160 208 266 311 392
#     4  10  20  41  61  92 124 171 209 267 325 391
#     4  10  22  42  58  88 134 152 214 266 312 382
#     4  11  22  39  66  90 121 167 211 263 339 380
#     4  10  20  38  61  89 123 165 208 257 321 378
#     4   9  21  40  54  90 125 154 210 260 308 402
#     4  10  21  41  60  90 122 163 206 275 315 393
#     4   9  21  39  63  88 126 163 222 260 328 392
#
# _framework density 20.370203
#
# number of rings (size 3 to 8) (size 9 to 14) (size 15 to 20)
#    0.000    2.133    0.667    1.600    0.000    4.800 
#   26.400    0.000    0.000    0.000    0.000    0.000 
#    0.000    0.000    0.000    0.000    0.000    0.000 
#
# Total GULP energy -167056.351473 kJ/mol
# GULP energy per Si atom -5568.545049 kJ/mol
# Density = 2.032384 g / cm^3
# Si number density = 20.370203 Si / 1000 Ang^3
#
#
#
# Elastic Constant Matrix: (Units=GPa)
#
#
# Indices 1 2 3 4 5 6 
#
# 1 67.8253 0.4796 14.3611 0.0000 0.0000 0.0000
# 2 0.4796 64.2786 20.7929 0.0000 0.0000 0.0000
# 3 14.3611 20.7929 109.0605 0.0000 0.0000 0.0000
# 4 0.0000 0.0000 0.0000 -7.7822 0.0000 0.0000
# 5 0.0000 0.0000 0.0000 0.0000 21.2709 0.0000
# 6 0.0000 0.0000 0.0000 0.0000 0.0000 10.2532
#
#
#
# Elastic Compliance Matrix: (Units=1/GPa)
#
#
# Indices 1 2 3 4 5 6 
#
# 1 0.015186 0.000569 -0.002108 0.000000 0.000000 0.000000
# 2 0.000569 0.016601 -0.003240 0.000000 0.000000 0.000000
# 3 -0.002108 -0.003240 0.010065 0.000000 0.000000 0.000000
# 4 0.000000 0.000000 0.000000 -0.128498 0.000000 0.000000
# 5 0.000000 0.000000 0.000000 0.000000 0.047013 0.000000
# 6 0.000000 0.000000 0.000000 0.000000 0.000000 0.097530
#
#
# Mechanical properties :
#
#
# Convention : Reuss Voigt Hill
#
# Bulk Modulus (GPa) = 30.96661 34.71462 32.84061
# Shear Modulus (GPa) = 63.92275 18.45043 41.18659
#
# Velocity S-wave (km/s) = 5.60791 3.01284 4.50144
# Velocity P-wave (km/s) = 7.56085 5.40202 6.57070
#
# Compressibility (1/GPa) = 0.03229284
#
# Stress axis : x y z
#
# Youngs Moduli (GPa) = 65.84968 60.23694 99.35878
#
# Poissons Ratio (x) = -0.03425 0.20946
# Poissons Ratio (y) = -0.03744 0.32192
# Poissons Ratio (z) = 0.13882 0.19517
#
# Static dielectric constant tensor:
#      x y z
#    x 1.747140 0.000000 0.000000 
#    y 0.000000 1.805570 0.000000 
#    z 0.000000 0.000000 1.710690 
# 
# From -- ./inp_files/9581.got.cif
#   From: 2010.05.17/outbox.cif.g08.bks.cpg/sg45_5_cif.got.tgz:9581.got - 2010.06.03 19:51:22.
