data_PCOD9376997
_publ_section_title
;
Structure prediction by ZEFSAII (Michael W. Deem and Ramdas Pophale) SiO2 
 PCOD9376997
Probable space group: I B A 2
;
_chemical_formula_sum "Si O2"
_cell_formula_units_Z 48
_cell_length_a 17.084461
_cell_length_b 14.071266
_cell_length_c 8.986679
_cell_angle_alpha 90.000000
_cell_angle_beta 90.000000
_cell_angle_gamma 90.000000
_cell_volume 2160.397588
_symmetry_space_group_name_H-M "I B A 2"
_symmetry_group_IT_number 45
_symmetry_cell_setting 'orthorhombic'
loop_
_space_group_symop_operation_xyz
x,y,z
-x,-y,z
-x,y,1/2+z
x,-y,1/2+z
1/2+x,1/2+y,1/2+z
1/2-x,1/2-y,1/2+z
1/2-x,1/2+y,z
1/2+x,1/2-y,z
loop_
_atom_site_type_symbol
_atom_site_label
_atom_site_fract_x
_atom_site_fract_y
_atom_site_fract_z
Si Si1 0.256568 0.186118 0.174170
Si Si2 0.500000 0.500000 0.818975
Si Si3 0.571908 0.829460 0.614030
Si Si4 0.915533 0.877115 0.065969
Si Si5 0.677309 0.171347 0.384109
Si Si6 0.840923 0.543943 0.890274
Si Si7 0.000000 0.500000 0.219762
O O1 0.175435 0.148953 0.099371
O O2 0.239606 0.274922 0.280842
O O3 0.290356 0.102348 0.274144
O O4 0.317013 0.216309 0.046274
O O5 0.452721 0.428313 0.710723
O O6 0.560041 0.442348 0.926362
O O7 0.550632 0.729443 0.544766
O O8 0.599663 0.815479 0.784887
O O9 0.641433 0.886870 0.529415
O O10 0.504522 0.906814 0.618434
O O11 0.693712 0.060333 0.416152
O O12 0.924072 0.518329 0.817085
#
# Coordination Sequence:
#
# PCOD9376997 Si02
#       7
#     8   4   8   8   8   8   4
#     4  11  23  42  66  98 131 180 224 281 338 417
#     4  10  24  50  64  98 130 176 226 296 342 408
#     4  10  22  43  66 102 134 181 226 278 347 423
#     4  10  24  45  69  95 132 174 231 281 351 414
#     4  10  22  41  62  95 138 169 224 279 335 396
#     4  11  23  42  68  99 142 179 229 284 344 415
#     4  10  22  40  66 102 142 182 222 280 350 414
#
# _framework density 22.218133999999999
#
# number of rings (size 3 to 8) (size 9 to 14) (size 15 to 20)
#    0.000    1.667    0.000    4.500    4.667    1.333 
#    9.000    0.000    0.000    0.000    0.000    0.000 
#    0.000    0.000    0.000    0.000    0.000    0.000 
#
# Total GULP energy -133982.317110 kJ/mol
# GULP energy per Si atom -5582.596546 kJ/mol
# Density = 2.216756 g / cm^3
# Si number density = 22.218134 Si / 1000 Ang^3
#
#
#
# Elastic Constant Matrix: (Units=GPa)
#
#
# Indices 1 2 3 4 5 6 
#
# 1 52.7437 25.4499 12.4125 0.0000 0.0000 0.0000
# 2 25.4499 146.9770 36.6528 0.0000 0.0000 0.0000
# 3 12.4125 36.6528 76.0450 0.0000 0.0000 0.0000
# 4 0.0000 0.0000 0.0000 36.2377 0.0000 0.0000
# 5 0.0000 0.0000 0.0000 0.0000 27.5660 0.0000
# 6 0.0000 0.0000 0.0000 0.0000 0.0000 23.9311
#
#
#
# Elastic Compliance Matrix: (Units=1/GPa)
#
#
# Indices 1 2 3 4 5 6 
#
# 1 0.020926 -0.003150 -0.001897 0.000000 0.000000 0.000000
# 2 -0.003150 0.008208 -0.003442 0.000000 0.000000 0.000000
# 3 -0.001897 -0.003442 0.015119 0.000000 0.000000 0.000000
# 4 0.000000 0.000000 0.000000 0.027596 0.000000 0.000000
# 5 0.000000 0.000000 0.000000 0.000000 0.036277 0.000000
# 6 0.000000 0.000000 0.000000 0.000000 0.000000 0.041787
#
#
# Mechanical properties :
#
#
# Convention : Reuss Voigt Hill
#
# Bulk Modulus (GPa) = 36.66528 47.19956 41.93242
# Shear Modulus (GPa) = 28.41214 30.96367 29.68791
#
# Velocity S-wave (km/s) = 3.57988 3.73717 3.65937
# Velocity P-wave (km/s) = 5.79876 6.31758 6.06372
#
# Compressibility (1/GPa) = 0.02727376
#
# Stress axis : x y z
#
# Youngs Moduli (GPa) = 47.78691 121.83861 66.14345
#
# Poissons Ratio (x) = 0.38384 0.12549
# Poissons Ratio (y) = 0.15055 0.22765
# Poissons Ratio (z) = 0.09066 0.41934
#
# Static dielectric constant tensor:
#      x y z
#    x 1.867150 0.000000 0.000000 
#    y 0.000000 1.838540 0.000000 
#    z 0.000000 0.000000 1.846020 
# 
# From -- ./inp_files/1746.got.cif
#   From: 2010.05.17/outbox.cif.g08.bks.cpg/sg45_1_cif.got.tgz:1746.got - 2010.06.03 19:51:22.
