data_PCOD9376406
_publ_section_title
;
Structure prediction by ZEFSAII (Michael W. Deem and Ramdas Pophale) SiO2 
 PCOD9376406
Probable space group: I B A 2
;
_chemical_formula_sum "Si O2"
_cell_formula_units_Z 60
_cell_length_a 22.915036
_cell_length_b 14.634853
_cell_length_c 8.874097
_cell_angle_alpha 90.000000
_cell_angle_beta 90.000000
_cell_angle_gamma 90.000000
_cell_volume 2976.001049
_symmetry_space_group_name_H-M "I B A 2"
_symmetry_group_IT_number 45
_symmetry_cell_setting 'orthorhombic'
loop_
_space_group_symop_operation_xyz
x,y,z
-x,-y,z
-x,y,1/2+z
x,-y,1/2+z
1/2+x,1/2+y,1/2+z
1/2-x,1/2-y,1/2+z
1/2-x,1/2+y,z
1/2+x,1/2-y,z
loop_
_atom_site_type_symbol
_atom_site_label
_atom_site_fract_x
_atom_site_fract_y
_atom_site_fract_z
Si Si1 0.641874 0.876016 0.772440
Si Si2 0.778994 0.871761 0.142428
Si Si3 0.902000 0.799618 0.109379
Si Si4 0.000000 0.000000 0.384213
Si Si5 0.032424 0.128103 0.635147
Si Si6 0.881615 0.262372 0.269141
Si Si7 0.655130 0.055817 0.608093
Si Si8 0.243241 0.779015 0.334213
O O1 0.608710 0.783489 0.726347
O O2 0.709635 0.847133 0.767254
O O3 0.631396 0.957971 0.657090
O O4 0.634730 0.912639 0.942572
O O5 0.849200 0.874227 0.125360
O O6 0.726807 0.944471 0.118247
O O7 0.765841 0.822616 0.300377
O O8 0.763213 0.799051 0.010209
O O9 0.964710 0.843082 0.134737
O O10 0.900351 0.754455 0.942177
O O11 0.961272 0.933887 0.488031
O O12 0.040014 0.937402 0.278937
O O13 0.073000 0.215008 0.657051
O O14 0.868061 0.366247 0.222849
O O15 0.819539 0.211504 0.259073
#
# Coordination Sequence:
#
# PCOD9376406 Si02
#       8
#     8   8   8   4   8   8   8   8
#     4  10  20  35  56  85 118 152 192 235 279 338
#     4   8  16  32  52  78 108 145 185 226 275 328
#     4  10  20  37  61  82 116 154 191 233 288 339
#     4  10  24  42  60  82 118 142 192 238 276 340
#     4  11  22  42  61  86 114 148 185 236 290 333
#     4  10  20  37  61  82 116 154 191 233 288 339
#     4  10  20  35  56  85 118 152 192 235 279 338
#     4   8  16  32  52  78 108 145 185 226 275 328
#
# _framework density 20.161280999999999
#
# number of rings (size 3 to 8) (size 9 to 14) (size 15 to 20)
#    0.000    2.400    1.333    0.800    1.867    1.067 
#    4.800    0.667    0.000    3.200    0.000    0.000 
#    0.000    0.000    0.000    0.000    0.000    0.000 
#
# Total GULP energy -167149.901642 kJ/mol
# GULP energy per Si atom -5571.663388 kJ/mol
# Density = 2.011539 g / cm^3
# Si number density = 20.161281 Si / 1000 Ang^3
#
#
#
# Elastic Constant Matrix: (Units=GPa)
#
#
# Indices 1 2 3 4 5 6 
#
# 1 74.8636 16.6024 18.1325 0.0000 0.0000 0.0000
# 2 16.6024 55.1437 16.7946 0.0000 0.0000 0.0000
# 3 18.1325 16.7946 54.7002 0.0000 0.0000 0.0000
# 4 0.0000 0.0000 0.0000 28.5646 0.0000 0.0000
# 5 0.0000 0.0000 0.0000 0.0000 15.5788 0.0000
# 6 0.0000 0.0000 0.0000 0.0000 0.0000 3.9221
#
#
#
# Elastic Compliance Matrix: (Units=1/GPa)
#
#
# Indices 1 2 3 4 5 6 
#
# 1 0.015056 -0.003324 -0.003971 0.000000 0.000000 0.000000
# 2 -0.003324 0.020739 -0.005266 0.000000 0.000000 0.000000
# 3 -0.003971 -0.005266 0.021214 0.000000 0.000000 0.000000
# 4 0.000000 0.000000 0.000000 0.035008 0.000000 0.000000
# 5 0.000000 0.000000 0.000000 0.000000 0.064190 0.000000
# 6 0.000000 0.000000 0.000000 0.000000 0.000000 0.254965
#
#
# Mechanical properties :
#
#
# Convention : Reuss Voigt Hill
#
# Bulk Modulus (GPa) = 31.35812 31.97404 31.66608
# Shear Modulus (GPa) = 11.18762 18.49164 14.83963
#
# Velocity S-wave (km/s) = 2.35820 3.03179 2.71596
# Velocity P-wave (km/s) = 4.79606 5.30559 5.05725
#
# Compressibility (1/GPa) = 0.03188967
#
# Stress axis : x y z
#
# Youngs Moduli (GPa) = 66.41679 48.21861 47.13786
#
# Poissons Ratio (x) = 0.16027 0.18716
# Poissons Ratio (y) = 0.22076 0.24821
# Poissons Ratio (z) = 0.26371 0.25390
#
# Static dielectric constant tensor:
#      x y z
#    x 1.720110 0.000000 0.000000 
#    y 0.000000 1.717980 0.000000 
#    z 0.000000 0.000000 1.780710 
# 
# From -- ./inp_files/2516.got.cif
#   From: 2010.05.17/outbox.cif.g08.bks.cpg/sg45_2_cif.got.tgz:2516.got - 2010.06.03 19:51:22.
