data_PCOD9376748
_publ_section_title
;
Structure prediction by ZEFSAII (Michael W. Deem and Ramdas Pophale) SiO2 
 PCOD9376748
Probable space group: I B A 2
;
_chemical_formula_sum "Si O2"
_cell_formula_units_Z 48
_cell_length_a 31.457174
_cell_length_b 4.845837
_cell_length_c 14.065153
_cell_angle_alpha 90.000000
_cell_angle_beta 90.000000
_cell_angle_gamma 90.000000
_cell_volume 2144.040412
_symmetry_space_group_name_H-M "I B A 2"
_symmetry_group_IT_number 45
_symmetry_cell_setting 'orthorhombic'
loop_
_space_group_symop_operation_xyz
x,y,z
-x,-y,z
-x,y,1/2+z
x,-y,1/2+z
1/2+x,1/2+y,1/2+z
1/2-x,1/2-y,1/2+z
1/2-x,1/2+y,z
1/2+x,1/2-y,z
loop_
_atom_site_type_symbol
_atom_site_label
_atom_site_fract_x
_atom_site_fract_y
_atom_site_fract_z
Si Si1 0.968937 0.241342 0.626890
Si Si2 0.777976 0.733007 0.132473
Si Si3 0.777973 0.732990 0.907291
Si Si4 0.902012 0.499893 0.269980
Si Si5 0.468935 0.258659 0.413121
Si Si6 0.845918 0.999894 0.269908
O O1 0.931103 0.339449 0.693979
O O2 0.954089 0.164643 0.520006
O O3 0.000000 0.500000 0.619985
O O4 0.000000 0.000000 0.662452
O O5 0.763373 0.422886 0.153811
O O6 0.816682 0.849519 0.192207
O O7 0.786444 0.757407 0.019881
O O8 0.736621 0.922850 0.885958
O O9 0.816671 0.849586 0.847554
O O10 0.931093 0.339365 0.346033
O O11 0.873878 0.748994 0.312725
O O12 0.873917 0.250713 0.227161
O O13 0.500000 0.500000 0.377566
O O14 0.500000 0.000000 0.419999
#
# Coordination Sequence:
#
# PCOD9376748 Si02
#       6
#     8   8   8   8   8   8
#     4  10  22  42  65  86 115 160 208 249 295 364
#     4  10  21  39  62  84 113 160 209 246 288 356
#     4  10  21  39  62  84 113 160 209 246 288 356
#     4  12  25  37  60  94 125 156 193 252 318 367
#     4  10  22  42  65  86 115 160 208 249 295 364
#     4  12  24  37  57  90 127 156 189 250 317 363
#
# _framework density 22.387637000000002
#
# number of rings (size 3 to 8) (size 9 to 14) (size 15 to 20)
#    0.000    1.333    0.000    5.500    0.000    4.000 
#    0.000    0.000    0.000    0.000    0.000    0.000 
#    0.000    0.000    0.000    0.000    0.000    0.000 
#
# Total GULP energy -134274.291326 kJ/mol
# GULP energy per Si atom -5594.762139 kJ/mol
# Density = 2.233668 g / cm^3
# Si number density = 22.387637 Si / 1000 Ang^3
#
#
#
# Elastic Constant Matrix: (Units=GPa)
#
#
# Indices 1 2 3 4 5 6 
#
# 1 88.4768 29.5880 38.8592 0.0000 0.0000 0.0000
# 2 29.5880 129.5831 10.8709 0.0000 0.0000 0.0000
# 3 38.8592 10.8709 87.7667 0.0000 0.0000 0.0000
# 4 0.0000 0.0000 0.0000 26.6408 0.0000 0.0000
# 5 0.0000 0.0000 0.0000 0.0000 -14.5263 0.0000
# 6 0.0000 0.0000 0.0000 0.0000 0.0000 42.3284
#
#
#
# Elastic Compliance Matrix: (Units=1/GPa)
#
#
# Indices 1 2 3 4 5 6 
#
# 1 0.015041 -0.002906 -0.006300 0.000000 0.000000 0.000000
# 2 -0.002906 0.008359 0.000251 0.000000 0.000000 0.000000
# 3 -0.006300 0.000251 0.014152 0.000000 0.000000 0.000000
# 4 0.000000 0.000000 0.000000 0.037536 0.000000 0.000000
# 5 0.000000 0.000000 0.000000 0.000000 -0.068840 0.000000
# 6 0.000000 0.000000 0.000000 0.000000 0.000000 0.023625
#
#
# Mechanical properties :
#
#
# Convention : Reuss Voigt Hill
#
# Bulk Modulus (GPa) = 50.90651 51.60699 51.25675
# Shear Modulus (GPa) = 92.03099 25.98913 59.01006
#
# Velocity S-wave (km/s) = 6.41850 3.41085 5.13961
# Velocity P-wave (km/s) = 8.81576 6.21397 7.62663
#
# Compressibility (1/GPa) = 0.01964385
#
# Stress axis : x y z
#
# Youngs Moduli (GPa) = 66.48524 119.62463 70.66191
#
# Poissons Ratio (x) = 0.34761 0.44514
# Poissons Ratio (y) = 0.19320 -0.01775
# Poissons Ratio (z) = 0.41883 -0.03005
#
# Static dielectric constant tensor:
#      x y z
#    x 1.832990 0.000000 0.000000 
#    y 0.000000 1.779490 0.000000 
#    z 0.000000 0.000000 1.865660 
# 
# From -- ./inp_files/5186.got.cif
#   From: 2010.05.17/outbox.cif.g08.bks.cpg/sg45_3_cif.got.tgz:5186.got - 2010.06.03 19:51:22.
