data_PCOD9376300
_publ_section_title
;
Structure prediction by ZEFSAII (Michael W. Deem and Ramdas Pophale) SiO2 
 PCOD9376300
Probable space group: I B A 2
;
_chemical_formula_sum "Si O2"
_cell_formula_units_Z 60
_cell_length_a 11.829549
_cell_length_b 22.111214
_cell_length_c 9.426985
_cell_angle_alpha 90.000000
_cell_angle_beta 90.000000
_cell_angle_gamma 90.000000
_cell_volume 2465.775831
_symmetry_space_group_name_H-M "I B A 2"
_symmetry_group_IT_number 45
_symmetry_cell_setting 'orthorhombic'
loop_
_space_group_symop_operation_xyz
x,y,z
-x,-y,z
-x,y,1/2+z
x,-y,1/2+z
1/2+x,1/2+y,1/2+z
1/2-x,1/2-y,1/2+z
1/2-x,1/2+y,z
1/2+x,1/2-y,z
loop_
_atom_site_type_symbol
_atom_site_label
_atom_site_fract_x
_atom_site_fract_y
_atom_site_fract_z
Si Si1 0.506549 0.177692 0.391700
Si Si2 0.500000 0.000000 0.021703
Si Si3 0.054520 0.874701 0.448355
Si Si4 0.570030 0.700175 0.726475
Si Si5 0.104484 0.621287 0.650326
Si Si6 0.779640 0.628343 0.763169
Si Si7 0.769665 0.552875 0.489717
Si Si8 0.176664 0.071489 0.523484
O O1 0.528980 0.241223 0.314184
O O2 0.604922 0.138441 0.316240
O O3 0.471054 0.170053 0.556917
O O4 0.397921 0.144906 0.327300
O O5 0.547005 0.056851 0.112272
O O6 0.388638 0.023398 0.938517
O O7 0.069307 0.817835 0.559127
O O8 0.164979 0.914227 0.413523
O O9 0.004820 0.850493 0.302677
O O10 0.954750 0.913569 0.521919
O O11 0.700493 0.687291 0.765157
O O12 0.234659 0.617223 0.599125
O O13 0.798113 0.601747 0.609529
O O14 0.716721 0.579164 0.859581
O O15 0.708721 0.495705 0.566624
#
# Coordination Sequence:
#
# PCOD9376300 Si02
#       8
#     8   4   8   8   8   8   8   8
#     4  11  21  41  59  86 121 163 208 255 310 361
#     4  10  20  40  56  92 120 156 198 254 308 372
#     4  10  21  40  60  90 123 159 210 252 309 370
#     4  10  22  39  61  86 120 164 210 255 304 364
#     4  10  22  38  61  87 122 159 205 252 311 373
#     4   9  20  39  58  82 125 161 201 258 305 366
#     4  10  19  37  61  86 121 161 200 250 311 373
#     4   9  20  37  58  89 123 158 199 259 311 369
#
# _framework density 24.333113000000001
#
# number of rings (size 3 to 8) (size 9 to 14) (size 15 to 20)
#    0.000    2.133    1.333    1.200    0.000    2.667 
#   12.000    8.000    0.000    0.000    0.000    0.000 
#    0.000    0.000    0.000    0.000    0.000    0.000 
#
# Total GULP energy -167136.343326 kJ/mol
# GULP energy per Si atom -5571.211444 kJ/mol
# Density = 2.427773 g / cm^3
# Si number density = 24.333113 Si / 1000 Ang^3
#
#
#
# Elastic Constant Matrix: (Units=GPa)
#
#
# Indices 1 2 3 4 5 6 
#
# 1 133.9150 28.1082 8.2259 0.0001 0.0000 -0.0001
# 2 28.1082 88.8393 5.4745 0.0002 0.0000 0.0003
# 3 8.2259 5.4745 91.8573 0.0008 -0.0001 0.0008
# 4 0.0001 0.0002 0.0008 36.9104 0.0000 0.0001
# 5 0.0000 0.0000 -0.0001 0.0000 25.3673 -0.0001
# 6 -0.0001 0.0003 0.0008 0.0001 -0.0001 54.4623
#
#
#
# Elastic Compliance Matrix: (Units=1/GPa)
#
#
# Indices 1 2 3 4 5 6 
#
# 1 0.008028 -0.002505 -0.000570 0.000000 0.000000 0.000000
# 2 -0.002505 0.012079 -0.000496 0.000000 0.000000 0.000000
# 3 -0.000570 -0.000496 0.010967 0.000000 0.000000 0.000000
# 4 0.000000 0.000000 0.000000 0.027093 0.000000 0.000000
# 5 0.000000 0.000000 0.000000 0.000000 0.039421 0.000000
# 6 0.000000 0.000000 0.000000 0.000000 0.000000 0.018361
#
#
# Mechanical properties :
#
#
# Convention : Reuss Voigt Hill
#
# Bulk Modulus (GPa) = 41.78125 44.24764 43.01444
# Shear Modulus (GPa) = 38.14818 41.53486 39.84152
#
# Velocity S-wave (km/s) = 3.96377 4.13598 4.05079
# Velocity P-wave (km/s) = 6.17709 6.40563 6.29240
#
# Compressibility (1/GPa) = 0.02393418
#
# Stress axis : x y z
#
# Youngs Moduli (GPa) = 124.56104 82.78580 91.18263
#
# Poissons Ratio (x) = 0.20738 0.05194
# Poissons Ratio (y) = 0.31202 0.04519
# Poissons Ratio (z) = 0.07095 0.04103
#
# Static dielectric constant tensor:
#      x y z
#    x 1.957160 0.000000 0.000000 
#    y 0.000000 1.978450 0.000000 
#    z 0.000000 0.000000 1.999000 
# 
# From -- ./inp_files/3837.got.cif
#   From: 2010.05.17/outbox.cif.g08.bks.cpg/sg45_2_cif.got.tgz:3837.got - 2010.06.03 19:51:22.
