data_PCOD9376275
_publ_section_title
;
Structure prediction by ZEFSAII (Michael W. Deem and Ramdas Pophale) SiO2 
 PCOD9376275
Probable space group: I B A 2
;
_chemical_formula_sum "Si O2"
_cell_formula_units_Z 60
_cell_length_a 30.259562
_cell_length_b 11.081167
_cell_length_c 9.156534
_cell_angle_alpha 90.000000
_cell_angle_beta 90.000000
_cell_angle_gamma 90.000000
_cell_volume 3070.288952
_symmetry_space_group_name_H-M "I B A 2"
_symmetry_group_IT_number 45
_symmetry_cell_setting 'orthorhombic'
loop_
_space_group_symop_operation_xyz
x,y,z
-x,-y,z
-x,y,1/2+z
x,-y,1/2+z
1/2+x,1/2+y,1/2+z
1/2-x,1/2-y,1/2+z
1/2-x,1/2+y,z
1/2+x,1/2-y,z
loop_
_atom_site_type_symbol
_atom_site_label
_atom_site_fract_x
_atom_site_fract_y
_atom_site_fract_z
Si Si1 0.638980 0.448421 0.056580
Si Si2 0.681602 0.379719 0.763396
Si Si3 0.752480 0.555841 0.816869
Si Si4 0.687485 0.973274 0.588544
Si Si5 0.556509 0.618059 0.112728
Si Si6 0.500000 0.500000 0.867954
Si Si7 0.369068 0.193691 0.087822
Si Si8 0.327967 0.738661 0.280457
O O1 0.676520 0.537602 0.119583
O O2 0.643595 0.334328 0.161245
O O3 0.647469 0.419227 0.889224
O O4 0.594419 0.519325 0.082853
O O5 0.728107 0.424124 0.828050
O O6 0.664382 0.252375 0.707178
O O7 0.775115 0.557896 0.659375
O O8 0.715130 0.658867 0.820528
O O9 0.790708 0.568781 0.937330
O O10 0.682955 0.863024 0.700038
O O11 0.642540 0.051525 0.581847
O O12 0.523972 0.595853 0.975698
O O13 0.531969 0.576404 0.260418
O O14 0.582896 0.746015 0.118809
O O15 0.354768 0.240222 0.928056
#
# Coordination Sequence:
#
# PCOD9376275 Si02
#       8
#     8   8   8   8   8   4   8   8
#     4  10  19  35  60  87 117 163 198 243 302 361
#     4  10  20  36  58  80 114 164 207 251 309 343
#     4  11  23  39  55  77 115 154 217 268 289 335
#     4  12  26  38  55  83 113 162 214 256 311 345
#     4  10  19  37  62  95 127 144 186 241 298 377
#     4  10  20  34  64 104 120 150 184 230 312 378
#     4  11  23  40  57  83 123 158 197 251 309 376
#     4  11  24  39  57  81 116 167 216 256 303 344
#
# _framework density 19.542135999999999
#
# number of rings (size 3 to 8) (size 9 to 14) (size 15 to 20)
#    0.000    1.333    1.333    8.000    5.600    0.000 
#    0.000    0.000    0.000    0.000    0.000   15.867 
#    0.000    0.000    0.000    0.000    0.000    0.000 
#
# Total GULP energy -167312.022233 kJ/mol
# GULP energy per Si atom -5577.067408 kJ/mol
# Density = 1.949766 g / cm^3
# Si number density = 19.542136 Si / 1000 Ang^3
#
#
#
# Elastic Constant Matrix: (Units=GPa)
#
#
# Indices 1 2 3 4 5 6 
#
# 1 73.1886 32.8143 22.7549 0.0000 0.0000 0.0000
# 2 32.8143 63.4517 26.7231 0.0000 0.0000 0.0000
# 3 22.7549 26.7231 100.8224 0.0000 0.0000 0.0000
# 4 0.0000 0.0000 0.0000 31.1697 0.0000 0.0000
# 5 0.0000 0.0000 0.0000 0.0000 34.6881 0.0000
# 6 0.0000 0.0000 0.0000 0.0000 0.0000 24.7836
#
#
#
# Elastic Compliance Matrix: (Units=1/GPa)
#
#
# Indices 1 2 3 4 5 6 
#
# 1 0.018074 -0.008588 -0.001803 0.000000 0.000000 0.000000
# 2 -0.008588 0.021821 -0.003845 0.000000 0.000000 0.000000
# 3 -0.001803 -0.003845 0.011345 0.000000 0.000000 0.000000
# 4 0.000000 0.000000 0.000000 0.032082 0.000000 0.000000
# 5 0.000000 0.000000 0.000000 0.000000 0.028828 0.000000
# 6 0.000000 0.000000 0.000000 0.000000 0.000000 0.040349
#
#
# Mechanical properties :
#
#
# Convention : Reuss Voigt Hill
#
# Bulk Modulus (GPa) = 43.92302 44.67194 44.29748
# Shear Modulus (GPa) = 26.51658 28.47297 27.49478
#
# Velocity S-wave (km/s) = 3.68760 3.82121 3.75500
# Velocity P-wave (km/s) = 6.37621 6.50982 6.44336
#
# Compressibility (1/GPa) = 0.02276711
#
# Stress axis : x y z
#
# Youngs Moduli (GPa) = 55.32720 45.82781 88.14775
#
# Poissons Ratio (x) = 0.39356 0.15893
# Poissons Ratio (y) = 0.47514 0.33897
# Poissons Ratio (z) = 0.09976 0.17623
#
# Static dielectric constant tensor:
#      x y z
#    x 1.725610 0.000000 0.000000 
#    y 0.000000 1.758650 0.000000 
#    z 0.000000 0.000000 1.684210 
# 
# From -- ./inp_files/2627.got.cif
#   From: 2010.05.17/outbox.cif.g08.bks.cpg/sg45_2_cif.got.tgz:2627.got - 2010.06.03 19:51:22.
