data_PCOD9376611
_publ_section_title
;
Structure prediction by ZEFSAII (Michael W. Deem and Ramdas Pophale) SiO2 
 PCOD9376611
Probable space group: I B A 2
;
_chemical_formula_sum "Si O2"
_cell_formula_units_Z 44
_cell_length_a 7.959400
_cell_length_b 14.611819
_cell_length_c 16.096352
_cell_angle_alpha 90.000000
_cell_angle_beta 90.000000
_cell_angle_gamma 90.000000
_cell_volume 1872.026858
_symmetry_space_group_name_H-M "I B A 2"
_symmetry_group_IT_number 45
_symmetry_cell_setting 'orthorhombic'
loop_
_space_group_symop_operation_xyz
x,y,z
-x,-y,z
-x,y,1/2+z
x,-y,1/2+z
1/2+x,1/2+y,1/2+z
1/2-x,1/2-y,1/2+z
1/2-x,1/2+y,z
1/2+x,1/2-y,z
loop_
_atom_site_type_symbol
_atom_site_label
_atom_site_fract_x
_atom_site_fract_y
_atom_site_fract_z
Si Si1 0.202446 0.151180 0.562590
Si Si2 0.559389 0.100502 0.598552
Si Si3 0.419471 0.659589 0.852404
Si Si4 0.923857 0.104761 0.683700
Si Si5 0.886813 0.309026 0.930352
Si Si6 0.500000 0.500000 0.979355
O O1 0.382495 0.155508 0.606782
O O2 0.185922 0.227891 0.491417
O O3 0.050228 0.162791 0.626442
O O4 0.154928 0.048663 0.528015
O O5 0.734335 0.116986 0.648350
O O6 0.586718 0.113088 0.498909
O O7 0.500000 0.000000 0.621847
O O8 0.540156 0.637239 0.776894
O O9 0.219353 0.659157 0.850107
O O10 0.457998 0.759276 0.888289
O O11 0.445732 0.583755 0.922950
O O12 0.000000 0.000000 0.682227
#
# Coordination Sequence:
#
# PCOD9376611 Si02
#       6
#     8   8   8   8   8   4
#     4  11  22  44  74 104 139 183 246 287 342 430
#     4  12  23  44  79 106 134 185 249 287 350 434
#     4  11  24  45  69 100 147 183 228 293 363 408
#     4  12  25  45  70 108 147 185 226 300 362 416
#     4  11  24  46  70 104 136 188 243 291 344 421
#     4  10  20  42  76  94 142 194 226 288 348 424
#
# _framework density 23.503934999999998
#
# number of rings (size 3 to 8) (size 9 to 14) (size 15 to 20)
#    0.000    0.727    5.455    3.273    0.000    1.455 
#    3.273    0.000    4.000    0.000    0.000    0.000 
#    0.000    0.000    0.000    0.000    0.000    0.000 
#
# Total GULP energy -122510.114453 kJ/mol
# GULP energy per Si atom -5568.641566 kJ/mol
# Density = 2.345044 g / cm^3
# Si number density = 23.503935 Si / 1000 Ang^3
#
#
#
# Elastic Constant Matrix: (Units=GPa)
#
#
# Indices 1 2 3 4 5 6 
#
# 1 172.9799 22.4303 45.1330 0.0000 0.0000 0.0000
# 2 22.4303 35.4040 -1.7790 0.0000 0.0000 0.0000
# 3 45.1330 -1.7790 73.7653 0.0000 0.0000 0.0000
# 4 0.0000 0.0000 0.0000 15.9283 0.0000 0.0000
# 5 0.0000 0.0000 0.0000 0.0000 30.8061 0.0000
# 6 0.0000 0.0000 0.0000 0.0000 0.0000 12.4213
#
#
#
# Elastic Compliance Matrix: (Units=1/GPa)
#
#
# Indices 1 2 3 4 5 6 
#
# 1 0.007709 -0.005127 -0.004840 0.000000 0.000000 0.000000
# 2 -0.005127 0.031690 0.003901 0.000000 0.000000 0.000000
# 3 -0.004840 0.003901 0.016612 0.000000 0.000000 0.000000
# 4 0.000000 0.000000 0.000000 0.062781 0.000000 0.000000
# 5 0.000000 0.000000 0.000000 0.000000 0.032461 0.000000
# 6 0.000000 0.000000 0.000000 0.000000 0.000000 0.080507
#
#
# Mechanical properties :
#
#
# Convention : Reuss Voigt Hill
#
# Bulk Modulus (GPa) = 22.79027 45.96865 34.37946
# Shear Modulus (GPa) = 19.34104 26.25548 22.79826
#
# Velocity S-wave (km/s) = 2.87171 3.34588 3.11782
# Velocity P-wave (km/s) = 4.55116 5.87596 5.25547
#
# Compressibility (1/GPa) = 0.04387837
#
# Stress axis : x y z
#
# Youngs Moduli (GPa) = 129.72308 31.55600 60.19726
#
# Poissons Ratio (x) = 0.16179 0.29137
# Poissons Ratio (y) = 0.66510 -0.23484
# Poissons Ratio (z) = 0.62789 -0.12311
#
# Static dielectric constant tensor:
#      x y z
#    x 1.964810 0.000000 0.000000 
#    y 0.000000 1.964830 0.000000 
#    z 0.000000 0.000000 1.903950 
# 
# From -- ./inp_files/7516.got.cif
#   From: 2010.05.17/outbox.cif.g08.bks.cpg/sg45_4_cif.got.tgz:7516.got - 2010.06.03 19:51:22.
