data_PCOD9376964
_publ_section_title
;
Structure prediction by ZEFSAII (Michael W. Deem and Ramdas Pophale) SiO2 
 PCOD9376964
Probable space group: I B A 2
;
_chemical_formula_sum "Si O2"
_cell_formula_units_Z 56
_cell_length_a 14.368948
_cell_length_b 18.469018
_cell_length_c 8.913183
_cell_angle_alpha 90.000000
_cell_angle_beta 90.000000
_cell_angle_gamma 90.000000
_cell_volume 2365.383707
_symmetry_space_group_name_H-M "I B A 2"
_symmetry_group_IT_number 45
_symmetry_cell_setting 'orthorhombic'
loop_
_space_group_symop_operation_xyz
x,y,z
-x,-y,z
-x,y,1/2+z
x,-y,1/2+z
1/2+x,1/2+y,1/2+z
1/2-x,1/2-y,1/2+z
1/2-x,1/2+y,z
1/2+x,1/2-y,z
loop_
_atom_site_type_symbol
_atom_site_label
_atom_site_fract_x
_atom_site_fract_y
_atom_site_fract_z
Si Si1 0.312324 0.208753 0.123770
Si Si2 0.579163 0.662703 0.239218
Si Si3 0.601937 0.718411 0.582070
Si Si4 0.891018 0.609146 0.078492
Si Si5 0.288561 0.538025 0.694623
Si Si6 0.566973 0.086651 0.752661
Si Si7 0.794373 0.433796 0.005886
O O1 0.357934 0.286624 0.128972
O O2 0.203595 0.212060 0.157689
O O3 0.377752 0.163189 0.236007
O O4 0.310530 0.152556 0.982848
O O5 0.596791 0.684891 0.413359
O O6 0.475415 0.681083 0.186120
O O7 0.616243 0.581186 0.216932
O O8 0.588415 0.804868 0.565790
O O9 0.783647 0.589151 0.102861
O O10 0.959158 0.587919 0.214113
O O11 0.921985 0.570581 0.925277
O O12 0.290421 0.460282 0.614152
O O13 0.234928 0.531134 0.851952
O O14 0.620005 0.046430 0.616123
#
# Coordination Sequence:
#
# PCOD9376964 Si02
#       7
#     8   8   8   8   8   8   8
#     4  10  22  42  68  94 135 172 213 279 324 392
#     4  12  25  42  70 105 132 174 223 266 340 385
#     4  12  22  41  67 102 135 171 216 276 322 397
#     4  12  21  36  68  99 136 171 210 269 336 396
#     4  12  25  43  70  93 131 180 223 276 329 393
#     4  10  22  39  60  98 133 170 213 261 329 400
#     4  10  23  45  65  91 134 170 225 270 328 389
#
# _framework density 23.674807000000001
#
# number of rings (size 3 to 8) (size 9 to 14) (size 15 to 20)
#    0.857    0.000    5.714    1.714    0.000    4.000 
#    0.000    3.571    0.000    0.000    0.000    0.000 
#    0.000    0.000    0.000    0.000    0.000    0.000 
#
# Total GULP energy -156077.323760 kJ/mol
# GULP energy per Si atom -5574.190134 kJ/mol
# Density = 2.362092 g / cm^3
# Si number density = 23.674807 Si / 1000 Ang^3
#
#
#
# Elastic Constant Matrix: (Units=GPa)
#
#
# Indices 1 2 3 4 5 6 
#
# 1 108.0942 -2.8356 -19.2536 0.0000 0.0000 0.0000
# 2 -2.8356 57.3882 0.9001 0.0000 0.0000 0.0000
# 3 -19.2536 0.9001 60.3671 0.0000 0.0000 0.0000
# 4 0.0000 0.0000 0.0000 13.1852 0.0000 0.0000
# 5 0.0000 0.0000 0.0000 0.0000 20.9511 0.0000
# 6 0.0000 0.0000 0.0000 0.0000 0.0000 37.8337
#
#
#
# Elastic Compliance Matrix: (Units=1/GPa)
#
#
# Indices 1 2 3 4 5 6 
#
# 1 0.009819 0.000436 0.003125 0.000000 0.000000 0.000000
# 2 0.000436 0.017449 -0.000121 0.000000 0.000000 0.000000
# 3 0.003125 -0.000121 0.017564 0.000000 0.000000 0.000000
# 4 0.000000 0.000000 0.000000 0.075842 0.000000 0.000000
# 5 0.000000 0.000000 0.000000 0.000000 0.047730 0.000000
# 6 0.000000 0.000000 0.000000 0.000000 0.000000 0.026431
#
#
# Mechanical properties :
#
#
# Convention : Reuss Voigt Hill
#
# Bulk Modulus (GPa) = 19.33765 20.38571 19.86168
# Shear Modulus (GPa) = 24.36735 30.86326 27.61530
#
# Velocity S-wave (km/s) = 3.21168 3.61450 3.41903
# Velocity P-wave (km/s) = 4.68390 5.10381 4.89836
#
# Compressibility (1/GPa) = 0.05171259
#
# Stress axis : x y z
#
# Youngs Moduli (GPa) = 101.84026 57.31108 56.93496
#
# Poissons Ratio (x) = -0.02500 -0.17794
# Poissons Ratio (y) = -0.04442 0.00689
# Poissons Ratio (z) = -0.31828 0.00694
#
# Static dielectric constant tensor:
#      x y z
#    x 1.887680 0.000000 0.000000 
#    y 0.000000 2.047370 0.000000 
#    z 0.000000 0.000000 1.869680 
# 
# From -- ./inp_files/1820.got.cif
#   From: 2010.05.17/outbox.cif.g08.bks.cpg/sg45_1_cif.got.tgz:1820.got - 2010.06.03 19:51:22.
