data_PCOD9376081
_publ_section_title
;
Structure prediction by ZEFSAII (Michael W. Deem and Ramdas Pophale) SiO2 
 PCOD9376081
Probable space group: I B A 2
;
_chemical_formula_sum "Si O2"
_cell_formula_units_Z 52
_cell_length_a 11.834632
_cell_length_b 28.763336
_cell_length_c 8.654940
_cell_angle_alpha 90.000000
_cell_angle_beta 90.000000
_cell_angle_gamma 90.000000
_cell_volume 2946.171839
_symmetry_space_group_name_H-M "I B A 2"
_symmetry_group_IT_number 45
_symmetry_cell_setting 'orthorhombic'
loop_
_space_group_symop_operation_xyz
x,y,z
-x,-y,z
-x,y,1/2+z
x,-y,1/2+z
1/2+x,1/2+y,1/2+z
1/2-x,1/2-y,1/2+z
1/2-x,1/2+y,z
1/2+x,1/2-y,z
loop_
_atom_site_type_symbol
_atom_site_label
_atom_site_fract_x
_atom_site_fract_y
_atom_site_fract_z
Si Si1 0.784244 0.351692 0.726370
Si Si2 0.770422 0.704189 0.668992
Si Si3 0.447139 0.213833 0.893919
Si Si4 0.428156 0.067939 0.851340
Si Si5 0.000000 0.500000 0.599574
Si Si6 0.369148 0.717010 0.876788
Si Si7 0.636885 0.864119 0.391636
O O1 0.875153 0.310350 0.758543
O O2 0.832911 0.393036 0.833402
O O3 0.667440 0.329143 0.783768
O O4 0.792796 0.367863 0.549731
O O5 0.872632 0.713002 0.548106
O O6 0.663952 0.709818 0.556085
O O7 0.788668 0.742397 0.802756
O O8 0.787911 0.654112 0.748945
O O9 0.504657 0.263300 0.861817
O O10 0.549776 0.178252 0.919087
O O11 0.427492 0.034274 0.704830
O O12 0.551780 0.093306 0.857649
O O13 0.423842 0.033807 0.995979
#
# Coordination Sequence:
#
# PCOD9376081 Si02
#       7
#     8   8   8   8   4   8   8
#     4  10  19  31  48  65  93 128 161 192 225 278
#     4  10  20  29  44  64  89 120 163 200 223 269
#     4   9  18  30  44  63  87 122 161 197 222 262
#     4  10  19  31  46  68  92 125 162 188 228 277
#     4  10  20  30  46  70  90 122 168 186 228 286
#     4  10  19  30  44  65  86 121 167 190 232 266
#     4  10  17  29  45  62  88 123 156 193 224 267
#
# _framework density 17.650023999999998
#
# number of rings (size 3 to 8) (size 9 to 14) (size 15 to 20)
#    0.000    2.154    1.538    4.615    4.308    2.462 
#    0.000    1.538    0.000    0.000    0.000    0.000 
#    0.000    0.000    0.000    4.154   11.385    0.000 
#
# Total GULP energy -144845.810864 kJ/mol
# GULP energy per Si atom -5570.992726 kJ/mol
# Density = 1.760985 g / cm^3
# Si number density = 17.650024 Si / 1000 Ang^3
#
#
#
# Elastic Constant Matrix: (Units=GPa)
#
#
# Indices 1 2 3 4 5 6 
#
# 1 22.4967 24.3698 15.0187 -0.0007 0.0001 0.0000
# 2 24.3698 92.3982 31.1471 -0.0016 0.0002 0.0002
# 3 15.0187 31.1471 91.7374 -0.0069 0.0006 -0.0002
# 4 -0.0007 -0.0016 -0.0069 24.7301 0.0000 0.0004
# 5 0.0001 0.0002 0.0006 0.0000 19.6170 0.0001
# 6 0.0000 0.0002 -0.0002 0.0004 0.0001 14.5580
#
#
#
# Elastic Compliance Matrix: (Units=1/GPa)
#
#
# Indices 1 2 3 4 5 6 
#
# 1 0.064519 -0.015195 -0.005403 -0.000001 0.000000 0.000000
# 2 -0.015195 0.015800 -0.002877 0.000000 0.000000 0.000000
# 3 -0.005403 -0.002877 0.012762 0.000003 0.000000 0.000000
# 4 -0.000001 0.000000 0.000003 0.040437 0.000000 -0.000001
# 5 0.000000 0.000000 0.000000 0.000000 0.050976 0.000000
# 6 0.000000 0.000000 0.000000 -0.000001 0.000000 0.068691
#
#
# Mechanical properties :
#
#
# Convention : Reuss Voigt Hill
#
# Bulk Modulus (GPa) = 21.67792 38.63371 30.15582
# Shear Modulus (GPa) = 15.84726 20.85414 18.35070
#
# Velocity S-wave (km/s) = 2.99968 3.44108 3.22793
# Velocity P-wave (km/s) = 4.93013 6.14201 5.56913
#
# Compressibility (1/GPa) = 0.04612989
#
# Stress axis : x y z
#
# Youngs Moduli (GPa) = 15.49941 63.29045 78.35714
#
# Poissons Ratio (x) = 0.96170 0.42340
# Poissons Ratio (y) = 0.23552 0.22543
# Poissons Ratio (z) = 0.08375 0.18208
#
# Static dielectric constant tensor:
#      x y z
#    x 1.662300 0.000000 0.000000 
#    y 0.000000 1.633780 0.000000 
#    z 0.000000 0.000000 1.681890 
# 
# From -- ./inp_files/1476.got.cif
#   From: 2010.05.17/outbox.cif.g08.bks.cpg/sg45_1_cif.got.tgz:1476.got - 2010.06.03 19:51:22.
