data_PCOD9376970
_publ_section_title
;
Structure prediction by ZEFSAII (Michael W. Deem and Ramdas Pophale) SiO2 
 PCOD9376970
Probable space group: I B A 2
;
_chemical_formula_sum "Si O2"
_cell_formula_units_Z 56
_cell_length_a 14.344532
_cell_length_b 21.577832
_cell_length_c 8.626060
_cell_angle_alpha 90.000000
_cell_angle_beta 90.000000
_cell_angle_gamma 90.000000
_cell_volume 2669.971747
_symmetry_space_group_name_H-M "I B A 2"
_symmetry_group_IT_number 45
_symmetry_cell_setting 'orthorhombic'
loop_
_space_group_symop_operation_xyz
x,y,z
-x,-y,z
-x,y,1/2+z
x,-y,1/2+z
1/2+x,1/2+y,1/2+z
1/2-x,1/2-y,1/2+z
1/2-x,1/2+y,z
1/2+x,1/2-y,z
loop_
_atom_site_type_symbol
_atom_site_label
_atom_site_fract_x
_atom_site_fract_y
_atom_site_fract_z
Si Si1 0.212794 0.322484 0.858730
Si Si2 0.500000 0.000000 0.249369
Si Si3 0.391194 0.322239 0.030223
Si Si4 0.500000 0.500000 0.749369
Si Si5 0.429856 0.910146 0.006608
Si Si6 0.212794 0.177517 0.858730
Si Si7 0.929856 0.910146 0.006608
Si Si8 0.108806 0.322239 0.530223
O O1 0.156929 0.366287 0.975667
O O2 0.199274 0.250000 0.900672
O O3 0.169304 0.330494 0.687747
O O4 0.322273 0.334552 0.885359
O O5 0.555157 0.952173 0.355441
O O6 0.430382 0.959392 0.145031
O O7 0.330696 0.330494 0.187747
O O8 0.479382 0.366789 0.028120
O O9 0.420644 0.250000 0.024542
O O10 0.430382 0.459392 0.645031
O O11 0.555157 0.452173 0.855441
O O12 0.520617 0.866789 0.028120
O O13 0.156929 0.133713 0.975667
O O14 0.322273 0.165448 0.885359
#
# Coordination Sequence:
#
# PCOD9376970 Si02
#       8
#     8   4   8   4   8   8   8   8
#     4  10  22  39  63  93 121 153 196 247 305 360
#     4  10  24  38  64  82 120 160 212 240 286 350
#     4  10  22  39  63  93 121 153 196 247 305 360
#     4  10  24  38  64  82 120 160 212 240 286 350
#     4  11  21  44  60  86 119 163 198 252 290 351
#     4  10  22  39  63  93 121 153 196 247 305 360
#     4  11  21  44  60  86 119 163 198 252 290 351
#     4  10  22  39  63  93 121 153 196 247 305 360
#
# _framework density 20.974004999999998
#
# number of rings (size 3 to 8) (size 9 to 14) (size 15 to 20)
#    0.000    1.714    2.857    0.857    4.000    0.000 
#    0.000    8.571    0.000    0.000    0.000    0.000 
#    0.000    0.000    0.000    0.000    0.000    0.000 
#
# Total GULP energy -156473.490176 kJ/mol
# GULP energy per Si atom -5588.338935 kJ/mol
# Density = 2.092627 g / cm^3
# Si number density = 20.974005 Si / 1000 Ang^3
#
#
#
# Elastic Constant Matrix: (Units=GPa)
#
#
# Indices 1 2 3 4 5 6 
#
# 1 49.5532 41.9675 5.0317 0.0000 0.0000 -0.0001
# 2 41.9675 91.5635 36.4971 0.0000 0.0000 0.0000
# 3 5.0317 36.4971 65.1449 -0.0001 -0.0001 -0.0003
# 4 0.0000 0.0000 -0.0001 33.9116 0.0000 0.0000
# 5 0.0000 0.0000 -0.0001 0.0000 12.5337 -0.0001
# 6 -0.0001 0.0000 -0.0003 0.0000 -0.0001 62.6263
#
#
#
# Elastic Compliance Matrix: (Units=1/GPa)
#
#
# Indices 1 2 3 4 5 6 
#
# 1 0.036214 -0.019935 0.008371 0.000000 0.000000 0.000000
# 2 -0.019935 0.025036 -0.012486 0.000000 0.000000 0.000000
# 3 0.008371 -0.012486 0.021699 0.000000 0.000000 0.000000
# 4 0.000000 0.000000 0.000000 0.029488 0.000000 0.000000
# 5 0.000000 0.000000 0.000000 0.000000 0.079785 0.000000
# 6 0.000000 0.000000 0.000000 0.000000 0.000000 0.015968
#
#
# Mechanical properties :
#
#
# Convention : Reuss Voigt Hill
#
# Bulk Modulus (GPa) = 28.69564 41.47269 35.08417
# Shear Modulus (GPa) = 18.66330 29.99868 24.33099
#
# Velocity S-wave (km/s) = 2.98624 3.78601 3.40965
# Velocity P-wave (km/s) = 5.05978 6.23924 5.68021
#
# Compressibility (1/GPa) = 0.03484850
#
# Stress axis : x y z
#
# Youngs Moduli (GPa) = 27.61382 39.94326 46.08477
#
# Poissons Ratio (x) = 0.79628 -0.38580
# Poissons Ratio (y) = 0.55049 0.57543
# Poissons Ratio (z) = -0.23117 0.49874
#
# Static dielectric constant tensor:
#      x y z
#    x 1.708530 0.000000 0.000000 
#    y 0.000000 1.728210 0.000000 
#    z 0.000000 0.000000 1.809960 
# 
# From -- ./inp_files/1840.got.cif
#   From: 2010.05.17/outbox.cif.g08.bks.cpg/sg45_1_cif.got.tgz:1840.got - 2010.06.03 19:51:22.
