data_PCOD9376278
_publ_section_title
;
Structure prediction by ZEFSAII (Michael W. Deem and Ramdas Pophale) SiO2 
 PCOD9376278
Probable space group: I B A 2
;
_chemical_formula_sum "Si O2"
_cell_formula_units_Z 64
_cell_length_a 20.844783
_cell_length_b 15.642505
_cell_length_c 9.602581
_cell_angle_alpha 90.000000
_cell_angle_beta 90.000000
_cell_angle_gamma 90.000000
_cell_volume 3131.061947
_symmetry_space_group_name_H-M "I B A 2"
_symmetry_group_IT_number 45
_symmetry_cell_setting 'orthorhombic'
loop_
_space_group_symop_operation_xyz
x,y,z
-x,-y,z
-x,y,1/2+z
x,-y,1/2+z
1/2+x,1/2+y,1/2+z
1/2-x,1/2-y,1/2+z
1/2-x,1/2+y,z
1/2+x,1/2-y,z
loop_
_atom_site_type_symbol
_atom_site_label
_atom_site_fract_x
_atom_site_fract_y
_atom_site_fract_z
Si Si1 0.589822 0.846082 0.883030
Si Si2 0.790124 0.819384 0.002870
Si Si3 0.159952 0.504796 0.285517
Si Si4 0.761052 0.491641 0.534614
Si Si5 0.067569 0.237341 0.646858
Si Si6 0.947900 0.368958 0.386534
Si Si7 0.793952 0.179030 0.171428
Si Si8 0.575579 0.745861 0.617422
O O1 0.645219 0.909120 0.836547
O O2 0.521593 0.894065 0.869278
O O3 0.589703 0.765935 0.778236
O O4 0.588710 0.810380 0.037709
O O5 0.742383 0.754697 0.085806
O O6 0.863044 0.798314 0.049494
O O7 0.775932 0.918764 0.035115
O O8 0.782557 0.807077 0.836354
O O9 0.220957 0.533717 0.377180
O O10 0.174094 0.508145 0.123118
O O11 0.101568 0.563814 0.329158
O O12 0.730899 0.411558 0.614525
O O13 0.059768 0.282817 0.795462
O O14 0.129114 0.177653 0.650657
O O15 0.996064 0.205780 0.605097
O O16 0.932608 0.338766 0.542831
#
# Coordination Sequence:
#
# PCOD9376278 Si02
#       8
#     8   8   8   8   8   8   8   8
#     4  10  21  35  58  96 125 166 220 260 323 407
#     4  12  26  46  71  99 135 180 225 279 337 393
#     4  12  21  38  56  88 135 178 204 266 330 392
#     4  12  28  40  62  98 136 170 226 272 326 408
#     4  10  22  40  65  92 125 170 222 274 330 391
#     4  10  19  35  60  90 127 170 216 262 321 399
#     4  12  26  46  71  99 135 180 225 279 337 393
#     4  10  22  40  65  92 125 170 222 274 330 391
#
# _framework density 20.440348
#
# number of rings (size 3 to 8) (size 9 to 14) (size 15 to 20)
#    0.000    1.000    2.500    4.875    3.500    0.000 
#    0.000    5.625    0.000    1.500    0.000    0.000 
#    0.000    0.000    0.000    0.000    0.000    0.000 
#
# Total GULP energy -178730.523838 kJ/mol
# GULP energy per Si atom -5585.328870 kJ/mol
# Density = 2.039383 g / cm^3
# Si number density = 20.440348 Si / 1000 Ang^3
#
#
#
# Elastic Constant Matrix: (Units=GPa)
#
#
# Indices 1 2 3 4 5 6 
#
# 1 111.4129 35.3787 14.8334 0.0000 0.0000 0.0000
# 2 35.3787 66.2417 14.8117 0.0000 0.0000 0.0000
# 3 14.8334 14.8117 78.8664 0.0000 0.0000 0.0000
# 4 0.0000 0.0000 0.0000 20.1268 0.0000 0.0000
# 5 0.0000 0.0000 0.0000 0.0000 30.0389 0.0000
# 6 0.0000 0.0000 0.0000 0.0000 0.0000 45.2559
#
#
#
# Elastic Compliance Matrix: (Units=1/GPa)
#
#
# Indices 1 2 3 4 5 6 
#
# 1 0.010883 -0.005590 -0.000997 0.000000 0.000000 0.000000
# 2 -0.005590 0.018629 -0.002447 0.000000 0.000000 0.000000
# 3 -0.000997 -0.002447 0.013327 0.000000 0.000000 0.000000
# 4 0.000000 0.000000 0.000000 0.049685 0.000000 0.000000
# 5 0.000000 0.000000 0.000000 0.000000 0.033290 0.000000
# 6 0.000000 0.000000 0.000000 0.000000 0.000000 0.022097
#
#
# Mechanical properties :
#
#
# Convention : Reuss Voigt Hill
#
# Bulk Modulus (GPa) = 40.37030 42.95207 41.66119
# Shear Modulus (GPa) = 28.69672 31.85080 30.27376
#
# Velocity S-wave (km/s) = 3.75096 3.95173 3.85265
# Velocity P-wave (km/s) = 6.20909 6.47152 6.34166
#
# Compressibility (1/GPa) = 0.02477068
#
# Stress axis : x y z
#
# Youngs Moduli (GPa) = 91.88335 53.68026 75.03646
#
# Poissons Ratio (x) = 0.30006 0.07483
# Poissons Ratio (y) = 0.51360 0.18364
# Poissons Ratio (z) = 0.09163 0.13137
#
# Static dielectric constant tensor:
#      x y z
#    x 1.765930 0.000000 0.000000 
#    y 0.000000 1.704680 0.000000 
#    z 0.000000 0.000000 1.714500 
# 
# From -- ./inp_files/2541.got.cif
#   From: 2010.05.17/outbox.cif.g08.bks.cpg/sg45_2_cif.got.tgz:2541.got - 2010.06.03 19:51:22.
