data_PCOD9376363
_publ_section_title
;
Structure prediction by ZEFSAII (Michael W. Deem and Ramdas Pophale) SiO2 
 PCOD9376363
Probable space group: I B A 2
;
_chemical_formula_sum "Si O2"
_cell_formula_units_Z 64
_cell_length_a 28.600881
_cell_length_b 16.107590
_cell_length_c 5.206924
_cell_angle_alpha 90.000000
_cell_angle_beta 90.000000
_cell_angle_gamma 90.000000
_cell_volume 2398.784403
_symmetry_space_group_name_H-M "I B A 2"
_symmetry_group_IT_number 45
_symmetry_cell_setting 'orthorhombic'
loop_
_space_group_symop_operation_xyz
x,y,z
-x,-y,z
-x,y,1/2+z
x,-y,1/2+z
1/2+x,1/2+y,1/2+z
1/2-x,1/2-y,1/2+z
1/2-x,1/2+y,z
1/2+x,1/2-y,z
loop_
_atom_site_type_symbol
_atom_site_label
_atom_site_fract_x
_atom_site_fract_y
_atom_site_fract_z
Si Si1 0.621425 0.110802 0.923020
Si Si2 0.527606 0.306684 0.666184
Si Si3 0.714323 0.147795 0.782974
Si Si4 0.471575 0.894418 0.677508
Si Si5 0.914088 0.952849 0.450554
Si Si6 0.310649 0.521173 0.871090
Si Si7 0.187981 0.812038 0.601444
Si Si8 0.142194 0.694472 0.928873
O O1 0.675461 0.081674 0.888157
O O2 0.576915 0.067937 0.792715
O O3 0.624055 0.188633 0.718910
O O4 0.616215 0.137206 0.218506
O O5 0.486789 0.325555 0.457921
O O6 0.532650 0.206610 0.663339
O O7 0.569062 0.364489 0.558704
O O8 0.769620 0.149433 0.763567
O O9 0.695069 0.162614 0.490919
O O10 0.704849 0.230549 0.952591
O O11 0.489590 0.914408 0.393595
O O12 0.931156 0.982594 0.171248
O O13 0.857860 0.966762 0.412923
O O14 0.282137 0.492367 0.117380
O O15 0.325660 0.615786 0.907807
O O16 0.147509 0.781031 0.788099
#
# Coordination Sequence:
#
# PCOD9376363 Si02
#       8
#     8   8   8   8   8   8   8   8
#     4   9  18  31  45  73 105 121 161 208 260 325
#     4  10  21  34  50  66  81 114 165 220 260 302
#     4   9  19  31  54  84  96 133 163 225 274 303
#     4  10  20  33  50  69  93 129 170 210 267 314
#     4  10  21  36  50  63  86 115 161 205 260 307
#     4  10  25  39  51  74 102 142 170 206 260 327
#     4  11  19  35  58  77 111 128 179 216 268 332
#     4   9  19  29  50  76 100 122 161 209 271 307
#
# _framework density 26.68018
#
# number of rings (size 3 to 8) (size 9 to 14) (size 15 to 20)
#    0.750    1.500    1.250    1.500    1.750    7.500 
#    0.000    1.250    0.000    0.000    0.000    0.000 
#    0.000    0.000    0.000    0.000    0.000    3.750 
#
# Total GULP energy -178242.607642 kJ/mol
# GULP energy per Si atom -5570.081489 kJ/mol
# Density = 2.661945 g / cm^3
# Si number density = 26.680180 Si / 1000 Ang^3
#
#
#
# Elastic Constant Matrix: (Units=GPa)
#
#
# Indices 1 2 3 4 5 6 
#
# 1 99.9426 15.0301 1.2536 0.0000 0.0000 0.0000
# 2 15.0301 71.5467 13.9636 0.0000 0.0000 0.0000
# 3 1.2536 13.9636 148.6368 0.0001 0.0000 0.0000
# 4 0.0000 0.0000 0.0001 -19.4231 0.0000 0.0000
# 5 0.0000 0.0000 0.0000 0.0000 32.8418 0.0000
# 6 0.0000 0.0000 0.0000 0.0000 0.0000 8.8062
#
#
#
# Elastic Compliance Matrix: (Units=1/GPa)
#
#
# Indices 1 2 3 4 5 6 
#
# 1 0.010334 -0.002194 0.000119 0.000000 0.000000 0.000000
# 2 -0.002194 0.014704 -0.001363 0.000000 0.000000 0.000000
# 3 0.000119 -0.001363 0.006855 0.000000 0.000000 0.000000
# 4 0.000000 0.000000 0.000000 -0.051485 0.000000 0.000000
# 5 0.000000 0.000000 0.000000 0.000000 0.030449 0.000000
# 6 0.000000 0.000000 0.000000 0.000000 0.000000 0.113556
#
#
# Mechanical properties :
#
#
# Convention : Reuss Voigt Hill
#
# Bulk Modulus (GPa) = 39.97313 42.29118 41.13215
# Shear Modulus (GPa) = 35.80944 23.77023 29.78984
#
# Velocity S-wave (km/s) = 3.66754 2.98809 3.34511
# Velocity P-wave (km/s) = 5.74015 5.27167 5.51089
#
# Compressibility (1/GPa) = 0.02501681
#
# Stress axis : x y z
#
# Youngs Moduli (GPa) = 96.76579 68.00957 145.88240
#
# Poissons Ratio (x) = 0.14922 -0.01736
# Poissons Ratio (y) = 0.21232 0.19881
# Poissons Ratio (z) = -0.01151 0.09269
#
# Static dielectric constant tensor:
#      x y z
#    x 2.293500 0.000000 0.000000 
#    y 0.000000 2.136830 0.000000 
#    z 0.000000 0.000000 2.254580 
# 
# From -- ./inp_files/631.got.cif
#   From: 2010.05.17/outbox.cif.g08.bks.cpg/sg45_1_cif.got.tgz:631.got - 2010.06.03 19:51:22.
