data_PCOD9376767
_publ_section_title
;
Structure prediction by ZEFSAII (Michael W. Deem and Ramdas Pophale) SiO2 
 PCOD9376767
Probable space group: I B A 2
;
_chemical_formula_sum "Si O2"
_cell_formula_units_Z 48
_cell_length_a 8.008674
_cell_length_b 12.066385
_cell_length_c 22.873811
_cell_angle_alpha 90.000000
_cell_angle_beta 90.000000
_cell_angle_gamma 90.000000
_cell_volume 2210.427740
_symmetry_space_group_name_H-M "I B A 2"
_symmetry_group_IT_number 45
_symmetry_cell_setting 'orthorhombic'
loop_
_space_group_symop_operation_xyz
x,y,z
-x,-y,z
-x,y,1/2+z
x,-y,1/2+z
1/2+x,1/2+y,1/2+z
1/2-x,1/2-y,1/2+z
1/2-x,1/2+y,z
1/2+x,1/2-y,z
loop_
_atom_site_type_symbol
_atom_site_label
_atom_site_fract_x
_atom_site_fract_y
_atom_site_fract_z
Si Si1 0.500000 0.000000 0.680990
Si Si2 0.106676 0.397865 0.997543
Si Si3 0.574526 0.304292 0.555889
Si Si4 0.968375 0.346737 0.287219
Si Si5 0.278942 0.632518 0.130503
Si Si6 0.092758 0.883193 0.760309
Si Si7 0.000000 0.500000 0.884500
O O1 0.469286 0.101774 0.725595
O O2 0.660472 0.027967 0.642774
O O3 0.284418 0.376919 0.025886
O O4 0.000000 0.500000 0.023374
O O5 0.000612 0.286892 0.010893
O O6 0.119150 0.434882 0.929862
O O7 0.422247 0.373139 0.582380
O O8 0.660870 0.232662 0.608128
O O9 0.774653 0.382704 0.290370
O O10 0.064135 0.405718 0.340281
O O11 0.985362 0.216095 0.286685
O O12 0.366580 0.648381 0.193017
O O13 0.000000 0.000000 0.762784
#
# Coordination Sequence:
#
# PCOD9376767 Si02
#       7
#     4   8   8   8   8   8   4
#     4   9  20  37  62 100 142 195 216 281 342 438
#     4   9  22  43  69  96 136 174 241 294 345 412
#     4  10  21  42  68 104 133 187 229 296 340 421
#     4  10  23  43  69  96 147 177 237 289 353 416
#     4  10  21  39  66  99 145 181 231 271 364 404
#     4  11  25  42  66 104 139 185 235 280 346 439
#     4   9  22  45  72  98 134 193 216 307 364 394
#
# _framework density 21.715254999999999
#
# number of rings (size 3 to 8) (size 9 to 14) (size 15 to 20)
#    0.500    1.667    0.000    2.000    8.167    2.667 
#    9.000    2.500    0.000    0.000    0.000    0.000 
#    0.000    0.000    0.000    0.000    0.000    0.000 
#
# Total GULP energy -133980.641200 kJ/mol
# GULP energy per Si atom -5582.526717 kJ/mol
# Density = 2.166583 g / cm^3
# Si number density = 21.715255 Si / 1000 Ang^3
#
#
#
# Elastic Constant Matrix: (Units=GPa)
#
#
# Indices 1 2 3 4 5 6 
#
# 1 139.3423 69.9730 54.0838 0.0000 0.0000 0.0000
# 2 69.9730 139.7855 64.6195 0.0000 0.0000 0.0000
# 3 54.0838 64.6195 110.9279 0.0000 0.0000 0.0000
# 4 0.0000 0.0000 0.0000 23.7472 0.0000 0.0000
# 5 0.0000 0.0000 0.0000 0.0000 13.5633 0.0000
# 6 0.0000 0.0000 0.0000 0.0000 0.0000 35.6150
#
#
#
# Elastic Compliance Matrix: (Units=1/GPa)
#
#
# Indices 1 2 3 4 5 6 
#
# 1 0.010154 -0.003824 -0.002723 0.000000 0.000000 0.000000
# 2 -0.003824 0.011230 -0.004678 0.000000 0.000000 0.000000
# 3 -0.002723 -0.004678 0.013067 0.000000 0.000000 0.000000
# 4 0.000000 0.000000 0.000000 0.042110 0.000000 0.000000
# 5 0.000000 0.000000 0.000000 0.000000 0.073728 0.000000
# 6 0.000000 0.000000 0.000000 0.000000 0.000000 0.028078
#
#
# Mechanical properties :
#
#
# Convention : Reuss Voigt Hill
#
# Bulk Modulus (GPa) = 83.31738 85.26761 84.29249
# Shear Modulus (GPa) = 24.41190 28.01039 26.21115
#
# Velocity S-wave (km/s) = 3.35652 3.59541 3.47801
# Velocity P-wave (km/s) = 7.31253 7.52246 7.41824
#
# Compressibility (1/GPa) = 0.01200230
#
# Stress axis : x y z
#
# Youngs Moduli (GPa) = 98.48633 89.04431 76.52638
#
# Poissons Ratio (x) = 0.34050 0.20838
# Poissons Ratio (y) = 0.37660 0.35797
# Poissons Ratio (z) = 0.26817 0.41652
#
# Static dielectric constant tensor:
#      x y z
#    x 1.816830 0.000000 0.000000 
#    y 0.000000 1.811240 0.000000 
#    z 0.000000 0.000000 1.809980 
# 
# From -- ./inp_files/9542.got.cif
#   From: 2010.05.17/outbox.cif.g08.bks.cpg/sg45_5_cif.got.tgz:9542.got - 2010.06.03 19:51:22.
