data_PCOD9376694
_publ_section_title
;
Structure prediction by ZEFSAII (Michael W. Deem and Ramdas Pophale) SiO2 
 PCOD9376694
Probable space group: I B A 2
;
_chemical_formula_sum "Si O2"
_cell_formula_units_Z 56
_cell_length_a 19.992589
_cell_length_b 8.649924
_cell_length_c 15.219754
_cell_angle_alpha 90.000000
_cell_angle_beta 90.000000
_cell_angle_gamma 90.000000
_cell_volume 2632.018652
_symmetry_space_group_name_H-M "I B A 2"
_symmetry_group_IT_number 45
_symmetry_cell_setting 'orthorhombic'
loop_
_space_group_symop_operation_xyz
x,y,z
-x,-y,z
-x,y,1/2+z
x,-y,1/2+z
1/2+x,1/2+y,1/2+z
1/2-x,1/2-y,1/2+z
1/2-x,1/2+y,z
1/2+x,1/2-y,z
loop_
_atom_site_type_symbol
_atom_site_label
_atom_site_fract_x
_atom_site_fract_y
_atom_site_fract_z
Si Si1 0.652786 0.312289 0.439770
Si Si2 0.889594 0.332088 0.576772
Si Si3 0.690513 0.916295 0.271355
Si Si4 0.554719 0.891146 0.193531
Si Si5 0.827022 0.220347 0.738303
Si Si6 0.514311 0.679654 0.041077
Si Si7 0.276383 0.981510 0.967511
O O1 0.647081 0.333962 0.333928
O O2 0.580479 0.293192 0.483311
O O3 0.697214 0.453610 0.478389
O O4 0.695922 0.156320 0.460712
O O5 0.919799 0.487445 0.619780
O O6 0.874873 0.209141 0.654520
O O7 0.820015 0.385740 0.536112
O O8 0.946169 0.266927 0.511993
O O9 0.619248 0.843588 0.248675
O O10 0.754364 0.851284 0.220557
O O11 0.707564 0.904056 0.373313
O O12 0.683251 0.096539 0.250399
O O13 0.526676 0.748504 0.138713
O O14 0.500000 0.000000 0.242712
O O15 0.500000 0.500000 0.042333
#
# Coordination Sequence:
#
# PCOD9376694 Si02
#       7
#     8   8   8   8   8   8   8
#     4  10  22  41  61  90 124 159 201 253 304 366
#     4  10  21  39  60  87 120 162 201 248 301 368
#     4   9  19  37  58  90 117 157 198 251 302 363
#     4   9  19  39  58  82 120 156 198 247 302 365
#     4   9  20  37  61  86 123 155 203 248 302 359
#     4  11  24  40  59  89 125 157 206 251 306 361
#     4  10  21  37  63  91 118 158 209 249 303 364
#
# _framework density 21.276444999999999
#
# number of rings (size 3 to 8) (size 9 to 14) (size 15 to 20)
#    0.000    2.286    1.429    0.000    4.000    1.143 
#   10.286    0.714    0.000    0.000    0.000    0.000 
#    0.000    0.000    0.000    0.000    0.000    0.000 
#
# Total GULP energy -156175.188972 kJ/mol
# GULP energy per Si atom -5577.685320 kJ/mol
# Density = 2.122802 g / cm^3
# Si number density = 21.276445 Si / 1000 Ang^3
#
#
#
# Elastic Constant Matrix: (Units=GPa)
#
#
# Indices 1 2 3 4 5 6 
#
# 1 120.4279 8.7047 40.0757 0.0000 0.0000 0.0000
# 2 8.7047 36.9536 9.1753 0.0000 0.0000 0.0000
# 3 40.0757 9.1753 32.0990 0.0000 0.0000 0.0000
# 4 0.0000 0.0000 0.0000 13.9078 0.0000 0.0000
# 5 0.0000 0.0000 0.0000 0.0000 34.5463 0.0000
# 6 0.0000 0.0000 0.0000 0.0000 0.0000 34.7914
#
#
#
# Elastic Compliance Matrix: (Units=1/GPa)
#
#
# Indices 1 2 3 4 5 6 
#
# 1 0.014251 0.001142 -0.018118 0.000000 0.000000 0.000000
# 2 0.001142 0.029220 -0.009778 0.000000 0.000000 0.000000
# 3 -0.018118 -0.009778 0.056569 0.000000 0.000000 0.000000
# 4 0.000000 0.000000 0.000000 0.071902 0.000000 0.000000
# 5 0.000000 0.000000 0.000000 0.000000 0.028947 0.000000
# 6 0.000000 0.000000 0.000000 0.000000 0.000000 0.028743
#
#
# Mechanical properties :
#
#
# Convention : Reuss Voigt Hill
#
# Bulk Modulus (GPa) = 21.49103 33.93242 27.71173
# Shear Modulus (GPa) = 16.74201 25.41741 21.07971
#
# Velocity S-wave (km/s) = 2.80818 3.46009 3.15104
# Velocity P-wave (km/s) = 4.54283 5.65207 5.12753
#
# Compressibility (1/GPa) = 0.04653104
#
# Stress axis : x y z
#
# Youngs Moduli (GPa) = 70.17290 34.22342 17.67746
#
# Poissons Ratio (x) = -0.03908 0.32028
# Poissons Ratio (y) = -0.08012 0.17285
# Poissons Ratio (z) = 1.27141 0.33463
#
# Static dielectric constant tensor:
#      x y z
#    x 1.871610 0.000000 0.000000 
#    y 0.000000 1.764730 0.000000 
#    z 0.000000 0.000000 1.806260 
# 
# From -- ./inp_files/6935.got.cif
#   From: 2010.05.17/outbox.cif.g08.bks.cpg/sg45_4_cif.got.tgz:6935.got - 2010.06.03 19:51:22.
