data_PCOD9376726
_publ_section_title
;
Structure prediction by ZEFSAII (Michael W. Deem and Ramdas Pophale) SiO2 
 PCOD9376726
Probable space group: I B A 2
;
_chemical_formula_sum "Si O2"
_cell_formula_units_Z 48
_cell_length_a 14.628392
_cell_length_b 17.883802
_cell_length_c 7.146224
_cell_angle_alpha 90.000000
_cell_angle_beta 90.000000
_cell_angle_gamma 90.000000
_cell_volume 1869.532709
_symmetry_space_group_name_H-M "I B A 2"
_symmetry_group_IT_number 45
_symmetry_cell_setting 'orthorhombic'
loop_
_space_group_symop_operation_xyz
x,y,z
-x,-y,z
-x,y,1/2+z
x,-y,1/2+z
1/2+x,1/2+y,1/2+z
1/2-x,1/2-y,1/2+z
1/2-x,1/2+y,z
1/2+x,1/2-y,z
loop_
_atom_site_type_symbol
_atom_site_label
_atom_site_fract_x
_atom_site_fract_y
_atom_site_fract_z
Si Si1 0.689833 0.408901 0.905520
Si Si2 0.818154 0.749514 0.038491
Si Si3 0.379658 0.702690 0.651522
Si Si4 0.398856 0.094859 0.225344
Si Si5 0.066021 0.688840 0.881530
Si Si6 0.700825 0.961857 0.572991
O O1 0.612309 0.378324 0.754468
O O2 0.771161 0.416157 0.754420
O O3 0.689765 0.339985 0.049477
O O4 0.711862 0.484904 0.019171
O O5 0.717535 0.713154 0.045873
O O6 0.878489 0.716689 0.203332
O O7 0.864421 0.744414 0.834041
O O8 0.381194 0.855082 0.543758
O O9 0.453457 0.734548 0.505284
O O10 0.491777 0.128729 0.310588
O O11 0.385921 0.012306 0.134122
O O12 0.171369 0.586806 0.397067
#
# Coordination Sequence:
#
# PCOD9376726 Si02
#       6
#     8   8   8   8   8   8
#     4   9  22  38  70  98 130 184 233 296 339 402
#     4  10  21  40  62  94 121 173 239 299 348 377
#     4  10  21  38  64  92 121 174 237 302 342 385
#     4  11  28  42  63  95 144 198 227 278 330 434
#     4  12  26  41  62  94 136 187 238 283 345 404
#     4  10  22  48  67 100 148 190 238 261 342 438
#
# _framework density 25.674865
#
# number of rings (size 3 to 8) (size 9 to 14) (size 15 to 20)
#    1.000    0.667    1.667    2.000    4.667    8.667 
#    0.000    0.000    0.000    0.000    0.000    0.000 
#    0.000   46.667    0.000    0.000    0.000    0.000 
#
# Total GULP energy -133673.985798 kJ/mol
# GULP energy per Si atom -5569.749408 kJ/mol
# Density = 2.561643 g / cm^3
# Si number density = 25.674865 Si / 1000 Ang^3
#
#
#
# Elastic Constant Matrix: (Units=GPa)
#
#
# Indices 1 2 3 4 5 6 
#
# 1 50.2580 34.1615 26.4785 0.0000 0.0000 0.0000
# 2 34.1615 115.2287 45.3160 0.0000 0.0000 0.0000
# 3 26.4785 45.3160 173.3450 0.0000 0.0000 0.0000
# 4 0.0000 0.0000 0.0000 58.2553 0.0000 0.0000
# 5 0.0000 0.0000 0.0000 0.0000 35.9161 0.0000
# 6 0.0000 0.0000 0.0000 0.0000 0.0000 57.1682
#
#
#
# Elastic Compliance Matrix: (Units=1/GPa)
#
#
# Indices 1 2 3 4 5 6 
#
# 1 0.025617 -0.006750 -0.002149 0.000000 0.000000 0.000000
# 2 -0.006750 0.011451 -0.001963 0.000000 0.000000 0.000000
# 3 -0.002149 -0.001963 0.006610 0.000000 0.000000 0.000000
# 4 0.000000 0.000000 0.000000 0.017166 0.000000 0.000000
# 5 0.000000 0.000000 0.000000 0.000000 0.027843 0.000000
# 6 0.000000 0.000000 0.000000 0.000000 0.000000 0.017492
#
#
# Mechanical properties :
#
#
# Convention : Reuss Voigt Hill
#
# Bulk Modulus (GPa) = 45.54364 61.19376 53.36870
# Shear Modulus (GPa) = 36.97678 45.79296 41.38487
#
# Velocity S-wave (km/s) = 3.79911 4.22782 4.01918
# Velocity P-wave (km/s) = 6.08452 6.90785 6.50922
#
# Compressibility (1/GPa) = 0.02195696
#
# Stress axis : x y z
#
# Youngs Moduli (GPa) = 39.03621 87.32642 151.28381
#
# Poissons Ratio (x) = 0.58943 0.32504
# Poissons Ratio (y) = 0.26348 0.29691
# Poissons Ratio (z) = 0.08387 0.17139
#
# Static dielectric constant tensor:
#      x y z
#    x 2.158450 0.000000 0.000000 
#    y 0.000000 2.187930 0.000000 
#    z 0.000000 0.000000 2.007600 
# 
# From -- ./inp_files/2082.got.cif
#   From: 2010.05.17/outbox.cif.g08.bks.cpg/sg45_2_cif.got.tgz:2082.got - 2010.06.03 19:51:22.
