data_PCOD9376164
_publ_section_title
;
Structure prediction by ZEFSAII (Michael W. Deem and Ramdas Pophale) SiO2 
 PCOD9376164
Probable space group: I B A 2
;
_chemical_formula_sum "Si O2"
_cell_formula_units_Z 48
_cell_length_a 24.096754
_cell_length_b 5.110094
_cell_length_c 18.141181
_cell_angle_alpha 90.000000
_cell_angle_beta 90.000000
_cell_angle_gamma 90.000000
_cell_volume 2233.844764
_symmetry_space_group_name_H-M "I B A 2"
_symmetry_group_IT_number 45
_symmetry_cell_setting 'orthorhombic'
loop_
_space_group_symop_operation_xyz
x,y,z
-x,-y,z
-x,y,1/2+z
x,-y,1/2+z
1/2+x,1/2+y,1/2+z
1/2-x,1/2-y,1/2+z
1/2-x,1/2+y,z
1/2+x,1/2-y,z
loop_
_atom_site_type_symbol
_atom_site_label
_atom_site_fract_x
_atom_site_fract_y
_atom_site_fract_z
Si Si1 0.666586 0.246195 0.895810
Si Si2 0.609660 0.251580 0.346254
Si Si3 0.622887 0.906725 0.678656
Si Si4 0.500000 0.000000 0.199230
Si Si5 0.214457 0.725141 0.238462
Si Si6 0.000000 0.000000 0.301418
Si Si7 0.712629 0.837754 0.558089
O O1 0.648931 0.547217 0.888439
O O2 0.706766 0.203498 0.826343
O O3 0.617294 0.038104 0.878390
O O4 0.691941 0.187104 0.974325
O O5 0.623953 0.240721 0.258333
O O6 0.549463 0.380825 0.349021
O O7 0.660637 0.796391 0.613176
O O8 0.557976 0.935271 0.658945
O O9 0.655004 0.175062 0.700962
O O10 0.484576 0.252480 0.249509
O O11 0.255242 0.489031 0.218682
O O12 0.760495 0.622827 0.568200
#
# Coordination Sequence:
#
# PCOD9376164 Si02
#       7
#     8   8   8   4   8   4   8
#     4  11  22  39  59  88 126 161 199 249 317 369
#     4  10  21  38  64  90 121 160 205 257 299 369
#     4  10  23  41  63  92 122 161 212 254 305 362
#     4  10  22  38  62  90 126 162 200 262 314 360
#     4  11  20  33  57  86 115 148 193 246 294 357
#     4  10  18  36  62  94 120 156 208 256 312 354
#     4  12  26  43  63  90 129 169 205 255 312 370
#
# _framework density 21.487615000000002
#
# number of rings (size 3 to 8) (size 9 to 14) (size 15 to 20)
#    0.000    1.333    0.000    8.000    0.000    6.667 
#    0.000    1.667    0.000    1.000    0.000    0.000 
#    0.000    0.000    0.000    0.000    0.000    0.000 
#
# Total GULP energy -134146.828742 kJ/mol
# GULP energy per Si atom -5589.451198 kJ/mol
# Density = 2.143871 g / cm^3
# Si number density = 21.487615 Si / 1000 Ang^3
#
#
#
# Elastic Constant Matrix: (Units=GPa)
#
#
# Indices 1 2 3 4 5 6 
#
# 1 118.2027 1.4180 29.7906 0.0000 0.0000 0.0000
# 2 1.4180 71.7616 -1.7166 0.0000 0.0000 0.0000
# 3 29.7906 -1.7166 105.2295 0.0000 0.0000 0.0000
# 4 0.0000 0.0000 0.0000 19.6143 0.0000 0.0000
# 5 0.0000 0.0000 0.0000 0.0000 23.2689 0.0000
# 6 0.0000 0.0000 0.0000 0.0000 0.0000 27.1342
#
#
#
# Elastic Compliance Matrix: (Units=1/GPa)
#
#
# Indices 1 2 3 4 5 6 
#
# 1 0.009114 -0.000242 -0.002584 0.000000 0.000000 0.000000
# 2 -0.000242 0.013947 0.000296 0.000000 0.000000 0.000000
# 3 -0.002584 0.000296 0.010239 0.000000 0.000000 0.000000
# 4 0.000000 0.000000 0.000000 0.050983 0.000000 0.000000
# 5 0.000000 0.000000 0.000000 0.000000 0.042976 0.000000
# 6 0.000000 0.000000 0.000000 0.000000 0.000000 0.036854
#
#
# Mechanical properties :
#
#
# Convention : Reuss Voigt Hill
#
# Bulk Modulus (GPa) = 35.41027 39.35306 37.38166
# Shear Modulus (GPa) = 27.99751 31.71692 29.85722
#
# Velocity S-wave (km/s) = 3.61357 3.84612 3.73165
# Velocity P-wave (km/s) = 5.82458 6.17070 6.00013
#
# Compressibility (1/GPa) = 0.02824039
#
# Stress axis : x y z
#
# Youngs Moduli (GPa) = 109.71841 71.70052 97.66148
#
# Poissons Ratio (x) = 0.01734 0.25238
# Poissons Ratio (y) = 0.02654 -0.02891
# Poissons Ratio (z) = 0.28353 -0.02122
#
# Static dielectric constant tensor:
#      x y z
#    x 1.827190 0.000000 0.000000 
#    y 0.000000 1.805360 0.000000 
#    z 0.000000 0.000000 1.775410 
# 
# From -- ./inp_files/8494.got.cif
#   From: 2010.05.17/outbox.cif.g08.bks.cpg/sg45_5_cif.got.tgz:8494.got - 2010.06.03 19:51:22.
