data_PCOD9376286
_publ_section_title
;
Structure prediction by ZEFSAII (Michael W. Deem and Ramdas Pophale) SiO2 
 PCOD9376286
Probable space group: I B A 2
;
_chemical_formula_sum "Si O2"
_cell_formula_units_Z 56
_cell_length_a 14.457417
_cell_length_b 7.838703
_cell_length_c 22.252283
_cell_angle_alpha 90.000000
_cell_angle_beta 90.000000
_cell_angle_gamma 90.000000
_cell_volume 2521.793332
_symmetry_space_group_name_H-M "I B A 2"
_symmetry_group_IT_number 45
_symmetry_cell_setting 'orthorhombic'
loop_
_space_group_symop_operation_xyz
x,y,z
-x,-y,z
-x,y,1/2+z
x,-y,1/2+z
1/2+x,1/2+y,1/2+z
1/2-x,1/2-y,1/2+z
1/2-x,1/2+y,z
1/2+x,1/2-y,z
loop_
_atom_site_type_symbol
_atom_site_label
_atom_site_fract_x
_atom_site_fract_y
_atom_site_fract_z
Si Si1 0.631862 0.386230 0.393380
Si Si2 0.000000 0.000000 0.095798
Si Si3 0.500000 0.500000 0.290735
Si Si4 0.155949 0.262937 0.764812
Si Si5 0.836156 0.238657 0.128901
Si Si6 0.308298 0.938673 0.346114
Si Si7 0.125082 0.853232 0.497122
Si Si8 0.306034 0.035023 0.547658
O O1 0.571751 0.405236 0.333804
O O2 0.640634 0.181543 0.394904
O O3 0.735799 0.447094 0.382067
O O4 0.597092 0.526642 0.441362
O O5 0.919496 0.101924 0.129458
O O6 0.052943 0.125538 0.050822
O O7 0.566239 0.640316 0.260821
O O8 0.184282 0.300605 0.696265
O O9 0.240976 0.168735 0.799958
O O10 0.134605 0.431490 0.804203
O O11 0.746045 0.151974 0.098152
O O12 0.862740 0.394137 0.084531
O O13 0.143775 0.651998 0.498300
O O14 0.221741 0.938011 0.516238
#
# Coordination Sequence:
#
# PCOD9376286 Si02
#       8
#     8   4   4   8   8   8   8   8
#     4  10  19  36  56  78 109 144 184 244 296 342
#     4  10  22  34  52  82 114 152 196 230 286 356
#     4  10  22  34  52  82 114 152 196 230 286 356
#     4  10  19  36  56  82 118 154 190 241 289 341
#     4  10  19  36  56  82 118 154 190 241 289 341
#     4   9  20  34  57  84 106 145 202 236 284 357
#     4  10  19  36  56  78 109 144 184 244 296 342
#     4   9  20  34  57  84 106 145 202 236 284 357
#
# _framework density 22.206419
#
# number of rings (size 3 to 8) (size 9 to 14) (size 15 to 20)
#    0.000    2.286    0.000    2.571    0.000    1.143 
#    0.000    5.714    0.000   10.286    0.000    0.000 
#    0.000    0.000    0.000    0.000    0.000    0.000 
#
# Total GULP energy -155907.393853 kJ/mol
# GULP energy per Si atom -5568.121209 kJ/mol
# Density = 2.215588 g / cm^3
# Si number density = 22.206419 Si / 1000 Ang^3
#
#
#
# Elastic Constant Matrix: (Units=GPa)
#
#
# Indices 1 2 3 4 5 6 
#
# 1 27.1386 2.2262 -7.6606 0.0000 0.0000 0.0000
# 2 2.2262 88.9763 9.4164 0.0000 0.0000 0.0000
# 3 -7.6606 9.4164 71.2686 0.0000 0.0000 0.0000
# 4 0.0000 0.0000 0.0000 19.5143 0.0000 0.0000
# 5 0.0000 0.0000 0.0000 0.0000 -32.6619 0.0000
# 6 0.0000 0.0000 0.0000 0.0000 0.0000 14.8384
#
#
#
# Elastic Compliance Matrix: (Units=1/GPa)
#
#
# Indices 1 2 3 4 5 6 
#
# 1 0.038174 -0.001409 0.004289 0.000000 0.000000 0.000000
# 2 -0.001409 0.011450 -0.001664 0.000000 0.000000 0.000000
# 3 0.004289 -0.001664 0.014712 0.000000 0.000000 0.000000
# 4 0.000000 0.000000 0.000000 0.051244 0.000000 0.000000
# 5 0.000000 0.000000 0.000000 0.000000 -0.030617 0.000000
# 6 0.000000 0.000000 0.000000 0.000000 0.000000 0.067393
#
#
# Mechanical properties :
#
#
# Convention : Reuss Voigt Hill
#
# Bulk Modulus (GPa) = 14.97698 21.70529 18.34113
# Shear Modulus (GPa) = 29.03906 12.56493 20.80199
#
# Velocity S-wave (km/s) = 3.62012 2.38129 3.06397
# Velocity P-wave (km/s) = 4.92268 4.16608 4.56010
#
# Compressibility (1/GPa) = 0.06676915
#
# Stress axis : x y z
#
# Youngs Moduli (GPa) = 26.19562 87.33365 67.96993
#
# Poissons Ratio (x) = 0.12306 -0.29156
# Poissons Ratio (y) = 0.03691 0.11312
# Poissons Ratio (z) = -0.11237 0.14535
#
# Static dielectric constant tensor:
#      x y z
#    x 1.827390 0.000000 0.000000 
#    y 0.000000 2.271280 0.000000 
#    z 0.000000 0.000000 1.853990 
# 
# From -- ./inp_files/9197.got.cif
#   From: 2010.05.17/outbox.cif.g08.bks.cpg/sg45_5_cif.got.tgz:9197.got - 2010.06.03 19:51:22.
