data_PCOD9376629
_publ_section_title
;
Structure prediction by ZEFSAII (Michael W. Deem and Ramdas Pophale) SiO2 
 PCOD9376629
Probable space group: I B A 2
;
_chemical_formula_sum "Si O2"
_cell_formula_units_Z 40
_cell_length_a 18.749808
_cell_length_b 9.731968
_cell_length_c 8.350855
_cell_angle_alpha 90.000000
_cell_angle_beta 90.000000
_cell_angle_gamma 90.000000
_cell_volume 1523.801652
_symmetry_space_group_name_H-M "I B A 2"
_symmetry_group_IT_number 45
_symmetry_cell_setting 'orthorhombic'
loop_
_space_group_symop_operation_xyz
x,y,z
-x,-y,z
-x,y,1/2+z
x,-y,1/2+z
1/2+x,1/2+y,1/2+z
1/2-x,1/2-y,1/2+z
1/2-x,1/2+y,z
1/2+x,1/2-y,z
loop_
_atom_site_type_symbol
_atom_site_label
_atom_site_fract_x
_atom_site_fract_y
_atom_site_fract_z
Si Si1 0.306504 0.679337 0.945230
Si Si2 0.097406 0.359115 0.136839
Si Si3 0.500000 0.500000 0.931017
Si Si4 0.406766 0.356618 0.189171
Si Si5 0.000000 0.500000 0.377034
Si Si6 0.187644 0.605672 0.190885
O O1 0.337585 0.594037 0.793632
O O2 0.286257 0.822781 0.855041
O O3 0.369640 0.718539 0.071287
O O4 0.242886 0.623155 0.048329
O O5 0.037699 0.383425 0.269885
O O6 0.163039 0.450212 0.200492
O O7 0.060939 0.430386 0.983318
O O8 0.530851 0.382989 0.816066
O O9 0.436659 0.434456 0.036133
O O10 0.382341 0.201345 0.152035
#
# Coordination Sequence:
#
# PCOD9376629 Si02
#       6
#     8   8   4   8   4   8
#     4  10  24  44  62  98 131 172 221 268 325 395
#     4  11  22  43  64  95 130 175 214 274 334 379
#     4  10  20  48  76  94 136 166 224 280 340 384
#     4   9  23  43  65 103 126 176 215 273 330 393
#     4  10  22  36  66  90 124 170 214 260 324 390
#     4  10  24  44  62  98 131 172 221 268 325 395
#
# _framework density 26.250136000000001
#
# number of rings (size 3 to 8) (size 9 to 14) (size 15 to 20)
#    1.200    0.800    2.000    0.000    2.800    8.000 
#   14.400    0.000    0.000    0.000    0.000    0.000 
#    0.000    0.000    0.000    0.000    0.000    0.000 
#
# Total GULP energy -111815.776857 kJ/mol
# GULP energy per Si atom -5590.788843 kJ/mol
# Density = 2.619039 g / cm^3
# Si number density = 26.250136 Si / 1000 Ang^3
#
#
#
# Elastic Constant Matrix: (Units=GPa)
#
#
# Indices 1 2 3 4 5 6 
#
# 1 103.5443 25.1178 39.3731 0.0000 0.0000 0.0000
# 2 25.1178 72.8225 15.9697 0.0000 0.0000 0.0000
# 3 39.3731 15.9697 99.0931 0.0000 0.0000 0.0000
# 4 0.0000 0.0000 0.0000 29.9687 0.0000 0.0000
# 5 0.0000 0.0000 0.0000 0.0000 37.3217 0.0000
# 6 0.0000 0.0000 0.0000 0.0000 0.0000 34.5720
#
#
#
# Elastic Compliance Matrix: (Units=1/GPa)
#
#
# Indices 1 2 3 4 5 6 
#
# 1 0.012065 -0.003224 -0.004274 0.000000 0.000000 0.000000
# 2 -0.003224 0.015097 -0.001152 0.000000 0.000000 0.000000
# 3 -0.004274 -0.001152 0.011975 0.000000 0.000000 0.000000
# 4 0.000000 0.000000 0.000000 0.033368 0.000000 0.000000
# 5 0.000000 0.000000 0.000000 0.000000 0.026794 0.000000
# 6 0.000000 0.000000 0.000000 0.000000 0.000000 0.028925
#
#
# Mechanical properties :
#
#
# Convention : Reuss Voigt Hill
#
# Bulk Modulus (GPa) = 45.79461 48.48680 47.14071
# Shear Modulus (GPa) = 32.72163 33.37245 33.04704
#
# Velocity S-wave (km/s) = 3.53446 3.56943 3.55199
# Velocity P-wave (km/s) = 5.84293 5.95810 5.90080
#
# Compressibility (1/GPa) = 0.02183663
#
# Stress axis : x y z
#
# Youngs Moduli (GPa) = 82.88347 66.23968 83.50401
#
# Poissons Ratio (x) = 0.21357 0.35692
# Poissons Ratio (y) = 0.26723 0.09619
# Poissons Ratio (z) = 0.35427 0.07630
#
# Static dielectric constant tensor:
#      x y z
#    x 2.082950 0.000000 0.000000 
#    y 0.000000 2.052480 0.000000 
#    z 0.000000 0.000000 2.033850 
# 
# From -- ./inp_files/1643.got.cif
#   From: 2010.05.17/outbox.cif.g08.bks.cpg/sg45_1_cif.got.tgz:1643.got - 2010.06.03 19:51:22.
