data_PCOD9376993
_publ_section_title
;
Structure prediction by ZEFSAII (Michael W. Deem and Ramdas Pophale) SiO2 
 PCOD9376993
Probable space group: I B A 2
;
_chemical_formula_sum "Si O2"
_cell_formula_units_Z 60
_cell_length_a 8.519667
_cell_length_b 15.134306
_cell_length_c 21.911028
_cell_angle_alpha 90.000000
_cell_angle_beta 90.000000
_cell_angle_gamma 90.000000
_cell_volume 2825.191460
_symmetry_space_group_name_H-M "I B A 2"
_symmetry_group_IT_number 45
_symmetry_cell_setting 'orthorhombic'
loop_
_space_group_symop_operation_xyz
x,y,z
-x,-y,z
-x,y,1/2+z
x,-y,1/2+z
1/2+x,1/2+y,1/2+z
1/2-x,1/2-y,1/2+z
1/2-x,1/2+y,z
1/2+x,1/2-y,z
loop_
_atom_site_type_symbol
_atom_site_label
_atom_site_fract_x
_atom_site_fract_y
_atom_site_fract_z
Si Si1 0.387379 0.362735 0.017800
Si Si2 0.138063 0.307193 0.263865
Si Si3 0.586452 0.786990 0.473659
Si Si4 0.150897 0.959714 0.892731
Si Si5 0.321234 0.020695 0.689720
Si Si6 0.698975 0.146006 0.400373
Si Si7 0.212413 0.365406 0.782359
Si Si8 0.500000 0.500000 0.615219
O O1 0.469878 0.268402 0.015815
O O2 0.200480 0.347178 0.014476
O O3 0.465335 0.417754 0.071008
O O4 0.412357 0.412608 0.953323
O O5 0.185059 0.377466 0.211930
O O6 0.216841 0.331670 0.328854
O O7 0.172878 0.205025 0.250825
O O8 0.955697 0.320473 0.277443
O O9 0.475741 0.837875 0.426052
O O10 0.691172 0.714349 0.437537
O O11 0.230237 0.887451 0.850066
O O12 0.258292 0.043285 0.908625
O O13 0.000000 0.000000 0.858538
O O14 0.165405 0.994866 0.651692
O O15 0.500000 0.000000 0.664964
O O16 0.306575 0.959099 0.749433
#
# Coordination Sequence:
#
# PCOD9376993 Si02
#       8
#     8   8   8   8   8   8   8   4
#     4  11  23  46  65  99 132 177 232 288 352 428
#     4  11  23  41  66 101 137 179 219 285 347 430
#     4  10  22  40  65 100 138 174 227 284 348 432
#     4  12  23  37  66 100 143 185 225 285 360 439
#     4  10  26  50  68 100 138 180 244 296 349 427
#     4  11  20  37  63 100 144 177 215 273 352 430
#     4  11  25  41  68 102 138 173 229 281 362 432
#     4  12  26  52  72  90 136 188 240 302 358 410
#
# _framework density 21.237497999999999
#
# number of rings (size 3 to 8) (size 9 to 14) (size 15 to 20)
#    0.000    1.067    3.333    3.200    4.667    1.600 
#    9.600    0.000    0.000    0.000    0.000    0.000 
#    0.000    0.000    0.000    0.000    0.000    0.000 
#
# Total GULP energy -167512.112005 kJ/mol
# GULP energy per Si atom -5583.737067 kJ/mol
# Density = 2.118916 g / cm^3
# Si number density = 21.237498 Si / 1000 Ang^3
#
#
#
# Elastic Constant Matrix: (Units=GPa)
#
#
# Indices 1 2 3 4 5 6 
#
# 1 132.6633 42.3027 40.6137 0.0000 0.0000 0.0000
# 2 42.3027 98.5486 4.8458 0.0000 0.0000 0.0000
# 3 40.6137 4.8458 46.3694 0.0000 0.0000 0.0000
# 4 0.0000 0.0000 0.0000 9.0253 0.0000 0.0000
# 5 0.0000 0.0000 0.0000 0.0000 22.9716 0.0000
# 6 0.0000 0.0000 0.0000 0.0000 0.0000 38.2714
#
#
#
# Elastic Compliance Matrix: (Units=1/GPa)
#
#
# Indices 1 2 3 4 5 6 
#
# 1 0.012148 -0.004716 -0.010147 0.000000 0.000000 0.000000
# 2 -0.004716 0.012030 0.002873 0.000000 0.000000 0.000000
# 3 -0.010147 0.002873 0.030154 0.000000 0.000000 0.000000
# 4 0.000000 0.000000 0.000000 0.110800 0.000000 0.000000
# 5 0.000000 0.000000 0.000000 0.000000 0.043532 0.000000
# 6 0.000000 0.000000 0.000000 0.000000 0.000000 0.026129
#
#
# Mechanical properties :
#
#
# Convention : Reuss Voigt Hill
#
# Bulk Modulus (GPa) = 32.94678 50.34508 41.64593
# Shear Modulus (GPa) = 18.59493 26.70825 22.65159
#
# Velocity S-wave (km/s) = 2.96221 3.55011 3.26940
# Velocity P-wave (km/s) = 5.21985 6.36880 5.82273
#
# Compressibility (1/GPa) = 0.03035198
#
# Stress axis : x y z
#
# Youngs Moduli (GPa) = 82.31717 83.12379 33.16363
#
# Poissons Ratio (x) = 0.39199 0.33652
# Poissons Ratio (y) = 0.38818 -0.09528
# Poissons Ratio (z) = 0.83531 -0.23883
#
# Static dielectric constant tensor:
#      x y z
#    x 1.851770 0.000000 0.000000 
#    y 0.000000 1.789200 0.000000 
#    z 0.000000 0.000000 1.765320 
# 
# From -- ./inp_files/9574.got.cif
#   From: 2010.05.17/outbox.cif.g08.bks.cpg/sg45_5_cif.got.tgz:9574.got - 2010.06.03 19:51:22.
