data_PCOD9376835
_publ_section_title
;
Structure prediction by ZEFSAII (Michael W. Deem and Ramdas Pophale) SiO2 
 PCOD9376835
Probable space group: I B A 2
;
_chemical_formula_sum "Si O2"
_cell_formula_units_Z 56
_cell_length_a 12.694240
_cell_length_b 14.201877
_cell_length_c 14.683466
_cell_angle_alpha 90.000000
_cell_angle_beta 90.000000
_cell_angle_gamma 90.000000
_cell_volume 2647.165133
_symmetry_space_group_name_H-M "I B A 2"
_symmetry_group_IT_number 45
_symmetry_cell_setting 'orthorhombic'
loop_
_space_group_symop_operation_xyz
x,y,z
-x,-y,z
-x,y,1/2+z
x,-y,1/2+z
1/2+x,1/2+y,1/2+z
1/2-x,1/2-y,1/2+z
1/2-x,1/2+y,z
1/2+x,1/2-y,z
loop_
_atom_site_type_symbol
_atom_site_label
_atom_site_fract_x
_atom_site_fract_y
_atom_site_fract_z
Si Si1 0.218330 0.423613 0.141570
Si Si2 0.476160 0.722372 0.882712
Si Si3 0.193308 0.269686 0.995077
Si Si4 0.015544 0.611901 0.749317
Si Si5 0.298950 0.356719 0.824619
Si Si6 0.813581 0.643433 0.635364
Si Si7 0.386837 0.449561 0.277500
O O1 0.200665 0.362771 0.053780
O O2 0.135066 0.383371 0.214913
O O3 0.196942 0.532093 0.120529
O O4 0.334612 0.419196 0.182891
O O5 0.491065 0.824243 0.836095
O O6 0.589494 0.676911 0.863639
O O7 0.401454 0.644305 0.835173
O O8 0.425735 0.731714 0.982809
O O9 0.272542 0.198678 0.046859
O O10 0.222074 0.304559 0.893954
O O11 0.000000 0.500000 0.764616
O O12 0.933115 0.651418 0.673216
O O13 0.263350 0.331914 0.721447
O O14 0.309272 0.471064 0.821165
O O15 0.500000 0.500000 0.265310
#
# Coordination Sequence:
#
# PCOD9376835 Si02
#       7
#     8   8   8   8   8   8   8
#     4  10  23  41  66  95 130 176 221 283 339 408
#     4  11  23  40  66  99 128 178 226 281 340 411
#     4  12  25  39  66 102 132 176 229 284 339 419
#     4  10  21  41  67  94 133 178 222 271 345 410
#     4  10  23  45  66  95 132 176 228 286 347 411
#     4  10  22  45  65  94 136 179 224 282 348 414
#     4   9  21  45  71  91 130 179 230 281 345 407
#
# _framework density 21.154706999999998
#
# number of rings (size 3 to 8) (size 9 to 14) (size 15 to 20)
#    0.000    1.714    1.429    1.714    6.000    0.000 
#   10.286    0.000    0.000    0.000    0.000    0.000 
#    0.000    0.000    0.000    0.000    0.000    0.000 
#
# Total GULP energy -156078.062944 kJ/mol
# GULP energy per Si atom -5574.216534 kJ/mol
# Density = 2.110656 g / cm^3
# Si number density = 21.154707 Si / 1000 Ang^3
#
#
#
# Elastic Constant Matrix: (Units=GPa)
#
#
# Indices 1 2 3 4 5 6 
#
# 1 65.4481 29.9537 17.3445 0.0000 0.0000 0.0000
# 2 29.9537 68.3420 37.0510 0.0000 0.0000 0.0000
# 3 17.3445 37.0510 51.4311 0.0000 0.0000 0.0000
# 4 0.0000 0.0000 0.0000 -6.4597 0.0000 0.0000
# 5 0.0000 0.0000 0.0000 0.0000 27.7782 0.0000
# 6 0.0000 0.0000 0.0000 0.0000 0.0000 30.3450
#
#
#
# Elastic Compliance Matrix: (Units=1/GPa)
#
#
# Indices 1 2 3 4 5 6 
#
# 1 0.019128 -0.008018 -0.000675 0.000000 0.000000 0.000000
# 2 -0.008018 0.027370 -0.017014 0.000000 0.000000 0.000000
# 3 -0.000675 -0.017014 0.031928 0.000000 0.000000 0.000000
# 4 0.000000 0.000000 0.000000 -0.154806 0.000000 0.000000
# 5 0.000000 0.000000 0.000000 0.000000 0.035999 0.000000
# 6 0.000000 0.000000 0.000000 0.000000 0.000000 0.032954
#
#
# Mechanical properties :
#
#
# Convention : Reuss Voigt Hill
#
# Bulk Modulus (GPa) = 37.01853 39.32442 38.17147
# Shear Modulus (GPa) = 94.35878 17.05752 55.70815
#
# Velocity S-wave (km/s) = 6.68588 2.84266 5.13720
# Velocity P-wave (km/s) = 8.78284 5.42251 7.29869
#
# Compressibility (1/GPa) = 0.02701350
#
# Stress axis : x y z
#
# Youngs Moduli (GPa) = 52.28071 36.53608 31.32088
#
# Poissons Ratio (x) = 0.29294 0.02113
# Poissons Ratio (y) = 0.41917 0.53288
# Poissons Ratio (z) = 0.03526 0.62161
#
# Static dielectric constant tensor:
#      x y z
#    x 1.862300 0.000000 0.000000 
#    y 0.000000 1.841230 0.000000 
#    z 0.000000 0.000000 1.761620 
# 
# From -- ./inp_files/6170.got.cif
#   From: 2010.05.17/outbox.cif.g08.bks.cpg/sg45_4_cif.got.tgz:6170.got - 2010.06.03 19:51:22.
