data_PCOD9376884
_publ_section_title
;
Structure prediction by ZEFSAII (Michael W. Deem and Ramdas Pophale) SiO2 
 PCOD9376884
Probable space group: I B A 2
;
_chemical_formula_sum "Si O2"
_cell_formula_units_Z 48
_cell_length_a 22.810758
_cell_length_b 8.140793
_cell_length_c 11.780993
_cell_angle_alpha 90.000000
_cell_angle_beta 90.000000
_cell_angle_gamma 90.000000
_cell_volume 2187.702821
_symmetry_space_group_name_H-M "I B A 2"
_symmetry_group_IT_number 45
_symmetry_cell_setting 'orthorhombic'
loop_
_space_group_symop_operation_xyz
x,y,z
-x,-y,z
-x,y,1/2+z
x,-y,1/2+z
1/2+x,1/2+y,1/2+z
1/2-x,1/2-y,1/2+z
1/2-x,1/2+y,z
1/2+x,1/2-y,z
loop_
_atom_site_type_symbol
_atom_site_label
_atom_site_fract_x
_atom_site_fract_y
_atom_site_fract_z
Si Si1 0.255718 0.688151 0.712190
Si Si2 0.943167 0.881656 0.746032
Si Si3 0.560617 0.029438 0.672361
Si Si4 0.340009 0.560796 0.134165
Si Si5 0.828601 0.467865 0.322532
Si Si6 0.591197 0.786503 0.477641
O O1 0.290020 0.577906 0.620884
O O2 0.200509 0.785703 0.665673
O O3 0.226967 0.586176 0.815851
O O4 0.303946 0.808794 0.759706
O O5 0.937292 0.727998 0.656890
O O6 0.885260 0.993616 0.729071
O O7 0.941302 0.784565 0.866413
O O8 0.000000 0.000000 0.733707
O O9 0.616252 0.975096 0.746778
O O10 0.500000 0.000000 0.737823
O O11 0.557596 0.904160 0.565969
O O12 0.381622 0.625087 0.035498
O O13 0.855869 0.406789 0.438682
#
# Coordination Sequence:
#
# PCOD9376884 Si02
#       6
#     8   8   8   8   8   8
#     4  10  21  43  70  92 148 182 224 286 350 408
#     4  11  26  49  71 103 143 180 232 298 349 414
#     4  11  23  45  70 100 137 178 227 293 348 413
#     4  11  22  44  69 102 139 184 230 290 345 415
#     4  10  22  44  64 103 134 182 226 286 345 413
#     4  11  24  43  70 107 130 184 240 275 362 417
#
# _framework density 21.940821
#
# number of rings (size 3 to 8) (size 9 to 14) (size 15 to 20)
#    0.000    1.333    5.000    1.000    0.000    6.000 
#    3.000    0.000    0.000    0.000    0.000    0.000 
#    0.000    0.000    0.000    0.000    0.000    0.000 
#
# Total GULP energy -133673.604802 kJ/mol
# GULP energy per Si atom -5569.733533 kJ/mol
# Density = 2.189088 g / cm^3
# Si number density = 21.940821 Si / 1000 Ang^3
#
#
#
# Elastic Constant Matrix: (Units=GPa)
#
#
# Indices 1 2 3 4 5 6 
#
# 1 130.1827 42.4046 22.8193 0.0000 0.0000 0.0000
# 2 42.4046 76.9867 26.7448 0.0000 0.0000 0.0000
# 3 22.8193 26.7448 57.0115 0.0000 0.0000 0.0000
# 4 0.0000 0.0000 0.0000 51.5101 0.0000 0.0000
# 5 0.0000 0.0000 0.0000 0.0000 19.2699 0.0000
# 6 0.0000 0.0000 0.0000 0.0000 0.0000 70.1843
#
#
#
# Elastic Compliance Matrix: (Units=1/GPa)
#
#
# Indices 1 2 3 4 5 6 
#
# 1 0.009483 -0.004665 -0.001607 0.000000 0.000000 0.000000
# 2 -0.004665 0.017813 -0.006489 0.000000 0.000000 0.000000
# 3 -0.001607 -0.006489 0.021228 0.000000 0.000000 0.000000
# 4 0.000000 0.000000 0.000000 0.019414 0.000000 0.000000
# 5 0.000000 0.000000 0.000000 0.000000 0.051894 0.000000
# 6 0.000000 0.000000 0.000000 0.000000 0.000000 0.014248
#
#
# Mechanical properties :
#
#
# Convention : Reuss Voigt Hill
#
# Bulk Modulus (GPa) = 43.47619 49.79093 46.63356
# Shear Modulus (GPa) = 29.89197 39.67368 34.78283
#
# Velocity S-wave (km/s) = 3.69506 4.25692 3.98590
# Velocity P-wave (km/s) = 6.16951 6.84868 6.51795
#
# Compressibility (1/GPa) = 0.02300110
#
# Stress axis : x y z
#
# Youngs Moduli (GPa) = 105.45514 56.13895 47.10812
#
# Poissons Ratio (x) = 0.26188 0.07571
# Poissons Ratio (y) = 0.49193 0.30569
# Poissons Ratio (z) = 0.16949 0.36429
#
# Static dielectric constant tensor:
#      x y z
#    x 1.847720 0.000000 0.000000 
#    y 0.000000 1.865680 0.000000 
#    z 0.000000 0.000000 1.844810 
# 
# From -- ./inp_files/4764.got.cif
#   From: 2010.05.17/outbox.cif.g08.bks.cpg/sg45_3_cif.got.tgz:4764.got - 2010.06.03 19:51:22.
