data_PCOD9376895
_publ_section_title
;
Structure prediction by ZEFSAII (Michael W. Deem and Ramdas Pophale) SiO2 
 PCOD9376895
Probable space group: I B A 2
;
_chemical_formula_sum "Si O2"
_cell_formula_units_Z 48
_cell_length_a 14.233437
_cell_length_b 9.226874
_cell_length_c 16.539318
_cell_angle_alpha 90.000000
_cell_angle_beta 90.000000
_cell_angle_gamma 90.000000
_cell_volume 2172.110780
_symmetry_space_group_name_H-M "I B A 2"
_symmetry_group_IT_number 45
_symmetry_cell_setting 'orthorhombic'
loop_
_space_group_symop_operation_xyz
x,y,z
-x,-y,z
-x,y,1/2+z
x,-y,1/2+z
1/2+x,1/2+y,1/2+z
1/2-x,1/2-y,1/2+z
1/2-x,1/2+y,z
1/2+x,1/2-y,z
loop_
_atom_site_type_symbol
_atom_site_label
_atom_site_fract_x
_atom_site_fract_y
_atom_site_fract_z
Si Si1 0.500000 0.500000 0.338210
Si Si2 0.311596 0.912737 0.647635
Si Si3 0.975870 0.703352 0.433381
Si Si4 0.234402 0.596431 0.963770
Si Si5 0.500000 0.000000 0.583911
Si Si6 0.672412 0.174377 0.881833
Si Si7 0.824308 0.876349 0.737242
O O1 0.523442 0.366160 0.398024
O O2 0.416772 0.446719 0.277822
O O3 0.270765 0.934450 0.558105
O O4 0.410887 0.991768 0.641133
O O5 0.331711 0.742626 0.665044
O O6 0.245663 0.997749 0.709949
O O7 0.865920 0.660846 0.434550
O O8 0.002765 0.638760 0.522836
O O9 0.062052 0.634340 0.379258
O O10 0.319269 0.705430 0.951611
O O11 0.239100 0.454133 0.909261
O O12 0.709215 0.265059 0.806615
#
# Coordination Sequence:
#
# PCOD9376895 Si02
#       7
#     4   8   8   8   4   8   8
#     4  10  26  46  68 106 144 182 236 296 354 424
#     4  11  24  46  68 102 146 181 238 283 368 426
#     4  10  21  44  69  99 133 177 243 289 343 402
#     4  11  23  41  72  99 130 183 230 293 334 419
#     4  10  22  48  72 104 130 194 236 292 354 424
#     4  11  22  42  68  99 131 178 235 283 347 404
#     4  11  26  46  65 108 143 189 226 290 367 423
#
# _framework density 22.098320000000001
#
# number of rings (size 3 to 8) (size 9 to 14) (size 15 to 20)
#    0.000    1.333    3.333    2.000    7.000    1.333 
#   12.000    0.000    0.000    0.000    0.000    0.000 
#    0.000    0.000    0.000    0.000    0.000    0.000 
#
# Total GULP energy -133658.846542 kJ/mol
# GULP energy per Si atom -5569.118606 kJ/mol
# Density = 2.204802 g / cm^3
# Si number density = 22.098320 Si / 1000 Ang^3
#
#
#
# Elastic Constant Matrix: (Units=GPa)
#
#
# Indices 1 2 3 4 5 6 
#
# 1 96.5932 67.4587 53.7846 0.0000 0.0000 0.0000
# 2 67.4587 148.8335 51.0347 0.0000 0.0000 0.0000
# 3 53.7846 51.0347 65.8099 0.0000 0.0000 0.0000
# 4 0.0000 0.0000 0.0000 6.3267 0.0000 0.0000
# 5 0.0000 0.0000 0.0000 0.0000 31.1507 0.0000
# 6 0.0000 0.0000 0.0000 0.0000 0.0000 37.8452
#
#
#
# Elastic Compliance Matrix: (Units=1/GPa)
#
#
# Indices 1 2 3 4 5 6 
#
# 1 0.021474 -0.005061 -0.013625 0.000000 0.000000 0.000000
# 2 -0.005061 0.010346 -0.003887 0.000000 0.000000 0.000000
# 3 -0.013625 -0.003887 0.029345 0.000000 0.000000 0.000000
# 4 0.000000 0.000000 0.000000 0.158059 0.000000 0.000000
# 5 0.000000 0.000000 0.000000 0.000000 0.032102 0.000000
# 6 0.000000 0.000000 0.000000 0.000000 0.000000 0.026423
#
#
# Mechanical properties :
#
#
# Convention : Reuss Voigt Hill
#
# Bulk Modulus (GPa) = 62.42777 72.86585 67.64681
# Shear Modulus (GPa) = 15.23301 24.32843 19.78072
#
# Velocity S-wave (km/s) = 2.62836 3.32161 2.99511
# Velocity P-wave (km/s) = 6.12555 6.91056 6.52986
#
# Compressibility (1/GPa) = 0.01601851
#
# Stress axis : x y z
#
# Youngs Moduli (GPa) = 46.56804 96.66027 34.07743
#
# Poissons Ratio (x) = 0.48919 0.46432
# Poissons Ratio (y) = 0.23568 0.13245
# Poissons Ratio (z) = 0.63451 0.37568
#
# Static dielectric constant tensor:
#      x y z
#    x 1.832600 0.000000 0.000000 
#    y 0.000000 1.897410 0.000000 
#    z 0.000000 0.000000 1.885840 
# 
# From -- ./inp_files/8158.got.cif
#   From: 2010.05.17/outbox.cif.g08.bks.cpg/sg45_5_cif.got.tgz:8158.got - 2010.06.03 19:51:22.
