data_PCOD9376979
_publ_section_title
;
Structure prediction by ZEFSAII (Michael W. Deem and Ramdas Pophale) SiO2 
 PCOD9376979
Probable space group: I B A 2
;
_chemical_formula_sum "Si O2"
_cell_formula_units_Z 44
_cell_length_a 26.047370
_cell_length_b 9.505920
_cell_length_c 8.789638
_cell_angle_alpha 90.000000
_cell_angle_beta 90.000000
_cell_angle_gamma 90.000000
_cell_volume 2176.351421
_symmetry_space_group_name_H-M "I B A 2"
_symmetry_group_IT_number 45
_symmetry_cell_setting 'orthorhombic'
loop_
_space_group_symop_operation_xyz
x,y,z
-x,-y,z
-x,y,1/2+z
x,-y,1/2+z
1/2+x,1/2+y,1/2+z
1/2-x,1/2-y,1/2+z
1/2-x,1/2+y,z
1/2+x,1/2-y,z
loop_
_atom_site_type_symbol
_atom_site_label
_atom_site_fract_x
_atom_site_fract_y
_atom_site_fract_z
Si Si1 0.729636 0.089318 0.092920
Si Si2 0.328447 0.883136 0.401281
Si Si3 0.428138 0.620154 0.058447
Si Si4 0.349842 0.635812 0.594378
Si Si5 0.500000 0.500000 0.802402
Si Si6 0.143245 0.315825 0.898648
O O1 0.707847 0.132640 0.256123
O O2 0.790334 0.090769 0.088738
O O3 0.701092 0.186731 0.967923
O O4 0.706446 0.937081 0.044212
O O5 0.356698 0.743642 0.454023
O O6 0.364149 0.018321 0.367533
O O7 0.386566 0.496589 0.080844
O O8 0.467641 0.606357 0.197016
O O9 0.461236 0.584162 0.909425
O O10 0.396021 0.760177 0.025454
O O11 0.360106 0.719832 0.750443
#
# Coordination Sequence:
#
# PCOD9376979 Si02
#       6
#     8   8   8   8   4   8
#     4  10  23  34  61  89 139 168 212 245 309 382
#     4  10  22  40  57  89 136 172 205 261 299 386
#     4  11  24  41  71  91 122 163 221 272 335 373
#     4  12  23  38  64  94 127 179 215 254 322 391
#     4  10  24  46  62  96 120 158 218 294 320 378
#     4  10  22  41  58  94 125 173 203 265 317 389
#
# _framework density 20.217324000000001
#
# number of rings (size 3 to 8) (size 9 to 14) (size 15 to 20)
#    1.091    0.364    3.636    1.091    7.636    0.000 
#    0.000    0.000    0.000    6.545    0.000    0.000 
#    0.000    0.000    0.000    0.000    0.000    0.000 
#
# Total GULP energy -122805.676899 kJ/mol
# GULP energy per Si atom -5582.076223 kJ/mol
# Density = 2.017131 g / cm^3
# Si number density = 20.217324 Si / 1000 Ang^3
#
#
#
# Elastic Constant Matrix: (Units=GPa)
#
#
# Indices 1 2 3 4 5 6 
#
# 1 86.7825 20.2809 21.9774 0.0000 0.0000 0.0000
# 2 20.2809 55.6429 2.1682 0.0000 0.0000 0.0000
# 3 21.9774 2.1682 79.7752 0.0000 0.0000 0.0000
# 4 0.0000 0.0000 0.0000 17.8504 0.0000 0.0000
# 5 0.0000 0.0000 0.0000 0.0000 32.8233 0.0000
# 6 0.0000 0.0000 0.0000 0.0000 0.0000 13.0839
#
#
#
# Elastic Compliance Matrix: (Units=1/GPa)
#
#
# Indices 1 2 3 4 5 6 
#
# 1 0.013558 -0.004801 -0.003605 0.000000 0.000000 0.000000
# 2 -0.004801 0.019691 0.000788 0.000000 0.000000 0.000000
# 3 -0.003605 0.000788 0.013507 0.000000 0.000000 0.000000
# 4 0.000000 0.000000 0.000000 0.056021 0.000000 0.000000
# 5 0.000000 0.000000 0.000000 0.000000 0.030466 0.000000
# 6 0.000000 0.000000 0.000000 0.000000 0.000000 0.076430
#
#
# Mechanical properties :
#
#
# Convention : Reuss Voigt Hill
#
# Bulk Modulus (GPa) = 31.72665 34.56151 33.14408
# Shear Modulus (GPa) = 21.23903 24.60313 22.92108
#
# Velocity S-wave (km/s) = 3.24471 3.49224 3.37075
# Velocity P-wave (km/s) = 5.45568 5.77868 5.61950
#
# Compressibility (1/GPa) = 0.03151925
#
# Stress axis : x y z
#
# Youngs Moduli (GPa) = 73.75754 50.78460 74.03639
#
# Poissons Ratio (x) = 0.24383 0.26687
# Poissons Ratio (y) = 0.35412 -0.05830
# Poissons Ratio (z) = 0.26587 -0.03999
#
# Static dielectric constant tensor:
#      x y z
#    x 1.692820 0.000000 0.000000 
#    y 0.000000 1.748410 0.000000 
#    z 0.000000 0.000000 1.753860 
# 
# From -- ./inp_files/2479.got.cif
#   From: 2010.05.17/outbox.cif.g08.bks.cpg/sg45_2_cif.got.tgz:2479.got - 2010.06.03 19:51:22.
