data_PCOD9376004
_publ_section_title
;
Structure prediction by ZEFSAII (Michael W. Deem and Ramdas Pophale) SiO2 
 PCOD9376004
Probable space group: I M M 2
;
_chemical_formula_sum "Si O2"
_cell_formula_units_Z 24
_cell_length_a 9.000000
_cell_length_b 18.000000
_cell_length_c 15.000000
_cell_angle_alpha 90.000000
_cell_angle_beta 90.000000
_cell_angle_gamma 90.000000
_cell_volume 2430.000000
_symmetry_space_group_name_H-M "I M M 2"
_symmetry_group_IT_number 44
_symmetry_cell_setting 'orthorhombic'
loop_
_space_group_symop_operation_xyz
x,y,z
-x,-y,z
-x,y,z
x,-y,z
1/2+x,1/2+y,1/2+z
1/2-x,1/2-y,1/2+z
1/2-x,1/2+y,1/2+z
1/2+x,1/2-y,1/2+z
loop_
_atom_site_type_symbol
_atom_site_label
_atom_site_fract_x
_atom_site_fract_y
_atom_site_fract_z
Si Si1 0.321101 0.346258 0.266510
Si Si2 0.673896 0.916552 0.186169
Si Si3 0.329398 0.500000 0.023502
Si Si4 0.821947 0.767660 0.122401
Si Si5 0.327534 0.227672 0.930522
Si Si6 0.166712 0.107940 0.362247
Si Si7 0.176162 0.500000 0.206174
O O1 0.500000 0.344227 0.261716
O O2 0.253377 0.287933 0.194194
O O3 0.263350 0.326166 0.365479
O O4 0.255201 0.426542 0.243116
O O5 0.500000 0.899374 0.171834
O O6 0.776304 0.851881 0.147386
O O7 0.712139 0.916046 0.291160
O O8 0.703187 0.000000 0.151901
O O9 0.500000 0.500000 0.059156
O O10 0.211008 0.500000 0.100906
O O11 0.313125 0.430407 0.957619
O O12 0.000000 0.757818 0.123647
O O13 0.752746 0.757178 0.024214
O O14 0.500000 0.204217 0.944279
O O15 0.330358 0.304769 0.876690
O O16 0.000000 0.087002 0.330515
O O17 0.000000 0.500000 0.223654
#
# Coordination Sequence:
#
# PCOD9376004 Si02
#       7
#     8   8   4   8   8   8   4
#     4  12  25  45  70  97 133 174 219 273 331 392
#     4  11  23  39  62  93 130 169 212 264 324 383
#     4  10  20  36  60  95 132 169 210 262 328 390
#     4  12  25  43  68  98 131 173 222 271 327 390
#     4  11  23  41  66  98 131 170 218 270 330 391
#     4  10  20  35  61  92 127 165 206 257 322 388
#     4  12  26  44  66  95 130 171 220 272 328 390
#
# _framework density 9.8765429999999999
#
# number of rings (size 3 to 8) (size 9 to 14) (size 15 to 20)
#    0.000    0.833    2.500    5.750    0.000    3.667 
#    1.500    0.000    0.000    0.000    0.000    0.000 
#    0.000    0.000    0.000    0.000    0.000    0.000 
#
# Total GULP energy -134153.859086 kJ/mol
# GULP energy per Si atom -5589.744129 kJ/mol
# Density = 0.985406 g / cm^3
# Si number density = 9.876543 Si / 1000 Ang^3
#
#
#
# Elastic Constant Matrix: (Units=GPa)
#
#
# Indices 1 2 3 4 5 6 
#
# 1 167.7705 45.4986 37.3186 0.0000 0.0000 0.0000
# 2 45.4986 100.9048 16.9844 0.0000 0.0000 0.0000
# 3 37.3186 16.9844 67.2659 0.0000 0.0000 0.0001
# 4 0.0000 0.0000 0.0000 12.0204 0.0000 0.0000
# 5 0.0000 0.0000 0.0000 0.0000 38.6379 0.0000
# 6 0.0000 0.0000 0.0001 0.0000 0.0000 -85.0995
#
#
#
# Elastic Compliance Matrix: (Units=1/GPa)
#
#
# Indices 1 2 3 4 5 6 
#
# 1 0.007485 -0.002795 -0.003447 0.000000 0.000000 0.000000
# 2 -0.002795 0.011394 -0.001326 0.000000 0.000000 0.000000
# 3 -0.003447 -0.001326 0.017114 0.000000 0.000000 0.000000
# 4 0.000000 0.000000 0.000000 0.083192 0.000000 0.000000
# 5 0.000000 0.000000 0.000000 0.000000 0.025881 0.000000
# 6 0.000000 0.000000 0.000000 0.000000 0.000000 -0.011751
#
#
# Mechanical properties :
#
#
# Convention : Reuss Voigt Hill
#
# Bulk Modulus (GPa) = 47.94745 59.50494 53.72620
# Shear Modulus (GPa) = 32.17424 8.85439 20.51432
#
# Velocity S-wave (km/s) = 4.04024 2.11950 3.22613
# Velocity P-wave (km/s) = 6.78902 6.01494 6.41367
#
# Compressibility (1/GPa) = 0.02085617
#
# Stress axis : x y z
#
# Youngs Moduli (GPa) = 133.59607 87.76677 58.43292
#
# Poissons Ratio (x) = 0.24530 0.20142
# Poissons Ratio (y) = 0.37339 0.07750
# Poissons Ratio (z) = 0.46051 0.11641
#
# Static dielectric constant tensor:
#      x y z
#    x 1.672540 0.000000 0.000000 
#    y 0.000000 1.742730 0.000000 
#    z 0.000000 0.000000 1.694720 
# 
# From -- ./inp_files/16122.got.cif
#   From: 2010.05.17/outbox.ucp.g08.bks.cvg/sg44_9_cif.got.tgz:16122.got - 2010.06.11 16:32:36.
