data_PCOD9376245
_publ_section_title
;
Structure prediction by ZEFSAII (Michael W. Deem and Ramdas Pophale) SiO2 
 PCOD9376245
Probable space group: I B A 2
;
_chemical_formula_sum "Si O2"
_cell_formula_units_Z 60
_cell_length_a 13.373523
_cell_length_b 17.296672
_cell_length_c 13.044775
_cell_angle_alpha 90.000000
_cell_angle_beta 90.000000
_cell_angle_gamma 90.000000
_cell_volume 3017.483969
_symmetry_space_group_name_H-M "I B A 2"
_symmetry_group_IT_number 45
_symmetry_cell_setting 'orthorhombic'
loop_
_space_group_symop_operation_xyz
x,y,z
-x,-y,z
-x,y,1/2+z
x,-y,1/2+z
1/2+x,1/2+y,1/2+z
1/2-x,1/2-y,1/2+z
1/2-x,1/2+y,z
1/2+x,1/2-y,z
loop_
_atom_site_type_symbol
_atom_site_label
_atom_site_fract_x
_atom_site_fract_y
_atom_site_fract_z
Si Si1 0.614441 0.021379 0.765190
Si Si2 0.680626 0.871762 0.447679
Si Si3 0.819374 0.628238 0.356137
Si Si4 0.500000 0.757748 0.901908
Si Si5 0.500000 0.500000 0.401908
Si Si6 0.393479 0.634475 0.528980
Si Si7 0.614441 0.978621 0.038626
Si Si8 0.393479 0.634475 0.774836
O O1 0.667860 0.079123 0.842893
O O2 0.500000 0.000000 0.792739
O O3 0.665683 0.938133 0.770922
O O4 0.614852 0.054647 0.651908
O O5 0.591480 0.810762 0.440297
O O6 0.789761 0.841123 0.473595
O O7 0.665683 0.938133 0.532894
O O8 0.908520 0.689238 0.363519
O O9 0.832140 0.579123 0.460924
O O10 0.710239 0.658877 0.330222
O O11 0.468792 0.702206 0.808481
O O12 0.531208 0.702206 0.995335
O O13 0.432851 0.555770 0.474321
O O14 0.567149 0.555770 0.329495
O O15 0.385466 0.627088 0.651908
O O16 0.500000 0.000000 0.011078
#
# Coordination Sequence:
#
# PCOD9376245 Si02
#       8
#     8   8   8   8   4   8   8   8
#     4  10  19  33  61  92 119 159 199 245 306 356
#     4  11  20  40  60  89 127 159 204 255 300 360
#     4  11  20  40  60  89 127 159 204 255 300 360
#     4  11  24  42  58  85 130 166 200 257 302 360
#     4  10  22  48  68  90 124 146 198 266 312 368
#     4  11  25  41  65  91 116 162 206 250 313 369
#     4  10  19  33  61  92 119 159 199 245 306 356
#     4  11  25  41  65  91 116 162 206 250 313 369
#
# _framework density 19.884115000000001
#
# number of rings (size 3 to 8) (size 9 to 14) (size 15 to 20)
#    0.000    1.333    2.667    4.400    0.000    3.200 
#    0.000    5.333    0.000    0.000    0.000    0.000 
#    0.000    0.000    0.000    0.000    0.000    0.000 
#
# Total GULP energy -167358.103667 kJ/mol
# GULP energy per Si atom -5578.603456 kJ/mol
# Density = 1.983886 g / cm^3
# Si number density = 19.884115 Si / 1000 Ang^3
#
#
#
# Elastic Constant Matrix: (Units=GPa)
#
#
# Indices 1 2 3 4 5 6 
#
# 1 95.9534 53.5367 52.9745 0.0000 0.0000 0.0000
# 2 53.5367 112.6271 44.3210 0.0000 0.0000 0.0000
# 3 52.9745 44.3210 178.4973 0.0000 0.0000 0.0000
# 4 0.0000 0.0000 0.0000 -19.0329 0.0000 0.0000
# 5 0.0000 0.0000 0.0000 0.0000 16.9154 0.0000
# 6 0.0000 0.0000 0.0000 0.0000 0.0000 18.7600
#
#
#
# Elastic Compliance Matrix: (Units=1/GPa)
#
#
# Indices 1 2 3 4 5 6 
#
# 1 0.015580 -0.006191 -0.003087 0.000000 0.000000 0.000000
# 2 -0.006191 0.012301 -0.001217 0.000000 0.000000 0.000000
# 3 -0.003087 -0.001217 0.006821 0.000000 0.000000 0.000000
# 4 0.000000 0.000000 0.000000 -0.052541 0.000000 0.000000
# 5 0.000000 0.000000 0.000000 0.000000 0.059118 0.000000
# 6 0.000000 0.000000 0.000000 0.000000 0.000000 0.053305
#
#
# Mechanical properties :
#
#
# Convention : Reuss Voigt Hill
#
# Bulk Modulus (GPa) = 72.92905 76.52692 74.72798
# Shear Modulus (GPa) = 41.61696 19.07822 30.34759
#
# Velocity S-wave (km/s) = 4.57987 3.10089 3.91093
# Velocity P-wave (km/s) = 8.04510 7.16873 7.61952
#
# Compressibility (1/GPa) = 0.01371196
#
# Stress axis : x y z
#
# Youngs Moduli (GPa) = 64.18404 81.29617 146.61677
#
# Poissons Ratio (x) = 0.50333 0.45255
# Poissons Ratio (y) = 0.39738 0.17841
# Poissons Ratio (z) = 0.19811 0.09892
#
# Static dielectric constant tensor:
#      x y z
#    x 1.836760 0.000000 0.000000 
#    y 0.000000 1.717580 0.000000 
#    z 0.000000 0.000000 1.696380 
# 
# From -- ./inp_files/6254.got.cif
#   From: 2010.05.17/outbox.cif.g08.bks.cpg/sg45_4_cif.got.tgz:6254.got - 2010.06.03 19:51:22.
