data_PCOD9376718
_publ_section_title
;
Structure prediction by ZEFSAII (Michael W. Deem and Ramdas Pophale) SiO2 
 PCOD9376718
Probable space group: I B A 2
;
_chemical_formula_sum "Si O2"
_cell_formula_units_Z 60
_cell_length_a 10.764697
_cell_length_b 28.839114
_cell_length_c 9.265784
_cell_angle_alpha 90.000000
_cell_angle_beta 90.000000
_cell_angle_gamma 90.000000
_cell_volume 2876.510050
_symmetry_space_group_name_H-M "I B A 2"
_symmetry_group_IT_number 45
_symmetry_cell_setting 'orthorhombic'
loop_
_space_group_symop_operation_xyz
x,y,z
-x,-y,z
-x,y,1/2+z
x,-y,1/2+z
1/2+x,1/2+y,1/2+z
1/2-x,1/2-y,1/2+z
1/2-x,1/2+y,z
1/2+x,1/2-y,z
loop_
_atom_site_type_symbol
_atom_site_label
_atom_site_fract_x
_atom_site_fract_y
_atom_site_fract_z
Si Si1 0.125615 0.312302 0.985080
Si Si2 0.245731 0.193045 0.017103
Si Si3 0.550046 0.150384 0.691648
Si Si4 0.842681 0.122255 0.085943
Si Si5 0.383516 0.939985 0.136746
Si Si6 0.495908 0.341413 0.354866
Si Si7 0.809206 0.758897 0.297859
Si Si8 0.500000 0.000000 0.884066
O O1 0.067868 0.346322 0.862507
O O2 0.180181 0.274000 0.876757
O O3 0.243593 0.336626 0.058583
O O4 0.025500 0.307349 0.112708
O O5 0.317405 0.154665 0.111850
O O6 0.221456 0.235084 0.130406
O O7 0.117628 0.173858 0.956581
O O8 0.328015 0.210986 0.882126
O O9 0.473785 0.104481 0.655312
O O10 0.756881 0.078774 0.125017
O O11 0.934913 0.138158 0.211652
O O12 0.920429 0.121102 0.938442
O O13 0.423656 0.966670 0.991690
O O14 0.410009 0.971776 0.276044
O O15 0.582758 0.296324 0.326965
#
# Coordination Sequence:
#
# PCOD9376718 Si02
#       8
#     8   8   8   8   8   8   8   4
#     4   9  21  37  57  87 125 164 220 272 320 379
#     4  11  25  38  61  86 124 177 220 286 326 372
#     4  10  21  38  61  95 125 166 223 259 328 387
#     4  10  22  41  66  88 128 169 222 261 313 392
#     4  10  21  41  69 104 133 166 198 270 318 419
#     4  11  23  43  61  90 125 179 230 267 328 370
#     4  10  24  41  54  86 127 170 225 283 326 373
#     4  10  22  40  70 110 140 156 194 254 358 392
#
# _framework density 20.858609000000001
#
# number of rings (size 3 to 8) (size 9 to 14) (size 15 to 20)
#    0.000    1.867    1.333    1.600   11.200    0.000 
#    0.000    0.000    0.000    2.400    0.000    0.000 
#    0.000    0.000    0.000    0.000    0.000    0.000 
#
# Total GULP energy -167502.146176 kJ/mol
# GULP energy per Si atom -5583.404873 kJ/mol
# Density = 2.081113 g / cm^3
# Si number density = 20.858609 Si / 1000 Ang^3
#
#
#
# Elastic Constant Matrix: (Units=GPa)
#
#
# Indices 1 2 3 4 5 6 
#
# 1 104.6786 30.4253 52.4677 -0.0002 0.0002 -0.0002
# 2 30.4253 52.2094 22.4250 0.0001 0.0000 -0.0001
# 3 52.4677 22.4250 150.3901 -0.0001 -0.0003 -0.0006
# 4 -0.0002 0.0001 -0.0001 28.0566 0.0001 0.0001
# 5 0.0002 0.0000 -0.0003 0.0001 45.7227 0.0001
# 6 -0.0002 -0.0001 -0.0006 0.0001 0.0001 30.0873
#
#
#
# Elastic Compliance Matrix: (Units=1/GPa)
#
#
# Indices 1 2 3 4 5 6 
#
# 1 0.013172 -0.006092 -0.003687 0.000000 0.000000 0.000000
# 2 -0.006092 0.023282 -0.001346 0.000000 0.000000 0.000000
# 3 -0.003687 -0.001346 0.008136 0.000000 0.000000 0.000000
# 4 0.000000 0.000000 0.000000 0.035642 0.000000 0.000000
# 5 0.000000 0.000000 0.000000 0.000000 0.021871 0.000000
# 6 0.000000 0.000000 0.000000 0.000000 0.000000 0.033237
#
#
# Mechanical properties :
#
#
# Convention : Reuss Voigt Hill
#
# Bulk Modulus (GPa) = 44.76368 57.54601 51.15485
# Shear Modulus (GPa) = 30.29615 34.23734 32.26674
#
# Velocity S-wave (km/s) = 3.81524 4.05582 3.93737
# Velocity P-wave (km/s) = 6.39650 7.04140 6.72668
#
# Compressibility (1/GPa) = 0.02233954
#
# Stress axis : x y z
#
# Youngs Moduli (GPa) = 75.91988 42.95129 122.90482
#
# Poissons Ratio (x) = 0.26167 0.45314
# Poissons Ratio (y) = 0.46253 0.16545
# Poissons Ratio (z) = 0.27991 0.05782
#
# Static dielectric constant tensor:
#      x y z
#    x 1.796480 0.000000 0.000000 
#    y 0.000000 1.781790 0.000000 
#    z 0.000000 0.000000 1.784790 
# 
# From -- ./inp_files/1456.got.cif
#   From: 2010.05.17/outbox.cif.g08.bks.cpg/sg45_1_cif.got.tgz:1456.got - 2010.06.03 19:51:22.
