data_PCOD9376889
_publ_section_title
;
Structure prediction by ZEFSAII (Michael W. Deem and Ramdas Pophale) SiO2 
 PCOD9376889
Probable space group: I B A 2
;
_chemical_formula_sum "Si O2"
_cell_formula_units_Z 48
_cell_length_a 9.189094
_cell_length_b 15.766131
_cell_length_c 15.607626
_cell_angle_alpha 90.000000
_cell_angle_beta 90.000000
_cell_angle_gamma 90.000000
_cell_volume 2261.177600
_symmetry_space_group_name_H-M "I B A 2"
_symmetry_group_IT_number 45
_symmetry_cell_setting 'orthorhombic'
loop_
_space_group_symop_operation_xyz
x,y,z
-x,-y,z
-x,y,1/2+z
x,-y,1/2+z
1/2+x,1/2+y,1/2+z
1/2-x,1/2-y,1/2+z
1/2-x,1/2+y,z
1/2+x,1/2-y,z
loop_
_atom_site_type_symbol
_atom_site_label
_atom_site_fract_x
_atom_site_fract_y
_atom_site_fract_z
Si Si1 0.778362 0.239785 0.956730
Si Si2 0.970290 0.261371 0.580472
Si Si3 0.196701 0.916126 0.836929
Si Si4 0.891303 0.579944 0.669670
Si Si5 0.412461 0.579092 0.087345
Si Si6 0.120694 0.099995 0.887562
O O1 0.761087 0.150969 0.909538
O O2 0.716452 0.315324 0.897144
O O3 0.938630 0.261551 0.991099
O O4 0.693565 0.232433 0.046679
O O5 0.020853 0.337299 0.639712
O O6 0.973824 0.168094 0.621873
O O7 0.300828 0.903955 0.756269
O O8 0.022996 0.896438 0.828180
O O9 0.206199 0.015026 0.862333
O O10 0.758955 0.566674 0.602505
O O11 0.000000 0.500000 0.674986
O O12 0.500000 0.500000 0.123225
O O13 0.434805 0.585163 0.985037
#
# Coordination Sequence:
#
# PCOD9376889 Si02
#       6
#     8   8   8   8   8   8
#     4  11  21  43  75 103 134 186 245 295 343 428
#     4  11  23  44  70 106 138 186 242 285 359 428
#     4  11  24  46  66 105 143 182 234 294 364 416
#     4  12  30  45  65 112 150 186 235 300 368 426
#     4  11  22  45  75  99 134 192 238 291 351 431
#     4  10  21  43  73  99 132 185 242 279 349 431
#
# _framework density 21.227875999999998
#
# number of rings (size 3 to 8) (size 9 to 14) (size 15 to 20)
#    0.000    1.000    8.333    0.000    7.000    2.667 
#    3.000    0.000    0.000    0.000    0.000    0.000 
#    0.000    0.000    0.000    0.000    0.000    0.000 
#
# Total GULP energy -133947.837488 kJ/mol
# GULP energy per Si atom -5581.159895 kJ/mol
# Density = 2.117956 g / cm^3
# Si number density = 21.227876 Si / 1000 Ang^3
#
#
#
# Elastic Constant Matrix: (Units=GPa)
#
#
# Indices 1 2 3 4 5 6 
#
# 1 39.7054 27.8876 -2.0500 0.0000 0.0000 0.0000
# 2 27.8876 137.5363 28.3955 0.0000 0.0000 0.0000
# 3 -2.0500 28.3955 59.9497 0.0000 0.0000 0.0000
# 4 0.0000 0.0000 0.0000 17.8467 0.0000 0.0000
# 5 0.0000 0.0000 0.0000 0.0000 14.1843 0.0000
# 6 0.0000 0.0000 0.0000 0.0000 0.0000 40.4572
#
#
#
# Elastic Compliance Matrix: (Units=1/GPa)
#
#
# Indices 1 2 3 4 5 6 
#
# 1 0.030373 -0.007064 0.004384 0.000000 0.000000 0.000000
# 2 -0.007064 0.009702 -0.004837 0.000000 0.000000 0.000000
# 3 0.004384 -0.004837 0.019122 0.000000 0.000000 0.000000
# 4 0.000000 0.000000 0.000000 0.056033 0.000000 0.000000
# 5 0.000000 0.000000 0.000000 0.000000 0.070500 0.000000
# 6 0.000000 0.000000 0.000000 0.000000 0.000000 0.024718
#
#
# Mechanical properties :
#
#
# Convention : Reuss Voigt Hill
#
# Bulk Modulus (GPa) = 22.64282 38.40640 30.52461
# Shear Modulus (GPa) = 20.81591 26.69487 23.75539
#
# Velocity S-wave (km/s) = 3.13484 3.55003 3.34887
# Velocity P-wave (km/s) = 4.87777 5.91061 5.41885
#
# Compressibility (1/GPa) = 0.04416411
#
# Stress axis : x y z
#
# Youngs Moduli (GPa) = 32.92373 103.07461 52.29699
#
# Poissons Ratio (x) = 0.72810 -0.22929
# Poissons Ratio (y) = 0.23257 0.25295
# Poissons Ratio (z) = -0.14435 0.49855
#
# Static dielectric constant tensor:
#      x y z
#    x 1.773860 0.000000 0.000000 
#    y 0.000000 1.779820 0.000000 
#    z 0.000000 0.000000 1.785280 
# 
# From -- ./inp_files/7567.got.cif
#   From: 2010.05.17/outbox.cif.g08.bks.cpg/sg45_4_cif.got.tgz:7567.got - 2010.06.03 19:51:22.
