data_PCOD9376940
_publ_section_title
;
Structure prediction by ZEFSAII (Michael W. Deem and Ramdas Pophale) SiO2 
 PCOD9376940
Probable space group: I B A 2
;
_chemical_formula_sum "Si O2"
_cell_formula_units_Z 44
_cell_length_a 18.898594
_cell_length_b 14.142288
_cell_length_c 8.975653
_cell_angle_alpha 90.000000
_cell_angle_beta 90.000000
_cell_angle_gamma 90.000000
_cell_volume 2398.917025
_symmetry_space_group_name_H-M "I B A 2"
_symmetry_group_IT_number 45
_symmetry_cell_setting 'orthorhombic'
loop_
_space_group_symop_operation_xyz
x,y,z
-x,-y,z
-x,y,1/2+z
x,-y,1/2+z
1/2+x,1/2+y,1/2+z
1/2-x,1/2-y,1/2+z
1/2-x,1/2+y,z
1/2+x,1/2-y,z
loop_
_atom_site_type_symbol
_atom_site_label
_atom_site_fract_x
_atom_site_fract_y
_atom_site_fract_z
Si Si1 0.862151 0.204033 0.058630
Si Si2 0.770577 0.615523 0.542656
Si Si3 0.854820 0.760390 0.912177
Si Si4 0.500000 0.500000 0.781921
Si Si5 0.476620 0.637017 0.026498
Si Si6 0.738996 0.085871 0.895150
O O1 0.835661 0.310541 0.017174
O O2 0.806973 0.132100 0.979449
O O3 0.858321 0.209562 0.238647
O O4 0.941410 0.168583 0.020457
O O5 0.702358 0.671923 0.487194
O O6 0.775536 0.518919 0.451925
O O7 0.756837 0.591553 0.716096
O O8 0.927750 0.774286 0.998495
O O9 0.826107 0.655200 0.930087
O O10 0.455840 0.564235 0.894452
O O11 0.536662 0.576075 0.674767
#
# Coordination Sequence:
#
# PCOD9376940 Si02
#       6
#     8   8   8   4   8   8
#     4  10  22  39  58  84 114 148 187 233 276 331
#     4  10  22  38  59  83 113 149 189 229 279 331
#     4  10  22  39  58  84 114 148 187 233 276 331
#     4  10  24  34  56  86 114 150 176 224 292 330
#     4  11  22  38  55  86 114 144 187 228 279 336
#     4  10  22  38  59  83 113 149 189 229 279 331
#
# _framework density 18.341612000000001
#
# number of rings (size 3 to 8) (size 9 to 14) (size 15 to 20)
#    0.000    1.818    1.818    1.091    7.636    1.455 
#    0.000    0.909    0.000    4.364    0.000    0.000 
#    0.000    0.000    0.000    0.000    0.000    0.000 
#
# Total GULP energy -122630.966844 kJ/mol
# GULP energy per Si atom -5574.134857 kJ/mol
# Density = 1.829987 g / cm^3
# Si number density = 18.341612 Si / 1000 Ang^3
#
#
#
# Elastic Constant Matrix: (Units=GPa)
#
#
# Indices 1 2 3 4 5 6 
#
# 1 80.5571 30.9763 11.5310 0.0000 0.0000 0.0000
# 2 30.9763 122.4293 35.9989 0.0000 0.0000 0.0000
# 3 11.5310 35.9989 63.9430 0.0000 0.0000 0.0000
# 4 0.0000 0.0000 0.0000 25.9795 0.0000 0.0000
# 5 0.0000 0.0000 0.0000 0.0000 14.6229 0.0000
# 6 0.0000 0.0000 0.0000 0.0000 0.0000 11.9460
#
#
#
# Elastic Compliance Matrix: (Units=1/GPa)
#
#
# Indices 1 2 3 4 5 6 
#
# 1 0.013772 -0.003301 -0.000625 0.000000 0.000000 0.000000
# 2 -0.003301 0.010579 -0.005361 0.000000 0.000000 0.000000
# 3 -0.000625 -0.005361 0.018770 0.000000 0.000000 0.000000
# 4 0.000000 0.000000 0.000000 0.038492 0.000000 0.000000
# 5 0.000000 0.000000 0.000000 0.000000 0.068386 0.000000
# 6 0.000000 0.000000 0.000000 0.000000 0.000000 0.083710
#
#
# Mechanical properties :
#
#
# Convention : Reuss Voigt Hill
#
# Bulk Modulus (GPa) = 40.73701 47.10466 43.92084
# Shear Modulus (GPa) = 19.19640 23.07122 21.13381
#
# Velocity S-wave (km/s) = 3.23864 3.55048 3.39814
# Velocity P-wave (km/s) = 6.02025 6.52269 6.27650
#
# Compressibility (1/GPa) = 0.02454770
#
# Stress axis : x y z
#
# Youngs Moduli (GPa) = 72.60967 94.52343 53.27717
#
# Poissons Ratio (x) = 0.31199 0.03332
# Poissons Ratio (y) = 0.23966 0.28561
# Poissons Ratio (z) = 0.04541 0.50672
#
# Static dielectric constant tensor:
#      x y z
#    x 1.654860 0.000000 0.000000 
#    y 0.000000 1.648880 0.000000 
#    z 0.000000 0.000000 1.656650 
# 
# From -- ./inp_files/2066.got.cif
#   From: 2010.05.17/outbox.cif.g08.bks.cpg/sg45_2_cif.got.tgz:2066.got - 2010.06.03 19:51:22.
