data_PCOD9376473
_publ_section_title
;
Structure prediction by ZEFSAII (Michael W. Deem and Ramdas Pophale) SiO2 
 PCOD9376473
Probable space group: I B A 2
;
_chemical_formula_sum "Si O2"
_cell_formula_units_Z 56
_cell_length_a 7.473978
_cell_length_b 15.651831
_cell_length_c 20.472096
_cell_angle_alpha 90.000000
_cell_angle_beta 90.000000
_cell_angle_gamma 90.000000
_cell_volume 2394.855281
_symmetry_space_group_name_H-M "I B A 2"
_symmetry_group_IT_number 45
_symmetry_cell_setting 'orthorhombic'
loop_
_space_group_symop_operation_xyz
x,y,z
-x,-y,z
-x,y,1/2+z
x,-y,1/2+z
1/2+x,1/2+y,1/2+z
1/2-x,1/2-y,1/2+z
1/2-x,1/2+y,z
1/2+x,1/2-y,z
loop_
_atom_site_type_symbol
_atom_site_label
_atom_site_fract_x
_atom_site_fract_y
_atom_site_fract_z
Si Si1 0.579441 0.858834 0.778850
Si Si2 0.314949 0.975166 0.834109
Si Si3 0.895121 0.115416 0.932147
Si Si4 0.883255 0.415324 0.645617
Si Si5 0.454868 0.370381 0.078691
Si Si6 0.239590 0.289262 0.408371
Si Si7 0.856561 0.326714 0.053387
O O1 0.378564 0.892408 0.793949
O O2 0.593120 0.843261 0.702413
O O3 0.642971 0.800753 0.838509
O O4 0.704768 0.943972 0.787439
O O5 0.165717 0.958922 0.885393
O O6 0.500000 0.000000 0.871262
O O7 0.745181 0.189325 0.924409
O O8 0.071984 0.163034 0.907130
O O9 0.917882 0.091858 0.006816
O O10 0.672186 0.420578 0.629182
O O11 0.000000 0.500000 0.664264
O O12 0.980748 0.381263 0.580901
O O13 0.669861 0.362365 0.083173
O O14 0.385982 0.271815 0.074545
O O15 0.151123 0.326757 0.474557
#
# Coordination Sequence:
#
# PCOD9376473 Si02
#       7
#     8   8   8   8   8   8   8
#     4   9  21  42  57  87 125 167 210 259 315 382
#     4   8  19  38  60  78 126 158 205 247 310 376
#     4  10  20  37  64  97 120 162 208 270 321 380
#     4  12  24  44  66  93 135 181 216 270 332 386
#     4  10  22  41  67  97 129 170 218 270 331 390
#     4  10  21  38  64  94 130 156 218 269 319 379
#     4  10  22  43  67  97 131 173 219 273 325 398
#
# _framework density 23.383459999999999
#
# number of rings (size 3 to 8) (size 9 to 14) (size 15 to 20)
#    0.857    1.143    2.857    0.857    4.000    2.857 
#    7.714    4.286    0.000    0.000    0.000    0.000 
#    0.000    0.000    0.000    0.000    0.000    0.000 
#
# Total GULP energy -156126.073519 kJ/mol
# GULP energy per Si atom -5575.931197 kJ/mol
# Density = 2.333024 g / cm^3
# Si number density = 23.383460 Si / 1000 Ang^3
#
#
#
# Elastic Constant Matrix: (Units=GPa)
#
#
# Indices 1 2 3 4 5 6 
#
# 1 93.2608 13.0675 16.7244 0.0000 0.0000 0.0000
# 2 13.0675 40.2403 4.9299 0.0000 0.0000 0.0000
# 3 16.7244 4.9299 70.2429 0.0000 0.0000 0.0000
# 4 0.0000 0.0000 0.0000 35.3266 0.0000 0.0000
# 5 0.0000 0.0000 0.0000 0.0000 -15.8838 0.0000
# 6 0.0000 0.0000 0.0000 0.0000 0.0000 35.1239
#
#
#
# Elastic Compliance Matrix: (Units=1/GPa)
#
#
# Indices 1 2 3 4 5 6 
#
# 1 0.011664 -0.003477 -0.002533 0.000000 0.000000 0.000000
# 2 -0.003477 0.026103 -0.001004 0.000000 0.000000 0.000000
# 3 -0.002533 -0.001004 0.014910 0.000000 0.000000 0.000000
# 4 0.000000 0.000000 0.000000 0.028307 0.000000 0.000000
# 5 0.000000 0.000000 0.000000 0.000000 -0.062957 0.000000
# 6 0.000000 0.000000 0.000000 0.000000 0.000000 0.028471
#
#
# Mechanical properties :
#
#
# Convention : Reuss Voigt Hill
#
# Bulk Modulus (GPa) = 25.87469 30.35418 28.11443
# Shear Modulus (GPa) = 68.11123 22.18149 45.14636
#
# Velocity S-wave (km/s) = 5.40289 3.08327 4.39874
# Velocity P-wave (km/s) = 7.07184 5.06800 6.15206
#
# Compressibility (1/GPa) = 0.03864781
#
# Stress axis : x y z
#
# Youngs Moduli (GPa) = 85.73295 38.30987 67.06951
#
# Poissons Ratio (x) = 0.13322 0.16989
# Poissons Ratio (y) = 0.29813 0.06734
# Poissons Ratio (z) = 0.21717 0.03847
#
# Static dielectric constant tensor:
#      x y z
#    x 1.924660 0.000000 0.000000 
#    y 0.000000 1.943510 0.000000 
#    z 0.000000 0.000000 1.856460 
# 
# From -- ./inp_files/8877.got.cif
#   From: 2010.05.17/outbox.cif.g08.bks.cpg/sg45_5_cif.got.tgz:8877.got - 2010.06.03 19:51:22.
