data_PCOD9376874
_publ_section_title
;
Structure prediction by ZEFSAII (Michael W. Deem and Ramdas Pophale) SiO2 
 PCOD9376874
Probable space group: I B A 2
;
_chemical_formula_sum "Si O2"
_cell_formula_units_Z 40
_cell_length_a 13.458482
_cell_length_b 5.276768
_cell_length_c 22.862346
_cell_angle_alpha 90.000000
_cell_angle_beta 90.000000
_cell_angle_gamma 90.000000
_cell_volume 1623.621791
_symmetry_space_group_name_H-M "I B A 2"
_symmetry_group_IT_number 45
_symmetry_cell_setting 'orthorhombic'
loop_
_space_group_symop_operation_xyz
x,y,z
-x,-y,z
-x,y,1/2+z
x,-y,1/2+z
1/2+x,1/2+y,1/2+z
1/2-x,1/2-y,1/2+z
1/2-x,1/2+y,z
1/2+x,1/2-y,z
loop_
_atom_site_type_symbol
_atom_site_label
_atom_site_fract_x
_atom_site_fract_y
_atom_site_fract_z
Si Si1 0.937270 0.748628 0.050420
Si Si2 0.000000 0.000000 0.308535
Si Si3 0.799090 0.626716 0.958221
Si Si4 0.190171 0.303825 0.159939
Si Si5 0.500000 0.000000 0.231700
Si Si6 0.218227 0.090384 0.329268
O O1 0.841493 0.718605 0.091648
O O2 0.000000 0.500000 0.062092
O O3 0.900793 0.733807 0.983305
O O4 0.000000 0.000000 0.062906
O O5 0.101781 0.065501 0.341937
O O6 0.974900 0.252550 0.270997
O O7 0.780593 0.339306 0.978298
O O8 0.784012 0.615189 0.888327
O O9 0.271615 0.520279 0.172001
O O10 0.090624 0.396725 0.192594
O O11 0.239249 0.349116 0.296336
#
# Coordination Sequence:
#
# PCOD9376874 Si02
#       6
#     8   4   8   8   4   8
#     4  12  24  42  71 106 150 194 240 297 361 441
#     4  12  26  46  76 102 144 196 244 316 380 424
#     4  10  21  43  64 100 140 183 235 289 348 445
#     4  12  26  46  74 106 151 197 237 309 373 438
#     4  12  28  46  72 114 140 188 264 302 372 462
#     4  10  23  45  70 101 143 181 246 303 364 441
#
# _framework density 24.636278000000001
#
# number of rings (size 3 to 8) (size 9 to 14) (size 15 to 20)
#    0.000    0.800    1.000    6.000    1.400    4.800 
#   21.600    0.000    0.000    0.000    0.000    0.000 
#    0.000    0.000    0.000    0.000    0.000    0.000 
#
# Total GULP energy -111838.119621 kJ/mol
# GULP energy per Si atom -5591.905981 kJ/mol
# Density = 2.458020 g / cm^3
# Si number density = 24.636278 Si / 1000 Ang^3
#
#
#
# Elastic Constant Matrix: (Units=GPa)
#
#
# Indices 1 2 3 4 5 6 
#
# 1 92.7582 30.5334 38.2001 0.0000 0.0000 0.0000
# 2 30.5334 205.2732 26.8910 0.0000 0.0000 0.0000
# 3 38.2001 26.8910 96.0517 0.0000 0.0000 0.0000
# 4 0.0000 0.0000 0.0000 22.9712 0.0000 0.0000
# 5 0.0000 0.0000 0.0000 0.0000 38.6707 0.0000
# 6 0.0000 0.0000 0.0000 0.0000 0.0000 52.8688
#
#
#
# Elastic Compliance Matrix: (Units=1/GPa)
#
#
# Indices 1 2 3 4 5 6 
#
# 1 0.013232 -0.001327 -0.004891 0.000000 0.000000 0.000000
# 2 -0.001327 0.005190 -0.000925 0.000000 0.000000 0.000000
# 3 -0.004891 -0.000925 0.012615 0.000000 0.000000 0.000000
# 4 0.000000 0.000000 0.000000 0.043533 0.000000 0.000000
# 5 0.000000 0.000000 0.000000 0.000000 0.025859 0.000000
# 6 0.000000 0.000000 0.000000 0.000000 0.000000 0.018915
#
#
# Mechanical properties :
#
#
# Convention : Reuss Voigt Hill
#
# Bulk Modulus (GPa) = 59.69963 65.03689 62.36826
# Shear Modulus (GPa) = 35.91589 42.79937 39.35763
#
# Velocity S-wave (km/s) = 3.82232 4.17255 4.00127
# Velocity P-wave (km/s) = 6.61552 7.04768 6.83502
#
# Compressibility (1/GPa) = 0.01675052
#
# Stress axis : x y z
#
# Youngs Moduli (GPa) = 75.57560 192.67058 79.27003
#
# Poissons Ratio (x) = 0.25577 0.38768
# Poissons Ratio (y) = 0.10032 0.07334
# Poissons Ratio (z) = 0.36962 0.17825
#
# Static dielectric constant tensor:
#      x y z
#    x 1.906050 0.000000 0.000000 
#    y 0.000000 2.018570 0.000000 
#    z 0.000000 0.000000 2.003800 
# 
# From -- ./inp_files/9871.got.cif
#   From: 2010.05.17/outbox.cif.g08.bks.cpg/sg45_5_cif.got.tgz:9871.got - 2010.06.03 19:51:22.
