data_PCOD9376786
_publ_section_title
;
Structure prediction by ZEFSAII (Michael W. Deem and Ramdas Pophale) SiO2 
 PCOD9376786
Probable space group: I B A 2
;
_chemical_formula_sum "Si O2"
_cell_formula_units_Z 56
_cell_length_a 17.311360
_cell_length_b 7.192864
_cell_length_c 21.577520
_cell_angle_alpha 90.000000
_cell_angle_beta 90.000000
_cell_angle_gamma 90.000000
_cell_volume 2686.795205
_symmetry_space_group_name_H-M "I B A 2"
_symmetry_group_IT_number 45
_symmetry_cell_setting 'orthorhombic'
loop_
_space_group_symop_operation_xyz
x,y,z
-x,-y,z
-x,y,1/2+z
x,-y,1/2+z
1/2+x,1/2+y,1/2+z
1/2-x,1/2-y,1/2+z
1/2-x,1/2+y,z
1/2+x,1/2-y,z
loop_
_atom_site_type_symbol
_atom_site_label
_atom_site_fract_x
_atom_site_fract_y
_atom_site_fract_z
Si Si1 0.000000 0.000000 0.148911
Si Si2 0.556913 0.831441 0.570856
Si Si3 0.851655 0.586058 0.308632
Si Si4 0.159068 0.078271 0.704662
Si Si5 0.690270 0.336878 0.841195
Si Si6 0.430916 0.651907 0.943597
Si Si7 0.674332 0.007362 0.171631
Si Si8 0.000000 0.500000 0.871741
O O1 0.003865 0.184481 0.107577
O O2 0.922603 0.993579 0.188398
O O3 0.590354 0.714565 0.513104
O O4 0.500000 0.000000 0.551827
O O5 0.624028 0.911125 0.615742
O O6 0.782658 0.676283 0.348234
O O7 0.838372 0.367479 0.322464
O O8 0.840848 0.620357 0.235643
O O9 0.938571 0.613311 0.330284
O O10 0.176586 0.049694 0.777524
O O11 0.151984 0.296306 0.687622
O O12 0.232700 0.008322 0.665396
O O13 0.641081 0.405651 0.899743
O O14 0.500000 0.500000 0.944181
O O15 0.461180 0.843029 0.913344
#
# Coordination Sequence:
#
# PCOD9376786 Si02
#       8
#     4   8   8   8   8   8   8   4
#     4  12  24  40  66  98 126 168 224 272 330 390
#     4  12  24  43  65  89 133 175 219 273 317 386
#     4   9  20  38  62  94 129 163 211 270 328 378
#     4  10  21  40  65  99 134 167 215 275 332 387
#     4   9  21  39  62  95 129 169 213 265 329 383
#     4  11  24  42  63  92 128 173 220 262 316 385
#     4  10  21  40  63  94 135 174 212 269 329 390
#     4  10  22  40  64  90 130 166 212 272 322 378
#
# _framework density 20.842676000000001
#
# number of rings (size 3 to 8) (size 9 to 14) (size 15 to 20)
#    0.000    1.714    2.857    0.857    4.000    2.286 
#    0.000    7.143    0.000    0.000    0.000    0.000 
#    0.000    0.000    0.000    0.000    0.000    0.000 
#
# Total GULP energy -156289.596307 kJ/mol
# GULP energy per Si atom -5581.771297 kJ/mol
# Density = 2.079524 g / cm^3
# Si number density = 20.842676 Si / 1000 Ang^3
#
#
#
# Elastic Constant Matrix: (Units=GPa)
#
#
# Indices 1 2 3 4 5 6 
#
# 1 121.5458 11.0984 74.1987 0.0000 0.0000 0.0000
# 2 11.0984 61.9248 17.0773 0.0000 0.0000 0.0000
# 3 74.1987 17.0773 113.8012 0.0000 0.0000 0.0000
# 4 0.0000 0.0000 0.0000 18.0724 0.0000 0.0000
# 5 0.0000 0.0000 0.0000 0.0000 23.8739 0.0000
# 6 0.0000 0.0000 0.0000 0.0000 0.0000 33.6748
#
#
#
# Elastic Compliance Matrix: (Units=1/GPa)
#
#
# Indices 1 2 3 4 5 6 
#
# 1 0.013667 0.000008 -0.008912 0.000000 0.000000 0.000000
# 2 0.000008 0.016846 -0.002533 0.000000 0.000000 0.000000
# 3 -0.008912 -0.002533 0.014978 0.000000 0.000000 0.000000
# 4 0.000000 0.000000 0.000000 0.055333 0.000000 0.000000
# 5 0.000000 0.000000 0.000000 0.000000 0.041887 0.000000
# 6 0.000000 0.000000 0.000000 0.000000 0.000000 0.029696
#
#
# Mechanical properties :
#
#
# Convention : Reuss Voigt Hill
#
# Bulk Modulus (GPa) = 44.21538 55.78006 49.99772
# Shear Modulus (GPa) = 24.65238 28.11738 26.38488
#
# Velocity S-wave (km/s) = 3.44289 3.67690 3.56182
# Velocity P-wave (km/s) = 6.08807 6.69676 6.39966
#
# Compressibility (1/GPa) = 0.02261656
#
# Stress axis : x y z
#
# Youngs Moduli (GPa) = 73.16797 59.36211 66.76349
#
# Poissons Ratio (x) = -0.00049 0.59502
# Poissons Ratio (y) = -0.00061 0.16913
# Poissons Ratio (z) = 0.65209 0.15038
#
# Static dielectric constant tensor:
#      x y z
#    x 1.781800 0.000000 0.000000 
#    y 0.000000 1.798450 0.000000 
#    z 0.000000 0.000000 1.749980 
# 
# From -- ./inp_files/8913.got.cif
#   From: 2010.05.17/outbox.cif.g08.bks.cpg/sg45_5_cif.got.tgz:8913.got - 2010.06.03 19:51:22.
