data_PCOD9376161
_publ_section_title
;
Structure prediction by ZEFSAII (Michael W. Deem and Ramdas Pophale) SiO2 
 PCOD9376161
Probable space group: I B A 2
;
_chemical_formula_sum "Si O2"
_cell_formula_units_Z 44
_cell_length_a 15.618967
_cell_length_b 10.386241
_cell_length_c 10.886103
_cell_angle_alpha 90.000000
_cell_angle_beta 90.000000
_cell_angle_gamma 90.000000
_cell_volume 1765.969270
_symmetry_space_group_name_H-M "I B A 2"
_symmetry_group_IT_number 45
_symmetry_cell_setting 'orthorhombic'
loop_
_space_group_symop_operation_xyz
x,y,z
-x,-y,z
-x,y,1/2+z
x,-y,1/2+z
1/2+x,1/2+y,1/2+z
1/2-x,1/2-y,1/2+z
1/2-x,1/2+y,z
1/2+x,1/2-y,z
loop_
_atom_site_type_symbol
_atom_site_label
_atom_site_fract_x
_atom_site_fract_y
_atom_site_fract_z
Si Si1 0.011805 0.797540 0.500000
Si Si2 0.237430 0.774396 0.168799
Si Si3 0.171676 0.683896 0.921914
Si Si4 0.456736 0.291039 0.254006
Si Si5 0.641240 0.939944 0.531354
Si Si6 0.500000 0.000000 0.217746
O O1 0.914892 0.752331 0.468045
O O2 0.007250 0.847274 0.637866
O O3 0.038141 0.870963 0.378438
O O4 0.083696 0.684870 0.503867
O O5 0.233797 0.689192 0.042811
O O6 0.294242 0.757673 0.293627
O O7 0.142158 0.780945 0.219666
O O8 0.273918 0.902396 0.103969
O O9 0.153945 0.530230 0.913421
O O10 0.496986 0.144578 0.274503
O O11 0.581116 0.011531 0.628156
#
# Coordination Sequence:
#
# PCOD9376161 Si02
#       6
#     8   8   8   8   8   4
#     4  10  20  35  60  86 119 159 210 254 306 372
#     4  11  24  36  57  93 138 165 205 270 334 374
#     4  11  22  39  56  91 132 167 209 265 325 381
#     4  10  21  35  56  94 123 159 203 257 320 371
#     4  11  20  36  60  90 123 167 205 265 314 373
#     4  10  18  36  62  84 124 154 210 256 300 374
#
# _framework density 24.915496000000001
#
# number of rings (size 3 to 8) (size 9 to 14) (size 15 to 20)
#    0.000    1.455    5.455    3.273    5.091    1.455 
#    0.000    0.000    0.000    0.000    0.000   81.455 
#    0.000    0.000    0.000    0.000    0.000    0.000 
#
# Total GULP energy -122540.245735 kJ/mol
# GULP energy per Si atom -5570.011170 kJ/mol
# Density = 2.485879 g / cm^3
# Si number density = 24.915496 Si / 1000 Ang^3
#
#
#
# Elastic Constant Matrix: (Units=GPa)
#
#
# Indices 1 2 3 4 5 6 
#
# 1 75.4674 13.2490 16.6493 0.0000 0.0000 0.0000
# 2 13.2490 44.4098 -0.1043 0.0000 0.0000 0.0000
# 3 16.6493 -0.1043 169.1428 0.0000 0.0000 0.0000
# 4 0.0000 0.0000 0.0000 11.3935 0.0000 0.0000
# 5 0.0000 0.0000 0.0000 0.0000 47.5490 0.0000
# 6 0.0000 0.0000 0.0000 0.0000 0.0000 30.6678
#
#
#
# Elastic Compliance Matrix: (Units=1/GPa)
#
#
# Indices 1 2 3 4 5 6 
#
# 1 0.014312 -0.004273 -0.001411 0.000000 0.000000 0.000000
# 2 -0.004273 0.023793 0.000435 0.000000 0.000000 0.000000
# 3 -0.001411 0.000435 0.006051 0.000000 0.000000 0.000000
# 4 0.000000 0.000000 0.000000 0.087769 0.000000 0.000000
# 5 0.000000 0.000000 0.000000 0.000000 0.021031 0.000000
# 6 0.000000 0.000000 0.000000 0.000000 0.000000 0.032607
#
#
# Mechanical properties :
#
#
# Convention : Reuss Voigt Hill
#
# Bulk Modulus (GPa) = 29.71021 38.73422 34.22222
# Shear Modulus (GPa) = 24.12164 35.20379 29.66271
#
# Velocity S-wave (km/s) = 3.11487 3.76297 3.45415
# Velocity P-wave (km/s) = 4.98867 5.87026 5.44733
#
# Compressibility (1/GPa) = 0.03365846
#
# Stress axis : x y z
#
# Youngs Moduli (GPa) = 69.86979 42.02840 165.25193
#
# Poissons Ratio (x) = 0.17960 0.23324
# Poissons Ratio (y) = 0.29857 -0.07193
# Poissons Ratio (z) = 0.09862 -0.01829
#
# Static dielectric constant tensor:
#      x y z
#    x 4.291800 0.000000 0.000000 
#    y 0.000000 2.143260 0.000000 
#    z 0.000000 0.000000 2.084920 
# 
# From -- ./inp_files/4070.got.cif
#   From: 2010.05.17/outbox.cif.g08.bks.cpg/sg45_3_cif.got.tgz:4070.got - 2010.06.03 19:51:22.
