data_PCOD9376334
_publ_section_title
;
Structure prediction by ZEFSAII (Michael W. Deem and Ramdas Pophale) SiO2 
 PCOD9376334
Probable space group: I B A 2
;
_chemical_formula_sum "Si O2"
_cell_formula_units_Z 56
_cell_length_a 8.242918
_cell_length_b 20.603307
_cell_length_c 14.016636
_cell_angle_alpha 90.000000
_cell_angle_beta 90.000000
_cell_angle_gamma 90.000000
_cell_volume 2380.464496
_symmetry_space_group_name_H-M "I B A 2"
_symmetry_group_IT_number 45
_symmetry_cell_setting 'orthorhombic'
loop_
_space_group_symop_operation_xyz
x,y,z
-x,-y,z
-x,y,1/2+z
x,-y,1/2+z
1/2+x,1/2+y,1/2+z
1/2-x,1/2-y,1/2+z
1/2-x,1/2+y,z
1/2+x,1/2-y,z
loop_
_atom_site_type_symbol
_atom_site_label
_atom_site_fract_x
_atom_site_fract_y
_atom_site_fract_z
Si Si1 0.642974 0.539446 0.939850
Si Si2 0.966919 0.600586 0.869741
Si Si3 0.507942 0.143997 0.170200
Si Si4 0.854518 0.548851 0.550819
Si Si5 0.028611 0.210081 0.749515
Si Si6 0.740407 0.225565 0.885352
Si Si7 0.337653 0.338315 0.059684
O O1 0.500000 0.500000 0.889480
O O2 0.803871 0.556913 0.879238
O O3 0.699552 0.493878 0.027986
O O4 0.594935 0.607442 0.988322
O O5 0.905792 0.673751 0.892215
O O6 0.040842 0.602855 0.765300
O O7 0.089645 0.577082 0.949012
O O8 0.479650 0.217489 0.203664
O O9 0.657751 0.142918 0.097099
O O10 0.354522 0.109211 0.121715
O O11 0.000000 0.500000 0.581884
O O12 0.169020 0.212037 0.830955
O O13 0.063398 0.168248 0.656731
O O14 0.867103 0.197428 0.808501
O O15 0.817379 0.225236 0.991030
#
# Coordination Sequence:
#
# PCOD9376334 Si02
#       7
#     8   8   8   8   8   8   8
#     4  10  22  44  67  99 138 176 220 287 350 394
#     4   9  21  40  62  91 128 169 226 273 319 402
#     4  11  21  41  69  96 129 180 232 272 332 413
#     4  10  19  40  67  92 127 174 225 273 329 401
#     4  11  24  39  66 102 136 178 229 276 345 412
#     4  10  22  40  61  94 136 173 221 279 332 402
#     4  11  23  45  67  97 141 177 226 288 338 408
#
# _framework density 23.524822
#
# number of rings (size 3 to 8) (size 9 to 14) (size 15 to 20)
#    0.000    1.714    5.714    0.000    2.000    4.000 
#    5.143    0.714    0.000    0.000    0.000    0.000 
#    0.000    0.000    0.000    0.000    0.000    0.000 
#
# Total GULP energy -156305.371514 kJ/mol
# GULP energy per Si atom -5582.334697 kJ/mol
# Density = 2.347128 g / cm^3
# Si number density = 23.524822 Si / 1000 Ang^3
#
#
#
# Elastic Constant Matrix: (Units=GPa)
#
#
# Indices 1 2 3 4 5 6 
#
# 1 31.3513 2.1554 10.4025 0.0000 0.0000 0.0000
# 2 2.1554 59.2027 23.9532 0.0000 0.0000 0.0000
# 3 10.4025 23.9532 115.9674 0.0000 0.0000 0.0000
# 4 0.0000 0.0000 0.0000 21.9407 0.0000 0.0000
# 5 0.0000 0.0000 0.0000 0.0000 27.2688 0.0000
# 6 0.0000 0.0000 0.0000 0.0000 0.0000 23.0708
#
#
#
# Elastic Compliance Matrix: (Units=1/GPa)
#
#
# Indices 1 2 3 4 5 6 
#
# 1 0.032875 -0.000004 -0.002948 0.000000 0.000000 0.000000
# 2 -0.000004 0.018431 -0.003807 0.000000 0.000000 0.000000
# 3 -0.002948 -0.003807 0.009674 0.000000 0.000000 0.000000
# 4 0.000000 0.000000 0.000000 0.045577 0.000000 0.000000
# 5 0.000000 0.000000 0.000000 0.000000 0.036672 0.000000
# 6 0.000000 0.000000 0.000000 0.000000 0.000000 0.043345
#
#
# Mechanical properties :
#
#
# Convention : Reuss Voigt Hill
#
# Bulk Modulus (GPa) = 21.06922 31.06040 26.06481
# Shear Modulus (GPa) = 23.15747 25.79009 24.47378
#
# Velocity S-wave (km/s) = 3.14089 3.31462 3.22893
# Velocity P-wave (km/s) = 4.70417 5.28023 5.00051
#
# Compressibility (1/GPa) = 0.04746260
#
# Stress axis : x y z
#
# Youngs Moduli (GPa) = 30.41819 54.25509 103.37161
#
# Poissons Ratio (x) = 0.00022 0.30475
# Poissons Ratio (y) = 0.00012 0.39350
# Poissons Ratio (z) = 0.08968 0.20653
#
# Static dielectric constant tensor:
#      x y z
#    x 1.956000 0.000000 0.000000 
#    y 0.000000 1.974120 0.000000 
#    z 0.000000 0.000000 1.884800 
# 
# From -- ./inp_files/5734.got.cif
#   From: 2010.05.17/outbox.cif.g08.bks.cpg/sg45_3_cif.got.tgz:5734.got - 2010.06.03 19:51:22.
