data_PCOD9376441
_publ_section_title
;
Structure prediction by ZEFSAII (Michael W. Deem and Ramdas Pophale) SiO2 
 PCOD9376441
Probable space group: I B A 2
;
_chemical_formula_sum "Si O2"
_cell_formula_units_Z 32
_cell_length_a 13.606687
_cell_length_b 5.269669
_cell_length_c 20.239367
_cell_angle_alpha 90.000000
_cell_angle_beta 90.000000
_cell_angle_gamma 90.000000
_cell_volume 1451.218003
_symmetry_space_group_name_H-M "I B A 2"
_symmetry_group_IT_number 45
_symmetry_cell_setting 'orthorhombic'
loop_
_space_group_symop_operation_xyz
x,y,z
-x,-y,z
-x,y,1/2+z
x,-y,1/2+z
1/2+x,1/2+y,1/2+z
1/2-x,1/2-y,1/2+z
1/2-x,1/2+y,z
1/2+x,1/2-y,z
loop_
_atom_site_type_symbol
_atom_site_label
_atom_site_fract_x
_atom_site_fract_y
_atom_site_fract_z
Si Si1 0.000000 0.500000 0.512740
Si Si2 0.614665 0.797045 0.771354
Si Si3 0.106941 0.204886 0.719426
Si Si4 0.500000 0.500000 0.597766
Si Si5 0.816788 0.580674 0.416684
O O1 0.906274 0.569707 0.468038
O O2 0.975793 0.249565 0.555773
O O3 0.499754 0.751004 0.754165
O O4 0.657142 0.513806 0.762773
O O5 0.635779 0.901397 0.843635
O O6 0.648225 0.011890 0.719419
O O7 0.086478 0.089097 0.647649
O O8 0.750504 0.330011 0.424303
#
# Coordination Sequence:
#
# PCOD9376441 Si02
#       5
#     4   8   8   4   8
#     4  12  24  42  66  90 126 180 214 252 316 366
#     4   9  17  33  57  86 122 150 188 257 318 353
#     4   9  17  33  64  95 116 155 208 254 310 387
#     4  10  20  36  64  92 122 170 216 252 314 374
#     4  12  26  42  64  96 130 166 215 264 311 381
#
# _framework density 22.050443999999999
#
# number of rings (size 3 to 8) (size 9 to 14) (size 15 to 20)
#    0.000    2.000    0.000    7.500    0.000    4.000 
#    0.000    0.000    0.000   69.000    0.000    0.000 
#    0.000    0.000    0.000    0.000    0.000    0.000 
#
# Total GULP energy -89289.701760 kJ/mol
# GULP energy per Si atom -5580.606360 kJ/mol
# Density = 2.200026 g / cm^3
# Si number density = 22.050444 Si / 1000 Ang^3
#
#
#
# Elastic Constant Matrix: (Units=GPa)
#
#
# Indices 1 2 3 4 5 6 
#
# 1 113.0269 28.5095 38.3262 0.0000 0.0000 0.0000
# 2 28.5095 241.1664 72.1092 0.0000 0.0000 0.0000
# 3 38.3262 72.1092 132.3420 0.0000 0.0000 0.0000
# 4 0.0000 0.0000 0.0000 -14.3584 0.0000 0.0000
# 5 0.0000 0.0000 0.0000 0.0000 11.2420 0.0000
# 6 0.0000 0.0000 0.0000 0.0000 0.0000 8.0047
#
#
#
# Elastic Compliance Matrix: (Units=1/GPa)
#
#
# Indices 1 2 3 4 5 6 
#
# 1 0.009839 -0.000372 -0.002647 0.000000 0.000000 0.000000
# 2 -0.000372 0.004968 -0.002599 0.000000 0.000000 0.000000
# 3 -0.002647 -0.002599 0.009739 0.000000 0.000000 0.000000
# 4 0.000000 0.000000 0.000000 -0.069646 0.000000 0.000000
# 5 0.000000 0.000000 0.000000 0.000000 0.088952 0.000000
# 6 0.000000 0.000000 0.000000 0.000000 0.000000 0.124926
#
#
# Mechanical properties :
#
#
# Convention : Reuss Voigt Hill
#
# Bulk Modulus (GPa) = 75.13093 84.93614 80.03353
# Shear Modulus (GPa) = 27.10774 24.15037 25.62906
#
# Velocity S-wave (km/s) = 3.51001 3.31302 3.41294
# Velocity P-wave (km/s) = 7.11148 7.29640 7.20453
#
# Compressibility (1/GPa) = 0.01331010
#
# Stress axis : x y z
#
# Youngs Moduli (GPa) = 101.63954 201.30558 102.68188
#
# Poissons Ratio (x) = 0.07482 0.27177
# Poissons Ratio (y) = 0.03778 0.26687
# Poissons Ratio (z) = 0.26901 0.52320
#
# Static dielectric constant tensor:
#      x y z
#    x 2.001690 0.000000 0.000000 
#    y 0.000000 2.469010 0.000000 
#    z 0.000000 0.000000 1.787120 
# 
# From -- ./inp_files/8086.got.cif
#   From: 2010.05.17/outbox.cif.g08.bks.cpg/sg45_5_cif.got.tgz:8086.got - 2010.06.03 19:51:22.
