data_PCOD9376360
_publ_section_title
;
Structure prediction by ZEFSAII (Michael W. Deem and Ramdas Pophale) SiO2 
 PCOD9376360
Probable space group: I B A 2
;
_chemical_formula_sum "Si O2"
_cell_formula_units_Z 64
_cell_length_a 21.845115
_cell_length_b 15.777158
_cell_length_c 9.806829
_cell_angle_alpha 90.000000
_cell_angle_beta 90.000000
_cell_angle_gamma 90.000000
_cell_volume 3379.961184
_symmetry_space_group_name_H-M "I B A 2"
_symmetry_group_IT_number 45
_symmetry_cell_setting 'orthorhombic'
loop_
_space_group_symop_operation_xyz
x,y,z
-x,-y,z
-x,y,1/2+z
x,-y,1/2+z
1/2+x,1/2+y,1/2+z
1/2-x,1/2-y,1/2+z
1/2-x,1/2+y,z
1/2+x,1/2-y,z
loop_
_atom_site_type_symbol
_atom_site_label
_atom_site_fract_x
_atom_site_fract_y
_atom_site_fract_z
Si Si1 0.736080 0.902833 0.322310
Si Si2 0.570656 0.595989 0.478946
Si Si3 0.570656 0.404011 0.478946
Si Si4 0.807770 0.314322 0.077842
Si Si5 0.633684 0.330022 0.733190
Si Si6 0.307770 0.185678 0.577842
Si Si7 0.133684 0.169978 0.233190
Si Si8 0.763920 0.597167 0.322310
O O1 0.706753 0.893442 0.173991
O O2 0.693415 0.849655 0.425512
O O3 0.802415 0.858520 0.303959
O O4 0.743512 0.000000 0.364001
O O5 0.578988 0.500000 0.425455
O O6 0.500000 0.605727 0.521060
O O7 0.586832 0.660610 0.357688
O O8 0.613480 0.608541 0.610209
O O9 0.613480 0.391459 0.610209
O O10 0.586832 0.339390 0.357688
O O11 0.859439 0.258796 0.152565
O O12 0.750000 0.250000 0.081975
O O13 0.806585 0.349655 0.925512
O O14 0.697585 0.358520 0.803959
O O15 0.359439 0.241204 0.652565
O O16 0.293247 0.106558 0.673991
#
# Coordination Sequence:
#
# PCOD9376360 Si02
#       8
#     8   8   8   8   8   8   8   8
#     4  11  20  32  51  75 103 135 172 208 253 314
#     4  11  22  35  52  77 108 142 184 224 252 294
#     4  11  22  35  52  77 108 142 184 224 252 294
#     4  10  20  33  48  72 102 134 170 211 252 307
#     4  11  21  35  53  74 107 147 177 211 265 309
#     4  10  20  33  48  72 102 134 170 211 252 307
#     4  11  21  35  53  74 107 147 177 211 265 309
#     4  11  20  32  51  75 103 135 172 208 253 314
#
# _framework density 18.935129
#
# number of rings (size 3 to 8) (size 9 to 14) (size 15 to 20)
#    0.000    1.250    0.000   10.500    0.000    2.000 
#    0.000    0.000    0.000    0.000    0.000    0.000 
#    0.000   70.000    0.000    0.000    0.000    0.000 
#
# Total GULP energy -178391.036008 kJ/mol
# GULP energy per Si atom -5574.719875 kJ/mol
# Density = 1.889203 g / cm^3
# Si number density = 18.935129 Si / 1000 Ang^3
#
#
#
# Elastic Constant Matrix: (Units=GPa)
#
#
# Indices 1 2 3 4 5 6 
#
# 1 36.9286 15.6200 16.7979 0.0000 0.0000 0.0000
# 2 15.6200 73.0289 18.7113 0.0000 0.0000 0.0000
# 3 16.7979 18.7113 109.4091 0.0000 0.0000 0.0000
# 4 0.0000 0.0000 0.0000 34.5151 0.0000 0.0000
# 5 0.0000 0.0000 0.0000 0.0000 23.4443 0.0000
# 6 0.0000 0.0000 0.0000 0.0000 0.0000 15.2422
#
#
#
# Elastic Compliance Matrix: (Units=1/GPa)
#
#
# Indices 1 2 3 4 5 6 
#
# 1 0.031228 -0.005701 -0.003820 0.000000 0.000000 0.000000
# 2 -0.005701 0.015361 -0.001752 0.000000 0.000000 0.000000
# 3 -0.003820 -0.001752 0.010026 0.000000 0.000000 0.000000
# 4 0.000000 0.000000 0.000000 0.028973 0.000000 0.000000
# 5 0.000000 0.000000 0.000000 0.000000 0.042654 0.000000
# 6 0.000000 0.000000 0.000000 0.000000 0.000000 0.065607
#
#
# Mechanical properties :
#
#
# Convention : Reuss Voigt Hill
#
# Bulk Modulus (GPa) = 29.35032 35.73610 32.54321
# Shear Modulus (GPa) = 21.95379 25.85615 23.90497
#
# Velocity S-wave (km/s) = 3.40872 3.69929 3.55698
# Velocity P-wave (km/s) = 5.57015 6.09592 5.83896
#
# Compressibility (1/GPa) = 0.03407117
#
# Stress axis : x y z
#
# Youngs Moduli (GPa) = 32.02256 65.09838 99.74020
#
# Poissons Ratio (x) = 0.37110 0.38097
# Poissons Ratio (y) = 0.18255 0.17473
# Poissons Ratio (z) = 0.12231 0.11404
#
# Static dielectric constant tensor:
#      x y z
#    x 1.671610 0.000000 0.000000 
#    y 0.000000 1.686160 0.000000 
#    z 0.000000 0.000000 1.674670 
# 
# From -- ./inp_files/2550.got.cif
#   From: 2010.05.17/outbox.cif.g08.bks.cpg/sg45_2_cif.got.tgz:2550.got - 2010.06.03 19:51:22.
