data_PCOD9376939
_publ_section_title
;
Structure prediction by ZEFSAII (Michael W. Deem and Ramdas Pophale) SiO2 
 PCOD9376939
Probable space group: I B A 2
;
_chemical_formula_sum "Si O2"
_cell_formula_units_Z 48
_cell_length_a 26.372223
_cell_length_b 8.669997
_cell_length_c 8.450973
_cell_angle_alpha 90.000000
_cell_angle_beta 90.000000
_cell_angle_gamma 90.000000
_cell_volume 1932.290420
_symmetry_space_group_name_H-M "I B A 2"
_symmetry_group_IT_number 45
_symmetry_cell_setting 'orthorhombic'
loop_
_space_group_symop_operation_xyz
x,y,z
-x,-y,z
-x,y,1/2+z
x,-y,1/2+z
1/2+x,1/2+y,1/2+z
1/2-x,1/2-y,1/2+z
1/2-x,1/2+y,z
1/2+x,1/2-y,z
loop_
_atom_site_type_symbol
_atom_site_label
_atom_site_fract_x
_atom_site_fract_y
_atom_site_fract_z
Si Si1 0.147760 0.823485 0.414230
Si Si2 0.890182 0.123940 0.768603
Si Si3 0.227424 0.377608 0.069772
Si Si4 0.000000 0.500000 0.126253
Si Si5 0.949815 0.308834 0.384995
Si Si6 0.500000 0.500000 0.365835
Si Si7 0.689850 0.803394 0.925266
O O1 0.122173 0.842272 0.587436
O O2 0.199514 0.741586 0.451319
O O3 0.107374 0.713174 0.329789
O O4 0.145272 0.980854 0.320405
O O5 0.868731 0.261146 0.881115
O O6 0.947993 0.067119 0.787924
O O7 0.285292 0.340684 0.021935
O O8 0.204795 0.545212 0.026954
O O9 0.213891 0.332972 0.249656
O O10 0.981966 0.363292 0.236384
O O11 0.955284 0.561122 0.016366
O O12 0.976761 0.152407 0.445455
#
# Coordination Sequence:
#
# PCOD9376939 Si02
#       7
#     8   8   8   4   8   4   8
#     4  10  23  40  61  91 124 166 216 270 330 399
#     4  10  23  41  64  93 128 169 223 276 337 404
#     4  11  24  42  66  96 134 177 224 278 343 412
#     4  10  22  38  58  86 124 164 208 268 332 398
#     4  10  22  39  60  87 123 164 213 268 333 400
#     4  10  22  42  66  94 128 174 226 284 340 410
#     4  11  24  43  67  98 135 179 227 283 347 417
#
# _framework density 24.840985
#
# number of rings (size 3 to 8) (size 9 to 14) (size 15 to 20)
#    0.000    1.667    0.000    3.000    0.000   19.333 
#    0.000    0.000    0.000    0.000    0.000    0.000 
#    0.000    0.000    0.000    0.000    0.000    0.000 
#
# Total GULP energy -134055.386449 kJ/mol
# GULP energy per Si atom -5585.641102 kJ/mol
# Density = 2.478445 g / cm^3
# Si number density = 24.840985 Si / 1000 Ang^3
#
#
#
# Elastic Constant Matrix: (Units=GPa)
#
#
# Indices 1 2 3 4 5 6 
#
# 1 89.7108 22.1147 13.9100 0.0000 0.0000 0.0000
# 2 22.1147 89.9436 24.5941 0.0000 0.0000 0.0000
# 3 13.9100 24.5941 57.9895 0.0000 0.0000 0.0000
# 4 0.0000 0.0000 0.0000 20.3395 0.0000 0.0000
# 5 0.0000 0.0000 0.0000 0.0000 17.3476 0.0000
# 6 0.0000 0.0000 0.0000 0.0000 0.0000 47.9522
#
#
#
# Elastic Compliance Matrix: (Units=1/GPa)
#
#
# Indices 1 2 3 4 5 6 
#
# 1 0.012038 -0.002455 -0.001846 0.000000 0.000000 0.000000
# 2 -0.002455 0.013077 -0.004957 0.000000 0.000000 0.000000
# 3 -0.001846 -0.004957 0.019790 0.000000 0.000000 0.000000
# 4 0.000000 0.000000 0.000000 0.049166 0.000000 0.000000
# 5 0.000000 0.000000 0.000000 0.000000 0.057645 0.000000
# 6 0.000000 0.000000 0.000000 0.000000 0.000000 0.020854
#
#
# Mechanical properties :
#
#
# Convention : Reuss Voigt Hill
#
# Bulk Modulus (GPa) = 37.89615 39.87571 38.88593
# Shear Modulus (GPa) = 25.01457 28.92953 26.97205
#
# Velocity S-wave (km/s) = 3.17675 3.41631 3.29870
# Velocity P-wave (km/s) = 5.36137 5.62573 5.49514
#
# Compressibility (1/GPa) = 0.02638790
#
# Stress axis : x y z
#
# Youngs Moduli (GPa) = 83.06733 76.46878 50.53086
#
# Poissons Ratio (x) = 0.18773 0.09330
# Poissons Ratio (y) = 0.20393 0.25050
# Poissons Ratio (z) = 0.15338 0.37908
#
# Static dielectric constant tensor:
#      x y z
#    x 2.026360 0.000000 0.000000 
#    y 0.000000 1.991400 0.000000 
#    z 0.000000 0.000000 1.908540 
# 
# From -- ./inp_files/1105.got.cif
#   From: 2010.05.17/outbox.cif.g08.bks.cpg/sg45_1_cif.got.tgz:1105.got - 2010.06.03 19:51:22.
