data_PCOD9376302
_publ_section_title
;
Structure prediction by ZEFSAII (Michael W. Deem and Ramdas Pophale) SiO2 
 PCOD9376302
Probable space group: I B A 2
;
_chemical_formula_sum "Si O2"
_cell_formula_units_Z 48
_cell_length_a 5.469649
_cell_length_b 22.712960
_cell_length_c 15.309926
_cell_angle_alpha 90.000000
_cell_angle_beta 90.000000
_cell_angle_gamma 90.000000
_cell_volume 1901.981486
_symmetry_space_group_name_H-M "I B A 2"
_symmetry_group_IT_number 45
_symmetry_cell_setting 'orthorhombic'
loop_
_space_group_symop_operation_xyz
x,y,z
-x,-y,z
-x,y,1/2+z
x,-y,1/2+z
1/2+x,1/2+y,1/2+z
1/2-x,1/2-y,1/2+z
1/2-x,1/2+y,z
1/2+x,1/2-y,z
loop_
_atom_site_type_symbol
_atom_site_label
_atom_site_fract_x
_atom_site_fract_y
_atom_site_fract_z
Si Si1 0.546817 0.759877 0.183870
Si Si2 0.957422 0.390833 0.258509
Si Si3 0.951294 0.436182 0.436492
Si Si4 0.463104 0.432926 0.181222
Si Si5 0.447541 0.603732 0.002220
Si Si6 0.451131 0.716969 0.879930
O O1 0.296768 0.750047 0.133750
O O2 0.545592 0.826586 0.217329
O O3 0.548312 0.718371 0.272084
O O4 0.197556 0.424406 0.223628
O O5 0.976524 0.387265 0.362366
O O6 0.696945 0.421575 0.242174
O O7 0.679740 0.435689 0.473894
O O8 0.000000 0.500000 0.395459
O O9 0.175958 0.424315 0.501725
O O10 0.500000 0.500000 0.148922
O O11 0.490542 0.385737 0.103224
O O12 0.450974 0.656484 0.933097
O O13 0.202395 0.750497 0.903073
#
# Coordination Sequence:
#
# PCOD9376302 Si02
#       6
#     8   8   8   8   8   8
#     4  10  19  37  63  92 124 164 211 268 325 383
#     4  12  25  43  68  99 134 179 224 273 336 400
#     4  12  23  40  67 100 128 169 232 287 326 389
#     4  12  26  46  66  97 142 183 217 271 340 404
#     4  12  25  44  69  98 132 178 225 275 337 399
#     4  10  20  38  63  92 124 163 211 270 326 383
#
# _framework density 25.236839
#
# number of rings (size 3 to 8) (size 9 to 14) (size 15 to 20)
#    0.000    0.667    0.000   11.000    0.000    0.000 
#    0.000    5.000    0.000    0.000    0.000    0.000 
#    0.000    0.000    0.000    0.000    0.000    0.000 
#
# Total GULP energy -134355.830593 kJ/mol
# GULP energy per Si atom -5598.159608 kJ/mol
# Density = 2.517940 g / cm^3
# Si number density = 25.236839 Si / 1000 Ang^3
#
#
#
# Elastic Constant Matrix: (Units=GPa)
#
#
# Indices 1 2 3 4 5 6 
#
# 1 208.0687 41.9732 8.9877 0.0000 0.0000 0.0000
# 2 41.9732 63.3400 -9.8464 0.0000 0.0000 0.0000
# 3 8.9877 -9.8464 51.8994 -0.0001 0.0000 0.0000
# 4 0.0000 0.0000 -0.0001 17.4267 0.0000 0.0000
# 5 0.0000 0.0000 0.0000 0.0000 28.7673 0.0000
# 6 0.0000 0.0000 0.0000 0.0000 0.0000 37.1518
#
#
#
# Elastic Compliance Matrix: (Units=1/GPa)
#
#
# Indices 1 2 3 4 5 6 
#
# 1 0.005699 -0.004049 -0.001755 0.000000 0.000000 0.000000
# 2 -0.004049 0.019145 0.004333 0.000000 0.000000 0.000000
# 3 -0.001755 0.004333 0.020394 0.000000 0.000000 0.000000
# 4 0.000000 0.000000 0.000000 0.057383 0.000000 0.000000
# 5 0.000000 0.000000 0.000000 0.000000 0.034762 0.000000
# 6 0.000000 0.000000 0.000000 0.000000 0.000000 0.026917
#
#
# Mechanical properties :
#
#
# Convention : Reuss Voigt Hill
#
# Bulk Modulus (GPa) = 23.64307 45.05967 34.35137
# Shear Modulus (GPa) = 27.57259 35.48207 31.52733
#
# Velocity S-wave (km/s) = 3.30896 3.75369 3.53832
# Velocity P-wave (km/s) = 4.89774 6.05643 5.50764
#
# Compressibility (1/GPa) = 0.04229570
#
# Stress axis : x y z
#
# Youngs Moduli (GPa) = 175.47705 52.23381 49.03379
#
# Poissons Ratio (x) = 0.21150 0.08606
# Poissons Ratio (y) = 0.71054 -0.21248
# Poissons Ratio (z) = 0.30798 -0.22635
#
# Static dielectric constant tensor:
#      x y z
#    x 2.033660 0.000000 0.000000 
#    y 0.000000 2.035290 0.000000 
#    z 0.000000 0.000000 1.963640 
# 
# From -- ./inp_files/7294.got.cif
#   From: 2010.05.17/outbox.cif.g08.bks.cpg/sg45_4_cif.got.tgz:7294.got - 2010.06.03 19:51:22.
