data_PCOD9376075
_publ_section_title
;
Structure prediction by ZEFSAII (Michael W. Deem and Ramdas Pophale) SiO2 
 PCOD9376075
Probable space group: I B A 2
;
_chemical_formula_sum "Si O2"
_cell_formula_units_Z 56
_cell_length_a 24.271323
_cell_length_b 26.838428
_cell_length_c 5.365960
_cell_angle_alpha 90.000000
_cell_angle_beta 90.000000
_cell_angle_gamma 90.000000
_cell_volume 3495.408638
_symmetry_space_group_name_H-M "I B A 2"
_symmetry_group_IT_number 45
_symmetry_cell_setting 'orthorhombic'
loop_
_space_group_symop_operation_xyz
x,y,z
-x,-y,z
-x,y,1/2+z
x,-y,1/2+z
1/2+x,1/2+y,1/2+z
1/2-x,1/2-y,1/2+z
1/2-x,1/2+y,z
1/2+x,1/2-y,z
loop_
_atom_site_type_symbol
_atom_site_label
_atom_site_fract_x
_atom_site_fract_y
_atom_site_fract_z
Si Si1 0.145545 0.190689 0.977260
Si Si2 0.230690 0.339243 0.465964
Si Si3 0.315879 0.270595 0.971797
Si Si4 0.239681 0.369952 0.958226
Si Si5 0.467211 0.363147 0.623576
Si Si6 0.929148 0.972395 0.263126
Si Si7 0.703009 0.471795 0.305904
O O1 0.147367 0.220150 0.716450
O O2 0.201834 0.156906 0.972835
O O3 0.152350 0.227031 0.212184
O O4 0.090940 0.159883 0.035389
O O5 0.217763 0.280541 0.472513
O O6 0.210959 0.367916 0.222840
O O7 0.204538 0.362457 0.711442
O O8 0.275648 0.318670 0.968802
O O9 0.274780 0.419073 0.905413
O O10 0.509449 0.349728 0.399077
O O11 0.455091 0.421706 0.661417
O O12 0.862968 0.967525 0.279619
O O13 0.942749 0.987027 0.548596
O O14 0.719511 0.510674 0.526664
#
# Coordination Sequence:
#
# PCOD9376075 Si02
#       7
#     8   8   8   8   8   8   8
#     4  10  19  32  47  62  87 112 130 170 223 273
#     4  10  18  29  49  74  90 106 134 172 238 295
#     4  10  18  30  50  73  90 105 133 173 238 295
#     4  10  17  27  43  63  92 115 132 172 221 270
#     4  12  25  37  48  63  83 113 155 190 233 294
#     4  10  21  35  50  62  76 102 145 206 257 284
#     4  10  20  32  45  63  84 114 155 187 226 283
#
# _framework density 16.021014999999998
#
# number of rings (size 3 to 8) (size 9 to 14) (size 15 to 20)
#    0.000    1.714    0.000    8.571    0.000    8.571 
#    0.000    0.000    0.000    0.000    0.000    0.000 
#    0.000    0.000    0.000    0.000    0.000    0.000 
#
# Total GULP energy -155904.629178 kJ/mol
# GULP energy per Si atom -5568.022471 kJ/mol
# Density = 1.598455 g / cm^3
# Si number density = 16.021015 Si / 1000 Ang^3
#
#
#
# Elastic Constant Matrix: (Units=GPa)
#
#
# Indices 1 2 3 4 5 6 
#
# 1 18.5848 20.0471 6.4777 0.0000 0.0000 0.0000
# 2 20.0471 54.6791 20.8872 0.0000 0.0000 0.0000
# 3 6.4777 20.8872 154.4616 0.0000 0.0000 0.0000
# 4 0.0000 0.0000 0.0000 24.3731 0.0000 0.0000
# 5 0.0000 0.0000 0.0000 0.0000 25.6516 0.0000
# 6 0.0000 0.0000 0.0000 0.0000 0.0000 19.7823
#
#
#
# Elastic Compliance Matrix: (Units=1/GPa)
#
#
# Indices 1 2 3 4 5 6 
#
# 1 0.089084 -0.032935 0.000718 0.000000 0.000000 0.000000
# 2 -0.032935 0.031461 -0.002873 0.000000 0.000000 0.000000
# 3 0.000718 -0.002873 0.006833 0.000000 0.000000 0.000000
# 4 0.000000 0.000000 0.000000 0.041029 0.000000 0.000000
# 5 0.000000 0.000000 0.000000 0.000000 0.038984 0.000000
# 6 0.000000 0.000000 0.000000 0.000000 0.000000 0.050550
#
#
# Mechanical properties :
#
#
# Convention : Reuss Voigt Hill
#
# Bulk Modulus (GPa) = 17.48360 35.83883 26.66122
# Shear Modulus (GPa) = 14.40145 25.98230 20.19187
#
# Velocity S-wave (km/s) = 3.00144 4.03148 3.55397
# Velocity P-wave (km/s) = 4.79042 6.63995 5.78952
#
# Compressibility (1/GPa) = 0.05719645
#
# Stress axis : x y z
#
# Youngs Moduli (GPa) = 11.22536 31.78526 146.35883
#
# Poissons Ratio (x) = 1.04685 -0.10504
# Poissons Ratio (y) = 0.36971 0.42051
# Poissons Ratio (z) = -0.00806 0.09132
#
# Static dielectric constant tensor:
#      x y z
#    x 1.525850 0.000000 0.000000 
#    y 0.000000 1.553110 0.000000 
#    z 0.000000 0.000000 1.690210 
# 
# From -- ./inp_files/440.got.cif
#   From: 2010.05.17/outbox.cif.g08.bks.cpg/sg45_1_cif.got.tgz:440.got - 2010.06.03 19:51:22.
