data_PCOD9376986
_publ_section_title
;
Structure prediction by ZEFSAII (Michael W. Deem and Ramdas Pophale) SiO2 
 PCOD9376986
Probable space group: I B A 2
;
_chemical_formula_sum "Si O2"
_cell_formula_units_Z 40
_cell_length_a 8.758188
_cell_length_b 11.503305
_cell_length_c 15.537933
_cell_angle_alpha 90.000000
_cell_angle_beta 90.000000
_cell_angle_gamma 90.000000
_cell_volume 1565.417349
_symmetry_space_group_name_H-M "I B A 2"
_symmetry_group_IT_number 45
_symmetry_cell_setting 'orthorhombic'
loop_
_space_group_symop_operation_xyz
x,y,z
-x,-y,z
-x,y,1/2+z
x,-y,1/2+z
1/2+x,1/2+y,1/2+z
1/2-x,1/2-y,1/2+z
1/2-x,1/2+y,z
1/2+x,1/2-y,z
loop_
_atom_site_type_symbol
_atom_site_label
_atom_site_fract_x
_atom_site_fract_y
_atom_site_fract_z
Si Si1 0.873313 0.842327 0.869500
Si Si2 0.927302 0.127868 0.028854
Si Si3 0.904859 0.659178 0.642953
Si Si4 0.161047 0.498852 0.473575
Si Si5 0.128930 0.772813 0.753228
O O1 0.739309 0.762654 0.832487
O O2 0.992934 0.849222 0.792303
O O3 0.784520 0.952554 0.906055
O O4 0.977459 0.811720 0.952216
O O5 0.934566 0.210972 0.108925
O O6 0.747817 0.111394 0.008674
O O7 0.000000 0.000000 0.043472
O O8 0.878310 0.580818 0.557908
O O9 0.744593 0.659539 0.691694
O O10 0.049735 0.657052 0.708893
O O11 0.000000 0.500000 0.426927
#
# Coordination Sequence:
#
# PCOD9376986 Si02
#       5
#     8   8   8   8   8
#     4  10  22  40  62  94 134 167 217 269 326 405
#     4  10  22  42  68 100 132 177 228 274 329 399
#     4  11  22  42  69  95 135 173 222 282 331 399
#     4  11  24  42  68  99 128 176 230 275 328 399
#     4  10  22  40  65  98 132 177 212 270 352 394
#
# _framework density 25.552291
#
# number of rings (size 3 to 8) (size 9 to 14) (size 15 to 20)
#    0.000    1.600    0.000    4.800    0.000    6.400 
#    0.000   35.000    0.000    0.000    0.000    0.000 
#    0.000    0.000    0.000    0.000    0.000    0.000 
#
# Total GULP energy -111685.855552 kJ/mol
# GULP energy per Si atom -5584.292778 kJ/mol
# Density = 2.549413 g / cm^3
# Si number density = 25.552291 Si / 1000 Ang^3
#
#
#
# Elastic Constant Matrix: (Units=GPa)
#
#
# Indices 1 2 3 4 5 6 
#
# 1 170.9142 27.6003 36.7663 0.0000 0.0000 0.0000
# 2 27.6003 45.0817 35.7028 0.0000 0.0000 0.0000
# 3 36.7663 35.7028 107.2375 0.0000 0.0000 0.0000
# 4 0.0000 0.0000 0.0000 12.5262 0.0000 0.0000
# 5 0.0000 0.0000 0.0000 0.0000 26.4821 0.0000
# 6 0.0000 0.0000 0.0000 0.0000 0.0000 30.4208
#
#
#
# Elastic Compliance Matrix: (Units=1/GPa)
#
#
# Indices 1 2 3 4 5 6 
#
# 1 0.006614 -0.003060 -0.001249 0.000000 0.000000 0.000000
# 2 -0.003060 0.031541 -0.009452 0.000000 0.000000 0.000000
# 3 -0.001249 -0.009452 0.012900 0.000000 0.000000 0.000000
# 4 0.000000 0.000000 0.000000 0.079833 0.000000 0.000000
# 5 0.000000 0.000000 0.000000 0.000000 0.037761 0.000000
# 6 0.000000 0.000000 0.000000 0.000000 0.000000 0.032872
#
#
# Mechanical properties :
#
#
# Convention : Reuss Voigt Hill
#
# Bulk Modulus (GPa) = 42.49299 58.15246 50.32272
# Shear Modulus (GPa) = 21.10715 28.76342 24.93529
#
# Velocity S-wave (km/s) = 2.87720 3.35874 3.12725
# Velocity P-wave (km/s) = 5.26343 6.15216 5.72507
#
# Compressibility (1/GPa) = 0.02353329
#
# Stress axis : x y z
#
# Youngs Moduli (GPa) = 151.20196 31.70486 77.51937
#
# Poissons Ratio (x) = 0.09702 0.09679
# Poissons Ratio (y) = 0.46271 0.73270
# Poissons Ratio (z) = 0.18880 0.29967
#
# Static dielectric constant tensor:
#      x y z
#    x 2.050920 0.000000 0.000000 
#    y 0.000000 2.087390 0.000000 
#    z 0.000000 0.000000 2.061250 
# 
# From -- ./inp_files/5454.got.cif
#   From: 2010.05.17/outbox.cif.g08.bks.cpg/sg45_3_cif.got.tgz:5454.got - 2010.06.03 19:51:22.
