data_PCOD9376055
_publ_section_title
;
Structure prediction by ZEFSAII (Michael W. Deem and Ramdas Pophale) SiO2 
 PCOD9376055
Probable space group: I B A 2
;
_chemical_formula_sum "Si O2"
_cell_formula_units_Z 64
_cell_length_a 5.461013
_cell_length_b 25.465561
_cell_length_c 22.592435
_cell_angle_alpha 90.000000
_cell_angle_beta 90.000000
_cell_angle_gamma 90.000000
_cell_volume 3141.879321
_symmetry_space_group_name_H-M "I B A 2"
_symmetry_group_IT_number 45
_symmetry_cell_setting 'orthorhombic'
loop_
_space_group_symop_operation_xyz
x,y,z
-x,-y,z
-x,y,1/2+z
x,-y,1/2+z
1/2+x,1/2+y,1/2+z
1/2-x,1/2-y,1/2+z
1/2-x,1/2+y,z
1/2+x,1/2-y,z
loop_
_atom_site_type_symbol
_atom_site_label
_atom_site_fract_x
_atom_site_fract_y
_atom_site_fract_z
Si Si1 0.499892 0.760375 0.711390
Si Si2 0.499724 0.186499 0.039520
Si Si3 0.999480 0.383907 0.836845
Si Si4 0.000270 0.195853 0.588900
Si Si5 0.999518 0.617909 0.194589
Si Si6 0.999510 0.061168 0.693840
Si Si7 0.999895 0.716386 0.409329
Si Si8 0.500513 0.560845 0.838156
O O1 0.749881 0.749985 0.745186
O O2 0.499850 0.718851 0.656066
O O3 0.500001 0.819286 0.686810
O O4 0.248189 0.167463 0.069345
O O5 0.499689 0.249469 0.051937
O O6 0.751234 0.167468 0.069360
O O7 0.499815 0.181473 0.969343
O O8 0.999455 0.388355 0.765922
O O9 0.999861 0.323631 0.855194
O O10 0.249972 0.411118 0.858226
O O11 0.748682 0.410985 0.858224
O O12 0.250784 0.590347 0.174235
O O13 0.747928 0.590477 0.174245
O O14 0.999445 0.062668 0.765954
O O15 0.000000 0.000000 0.676578
O O16 0.249920 0.749990 0.409770
O O17 0.500000 0.500000 0.855291
#
# Coordination Sequence:
#
# PCOD9376055 Si02
#       8
#     8   8   8   8   8   8   8   8
#     4  12  21  31  48  68  99 141 160 192 235 280
#     4  10  16  30  47  65  86 121 156 210 238 261
#     4  10  21  33  46  72 102 128 167 197 225 294
#     4  10  16  30  47  65  86 121 156 210 238 261
#     4  10  21  33  46  72 102 128 167 197 225 294
#     4   9  17  33  54  70  90 124 162 209 252 271
#     4  12  21  31  48  68  99 141 160 192 235 280
#     4   9  17  33  54  70  90 124 162 209 252 271
#
# _framework density 20.369973999999999
#
# number of rings (size 3 to 8) (size 9 to 14) (size 15 to 20)
#    0.000    1.750    5.000    2.250    0.000    4.000 
#    0.000    0.000    0.000    0.000    0.000    0.000 
#    0.000    6.000    0.000    0.000    0.000    0.000 
#
# Total GULP energy -178607.213904 kJ/mol
# GULP energy per Si atom -5581.475434 kJ/mol
# Density = 2.032361 g / cm^3
# Si number density = 20.369974 Si / 1000 Ang^3
#
#
#
# Elastic Constant Matrix: (Units=GPa)
#
#
# Indices 1 2 3 4 5 6 
#
# 1 267.8215 86.1164 25.7991 0.0000 0.0000 0.0000
# 2 86.1164 98.5503 15.4203 0.0000 0.0000 0.0000
# 3 25.7991 15.4203 18.1356 0.0000 0.0000 0.0000
# 4 0.0000 0.0000 0.0000 11.1809 0.0000 0.0000
# 5 0.0000 0.0000 0.0000 0.0000 1.8651 0.0000
# 6 0.0000 0.0000 0.0000 0.0000 0.0000 17.6405
#
#
#
# Elastic Compliance Matrix: (Units=1/GPa)
#
#
# Indices 1 2 3 4 5 6 
#
# 1 0.005467 -0.004107 -0.004285 0.000000 0.000000 0.000000
# 2 -0.004107 0.014789 -0.006733 0.000000 0.000000 0.000000
# 3 -0.004285 -0.006733 0.066961 0.000000 0.000000 0.000000
# 4 0.000000 0.000000 0.000000 0.089438 0.000000 0.000000
# 5 0.000000 0.000000 0.000000 0.000000 0.536168 0.000000
# 6 0.000000 0.000000 0.000000 0.000000 0.000000 0.056688
#
#
# Mechanical properties :
#
#
# Convention : Reuss Voigt Hill
#
# Bulk Modulus (GPa) = 17.55385 71.01988 44.28686
# Shear Modulus (GPa) = 6.10686 23.28207 14.69447
#
# Velocity S-wave (km/s) = 1.73334 3.38444 2.68876
# Velocity P-wave (km/s) = 3.55559 7.08613 5.60604
#
# Compressibility (1/GPa) = 0.05696757
#
# Stress axis : x y z
#
# Youngs Moduli (GPa) = 182.90982 67.61659 14.93402
#
# Poissons Ratio (x) = 0.27769 0.06400
# Poissons Ratio (y) = 0.75118 0.10055
# Poissons Ratio (z) = 0.78385 0.45524
#
# Static dielectric constant tensor:
#      x y z
#    x 1.822220 0.000000 0.000000 
#    y 0.000000 1.697590 0.000000 
#    z 0.000000 0.000000 1.745210 
# 
# From -- ./inp_files/9468.got.cif
#   From: 2010.05.17/outbox.cif.g08.bks.cpg/sg45_5_cif.got.tgz:9468.got - 2010.06.03 19:51:22.
