data_PCOD9376882
_publ_section_title
;
Structure prediction by ZEFSAII (Michael W. Deem and Ramdas Pophale) SiO2 
 PCOD9376882
Probable space group: I B A 2
;
_chemical_formula_sum "Si O2"
_cell_formula_units_Z 48
_cell_length_a 14.414683
_cell_length_b 8.155742
_cell_length_c 17.829031
_cell_angle_alpha 90.000000
_cell_angle_beta 90.000000
_cell_angle_gamma 90.000000
_cell_volume 2096.024308
_symmetry_space_group_name_H-M "I B A 2"
_symmetry_group_IT_number 45
_symmetry_cell_setting 'orthorhombic'
loop_
_space_group_symop_operation_xyz
x,y,z
-x,-y,z
-x,y,1/2+z
x,-y,1/2+z
1/2+x,1/2+y,1/2+z
1/2-x,1/2-y,1/2+z
1/2-x,1/2+y,z
1/2+x,1/2-y,z
loop_
_atom_site_type_symbol
_atom_site_label
_atom_site_fract_x
_atom_site_fract_y
_atom_site_fract_z
Si Si1 0.371991 0.720428 0.435880
Si Si2 0.461321 0.187605 0.523228
Si Si3 0.367252 0.807623 0.264655
Si Si4 0.471267 0.315761 0.181382
Si Si5 0.788038 0.384337 0.185583
Si Si6 0.776904 0.475324 0.517955
O O1 0.480475 0.730909 0.456539
O O2 0.357466 0.736828 0.347711
O O3 0.319399 0.576240 0.480190
O O4 0.324352 0.881458 0.470817
O O5 0.489333 0.279008 0.598840
O O6 0.351460 0.173786 0.513357
O O7 0.500000 0.000000 0.532063
O O8 0.473189 0.800499 0.238464
O O9 0.308879 0.688746 0.210732
O O10 0.325198 0.985727 0.246799
O O11 0.500000 0.500000 0.201832
O O12 0.364215 0.261510 0.180683
O O13 0.777166 0.469129 0.104513
#
# Coordination Sequence:
#
# PCOD9376882 Si02
#       6
#     8   8   8   8   8   8
#     4  11  25  42  70 105 141 183 236 292 368 424
#     4  10  21  43  68  99 136 184 235 284 356 424
#     4  12  26  43  70 107 143 187 235 305 368 423
#     4  12  25  42  70 104 139 186 244 295 356 431
#     4  12  24  46  72 103 142 194 242 294 359 437
#     4  11  23  44  71 100 137 191 237 289 355 432
#
# _framework density 22.900496
#
# number of rings (size 3 to 8) (size 9 to 14) (size 15 to 20)
#    0.000    0.667    5.000    3.500    2.333    5.333 
#    0.000    0.833    0.000    0.000    0.000    0.000 
#    0.000    0.000    0.000    0.000    0.000    0.000 
#
# Total GULP energy -134360.176404 kJ/mol
# GULP energy per Si atom -5598.340684 kJ/mol
# Density = 2.284837 g / cm^3
# Si number density = 22.900496 Si / 1000 Ang^3
#
#
#
# Elastic Constant Matrix: (Units=GPa)
#
#
# Indices 1 2 3 4 5 6 
#
# 1 104.6142 20.0624 51.4005 0.0000 0.0000 0.0000
# 2 20.0624 67.1753 9.0612 0.0000 0.0000 0.0000
# 3 51.4005 9.0612 118.2687 0.0000 0.0000 0.0000
# 4 0.0000 0.0000 0.0000 16.6417 0.0000 0.0000
# 5 0.0000 0.0000 0.0000 0.0000 26.1349 0.0000
# 6 0.0000 0.0000 0.0000 0.0000 0.0000 35.3177
#
#
#
# Elastic Compliance Matrix: (Units=1/GPa)
#
#
# Indices 1 2 3 4 5 6 
#
# 1 0.012761 -0.003095 -0.005309 0.000000 0.000000 0.000000
# 2 -0.003095 0.015793 0.000135 0.000000 0.000000 0.000000
# 3 -0.005309 0.000135 0.010752 0.000000 0.000000 0.000000
# 4 0.000000 0.000000 0.000000 0.060090 0.000000 0.000000
# 5 0.000000 0.000000 0.000000 0.000000 0.038263 0.000000
# 6 0.000000 0.000000 0.000000 0.000000 0.000000 0.028314
#
#
# Mechanical properties :
#
#
# Convention : Reuss Voigt Hill
#
# Bulk Modulus (GPa) = 43.92081 50.12292 47.02186
# Shear Modulus (GPa) = 26.30194 29.58780 27.94487
#
# Velocity S-wave (km/s) = 3.39268 3.59836 3.49703
# Velocity P-wave (km/s) = 5.87942 6.26091 6.07316
#
# Compressibility (1/GPa) = 0.02276825
#
# Stress axis : x y z
#
# Youngs Moduli (GPa) = 78.36434 63.32105 93.00386
#
# Poissons Ratio (x) = 0.19598 0.49374
# Poissons Ratio (y) = 0.24254 -0.01257
# Poissons Ratio (z) = 0.41603 -0.00856
#
# Static dielectric constant tensor:
#      x y z
#    x 1.852550 0.000000 0.000000 
#    y 0.000000 1.904280 0.000000 
#    z 0.000000 0.000000 1.807590 
# 
# From -- ./inp_files/7580.got.cif
#   From: 2010.05.17/outbox.cif.g08.bks.cpg/sg45_4_cif.got.tgz:7580.got - 2010.06.03 19:51:22.
