data_PCOD9376229
_publ_section_title
;
Structure prediction by ZEFSAII (Michael W. Deem and Ramdas Pophale) SiO2 
 PCOD9376229
Probable space group: I B A 2
;
_chemical_formula_sum "Si O2"
_cell_formula_units_Z 64
_cell_length_a 27.568278
_cell_length_b 9.422886
_cell_length_c 12.185989
_cell_angle_alpha 90.000000
_cell_angle_beta 90.000000
_cell_angle_gamma 90.000000
_cell_volume 3165.587762
_symmetry_space_group_name_H-M "I B A 2"
_symmetry_group_IT_number 45
_symmetry_cell_setting 'orthorhombic'
loop_
_space_group_symop_operation_xyz
x,y,z
-x,-y,z
-x,y,1/2+z
x,-y,1/2+z
1/2+x,1/2+y,1/2+z
1/2-x,1/2-y,1/2+z
1/2-x,1/2+y,z
1/2+x,1/2-y,z
loop_
_atom_site_type_symbol
_atom_site_label
_atom_site_fract_x
_atom_site_fract_y
_atom_site_fract_z
Si Si1 0.441662 0.848670 0.471410
Si Si2 0.865191 0.372722 0.793342
Si Si3 0.210675 0.764882 0.211641
Si Si4 0.294727 0.918983 0.915469
Si Si5 0.276825 0.542026 0.088360
Si Si6 0.599798 0.831829 0.207712
Si Si7 0.138657 0.768398 0.568396
Si Si8 0.050811 0.690615 0.436841
O O1 0.398766 0.808287 0.387992
O O2 0.429123 0.811713 0.596118
O O3 0.493524 0.783944 0.439910
O O4 0.444193 0.020942 0.460255
O O5 0.819570 0.453349 0.847358
O O6 0.893906 0.500151 0.731622
O O7 0.854024 0.265294 0.696385
O O8 0.220394 0.705940 0.332990
O O9 0.244294 0.673245 0.130038
O O10 0.153837 0.729758 0.194019
O O11 0.219877 0.928164 0.186110
O O12 0.335917 0.856010 0.996566
O O13 0.250974 0.971069 0.988173
O O14 0.329422 0.592690 0.049605
O O15 0.573725 0.776641 0.317670
O O16 0.083517 0.769763 0.527503
#
# Coordination Sequence:
#
# PCOD9376229 Si02
#       8
#     8   8   8   8   8   8   8   8
#     4  10  19  32  60  94 129 164 214 265 336 384
#     4  10  19  36  63  91 131 170 209 274 325 384
#     4  11  25  41  64  94 126 167 223 262 328 389
#     4  11  22  43  62  90 134 176 213 270 333 393
#     4  12  27  41  67  95 126 177 214 275 328 395
#     4  10  19  37  58  87 128 163 215 262 323 389
#     4  12  22  41  59  95 137 163 220 272 334 387
#     4  10  21  32  58  94 127 172 203 274 331 387
#
# _framework density 20.217413000000001
#
# number of rings (size 3 to 8) (size 9 to 14) (size 15 to 20)
#    0.000    1.250    6.250    2.250    3.500    1.000 
#    2.250    0.000    0.000    0.750    0.000    0.000 
#    0.000    0.000    0.000    0.000    0.000    0.000 
#
# Total GULP energy -178837.891454 kJ/mol
# GULP energy per Si atom -5588.684108 kJ/mol
# Density = 2.017140 g / cm^3
# Si number density = 20.217413 Si / 1000 Ang^3
#
#
#
# Elastic Constant Matrix: (Units=GPa)
#
#
# Indices 1 2 3 4 5 6 
#
# 1 103.0830 32.1962 41.2773 0.0000 0.0000 0.0000
# 2 32.1962 32.9271 10.3215 0.0000 0.0000 0.0000
# 3 41.2773 10.3215 104.1813 0.0000 0.0000 0.0000
# 4 0.0000 0.0000 0.0000 10.3576 0.0000 0.0000
# 5 0.0000 0.0000 0.0000 0.0000 31.4715 0.0000
# 6 0.0000 0.0000 0.0000 0.0000 0.0000 21.9129
#
#
#
# Elastic Compliance Matrix: (Units=1/GPa)
#
#
# Indices 1 2 3 4 5 6 
#
# 1 0.016137 -0.014217 -0.004985 0.000000 0.000000 0.000000
# 2 -0.014217 0.043868 0.001287 0.000000 0.000000 0.000000
# 3 -0.004985 0.001287 0.011446 0.000000 0.000000 0.000000
# 4 0.000000 0.000000 0.000000 0.096548 0.000000 0.000000
# 5 0.000000 0.000000 0.000000 0.000000 0.031775 0.000000
# 6 0.000000 0.000000 0.000000 0.000000 0.000000 0.045635
#
#
# Mechanical properties :
#
#
# Convention : Reuss Voigt Hill
#
# Bulk Modulus (GPa) = 28.07323 45.30907 36.69115
# Shear Modulus (GPa) = 17.05824 23.17483 20.11654
#
# Velocity S-wave (km/s) = 2.90787 3.38935 3.15780
# Velocity P-wave (km/s) = 5.01897 6.14626 5.61100
#
# Compressibility (1/GPa) = 0.03562113
#
# Stress axis : x y z
#
# Youngs Moduli (GPa) = 61.96753 22.79577 87.36375
#
# Poissons Ratio (x) = 0.32408 0.43553
# Poissons Ratio (y) = 0.88097 -0.11240
# Poissons Ratio (z) = 0.30893 -0.02933
#
# Static dielectric constant tensor:
#      x y z
#    x 1.724980 0.000000 0.000000 
#    y 0.000000 1.711450 0.000000 
#    z 0.000000 0.000000 1.723910 
# 
# From -- ./inp_files/4981.got.cif
#   From: 2010.05.17/outbox.cif.g08.bks.cpg/sg45_3_cif.got.tgz:4981.got - 2010.06.03 19:51:22.
