data_PCOD9376639
_publ_section_title
;
Structure prediction by ZEFSAII (Michael W. Deem and Ramdas Pophale) SiO2 
 PCOD9376639
Probable space group: I B A 2
;
_chemical_formula_sum "Si O2"
_cell_formula_units_Z 48
_cell_length_a 5.309631
_cell_length_b 20.999523
_cell_length_c 21.040907
_cell_angle_alpha 90.000000
_cell_angle_beta 90.000000
_cell_angle_gamma 90.000000
_cell_volume 2346.055203
_symmetry_space_group_name_H-M "I B A 2"
_symmetry_group_IT_number 45
_symmetry_cell_setting 'orthorhombic'
loop_
_space_group_symop_operation_xyz
x,y,z
-x,-y,z
-x,y,1/2+z
x,-y,1/2+z
1/2+x,1/2+y,1/2+z
1/2-x,1/2-y,1/2+z
1/2-x,1/2+y,z
1/2+x,1/2-y,z
loop_
_atom_site_type_symbol
_atom_site_label
_atom_site_fract_x
_atom_site_fract_y
_atom_site_fract_z
Si Si1 0.000000 0.000000 0.473090
Si Si2 0.317246 0.892793 0.516315
Si Si3 0.500001 0.706102 0.577208
Si Si4 0.317246 0.892793 0.138100
Si Si5 0.119303 0.571550 0.255680
Si Si6 0.880697 0.571550 0.898734
Si Si7 0.500000 0.500000 0.181324
O O1 0.890208 0.945172 0.427694
O O2 0.206741 0.964116 0.514395
O O3 0.084665 0.843836 0.522592
O O4 0.500000 0.884646 0.577207
O O5 0.471389 0.887286 0.450800
O O6 0.250001 0.750000 0.577208
O O7 0.915337 0.843837 0.631823
O O8 0.471388 0.887286 0.203615
O O9 0.206741 0.964117 0.140019
O O10 0.122788 0.596724 0.327207
O O11 0.390207 0.554827 0.226720
O O12 0.000000 0.500000 0.258056
O O13 0.000000 0.500000 0.896359
#
# Coordination Sequence:
#
# PCOD9376639 Si02
#       7
#     4   8   8   8   8   8   4
#     4  10  21  33  60  96 139 171 218 262 349 401
#     4  11  23  39  61  95 129 171 213 273 329 401
#     4  12  26  45  66  89 124 166 224 276 328 378
#     4  11  23  39  61  95 129 171 213 273 329 401
#     4   9  19  35  56  89 132 172 211 261 329 403
#     4   9  19  35  56  89 132 172 211 261 329 403
#     4  10  21  33  60  96 139 171 218 262 349 401
#
# _framework density 20.459878
#
# number of rings (size 3 to 8) (size 9 to 14) (size 15 to 20)
#    0.000    1.667    1.667    2.500    0.000   17.333 
#    0.000    0.000    0.000    2.000    0.000    0.000 
#    0.000    0.000    0.000    0.000    0.000    0.000 
#
# Total GULP energy -133697.613701 kJ/mol
# GULP energy per Si atom -5570.733904 kJ/mol
# Density = 2.041331 g / cm^3
# Si number density = 20.459878 Si / 1000 Ang^3
#
#
#
# Elastic Constant Matrix: (Units=GPa)
#
#
# Indices 1 2 3 4 5 6 
#
# 1 118.2188 33.5340 68.2919 0.0000 0.0000 0.0000
# 2 33.5340 47.3493 65.9507 0.0000 0.0000 0.0000
# 3 68.2919 65.9507 163.8511 0.0000 0.0000 0.0000
# 4 0.0000 0.0000 0.0000 4.2191 0.0000 0.0000
# 5 0.0000 0.0000 0.0000 0.0000 20.7113 0.0000
# 6 0.0000 0.0000 0.0000 0.0000 0.0000 56.1182
#
#
#
# Elastic Compliance Matrix: (Units=1/GPa)
#
#
# Indices 1 2 3 4 5 6 
#
# 1 0.011364 -0.003303 -0.003407 0.000000 0.000000 0.000000
# 2 -0.003303 0.049028 -0.018357 0.000000 0.000000 0.000000
# 3 -0.003407 -0.018357 0.014912 0.000000 0.000000 0.000000
# 4 0.000000 0.000000 0.000000 0.237018 0.000000 0.000000
# 5 0.000000 0.000000 0.000000 0.000000 0.048283 0.000000
# 6 0.000000 0.000000 0.000000 0.000000 0.000000 0.017820
#
#
# Mechanical properties :
#
#
# Convention : Reuss Voigt Hill
#
# Bulk Modulus (GPa) = 39.73044 73.88581 56.80813
# Shear Modulus (GPa) = 11.44301 26.98589 19.21445
#
# Velocity S-wave (km/s) = 2.36750 3.63570 3.06784
# Velocity P-wave (km/s) = 5.18982 7.33589 6.35412
#
# Compressibility (1/GPa) = 0.02516962
#
# Stress axis : x y z
#
# Youngs Moduli (GPa) = 87.99803 20.39655 67.05990
#
# Poissons Ratio (x) = 0.06736 0.22848
# Poissons Ratio (y) = 0.29063 1.23104
# Poissons Ratio (z) = 0.29981 0.37443
#
# Static dielectric constant tensor:
#      x y z
#    x 1.865590 0.000000 0.000000 
#    y 0.000000 1.748930 0.000000 
#    z 0.000000 0.000000 1.748830 
# 
# From -- ./inp_files/8662.got.cif
#   From: 2010.05.17/outbox.cif.g08.bks.cpg/sg45_5_cif.got.tgz:8662.got - 2010.06.03 19:51:22.
