data_PCOD9376858
_publ_section_title
;
Structure prediction by ZEFSAII (Michael W. Deem and Ramdas Pophale) SiO2 
 PCOD9376858
Probable space group: I B A 2
;
_chemical_formula_sum "Si O2"
_cell_formula_units_Z 40
_cell_length_a 21.173714
_cell_length_b 8.733537
_cell_length_c 8.954106
_cell_angle_alpha 90.000000
_cell_angle_beta 90.000000
_cell_angle_gamma 90.000000
_cell_volume 1655.805948
_symmetry_space_group_name_H-M "I B A 2"
_symmetry_group_IT_number 45
_symmetry_cell_setting 'orthorhombic'
loop_
_space_group_symop_operation_xyz
x,y,z
-x,-y,z
-x,y,1/2+z
x,-y,1/2+z
1/2+x,1/2+y,1/2+z
1/2-x,1/2-y,1/2+z
1/2-x,1/2+y,z
1/2+x,1/2-y,z
loop_
_atom_site_type_symbol
_atom_site_label
_atom_site_fract_x
_atom_site_fract_y
_atom_site_fract_z
Si Si1 0.484799 0.330694 0.217850
Si Si2 0.547027 0.131589 0.438287
Si Si3 0.343802 0.671033 0.750123
Si Si4 0.737072 0.373278 0.227843
Si Si5 0.319040 0.171732 0.956887
O O1 0.500000 0.500000 0.159642
O O2 0.540299 0.271805 0.323691
O O3 0.416040 0.337328 0.298916
O O4 0.476865 0.203010 0.092190
O O5 0.618052 0.071811 0.452826
O O6 0.500000 0.000000 0.388591
O O7 0.302137 0.520444 0.774444
O O8 0.304732 0.822899 0.800661
O O9 0.342465 0.691183 0.568300
O O10 0.696440 0.231228 0.291642
O O11 0.759055 0.384179 0.055059
#
# Coordination Sequence:
#
# PCOD9376858 Si02
#       5
#     8   8   8   8   8
#     4  11  23  46  68 100 137 182 231 282 343 408
#     4  11  24  47  69 102 138 181 234 283 341 408
#     4   9  23  39  63  93 132 170 223 271 334 396
#     4  10  21  42  65  93 136 168 222 274 335 406
#     4   9  23  42  65  96 133 168 226 270 340 396
#
# _framework density 24.157422
#
# number of rings (size 3 to 8) (size 9 to 14) (size 15 to 20)
#    1.200    0.800    0.000    2.400    2.800    3.200 
#   10.800    0.000    0.000    0.000    0.000    0.000 
#    0.000    0.000    0.000    0.000    0.000    0.000 
#
# Total GULP energy -111337.978841 kJ/mol
# GULP energy per Si atom -5566.898942 kJ/mol
# Density = 2.410244 g / cm^3
# Si number density = 24.157422 Si / 1000 Ang^3
#
#
#
# Elastic Constant Matrix: (Units=GPa)
#
#
# Indices 1 2 3 4 5 6 
#
# 1 77.9096 3.9573 24.4024 0.0000 0.0000 0.0000
# 2 3.9573 50.4131 -1.1966 0.0000 0.0000 0.0000
# 3 24.4024 -1.1966 61.8742 0.0000 0.0000 0.0000
# 4 0.0000 0.0000 0.0000 11.7896 0.0000 0.0000
# 5 0.0000 0.0000 0.0000 0.0000 28.8005 0.0000
# 6 0.0000 0.0000 0.0000 0.0000 0.0000 39.7126
#
#
#
# Elastic Compliance Matrix: (Units=1/GPa)
#
#
# Indices 1 2 3 4 5 6 
#
# 1 0.014728 -0.001295 -0.005834 0.000000 0.000000 0.000000
# 2 -0.001295 0.019959 0.000897 0.000000 0.000000 0.000000
# 3 -0.005834 0.000897 0.018480 0.000000 0.000000 0.000000
# 4 0.000000 0.000000 0.000000 0.084820 0.000000 0.000000
# 5 0.000000 0.000000 0.000000 0.000000 0.034722 0.000000
# 6 0.000000 0.000000 0.000000 0.000000 0.000000 0.025181
#
#
# Mechanical properties :
#
#
# Convention : Reuss Voigt Hill
#
# Bulk Modulus (GPa) = 24.56774 27.16923 25.86849
# Shear Modulus (GPa) = 22.32926 26.92948 24.62937
#
# Velocity S-wave (km/s) = 3.04357 3.34241 3.19648
# Velocity P-wave (km/s) = 4.74795 5.11535 4.93507
#
# Compressibility (1/GPa) = 0.04070378
#
# Stress axis : x y z
#
# Youngs Moduli (GPa) = 67.89627 50.10266 54.11285
#
# Poissons Ratio (x) = 0.06486 0.31568
# Poissons Ratio (y) = 0.08790 -0.04852
# Poissons Ratio (z) = 0.39609 -0.04492
#
# Static dielectric constant tensor:
#      x y z
#    x 1.969800 0.000000 0.000000 
#    y 0.000000 1.912270 0.000000 
#    z 0.000000 0.000000 1.952550 
# 
# From -- ./inp_files/4588.got.cif
#   From: 2010.05.17/outbox.cif.g08.bks.cpg/sg45_3_cif.got.tgz:4588.got - 2010.06.03 19:51:22.
