data_PCOD9376338
_publ_section_title
;
Structure prediction by ZEFSAII (Michael W. Deem and Ramdas Pophale) SiO2 
 PCOD9376338
Probable space group: I B A 2
;
_chemical_formula_sum "Si O2"
_cell_formula_units_Z 64
_cell_length_a 13.888609
_cell_length_b 16.520712
_cell_length_c 11.873654
_cell_angle_alpha 90.000000
_cell_angle_beta 90.000000
_cell_angle_gamma 90.000000
_cell_volume 2724.406459
_symmetry_space_group_name_H-M "I B A 2"
_symmetry_group_IT_number 45
_symmetry_cell_setting 'orthorhombic'
loop_
_space_group_symop_operation_xyz
x,y,z
-x,-y,z
-x,y,1/2+z
x,-y,1/2+z
1/2+x,1/2+y,1/2+z
1/2-x,1/2-y,1/2+z
1/2-x,1/2+y,z
1/2+x,1/2-y,z
loop_
_atom_site_type_symbol
_atom_site_label
_atom_site_fract_x
_atom_site_fract_y
_atom_site_fract_z
Si Si1 0.582578 0.838743 0.044370
Si Si2 0.422229 0.383746 0.616052
Si Si3 0.323110 0.552987 0.308157
Si Si4 0.248605 0.055339 0.969743
Si Si5 0.297431 0.220844 0.663002
Si Si6 0.165583 0.674377 0.284436
Si Si7 0.885103 0.169749 0.010588
Si Si8 0.385502 0.097894 0.521847
O O1 0.591771 0.820946 0.179476
O O2 0.682783 0.870497 0.995291
O O3 0.563486 0.754678 0.978850
O O4 0.500847 0.905459 0.024086
O O5 0.412237 0.436187 0.728055
O O6 0.352726 0.430838 0.530518
O O7 0.369179 0.296072 0.634570
O O8 0.531644 0.373894 0.580686
O O9 0.285314 0.466114 0.344057
O O10 0.231990 0.597285 0.251292
O O11 0.349901 0.609129 0.414928
O O12 0.315648 0.978739 0.006784
O O13 0.238940 0.249632 0.773475
O O14 0.208763 0.200308 0.578025
O O15 0.360065 0.141749 0.639971
O O16 0.132185 0.654919 0.410416
#
# Coordination Sequence:
#
# PCOD9376338 Si02
#       8
#     8   8   8   8   8   8   8   8
#     4  11  22  41  71 104 134 181 232 294 352 425
#     4  11  23  44  69  95 141 175 234 287 343 424
#     4  10  22  44  68  92 141 181 221 292 344 418
#     4  11  22  42  67  96 143 184 216 291 357 415
#     4  10  19  41  65  97 135 180 223 287 346 398
#     4   9  20  40  67  87 141 179 219 290 344 413
#     4  11  21  40  72  96 127 182 234 281 345 407
#     4  11  22  42  66 102 140 181 232 294 351 419
#
# _framework density 23.491356
#
# number of rings (size 3 to 8) (size 9 to 14) (size 15 to 20)
#    0.000    1.500    7.500    0.375    0.000    2.500 
#    2.250    5.000    0.000    0.000    0.000    0.000 
#    0.000    0.000    0.000    0.000    0.000    0.000 
#
# Total GULP energy -178313.196799 kJ/mol
# GULP energy per Si atom -5572.287400 kJ/mol
# Density = 2.343789 g / cm^3
# Si number density = 23.491356 Si / 1000 Ang^3
#
#
#
# Elastic Constant Matrix: (Units=GPa)
#
#
# Indices 1 2 3 4 5 6 
#
# 1 108.2779 15.3288 17.7618 0.0000 0.0000 0.0000
# 2 15.3288 48.3888 12.6156 0.0000 0.0000 0.0000
# 3 17.7618 12.6156 43.6714 0.0000 0.0000 0.0000
# 4 0.0000 0.0000 0.0000 32.9834 0.0000 0.0000
# 5 0.0000 0.0000 0.0000 0.0000 31.9865 0.0000
# 6 0.0000 0.0000 0.0000 0.0000 0.0000 39.2008
#
#
#
# Elastic Compliance Matrix: (Units=1/GPa)
#
#
# Indices 1 2 3 4 5 6 
#
# 1 0.010129 -0.002308 -0.003453 0.000000 0.000000 0.000000
# 2 -0.002308 0.022875 -0.005669 0.000000 0.000000 0.000000
# 3 -0.003453 -0.005669 0.025940 0.000000 0.000000 0.000000
# 4 0.000000 0.000000 0.000000 0.030318 0.000000 0.000000
# 5 0.000000 0.000000 0.000000 0.000000 0.031263 0.000000
# 6 0.000000 0.000000 0.000000 0.000000 0.000000 0.025510
#
#
# Mechanical properties :
#
#
# Convention : Reuss Voigt Hill
#
# Bulk Modulus (GPa) = 27.71345 32.41672 30.06509
# Shear Modulus (GPa) = 27.63595 31.14294 29.38944
#
# Velocity S-wave (km/s) = 3.43363 3.64499 3.54089
# Velocity P-wave (km/s) = 5.24811 5.61641 5.43538
#
# Compressibility (1/GPa) = 0.03608356
#
# Stress axis : x y z
#
# Youngs Moduli (GPa) = 98.72966 43.71533 38.55015
#
# Poissons Ratio (x) = 0.10092 0.13310
# Poissons Ratio (y) = 0.22791 0.21855
# Poissons Ratio (z) = 0.34088 0.24783
#
# Static dielectric constant tensor:
#      x y z
#    x 1.913400 0.000000 0.000000 
#    y 0.000000 1.940740 0.000000 
#    z 0.000000 0.000000 1.945630 
# 
# From -- ./inp_files/4284.got.cif
#   From: 2010.05.17/outbox.cif.g08.bks.cpg/sg45_3_cif.got.tgz:4284.got - 2010.06.03 19:51:22.
