data_PCOD9376226
_publ_section_title
;
Structure prediction by ZEFSAII (Michael W. Deem and Ramdas Pophale) SiO2 
 PCOD9376226
Probable space group: I B A 2
;
_chemical_formula_sum "Si O2"
_cell_formula_units_Z 64
_cell_length_a 9.664600
_cell_length_b 19.520321
_cell_length_c 16.868168
_cell_angle_alpha 90.000000
_cell_angle_beta 90.000000
_cell_angle_gamma 90.000000
_cell_volume 3182.282693
_symmetry_space_group_name_H-M "I B A 2"
_symmetry_group_IT_number 45
_symmetry_cell_setting 'orthorhombic'
loop_
_space_group_symop_operation_xyz
x,y,z
-x,-y,z
-x,y,1/2+z
x,-y,1/2+z
1/2+x,1/2+y,1/2+z
1/2-x,1/2-y,1/2+z
1/2-x,1/2+y,z
1/2+x,1/2-y,z
loop_
_atom_site_type_symbol
_atom_site_label
_atom_site_fract_x
_atom_site_fract_y
_atom_site_fract_z
Si Si1 0.606375 0.061667 0.985520
Si Si2 0.204923 0.239172 0.437493
Si Si3 0.882081 0.917334 0.419875
Si Si4 0.565918 0.208599 0.218648
Si Si5 0.538705 0.797920 0.540904
Si Si6 0.342179 0.443737 0.358834
Si Si7 0.528837 0.075832 0.323348
Si Si8 0.851029 0.193526 0.285441
O O1 0.772712 0.053428 0.985041
O O2 0.577193 0.088182 0.895183
O O3 0.500000 0.000000 0.996498
O O4 0.561770 0.120893 0.043913
O O5 0.155351 0.162568 0.412331
O O6 0.320135 0.231380 0.505201
O O7 0.275924 0.279957 0.365696
O O8 0.078322 0.278407 0.477908
O O9 0.048719 0.923695 0.428512
O O10 0.858627 0.974138 0.349778
O O11 0.513069 0.223153 0.130609
O O12 0.528047 0.135523 0.258911
O O13 0.732499 0.209941 0.221111
O O14 0.490425 0.264885 0.272434
O O15 0.178862 0.429875 0.366311
O O16 0.379401 0.387596 0.291964
O O17 0.500000 0.000000 0.289675
#
# Coordination Sequence:
#
# PCOD9376226 Si02
#       8
#     8   8   8   8   8   8   8   8
#     4  10  19  35  58  84 118 156 208 256 300 358
#     4  11  22  38  62  89 116 157 211 255 298 365
#     4  10  19  32  54  86 116 145 191 255 307 342
#     4  11  23  38  58  88 127 162 199 255 321 372
#     4  11  23  38  58  88 127 162 199 255 321 372
#     4  10  19  32  54  86 116 145 191 255 307 342
#     4  10  19  35  58  84 118 156 208 256 300 358
#     4  11  22  38  62  89 116 157 211 255 298 365
#
# _framework density 20.111350999999999
#
# number of rings (size 3 to 8) (size 9 to 14) (size 15 to 20)
#    0.000    1.500    2.500    6.000    0.000    0.500 
#    0.000    0.000    0.000    0.000    0.000   19.250 
#    0.000    0.000    0.000    0.000    0.000    0.000 
#
# Total GULP energy -178189.803530 kJ/mol
# GULP energy per Si atom -5568.431360 kJ/mol
# Density = 2.006558 g / cm^3
# Si number density = 20.111351 Si / 1000 Ang^3
#
#
#
# Elastic Constant Matrix: (Units=GPa)
#
#
# Indices 1 2 3 4 5 6 
#
# 1 107.7705 29.3502 8.4120 0.0000 0.0000 0.0000
# 2 29.3502 79.4713 12.7038 0.0000 0.0000 0.0000
# 3 8.4120 12.7038 48.4259 0.0000 0.0000 0.0000
# 4 0.0000 0.0000 0.0000 12.7832 0.0000 0.0000
# 5 0.0000 0.0000 0.0000 0.0000 17.7817 0.0000
# 6 0.0000 0.0000 0.0000 0.0000 0.0000 27.0885
#
#
#
# Elastic Compliance Matrix: (Units=1/GPa)
#
#
# Indices 1 2 3 4 5 6 
#
# 1 0.010348 -0.003689 -0.000830 0.000000 0.000000 0.000000
# 2 -0.003689 0.014449 -0.003150 0.000000 0.000000 0.000000
# 3 -0.000830 -0.003150 0.021621 0.000000 0.000000 0.000000
# 4 0.000000 0.000000 0.000000 0.078228 0.000000 0.000000
# 5 0.000000 0.000000 0.000000 0.000000 0.056237 0.000000
# 6 0.000000 0.000000 0.000000 0.000000 0.000000 0.036916
#
#
# Mechanical properties :
#
#
# Convention : Reuss Voigt Hill
#
# Bulk Modulus (GPa) = 32.17428 37.39998 34.78713
# Shear Modulus (GPa) = 20.53414 23.87747 22.20580
#
# Velocity S-wave (km/s) = 3.19881 3.44941 3.32647
# Velocity P-wave (km/s) = 5.44757 5.87379 5.66469
#
# Compressibility (1/GPa) = 0.03108073
#
# Stress axis : x y z
#
# Youngs Moduli (GPa) = 96.63262 69.20822 46.25238
#
# Poissons Ratio (x) = 0.25533 0.03838
# Poissons Ratio (y) = 0.35650 0.14568
# Poissons Ratio (z) = 0.08019 0.21798
#
# Static dielectric constant tensor:
#      x y z
#    x 1.787080 0.000000 0.000000 
#    y 0.000000 1.760450 0.000000 
#    z 0.000000 0.000000 1.693260 
# 
# From -- ./inp_files/7763.got.cif
#   From: 2010.05.17/outbox.cif.g08.bks.cpg/sg45_4_cif.got.tgz:7763.got - 2010.06.03 19:51:22.
