data_PCOD9376677
_publ_section_title
;
Structure prediction by ZEFSAII (Michael W. Deem and Ramdas Pophale) SiO2 
 PCOD9376677
Probable space group: I B A 2
;
_chemical_formula_sum "Si O2"
_cell_formula_units_Z 48
_cell_length_a 9.544454
_cell_length_b 22.967901
_cell_length_c 8.014648
_cell_angle_alpha 90.000000
_cell_angle_beta 90.000000
_cell_angle_gamma 90.000000
_cell_volume 1756.939674
_symmetry_space_group_name_H-M "I B A 2"
_symmetry_group_IT_number 45
_symmetry_cell_setting 'orthorhombic'
loop_
_space_group_symop_operation_xyz
x,y,z
-x,-y,z
-x,y,1/2+z
x,-y,1/2+z
1/2+x,1/2+y,1/2+z
1/2-x,1/2-y,1/2+z
1/2-x,1/2+y,z
1/2+x,1/2-y,z
loop_
_atom_site_type_symbol
_atom_site_label
_atom_site_fract_x
_atom_site_fract_y
_atom_site_fract_z
Si Si1 0.687132 0.235761 0.430210
Si Si2 0.000000 0.500000 0.192199
Si Si3 0.381591 0.587398 0.934742
Si Si4 0.500000 0.500000 0.663305
Si Si5 0.644723 0.077047 0.931216
Si Si6 0.622181 0.642292 0.111310
Si Si7 0.573303 0.802447 0.259437
O O1 0.645004 0.295444 0.528128
O O2 0.584191 0.221582 0.274480
O O3 0.645162 0.191164 0.578232
O O4 0.837207 0.255346 0.363445
O O5 0.873317 0.476711 0.305426
O O6 0.948022 0.554054 0.084281
O O7 0.450472 0.551202 0.782588
O O8 0.373139 0.530159 0.056455
O O9 0.460504 0.629770 0.063993
O O10 0.315157 0.633375 0.799388
O O11 0.795624 0.095756 0.995249
O O12 0.583686 0.135156 0.848505
#
# Coordination Sequence:
#
# PCOD9376677 Si02
#       7
#     8   4   8   4   8   8   8
#     4  11  23  40  65  93 131 171 213 263 327 384
#     4  10  22  44  66  86 118 160 208 268 316 366
#     4   9  17  31  50  76 116 148 192 242 294 360
#     4   8  16  28  46  72 106 156 190 234 296 352
#     4  10  23  41  64  91 119 159 213 260 314 373
#     4  10  21  37  57  88 122 159 203 251 306 380
#     4  11  23  42  66  98 132 171 216 270 323 390
#
# _framework density 27.320231
#
# number of rings (size 3 to 8) (size 9 to 14) (size 15 to 20)
#    0.000    2.000    0.000    3.000    0.000    8.000 
#    0.000    5.000    0.000    0.000    0.000    0.000 
#    0.000    0.000    0.000    0.000    0.000    0.000 
#
# Total GULP energy -133755.487803 kJ/mol
# GULP energy per Si atom -5573.145325 kJ/mol
# Density = 2.725805 g / cm^3
# Si number density = 27.320231 Si / 1000 Ang^3
#
#
#
# Elastic Constant Matrix: (Units=GPa)
#
#
# Indices 1 2 3 4 5 6 
#
# 1 72.3170 5.2186 24.0453 0.0001 0.0000 0.0000
# 2 5.2186 70.8953 -1.8076 0.0002 -0.0001 0.0000
# 3 24.0453 -1.8076 125.8895 0.0005 0.0003 -0.0003
# 4 0.0001 0.0002 0.0005 44.0008 0.0000 -0.0001
# 5 0.0000 -0.0001 0.0003 0.0000 42.2746 0.0000
# 6 0.0000 0.0000 -0.0003 -0.0001 0.0000 29.2935
#
#
#
# Elastic Compliance Matrix: (Units=1/GPa)
#
#
# Indices 1 2 3 4 5 6 
#
# 1 0.014862 -0.001167 -0.002855 0.000000 0.000000 0.000000
# 2 -0.001167 0.014202 0.000427 0.000000 0.000000 0.000000
# 3 -0.002855 0.000427 0.008495 0.000000 0.000000 0.000000
# 4 0.000000 0.000000 0.000000 0.022727 0.000000 0.000000
# 5 0.000000 0.000000 0.000000 0.000000 0.023655 0.000000
# 6 0.000000 0.000000 0.000000 0.000000 0.000000 0.034137
#
#
# Mechanical properties :
#
#
# Convention : Reuss Voigt Hill
#
# Bulk Modulus (GPa) = 32.92941 36.00157 34.46549
# Shear Modulus (GPa) = 36.93009 39.22350 38.07680
#
# Velocity S-wave (km/s) = 3.68060 3.79317 3.73731
# Velocity P-wave (km/s) = 5.49015 5.69125 5.59161
#
# Compressibility (1/GPa) = 0.03036799
#
# Stress axis : x y z
#
# Youngs Moduli (GPa) = 67.28743 70.41223 117.71649
#
# Poissons Ratio (x) = 0.08215 0.33612
# Poissons Ratio (y) = 0.07851 -0.05024
# Poissons Ratio (z) = 0.19213 -0.03005
#
# Static dielectric constant tensor:
#      x y z
#    x 2.328820 0.000000 0.000000 
#    y 0.000000 2.657630 0.000000 
#    z 0.000000 0.000000 2.241820 
# 
# From -- ./inp_files/1404.got.cif
#   From: 2010.05.17/outbox.cif.g08.bks.cpg/sg45_1_cif.got.tgz:1404.got - 2010.06.03 19:51:22.
