data_PCOD9376119
_publ_section_title
;
Structure prediction by ZEFSAII (Michael W. Deem and Ramdas Pophale) SiO2 
 PCOD9376119
Probable space group: I B A 2
;
_chemical_formula_sum "Si O2"
_cell_formula_units_Z 52
_cell_length_a 5.480631
_cell_length_b 27.684778
_cell_length_c 13.093275
_cell_angle_alpha 90.000000
_cell_angle_beta 90.000000
_cell_angle_gamma 90.000000
_cell_volume 1986.643304
_symmetry_space_group_name_H-M "I B A 2"
_symmetry_group_IT_number 45
_symmetry_cell_setting 'orthorhombic'
loop_
_space_group_symop_operation_xyz
x,y,z
-x,-y,z
-x,y,1/2+z
x,-y,1/2+z
1/2+x,1/2+y,1/2+z
1/2-x,1/2-y,1/2+z
1/2-x,1/2+y,z
1/2+x,1/2-y,z
loop_
_atom_site_type_symbol
_atom_site_label
_atom_site_fract_x
_atom_site_fract_y
_atom_site_fract_z
Si Si1 0.332084 0.425995 0.406690
Si Si2 0.131246 0.731395 0.097420
Si Si3 0.081336 0.628908 0.606721
Si Si4 0.664082 0.890715 0.377451
Si Si5 0.854352 0.724625 0.842429
Si Si6 0.072268 0.100673 0.125420
Si Si7 0.500000 0.500000 0.549216
O O1 0.586721 0.418302 0.347845
O O2 0.369997 0.389672 0.503837
O O3 0.310663 0.476996 0.467041
O O4 0.094604 0.412932 0.344942
O O5 0.914468 0.768086 0.066524
O O6 0.999020 0.681556 0.073687
O O7 0.142673 0.732440 0.220670
O O8 0.136949 0.600464 0.501761
O O9 0.344834 0.632340 0.660974
O O10 0.844989 0.608495 0.666442
O O11 0.677410 0.832945 0.360401
O O12 0.118195 0.744769 0.879267
O O13 0.972664 0.045857 0.122536
#
# Coordination Sequence:
#
# PCOD9376119 Si02
#       7
#     8   8   8   8   8   8   4
#     4   8  17  27  46  71 101 119 153 192 237 281
#     4  10  21  35  50  68  94 131 169 196 231 285
#     4  10  18  31  47  73  99 120 158 200 241 274
#     4  10  18  31  47  73  99 120 158 200 241 274
#     4  10  21  35  50  68  94 131 169 196 231 285
#     4   8  17  27  46  71 101 119 153 192 237 281
#     4   8  16  30  48  74 102 126 152 190 238 290
#
# _framework density 26.174804999999999
#
# number of rings (size 3 to 8) (size 9 to 14) (size 15 to 20)
#    0.923    1.846    0.000    1.846    0.000    3.692 
#    0.000    0.000    0.000    0.000    0.000    6.462 
#    0.000    0.000    0.000    0.000    0.000    0.000 
#
# Total GULP energy -144876.245080 kJ/mol
# GULP energy per Si atom -5572.163272 kJ/mol
# Density = 2.611523 g / cm^3
# Si number density = 26.174805 Si / 1000 Ang^3
#
#
#
# Elastic Constant Matrix: (Units=GPa)
#
#
# Indices 1 2 3 4 5 6 
#
# 1 208.0625 51.4842 35.7868 0.0000 0.0000 0.0000
# 2 51.4842 112.3707 -11.9292 0.0001 0.0000 0.0000
# 3 35.7868 -11.9292 62.9469 0.0000 0.0000 0.0000
# 4 0.0000 0.0001 0.0000 29.9855 0.0000 0.0000
# 5 0.0000 0.0000 0.0000 0.0000 47.0346 0.0000
# 6 0.0000 0.0000 0.0000 0.0000 0.0000 24.6198
#
#
#
# Elastic Compliance Matrix: (Units=1/GPa)
#
#
# Indices 1 2 3 4 5 6 
#
# 1 0.006374 -0.003373 -0.004263 0.000000 0.000000 0.000000
# 2 -0.003373 0.010867 0.003977 0.000000 0.000000 0.000000
# 3 -0.004263 0.003977 0.019064 0.000000 0.000000 0.000000
# 4 0.000000 0.000000 0.000000 0.033349 0.000000 0.000000
# 5 0.000000 0.000000 0.000000 0.000000 0.021261 0.000000
# 6 0.000000 0.000000 0.000000 0.000000 0.000000 0.040618
#
#
# Mechanical properties :
#
#
# Convention : Reuss Voigt Hill
#
# Bulk Modulus (GPa) = 34.49887 59.34041 46.91964
# Shear Modulus (GPa) = 33.66713 40.86387 37.26550
#
# Velocity S-wave (km/s) = 3.59031 3.95548 3.77731
# Velocity P-wave (km/s) = 5.51325 6.60160 6.08182
#
# Compressibility (1/GPa) = 0.02898646
#
# Stress axis : x y z
#
# Youngs Moduli (GPa) = 156.88447 92.02446 52.45562
#
# Poissons Ratio (x) = 0.31039 0.22362
# Poissons Ratio (y) = 0.52916 -0.20861
# Poissons Ratio (z) = 0.66881 -0.36598
#
# Static dielectric constant tensor:
#      x y z
#    x 2.239440 0.000000 0.000000 
#    y 0.000000 2.040600 0.000000 
#    z 0.000000 0.000000 2.239870 
# 
# From -- ./inp_files/7362.got.cif
#   From: 2010.05.17/outbox.cif.g08.bks.cpg/sg45_4_cif.got.tgz:7362.got - 2010.06.03 19:51:22.
