data_PCOD9376230
_publ_section_title
;
Structure prediction by ZEFSAII (Michael W. Deem and Ramdas Pophale) SiO2 
 PCOD9376230
Probable space group: I B A 2
;
_chemical_formula_sum "Si O2"
_cell_formula_units_Z 64
_cell_length_a 24.820174
_cell_length_b 8.215757
_cell_length_c 13.993756
_cell_angle_alpha 90.000000
_cell_angle_beta 90.000000
_cell_angle_gamma 90.000000
_cell_volume 2853.558001
_symmetry_space_group_name_H-M "I B A 2"
_symmetry_group_IT_number 45
_symmetry_cell_setting 'orthorhombic'
loop_
_space_group_symop_operation_xyz
x,y,z
-x,-y,z
-x,y,1/2+z
x,-y,1/2+z
1/2+x,1/2+y,1/2+z
1/2-x,1/2-y,1/2+z
1/2-x,1/2+y,z
1/2+x,1/2-y,z
loop_
_atom_site_type_symbol
_atom_site_label
_atom_site_fract_x
_atom_site_fract_y
_atom_site_fract_z
Si Si1 0.268165 0.555800 0.779370
Si Si2 0.407601 0.116862 0.813551
Si Si3 0.594041 0.349904 0.679725
Si Si4 0.937190 0.963426 0.365360
Si Si5 0.483885 0.164578 0.637545
Si Si6 0.109492 0.127180 0.038167
Si Si7 0.665607 0.159207 0.824931
Si Si8 0.314369 0.747551 0.177967
O O1 0.301456 0.673754 0.848854
O O2 0.217137 0.462555 0.824154
O O3 0.306017 0.423356 0.731184
O O4 0.241497 0.660608 0.693514
O O5 0.421196 0.274348 0.878148
O O6 0.456888 0.109902 0.738561
O O7 0.359211 0.162361 0.740892
O O8 0.384278 0.953325 0.864282
O O9 0.576678 0.485082 0.757893
O O10 0.538757 0.259563 0.655810
O O11 0.613302 0.451437 0.589146
O O12 0.636873 0.224987 0.726249
O O13 0.903253 0.086743 0.430065
O O14 0.000000 0.000000 0.383829
O O15 0.441361 0.275488 0.581655
O O16 0.500000 0.000000 0.583043
O O17 0.162126 0.224638 0.072507
#
# Coordination Sequence:
#
# PCOD9376230 Si02
#       8
#     8   8   8   8   8   8   8   8
#     4   9  17  32  58  93 113 147 209 255 323 369
#     4  10  19  34  57  86 120 158 203 247 312 367
#     4  12  20  37  61  87 120 166 210 253 314 371
#     4  12  22  37  60  85 131 170 205 252 306 380
#     4  11  20  36  59  86 125 162 208 258 300 376
#     4  11  23  38  58  92 124 169 216 250 315 377
#     4  10  19  32  61  92 112 158 203 258 314 378
#     4   9  17  33  59  85 113 153 201 256 307 375
#
# _framework density 22.428142000000001
#
# number of rings (size 3 to 8) (size 9 to 14) (size 15 to 20)
#    0.000    1.500    6.250    1.125    0.000    0.000 
#    0.000    3.125    0.000   12.000    0.000    0.000 
#    0.000    0.000    0.000    0.000    0.000    0.000 
#
# Total GULP energy -178327.197303 kJ/mol
# GULP energy per Si atom -5572.724916 kJ/mol
# Density = 2.237709 g / cm^3
# Si number density = 22.428142 Si / 1000 Ang^3
#
#
#
# Elastic Constant Matrix: (Units=GPa)
#
#
# Indices 1 2 3 4 5 6 
#
# 1 103.8608 21.2574 -0.3842 0.0000 0.0000 0.0000
# 2 21.2574 108.6591 -3.5341 0.0000 0.0000 0.0000
# 3 -0.3842 -3.5341 27.7945 0.0000 0.0000 0.0000
# 4 0.0000 0.0000 0.0000 6.5520 0.0000 0.0000
# 5 0.0000 0.0000 0.0000 0.0000 10.8512 0.0000
# 6 0.0000 0.0000 0.0000 0.0000 0.0000 60.6041
#
#
#
# Elastic Compliance Matrix: (Units=1/GPa)
#
#
# Indices 1 2 3 4 5 6 
#
# 1 0.010030 -0.001966 -0.000111 0.000000 0.000000 0.000000
# 2 -0.001966 0.009627 0.001197 0.000000 0.000000 0.000000
# 3 -0.000111 0.001197 0.036129 0.000000 0.000000 0.000000
# 4 0.000000 0.000000 0.000000 0.152624 0.000000 0.000000
# 5 0.000000 0.000000 0.000000 0.000000 0.092156 0.000000
# 6 0.000000 0.000000 0.000000 0.000000 0.000000 0.016501
#
#
# Mechanical properties :
#
#
# Convention : Reuss Voigt Hill
#
# Bulk Modulus (GPa) = 18.50987 30.55472 24.53230
# Shear Modulus (GPa) = 14.84402 30.46647 22.65524
#
# Velocity S-wave (km/s) = 2.57543 3.68965 3.18170
# Velocity P-wave (km/s) = 4.13699 5.63953 4.94566
#
# Compressibility (1/GPa) = 0.05402522
#
# Stress axis : x y z
#
# Youngs Moduli (GPa) = 99.69870 103.87866 27.67857
#
# Poissons Ratio (x) = 0.20421 0.00308
# Poissons Ratio (y) = 0.19599 -0.03313
# Poissons Ratio (z) = 0.01110 -0.12433
#
# Static dielectric constant tensor:
#      x y z
#    x 1.845720 0.000000 0.000000 
#    y 0.000000 1.929700 0.000000 
#    z 0.000000 0.000000 1.837840 
# 
# From -- ./inp_files/7058.got.cif
#   From: 2010.05.17/outbox.cif.g08.bks.cpg/sg45_4_cif.got.tgz:7058.got - 2010.06.03 19:51:22.
