data_PCOD9376788
_publ_section_title
;
Structure prediction by ZEFSAII (Michael W. Deem and Ramdas Pophale) SiO2 
 PCOD9376788
Probable space group: I B A 2
;
_chemical_formula_sum "Si O2"
_cell_formula_units_Z 60
_cell_length_a 16.286646
_cell_length_b 10.281675
_cell_length_c 17.371549
_cell_angle_alpha 90.000000
_cell_angle_beta 90.000000
_cell_angle_gamma 90.000000
_cell_volume 2908.935384
_symmetry_space_group_name_H-M "I B A 2"
_symmetry_group_IT_number 45
_symmetry_cell_setting 'orthorhombic'
loop_
_space_group_symop_operation_xyz
x,y,z
-x,-y,z
-x,y,1/2+z
x,-y,1/2+z
1/2+x,1/2+y,1/2+z
1/2-x,1/2-y,1/2+z
1/2-x,1/2+y,z
1/2+x,1/2-y,z
loop_
_atom_site_type_symbol
_atom_site_label
_atom_site_fract_x
_atom_site_fract_y
_atom_site_fract_z
Si Si1 0.324751 0.173019 0.320100
Si Si2 0.714588 0.900162 0.758031
Si Si3 0.347084 0.498911 0.155060
Si Si4 0.811654 0.292197 0.486957
Si Si5 0.890731 0.721335 0.149391
Si Si6 0.000000 0.000000 0.873324
Si Si7 0.036364 0.818085 0.240312
Si Si8 0.159991 0.992213 0.983264
O O1 0.256893 0.285891 0.306221
O O2 0.357356 0.179460 0.406915
O O3 0.398073 0.207572 0.262052
O O4 0.285662 0.033463 0.304139
O O5 0.766383 0.922034 0.679474
O O6 0.626570 0.870631 0.722050
O O7 0.333516 0.651864 0.164186
O O8 0.412767 0.444357 0.213825
O O9 0.376007 0.475182 0.068988
O O10 0.865750 0.322248 0.563610
O O11 0.728963 0.379140 0.478743
O O12 0.797790 0.135704 0.485907
O O13 0.980778 0.774964 0.168567
O O14 0.996537 0.129025 0.819253
O O15 0.915609 0.002438 0.923366
#
# Coordination Sequence:
#
# PCOD9376788 Si02
#       8
#     8   8   8   8   8   4   8   8
#     4  11  24  41  66  98 131 173 225 280 342 402
#     4  11  22  40  67  95 129 173 224 275 332 410
#     4  10  21  40  63  99 126 180 223 275 331 412
#     4  11  24  43  66 103 129 180 224 285 347 417
#     4  11  22  40  67  91 136 172 223 276 339 410
#     4  12  24  42  66 108 136 178 236 290 352 400
#     4  11  24  40  65  97 135 177 231 278 343 409
#     4  11  25  41  71  99 141 176 231 287 348 412
#
# _framework density 20.626101999999999
#
# number of rings (size 3 to 8) (size 9 to 14) (size 15 to 20)
#    0.000    1.067    5.333    0.800    7.467    0.533 
#    0.000    0.000    0.000    2.400    0.000    0.000 
#    0.000    0.000    0.000    0.000    0.000    0.000 
#
# Total GULP energy -167152.438091 kJ/mol
# GULP energy per Si atom -5571.747936 kJ/mol
# Density = 2.057916 g / cm^3
# Si number density = 20.626102 Si / 1000 Ang^3
#
#
#
# Elastic Constant Matrix: (Units=GPa)
#
#
# Indices 1 2 3 4 5 6 
#
# 1 55.2048 29.6824 23.9880 0.0000 0.0000 0.0000
# 2 29.6824 104.4277 31.8537 0.0000 0.0000 0.0000
# 3 23.9880 31.8537 120.0759 0.0000 0.0000 0.0000
# 4 0.0000 0.0000 0.0000 21.4057 0.0000 0.0000
# 5 0.0000 0.0000 0.0000 0.0000 34.7385 0.0000
# 6 0.0000 0.0000 0.0000 0.0000 0.0000 23.6014
#
#
#
# Elastic Compliance Matrix: (Units=1/GPa)
#
#
# Indices 1 2 3 4 5 6 
#
# 1 0.022348 -0.005430 -0.003024 0.000000 0.000000 0.000000
# 2 -0.005430 0.011738 -0.002029 0.000000 0.000000 0.000000
# 3 -0.003024 -0.002029 0.009471 0.000000 0.000000 0.000000
# 4 0.000000 0.000000 0.000000 0.046717 0.000000 0.000000
# 5 0.000000 0.000000 0.000000 0.000000 0.028786 0.000000
# 6 0.000000 0.000000 0.000000 0.000000 0.000000 0.042370
#
#
# Mechanical properties :
#
#
# Convention : Reuss Voigt Hill
#
# Bulk Modulus (GPa) = 44.26616 50.08407 47.17511
# Shear Modulus (GPa) = 26.32601 28.89476 27.61039
#
# Velocity S-wave (km/s) = 3.57647 3.74690 3.66268
# Velocity P-wave (km/s) = 6.20989 6.56152 6.38813
#
# Compressibility (1/GPa) = 0.02259062
#
# Stress axis : x y z
#
# Youngs Moduli (GPa) = 44.74705 85.19120 105.59086
#
# Poissons Ratio (x) = 0.46256 0.31932
# Poissons Ratio (y) = 0.24296 0.21427
# Poissons Ratio (z) = 0.13532 0.17287
#
# Static dielectric constant tensor:
#      x y z
#    x 1.789960 0.000000 0.000000 
#    y 0.000000 1.798410 0.000000 
#    z 0.000000 0.000000 1.765350 
# 
# From -- ./inp_files/8344.got.cif
#   From: 2010.05.17/outbox.cif.g08.bks.cpg/sg45_5_cif.got.tgz:8344.got - 2010.06.03 19:51:22.
