data_PCOD9376684
_publ_section_title
;
Structure prediction by ZEFSAII (Michael W. Deem and Ramdas Pophale) SiO2 
 PCOD9376684
Probable space group: I B A 2
;
_chemical_formula_sum "Si O2"
_cell_formula_units_Z 64
_cell_length_a 9.241637
_cell_length_b 13.034715
_cell_length_c 25.254495
_cell_angle_alpha 90.000000
_cell_angle_beta 90.000000
_cell_angle_gamma 90.000000
_cell_volume 3042.209614
_symmetry_space_group_name_H-M "I B A 2"
_symmetry_group_IT_number 45
_symmetry_cell_setting 'orthorhombic'
loop_
_space_group_symop_operation_xyz
x,y,z
-x,-y,z
-x,y,1/2+z
x,-y,1/2+z
1/2+x,1/2+y,1/2+z
1/2-x,1/2-y,1/2+z
1/2-x,1/2+y,z
1/2+x,1/2-y,z
loop_
_atom_site_type_symbol
_atom_site_label
_atom_site_fract_x
_atom_site_fract_y
_atom_site_fract_z
Si Si1 0.169125 0.380920 0.950100
Si Si2 0.584093 0.392739 0.301269
Si Si3 0.836665 0.490081 0.850348
Si Si4 0.470275 0.377939 0.678665
Si Si5 0.784254 0.744356 0.621714
Si Si6 0.958260 0.313571 0.550985
Si Si7 0.990879 0.889840 0.490335
Si Si8 0.376090 0.676190 0.883553
O O1 0.163199 0.476868 0.911802
O O2 0.149993 0.284513 0.910923
O O3 0.056016 0.380242 0.998154
O O4 0.325358 0.367068 0.976477
O O5 0.500000 0.500000 0.309705
O O6 0.743947 0.426749 0.317545
O O7 0.558401 0.361797 0.241171
O O8 0.509724 0.317493 0.343028
O O9 0.755200 0.380086 0.852688
O O10 0.000000 0.500000 0.831153
O O11 0.500000 0.500000 0.670280
O O12 0.327258 0.333006 0.650062
O O13 0.607565 0.310863 0.658663
O O14 0.679472 0.822091 0.589437
O O15 0.892251 0.682655 0.582629
O O16 0.948654 0.197943 0.527637
O O17 0.073921 0.891814 0.434136
O O18 0.000000 0.000000 0.516755
#
# Coordination Sequence:
#
# PCOD9376684 Si02
#       8
#     8   8   8   8   8   8   8   8
#     4  11  22  36  59  91 129 168 212 248 310 383
#     4   9  19  42  64  90 122 170 212 254 325 401
#     4  11  23  36  57  95 133 161 210 260 301 381
#     4  10  23  46  74  93 128 173 217 287 354 390
#     4  10  22  44  66  95 125 161 229 286 329 408
#     4  10  22  38  60  89 131 159 209 279 314 383
#     4  11  19  37  63  89 122 181 215 247 321 392
#     4  10  21  37  60  86 131 171 206 249 309 383
#
# _framework density 21.03734
#
# number of rings (size 3 to 8) (size 9 to 14) (size 15 to 20)
#    0.000    1.750    3.750    0.375    3.500    3.000 
#    0.000   11.250    0.000    0.000    0.000    0.000 
#    0.000    0.000    0.000    0.000    0.000    0.000 
#
# Total GULP energy -178653.680811 kJ/mol
# GULP energy per Si atom -5582.927525 kJ/mol
# Density = 2.098946 g / cm^3
# Si number density = 21.037340 Si / 1000 Ang^3
#
#
#
# Elastic Constant Matrix: (Units=GPa)
#
#
# Indices 1 2 3 4 5 6 
#
# 1 154.0595 42.1086 54.5939 0.0000 0.0000 0.0000
# 2 42.1086 57.4543 42.1849 0.0000 0.0000 0.0000
# 3 54.5939 42.1849 96.3237 0.0000 0.0000 0.0000
# 4 0.0000 0.0000 0.0000 -454.0198 0.0000 0.0000
# 5 0.0000 0.0000 0.0000 0.0000 27.1834 0.0000
# 6 0.0000 0.0000 0.0000 0.0000 0.0000 26.0202
#
#
#
# Elastic Compliance Matrix: (Units=1/GPa)
#
#
# Indices 1 2 3 4 5 6 
#
# 1 0.008724 -0.004073 -0.003161 0.000000 0.000000 0.000000
# 2 -0.004073 0.027556 -0.009760 0.000000 0.000000 0.000000
# 3 -0.003161 -0.009760 0.016447 0.000000 0.000000 0.000000
# 4 0.000000 0.000000 0.000000 -0.002203 0.000000 0.000000
# 5 0.000000 0.000000 0.000000 0.000000 0.036787 0.000000
# 6 0.000000 0.000000 0.000000 0.000000 0.000000 0.038432
#
#
# Mechanical properties :
#
#
# Convention : Reuss Voigt Hill
#
# Bulk Modulus (GPa) = 53.36039 65.06803 59.21421
# Shear Modulus (GPa) = 30.12427 -68.89991 -19.38782
#
# Velocity S-wave (km/s) = 3.78821 -5.72908 -3.03906
# Velocity P-wave (km/s) = 6.67485 3.57298 3.98670
#
# Compressibility (1/GPa) = 0.01874049
#
# Stress axis : x y z
#
# Youngs Moduli (GPa) = 114.61990 36.28924 60.79990
#
# Poissons Ratio (x) = 0.14782 0.19218
# Poissons Ratio (y) = 0.46689 0.59338
# Poissons Ratio (z) = 0.36230 0.35417
#
# Static dielectric constant tensor:
#      x y z
#    x 1.789770 0.000000 0.000000 
#    y 0.000000 1.762090 0.000000 
#    z 0.000000 0.000000 1.762530 
# 
# From -- ./inp_files/9624.got.cif
#   From: 2010.05.17/outbox.cif.g08.bks.cpg/sg45_5_cif.got.tgz:9624.got - 2010.06.03 19:51:22.
