data_PCOD9376931
_publ_section_title
;
Structure prediction by ZEFSAII (Michael W. Deem and Ramdas Pophale) SiO2 
 PCOD9376931
Probable space group: I B A 2
;
_chemical_formula_sum "Si O2"
_cell_formula_units_Z 56
_cell_length_a 5.046957
_cell_length_b 26.351981
_cell_length_c 15.185581
_cell_angle_alpha 90.000000
_cell_angle_beta 90.000000
_cell_angle_gamma 90.000000
_cell_volume 2019.641499
_symmetry_space_group_name_H-M "I B A 2"
_symmetry_group_IT_number 45
_symmetry_cell_setting 'orthorhombic'
loop_
_space_group_symop_operation_xyz
x,y,z
-x,-y,z
-x,y,1/2+z
x,-y,1/2+z
1/2+x,1/2+y,1/2+z
1/2-x,1/2-y,1/2+z
1/2-x,1/2+y,z
1/2+x,1/2-y,z
loop_
_atom_site_type_symbol
_atom_site_label
_atom_site_fract_x
_atom_site_fract_y
_atom_site_fract_z
Si Si1 0.459960 0.106519 0.386020
Si Si2 0.463304 0.338395 0.992337
Si Si3 0.714158 0.785717 0.850011
Si Si4 0.154140 0.124127 0.664017
Si Si5 0.105566 0.280352 0.117236
Si Si6 0.163656 0.951783 0.751009
Si Si7 0.913791 0.555761 0.562844
O O1 0.172638 0.121740 0.427153
O O2 0.574438 0.158151 0.345853
O O3 0.408057 0.063903 0.311971
O O4 0.625075 0.085639 0.470044
O O5 0.662213 0.299525 0.948513
O O6 0.553262 0.363219 0.084978
O O7 0.206091 0.306484 0.027199
O O8 0.709503 0.822507 0.684952
O O9 0.484995 0.745190 0.822960
O O10 0.360542 0.087457 0.615247
O O11 0.018613 0.098068 0.745308
O O12 0.304081 0.233475 0.127588
O O13 0.227577 0.958336 0.646845
O O14 0.000000 0.000000 0.782608
O O15 0.000000 0.500000 0.531175
#
# Coordination Sequence:
#
# PCOD9376931 Si02
#       7
#     8   8   8   8   8   8   8
#     4  11  27  47  76 126 160 213 286 349 419 526
#     4   9  21  39  70 110 157 203 269 330 406 493
#     4  12  23  43  75 116 167 222 269 340 422 504
#     4   9  23  42  72 108 155 208 262 336 411 496
#     4  10  22  36  70 114 151 208 267 325 404 502
#     4  12  26  52  82 113 160 219 278 355 437 510
#     4  11  24  51  78 114 160 210 266 352 426 501
#
# _framework density 27.727694
#
# number of rings (size 3 to 8) (size 9 to 14) (size 15 to 20)
#    0.857    0.571    2.857    1.714    4.000    1.714 
#    7.714    1.429    0.000    0.000    0.000    0.000 
#    0.000    0.000    0.000    0.000    0.000    0.000 
#
# Total GULP energy -156263.405766 kJ/mol
# GULP energy per Si atom -5580.835920 kJ/mol
# Density = 2.766458 g / cm^3
# Si number density = 27.727694 Si / 1000 Ang^3
#
#
#
# Elastic Constant Matrix: (Units=GPa)
#
#
# Indices 1 2 3 4 5 6 
#
# 1 125.1724 28.4936 36.2099 0.0000 0.0000 0.0000
# 2 28.4936 106.5825 12.6909 0.0000 0.0000 0.0000
# 3 36.2099 12.6909 120.1753 0.0000 -0.0001 0.0000
# 4 0.0000 0.0000 0.0000 9.8060 -0.0001 0.0000
# 5 0.0000 0.0000 -0.0001 -0.0001 81.1845 0.0000
# 6 0.0000 0.0000 0.0000 0.0000 0.0000 48.6567
#
#
#
# Elastic Compliance Matrix: (Units=1/GPa)
#
#
# Indices 1 2 3 4 5 6 
#
# 1 0.009218 -0.002161 -0.002549 0.000000 0.000000 0.000000
# 2 -0.002161 0.010008 -0.000406 0.000000 0.000000 0.000000
# 3 -0.002549 -0.000406 0.009132 0.000000 0.000000 0.000000
# 4 0.000000 0.000000 0.000000 0.101979 0.000000 0.000000
# 5 0.000000 0.000000 0.000000 0.000000 0.012318 0.000000
# 6 0.000000 0.000000 0.000000 0.000000 0.000000 0.020552
#
#
# Mechanical properties :
#
#
# Convention : Reuss Voigt Hill
#
# Bulk Modulus (GPa) = 55.16694 56.30212 55.73453
# Shear Modulus (GPa) = 27.85800 46.23182 37.04491
#
# Velocity S-wave (km/s) = 3.17314 4.08775 3.65913
# Velocity P-wave (km/s) = 5.77618 6.52909 6.16414
#
# Compressibility (1/GPa) = 0.01812680
#
# Stress axis : x y z
#
# Youngs Moduli (GPa) = 108.47921 99.91596 109.50280
#
# Poissons Ratio (x) = 0.21590 0.27916
# Poissons Ratio (y) = 0.23441 0.04444
# Poissons Ratio (z) = 0.27656 0.04055
#
# Static dielectric constant tensor:
#      x y z
#    x 2.199930 0.000000 0.000000 
#    y 0.000000 2.241970 0.000000 
#    z 0.000000 0.000000 2.374980 
# 
# From -- ./inp_files/5258.got.cif
#   From: 2010.05.17/outbox.cif.g08.bks.cpg/sg45_3_cif.got.tgz:5258.got - 2010.06.03 19:51:22.
