data_PCOD9376799
_publ_section_title
;
Structure prediction by ZEFSAII (Michael W. Deem and Ramdas Pophale) SiO2 
 PCOD9376799
Probable space group: I B A 2
;
_chemical_formula_sum "Si O2"
_cell_formula_units_Z 60
_cell_length_a 10.814615
_cell_length_b 9.212508
_cell_length_c 29.551139
_cell_angle_alpha 90.000000
_cell_angle_beta 90.000000
_cell_angle_gamma 90.000000
_cell_volume 2944.171917
_symmetry_space_group_name_H-M "I B A 2"
_symmetry_group_IT_number 45
_symmetry_cell_setting 'orthorhombic'
loop_
_space_group_symop_operation_xyz
x,y,z
-x,-y,z
-x,y,1/2+z
x,-y,1/2+z
1/2+x,1/2+y,1/2+z
1/2-x,1/2-y,1/2+z
1/2-x,1/2+y,z
1/2+x,1/2-y,z
loop_
_atom_site_type_symbol
_atom_site_label
_atom_site_fract_x
_atom_site_fract_y
_atom_site_fract_z
Si Si1 0.750413 0.755500 0.525160
Si Si2 0.855252 0.495497 0.963674
Si Si3 0.142441 0.506776 0.159795
Si Si4 0.192076 0.824590 0.806356
Si Si5 0.295662 0.295532 0.215014
Si Si6 0.500000 0.500000 0.247832
Si Si7 0.356500 0.046680 0.862111
Si Si8 0.141017 0.009524 0.085256
O O1 0.824662 0.635778 0.497185
O O2 0.832454 0.866453 0.554761
O O3 0.660039 0.658382 0.556604
O O4 0.685847 0.857923 0.488318
O O5 0.804567 0.472257 0.913037
O O6 0.000000 0.500000 0.957654
O O7 0.177186 0.369052 0.191206
O O8 0.161766 0.652781 0.188725
O O9 0.247288 0.508833 0.121244
O O10 0.000000 0.500000 0.143769
O O11 0.266562 0.744492 0.766557
O O12 0.276644 0.947238 0.828630
O O13 0.154106 0.710452 0.844540
O O14 0.075594 0.892823 0.780424
O O15 0.403105 0.414630 0.216920
O O16 0.500000 0.000000 0.859936
O O17 0.000000 0.000000 0.102478
#
# Coordination Sequence:
#
# PCOD9376799 Si02
#       8
#     8   8   8   8   8   4   8   8
#     4  10  22  42  67  95 130 169 218 260 330 393
#     4  10  21  40  66  93 130 171 212 267 321 386
#     4  12  28  45  68 100 133 173 223 277 333 396
#     4  12  23  43  65  95 131 176 222 269 326 386
#     4  12  25  45  69  93 134 174 226 269 332 390
#     4  12  24  42  70  94 126 182 220 272 324 392
#     4  11  24  40  64  97 134 171 221 271 323 384
#     4  11  25  43  69  99 132 170 216 273 329 399
#
# _framework density 20.379245000000001
#
# number of rings (size 3 to 8) (size 9 to 14) (size 15 to 20)
#    0.000    0.800    2.667    4.000    0.933    6.400 
#    0.000    0.000    2.933    0.000    0.000    0.000 
#    0.000    0.000    0.000    0.000    0.000    0.000 
#
# Total GULP energy -167734.935853 kJ/mol
# GULP energy per Si atom -5591.164528 kJ/mol
# Density = 2.033286 g / cm^3
# Si number density = 20.379245 Si / 1000 Ang^3
#
#
#
# Elastic Constant Matrix: (Units=GPa)
#
#
# Indices 1 2 3 4 5 6 
#
# 1 108.6908 18.9330 29.7096 0.0000 0.0000 0.0000
# 2 18.9330 100.6713 20.8029 0.0000 0.0000 0.0000
# 3 29.7096 20.8029 93.7737 0.0000 0.0000 0.0000
# 4 0.0000 0.0000 0.0000 18.6982 0.0000 0.0000
# 5 0.0000 0.0000 0.0000 0.0000 29.3964 0.0000
# 6 0.0000 0.0000 0.0000 0.0000 0.0000 26.8358
#
#
#
# Elastic Compliance Matrix: (Units=1/GPa)
#
#
# Indices 1 2 3 4 5 6 
#
# 1 0.010236 -0.001315 -0.002951 0.000000 0.000000 0.000000
# 2 -0.001315 0.010580 -0.001930 0.000000 0.000000 0.000000
# 3 -0.002951 -0.001930 0.012027 0.000000 0.000000 0.000000
# 4 0.000000 0.000000 0.000000 0.053481 0.000000 0.000000
# 5 0.000000 0.000000 0.000000 0.000000 0.034018 0.000000
# 6 0.000000 0.000000 0.000000 0.000000 0.000000 0.037264
#
#
# Mechanical properties :
#
#
# Convention : Reuss Voigt Hill
#
# Bulk Modulus (GPa) = 48.90127 49.11408 49.00767
# Shear Modulus (GPa) = 28.27803 30.56542 29.42173
#
# Velocity S-wave (km/s) = 3.72908 3.87697 3.80374
# Velocity P-wave (km/s) = 6.52603 6.64782 6.58721
#
# Compressibility (1/GPa) = 0.02044937
#
# Stress axis : x y z
#
# Youngs Moduli (GPa) = 97.69232 94.52195 83.14472
#
# Poissons Ratio (x) = 0.12432 0.24538
# Poissons Ratio (y) = 0.12849 0.16049
# Poissons Ratio (z) = 0.28832 0.18245
#
# Static dielectric constant tensor:
#      x y z
#    x 1.709690 0.000000 0.000000 
#    y 0.000000 1.738570 0.000000 
#    z 0.000000 0.000000 1.729090 
# 
# From -- ./inp_files/10028.got.cif
#   From: 2010.05.17/outbox.cif.g08.bks.cpg/sg45_6_cif.got.tgz:10028.got - 2010.06.03 19:51:22.
