data_PCOD9376270
_publ_section_title
;
Structure prediction by ZEFSAII (Michael W. Deem and Ramdas Pophale) SiO2 
 PCOD9376270
Probable space group: I B A 2
;
_chemical_formula_sum "Si O2"
_cell_formula_units_Z 48
_cell_length_a 8.957632
_cell_length_b 18.706393
_cell_length_c 16.083932
_cell_angle_alpha 90.000000
_cell_angle_beta 90.000000
_cell_angle_gamma 90.000000
_cell_volume 2695.103817
_symmetry_space_group_name_H-M "I B A 2"
_symmetry_group_IT_number 45
_symmetry_cell_setting 'orthorhombic'
loop_
_space_group_symop_operation_xyz
x,y,z
-x,-y,z
-x,y,1/2+z
x,-y,1/2+z
1/2+x,1/2+y,1/2+z
1/2-x,1/2-y,1/2+z
1/2-x,1/2+y,z
1/2+x,1/2-y,z
loop_
_atom_site_type_symbol
_atom_site_label
_atom_site_fract_x
_atom_site_fract_y
_atom_site_fract_z
Si Si1 0.162791 0.410391 0.163090
Si Si2 0.176472 0.172802 0.998055
Si Si3 0.837561 0.449130 0.425316
Si Si4 0.662790 0.910390 0.853447
Si Si5 0.662439 0.050870 0.591221
Si Si6 0.176471 0.827198 0.018481
O O1 0.154440 0.386985 0.258268
O O2 0.217946 0.492913 0.157691
O O3 0.265288 0.360866 0.105478
O O4 0.995821 0.417474 0.123022
O O5 0.235714 0.116902 0.066925
O O6 0.250000 0.250000 0.008268
O O7 0.000000 0.178305 0.008268
O O8 0.234712 0.139135 0.911059
O O9 0.782055 0.507087 0.358846
O O10 0.845017 0.500000 0.508268
O O11 0.735713 0.383098 0.449612
O O12 0.995821 0.417473 0.393515
#
# Coordination Sequence:
#
# PCOD9376270 Si02
#       6
#     8   8   8   8   8   8
#     4  10  19  35  58  86 111 138 178 227 270 316
#     4  11  22  38  57  77 108 150 187 220 267 329
#     4   9  17  33  59  84 111 147 179 209 263 329
#     4  10  19  35  58  86 111 138 178 227 270 316
#     4   9  17  33  59  84 111 147 179 209 263 329
#     4  11  22  38  57  77 108 150 187 220 267 329
#
# _framework density 17.810075000000001
#
# number of rings (size 3 to 8) (size 9 to 14) (size 15 to 20)
#    0.000    2.000    0.000   11.000    0.000    6.000 
#    0.000   13.333    0.000    0.000    0.000    0.000 
#    0.000    0.000    0.000    0.000    0.000    0.000 
#
# Total GULP energy -133613.022501 kJ/mol
# GULP energy per Si atom -5567.209271 kJ/mol
# Density = 1.776954 g / cm^3
# Si number density = 17.810075 Si / 1000 Ang^3
#
#
#
# Elastic Constant Matrix: (Units=GPa)
#
#
# Indices 1 2 3 4 5 6 
#
# 1 141.1805 98.5389 63.6601 0.0000 0.0000 0.0000
# 2 98.5389 141.3413 38.5409 0.0000 0.0000 0.0000
# 3 63.6601 38.5409 105.2198 0.0000 0.0000 0.0000
# 4 0.0000 0.0000 0.0000 12.7239 0.0000 0.0000
# 5 0.0000 0.0000 0.0000 0.0000 7.2981 0.0000
# 6 0.0000 0.0000 0.0000 0.0000 0.0000 32.7223
#
#
#
# Elastic Compliance Matrix: (Units=1/GPa)
#
#
# Indices 1 2 3 4 5 6 
#
# 1 0.017185 -0.010161 -0.006676 0.000000 0.000000 0.000000
# 2 -0.010161 0.013868 0.001068 0.000000 0.000000 0.000000
# 3 -0.006676 0.001068 0.013152 0.000000 0.000000 0.000000
# 4 0.000000 0.000000 0.000000 0.078592 0.000000 0.000000
# 5 0.000000 0.000000 0.000000 0.000000 0.137023 0.000000
# 6 0.000000 0.000000 0.000000 0.000000 0.000000 0.030560
#
#
# Mechanical properties :
#
#
# Convention : Reuss Voigt Hill
#
# Bulk Modulus (GPa) = 78.94187 87.69127 83.31657
# Shear Modulus (GPa) = 15.33094 23.01564 19.17329
#
# Velocity S-wave (km/s) = 2.93713 3.59873 3.28463
# Velocity P-wave (km/s) = 7.47815 8.16159 7.82734
#
# Compressibility (1/GPa) = 0.01266755
#
# Stress axis : x y z
#
# Youngs Moduli (GPa) = 58.19071 72.11100 76.03627
#
# Poissons Ratio (x) = 0.73268 0.50758
# Poissons Ratio (y) = 0.59125 -0.08119
# Poissons Ratio (z) = 0.38845 -0.07700
#
# Static dielectric constant tensor:
#      x y z
#    x 1.615640 0.000000 0.000000 
#    y 0.000000 1.620400 0.000000 
#    z 0.000000 0.000000 1.675940 
# 
# From -- ./inp_files/5590.got.cif
#   From: 2010.05.17/outbox.cif.g08.bks.cpg/sg45_3_cif.got.tgz:5590.got - 2010.06.03 19:51:22.
