data_PCOD9376770
_publ_section_title
;
Structure prediction by ZEFSAII (Michael W. Deem and Ramdas Pophale) SiO2 
 PCOD9376770
Probable space group: I B A 2
;
_chemical_formula_sum "Si O2"
_cell_formula_units_Z 64
_cell_length_a 7.847702
_cell_length_b 14.619881
_cell_length_c 21.933682
_cell_angle_alpha 90.000000
_cell_angle_beta 90.000000
_cell_angle_gamma 90.000000
_cell_volume 2516.505498
_symmetry_space_group_name_H-M "I B A 2"
_symmetry_group_IT_number 45
_symmetry_cell_setting 'orthorhombic'
loop_
_space_group_symop_operation_xyz
x,y,z
-x,-y,z
-x,y,1/2+z
x,-y,1/2+z
1/2+x,1/2+y,1/2+z
1/2-x,1/2-y,1/2+z
1/2-x,1/2+y,z
1/2+x,1/2-y,z
loop_
_atom_site_type_symbol
_atom_site_label
_atom_site_fract_x
_atom_site_fract_y
_atom_site_fract_z
Si Si1 0.018832 0.720520 0.117300
Si Si2 0.343897 0.858036 0.301024
Si Si3 0.349960 0.613651 0.164020
Si Si4 0.831690 0.937880 0.435765
Si Si5 0.753222 0.143941 0.802268
Si Si6 0.823513 0.441131 0.677435
Si Si7 0.370427 0.784204 0.983366
Si Si8 0.319442 0.114281 0.934181
O O1 0.006365 0.822972 0.143841
O O2 0.882119 0.653150 0.148060
O O3 0.196719 0.672680 0.133259
O O4 0.967486 0.717005 0.046993
O O5 0.548750 0.868127 0.297285
O O6 0.295255 0.751860 0.303302
O O7 0.267057 0.912315 0.244786
O O8 0.277444 0.898708 0.363572
O O9 0.331269 0.612921 0.237480
O O10 0.311236 0.508969 0.146056
O O11 0.815559 0.900995 0.365815
O O12 0.795562 0.849691 0.478069
O O13 0.690141 0.011952 0.458095
O O14 0.000000 0.000000 0.442141
O O15 0.000000 0.500000 0.681007
O O16 0.501777 0.832949 0.937334
O O17 0.313149 0.683829 0.964098
#
# Coordination Sequence:
#
# PCOD9376770 Si02
#       8
#     8   8   8   8   8   8   8   8
#     4  11  24  43  70  98 137 183 242 286 351 418
#     4  12  22  41  72 100 140 181 227 290 359 439
#     4  11  22  44  68 101 137 179 231 296 356 427
#     4  12  28  45  69 107 149 185 243 301 367 441
#     4  12  23  43  71 106 141 186 226 296 367 433
#     4  10  21  39  68  97 134 171 227 279 350 422
#     4  12  26  46  70 102 140 198 246 295 355 424
#     4  12  25  44  70  99 144 186 238 297 363 429
#
# _framework density 25.432092000000001
#
# number of rings (size 3 to 8) (size 9 to 14) (size 15 to 20)
#    0.000    0.500    6.250    2.625    1.750    4.000 
#    0.000    0.625    0.000    0.000    0.000    0.875 
#    0.000    0.000    0.000    0.000    0.000    0.000 
#
# Total GULP energy -179207.476901 kJ/mol
# GULP energy per Si atom -5600.233653 kJ/mol
# Density = 2.537421 g / cm^3
# Si number density = 25.432092 Si / 1000 Ang^3
#
#
#
# Elastic Constant Matrix: (Units=GPa)
#
#
# Indices 1 2 3 4 5 6 
#
# 1 105.8987 11.4864 6.7739 0.0000 0.0000 0.0000
# 2 11.4864 173.5703 18.0088 0.0000 0.0000 0.0000
# 3 6.7739 18.0088 105.0455 0.0000 0.0000 0.0000
# 4 0.0000 0.0000 0.0000 -34.5399 0.0000 0.0000
# 5 0.0000 0.0000 0.0000 0.0000 19.7192 0.0000
# 6 0.0000 0.0000 0.0000 0.0000 0.0000 37.1797
#
#
#
# Elastic Compliance Matrix: (Units=1/GPa)
#
#
# Indices 1 2 3 4 5 6 
#
# 1 0.009539 -0.000578 -0.000516 0.000000 0.000000 0.000000
# 2 -0.000578 0.005901 -0.000974 0.000000 0.000000 0.000000
# 3 -0.000516 -0.000974 0.009720 0.000000 0.000000 0.000000
# 4 0.000000 0.000000 0.000000 -0.028952 0.000000 0.000000
# 5 0.000000 0.000000 0.000000 0.000000 0.050712 0.000000
# 6 0.000000 0.000000 0.000000 0.000000 0.000000 0.026896
#
#
# Mechanical properties :
#
#
# Convention : Reuss Voigt Hill
#
# Bulk Modulus (GPa) = 47.56668 50.78364 49.17516
# Shear Modulus (GPa) = 58.85144 27.68816 43.26980
#
# Velocity S-wave (km/s) = 4.81569 3.30314 4.12926
# Velocity P-wave (km/s) = 7.04735 5.87872 6.48939
#
# Compressibility (1/GPa) = 0.02102312
#
# Stress axis : x y z
#
# Youngs Moduli (GPa) = 104.83659 169.47208 102.88058
#
# Poissons Ratio (x) = 0.09790 0.05309
# Poissons Ratio (y) = 0.06056 0.10024
# Poissons Ratio (z) = 0.05410 0.16512
#
# Static dielectric constant tensor:
#      x y z
#    x 2.121440 0.000000 0.000000 
#    y 0.000000 1.991130 0.000000 
#    z 0.000000 0.000000 2.032820 
# 
# From -- ./inp_files/9627.got.cif
#   From: 2010.05.17/outbox.cif.g08.bks.cpg/sg45_5_cif.got.tgz:9627.got - 2010.06.03 19:51:22.
