data_PCOD9376277
_publ_section_title
;
Structure prediction by ZEFSAII (Michael W. Deem and Ramdas Pophale) SiO2 
 PCOD9376277
Probable space group: I B A 2
;
_chemical_formula_sum "Si O2"
_cell_formula_units_Z 60
_cell_length_a 26.068477
_cell_length_b 5.655041
_cell_length_c 19.129186
_cell_angle_alpha 90.000000
_cell_angle_beta 90.000000
_cell_angle_gamma 90.000000
_cell_volume 2819.992200
_symmetry_space_group_name_H-M "I B A 2"
_symmetry_group_IT_number 45
_symmetry_cell_setting 'orthorhombic'
loop_
_space_group_symop_operation_xyz
x,y,z
-x,-y,z
-x,y,1/2+z
x,-y,1/2+z
1/2+x,1/2+y,1/2+z
1/2-x,1/2-y,1/2+z
1/2-x,1/2+y,z
1/2+x,1/2-y,z
loop_
_atom_site_type_symbol
_atom_site_label
_atom_site_fract_x
_atom_site_fract_y
_atom_site_fract_z
Si Si1 0.273929 0.147327 0.122090
Si Si2 0.235764 0.911572 0.463329
Si Si3 0.948834 0.154546 0.113741
Si Si4 0.054771 0.133248 0.877918
Si Si5 0.920417 0.142867 0.746094
Si Si6 0.120952 0.103215 0.011271
Si Si7 0.619100 0.036404 0.138422
Si Si8 0.000000 0.500000 0.291043
O O1 0.249085 0.394113 0.147673
O O2 0.334255 0.146760 0.137826
O O3 0.264066 0.127648 0.038412
O O4 0.242392 0.651516 0.428837
O O5 0.176181 0.955283 0.480279
O O6 0.938100 0.431928 0.125201
O O7 0.927092 0.051883 0.186479
O O8 0.000000 0.000000 0.100516
O O9 0.911159 0.101927 0.048892
O O10 0.085141 0.183728 0.947967
O O11 0.042355 0.377669 0.839264
O O12 0.085729 0.971367 0.822081
O O13 0.000000 0.000000 0.890690
O O14 0.880950 0.325665 0.711913
O O15 0.973853 0.287672 0.750072
O O16 0.129364 0.289965 0.073565
#
# Coordination Sequence:
#
# PCOD9376277 Si02
#       8
#     8   8   8   8   8   8   8   4
#     4  10  19  35  60  90 124 163 206 260 317 387
#     4  10  19  37  60  88 121 163 205 257 316 387
#     4  11  22  36  56  89 129 157 200 256 314 376
#     4  10  22  40  59  84 122 166 216 256 312 385
#     4  10  21  37  60  84 115 162 209 253 302 380
#     4  11  23  35  59  93 121 161 206 261 321 381
#     4  11  22  35  61  92 123 162 208 262 324 378
#     4  10  20  42  60  80 110 174 210 252 308 380
#
# _framework density 21.276655999999999
#
# number of rings (size 3 to 8) (size 9 to 14) (size 15 to 20)
#    0.000    1.600    2.667    4.800    1.867    4.800 
#    0.000    0.000    0.000    1.600    0.000    0.000 
#    0.000    0.000    0.000    0.000    0.000    0.000 
#
# Total GULP energy -167235.825758 kJ/mol
# GULP energy per Si atom -5574.527525 kJ/mol
# Density = 2.122823 g / cm^3
# Si number density = 21.276656 Si / 1000 Ang^3
#
#
#
# Elastic Constant Matrix: (Units=GPa)
#
#
# Indices 1 2 3 4 5 6 
#
# 1 84.1677 20.8571 14.7700 0.0000 0.0000 0.0000
# 2 20.8571 96.2386 10.0725 0.0000 0.0000 0.0000
# 3 14.7700 10.0725 58.2869 0.0000 0.0000 0.0000
# 4 0.0000 0.0000 0.0000 13.2633 0.0000 0.0000
# 5 0.0000 0.0000 0.0000 0.0000 13.4916 0.0000
# 6 0.0000 0.0000 0.0000 0.0000 0.0000 31.5513
#
#
#
# Elastic Compliance Matrix: (Units=1/GPa)
#
#
# Indices 1 2 3 4 5 6 
#
# 1 0.013007 -0.002520 -0.002861 0.000000 0.000000 0.000000
# 2 -0.002520 0.011070 -0.001275 0.000000 0.000000 0.000000
# 3 -0.002861 -0.001275 0.018102 0.000000 0.000000 0.000000
# 4 0.000000 0.000000 0.000000 0.075396 0.000000 0.000000
# 5 0.000000 0.000000 0.000000 0.000000 0.074120 0.000000
# 6 0.000000 0.000000 0.000000 0.000000 0.000000 0.031694
#
#
# Mechanical properties :
#
#
# Convention : Reuss Voigt Hill
#
# Bulk Modulus (GPa) = 34.63844 36.67693 35.65768
# Shear Modulus (GPa) = 20.29858 24.52750 22.41304
#
# Velocity S-wave (km/s) = 3.09209 3.39896 3.24915
# Velocity P-wave (km/s) = 5.39105 5.71659 5.55620
#
# Compressibility (1/GPa) = 0.02886966
#
# Stress axis : x y z
#
# Youngs Moduli (GPa) = 76.87921 90.33186 55.24350
#
# Poissons Ratio (x) = 0.22760 0.15803
# Poissons Ratio (y) = 0.19370 0.07041
# Poissons Ratio (z) = 0.21993 0.11513
#
# Static dielectric constant tensor:
#      x y z
#    x 1.823100 0.000000 0.000000 
#    y 0.000000 1.932030 0.000000 
#    z 0.000000 0.000000 1.737790 
# 
# From -- ./inp_files/7335.got.cif
#   From: 2010.05.17/outbox.cif.g08.bks.cpg/sg45_4_cif.got.tgz:7335.got - 2010.06.03 19:51:22.
