data_PCOD9376442
_publ_section_title
;
Structure prediction by ZEFSAII (Michael W. Deem and Ramdas Pophale) SiO2 
 PCOD9376442
Probable space group: I B A 2
;
_chemical_formula_sum "Si O2"
_cell_formula_units_Z 52
_cell_length_a 15.423290
_cell_length_b 11.103728
_cell_length_c 12.482223
_cell_angle_alpha 90.000000
_cell_angle_beta 90.000000
_cell_angle_gamma 90.000000
_cell_volume 2137.655795
_symmetry_space_group_name_H-M "I B A 2"
_symmetry_group_IT_number 45
_symmetry_cell_setting 'orthorhombic'
loop_
_space_group_symop_operation_xyz
x,y,z
-x,-y,z
-x,y,1/2+z
x,-y,1/2+z
1/2+x,1/2+y,1/2+z
1/2-x,1/2-y,1/2+z
1/2-x,1/2+y,z
1/2+x,1/2-y,z
loop_
_atom_site_type_symbol
_atom_site_label
_atom_site_fract_x
_atom_site_fract_y
_atom_site_fract_z
Si Si1 0.071976 0.153608 0.546820
Si Si2 0.879923 0.097059 0.466563
Si Si3 0.605797 0.874945 0.913811
Si Si4 0.291005 0.311425 0.659579
Si Si5 0.233456 0.930406 0.262706
Si Si6 0.500000 0.000000 0.573643
Si Si7 0.977277 0.728180 0.224187
O O1 0.122685 0.259595 0.488097
O O2 0.978732 0.140415 0.484660
O O3 0.045876 0.182650 0.669156
O O4 0.120354 0.029627 0.529473
O O5 0.815493 0.181005 0.534376
O O6 0.846461 0.075851 0.346869
O O7 0.681923 0.916619 0.837870
O O8 0.523923 0.834681 0.839551
O O9 0.580593 0.977233 0.996692
O O10 0.237913 0.191398 0.690641
O O11 0.257668 0.440728 0.702780
O O12 0.384864 0.294168 0.716948
O O13 0.481766 0.116066 0.643530
#
# Coordination Sequence:
#
# PCOD9376442 Si02
#       7
#     8   8   8   8   8   4   8
#     4   9  20  39  66  94 122 171 221 277 336 388
#     4  10  21  41  66  93 129 167 222 280 333 397
#     4  10  21  37  59  91 131 169 220 270 330 404
#     4  10  24  41  61  93 132 174 217 265 331 401
#     4  11  24  41  64  95 133 175 219 275 338 404
#     4  10  20  36  64  92 124 174 220 274 332 388
#     4   9  19  38  60  91 129 165 216 273 326 392
#
# _framework density 24.325711999999999
#
# number of rings (size 3 to 8) (size 9 to 14) (size 15 to 20)
#    0.000    2.154    0.000    2.308    0.000    9.846 
#    0.000    9.231    0.000    0.000    0.000    0.000 
#    0.000    0.000    0.000    0.000    0.000    0.000 
#
# Total GULP energy -145322.908997 kJ/mol
# GULP energy per Si atom -5589.342654 kJ/mol
# Density = 2.427035 g / cm^3
# Si number density = 24.325712 Si / 1000 Ang^3
#
#
#
# Elastic Constant Matrix: (Units=GPa)
#
#
# Indices 1 2 3 4 5 6 
#
# 1 70.3160 34.7034 7.1200 0.0000 0.0000 0.0000
# 2 34.7034 126.0128 28.6436 0.0000 0.0000 0.0000
# 3 7.1200 28.6436 58.7261 0.0000 0.0000 0.0000
# 4 0.0000 0.0000 0.0000 27.3028 0.0000 0.0000
# 5 0.0000 0.0000 0.0000 0.0000 43.4225 0.0000
# 6 0.0000 0.0000 0.0000 0.0000 0.0000 26.0500
#
#
#
# Elastic Compliance Matrix: (Units=1/GPa)
#
#
# Indices 1 2 3 4 5 6 
#
# 1 0.016462 -0.004589 0.000242 0.000000 0.000000 0.000000
# 2 -0.004589 0.010204 -0.004421 0.000000 0.000000 0.000000
# 3 0.000242 -0.004421 0.019155 0.000000 0.000000 0.000000
# 4 0.000000 0.000000 0.000000 0.036626 0.000000 0.000000
# 5 0.000000 0.000000 0.000000 0.000000 0.023030 0.000000
# 6 0.000000 0.000000 0.000000 0.000000 0.000000 0.038388
#
#
# Mechanical properties :
#
#
# Convention : Reuss Voigt Hill
#
# Bulk Modulus (GPa) = 35.35227 43.99877 39.67552
# Shear Modulus (GPa) = 29.26930 31.66092 30.46511
#
# Velocity S-wave (km/s) = 3.47252 3.61160 3.54274
# Velocity P-wave (km/s) = 5.53554 5.95971 5.75154
#
# Compressibility (1/GPa) = 0.02828673
#
# Stress axis : x y z
#
# Youngs Moduli (GPa) = 60.74752 97.99854 52.20548
#
# Poissons Ratio (x) = 0.44967 -0.01265
# Poissons Ratio (y) = 0.27874 0.23079
# Poissons Ratio (z) = -0.01471 0.43323
#
# Static dielectric constant tensor:
#      x y z
#    x 2.018260 0.000000 0.000000 
#    y 0.000000 1.922840 0.000000 
#    z 0.000000 0.000000 1.973910 
# 
# From -- ./inp_files/6790.got.cif
#   From: 2010.05.17/outbox.cif.g08.bks.cpg/sg45_4_cif.got.tgz:6790.got - 2010.06.03 19:51:22.
