data_PCOD9376773
_publ_section_title
;
Structure prediction by ZEFSAII (Michael W. Deem and Ramdas Pophale) SiO2 
 PCOD9376773
Probable space group: I B A 2
;
_chemical_formula_sum "Si O2"
_cell_formula_units_Z 56
_cell_length_a 20.443215
_cell_length_b 14.820684
_cell_length_c 8.592534
_cell_angle_alpha 90.000000
_cell_angle_beta 90.000000
_cell_angle_gamma 90.000000
_cell_volume 2603.386827
_symmetry_space_group_name_H-M "I B A 2"
_symmetry_group_IT_number 45
_symmetry_cell_setting 'orthorhombic'
loop_
_space_group_symop_operation_xyz
x,y,z
-x,-y,z
-x,y,1/2+z
x,-y,1/2+z
1/2+x,1/2+y,1/2+z
1/2-x,1/2-y,1/2+z
1/2-x,1/2+y,z
1/2+x,1/2-y,z
loop_
_atom_site_type_symbol
_atom_site_label
_atom_site_fract_x
_atom_site_fract_y
_atom_site_fract_z
Si Si1 0.768115 0.291473 0.493230
Si Si2 0.500000 0.500000 0.854491
Si Si3 0.500000 0.000000 0.059257
Si Si4 0.346398 0.265051 0.787700
Si Si5 0.790835 0.095923 0.405470
Si Si6 0.411948 0.076285 0.796805
Si Si7 0.712771 0.022732 0.118722
Si Si8 0.582468 0.583224 0.595967
O O1 0.693195 0.300637 0.436746
O O2 0.789049 0.259767 0.665038
O O3 0.797159 0.204629 0.400478
O O4 0.794439 0.394155 0.495323
O O5 0.559060 0.519825 0.736474
O O6 0.477287 0.580174 0.971272
O O7 0.442128 0.033469 0.949586
O O8 0.529465 0.076393 0.171186
O O9 0.383806 0.174305 0.828110
O O10 0.394667 0.328934 0.690983
O O11 0.769616 0.052772 0.241567
O O12 0.855191 0.057744 0.490115
O O13 0.733324 0.066444 0.526402
O O14 0.353149 0.019954 0.718674
#
# Coordination Sequence:
#
# PCOD9376773 Si02
#       8
#     8   4   4   8   8   8   8   8
#     4  10  21  40  56  93 133 155 199 261 314 389
#     4  10  22  44  60  90 120 166 214 256 282 378
#     4  10  22  40  64  82 122 160 212 252 282 364
#     4  10  22  41  60  88 127 161 200 257 315 371
#     4  11  22  38  63  96 123 164 201 256 324 373
#     4  10  21  41  59  88 120 161 204 251 300 363
#     4  11  23  36  64  92 129 160 205 254 327 371
#     4  10  23  40  64  85 127 160 210 253 308 364
#
# _framework density 21.510442000000001
#
# number of rings (size 3 to 8) (size 9 to 14) (size 15 to 20)
#    0.000    1.714    2.857    1.714    6.000    1.143 
#    0.000    0.000    0.000    0.000    0.000    0.000 
#    0.000    0.000    0.000    0.000    0.000    0.000 
#
# Total GULP energy -155900.153681 kJ/mol
# GULP energy per Si atom -5567.862631 kJ/mol
# Density = 2.146148 g / cm^3
# Si number density = 21.510442 Si / 1000 Ang^3
#
#
#
# Elastic Constant Matrix: (Units=GPa)
#
#
# Indices 1 2 3 4 5 6 
#
# 1 77.8889 21.3561 35.6032 0.0000 0.0000 0.0000
# 2 21.3561 47.7910 32.9803 0.0000 0.0000 0.0000
# 3 35.6032 32.9803 70.0613 0.0000 0.0000 0.0000
# 4 0.0000 0.0000 0.0000 13.6591 0.0000 0.0000
# 5 0.0000 0.0000 0.0000 0.0000 52.6855 0.0000
# 6 0.0000 0.0000 0.0000 0.0000 0.0000 24.5001
#
#
#
# Elastic Compliance Matrix: (Units=1/GPa)
#
#
# Indices 1 2 3 4 5 6 
#
# 1 0.016909 -0.002409 -0.007459 0.000000 0.000000 0.000000
# 2 -0.002409 0.031336 -0.013527 0.000000 0.000000 0.000000
# 3 -0.007459 -0.013527 0.024431 0.000000 0.000000 0.000000
# 4 0.000000 0.000000 0.000000 0.073211 0.000000 0.000000
# 5 0.000000 0.000000 0.000000 0.000000 0.018981 0.000000
# 6 0.000000 0.000000 0.000000 0.000000 0.000000 0.040816
#
#
# Mechanical properties :
#
#
# Convention : Reuss Voigt Hill
#
# Bulk Modulus (GPa) = 38.62935 41.73560 40.18248
# Shear Modulus (GPa) = 19.14976 25.22239 22.18608
#
# Velocity S-wave (km/s) = 2.98695 3.42799 3.21504
# Velocity P-wave (km/s) = 5.46747 5.92560 5.70114
#
# Compressibility (1/GPa) = 0.02588705
#
# Stress axis : x y z
#
# Youngs Moduli (GPa) = 59.14160 31.91265 40.93160
#
# Poissons Ratio (x) = 0.07687 0.30529
# Poissons Ratio (y) = 0.14245 0.55367
# Poissons Ratio (z) = 0.44111 0.43167
#
# Static dielectric constant tensor:
#      x y z
#    x 1.839920 0.000000 0.000000 
#    y 0.000000 1.852440 0.000000 
#    z 0.000000 0.000000 1.796430 
# 
# From -- ./inp_files/1851.got.cif
#   From: 2010.05.17/outbox.cif.g08.bks.cpg/sg45_1_cif.got.tgz:1851.got - 2010.06.03 19:51:22.
