data_PCOD9376443
_publ_section_title
;
Structure prediction by ZEFSAII (Michael W. Deem and Ramdas Pophale) SiO2 
 PCOD9376443
Probable space group: I B A 2
;
_chemical_formula_sum "Si O2"
_cell_formula_units_Z 64
_cell_length_a 9.597248
_cell_length_b 20.040379
_cell_length_c 14.519622
_cell_angle_alpha 90.000000
_cell_angle_beta 90.000000
_cell_angle_gamma 90.000000
_cell_volume 2792.595014
_symmetry_space_group_name_H-M "I B A 2"
_symmetry_group_IT_number 45
_symmetry_cell_setting 'orthorhombic'
loop_
_space_group_symop_operation_xyz
x,y,z
-x,-y,z
-x,y,1/2+z
x,-y,1/2+z
1/2+x,1/2+y,1/2+z
1/2-x,1/2-y,1/2+z
1/2-x,1/2+y,z
1/2+x,1/2-y,z
loop_
_atom_site_type_symbol
_atom_site_label
_atom_site_fract_x
_atom_site_fract_y
_atom_site_fract_z
Si Si1 0.944035 0.811034 0.523390
Si Si2 0.609465 0.556762 0.760049
Si Si3 0.323085 0.817107 0.233497
Si Si4 0.128107 0.689962 0.520362
Si Si5 0.105415 0.941517 0.537763
Si Si6 0.630115 0.033864 0.275501
Si Si7 0.427977 0.066460 0.982459
Si Si8 0.520061 0.299734 0.749436
O O1 0.786600 0.815751 0.485112
O O2 0.032940 0.749894 0.485301
O O3 0.028411 0.876767 0.501493
O O4 0.954839 0.806076 0.636855
O O5 0.500000 0.500000 0.790417
O O6 0.611362 0.555613 0.648696
O O7 0.755991 0.524147 0.790571
O O8 0.563143 0.633137 0.780466
O O9 0.337215 0.795942 0.127301
O O10 0.321777 0.897917 0.228099
O O11 0.444091 0.769685 0.273927
O O12 0.178883 0.799672 0.282954
O O13 0.026146 0.626811 0.513073
O O14 0.265862 0.936596 0.508720
O O15 0.000000 0.000000 0.508751
O O16 0.573951 0.062445 0.371982
O O17 0.500000 0.000000 0.225839
O O18 0.500000 0.000000 0.017546
#
# Coordination Sequence:
#
# PCOD9376443 Si02
#       8
#     8   8   8   8   8   8   8   8
#     4   9  18  35  59  98 122 152 203 258 304 358
#     4  10  20  38  65  91 120 159 209 261 306 371
#     4  10  21  37  62  92 121 160 207 251 311 370
#     4  10  20  36  65  87 126 160 201 254 304 363
#     4  10  21  36  63  93 121 154 212 252 304 369
#     4  11  26  41  58  89 129 162 209 256 313 378
#     4  11  25  41  57  86 128 160 203 255 305 373
#     4   9  19  35  59  96 125 152 204 264 305 360
#
# _framework density 22.917752
#
# number of rings (size 3 to 8) (size 9 to 14) (size 15 to 20)
#    0.000    2.000    1.250    1.500    7.000    2.500 
#    0.000    2.500    0.000    0.000    0.000    0.000 
#    0.000    0.000    0.000    0.000    0.000    0.000 
#
# Total GULP energy -178459.999858 kJ/mol
# GULP energy per Si atom -5576.874996 kJ/mol
# Density = 2.286559 g / cm^3
# Si number density = 22.917752 Si / 1000 Ang^3
#
#
#
# Elastic Constant Matrix: (Units=GPa)
#
#
# Indices 1 2 3 4 5 6 
#
# 1 225.6566 99.8900 -10.7672 0.0000 0.0000 0.0000
# 2 99.8900 153.5753 -17.5690 0.0000 0.0000 0.0000
# 3 -10.7672 -17.5690 41.2700 0.0000 0.0000 0.0000
# 4 0.0000 0.0000 0.0000 -42.3712 0.0000 0.0000
# 5 0.0000 0.0000 0.0000 0.0000 -34.5082 0.0000
# 6 0.0000 0.0000 0.0000 0.0000 0.0000 33.3398
#
#
#
# Elastic Compliance Matrix: (Units=1/GPa)
#
#
# Indices 1 2 3 4 5 6 
#
# 1 0.006224 -0.004060 -0.000105 0.000000 0.000000 0.000000
# 2 -0.004060 0.009493 0.002982 0.000000 0.000000 0.000000
# 3 -0.000105 0.002982 0.025473 0.000000 0.000000 0.000000
# 4 0.000000 0.000000 0.000000 -0.023601 0.000000 0.000000
# 5 0.000000 0.000000 0.000000 0.000000 -0.028979 0.000000
# 6 0.000000 0.000000 0.000000 0.000000 0.000000 0.029994
#
#
# Mechanical properties :
#
#
# Convention : Reuss Voigt Hill
#
# Bulk Modulus (GPa) = 25.75665 62.62329 44.18997
# Shear Modulus (GPa) = 147.44211 14.55528 80.99869
#
# Velocity S-wave (km/s) = 8.02963 2.52287 5.95147
# Velocity P-wave (km/s) = 9.86052 5.98925 8.15784
#
# Compressibility (1/GPa) = 0.03882493
#
# Stress axis : x y z
#
# Youngs Moduli (GPa) = 160.67400 105.33584 39.25740
#
# Poissons Ratio (x) = 0.42768 0.00411
# Poissons Ratio (y) = 0.65235 -0.11707
# Poissons Ratio (z) = 0.01682 -0.31413
#
# Static dielectric constant tensor:
#      x y z
#    x 1.945910 0.000000 0.000000 
#    y 0.000000 1.773520 0.000000 
#    z 0.000000 0.000000 1.914610 
# 
# From -- ./inp_files/8470.got.cif
#   From: 2010.05.17/outbox.cif.g08.bks.cpg/sg45_5_cif.got.tgz:8470.got - 2010.06.03 19:51:22.
