data_PCOD9376076
_publ_section_title
;
Structure prediction by ZEFSAII (Michael W. Deem and Ramdas Pophale) SiO2 
 PCOD9376076
Probable space group: I B A 2
;
_chemical_formula_sum "Si O2"
_cell_formula_units_Z 64
_cell_length_a 5.521916
_cell_length_b 20.871453
_cell_length_c 25.517722
_cell_angle_alpha 90.000000
_cell_angle_beta 90.000000
_cell_angle_gamma 90.000000
_cell_volume 2940.927930
_symmetry_space_group_name_H-M "I B A 2"
_symmetry_group_IT_number 45
_symmetry_cell_setting 'orthorhombic'
loop_
_space_group_symop_operation_xyz
x,y,z
-x,-y,z
-x,y,1/2+z
x,-y,1/2+z
1/2+x,1/2+y,1/2+z
1/2-x,1/2-y,1/2+z
1/2-x,1/2+y,z
1/2+x,1/2-y,z
loop_
_atom_site_type_symbol
_atom_site_label
_atom_site_fract_x
_atom_site_fract_y
_atom_site_fract_z
Si Si1 0.169476 0.614077 0.212740
Si Si2 0.330749 0.368150 0.245444
Si Si3 0.249885 0.002759 0.296669
Si Si4 0.991952 0.786440 0.341039
Si Si5 0.457311 0.251313 0.634093
Si Si6 0.987307 0.394191 0.599473
Si Si7 0.500337 0.289647 0.963304
Si Si8 0.515228 0.376385 0.059133
O O1 0.446490 0.638848 0.204570
O O2 0.218796 0.563582 0.259015
O O3 0.064521 0.586401 0.158392
O O4 0.939070 0.656377 0.231480
O O5 0.278102 0.442863 0.257105
O O6 0.434238 0.338673 0.298604
O O7 0.500000 0.000000 0.327823
O O8 0.000000 0.000000 0.327848
O O9 0.213330 0.735582 0.333522
O O10 0.005849 0.806635 0.401748
O O11 0.207274 0.251125 0.664488
O O12 0.462541 0.183862 0.602430
O O13 0.463083 0.310712 0.594104
O O14 0.223589 0.409608 0.565359
O O15 0.721349 0.414009 0.580113
O O16 0.257343 0.246900 0.973448
O O17 0.480485 0.350657 0.000702
#
# Coordination Sequence:
#
# PCOD9376076 Si02
#       8
#     8   8   8   8   8   8   8   8
#     4  10  19  32  50  73  99 130 168 211 261 309
#     4  10  19  35  52  69 100 133 169 216 258 305
#     4   8  16  30  51  72  91 119 162 210 252 296
#     4  10  21  35  50  72 100 134 176 214 258 313
#     4   8  14  23  34  49  76 111 150 182 213 262
#     4  10  18  27  41  64  94 123 155 203 245 289
#     4  10  18  30  49  67  89 128 174 217 252 292
#     4  10  17  28  43  62  91 128 167 201 239 290
#
# _framework density 21.761838999999998
#
# number of rings (size 3 to 8) (size 9 to 14) (size 15 to 20)
#    0.000    2.500    0.000    4.500    0.000    0.000 
#    0.000   11.250    0.000    0.000    0.000    0.000 
#    0.000   36.000    0.000    4.500    0.000    0.500 
#
# Total GULP energy -178175.377508 kJ/mol
# GULP energy per Si atom -5567.980547 kJ/mol
# Density = 2.171231 g / cm^3
# Si number density = 21.761839 Si / 1000 Ang^3
#
#
#
# Elastic Constant Matrix: (Units=GPa)
#
#
# Indices 1 2 3 4 5 6 
#
# 1 238.7145 11.4003 26.9909 0.0000 0.0000 0.0000
# 2 11.4003 18.5696 12.6696 0.0000 0.0000 0.0000
# 3 26.9909 12.6696 60.4328 0.0000 0.0000 0.0000
# 4 0.0000 0.0000 0.0000 -9.0440 0.0000 0.0000
# 5 0.0000 0.0000 0.0000 0.0000 21.9893 0.0000
# 6 0.0000 0.0000 0.0000 0.0000 0.0000 15.1691
#
#
#
# Elastic Compliance Matrix: (Units=1/GPa)
#
#
# Indices 1 2 3 4 5 6 
#
# 1 0.004453 -0.001607 -0.001652 0.000000 0.000000 0.000000
# 2 -0.001607 0.063420 -0.012578 0.000000 0.000000 0.000000
# 3 -0.001652 -0.012578 0.019922 0.000000 0.000000 0.000000
# 4 0.000000 0.000000 0.000000 -0.110570 0.000000 0.000000
# 5 0.000000 0.000000 0.000000 0.000000 0.045477 0.000000
# 6 0.000000 0.000000 0.000000 0.000000 0.000000 0.065924
#
#
# Mechanical properties :
#
#
# Convention : Reuss Voigt Hill
#
# Bulk Modulus (GPa) = 17.81864 46.64873 32.23369
# Shear Modulus (GPa) = 35.97002 23.39993 29.68497
#
# Velocity S-wave (km/s) = 4.06999 3.28269 3.69736
# Velocity P-wave (km/s) = 5.50384 5.98754 5.75078
#
# Compressibility (1/GPa) = 0.05612099
#
# Stress axis : x y z
#
# Youngs Moduli (GPa) = 224.58787 15.76801 50.19565
#
# Poissons Ratio (x) = 0.02533 0.08292
# Poissons Ratio (y) = 0.36081 0.63137
# Poissons Ratio (z) = 0.37098 0.19833
#
# Static dielectric constant tensor:
#      x y z
#    x 1.978890 0.000000 0.000000 
#    y 0.000000 1.882410 0.000000 
#    z 0.000000 0.000000 1.741280 
# 
# From -- ./inp_files/9471.got.cif
#   From: 2010.05.17/outbox.cif.g08.bks.cpg/sg45_5_cif.got.tgz:9471.got - 2010.06.03 19:51:22.
