data_PCOD9376021
_publ_section_title
;
Structure prediction by ZEFSAII (Michael W. Deem and Ramdas Pophale) SiO2 
 PCOD9376021
Probable space group: I M M 2
;
_chemical_formula_sum "Si O2"
_cell_formula_units_Z 20
_cell_length_a 9.000000
_cell_length_b 27.000000
_cell_length_c 9.000000
_cell_angle_alpha 90.000000
_cell_angle_beta 90.000000
_cell_angle_gamma 90.000000
_cell_volume 2187.000000
_symmetry_space_group_name_H-M "I M M 2"
_symmetry_group_IT_number 44
_symmetry_cell_setting 'orthorhombic'
loop_
_space_group_symop_operation_xyz
x,y,z
-x,-y,z
-x,y,z
x,-y,z
1/2+x,1/2+y,1/2+z
1/2-x,1/2-y,1/2+z
1/2-x,1/2+y,1/2+z
1/2+x,1/2-y,1/2+z
loop_
_atom_site_type_symbol
_atom_site_label
_atom_site_fract_x
_atom_site_fract_y
_atom_site_fract_z
Si Si1 0.819789 0.097877 0.853950
Si Si2 0.179449 0.000000 0.331726
Si Si3 0.177693 0.404075 0.679514
Si Si4 0.673379 0.708043 0.342436
Si Si5 0.673459 0.301949 0.698964
Si Si6 0.679386 0.500000 0.176120
O O1 0.787033 0.152436 0.787876
O O2 0.774269 0.050740 0.756378
O O3 0.000000 0.096605 0.878014
O O4 0.737133 0.094139 0.010571
O O5 0.247428 0.049310 0.259864
O O6 0.220359 0.000000 0.504830
O O7 0.000000 0.000000 0.314956
O O8 0.234656 0.351100 0.741003
O O9 0.000000 0.406943 0.685458
O O10 0.500000 0.717003 0.306702
O O11 0.688203 0.705647 0.521138
O O12 0.769104 0.752470 0.277550
O O13 0.500000 0.310564 0.731280
O O14 0.500000 0.500000 0.182986
#
# Coordination Sequence:
#
# PCOD9376021 Si02
#       6
#     8   4   8   8   8   4
#     4   9  18  36  59  82 109 143 183 225 270 325
#     4  11  22  37  56  82 114 147 182 221 272 328
#     4  11  22  37  57  82 110 144 185 226 270 322
#     4   9  19  34  53  81 113 143 180 226 271 320
#     4  10  21  37  57  81 109 145 185 225 274 327
#     4   9  19  35  58  84 108 139 180 223 268 322
#
# _framework density 9.1449470000000002
#
# number of rings (size 3 to 8) (size 9 to 14) (size 15 to 20)
#    0.000    2.200    0.000    4.500    0.000    6.400 
#    0.000    4.000    0.000    0.000    0.000    0.000 
#    0.000    0.000    0.000    0.000    0.000    0.000 
#
# Total GULP energy -111615.949934 kJ/mol
# GULP energy per Si atom -5580.797497 kJ/mol
# Density = 0.912413 g / cm^3
# Si number density = 9.144947 Si / 1000 Ang^3
#
#
#
# Elastic Constant Matrix: (Units=GPa)
#
#
# Indices 1 2 3 4 5 6 
#
# 1 101.1520 81.2057 43.4092 -0.0002 0.0000 0.0000
# 2 81.2057 195.1721 68.1710 0.0004 0.0001 0.0001
# 3 43.4092 68.1710 49.6716 0.0028 0.0014 -0.0005
# 4 -0.0002 0.0004 0.0028 32.6052 0.0002 0.0000
# 5 0.0000 0.0001 0.0014 0.0002 20.2681 0.0002
# 6 0.0000 0.0001 -0.0005 0.0000 0.0002 33.3349
#
#
#
# Elastic Compliance Matrix: (Units=1/GPa)
#
#
# Indices 1 2 3 4 5 6 
#
# 1 0.017061 -0.003632 -0.009926 0.000001 0.000001 0.000000
# 2 -0.003632 0.010614 -0.011394 0.000001 0.000001 0.000000
# 3 -0.009926 -0.011394 0.044444 -0.000004 -0.000003 0.000001
# 4 0.000001 0.000001 -0.000004 0.030670 0.000000 0.000000
# 5 0.000001 0.000001 -0.000003 0.000000 0.049339 0.000000
# 6 0.000000 0.000000 0.000001 0.000000 0.000000 0.029999
#
#
# Mechanical properties :
#
#
# Convention : Reuss Voigt Hill
#
# Bulk Modulus (GPa) = 45.01097 81.28528 63.14812
# Shear Modulus (GPa) = 20.88240 27.45562 24.16901
#
# Velocity S-wave (km/s) = 3.38264 3.87865 3.63911
# Velocity P-wave (km/s) = 6.31819 8.03728 7.22901
#
# Compressibility (1/GPa) = 0.02221681
#
# Stress axis : x y z
#
# Youngs Moduli (GPa) = 58.61160 94.21122 22.50017
#
# Poissons Ratio (x) = 0.34215 0.22334
# Poissons Ratio (y) = 0.21286 0.25636
# Poissons Ratio (z) = 0.58178 1.07342
#
# Static dielectric constant tensor:
#      x y z
#    x 1.610720 0.000000 0.000000 
#    y 0.000000 1.631750 0.000000 
#    z 0.000000 0.000000 1.623480 
# 
# From -- ./inp_files/4680.got.cif
#   From: 2010.05.17/outbox.ucp.g08.bks.cvg/sg44_3_cif.got.tgz:4680.got - 2010.06.11 16:32:36.
