data_PCOD9376735
_publ_section_title
;
Structure prediction by ZEFSAII (Michael W. Deem and Ramdas Pophale) SiO2 
 PCOD9376735
Probable space group: I B A 2
;
_chemical_formula_sum "Si O2"
_cell_formula_units_Z 48
_cell_length_a 9.095084
_cell_length_b 26.884158
_cell_length_c 9.167953
_cell_angle_alpha 90.000000
_cell_angle_beta 90.000000
_cell_angle_gamma 90.000000
_cell_volume 2241.689883
_symmetry_space_group_name_H-M "I B A 2"
_symmetry_group_IT_number 45
_symmetry_cell_setting 'orthorhombic'
loop_
_space_group_symop_operation_xyz
x,y,z
-x,-y,z
-x,y,1/2+z
x,-y,1/2+z
1/2+x,1/2+y,1/2+z
1/2-x,1/2-y,1/2+z
1/2-x,1/2+y,z
1/2+x,1/2-y,z
loop_
_atom_site_type_symbol
_atom_site_label
_atom_site_fract_x
_atom_site_fract_y
_atom_site_fract_z
Si Si1 0.646296 0.964396 0.197260
Si Si2 0.994730 0.372166 0.345285
Si Si3 0.937670 0.260157 0.794146
Si Si4 0.705152 0.108560 0.107610
Si Si5 0.165345 0.211680 0.595358
Si Si6 0.173455 0.992095 0.971611
O O1 0.608349 0.910118 0.256780
O O2 0.767011 0.984998 0.309570
O O3 0.500000 0.000000 0.196703
O O4 0.725333 0.965298 0.042594
O O5 0.942713 0.383437 0.509532
O O6 0.980893 0.313119 0.319705
O O7 0.153728 0.385589 0.275379
O O8 0.814380 0.269735 0.671867
O O9 0.045288 0.220963 0.720001
O O10 0.873861 0.241125 0.947830
O O11 0.811496 0.153632 0.065332
O O12 0.777319 0.056984 0.062165
O O13 0.000000 0.000000 0.978723
#
# Coordination Sequence:
#
# PCOD9376735 Si02
#       6
#     8   8   8   8   8   8
#     4  11  22  41  68  92 123 170 218 266 316 384
#     4  10  21  38  67  93 120 163 225 263 304 381
#     4  11  22  42  65  95 130 171 215 274 321 392
#     4  10  22  41  64  96 125 166 215 262 324 390
#     4  11  23  42  65  94 131 169 217 265 329 386
#     4  11  24  43  61  95 135 162 207 272 335 387
#
# _framework density 21.412416
#
# number of rings (size 3 to 8) (size 9 to 14) (size 15 to 20)
#    0.000    1.333    1.667    5.000    2.333    0.000 
#   12.000    0.000    0.000    0.000    0.000    0.000 
#    0.000    0.000    0.000    0.000    0.000    0.000 
#
# Total GULP energy -134021.619762 kJ/mol
# GULP energy per Si atom -5584.234157 kJ/mol
# Density = 2.136368 g / cm^3
# Si number density = 21.412416 Si / 1000 Ang^3
#
#
#
# Elastic Constant Matrix: (Units=GPa)
#
#
# Indices 1 2 3 4 5 6 
#
# 1 89.6272 38.0040 26.3077 0.0001 0.0005 -0.0001
# 2 38.0040 94.6252 57.4341 0.0000 -0.0001 -0.0001
# 3 26.3077 57.4341 101.5409 0.0002 0.0031 -0.0003
# 4 0.0001 0.0000 0.0002 12.9718 0.0003 0.0000
# 5 0.0005 -0.0001 0.0031 0.0003 23.2830 -0.0002
# 6 -0.0001 -0.0001 -0.0003 0.0000 -0.0002 19.5793
#
#
#
# Elastic Compliance Matrix: (Units=1/GPa)
#
#
# Indices 1 2 3 4 5 6 
#
# 1 0.013476 -0.005015 -0.000655 0.000000 0.000000 0.000000
# 2 -0.005015 0.017959 -0.008859 0.000000 0.000001 0.000000
# 3 -0.000655 -0.008859 0.015029 0.000000 -0.000002 0.000000
# 4 0.000000 0.000000 0.000000 0.077090 -0.000001 0.000000
# 5 0.000000 0.000001 -0.000002 -0.000001 0.042950 0.000000
# 6 0.000000 0.000000 0.000000 0.000000 0.000000 0.051074
#
#
# Mechanical properties :
#
#
# Convention : Reuss Voigt Hill
#
# Bulk Modulus (GPa) = 57.44936 58.80941 58.12938
# Shear Modulus (GPa) = 19.80687 22.10332 20.95510
#
# Velocity S-wave (km/s) = 3.04471 3.21638 3.13172
# Velocity P-wave (km/s) = 6.26486 6.42792 6.34692
#
# Compressibility (1/GPa) = 0.01740663
#
# Stress axis : x y z
#
# Youngs Moduli (GPa) = 74.20626 55.68205 66.53921
#
# Poissons Ratio (x) = 0.27923 0.04358
# Poissons Ratio (y) = 0.37213 0.58946
# Poissons Ratio (z) = 0.04860 0.49328
#
# Static dielectric constant tensor:
#      x y z
#    x 1.795430 0.000000 0.000000 
#    y 0.000000 1.794620 0.000000 
#    z 0.000000 0.000000 1.770200 
# 
# From -- ./inp_files/1073.got.cif
#   From: 2010.05.17/outbox.cif.g08.bks.cpg/sg45_1_cif.got.tgz:1073.got - 2010.06.03 19:51:22.
