data_PCOD9376898
_publ_section_title
;
Structure prediction by ZEFSAII (Michael W. Deem and Ramdas Pophale) SiO2 
 PCOD9376898
Probable space group: I B A 2
;
_chemical_formula_sum "Si O2"
_cell_formula_units_Z 40
_cell_length_a 20.100369
_cell_length_b 8.370960
_cell_length_c 8.976537
_cell_angle_alpha 90.000000
_cell_angle_beta 90.000000
_cell_angle_gamma 90.000000
_cell_volume 1510.386594
_symmetry_space_group_name_H-M "I B A 2"
_symmetry_group_IT_number 45
_symmetry_cell_setting 'orthorhombic'
loop_
_space_group_symop_operation_xyz
x,y,z
-x,-y,z
-x,y,1/2+z
x,-y,1/2+z
1/2+x,1/2+y,1/2+z
1/2-x,1/2-y,1/2+z
1/2-x,1/2+y,z
1/2+x,1/2-y,z
loop_
_atom_site_type_symbol
_atom_site_label
_atom_site_fract_x
_atom_site_fract_y
_atom_site_fract_z
Si Si1 0.541080 0.167559 0.337930
Si Si2 0.357677 0.351314 0.646981
Si Si3 0.686187 0.175544 0.885501
Si Si4 0.548990 0.366524 0.624564
Si Si5 0.289764 0.139665 0.062062
O O1 0.608281 0.208116 0.241193
O O2 0.560066 0.231784 0.500555
O O3 0.489707 0.285791 0.258303
O O4 0.500000 0.000000 0.342076
O O5 0.362591 0.291436 0.476588
O O6 0.392672 0.517501 0.674355
O O7 0.279597 0.394761 0.652066
O O8 0.760163 0.234392 0.942533
O O9 0.681826 0.004753 0.966334
O O10 0.669555 0.177795 0.711614
O O11 0.500000 0.500000 0.553123
#
# Coordination Sequence:
#
# PCOD9376898 Si02
#       5
#     8   8   8   8   8
#     4  11  23  45  68 107 139 180 240 305 351 432
#     4   9  24  41  69  99 139 193 230 285 381 418
#     4  10  22  42  66  99 142 181 244 294 351 434
#     4  10  21  44  71  97 142 180 235 287 358 448
#     4  10  22  42  65 100 139 183 238 296 353 430
#
# _framework density 26.483287000000001
#
# number of rings (size 3 to 8) (size 9 to 14) (size 15 to 20)
#    1.200    0.800    0.000    3.600    2.800    0.000 
#   14.400    0.000    0.000    0.000    0.000    0.000 
#    0.000    0.000    0.000    0.000    0.000    0.000 
#
# Total GULP energy -111609.021761 kJ/mol
# GULP energy per Si atom -5580.451088 kJ/mol
# Density = 2.642301 g / cm^3
# Si number density = 26.483287 Si / 1000 Ang^3
#
#
#
# Elastic Constant Matrix: (Units=GPa)
#
#
# Indices 1 2 3 4 5 6 
#
# 1 55.6662 21.7603 11.3609 0.0000 0.0000 0.0000
# 2 21.7603 170.3198 65.4980 0.0000 0.0000 0.0000
# 3 11.3609 65.4980 182.6193 0.0000 0.0000 0.0000
# 4 0.0000 0.0000 0.0000 42.9142 0.0000 0.0000
# 5 0.0000 0.0000 0.0000 0.0000 41.1785 0.0000
# 6 0.0000 0.0000 0.0000 0.0000 0.0000 47.1108
#
#
#
# Elastic Compliance Matrix: (Units=1/GPa)
#
#
# Indices 1 2 3 4 5 6 
#
# 1 0.018929 -0.002280 -0.000360 0.000000 0.000000 0.000000
# 2 -0.002280 0.007085 -0.002399 0.000000 0.000000 0.000000
# 3 -0.000360 -0.002399 0.006359 0.000000 0.000000 0.000000
# 4 0.000000 0.000000 0.000000 0.023302 0.000000 0.000000
# 5 0.000000 0.000000 0.000000 0.000000 0.024285 0.000000
# 6 0.000000 0.000000 0.000000 0.000000 0.000000 0.021227
#
#
# Mechanical properties :
#
#
# Convention : Reuss Voigt Hill
#
# Bulk Modulus (GPa) = 44.85385 67.31594 56.08490
# Shear Modulus (GPa) = 42.12429 46.90645 44.51537
#
# Velocity S-wave (km/s) = 3.99256 4.21309 4.10431
# Velocity P-wave (km/s) = 6.18284 7.01002 6.60938
#
# Compressibility (1/GPa) = 0.02229463
#
# Stress axis : x y z
#
# Youngs Moduli (GPa) = 52.82918 141.13722 157.26210
#
# Poissons Ratio (x) = 0.32179 0.05659
# Poissons Ratio (y) = 0.12045 0.37733
# Poissons Ratio (z) = 0.01901 0.33864
#
# Static dielectric constant tensor:
#      x y z
#    x 2.256120 0.000000 0.000000 
#    y 0.000000 2.036800 0.000000 
#    z 0.000000 0.000000 2.043700 
# 
# From -- ./inp_files/956.got.cif
#   From: 2010.05.17/outbox.cif.g08.bks.cpg/sg45_1_cif.got.tgz:956.got - 2010.06.03 19:51:22.
