data_PCOD9376603
_publ_section_title
;
Structure prediction by ZEFSAII (Michael W. Deem and Ramdas Pophale) SiO2 
 PCOD9376603
Probable space group: I B A 2
;
_chemical_formula_sum "Si O2"
_cell_formula_units_Z 60
_cell_length_a 11.950628
_cell_length_b 17.123069
_cell_length_c 14.052562
_cell_angle_alpha 90.000000
_cell_angle_beta 90.000000
_cell_angle_gamma 90.000000
_cell_volume 2875.595827
_symmetry_space_group_name_H-M "I B A 2"
_symmetry_group_IT_number 45
_symmetry_cell_setting 'orthorhombic'
loop_
_space_group_symop_operation_xyz
x,y,z
-x,-y,z
-x,y,1/2+z
x,-y,1/2+z
1/2+x,1/2+y,1/2+z
1/2-x,1/2-y,1/2+z
1/2-x,1/2+y,z
1/2+x,1/2-y,z
loop_
_atom_site_type_symbol
_atom_site_label
_atom_site_fract_x
_atom_site_fract_y
_atom_site_fract_z
Si Si1 0.352641 0.140558 0.000000
Si Si2 0.165744 0.164221 0.263039
Si Si3 0.126362 0.900767 0.064831
Si Si4 0.507793 0.222671 0.348962
Si Si5 0.619473 0.414050 0.063435
Si Si6 0.500000 0.000000 0.487243
Si Si7 0.638531 0.746277 0.175714
Si Si8 0.677064 0.878139 0.418974
O O1 0.400192 0.166156 0.897439
O O2 0.426616 0.067202 0.037621
O O3 0.223446 0.116835 0.002528
O O4 0.367560 0.211570 0.073533
O O5 0.071946 0.195968 0.334692
O O6 0.124211 0.122882 0.168559
O O7 0.242775 0.235272 0.224453
O O8 0.251561 0.112540 0.323351
O O9 0.126627 0.845436 0.157200
O O10 0.001440 0.892144 0.021594
O O11 0.134108 0.993486 0.077966
O O12 0.232985 0.875700 0.002815
O O13 0.456402 0.215235 0.242728
O O14 0.398424 0.200756 0.412242
O O15 0.591817 0.949672 0.430435
#
# Coordination Sequence:
#
# PCOD9376603 Si02
#       8
#     8   8   8   8   8   4   8   8
#     4  10  21  42  67 100 135 181 230 294 348 418
#     4  10  21  43  62  99 139 171 234 289 346 419
#     4  11  21  43  68  97 137 182 228 286 349 430
#     4  10  21  42  66  97 138 173 230 290 341 417
#     4  10  22  42  69  96 139 183 230 283 358 425
#     4  10  20  42  66  94 136 168 242 274 354 416
#     4  10  22  40  67 102 133 179 229 283 356 415
#     4  10  22  40  69  95 134 181 229 292 345 419
#
# _framework density 20.865241000000001
#
# number of rings (size 3 to 8) (size 9 to 14) (size 15 to 20)
#    0.000    1.867    2.667    0.800    0.000    2.133 
#   21.600   10.667    0.000    0.000    0.000    0.000 
#    0.000    0.000    0.000    0.000    0.000    0.000 
#
# Total GULP energy -167073.313915 kJ/mol
# GULP energy per Si atom -5569.110464 kJ/mol
# Density = 2.081775 g / cm^3
# Si number density = 20.865241 Si / 1000 Ang^3
#
#
#
# Elastic Constant Matrix: (Units=GPa)
#
#
# Indices 1 2 3 4 5 6 
#
# 1 159.9525 62.0787 58.9105 0.0000 0.0000 0.0000
# 2 62.0787 67.0232 47.4715 0.0000 0.0000 0.0000
# 3 58.9105 47.4715 63.4204 0.0001 0.0000 0.0000
# 4 0.0000 0.0000 0.0001 13.2087 0.0000 0.0000
# 5 0.0000 0.0000 0.0000 0.0000 26.4617 0.0000
# 6 0.0000 0.0000 0.0000 0.0000 0.0000 28.8636
#
#
#
# Elastic Compliance Matrix: (Units=1/GPa)
#
#
# Indices 1 2 3 4 5 6 
#
# 1 0.010531 -0.006014 -0.005280 0.000000 0.000000 0.000000
# 2 -0.006014 0.035191 -0.020755 0.000000 0.000000 0.000000
# 3 -0.005280 -0.020755 0.036208 0.000000 0.000000 0.000000
# 4 0.000000 0.000000 0.000000 0.075708 0.000000 0.000000
# 5 0.000000 0.000000 0.000000 0.000000 0.037791 0.000000
# 6 0.000000 0.000000 0.000000 0.000000 0.000000 0.034646
#
#
# Mechanical properties :
#
#
# Convention : Reuss Voigt Hill
#
# Bulk Modulus (GPa) = 56.08062 69.70195 62.89128
# Shear Modulus (GPa) = 16.66028 21.83581 19.24804
#
# Velocity S-wave (km/s) = 2.82879 3.23850 3.04055
# Velocity P-wave (km/s) = 6.13231 6.88928 6.52179
#
# Compressibility (1/GPa) = 0.01783147
#
# Stress axis : x y z
#
# Youngs Moduli (GPa) = 94.96165 28.41660 27.61811
#
# Poissons Ratio (x) = 0.17089 0.14583
# Poissons Ratio (y) = 0.57107 0.57321
# Poissons Ratio (z) = 0.50143 0.58978
#
# Static dielectric constant tensor:
#      x y z
#    x 1.793010 0.000000 0.000000 
#    y 0.000000 1.754290 0.000000 
#    z 0.000000 0.000000 1.726130 
# 
# From -- ./inp_files/6253.got.cif
#   From: 2010.05.17/outbox.cif.g08.bks.cpg/sg45_4_cif.got.tgz:6253.got - 2010.06.03 19:51:22.
