data_PCOD9376533
_publ_section_title
;
Structure prediction by ZEFSAII (Michael W. Deem and Ramdas Pophale) SiO2 
 PCOD9376533
Probable space group: I B A 2
;
_chemical_formula_sum "Si O2"
_cell_formula_units_Z 56
_cell_length_a 9.029516
_cell_length_b 18.082362
_cell_length_c 15.653513
_cell_angle_alpha 90.000000
_cell_angle_beta 90.000000
_cell_angle_gamma 90.000000
_cell_volume 2555.826975
_symmetry_space_group_name_H-M "I B A 2"
_symmetry_group_IT_number 45
_symmetry_cell_setting 'orthorhombic'
loop_
_space_group_symop_operation_xyz
x,y,z
-x,-y,z
-x,y,1/2+z
x,-y,1/2+z
1/2+x,1/2+y,1/2+z
1/2-x,1/2-y,1/2+z
1/2-x,1/2+y,z
1/2+x,1/2-y,z
loop_
_atom_site_type_symbol
_atom_site_label
_atom_site_fract_x
_atom_site_fract_y
_atom_site_fract_z
Si Si1 0.245545 0.601829 0.221130
Si Si2 0.717226 0.451848 0.548117
Si Si3 0.500000 0.000000 0.149051
Si Si4 0.619144 0.348933 0.867293
Si Si5 0.000000 0.000000 0.789918
Si Si6 0.303431 0.846581 0.909606
Si Si7 0.413352 0.615715 0.062023
Si Si8 0.592845 0.224584 0.383339
O O1 0.092703 0.560965 0.200139
O O2 0.367264 0.537066 0.236933
O O3 0.219872 0.645626 0.308270
O O4 0.315980 0.645703 0.140933
O O5 0.873487 0.457129 0.595714
O O6 0.749833 0.420489 0.454290
O O7 0.655047 0.534320 0.545200
O O8 0.586011 0.399399 0.584421
O O9 0.566578 0.430078 0.840734
O O10 0.511016 0.283733 0.833323
O O11 0.785777 0.328479 0.840127
O O12 0.604139 0.345251 0.970666
O O13 0.472578 0.826860 0.929088
O O14 0.197399 0.779482 0.937576
#
# Coordination Sequence:
#
# PCOD9376533 Si02
#       8
#     8   8   4   8   4   8   8   8
#     4  11  23  38  61  97 131 158 206 270 333 370
#     4  10  20  39  63  91 124 161 208 263 310 373
#     4  10  24  36  58  98 128 154 206 274 328 366
#     4  11  22  43  69  96 123 175 219 262 312 387
#     4  12  22  40  70  98 122 178 220 258 320 386
#     4  11  22  42  64  89 121 170 215 258 315 386
#     4  10  20  39  63  93 130 161 203 265 325 379
#     4  10  24  41  66  90 130 165 223 263 312 376
#
# _framework density 21.910715
#
# number of rings (size 3 to 8) (size 9 to 14) (size 15 to 20)
#    0.000    1.429    2.857    3.429    6.000    0.571 
#    0.000    1.429    0.000    0.000    0.000    0.000 
#    0.000    0.000    0.000    0.000    0.000    0.000 
#
# Total GULP energy -156154.225728 kJ/mol
# GULP energy per Si atom -5576.936633 kJ/mol
# Density = 2.186085 g / cm^3
# Si number density = 21.910715 Si / 1000 Ang^3
#
#
#
# Elastic Constant Matrix: (Units=GPa)
#
#
# Indices 1 2 3 4 5 6 
#
# 1 178.3677 35.6192 30.8307 0.0000 0.0000 0.0000
# 2 35.6192 75.5472 26.1558 0.0000 0.0000 0.0000
# 3 30.8307 26.1558 86.1627 0.0000 0.0000 0.0000
# 4 0.0000 0.0000 0.0000 1.1970 0.0000 0.0000
# 5 0.0000 0.0000 0.0000 0.0000 26.6475 0.0000
# 6 0.0000 0.0000 0.0000 0.0000 0.0000 30.8728
#
#
#
# Elastic Compliance Matrix: (Units=1/GPa)
#
#
# Indices 1 2 3 4 5 6 
#
# 1 0.006364 -0.002472 -0.001527 0.000000 0.000000 0.000000
# 2 -0.002472 0.015751 -0.003897 0.000000 0.000000 0.000000
# 3 -0.001527 -0.003897 0.013335 0.000000 0.000000 0.000000
# 4 0.000000 0.000000 0.000000 0.835453 0.000000 0.000000
# 5 0.000000 0.000000 0.000000 0.000000 0.037527 0.000000
# 6 0.000000 0.000000 0.000000 0.000000 0.000000 0.032391
#
#
# Mechanical properties :
#
#
# Convention : Reuss Voigt Hill
#
# Bulk Modulus (GPa) = 50.86677 58.36545 54.61611
# Shear Modulus (GPa) = 5.19121 28.24158 16.71640
#
# Velocity S-wave (km/s) = 1.54091 3.59407 2.76512
# Velocity P-wave (km/s) = 5.14118 6.62713 5.93088
#
# Compressibility (1/GPa) = 0.01965920
#
# Stress axis : x y z
#
# Youngs Moduli (GPa) = 157.13588 63.48627 74.98920
#
# Poissons Ratio (x) = 0.15693 0.11449
# Poissons Ratio (y) = 0.38842 0.29224
# Poissons Ratio (z) = 0.23991 0.24741
#
# Static dielectric constant tensor:
#      x y z
#    x 1.862130 0.000000 0.000000 
#    y 0.000000 1.792070 0.000000 
#    z 0.000000 0.000000 1.853610 
# 
# From -- ./inp_files/5767.got.cif
#   From: 2010.05.17/outbox.cif.g08.bks.cpg/sg45_3_cif.got.tgz:5767.got - 2010.06.03 19:51:22.
