data_PCOD9376418
_publ_section_title
;
Structure prediction by ZEFSAII (Michael W. Deem and Ramdas Pophale) SiO2 
 PCOD9376418
Probable space group: I B A 2
;
_chemical_formula_sum "Si O2"
_cell_formula_units_Z 60
_cell_length_a 20.207752
_cell_length_b 5.406786
_cell_length_c 24.528606
_cell_angle_alpha 90.000000
_cell_angle_beta 90.000000
_cell_angle_gamma 90.000000
_cell_volume 2679.970733
_symmetry_space_group_name_H-M "I B A 2"
_symmetry_group_IT_number 45
_symmetry_cell_setting 'orthorhombic'
loop_
_space_group_symop_operation_xyz
x,y,z
-x,-y,z
-x,y,1/2+z
x,-y,1/2+z
1/2+x,1/2+y,1/2+z
1/2-x,1/2-y,1/2+z
1/2-x,1/2+y,z
1/2+x,1/2-y,z
loop_
_atom_site_type_symbol
_atom_site_label
_atom_site_fract_x
_atom_site_fract_y
_atom_site_fract_z
Si Si1 0.429001 0.631474 0.179890
Si Si2 0.420756 0.057148 0.584891
Si Si3 0.785495 0.549606 0.762954
Si Si4 0.420411 0.022478 0.456549
Si Si5 0.000000 0.500000 0.747528
Si Si6 0.210877 0.390508 0.631870
Si Si7 0.597937 0.638327 0.285211
Si Si8 0.919799 0.976787 0.399702
O O1 0.500000 0.500000 0.175770
O O2 0.406278 0.692952 0.119469
O O3 0.388899 0.486929 0.226203
O O4 0.443399 0.896283 0.208075
O O5 0.409322 0.065507 0.520621
O O6 0.364345 0.878839 0.609582
O O7 0.500000 0.000000 0.592987
O O8 0.735579 0.773685 0.777550
O O9 0.791915 0.575320 0.697449
O O10 0.647830 0.136225 0.791377
O O11 0.395694 0.261857 0.424062
O O12 0.500000 0.000000 0.449781
O O13 0.395910 0.760278 0.433493
O O14 0.026644 0.271479 0.781574
O O15 0.251142 0.144379 0.615245
O O16 0.600287 0.462709 0.336621
O O17 0.000000 0.000000 0.402754
#
# Coordination Sequence:
#
# PCOD9376418 Si02
#       8
#     8   8   8   8   4   8   8   8
#     4  10  22  34  54  99 133 162 202 269 343 393
#     4  11  23  41  67  99 133 174 226 287 337 402
#     4  10  24  42  61  88 128 176 218 256 322 405
#     4   9  22  39  61  89 127 169 217 268 333 389
#     4  10  20  36  52  98 130 158 194 262 350 384
#     4  10  24  43  65  93 135 181 218 265 337 416
#     4  11  24  36  65  90 132 167 217 274 326 401
#     4  10  21  40  60  91 126 171 213 266 333 399
#
# _framework density 22.388303000000001
#
# number of rings (size 3 to 8) (size 9 to 14) (size 15 to 20)
#    0.000    1.867    0.667    2.000   14.000    3.733 
#    0.000    0.000    0.000    4.800    0.000    0.000 
#    0.000    0.000    0.000    0.000    0.000    0.000 
#
# Total GULP energy -167534.885007 kJ/mol
# GULP energy per Si atom -5584.496167 kJ/mol
# Density = 2.233735 g / cm^3
# Si number density = 22.388303 Si / 1000 Ang^3
#
#
#
# Elastic Constant Matrix: (Units=GPa)
#
#
# Indices 1 2 3 4 5 6 
#
# 1 74.4289 37.9575 23.0216 0.0000 0.0000 0.0000
# 2 37.9575 142.2966 61.3353 0.0000 0.0000 0.0000
# 3 23.0216 61.3353 122.0338 0.0000 0.0000 0.0000
# 4 0.0000 0.0000 0.0000 22.8434 0.0000 0.0000
# 5 0.0000 0.0000 0.0000 0.0000 12.1058 0.0000
# 6 0.0000 0.0000 0.0000 0.0000 0.0000 31.9768
#
#
#
# Elastic Compliance Matrix: (Units=1/GPa)
#
#
# Indices 1 2 3 4 5 6 
#
# 1 0.015664 -0.003708 -0.001091 0.000000 0.000000 0.000000
# 2 -0.003708 0.009849 -0.004251 0.000000 0.000000 0.000000
# 3 -0.001091 -0.004251 0.010537 0.000000 0.000000 0.000000
# 4 0.000000 0.000000 0.000000 0.043776 0.000000 0.000000
# 5 0.000000 0.000000 0.000000 0.000000 0.082605 0.000000
# 6 0.000000 0.000000 0.000000 0.000000 0.000000 0.031273
#
#
# Mechanical properties :
#
#
# Convention : Reuss Voigt Hill
#
# Bulk Modulus (GPa) = 55.71078 64.82091 60.26584
# Shear Modulus (GPa) = 22.95824 27.81488 25.38656
#
# Velocity S-wave (km/s) = 3.20575 3.52857 3.37103
# Velocity P-wave (km/s) = 6.21614 6.75403 6.49066
#
# Compressibility (1/GPa) = 0.01794985
#
# Stress axis : x y z
#
# Youngs Moduli (GPa) = 63.83977 101.53469 94.90606
#
# Poissons Ratio (x) = 0.37649 0.10358
# Poissons Ratio (y) = 0.23672 0.40341
# Poissons Ratio (z) = 0.06967 0.43158
#
# Static dielectric constant tensor:
#      x y z
#    x 1.913330 0.000000 0.000000 
#    y 0.000000 1.882580 0.000000 
#    z 0.000000 0.000000 1.813030 
# 
# From -- ./inp_files/9844.got.cif
#   From: 2010.05.17/outbox.cif.g08.bks.cpg/sg45_5_cif.got.tgz:9844.got - 2010.06.03 19:51:22.
