data_PCOD9376512
_publ_section_title
;
Structure prediction by ZEFSAII (Michael W. Deem and Ramdas Pophale) SiO2 
 PCOD9376512
Probable space group: I B A 2
;
_chemical_formula_sum "Si O2"
_cell_formula_units_Z 64
_cell_length_a 18.445724
_cell_length_b 9.322874
_cell_length_c 16.981746
_cell_angle_alpha 90.000000
_cell_angle_beta 90.000000
_cell_angle_gamma 90.000000
_cell_volume 2920.302643
_symmetry_space_group_name_H-M "I B A 2"
_symmetry_group_IT_number 45
_symmetry_cell_setting 'orthorhombic'
loop_
_space_group_symop_operation_xyz
x,y,z
-x,-y,z
-x,y,1/2+z
x,-y,1/2+z
1/2+x,1/2+y,1/2+z
1/2-x,1/2-y,1/2+z
1/2-x,1/2+y,z
1/2+x,1/2-y,z
loop_
_atom_site_type_symbol
_atom_site_label
_atom_site_fract_x
_atom_site_fract_y
_atom_site_fract_z
Si Si1 0.474761 0.657926 0.417630
Si Si2 0.108223 0.511743 0.645549
Si Si3 0.766743 0.854215 0.672467
Si Si4 0.705417 0.609441 0.776553
Si Si5 0.844714 0.735098 0.528499
Si Si6 0.059414 0.374806 0.996365
Si Si7 0.410750 0.845889 0.297212
Si Si8 0.698137 0.999504 0.915746
O O1 0.500000 0.500000 0.393425
O O2 0.399873 0.686606 0.467576
O O3 0.535382 0.717663 0.474973
O O4 0.474499 0.777271 0.348241
O O5 0.188349 0.576550 0.657174
O O6 0.113621 0.368628 0.592012
O O7 0.064113 0.616083 0.589356
O O8 0.074925 0.536630 0.730978
O O9 0.758629 0.705987 0.721452
O O10 0.802293 0.838255 0.587109
O O11 0.806365 0.961010 0.731908
O O12 0.632039 0.700352 0.774058
O O13 0.739157 0.576481 0.863872
O O14 0.790483 0.629467 0.479323
O O15 0.138854 0.402874 0.960221
O O16 0.000000 0.500000 0.972382
O O17 0.350540 0.922436 0.350304
#
# Coordination Sequence:
#
# PCOD9376512 Si02
#       8
#     8   8   8   8   8   8   8   8
#     4  11  25  45  61  92 133 162 215 272 315 370
#     4  10  20  39  65  91 120 162 215 254 312 384
#     4  11  21  38  62  95 132 157 204 264 317 386
#     4  11  21  38  63  95 130 158 204 261 320 384
#     4  10  21  39  66  91 129 167 208 263 328 369
#     4  11  21  42  65  90 119 167 221 262 297 375
#     4  10  21  41  63  90 129 164 200 264 319 377
#     4  10  20  38  65  90 124 159 213 252 312 376
#
# _framework density 21.915538000000002
#
# number of rings (size 3 to 8) (size 9 to 14) (size 15 to 20)
#    0.000    1.500    7.500    0.000    0.000    7.000 
#    4.500    1.875    0.000    0.000    0.000    0.000 
#    0.000    0.000    0.000    0.000    0.000    0.000 
#
# Total GULP energy -178157.635692 kJ/mol
# GULP energy per Si atom -5567.426115 kJ/mol
# Density = 2.186566 g / cm^3
# Si number density = 21.915538 Si / 1000 Ang^3
#
#
#
# Elastic Constant Matrix: (Units=GPa)
#
#
# Indices 1 2 3 4 5 6 
#
# 1 41.8093 -5.5416 11.1282 0.0000 0.0000 0.0000
# 2 -5.5416 43.3638 10.4923 0.0000 0.0000 0.0000
# 3 11.1282 10.4923 83.2002 0.0000 0.0000 0.0000
# 4 0.0000 0.0000 0.0000 42.5500 0.0000 0.0000
# 5 0.0000 0.0000 0.0000 0.0000 20.0863 0.0000
# 6 0.0000 0.0000 0.0000 0.0000 0.0000 23.5801
#
#
#
# Elastic Compliance Matrix: (Units=1/GPa)
#
#
# Indices 1 2 3 4 5 6 
#
# 1 0.025527 0.004217 -0.003946 0.000000 0.000000 0.000000
# 2 0.004217 0.024483 -0.003652 0.000000 0.000000 0.000000
# 3 -0.003946 -0.003652 0.013008 0.000000 0.000000 0.000000
# 4 0.000000 0.000000 0.000000 0.023502 0.000000 0.000000
# 5 0.000000 0.000000 0.000000 0.000000 0.049785 0.000000
# 6 0.000000 0.000000 0.000000 0.000000 0.000000 0.042409
#
#
# Mechanical properties :
#
#
# Convention : Reuss Voigt Hill
#
# Bulk Modulus (GPa) = 17.77568 22.28124 20.02846
# Shear Modulus (GPa) = 24.48252 27.39623 25.93938
#
# Velocity S-wave (km/s) = 3.34598 3.53949 3.44409
# Velocity P-wave (km/s) = 4.80167 5.18584 4.99744
#
# Compressibility (1/GPa) = 0.05625664
#
# Stress axis : x y z
#
# Youngs Moduli (GPa) = 39.17358 40.84447 76.87872
#
# Poissons Ratio (x) = -0.17224 0.30338
# Poissons Ratio (y) = -0.16520 0.28073
# Poissons Ratio (z) = 0.15459 0.14915
#
# Static dielectric constant tensor:
#      x y z
#    x 1.910020 0.000000 0.000000 
#    y 0.000000 1.885740 0.000000 
#    z 0.000000 0.000000 1.897040 
# 
# From -- ./inp_files/8463.got.cif
#   From: 2010.05.17/outbox.cif.g08.bks.cpg/sg45_5_cif.got.tgz:8463.got - 2010.06.03 19:51:22.
