data_PCOD9376038
_publ_section_title
;
Structure prediction by ZEFSAII (Michael W. Deem and Ramdas Pophale) SiO2 
 PCOD9376038
Probable space group: I B A 2
;
_chemical_formula_sum "Si O2"
_cell_formula_units_Z 64
_cell_length_a 28.313729
_cell_length_b 18.261666
_cell_length_c 5.460271
_cell_angle_alpha 90.000000
_cell_angle_beta 90.000000
_cell_angle_gamma 90.000000
_cell_volume 2823.265130
_symmetry_space_group_name_H-M "I B A 2"
_symmetry_group_IT_number 45
_symmetry_cell_setting 'orthorhombic'
loop_
_space_group_symop_operation_xyz
x,y,z
-x,-y,z
-x,y,1/2+z
x,-y,1/2+z
1/2+x,1/2+y,1/2+z
1/2-x,1/2-y,1/2+z
1/2-x,1/2+y,z
1/2+x,1/2-y,z
loop_
_atom_site_type_symbol
_atom_site_label
_atom_site_fract_x
_atom_site_fract_y
_atom_site_fract_z
Si Si1 0.683549 0.764103 0.109940
Si Si2 0.887572 0.541431 0.598378
Si Si3 0.718593 0.961060 0.203430
Si Si4 0.520220 0.415974 0.625914
Si Si5 0.517079 0.913373 0.268195
Si Si6 0.208603 0.717748 0.611260
Si Si7 0.682784 0.388707 0.108972
Si Si8 0.868900 0.884101 0.609185
O O1 0.734335 0.718828 0.109522
O O2 0.688435 0.809788 0.357648
O O3 0.641871 0.704262 0.109915
O O4 0.687643 0.810674 0.862822
O O5 0.894235 0.520107 0.314024
O O6 0.834243 0.562453 0.641750
O O7 0.929587 0.594389 0.674065
O O8 0.764247 0.916260 0.127415
O O9 0.722511 0.973344 0.497373
O O10 0.500000 0.500000 0.627568
O O11 0.499298 0.382322 0.377378
O O12 0.576741 0.408410 0.620466
O O13 0.512528 0.882748 0.540488
O O14 0.500000 0.000000 0.290745
O O15 0.189370 0.801188 0.610372
O O16 0.653919 0.410107 0.352709
O O17 0.657669 0.410783 0.855556
#
# Coordination Sequence:
#
# PCOD9376038 Si02
#       8
#     8   8   8   8   8   8   8   8
#     4   8  14  25  44  72  91 114 133 172 228 280
#     4  10  16  25  37  49  73 102 126 167 214 240
#     4  10  21  33  40  57  87 121 157 190 221 273
#     4  10  21  38  50  67  90 125 164 210 261 290
#     4  10  14  20  34  53  66  85 118 161 199 245
#     4   8  14  25  44  66  97 114 134 169 225 279
#     4  10  19  33  47  69  91 123 157 194 238 289
#     4  10  19  33  53  69  91 116 158 203 240 296
#
# _framework density 22.668790000000001
#
# number of rings (size 3 to 8) (size 9 to 14) (size 15 to 20)
#    0.000    2.500    2.500    1.500    0.000    0.000 
#   13.500    0.000    0.000    0.000    0.000    0.000 
#    0.000    2.000    0.000    0.000    0.000    8.500 
#
# Total GULP energy -178351.648035 kJ/mol
# GULP energy per Si atom -5573.489001 kJ/mol
# Density = 2.261719 g / cm^3
# Si number density = 22.668790 Si / 1000 Ang^3
#
#
#
# Elastic Constant Matrix: (Units=GPa)
#
#
# Indices 1 2 3 4 5 6 
#
# 1 150.4893 14.0356 34.9323 0.0000 0.0000 0.0000
# 2 14.0356 22.2453 10.0709 0.0000 0.0000 0.0000
# 3 34.9323 10.0709 176.5505 0.0000 0.0000 0.0000
# 4 0.0000 0.0000 0.0000 10.7176 0.0000 0.0000
# 5 0.0000 0.0000 0.0000 0.0000 14.8183 0.0000
# 6 0.0000 0.0000 0.0000 0.0000 0.0000 7.2238
#
#
#
# Elastic Compliance Matrix: (Units=1/GPa)
#
#
# Indices 1 2 3 4 5 6 
#
# 1 0.007305 -0.004060 -0.001214 0.000000 0.000000 0.000000
# 2 -0.004060 0.048401 -0.001958 0.000000 0.000000 0.000000
# 3 -0.001214 -0.001958 0.006016 0.000000 0.000000 0.000000
# 4 0.000000 0.000000 0.000000 0.093305 0.000000 0.000000
# 5 0.000000 0.000000 0.000000 0.000000 0.067484 0.000000
# 6 0.000000 0.000000 0.000000 0.000000 0.000000 0.138430
#
#
# Mechanical properties :
#
#
# Convention : Reuss Voigt Hill
#
# Bulk Modulus (GPa) = 21.15960 51.92918 36.54439
# Shear Modulus (GPa) = 12.78257 25.90170 19.34213
#
# Velocity S-wave (km/s) = 2.37720 3.38393 2.92421
# Velocity P-wave (km/s) = 4.10966 6.18267 5.24951
#
# Compressibility (1/GPa) = 0.04725988
#
# Stress axis : x y z
#
# Youngs Moduli (GPa) = 136.88503 20.66068 166.22489
#
# Poissons Ratio (x) = 0.08388 0.20178
# Poissons Ratio (y) = 0.55572 0.32541
# Poissons Ratio (z) = 0.16616 0.04045
#
# Static dielectric constant tensor:
#      x y z
#    x 1.851940 0.000000 0.000000 
#    y 0.000000 1.794100 0.000000 
#    z 0.000000 0.000000 2.006020 
# 
# From -- ./inp_files/565.got.cif
#   From: 2010.05.17/outbox.cif.g08.bks.cpg/sg45_1_cif.got.tgz:565.got - 2010.06.03 19:51:22.
