data_PCOD9376305
_publ_section_title
;
Structure prediction by ZEFSAII (Michael W. Deem and Ramdas Pophale) SiO2 
 PCOD9376305
Probable space group: I B A 2
;
_chemical_formula_sum "Si O2"
_cell_formula_units_Z 64
_cell_length_a 8.299654
_cell_length_b 14.389250
_cell_length_c 23.305685
_cell_angle_alpha 90.000000
_cell_angle_beta 90.000000
_cell_angle_gamma 90.000000
_cell_volume 2783.299990
_symmetry_space_group_name_H-M "I B A 2"
_symmetry_group_IT_number 45
_symmetry_cell_setting 'orthorhombic'
loop_
_space_group_symop_operation_xyz
x,y,z
-x,-y,z
-x,y,1/2+z
x,-y,1/2+z
1/2+x,1/2+y,1/2+z
1/2-x,1/2-y,1/2+z
1/2-x,1/2+y,z
1/2+x,1/2-y,z
loop_
_atom_site_type_symbol
_atom_site_label
_atom_site_fract_x
_atom_site_fract_y
_atom_site_fract_z
Si Si1 0.176643 0.548923 0.789770
Si Si2 0.034193 0.302916 0.210036
Si Si3 0.822649 0.022828 0.985999
Si Si4 0.649366 0.398703 0.095406
Si Si5 0.361190 0.799294 0.962304
Si Si6 0.537903 0.770681 0.082238
Si Si7 0.171109 0.373379 0.412536
Si Si8 0.818479 0.111904 0.725242
O O1 0.153840 0.624882 0.739811
O O2 0.217705 0.600562 0.848286
O O3 0.302578 0.469990 0.770824
O O4 0.000000 0.500000 0.797038
O O5 0.049310 0.303918 0.140943
O O6 0.060154 0.197802 0.231813
O O7 0.855569 0.337757 0.223919
O O8 0.691319 0.964495 0.951021
O O9 0.781918 0.129056 0.974864
O O10 0.821703 0.979843 0.050005
O O11 0.000000 0.000000 0.962913
O O12 0.484314 0.340846 0.085883
O O13 0.658317 0.428864 0.161226
O O14 0.789309 0.320899 0.084823
O O15 0.286877 0.703253 0.941137
O O16 0.489045 0.836208 0.915986
O O17 0.457730 0.796238 0.022115
#
# Coordination Sequence:
#
# PCOD9376305 Si02
#       8
#     8   8   8   8   8   8   8   8
#     4  10  22  42  68  94 133 176 234 275 329 408
#     4   9  20  37  64  96 126 172 215 274 335 394
#     4  12  26  41  63  98 135 179 230 280 339 407
#     4  10  21  38  65 100 137 175 217 275 342 403
#     4  12  24  42  68  95 136 177 224 285 344 404
#     4  10  19  37  65  93 136 166 221 268 340 404
#     4  12  26  46  67  98 133 182 227 281 344 406
#     4   9  20  41  65  97 130 172 219 273 333 398
#
# _framework density 22.994288000000001
#
# number of rings (size 3 to 8) (size 9 to 14) (size 15 to 20)
#    0.000    1.500    2.500    1.875    3.500    3.000 
#    0.000    1.875    0.000    1.500    0.000    0.000 
#    0.000    0.000    0.000    0.000    0.000    0.000 
#
# Total GULP energy -179015.761960 kJ/mol
# GULP energy per Si atom -5594.242561 kJ/mol
# Density = 2.294195 g / cm^3
# Si number density = 22.994288 Si / 1000 Ang^3
#
#
#
# Elastic Constant Matrix: (Units=GPa)
#
#
# Indices 1 2 3 4 5 6 
#
# 1 72.7509 27.5937 24.3432 0.0000 0.0000 0.0000
# 2 27.5937 93.4664 67.5451 0.0000 0.0000 0.0000
# 3 24.3432 67.5451 111.8111 0.0000 0.0000 0.0000
# 4 0.0000 0.0000 0.0000 28.5351 0.0000 0.0000
# 5 0.0000 0.0000 0.0000 0.0000 16.8858 0.0000
# 6 0.0000 0.0000 0.0000 0.0000 0.0000 42.3042
#
#
#
# Elastic Compliance Matrix: (Units=1/GPa)
#
#
# Indices 1 2 3 4 5 6 
#
# 1 0.015553 -0.003806 -0.001087 0.000000 0.000000 0.000000
# 2 -0.003806 0.019920 -0.011205 0.000000 0.000000 0.000000
# 3 -0.001087 -0.011205 0.015949 0.000000 0.000000 0.000000
# 4 0.000000 0.000000 0.000000 0.035045 0.000000 0.000000
# 5 0.000000 0.000000 0.000000 0.000000 0.059221 0.000000
# 6 0.000000 0.000000 0.000000 0.000000 0.000000 0.023638
#
#
# Mechanical properties :
#
#
# Convention : Reuss Voigt Hill
#
# Bulk Modulus (GPa) = 52.01261 57.44362 54.72811
# Shear Modulus (GPa) = 24.04632 28.11477 26.08055
#
# Velocity S-wave (km/s) = 3.23732 3.50048 3.37147
# Velocity P-wave (km/s) = 6.05331 6.43225 6.24565
#
# Compressibility (1/GPa) = 0.01922611
#
# Stress axis : x y z
#
# Youngs Moduli (GPa) = 64.29688 50.19985 62.69847
#
# Poissons Ratio (x) = 0.19107 0.06814
# Poissons Ratio (y) = 0.24473 0.70255
# Poissons Ratio (z) = 0.06988 0.56250
#
# Static dielectric constant tensor:
#      x y z
#    x 1.909600 0.000000 0.000000 
#    y 0.000000 1.855500 0.000000 
#    z 0.000000 0.000000 1.840540 
# 
# From -- ./inp_files/9596.got.cif
#   From: 2010.05.17/outbox.cif.g08.bks.cpg/sg45_5_cif.got.tgz:9596.got - 2010.06.03 19:51:22.
