data_PCOD9376967
_publ_section_title
;
Structure prediction by ZEFSAII (Michael W. Deem and Ramdas Pophale) SiO2 
 PCOD9376967
Probable space group: I B A 2
;
_chemical_formula_sum "Si O2"
_cell_formula_units_Z 56
_cell_length_a 14.673761
_cell_length_b 8.298720
_cell_length_c 19.268842
_cell_angle_alpha 90.000000
_cell_angle_beta 90.000000
_cell_angle_gamma 90.000000
_cell_volume 2346.433057
_symmetry_space_group_name_H-M "I B A 2"
_symmetry_group_IT_number 45
_symmetry_cell_setting 'orthorhombic'
loop_
_space_group_symop_operation_xyz
x,y,z
-x,-y,z
-x,y,1/2+z
x,-y,1/2+z
1/2+x,1/2+y,1/2+z
1/2-x,1/2-y,1/2+z
1/2-x,1/2+y,z
1/2+x,1/2-y,z
loop_
_atom_site_type_symbol
_atom_site_label
_atom_site_fract_x
_atom_site_fract_y
_atom_site_fract_z
Si Si1 0.331504 0.860364 0.776750
Si Si2 0.258228 0.400821 0.372952
Si Si3 0.261189 0.529647 0.132608
Si Si4 0.556367 0.671002 0.653710
Si Si5 0.624163 0.330739 0.433583
Si Si6 0.518350 0.692471 0.798931
Si Si7 0.382639 0.233618 0.085254
O O1 0.285928 0.696644 0.804429
O O2 0.285467 0.933062 0.707704
O O3 0.435646 0.804916 0.774920
O O4 0.314744 0.975798 0.842181
O O5 0.341946 0.495063 0.407473
O O6 0.212761 0.281525 0.426822
O O7 0.347804 0.646255 0.116712
O O8 0.313167 0.358188 0.125012
O O9 0.177556 0.571377 0.081474
O O10 0.500000 0.500000 0.653726
O O11 0.584683 0.709852 0.733035
O O12 0.479412 0.787162 0.623187
O O13 0.555232 0.268910 0.374717
O O14 0.593501 0.315495 0.511919
O O15 0.500000 0.500000 0.800858
#
# Coordination Sequence:
#
# PCOD9376967 Si02
#       7
#     8   8   8   8   8   8   8
#     4  11  21  39  68  98 129 175 231 292 351 406
#     4  10  22  39  61  95 128 177 226 283 350 414
#     4  11  22  40  67  95 129 171 223 283 340 409
#     4   9  20  38  62  94 125 167 221 270 332 409
#     4  11  23  41  63  93 136 177 228 281 348 429
#     4  11  21  38  64  97 130 170 229 287 341 412
#     4  11  23  42  65  94 133 179 220 276 346 419
#
# _framework density 23.866012999999999
#
# number of rings (size 3 to 8) (size 9 to 14) (size 15 to 20)
#    0.000    1.429    2.857    3.429    2.000    2.286 
#    5.143    0.714    3.143    0.000    0.000    0.000 
#    0.000    0.000    0.000    0.000    0.000    0.000 
#
# Total GULP energy -156214.632006 kJ/mol
# GULP energy per Si atom -5579.094000 kJ/mol
# Density = 2.381169 g / cm^3
# Si number density = 23.866013 Si / 1000 Ang^3
#
#
#
# Elastic Constant Matrix: (Units=GPa)
#
#
# Indices 1 2 3 4 5 6 
#
# 1 85.2738 4.1653 11.3553 0.0000 0.0000 0.0000
# 2 4.1653 41.2152 3.9849 0.0000 0.0000 0.0000
# 3 11.3553 3.9849 122.7070 0.0000 0.0000 0.0000
# 4 0.0000 0.0000 0.0000 32.6908 0.0000 0.0000
# 5 0.0000 0.0000 0.0000 0.0000 22.1271 0.0000
# 6 0.0000 0.0000 0.0000 0.0000 0.0000 28.4749
#
#
#
# Elastic Compliance Matrix: (Units=1/GPa)
#
#
# Indices 1 2 3 4 5 6 
#
# 1 0.011923 -0.001102 -0.001068 0.000000 0.000000 0.000000
# 2 -0.001102 0.024441 -0.000692 0.000000 0.000000 0.000000
# 3 -0.001068 -0.000692 0.008271 0.000000 0.000000 0.000000
# 4 0.000000 0.000000 0.000000 0.030590 0.000000 0.000000
# 5 0.000000 0.000000 0.000000 0.000000 0.045193 0.000000
# 6 0.000000 0.000000 0.000000 0.000000 0.000000 0.035119
#
#
# Mechanical properties :
#
#
# Convention : Reuss Voigt Hill
#
# Bulk Modulus (GPa) = 25.69862 32.02302 28.86082
# Shear Modulus (GPa) = 28.69779 31.97127 30.33453
#
# Velocity S-wave (km/s) = 3.47140 3.66405 3.56902
# Velocity P-wave (km/s) = 5.18255 5.59886 5.39472
#
# Compressibility (1/GPa) = 0.03891260
#
# Stress axis : x y z
#
# Youngs Moduli (GPa) = 83.87215 40.91467 120.90801
#
# Poissons Ratio (x) = 0.04508 0.12908
# Poissons Ratio (y) = 0.09241 0.08364
# Poissons Ratio (z) = 0.08954 0.02830
#
# Static dielectric constant tensor:
#      x y z
#    x 1.927000 0.000000 0.000000 
#    y 0.000000 1.999090 0.000000 
#    z 0.000000 0.000000 1.933690 
# 
# From -- ./inp_files/8876.got.cif
#   From: 2010.05.17/outbox.cif.g08.bks.cpg/sg45_5_cif.got.tgz:8876.got - 2010.06.03 19:51:22.
