data_PCOD9376428
_publ_section_title
;
Structure prediction by ZEFSAII (Michael W. Deem and Ramdas Pophale) SiO2 
 PCOD9376428
Probable space group: I B A 2
;
_chemical_formula_sum "Si O2"
_cell_formula_units_Z 60
_cell_length_a 8.442938
_cell_length_b 11.411130
_cell_length_c 27.836734
_cell_angle_alpha 90.000000
_cell_angle_beta 90.000000
_cell_angle_gamma 90.000000
_cell_volume 2681.887355
_symmetry_space_group_name_H-M "I B A 2"
_symmetry_group_IT_number 45
_symmetry_cell_setting 'orthorhombic'
loop_
_space_group_symop_operation_xyz
x,y,z
-x,-y,z
-x,y,1/2+z
x,-y,1/2+z
1/2+x,1/2+y,1/2+z
1/2-x,1/2-y,1/2+z
1/2-x,1/2+y,z
1/2+x,1/2-y,z
loop_
_atom_site_type_symbol
_atom_site_label
_atom_site_fract_x
_atom_site_fract_y
_atom_site_fract_z
Si Si1 0.176734 0.305710 0.161340
Si Si2 0.983498 0.865427 0.609369
Si Si3 0.347364 0.194630 0.465282
Si Si4 0.344891 0.306254 0.326644
Si Si5 0.402642 0.325421 0.896590
Si Si6 0.000000 0.500000 0.600200
Si Si7 0.065910 0.370234 0.264611
Si Si8 0.883389 0.669912 0.532734
O O1 0.355127 0.345032 0.151760
O O2 0.117835 0.306169 0.215701
O O3 0.142414 0.186128 0.133089
O O4 0.072238 0.399825 0.132826
O O5 0.925671 0.785578 0.564545
O O6 0.000000 0.000000 0.596487
O O7 0.477625 0.247258 0.428739
O O8 0.216491 0.119004 0.436099
O O9 0.251754 0.294803 0.494974
O O10 0.456675 0.135463 0.504509
O O11 0.473894 0.375605 0.358109
O O12 0.222067 0.244838 0.363538
O O13 0.229019 0.382776 0.294302
O O14 0.440478 0.209281 0.294850
O O15 0.136036 0.438355 0.568323
O O16 0.000000 0.500000 0.254985
#
# Coordination Sequence:
#
# PCOD9376428 Si02
#       8
#     8   8   8   8   8   4   8   8
#     4  11  24  42  62  93 130 178 220 275 333 383
#     4  11  26  41  65  92 132 174 228 277 328 385
#     4   9  17  33  63  85 123 168 210 265 323 380
#     4   9  19  37  66  93 122 168 207 260 333 386
#     4   8  16  35  64  86 125 169 196 270 331 378
#     4  10  22  36  62  80 128 172 218 264 322 384
#     4  11  22  40  66  95 128 167 218 268 320 397
#     4  10  20  36  58  89 121 174 220 262 321 385
#
# _framework density 22.372305000000001
#
# number of rings (size 3 to 8) (size 9 to 14) (size 15 to 20)
#    0.000    2.133    0.667    2.400    5.600    1.067 
#    0.000    2.667   55.733    0.000    0.000    0.000 
#    0.000    0.000    0.000    0.000    0.000    0.000 
#
# Total GULP energy -167234.479653 kJ/mol
# GULP energy per Si atom -5574.482655 kJ/mol
# Density = 2.232138 g / cm^3
# Si number density = 22.372305 Si / 1000 Ang^3
#
#
#
# Elastic Constant Matrix: (Units=GPa)
#
#
# Indices 1 2 3 4 5 6 
#
# 1 129.8006 16.9184 52.1412 0.0000 0.0000 0.0000
# 2 16.9184 76.4997 33.1308 0.0000 0.0000 0.0000
# 3 52.1412 33.1308 121.0399 0.0000 0.0000 0.0000
# 4 0.0000 0.0000 0.0000 -5.3954 0.0000 0.0000
# 5 0.0000 0.0000 0.0000 0.0000 45.2765 0.0000
# 6 0.0000 0.0000 0.0000 0.0000 0.0000 -28.8466
#
#
#
# Elastic Compliance Matrix: (Units=1/GPa)
#
#
# Indices 1 2 3 4 5 6 
#
# 1 0.009325 -0.000366 -0.003917 0.000000 0.000000 0.000000
# 2 -0.000366 0.014844 -0.003905 0.000000 0.000000 0.000000
# 3 -0.003917 -0.003905 0.011018 0.000000 0.000000 0.000000
# 4 0.000000 0.000000 0.000000 -0.185342 0.000000 0.000000
# 5 0.000000 0.000000 0.000000 0.000000 0.022087 0.000000
# 6 0.000000 0.000000 0.000000 0.000000 0.000000 -0.034666
#
#
# Mechanical properties :
#
#
# Convention : Reuss Voigt Hill
#
# Bulk Modulus (GPa) = 53.16091 59.08011 56.12051
# Shear Modulus (GPa) = -35.69217 17.21687 -9.23765
#
# Velocity S-wave (km/s) = -3.99855 2.77711 -2.03421
# Velocity P-wave (km/s) = 1.57978 6.06202 4.42966
#
# Compressibility (1/GPa) = 0.01881081
#
# Stress axis : x y z
#
# Youngs Moduli (GPa) = 107.23552 67.36595 90.76006
#
# Poissons Ratio (x) = 0.02465 0.35550
# Poissons Ratio (y) = 0.03925 0.35446
# Poissons Ratio (z) = 0.42003 0.26310
#
# Static dielectric constant tensor:
#      x y z
#    x 1.884830 0.000000 0.000000 
#    y 0.000000 1.812430 0.000000 
#    z 0.000000 0.000000 1.874700 
# 
# From -- ./inp_files/9953.got.cif
#   From: 2010.05.17/outbox.cif.g08.bks.cpg/sg45_5_cif.got.tgz:9953.got - 2010.06.03 19:51:22.
