data_PCOD9376475
_publ_section_title
;
Structure prediction by ZEFSAII (Michael W. Deem and Ramdas Pophale) SiO2 
 PCOD9376475
Probable space group: I B A 2
;
_chemical_formula_sum "Si O2"
_cell_formula_units_Z 56
_cell_length_a 16.101396
_cell_length_b 23.359587
_cell_length_c 5.848596
_cell_angle_alpha 90.000000
_cell_angle_beta 90.000000
_cell_angle_gamma 90.000000
_cell_volume 2199.785395
_symmetry_space_group_name_H-M "I B A 2"
_symmetry_group_IT_number 45
_symmetry_cell_setting 'orthorhombic'
loop_
_space_group_symop_operation_xyz
x,y,z
-x,-y,z
-x,y,1/2+z
x,-y,1/2+z
1/2+x,1/2+y,1/2+z
1/2-x,1/2-y,1/2+z
1/2-x,1/2+y,z
1/2+x,1/2-y,z
loop_
_atom_site_type_symbol
_atom_site_label
_atom_site_fract_x
_atom_site_fract_y
_atom_site_fract_z
Si Si1 0.323305 0.172911 0.100360
Si Si2 0.701948 0.300948 0.762391
Si Si3 0.717539 0.402442 0.406085
Si Si4 0.434707 0.080202 0.094288
Si Si5 0.463281 0.423397 0.890425
Si Si6 0.523590 0.294373 0.920037
Si Si7 0.881523 0.452103 0.620675
O O1 0.307317 0.233713 0.216464
O O2 0.255413 0.126184 0.180836
O O3 0.295931 0.189354 0.846889
O O4 0.408139 0.142646 0.179141
O O5 0.694884 0.348413 0.566521
O O6 0.621585 0.309263 0.925116
O O7 0.634026 0.437487 0.371709
O O8 0.793433 0.439109 0.510348
O O9 0.382648 0.081181 0.858555
O O10 0.469672 0.071642 0.518934
O O11 0.401533 0.018285 0.183489
O O12 0.505131 0.440632 0.646431
O O13 0.475878 0.354661 0.898497
O O14 0.504129 0.267201 0.665276
#
# Coordination Sequence:
#
# PCOD9376475 Si02
#       7
#     8   8   8   8   8   8   8
#     4  12  25  43  64  98 141 190 234 308 362 445
#     4  12  24  40  63  95 139 184 233 290 359 435
#     4  12  23  41  67  98 139 181 239 291 369 436
#     4  11  23  45  70 101 147 188 246 304 380 444
#     4  10  20  37  64  97 133 180 225 282 350 430
#     4  10  20  38  60  89 126 179 226 275 339 424
#     4  11  23  44  72 107 138 190 245 314 370 447
#
# _framework density 25.457028000000001
#
# number of rings (size 3 to 8) (size 9 to 14) (size 15 to 20)
#    0.000    0.857    5.714    5.143    0.000    0.000 
#    5.143    0.000    0.000    0.000    0.000   23.000 
#    0.000    0.000    0.000    0.000    0.000    0.000 
#
# Total GULP energy -156027.041190 kJ/mol
# GULP energy per Si atom -5572.394328 kJ/mol
# Density = 2.539909 g / cm^3
# Si number density = 25.457028 Si / 1000 Ang^3
#
#
#
# Elastic Constant Matrix: (Units=GPa)
#
#
# Indices 1 2 3 4 5 6 
#
# 1 157.9399 53.4121 34.7434 0.0000 0.0000 0.0000
# 2 53.4121 112.5257 22.1940 0.0000 0.0000 0.0000
# 3 34.7434 22.1940 87.5569 0.0000 0.0000 0.0000
# 4 0.0000 0.0000 0.0000 23.1425 0.0000 0.0000
# 5 0.0000 0.0000 0.0000 0.0000 44.8174 0.0000
# 6 0.0000 0.0000 0.0000 0.0000 0.0000 40.1858
#
#
#
# Elastic Compliance Matrix: (Units=1/GPa)
#
#
# Indices 1 2 3 4 5 6 
#
# 1 0.007966 -0.003324 -0.002318 0.000000 0.000000 0.000000
# 2 -0.003324 0.010741 -0.001404 0.000000 0.000000 0.000000
# 3 -0.002318 -0.001404 0.012697 0.000000 0.000000 0.000000
# 4 0.000000 0.000000 0.000000 0.043211 0.000000 0.000000
# 5 0.000000 0.000000 0.000000 0.000000 0.022313 0.000000
# 6 0.000000 0.000000 0.000000 0.000000 0.000000 0.024884
#
#
# Mechanical properties :
#
#
# Convention : Reuss Voigt Hill
#
# Bulk Modulus (GPa) = 57.76304 64.30238 61.03271
# Shear Modulus (GPa) = 35.29230 38.14068 36.71649
#
# Velocity S-wave (km/s) = 3.72741 3.87491 3.80187
# Velocity P-wave (km/s) = 6.42374 6.73304 6.58021
#
# Compressibility (1/GPa) = 0.01731211
#
# Stress axis : x y z
#
# Youngs Moduli (GPa) = 125.54134 93.09772 78.75926
#
# Poissons Ratio (x) = 0.30943 0.18259
# Poissons Ratio (y) = 0.41726 0.11057
# Poissons Ratio (z) = 0.29104 0.13070
#
# Static dielectric constant tensor:
#      x y z
#    x 2.089410 0.000000 0.000000 
#    y 0.000000 1.953820 0.000000 
#    z 0.000000 0.000000 2.398140 
# 
# From -- ./inp_files/433.got.cif
#   From: 2010.05.17/outbox.cif.g08.bks.cpg/sg45_1_cif.got.tgz:433.got - 2010.06.03 19:51:22.
