data_PCOD9376416
_publ_section_title
;
Structure prediction by ZEFSAII (Michael W. Deem and Ramdas Pophale) SiO2 
 PCOD9376416
Probable space group: I B A 2
;
_chemical_formula_sum "Si O2"
_cell_formula_units_Z 52
_cell_length_a 14.126933
_cell_length_b 8.341780
_cell_length_c 19.916858
_cell_angle_alpha 90.000000
_cell_angle_beta 90.000000
_cell_angle_gamma 90.000000
_cell_volume 2347.077577
_symmetry_space_group_name_H-M "I B A 2"
_symmetry_group_IT_number 45
_symmetry_cell_setting 'orthorhombic'
loop_
_space_group_symop_operation_xyz
x,y,z
-x,-y,z
-x,y,1/2+z
x,-y,1/2+z
1/2+x,1/2+y,1/2+z
1/2-x,1/2-y,1/2+z
1/2-x,1/2+y,z
1/2+x,1/2-y,z
loop_
_atom_site_type_symbol
_atom_site_label
_atom_site_fract_x
_atom_site_fract_y
_atom_site_fract_z
Si Si1 0.379212 0.339799 0.963740
Si Si2 0.144154 0.840261 0.674150
Si Si3 0.000000 0.500000 0.783019
Si Si4 0.406280 0.656535 0.026357
Si Si5 0.606176 0.983104 0.020304
Si Si6 0.931566 0.150129 0.821148
Si Si7 0.142878 0.538872 0.169846
O O1 0.362411 0.356012 0.884662
O O2 0.348766 0.504592 0.998619
O O3 0.491833 0.335439 0.987991
O O4 0.343457 0.165511 0.985427
O O5 0.086304 0.877632 0.606379
O O6 0.104160 0.889051 0.746335
O O7 0.147821 0.650378 0.675980
O O8 0.251389 0.898062 0.668523
O O9 0.034699 0.661238 0.821250
O O10 0.078341 0.419308 0.733277
O O11 0.358796 0.832865 0.019017
O O12 0.500000 0.000000 0.991971
O O13 0.597285 0.925404 0.097870
O O14 0.000000 0.000000 0.837002
#
# Coordination Sequence:
#
# PCOD9376416 Si02
#       7
#     8   8   4   8   8   8   8
#     4  10  20  35  63  89 123 157 203 250 309 371
#     4  10  24  38  64  92 128 156 215 258 325 358
#     4  10  24  40  66  88 124 164 216 252 312 374
#     4   9  19  36  55  93 115 152 205 251 295 373
#     4   9  18  33  64  85 118 153 200 253 304 354
#     4  11  24  39  62  95 120 172 207 253 317 379
#     4  10  21  42  62  97 119 163 209 265 308 374
#
# _framework density 22.155211999999999
#
# number of rings (size 3 to 8) (size 9 to 14) (size 15 to 20)
#    0.000    2.154    2.308    0.000   11.846    0.000 
#    0.000    0.000   10.154    0.000    0.000    0.000 
#    0.000    0.000    0.000    0.000    0.000    0.000 
#
# Total GULP energy -144779.291329 kJ/mol
# GULP energy per Si atom -5568.434282 kJ/mol
# Density = 2.210479 g / cm^3
# Si number density = 22.155212 Si / 1000 Ang^3
#
#
#
# Elastic Constant Matrix: (Units=GPa)
#
#
# Indices 1 2 3 4 5 6 
#
# 1 47.0338 10.3214 -6.0753 0.0000 0.0000 0.0000
# 2 10.3214 124.2979 49.9240 0.0000 0.0000 0.0000
# 3 -6.0753 49.9240 109.5739 0.0000 0.0000 0.0000
# 4 0.0000 0.0000 0.0000 9.5148 0.0000 0.0000
# 5 0.0000 0.0000 0.0000 0.0000 -22.3712 0.0000
# 6 0.0000 0.0000 0.0000 0.0000 0.0000 33.9102
#
#
#
# Elastic Compliance Matrix: (Units=1/GPa)
#
#
# Indices 1 2 3 4 5 6 
#
# 1 0.022217 -0.002864 0.002537 0.000000 0.000000 0.000000
# 2 -0.002864 0.010216 -0.004814 0.000000 0.000000 0.000000
# 3 0.002537 -0.004814 0.011460 0.000000 0.000000 0.000000
# 4 0.000000 0.000000 0.000000 0.105099 0.000000 0.000000
# 5 0.000000 0.000000 0.000000 0.000000 -0.044700 0.000000
# 6 0.000000 0.000000 0.000000 0.000000 0.000000 0.029490
#
#
# Mechanical properties :
#
#
# Convention : Reuss Voigt Hill
#
# Bulk Modulus (GPa) = 29.75084 43.24952 36.50018
# Shear Modulus (GPa) = 32.20249 19.32647 25.76448
#
# Velocity S-wave (km/s) = 3.81661 2.95671 3.41384
# Velocity P-wave (km/s) = 5.73407 5.58746 5.66124
#
# Compressibility (1/GPa) = 0.03361250
#
# Stress axis : x y z
#
# Youngs Moduli (GPa) = 45.00977 97.88254 87.25975
#
# Poissons Ratio (x) = 0.28031 -0.22134
# Poissons Ratio (y) = 0.12889 0.42003
# Poissons Ratio (z) = -0.11417 0.47116
#
# Static dielectric constant tensor:
#      x y z
#    x 1.770970 0.000000 0.000000 
#    y 0.000000 1.841070 0.000000 
#    z 0.000000 0.000000 1.853720 
# 
# From -- ./inp_files/8311.got.cif
#   From: 2010.05.17/outbox.cif.g08.bks.cpg/sg45_5_cif.got.tgz:8311.got - 2010.06.03 19:51:22.
