data_PCOD9376084
_publ_section_title
;
Structure prediction by ZEFSAII (Michael W. Deem and Ramdas Pophale) SiO2 
 PCOD9376084
Probable space group: I B A 2
;
_chemical_formula_sum "Si O2"
_cell_formula_units_Z 48
_cell_length_a 24.543778
_cell_length_b 25.342418
_cell_length_c 5.286030
_cell_angle_alpha 90.000000
_cell_angle_beta 90.000000
_cell_angle_gamma 90.000000
_cell_volume 3287.903690
_symmetry_space_group_name_H-M "I B A 2"
_symmetry_group_IT_number 45
_symmetry_cell_setting 'orthorhombic'
loop_
_space_group_symop_operation_xyz
x,y,z
-x,-y,z
-x,y,1/2+z
x,-y,1/2+z
1/2+x,1/2+y,1/2+z
1/2-x,1/2-y,1/2+z
1/2-x,1/2+y,z
1/2+x,1/2-y,z
loop_
_atom_site_type_symbol
_atom_site_label
_atom_site_fract_x
_atom_site_fract_y
_atom_site_fract_z
Si Si1 0.649351 0.465955 0.598020
Si Si2 0.800535 0.859527 0.687559
Si Si3 0.470352 0.419867 0.177915
Si Si4 0.016521 0.197366 0.170879
Si Si5 0.144091 0.187590 0.187204
Si Si6 0.776508 0.727216 0.101904
O O1 0.652291 0.490830 0.319950
O O2 0.694726 0.421550 0.645297
O O3 0.591034 0.436681 0.628545
O O4 0.835506 0.833061 0.459031
O O5 0.741233 0.832516 0.659642
O O6 0.826760 0.844244 0.958621
O O7 0.491518 0.439106 0.448866
O O8 0.479734 0.356391 0.178271
O O9 0.079569 0.182140 0.167255
O O10 0.001314 0.227341 0.422978
O O11 0.164282 0.248029 0.150244
O O12 0.740392 0.758850 0.313652
#
# Coordination Sequence:
#
# PCOD9376084 Si02
#       6
#     8   8   8   8   8   8
#     4  12  24  33  42  56  77 110 147 178 206 233
#     4  10  18  32  46  60  81 101 131 178 220 248
#     4  10  19  31  41  52  70 101 139 175 207 229
#     4  10  18  27  41  58  78 106 133 160 200 243
#     4  10  17  30  48  64  80 100 133 171 213 259
#     4   8  16  27  46  67  78  94 123 167 218 262
#
# _framework density 14.598967
#
# number of rings (size 3 to 8) (size 9 to 14) (size 15 to 20)
#    0.000    2.000    0.000    7.000    0.000    2.000 
#    0.000    0.000    0.000    0.000    0.000    0.000 
#    0.000    0.000    0.000    0.000    0.000    5.000 
#
# Total GULP energy -133739.716660 kJ/mol
# GULP energy per Si atom -5572.488194 kJ/mol
# Density = 1.456574 g / cm^3
# Si number density = 14.598967 Si / 1000 Ang^3
#
#
#
# Elastic Constant Matrix: (Units=GPa)
#
#
# Indices 1 2 3 4 5 6 
#
# 1 27.2791 23.1751 -0.4342 0.0000 0.0000 0.0000
# 2 23.1751 35.3548 -13.1779 0.0000 0.0000 0.0000
# 3 -0.4342 -13.1779 84.6590 0.0000 0.0000 0.0000
# 4 0.0000 0.0000 0.0000 12.1683 0.0000 0.0000
# 5 0.0000 0.0000 0.0000 0.0000 15.8662 0.0000
# 6 0.0000 0.0000 0.0000 0.0000 0.0000 25.6125
#
#
#
# Elastic Compliance Matrix: (Units=1/GPa)
#
#
# Indices 1 2 3 4 5 6 
#
# 1 0.088938 -0.061709 -0.009149 0.000000 0.000000 0.000000
# 2 -0.061709 0.072843 0.011022 0.000000 0.000000 0.000000
# 3 -0.009149 0.011022 0.013481 0.000000 0.000000 0.000000
# 4 0.000000 0.000000 0.000000 0.082181 0.000000 0.000000
# 5 0.000000 0.000000 0.000000 0.000000 0.063027 0.000000
# 6 0.000000 0.000000 0.000000 0.000000 0.000000 0.039043
#
#
# Mechanical properties :
#
#
# Convention : Reuss Voigt Hill
#
# Bulk Modulus (GPa) = 17.98901 18.49099 18.24000
# Shear Modulus (GPa) = 10.04589 19.91139 14.97864
#
# Velocity S-wave (km/s) = 2.62606 3.69710 3.20661
# Velocity P-wave (km/s) = 4.64153 5.56041 5.12162
#
# Compressibility (1/GPa) = 0.05558949
#
# Stress axis : x y z
#
# Youngs Moduli (GPa) = 11.24381 13.72808 74.17932
#
# Poissons Ratio (x) = 0.84715 0.67869
# Poissons Ratio (y) = 0.69385 -0.81762
# Poissons Ratio (z) = 0.10287 -0.15131
#
# Static dielectric constant tensor:
#      x y z
#    x 1.480430 0.000000 0.000000 
#    y 0.000000 1.506380 0.000000 
#    z 0.000000 0.000000 1.573970 
# 
# From -- ./inp_files/309.got.cif
#   From: 2010.05.17/outbox.cif.g08.bks.cpg/sg45_1_cif.got.tgz:309.got - 2010.06.03 19:51:22.
