data_PCOD9376056
_publ_section_title
;
Structure prediction by ZEFSAII (Michael W. Deem and Ramdas Pophale) SiO2 
 PCOD9376056
Probable space group: I B A 2
;
_chemical_formula_sum "Si O2"
_cell_formula_units_Z 56
_cell_length_a 15.377201
_cell_length_b 24.538754
_cell_length_c 5.488208
_cell_angle_alpha 90.000000
_cell_angle_beta 90.000000
_cell_angle_gamma 90.000000
_cell_volume 2070.905877
_symmetry_space_group_name_H-M "I B A 2"
_symmetry_group_IT_number 45
_symmetry_cell_setting 'orthorhombic'
loop_
_space_group_symop_operation_xyz
x,y,z
-x,-y,z
-x,y,1/2+z
x,-y,1/2+z
1/2+x,1/2+y,1/2+z
1/2-x,1/2-y,1/2+z
1/2-x,1/2+y,z
1/2+x,1/2-y,z
loop_
_atom_site_type_symbol
_atom_site_label
_atom_site_fract_x
_atom_site_fract_y
_atom_site_fract_z
Si Si1 0.151261 0.832086 0.043510
Si Si2 0.803023 0.143878 0.538860
Si Si3 0.864825 0.292943 0.050239
Si Si4 0.967775 0.436951 0.395254
Si Si5 0.237583 0.968690 0.464542
Si Si6 0.360065 0.846685 0.053590
Si Si7 0.963546 0.060632 0.354024
O O1 0.130131 0.851707 0.316035
O O2 0.118932 0.770811 0.020222
O O3 0.257280 0.836292 0.065780
O O4 0.144006 0.862213 0.787148
O O5 0.740994 0.196801 0.555881
O O6 0.734804 0.094070 0.501555
O O7 0.893681 0.314503 0.314978
O O8 0.896831 0.323531 0.806627
O O9 0.879863 0.410595 0.503858
O O10 0.000000 0.500000 0.371613
O O11 0.971597 0.417361 0.117654
O O12 0.135012 0.955452 0.434320
O O13 0.260753 0.001274 0.711443
O O14 0.016702 0.084804 0.583767
O O15 0.000000 0.000000 0.310344
#
# Coordination Sequence:
#
# PCOD9376056 Si02
#       7
#     8   8   8   8   8   8   8
#     4  10  19  36  59  86 110 138 184 235 286 362
#     4  10  20  32  51  79 114 142 175 214 284 341
#     4  10  19  35  61  87 111 135 187 236 290 360
#     4  10  21  37  57  80 116 155 203 247 276 329
#     4  12  21  32  50  71 109 144 182 214 263 324
#     4  10  18  32  59  84 110 139 187 231 291 329
#     4  10  16  30  48  69  85 121 184 215 234 276
#
# _framework density 27.041307
#
# number of rings (size 3 to 8) (size 9 to 14) (size 15 to 20)
#    0.000    1.714    2.857    6.000    0.000    0.000 
#    0.000    0.000   75.429    0.000    0.000   34.000 
#    0.000    0.000    0.000    0.000    0.000    0.000 
#
# Total GULP energy -156201.823191 kJ/mol
# GULP energy per Si atom -5578.636543 kJ/mol
# Density = 2.697976 g / cm^3
# Si number density = 27.041307 Si / 1000 Ang^3
#
#
#
# Elastic Constant Matrix: (Units=GPa)
#
#
# Indices 1 2 3 4 5 6 
#
# 1 38.7394 -6.0135 12.7421 -0.0021 0.0002 0.0001
# 2 -6.0135 107.8395 69.5429 0.0004 0.0002 0.0000
# 3 12.7421 69.5429 319.5756 -0.0163 0.0011 0.0003
# 4 -0.0021 0.0004 -0.0163 82.8130 -0.0045 0.0006
# 5 0.0002 0.0002 0.0011 -0.0045 31.5713 0.0001
# 6 0.0001 0.0000 0.0003 0.0006 0.0001 19.4497
#
#
#
# Elastic Compliance Matrix: (Units=1/GPa)
#
#
# Indices 1 2 3 4 5 6 
#
# 1 0.026739 0.002534 -0.001618 0.000000 0.000000 0.000000
# 2 0.002534 0.011027 -0.002501 0.000000 0.000000 0.000000
# 3 -0.001618 -0.002501 0.003738 0.000001 0.000000 0.000000
# 4 0.000000 0.000000 0.000001 0.012075 0.000002 0.000000
# 5 0.000000 0.000000 0.000000 0.000002 0.031674 0.000000
# 6 0.000000 0.000000 0.000000 0.000000 0.000000 0.051415
#
#
# Mechanical properties :
#
#
# Convention : Reuss Voigt Hill
#
# Bulk Modulus (GPa) = 26.08539 68.74417 47.41478
# Shear Modulus (GPa) = 32.76227 52.75902 42.76064
#
# Velocity S-wave (km/s) = 3.48453 4.42186 3.98088
# Velocity P-wave (km/s) = 5.08495 7.17967 6.22111
#
# Compressibility (1/GPa) = 0.03833563
#
# Stress axis : x y z
#
# Youngs Moduli (GPa) = 37.39866 90.68705 267.53659
#
# Poissons Ratio (x) = -0.22982 0.43277
# Poissons Ratio (y) = -0.09478 0.66901
# Poissons Ratio (z) = 0.06050 0.22677
#
# Static dielectric constant tensor:
#      x y z
#    x 2.224100 0.000000 0.000000 
#    y 0.000000 1.073640 0.000020 
#    z 0.000000 0.000020 2.231390 
# 
# From -- ./inp_files/436.got.cif
#   From: 2010.05.17/outbox.cif.g08.bks.cpg/sg45_1_cif.got.tgz:436.got - 2010.06.03 19:51:22.
