data_PCOD9376413
_publ_section_title
;
Structure prediction by ZEFSAII (Michael W. Deem and Ramdas Pophale) SiO2 
 PCOD9376413
Probable space group: I B A 2
;
_chemical_formula_sum "Si O2"
_cell_formula_units_Z 64
_cell_length_a 17.739225
_cell_length_b 9.699458
_cell_length_c 21.306675
_cell_angle_alpha 90.000000
_cell_angle_beta 90.000000
_cell_angle_gamma 90.000000
_cell_volume 3666.044991
_symmetry_space_group_name_H-M "I B A 2"
_symmetry_group_IT_number 45
_symmetry_cell_setting 'orthorhombic'
loop_
_space_group_symop_operation_xyz
x,y,z
-x,-y,z
-x,y,1/2+z
x,-y,1/2+z
1/2+x,1/2+y,1/2+z
1/2-x,1/2-y,1/2+z
1/2-x,1/2+y,z
1/2+x,1/2-y,z
loop_
_atom_site_type_symbol
_atom_site_label
_atom_site_fract_x
_atom_site_fract_y
_atom_site_fract_z
Si Si1 0.307792 0.816199 0.219150
Si Si2 0.180411 0.386197 0.750194
Si Si3 0.488514 0.663758 0.051485
Si Si4 0.056845 0.629739 0.951905
Si Si5 0.682959 0.266189 0.074263
Si Si6 0.422105 0.074571 0.811214
Si Si7 0.560612 0.121939 0.644548
Si Si8 0.681826 0.963584 0.040003
O O1 0.243960 0.728290 0.254368
O O2 0.316677 0.759759 0.149256
O O3 0.386269 0.826261 0.258061
O O4 0.284173 0.977199 0.217320
O O5 0.141018 0.451686 0.811839
O O6 0.111114 0.342337 0.705026
O O7 0.500000 0.500000 0.052739
O O8 0.399741 0.690926 0.052973
O O9 0.523359 0.745661 0.111422
O O10 0.525469 0.740849 0.991306
O O11 0.064590 0.647028 0.877414
O O12 0.000000 0.500000 0.963141
O O13 0.138205 0.587337 0.978633
O O14 0.745547 0.376008 0.056565
O O15 0.701926 0.123065 0.040339
O O16 0.500000 0.000000 0.794335
O O17 0.619221 0.059671 0.594153
O O18 0.500000 0.000000 0.655411
#
# Coordination Sequence:
#
# PCOD9376413 Si02
#       8
#     8   8   8   8   8   8   8   8
#     4  10  20  36  59  90 126 153 201 256 308 376
#     4  10  20  35  61  87 120 159 200 254 311 367
#     4  11  24  36  59  91 127 157 202 264 317 366
#     4  10  20  45  65  81 117 166 218 256 296 376
#     4  12  21  36  56  90 124 156 196 249 320 373
#     4   9  21  39  69  86 109 168 224 245 298 371
#     4  11  18  36  59  83 122 166 206 248 305 382
#     4  11  21  34  56  87 117 162 198 250 310 372
#
# _framework density 17.457505999999999
#
# number of rings (size 3 to 8) (size 9 to 14) (size 15 to 20)
#    0.750    0.750    5.000    1.125    5.250    1.000 
#    2.250    0.000    5.500    0.000    0.000    0.000 
#    0.000    0.000    0.000    0.000    0.000    0.000 
#
# Total GULP energy -178295.641958 kJ/mol
# GULP energy per Si atom -5571.738811 kJ/mol
# Density = 1.741777 g / cm^3
# Si number density = 17.457506 Si / 1000 Ang^3
#
#
#
# Elastic Constant Matrix: (Units=GPa)
#
#
# Indices 1 2 3 4 5 6 
#
# 1 103.5639 64.7941 32.7278 0.0000 0.0000 0.0000
# 2 64.7941 135.3274 32.0492 0.0000 0.0000 0.0000
# 3 32.7278 32.0492 57.3725 0.0000 0.0000 0.0000
# 4 0.0000 0.0000 0.0000 15.2615 0.0000 0.0000
# 5 0.0000 0.0000 0.0000 0.0000 20.9253 0.0000
# 6 0.0000 0.0000 0.0000 0.0000 0.0000 44.2946
#
#
#
# Elastic Compliance Matrix: (Units=1/GPa)
#
#
# Indices 1 2 3 4 5 6 
#
# 1 0.015044 -0.005959 -0.005253 0.000000 0.000000 0.000000
# 2 -0.005959 0.010877 -0.002677 0.000000 0.000000 0.000000
# 3 -0.005253 -0.002677 0.021922 0.000000 0.000000 0.000000
# 4 0.000000 0.000000 0.000000 0.065524 0.000000 0.000000
# 5 0.000000 0.000000 0.000000 0.000000 0.047789 0.000000
# 6 0.000000 0.000000 0.000000 0.000000 0.000000 0.022576
#
#
# Mechanical properties :
#
#
# Convention : Reuss Voigt Hill
#
# Bulk Modulus (GPa) = 49.83755 61.71179 55.77467
# Shear Modulus (GPa) = 22.91503 27.20912 25.06207
#
# Velocity S-wave (km/s) = 3.62694 3.95218 3.79305
# Velocity P-wave (km/s) = 6.79334 7.50019 7.15550
#
# Compressibility (1/GPa) = 0.02006519
#
# Stress axis : x y z
#
# Youngs Moduli (GPa) = 66.47110 91.94132 45.61693
#
# Poissons Ratio (x) = 0.54788 0.23963
# Poissons Ratio (y) = 0.39610 0.12209
# Poissons Ratio (z) = 0.34918 0.24608
#
# Static dielectric constant tensor:
#      x y z
#    x 1.608610 0.000000 0.000000 
#    y 0.000000 1.589380 0.000000 
#    z 0.000000 0.000000 1.631670 
# 
# From -- ./inp_files/9829.got.cif
#   From: 2010.05.17/outbox.cif.g08.bks.cpg/sg45_5_cif.got.tgz:9829.got - 2010.06.03 19:51:22.
