data_PCOD9376740
_publ_section_title
;
Structure prediction by ZEFSAII (Michael W. Deem and Ramdas Pophale) SiO2 
 PCOD9376740
Probable space group: I B A 2
;
_chemical_formula_sum "Si O2"
_cell_formula_units_Z 64
_cell_length_a 12.220442
_cell_length_b 23.063794
_cell_length_c 10.734904
_cell_angle_alpha 90.000000
_cell_angle_beta 90.000000
_cell_angle_gamma 90.000000
_cell_volume 3025.630082
_symmetry_space_group_name_H-M "I B A 2"
_symmetry_group_IT_number 45
_symmetry_cell_setting 'orthorhombic'
loop_
_space_group_symop_operation_xyz
x,y,z
-x,-y,z
-x,y,1/2+z
x,-y,1/2+z
1/2+x,1/2+y,1/2+z
1/2-x,1/2-y,1/2+z
1/2-x,1/2+y,z
1/2+x,1/2-y,z
loop_
_atom_site_type_symbol
_atom_site_label
_atom_site_fract_x
_atom_site_fract_y
_atom_site_fract_z
Si Si1 0.746919 0.954050 0.921710
Si Si2 0.148095 0.657054 0.989115
Si Si3 0.906055 0.695731 0.930083
Si Si4 0.894583 0.089691 0.648227
Si Si5 0.356053 0.404576 0.169154
Si Si6 0.181361 0.785509 0.631274
Si Si7 0.302546 0.712174 0.790513
Si Si8 0.247815 0.415897 0.899077
O O1 0.652969 0.911740 0.975094
O O2 0.791199 0.935501 0.783828
O O3 0.702555 0.018830 0.907489
O O4 0.840951 0.943864 0.029584
O O5 0.250227 0.675205 0.901304
O O6 0.029512 0.679277 0.958759
O O7 0.196805 0.687049 0.110925
O O8 0.900612 0.745874 0.826640
O O9 0.836895 0.637789 0.900081
O O10 0.850689 0.731825 0.043288
O O11 0.895305 0.159088 0.619849
O O12 0.822069 0.085066 0.773988
O O13 0.019285 0.073899 0.674887
O O14 0.341306 0.335705 0.193839
O O15 0.314468 0.412556 0.028776
O O16 0.199731 0.754070 0.761405
#
# Coordination Sequence:
#
# PCOD9376740 Si02
#       8
#     8   8   8   8   8   8   8   8
#     4  10  24  47  61  91 136 167 219 276 305 374
#     4   9  23  40  60  88 127 171 207 259 326 368
#     4  11  23  38  66  94 127 173 213 259 320 388
#     4  11  24  41  68  95 128 170 213 266 330 378
#     4  11  24  41  68  95 128 170 213 266 330 378
#     4  10  21  39  59  91 131 158 205 265 316 385
#     4  10  21  39  59  91 131 158 205 265 316 385
#     4  12  24  41  67  95 126 173 225 262 311 378
#
# _framework density 21.152619000000001
#
# number of rings (size 3 to 8) (size 9 to 14) (size 15 to 20)
#    0.000    1.500    2.500    2.250    3.500    3.500 
#    0.000    0.000    0.000    3.000    0.000    0.000 
#    0.000    0.000    0.000    0.000    0.000    0.000 
#
# Total GULP energy -178191.004183 kJ/mol
# GULP energy per Si atom -5568.468881 kJ/mol
# Density = 2.110447 g / cm^3
# Si number density = 21.152619 Si / 1000 Ang^3
#
#
#
# Elastic Constant Matrix: (Units=GPa)
#
#
# Indices 1 2 3 4 5 6 
#
# 1 69.9618 30.6945 10.1561 0.0001 0.0000 -0.0001
# 2 30.6945 141.6008 11.5185 0.0002 0.0000 -0.0001
# 3 10.1561 11.5185 89.0660 0.0004 -0.0001 -0.0003
# 4 0.0001 0.0002 0.0004 26.0363 0.0000 -0.0001
# 5 0.0000 0.0000 -0.0001 0.0000 11.0034 0.0001
# 6 -0.0001 -0.0001 -0.0003 -0.0001 0.0001 5.0193
#
#
#
# Elastic Compliance Matrix: (Units=1/GPa)
#
#
# Indices 1 2 3 4 5 6 
#
# 1 0.015964 -0.003348 -0.001387 0.000000 0.000000 0.000000
# 2 -0.003348 0.007839 -0.000632 0.000000 0.000000 0.000000
# 3 -0.001387 -0.000632 0.011468 0.000000 0.000000 0.000001
# 4 0.000000 0.000000 0.000000 0.038408 0.000000 0.000001
# 5 0.000000 0.000000 0.000000 0.000000 0.090881 -0.000001
# 6 0.000000 0.000000 0.000001 0.000001 -0.000001 0.199229
#
#
# Mechanical properties :
#
#
# Convention : Reuss Voigt Hill
#
# Bulk Modulus (GPa) = 40.75591 45.04074 42.89833
# Shear Modulus (GPa) = 13.06502 24.96244 19.01373
#
# Velocity S-wave (km/s) = 2.48796 3.43900 3.00139
# Velocity P-wave (km/s) = 5.25001 6.09167 5.68643
#
# Compressibility (1/GPa) = 0.02453632
#
# Stress axis : x y z
#
# Youngs Moduli (GPa) = 62.64252 127.56466 87.20235
#
# Poissons Ratio (x) = 0.42703 0.12098
# Poissons Ratio (y) = 0.20970 0.05512
# Poissons Ratio (z) = 0.08691 0.08063
#
# Static dielectric constant tensor:
#      x y z
#    x 1.718000 0.000000 0.000000 
#    y 0.000000 1.848690 0.000000 
#    z 0.000000 0.000000 1.889140 
# 
# From -- ./inp_files/3895.got.cif
#   From: 2010.05.17/outbox.cif.g08.bks.cpg/sg45_2_cif.got.tgz:3895.got - 2010.06.03 19:51:22.
