data_PCOD9376601
_publ_section_title
;
Structure prediction by ZEFSAII (Michael W. Deem and Ramdas Pophale) SiO2 
 PCOD9376601
Probable space group: I B A 2
;
_chemical_formula_sum "Si O2"
_cell_formula_units_Z 64
_cell_length_a 14.741077
_cell_length_b 12.418698
_cell_length_c 17.758505
_cell_angle_alpha 90.000000
_cell_angle_beta 90.000000
_cell_angle_gamma 90.000000
_cell_volume 3250.960424
_symmetry_space_group_name_H-M "I B A 2"
_symmetry_group_IT_number 45
_symmetry_cell_setting 'orthorhombic'
loop_
_space_group_symop_operation_xyz
x,y,z
-x,-y,z
-x,y,1/2+z
x,-y,1/2+z
1/2+x,1/2+y,1/2+z
1/2-x,1/2-y,1/2+z
1/2-x,1/2+y,z
1/2+x,1/2-y,z
loop_
_atom_site_type_symbol
_atom_site_label
_atom_site_fract_x
_atom_site_fract_y
_atom_site_fract_z
Si Si1 0.553201 0.816672 0.738590
Si Si2 0.401877 0.050634 0.873357
Si Si3 0.446800 0.683329 0.870317
Si Si4 0.109401 0.728683 0.142193
Si Si5 0.285723 0.157901 0.388793
Si Si6 0.609401 0.271317 0.466714
Si Si7 0.714277 0.657901 0.720115
Si Si8 0.901877 0.949366 0.735550
O O1 0.594648 0.915756 0.785112
O O2 0.500000 0.750001 0.804454
O O3 0.476304 0.835780 0.676656
O O4 0.632947 0.742304 0.706360
O O5 0.387339 0.156807 0.922886
O O6 0.500000 0.000000 0.890962
O O7 0.327492 0.960719 0.888223
O O8 0.367054 0.757696 0.902548
O O9 0.523697 0.664220 0.932251
O O10 0.405352 0.584245 0.823794
O O11 0.202971 0.670719 0.163284
O O12 0.112661 0.843193 0.186020
O O13 0.099203 0.750000 0.054453
O O14 0.202972 0.170719 0.445624
O O15 0.250000 0.182033 0.304454
O O16 0.672508 0.539281 0.720684
O O17 0.000000 0.000000 0.717945
#
# Coordination Sequence:
#
# PCOD9376601 Si02
#       8
#     8   8   8   8   8   8   8   8
#     4  10  20  42  65  93 125 167 217 271 322 389
#     4  11  21  41  69  93 126 173 223 270 325 394
#     4  10  20  42  65  93 125 167 217 271 322 389
#     4  11  25  44  63  97 141 171 217 276 344 402
#     4  12  22  39  69 101 125 167 226 277 325 391
#     4  11  25  44  63  97 141 171 217 276 344 402
#     4  12  22  39  69 101 125 167 226 277 325 391
#     4  11  21  41  69  93 126 173 223 270 325 394
#
# _framework density 19.686491
#
# number of rings (size 3 to 8) (size 9 to 14) (size 15 to 20)
#    0.000    1.000   10.000    0.000    3.500    2.000 
#    0.000    3.750    0.000    0.000    0.000    0.000 
#    0.000    0.000    0.000    0.000    0.000    0.000 
#
# Total GULP energy -178808.006022 kJ/mol
# GULP energy per Si atom -5587.750188 kJ/mol
# Density = 1.964168 g / cm^3
# Si number density = 19.686491 Si / 1000 Ang^3
#
#
#
# Elastic Constant Matrix: (Units=GPa)
#
#
# Indices 1 2 3 4 5 6 
#
# 1 123.2893 58.2265 54.3687 0.0000 0.0000 0.0000
# 2 58.2265 96.0494 23.5504 0.0000 0.0000 0.0000
# 3 54.3687 23.5504 123.0771 0.0000 0.0000 0.0000
# 4 0.0000 0.0000 0.0000 7.5937 0.0000 0.0000
# 5 0.0000 0.0000 0.0000 0.0000 15.8845 0.0000
# 6 0.0000 0.0000 0.0000 0.0000 0.0000 36.2465
#
#
#
# Elastic Compliance Matrix: (Units=1/GPa)
#
#
# Indices 1 2 3 4 5 6 
#
# 1 0.013461 -0.007032 -0.004601 0.000000 0.000000 0.000000
# 2 -0.007032 0.014598 0.000313 0.000000 0.000000 0.000000
# 3 -0.004601 0.000313 0.010097 0.000000 0.000000 0.000000
# 4 0.000000 0.000000 0.000000 0.131689 0.000000 0.000000
# 5 0.000000 0.000000 0.000000 0.000000 0.062954 0.000000
# 6 0.000000 0.000000 0.000000 0.000000 0.000000 0.027589
#
#
# Mechanical properties :
#
#
# Convention : Reuss Voigt Hill
#
# Bulk Modulus (GPa) = 64.44730 68.30078 66.37404
# Shear Modulus (GPa) = 17.34909 25.69627 21.52268
#
# Velocity S-wave (km/s) = 2.97184 3.61678 3.31005
# Velocity P-wave (km/s) = 6.67710 7.22572 6.95682
#
# Compressibility (1/GPa) = 0.01551655
#
# Stress axis : x y z
#
# Youngs Moduli (GPa) = 74.28870 68.50474 99.03537
#
# Poissons Ratio (x) = 0.48174 0.45564
# Poissons Ratio (y) = 0.52241 -0.03102
# Poissons Ratio (z) = 0.34178 -0.02146
#
# Static dielectric constant tensor:
#      x y z
#    x 1.729020 0.000000 0.000000 
#    y 0.000000 1.726590 0.000000 
#    z 0.000000 0.000000 1.674180 
# 
# From -- ./inp_files/7995.got.cif
#   From: 2010.05.17/outbox.cif.g08.bks.cpg/sg45_4_cif.got.tgz:7995.got - 2010.06.03 19:51:22.
