data_PCOD9376439
_publ_section_title
;
Structure prediction by ZEFSAII (Michael W. Deem and Ramdas Pophale) SiO2 
 PCOD9376439
Probable space group: I B A 2
;
_chemical_formula_sum "Si O2"
_cell_formula_units_Z 60
_cell_length_a 14.120098
_cell_length_b 8.881757
_cell_length_c 23.457562
_cell_angle_alpha 90.000000
_cell_angle_beta 90.000000
_cell_angle_gamma 90.000000
_cell_volume 2941.842859
_symmetry_space_group_name_H-M "I B A 2"
_symmetry_group_IT_number 45
_symmetry_cell_setting 'orthorhombic'
loop_
_space_group_symop_operation_xyz
x,y,z
-x,-y,z
-x,y,1/2+z
x,-y,1/2+z
1/2+x,1/2+y,1/2+z
1/2-x,1/2-y,1/2+z
1/2-x,1/2+y,z
1/2+x,1/2-y,z
loop_
_atom_site_type_symbol
_atom_site_label
_atom_site_fract_x
_atom_site_fract_y
_atom_site_fract_z
Si Si1 0.283175 0.523628 0.160540
Si Si2 0.293049 0.754497 0.969207
Si Si3 0.152819 0.735153 0.225683
Si Si4 0.323724 0.971785 0.544845
Si Si5 0.000000 0.500000 0.613911
Si Si6 0.809114 0.738544 0.313888
Si Si7 0.207392 0.991377 0.387523
Si Si8 0.934080 0.261720 0.704974
O O1 0.193720 0.586266 0.196168
O O2 0.304439 0.360389 0.184047
O O3 0.255391 0.518794 0.094543
O O4 0.373540 0.625562 0.177624
O O5 0.246573 0.879194 0.928685
O O6 0.345105 0.633571 0.927232
O O7 0.215208 0.651064 0.000711
O O8 0.340744 0.863451 0.016281
O O9 0.204047 0.743278 0.286509
O O10 0.041618 0.761569 0.226029
O O11 0.420726 0.923633 0.574751
O O12 0.948320 0.380558 0.654360
O O13 0.839538 0.901766 0.339190
O O14 0.792709 0.604828 0.358828
O O15 0.876811 0.694940 0.261941
#
# Coordination Sequence:
#
# PCOD9376439 Si02
#       8
#     8   8   8   8   4   8   8   8
#     4  11  22  38  60  92 130 172 209 251 316 384
#     4   9  20  38  67  86 110 156 223 261 314 367
#     4  11  22  38  58  92 130 168 209 252 304 404
#     4  11  20  38  64  89 120 168 204 263 323 366
#     4  12  24  36  60  96 138 160 212 258 312 388
#     4  10  20  36  64  86 126 165 204 253 330 362
#     4   9  19  38  64  88 111 158 215 267 309 373
#     4  11  24  36  59  95 136 167 208 251 308 406
#
# _framework density 20.395379999999999
#
# number of rings (size 3 to 8) (size 9 to 14) (size 15 to 20)
#    0.000    1.600    1.333    5.200    1.867    0.000 
#    0.000    0.000   29.333    0.000    0.000    0.000 
#    0.000    0.000    0.000    0.000    0.000    0.000 
#
# Total GULP energy -167194.956645 kJ/mol
# GULP energy per Si atom -5573.165221 kJ/mol
# Density = 2.034896 g / cm^3
# Si number density = 20.395380 Si / 1000 Ang^3
#
#
#
# Elastic Constant Matrix: (Units=GPa)
#
#
# Indices 1 2 3 4 5 6 
#
# 1 95.8710 31.1633 34.6937 0.0000 0.0000 0.0000
# 2 31.1633 102.3847 44.3766 0.0000 0.0000 0.0000
# 3 34.6937 44.3766 103.6665 0.0000 0.0000 0.0000
# 4 0.0000 0.0000 0.0000 50.0059 0.0000 0.0000
# 5 0.0000 0.0000 0.0000 0.0000 28.5084 0.0000
# 6 0.0000 0.0000 0.0000 0.0000 0.0000 19.7473
#
#
#
# Elastic Compliance Matrix: (Units=1/GPa)
#
#
# Indices 1 2 3 4 5 6 
#
# 1 0.012335 -0.002413 -0.003095 0.000000 0.000000 0.000000
# 2 -0.002413 0.012464 -0.004528 0.000000 0.000000 0.000000
# 3 -0.003095 -0.004528 0.012620 0.000000 0.000000 0.000000
# 4 0.000000 0.000000 0.000000 0.019998 0.000000 0.000000
# 5 0.000000 0.000000 0.000000 0.000000 0.035077 0.000000
# 6 0.000000 0.000000 0.000000 0.000000 0.000000 0.050640
#
#
# Mechanical properties :
#
#
# Convention : Reuss Voigt Hill
#
# Bulk Modulus (GPa) = 57.64560 58.04327 57.84444
# Shear Modulus (GPa) = 29.58765 32.43155 31.00960
#
# Velocity S-wave (km/s) = 3.81294 3.99198 3.90349
# Velocity P-wave (km/s) = 6.90725 7.05470 6.98136
#
# Compressibility (1/GPa) = 0.01734738
#
# Stress axis : x y z
#
# Youngs Moduli (GPa) = 81.06937 80.23060 79.23624
#
# Poissons Ratio (x) = 0.19359 0.24526
# Poissons Ratio (y) = 0.19561 0.35878
# Poissons Ratio (z) = 0.25093 0.36328
#
# Static dielectric constant tensor:
#      x y z
#    x 1.664640 0.000000 0.000000 
#    y 0.000000 1.801170 0.000000 
#    z 0.000000 0.000000 1.811400 
# 
# From -- ./inp_files/9566.got.cif
#   From: 2010.05.17/outbox.cif.g08.bks.cpg/sg45_5_cif.got.tgz:9566.got - 2010.06.03 19:51:22.
