data_PCOD9376750
_publ_section_title
;
Structure prediction by ZEFSAII (Michael W. Deem and Ramdas Pophale) SiO2 
 PCOD9376750
Probable space group: I B A 2
;
_chemical_formula_sum "Si O2"
_cell_formula_units_Z 64
_cell_length_a 9.263325
_cell_length_b 27.306490
_cell_length_c 12.832384
_cell_angle_alpha 90.000000
_cell_angle_beta 90.000000
_cell_angle_gamma 90.000000
_cell_volume 3245.937308
_symmetry_space_group_name_H-M "I B A 2"
_symmetry_group_IT_number 45
_symmetry_cell_setting 'orthorhombic'
loop_
_space_group_symop_operation_xyz
x,y,z
-x,-y,z
-x,y,1/2+z
x,-y,1/2+z
1/2+x,1/2+y,1/2+z
1/2-x,1/2-y,1/2+z
1/2-x,1/2+y,z
1/2+x,1/2-y,z
loop_
_atom_site_type_symbol
_atom_site_label
_atom_site_fract_x
_atom_site_fract_y
_atom_site_fract_z
Si Si1 0.146784 0.752361 0.338120
Si Si2 0.392711 0.721536 0.488210
Si Si3 0.069256 0.310262 0.643079
Si Si4 0.827008 0.583990 0.676529
Si Si5 0.662806 0.517143 0.817607
Si Si6 0.340967 0.997365 0.010482
Si Si7 0.349385 0.933856 0.210358
Si Si8 0.741326 0.668580 0.168225
O O1 0.267633 0.723699 0.402564
O O2 0.073744 0.714610 0.257251
O O3 0.210595 0.793875 0.261890
O O4 0.039073 0.775939 0.422335
O O5 0.380940 0.770900 0.558105
O O6 0.369235 0.678986 0.573666
O O7 0.164581 0.359444 0.643492
O O8 0.901879 0.322313 0.622405
O O9 0.703183 0.566727 0.756100
O O10 0.817213 0.547287 0.577134
O O11 0.982288 0.575624 0.734407
O O12 0.500000 0.500000 0.801178
O O13 0.709196 0.516940 0.937331
O O14 0.773171 0.476390 0.773617
O O15 0.500000 0.000000 0.958137
O O16 0.354945 0.953971 0.093426
O O17 0.252778 0.885591 0.213781
#
# Coordination Sequence:
#
# PCOD9376750 Si02
#       8
#     8   8   8   8   8   8   8   8
#     4  11  22  39  61  87 125 162 199 248 307 361
#     4  11  22  39  60  89 124 162 200 247 308 361
#     4  10  21  39  64  89 118 156 209 255 293 359
#     4   9  20  40  64  85 110 151 207 252 284 345
#     4  11  22  38  57  86 124 155 183 240 313 363
#     4   9  18  36  62  85 109 151 199 247 292 348
#     4   9  20  40  62  85 112 151 205 248 285 350
#     4  10  21  39  62  90 120 158 204 255 298 355
#
# _framework density 19.716954000000001
#
# number of rings (size 3 to 8) (size 9 to 14) (size 15 to 20)
#    0.000    2.000    2.500    1.875    0.000    4.000 
#    9.000    0.000    0.000    0.000    0.000    0.000 
#    0.000    0.000    0.000    0.000    0.000    0.000 
#
# Total GULP energy -178442.913901 kJ/mol
# GULP energy per Si atom -5576.341059 kJ/mol
# Density = 1.967208 g / cm^3
# Si number density = 19.716954 Si / 1000 Ang^3
#
#
#
# Elastic Constant Matrix: (Units=GPa)
#
#
# Indices 1 2 3 4 5 6 
#
# 1 56.2790 -2.7366 10.3612 0.0000 0.0000 0.0000
# 2 -2.7366 67.1499 3.3356 0.0000 0.0001 0.0000
# 3 10.3612 3.3356 58.6524 -0.0001 0.0001 0.0000
# 4 0.0000 0.0000 -0.0001 1.6783 0.0002 0.0000
# 5 0.0000 0.0001 0.0001 0.0002 -4.1100 0.0000
# 6 0.0000 0.0000 0.0000 0.0000 0.0000 26.4952
#
#
#
# Elastic Compliance Matrix: (Units=1/GPa)
#
#
# Indices 1 2 3 4 5 6 
#
# 1 0.018422 0.000915 -0.003306 0.000000 0.000000 0.000000
# 2 0.000915 0.014980 -0.001014 0.000000 0.000000 0.000000
# 3 -0.003306 -0.001014 0.017691 0.000001 0.000001 0.000000
# 4 0.000000 0.000000 0.000001 0.595850 0.000028 0.000000
# 5 0.000000 0.000000 0.000001 0.000028 -0.243306 0.000000
# 6 0.000000 0.000000 0.000000 0.000000 0.000000 0.037743
#
#
# Mechanical properties :
#
#
# Convention : Reuss Voigt Hill
#
# Bulk Modulus (GPa) = 22.58201 22.66687 22.62444
# Shear Modulus (GPa) = 10.80030 16.22076 13.51053
#
# Velocity S-wave (km/s) = 2.34298 2.87135 2.62052
# Velocity P-wave (km/s) = 4.33559 4.74489 4.54485
#
# Compressibility (1/GPa) = 0.04428303
#
# Stress axis : x y z
#
# Youngs Moduli (GPa) = 54.28349 66.75705 56.52487
#
# Poissons Ratio (x) = -0.06108 0.18689
# Poissons Ratio (y) = -0.04967 0.05729
# Poissons Ratio (z) = 0.17948 0.06766
#
# Static dielectric constant tensor:
#      x y z
#    x 1.696020 0.000000 0.000000 
#    y 0.000000 1.709450 0.000000 
#    z 0.000000 0.000000 1.705310 
# 
# From -- ./inp_files/3396.got.cif
#   From: 2010.05.17/outbox.cif.g08.bks.cpg/sg45_2_cif.got.tgz:3396.got - 2010.06.03 19:51:22.
