data_PCOD9376377
_publ_section_title
;
Structure prediction by ZEFSAII (Michael W. Deem and Ramdas Pophale) SiO2 
 PCOD9376377
Probable space group: I B A 2
;
_chemical_formula_sum "Si O2"
_cell_formula_units_Z 64
_cell_length_a 11.564107
_cell_length_b 28.784536
_cell_length_c 8.901628
_cell_angle_alpha 90.000000
_cell_angle_beta 90.000000
_cell_angle_gamma 90.000000
_cell_volume 2963.062251
_symmetry_space_group_name_H-M "I B A 2"
_symmetry_group_IT_number 45
_symmetry_cell_setting 'orthorhombic'
loop_
_space_group_symop_operation_xyz
x,y,z
-x,-y,z
-x,y,1/2+z
x,-y,1/2+z
1/2+x,1/2+y,1/2+z
1/2-x,1/2-y,1/2+z
1/2-x,1/2+y,z
1/2+x,1/2-y,z
loop_
_atom_site_type_symbol
_atom_site_label
_atom_site_fract_x
_atom_site_fract_y
_atom_site_fract_z
Si Si1 0.352889 0.685018 0.541770
Si Si2 0.399524 0.782782 0.381760
Si Si3 0.380716 0.411037 0.535272
Si Si4 0.122142 0.448056 0.529896
Si Si5 0.852886 0.814982 0.883283
Si Si6 0.380717 0.411037 0.889783
Si Si7 0.122143 0.448056 0.895162
Si Si8 0.899522 0.717218 0.043286
O O1 0.382814 0.735766 0.477535
O O2 0.395474 0.678192 0.712527
O O3 0.383988 0.643412 0.432788
O O4 0.214930 0.687579 0.546365
O O5 0.285073 0.812421 0.378684
O O6 0.500002 0.810299 0.462521
O O7 0.429229 0.769802 0.212523
O O8 0.250254 0.427317 0.489195
O O9 0.383985 0.356588 0.492267
O O10 0.389128 0.418155 0.712528
O O11 0.499999 0.431273 0.462527
O O12 0.113748 0.447820 0.712529
O O13 0.126419 0.500000 0.462529
O O14 1.000000 0.428142 0.462529
O O15 0.882811 0.764234 0.947514
O O16 0.250255 0.427317 0.935862
#
# Coordination Sequence:
#
# PCOD9376377 Si02
#       8
#     8   8   8   8   8   8   8   8
#     4  10  21  36  54  77 108 148 191 237 289 343
#     4  10  20  34  53  76 105 144 190 240 291 343
#     4  11  24  40  60  88 121 157 196 240 291 347
#     4  10  22  41  66  93 121 155 193 236 288 346
#     4  10  21  36  54  77 108 148 191 237 289 343
#     4  11  24  40  60  88 121 157 196 240 291 347
#     4  10  22  41  66  93 121 155 193 236 288 346
#     4  10  20  34  53  76 105 144 190 240 291 343
#
# _framework density 21.599274999999999
#
# number of rings (size 3 to 8) (size 9 to 14) (size 15 to 20)
#    0.000    1.750    0.000    4.500    0.000    8.500 
#    0.000    7.500    0.000    0.000    0.000    0.000 
#    0.000    0.000    0.000    0.000    0.000    0.000 
#
# Total GULP energy -178364.110698 kJ/mol
# GULP energy per Si atom -5573.878459 kJ/mol
# Density = 2.155011 g / cm^3
# Si number density = 21.599275 Si / 1000 Ang^3
#
#
#
# Elastic Constant Matrix: (Units=GPa)
#
#
# Indices 1 2 3 4 5 6 
#
# 1 211.3068 29.5394 61.2079 0.0006 0.0002 -0.0005
# 2 29.5394 45.9601 -2.7489 0.0000 0.0002 0.0002
# 3 61.2079 -2.7489 78.6521 0.0058 -0.0002 -0.0033
# 4 0.0006 0.0000 0.0058 52.7743 -0.0007 -0.0028
# 5 0.0002 0.0002 -0.0002 -0.0007 44.3547 0.0011
# 6 -0.0005 0.0002 -0.0033 -0.0028 0.0011 -76.0793
#
#
#
# Elastic Compliance Matrix: (Units=1/GPa)
#
#
# Indices 1 2 3 4 5 6 
#
# 1 0.007053 -0.004871 -0.005659 0.000001 0.000000 0.000000
# 2 -0.004871 0.025168 0.004670 0.000000 0.000000 0.000000
# 3 -0.005659 0.004670 0.017281 -0.000002 0.000000 -0.000001
# 4 0.000001 0.000000 -0.000002 0.018949 0.000000 -0.000001
# 5 0.000000 0.000000 0.000000 0.000000 0.022546 0.000000
# 6 0.000000 0.000000 -0.000001 -0.000001 0.000000 -0.013144
#
#
# Mechanical properties :
#
#
# Convention : Reuss Voigt Hill
#
# Bulk Modulus (GPa) = 26.46694 56.87954 41.67324
# Shear Modulus (GPa) = 48.94062 20.73799 34.83931
#
# Velocity S-wave (km/s) = 4.76525 3.10195 4.02056
# Velocity P-wave (km/s) = 6.52358 6.26264 6.39444
#
# Compressibility (1/GPa) = 0.03778299
#
# Stress axis : x y z
#
# Youngs Moduli (GPa) = 141.79360 39.73276 57.86697
#
# Poissons Ratio (x) = 0.19355 0.32744
# Poissons Ratio (y) = 0.69071 -0.27026
# Poissons Ratio (z) = 0.80235 -0.18557
#
# Static dielectric constant tensor:
#      x y z
#    x 1.972010 0.000000 0.000000 
#    y 0.000000 1.752800 0.000000 
#    z 0.000000 0.000000 1.776150 
# 
# From -- ./inp_files/1497.got.cif
#   From: 2010.05.17/outbox.cif.g08.bks.cpg/sg45_1_cif.got.tgz:1497.got - 2010.06.03 19:51:22.
