data_PCOD9376922
_publ_section_title
;
Structure prediction by ZEFSAII (Michael W. Deem and Ramdas Pophale) SiO2 
 PCOD9376922
Probable space group: I B A 2
;
_chemical_formula_sum "Si O2"
_cell_formula_units_Z 48
_cell_length_a 17.978768
_cell_length_b 14.959495
_cell_length_c 9.706700
_cell_angle_alpha 90.000000
_cell_angle_beta 90.000000
_cell_angle_gamma 90.000000
_cell_volume 2610.648900
_symmetry_space_group_name_H-M "I B A 2"
_symmetry_group_IT_number 45
_symmetry_cell_setting 'orthorhombic'
loop_
_space_group_symop_operation_xyz
x,y,z
-x,-y,z
-x,y,1/2+z
x,-y,1/2+z
1/2+x,1/2+y,1/2+z
1/2-x,1/2-y,1/2+z
1/2-x,1/2+y,z
1/2+x,1/2-y,z
loop_
_atom_site_type_symbol
_atom_site_label
_atom_site_fract_x
_atom_site_fract_y
_atom_site_fract_z
Si Si1 0.630214 0.542748 0.938900
Si Si2 0.958899 0.199658 0.090591
Si Si3 0.743308 0.328732 0.798635
Si Si4 0.426487 0.353447 0.388464
Si Si5 0.316991 0.807824 0.582462
Si Si6 0.765904 0.978492 0.186324
O O1 0.575736 0.458669 0.918996
O O2 0.674591 0.559689 0.797279
O O3 0.588272 0.626386 0.003978
O O4 0.689611 0.509409 0.051485
O O5 0.968544 0.164420 0.245322
O O6 0.903827 0.284044 0.099798
O O7 0.035858 0.203480 0.009008
O O8 0.659917 0.331307 0.862613
O O9 0.732451 0.263502 0.669014
O O10 0.763589 0.429105 0.751689
O O11 0.796560 0.299868 0.921797
O O12 0.293110 0.904043 0.642023
#
# Coordination Sequence:
#
# PCOD9376922 Si02
#       6
#     8   8   8   8   8   8
#     4  11  19  36  55  85 120 155 193 232 294 365
#     4  11  23  36  53  88 117 159 195 236 305 365
#     4  10  22  38  56  91 113 157 199 240 305 355
#     4  10  22  35  52  79 123 154 191 235 292 367
#     4  11  21  37  59  85 125 152 197 251 295 366
#     4  11  20  36  58  85 125 150 197 239 294 361
#
# _framework density 18.386232
#
# number of rings (size 3 to 8) (size 9 to 14) (size 15 to 20)
#    0.000    1.333    8.333    1.500    2.333    2.667 
#    0.000    0.000    0.000    0.000    0.000   24.500 
#    0.000    0.000    0.000    0.000    0.000    0.000 
#
# Total GULP energy -133932.253365 kJ/mol
# GULP energy per Si atom -5580.510557 kJ/mol
# Density = 1.834438 g / cm^3
# Si number density = 18.386232 Si / 1000 Ang^3
#
#
#
# Elastic Constant Matrix: (Units=GPa)
#
#
# Indices 1 2 3 4 5 6 
#
# 1 33.8143 19.6665 17.3627 0.0000 0.0000 0.0000
# 2 19.6665 65.5411 8.5276 0.0000 0.0000 0.0000
# 3 17.3627 8.5276 56.3848 0.0000 0.0000 0.0000
# 4 0.0000 0.0000 0.0000 31.8680 0.0000 0.0000
# 5 0.0000 0.0000 0.0000 0.0000 18.1934 0.0000
# 6 0.0000 0.0000 0.0000 0.0000 0.0000 23.6881
#
#
#
# Elastic Compliance Matrix: (Units=1/GPa)
#
#
# Indices 1 2 3 4 5 6 
#
# 1 0.041756 -0.011075 -0.011183 0.000000 0.000000 0.000000
# 2 -0.011075 0.018501 0.000612 0.000000 0.000000 0.000000
# 3 -0.011183 0.000612 0.021086 0.000000 0.000000 0.000000
# 4 0.000000 0.000000 0.000000 0.031379 0.000000 0.000000
# 5 0.000000 0.000000 0.000000 0.000000 0.054965 0.000000
# 6 0.000000 0.000000 0.000000 0.000000 0.000000 0.042215
#
#
# Mechanical properties :
#
#
# Convention : Reuss Voigt Hill
#
# Bulk Modulus (GPa) = 26.27943 27.42819 26.85381
# Shear Modulus (GPa) = 18.80555 22.09547 20.45051
#
# Velocity S-wave (km/s) = 3.20160 3.47037 3.33869
# Velocity P-wave (km/s) = 5.29066 5.56850 5.43135
#
# Compressibility (1/GPa) = 0.03805258
#
# Stress axis : x y z
#
# Youngs Moduli (GPa) = 23.94839 54.05105 47.42403
#
# Poissons Ratio (x) = 0.59859 0.53035
# Poissons Ratio (y) = 0.26522 -0.02903
# Poissons Ratio (z) = 0.26782 -0.03308
#
# Static dielectric constant tensor:
#      x y z
#    x 1.655510 0.000000 0.000000 
#    y 0.000000 1.644940 0.000000 
#    z 0.000000 0.000000 1.656970 
# 
# From -- ./inp_files/1696.got.cif
#   From: 2010.05.17/outbox.cif.g08.bks.cpg/sg45_1_cif.got.tgz:1696.got - 2010.06.03 19:51:22.
