data_PCOD9376880
_publ_section_title
;
Structure prediction by ZEFSAII (Michael W. Deem and Ramdas Pophale) SiO2 
 PCOD9376880
Probable space group: I B A 2
;
_chemical_formula_sum "Si O2"
_cell_formula_units_Z 64
_cell_length_a 11.128079
_cell_length_b 16.977174
_cell_length_c 16.515446
_cell_angle_alpha 90.000000
_cell_angle_beta 90.000000
_cell_angle_gamma 90.000000
_cell_volume 3120.153112
_symmetry_space_group_name_H-M "I B A 2"
_symmetry_group_IT_number 45
_symmetry_cell_setting 'orthorhombic'
loop_
_space_group_symop_operation_xyz
x,y,z
-x,-y,z
-x,y,1/2+z
x,-y,1/2+z
1/2+x,1/2+y,1/2+z
1/2-x,1/2-y,1/2+z
1/2-x,1/2+y,z
1/2+x,1/2-y,z
loop_
_atom_site_type_symbol
_atom_site_label
_atom_site_fract_x
_atom_site_fract_y
_atom_site_fract_z
Si Si1 0.439549 0.414760 0.854490
Si Si2 0.045914 0.409623 0.614962
Si Si3 0.842568 0.328151 0.962121
Si Si4 0.589577 0.141022 0.886877
Si Si5 0.836853 0.807603 0.826117
Si Si6 0.299215 0.048662 0.259250
Si Si7 0.207864 0.377493 0.178686
Si Si8 0.296436 0.648436 0.506553
O O1 0.500000 0.500000 0.859381
O O2 0.535332 0.351159 0.822729
O O3 0.327643 0.422817 0.793490
O O4 0.387952 0.390893 0.942832
O O5 0.113659 0.384407 0.533770
O O6 0.144875 0.403967 0.684999
O O7 0.000000 0.500000 0.607889
O O8 0.927258 0.362762 0.645374
O O9 0.728760 0.345348 0.905302
O O10 0.821968 0.241717 0.999969
O O11 0.955077 0.332309 0.901661
O O12 0.651556 0.215308 0.843488
O O13 0.608969 0.064088 0.833101
O O14 0.663978 0.131110 0.969632
O O15 0.759911 0.818590 0.745196
O O16 0.292245 0.959991 0.227064
O O17 0.292369 0.379272 0.099087
#
# Coordination Sequence:
#
# PCOD9376880 Si02
#       8
#     8   8   8   8   8   8   8   8
#     4  11  22  45  66  92 134 176 220 268 339 419
#     4  10  23  41  66  98 130 167 225 281 338 392
#     4  11  22  42  67  98 134 172 226 276 342 405
#     4  10  21  43  67  95 132 175 223 278 329 402
#     4  11  24  40  66  99 129 174 227 265 335 418
#     4  10  23  41  66  95 129 174 223 274 338 400
#     4  11  22  44  66  97 135 171 223 284 339 396
#     4  10  23  41  68  96 136 174 219 281 337 406
#
# _framework density 20.511814000000001
#
# number of rings (size 3 to 8) (size 9 to 14) (size 15 to 20)
#    0.000    1.500    3.750    0.750    1.750    3.000 
#    4.500    0.000    0.000    0.000    0.000    0.000 
#    0.000    0.000    0.000    0.000    0.000    0.000 
#
# Total GULP energy -178676.557880 kJ/mol
# GULP energy per Si atom -5583.642434 kJ/mol
# Density = 2.046513 g / cm^3
# Si number density = 20.511814 Si / 1000 Ang^3
#
#
#
# Elastic Constant Matrix: (Units=GPa)
#
#
# Indices 1 2 3 4 5 6 
#
# 1 81.2735 22.2719 39.8934 0.0000 0.0000 0.0000
# 2 22.2719 41.4319 43.6821 0.0000 0.0000 0.0000
# 3 39.8934 43.6821 139.5308 0.0000 0.0000 0.0000
# 4 0.0000 0.0000 0.0000 29.4989 0.0000 0.0000
# 5 0.0000 0.0000 0.0000 0.0000 21.5399 0.0000
# 6 0.0000 0.0000 0.0000 0.0000 0.0000 18.1139
#
#
#
# Elastic Compliance Matrix: (Units=1/GPa)
#
#
# Indices 1 2 3 4 5 6 
#
# 1 0.015056 -0.005306 -0.002643 0.000000 0.000000 0.000000
# 2 -0.005306 0.037898 -0.010347 0.000000 0.000000 0.000000
# 3 -0.002643 -0.010347 0.011162 0.000000 0.000000 0.000000
# 4 0.000000 0.000000 0.000000 0.033900 0.000000 0.000000
# 5 0.000000 0.000000 0.000000 0.000000 0.046425 0.000000
# 6 0.000000 0.000000 0.000000 0.000000 0.000000 0.055206
#
#
# Mechanical properties :
#
#
# Convention : Reuss Voigt Hill
#
# Bulk Modulus (GPa) = 36.33526 52.65898 44.49712
# Shear Modulus (GPa) = 20.37370 24.25646 22.31508
#
# Velocity S-wave (km/s) = 3.15503 3.44257 3.30193
# Velocity P-wave (km/s) = 5.57002 6.44437 6.02308
#
# Compressibility (1/GPa) = 0.02752148
#
# Stress axis : x y z
#
# Youngs Moduli (GPa) = 66.41971 26.38687 89.58974
#
# Poissons Ratio (x) = 0.14002 0.23682
# Poissons Ratio (y) = 0.35245 0.92701
# Poissons Ratio (z) = 0.17557 0.27303
#
# Static dielectric constant tensor:
#      x y z
#    x 1.744300 0.000000 0.000000 
#    y 0.000000 1.730550 0.000000 
#    z 0.000000 0.000000 1.748410 
# 
# From -- ./inp_files/6310.got.cif
#   From: 2010.05.17/outbox.cif.g08.bks.cpg/sg45_4_cif.got.tgz:6310.got - 2010.06.03 19:51:22.
