data_PCOD9376306
_publ_section_title
;
Structure prediction by ZEFSAII (Michael W. Deem and Ramdas Pophale) SiO2 
 PCOD9376306
Probable space group: I B A 2
;
_chemical_formula_sum "Si O2"
_cell_formula_units_Z 52
_cell_length_a 17.063873
_cell_length_b 8.601440
_cell_length_c 15.895024
_cell_angle_alpha 90.000000
_cell_angle_beta 90.000000
_cell_angle_gamma 90.000000
_cell_volume 2332.974342
_symmetry_space_group_name_H-M "I B A 2"
_symmetry_group_IT_number 45
_symmetry_cell_setting 'orthorhombic'
loop_
_space_group_symop_operation_xyz
x,y,z
-x,-y,z
-x,y,1/2+z
x,-y,1/2+z
1/2+x,1/2+y,1/2+z
1/2-x,1/2-y,1/2+z
1/2-x,1/2+y,z
1/2+x,1/2-y,z
loop_
_atom_site_type_symbol
_atom_site_label
_atom_site_fract_x
_atom_site_fract_y
_atom_site_fract_z
Si Si1 0.755941 0.769410 0.020210
Si Si2 0.823893 0.505170 0.412215
Si Si3 0.000000 0.500000 0.436363
Si Si4 0.663115 0.141413 0.682130
Si Si5 0.522642 0.240170 0.585878
Si Si6 0.276762 0.569728 0.753095
Si Si7 0.382873 0.556097 0.111118
O O1 0.711772 0.766646 0.109407
O O2 0.820325 0.901782 0.039662
O O3 0.801383 0.625183 0.980896
O O4 0.689102 0.829855 0.957881
O O5 0.915953 0.486541 0.388525
O O6 0.755777 0.513462 0.342169
O O7 0.989775 0.646517 0.499922
O O8 0.574744 0.140457 0.650907
O O9 0.686279 0.258050 0.758131
O O10 0.699220 0.972742 0.697586
O O11 0.570249 0.403275 0.582098
O O12 0.439394 0.296743 0.619285
O O13 0.342287 0.474561 0.701325
#
# Coordination Sequence:
#
# PCOD9376306 Si02
#       7
#     8   8   4   8   8   8   8
#     4  11  21  38  65  92 121 174 227 264 310 393
#     4  12  24  40  61  95 136 169 209 270 333 394
#     4  12  24  38  62 104 134 162 210 280 342 376
#     4  10  20  39  64  89 121 166 219 261 310 381
#     4  10  19  37  65  95 123 156 218 282 312 373
#     4  10  22  38  59  89 129 168 208 255 320 390
#     4   9  20  39  65  90 120 168 220 262 315 384
#
# _framework density 22.289142999999999
#
# number of rings (size 3 to 8) (size 9 to 14) (size 15 to 20)
#    0.000    1.538    3.077    3.692    0.000    0.000 
#    0.000    5.385    0.000    7.385    0.000    0.000 
#    0.000    0.000    0.000    0.000    0.000    0.000 
#
# Total GULP energy -144848.102208 kJ/mol
# GULP energy per Si atom -5571.080854 kJ/mol
# Density = 2.223841 g / cm^3
# Si number density = 22.289143 Si / 1000 Ang^3
#
#
#
# Elastic Constant Matrix: (Units=GPa)
#
#
# Indices 1 2 3 4 5 6 
#
# 1 104.9652 19.2065 6.9653 0.0000 0.0000 0.0000
# 2 19.2065 37.3821 6.5379 0.0000 0.0000 0.0000
# 3 6.9653 6.5379 56.4923 0.0000 0.0000 0.0000
# 4 0.0000 0.0000 0.0000 20.3720 0.0000 0.0000
# 5 0.0000 0.0000 0.0000 0.0000 28.9764 0.0000
# 6 0.0000 0.0000 0.0000 0.0000 0.0000 37.0877
#
#
#
# Elastic Compliance Matrix: (Units=1/GPa)
#
#
# Indices 1 2 3 4 5 6 
#
# 1 0.010542 -0.005296 -0.000687 0.000000 0.000000 0.000000
# 2 -0.005296 0.029964 -0.002815 0.000000 0.000000 0.000000
# 3 -0.000687 -0.002815 0.018112 0.000000 0.000000 0.000000
# 4 0.000000 0.000000 0.000000 0.049087 0.000000 0.000000
# 5 0.000000 0.000000 0.000000 0.000000 0.034511 0.000000
# 6 0.000000 0.000000 0.000000 0.000000 0.000000 0.026963
#
#
# Mechanical properties :
#
#
# Convention : Reuss Voigt Hill
#
# Bulk Modulus (GPa) = 24.37692 29.36211 26.86952
# Shear Modulus (GPa) = 24.94411 28.36255 26.65333
#
# Velocity S-wave (km/s) = 3.34895 3.57106 3.46178
# Velocity P-wave (km/s) = 5.09061 5.49592 5.29715
#
# Compressibility (1/GPa) = 0.04102241
#
# Stress axis : x y z
#
# Youngs Moduli (GPa) = 94.86209 33.37322 55.21209
#
# Poissons Ratio (x) = 0.17675 0.03792
# Poissons Ratio (y) = 0.50240 0.15541
# Poissons Ratio (z) = 0.06515 0.09394
#
# Static dielectric constant tensor:
#      x y z
#    x 1.861100 0.000000 0.000000 
#    y 0.000000 1.900540 0.000000 
#    z 0.000000 0.000000 1.913360 
# 
# From -- ./inp_files/8313.got.cif
#   From: 2010.05.17/outbox.cif.g08.bks.cpg/sg45_5_cif.got.tgz:8313.got - 2010.06.03 19:51:22.
