data_PCOD9376955
_publ_section_title
;
Structure prediction by ZEFSAII (Michael W. Deem and Ramdas Pophale) SiO2 
 PCOD9376955
Probable space group: I B A 2
;
_chemical_formula_sum "Si O2"
_cell_formula_units_Z 48
_cell_length_a 14.420592
_cell_length_b 14.797235
_cell_length_c 8.903392
_cell_angle_alpha 90.000000
_cell_angle_beta 90.000000
_cell_angle_gamma 90.000000
_cell_volume 1899.849311
_symmetry_space_group_name_H-M "I B A 2"
_symmetry_group_IT_number 45
_symmetry_cell_setting 'orthorhombic'
loop_
_space_group_symop_operation_xyz
x,y,z
-x,-y,z
-x,y,1/2+z
x,-y,1/2+z
1/2+x,1/2+y,1/2+z
1/2-x,1/2-y,1/2+z
1/2-x,1/2+y,z
1/2+x,1/2-y,z
loop_
_atom_site_type_symbol
_atom_site_label
_atom_site_fract_x
_atom_site_fract_y
_atom_site_fract_z
Si Si1 0.142452 0.810311 0.417560
Si Si2 0.000000 0.500000 0.222345
Si Si3 0.865577 0.026780 0.945965
Si Si4 0.318090 0.785739 0.602411
Si Si5 0.331931 0.073430 0.341228
Si Si6 0.990608 0.321699 0.515456
Si Si7 0.000000 0.000000 0.703363
O O1 0.142640 0.918432 0.423922
O O2 0.229489 0.766056 0.504016
O O3 0.153372 0.779274 0.241909
O O4 0.056582 0.776641 0.521112
O O5 0.098588 0.490247 0.308764
O O6 0.998536 0.406312 0.129775
O O7 0.759850 0.060031 0.937666
O O8 0.934206 0.059271 0.812513
O O9 0.923846 0.044865 0.095205
O O10 0.299207 0.881415 0.686383
O O11 0.403276 0.797446 0.488407
O O12 0.412331 0.137392 0.407309
#
# Coordination Sequence:
#
# PCOD9376955 Si02
#       7
#     8   4   8   8   8   8   4
#     4  11  26  43  71 105 145 197 238 309 371 439
#     4  10  22  38  72 100 138 186 238 306 358 430
#     4  11  25  45  75 102 143 191 249 304 366 439
#     4  10  25  46  67 108 146 192 244 300 374 436
#     4  10  23  41  71 104 139 188 244 302 365 439
#     4  10  24  44  66 104 145 186 244 298 366 434
#     4  10  26  48  66 106 138 196 248 298 356 446
#
# _framework density 25.265160999999999
#
# number of rings (size 3 to 8) (size 9 to 14) (size 15 to 20)
#    0.000    1.667    0.000    1.500   14.000    4.000 
#    6.000    0.000    0.000    0.000    0.000    0.000 
#    0.000    0.000    0.000    0.000    0.000    0.000 
#
# Total GULP energy -133681.035250 kJ/mol
# GULP energy per Si atom -5570.043135 kJ/mol
# Density = 2.520766 g / cm^3
# Si number density = 25.265161 Si / 1000 Ang^3
#
#
#
# Elastic Constant Matrix: (Units=GPa)
#
#
# Indices 1 2 3 4 5 6 
#
# 1 130.6200 16.9795 58.2973 0.0000 0.0000 0.0000
# 2 16.9795 94.3217 19.0371 0.0000 0.0000 0.0000
# 3 58.2973 19.0371 103.6012 0.0000 0.0000 0.0000
# 4 0.0000 0.0000 0.0000 21.7930 0.0000 0.0000
# 5 0.0000 0.0000 0.0000 0.0000 44.8371 0.0000
# 6 0.0000 0.0000 0.0000 0.0000 0.0000 34.1221
#
#
#
# Elastic Compliance Matrix: (Units=1/GPa)
#
#
# Indices 1 2 3 4 5 6 
#
# 1 0.010269 -0.000709 -0.005648 0.000000 0.000000 0.000000
# 2 -0.000709 0.011059 -0.001633 0.000000 0.000000 0.000000
# 3 -0.005648 -0.001633 0.013131 0.000000 0.000000 0.000000
# 4 0.000000 0.000000 0.000000 0.045886 0.000000 0.000000
# 5 0.000000 0.000000 0.000000 0.000000 0.022303 0.000000
# 6 0.000000 0.000000 0.000000 0.000000 0.000000 0.029307
#
#
# Mechanical properties :
#
#
# Convention : Reuss Voigt Hill
#
# Bulk Modulus (GPa) = 54.11693 57.46340 55.79016
# Shear Modulus (GPa) = 32.44768 35.76573 34.10670
#
# Velocity S-wave (km/s) = 3.58758 3.76655 3.67815
# Velocity P-wave (km/s) = 6.21507 6.45828 6.33784
#
# Compressibility (1/GPa) = 0.01847851
#
# Stress axis : x y z
#
# Youngs Moduli (GPa) = 97.38318 90.42206 76.15695
#
# Poissons Ratio (x) = 0.06407 0.43014
# Poissons Ratio (y) = 0.06900 0.12440
# Poissons Ratio (z) = 0.55003 0.14770
#
# Static dielectric constant tensor:
#      x y z
#    x 2.022640 0.000000 0.000000 
#    y 0.000000 2.241330 0.000000 
#    z 0.000000 0.000000 2.083620 
# 
# From -- ./inp_files/1732.got.cif
#   From: 2010.05.17/outbox.cif.g08.bks.cpg/sg45_1_cif.got.tgz:1732.got - 2010.06.03 19:51:22.
