data_PCOD9376009
_publ_section_title
;
Structure prediction by ZEFSAII (Michael W. Deem and Ramdas Pophale) SiO2 
 PCOD9376009
Probable space group: I M M 2
;
_chemical_formula_sum "Si O2"
_cell_formula_units_Z 20
_cell_length_a 9.000000
_cell_length_b 12.000000
_cell_length_c 21.000000
_cell_angle_alpha 90.000000
_cell_angle_beta 90.000000
_cell_angle_gamma 90.000000
_cell_volume 2268.000000
_symmetry_space_group_name_H-M "I M M 2"
_symmetry_group_IT_number 44
_symmetry_cell_setting 'orthorhombic'
loop_
_space_group_symop_operation_xyz
x,y,z
-x,-y,z
-x,y,z
x,-y,z
1/2+x,1/2+y,1/2+z
1/2-x,1/2-y,1/2+z
1/2-x,1/2+y,1/2+z
1/2+x,1/2-y,1/2+z
loop_
_atom_site_type_symbol
_atom_site_label
_atom_site_fract_x
_atom_site_fract_y
_atom_site_fract_z
Si Si1 0.678952 0.133833 0.286210
Si Si2 0.675727 0.775429 0.898886
Si Si3 0.179082 0.132587 0.027991
Si Si4 0.822387 0.000000 0.683215
Si Si5 0.679944 0.241002 0.662173
Si Si6 0.329905 0.000000 0.816574
O O1 0.500000 0.151137 0.284542
O O2 0.744598 0.185667 0.352160
O O3 0.752800 0.196605 0.224940
O O4 0.707022 0.000000 0.282848
O O5 0.500000 0.748729 0.905468
O O6 0.687887 0.891253 0.859801
O O7 0.746329 0.801496 0.968502
O O8 0.212714 0.189671 0.096870
O O9 0.000000 0.137224 0.019988
O O10 0.221462 0.000000 0.027563
O O11 0.748749 0.884152 0.658326
O O12 0.783950 0.000000 0.758528
O O13 0.000000 0.000000 0.672606
O O14 0.500000 0.234459 0.669053
O O15 0.500000 0.000000 0.790759
#
# Coordination Sequence:
#
# PCOD9376009 Si02
#       6
#     8   8   8   4   8   4
#     4  11  24  41  62  90 123 160 202 251 304 360
#     4  11  22  38  63  91 122 157 198 247 302 361
#     4  10  22  40  63  90 121 158 201 248 302 361
#     4  12  24  38  62  92 122 159 200 251 304 358
#     4  11  23  41  64  90 122 161 203 250 303 362
#     4  10  20  36  60  92 122 153 192 245 302 358
#
# _framework density 8.8183419999999995
#
# number of rings (size 3 to 8) (size 9 to 14) (size 15 to 20)
#    0.000    1.200    3.000    3.300    0.000    4.800 
#    1.800    0.000    0.000    0.000    0.000    0.000 
#    0.000    0.000    0.000    0.000    0.000    0.000 
#
# Total GULP energy -111715.954895 kJ/mol
# GULP energy per Si atom -5585.797745 kJ/mol
# Density = 0.879827 g / cm^3
# Si number density = 8.818342 Si / 1000 Ang^3
#
#
#
# Elastic Constant Matrix: (Units=GPa)
#
#
# Indices 1 2 3 4 5 6 
#
# 1 120.7961 64.2789 66.8126 0.0000 0.0000 0.0000
# 2 64.2789 147.0082 69.5991 0.0000 0.0000 0.0000
# 3 66.8126 69.5991 158.7473 0.0000 0.0000 0.0000
# 4 0.0000 0.0000 0.0000 38.9852 0.0000 0.0000
# 5 0.0000 0.0000 0.0000 0.0000 41.5320 0.0000
# 6 0.0000 0.0000 0.0000 0.0000 0.0000 31.3314
#
#
#
# Elastic Compliance Matrix: (Units=1/GPa)
#
#
# Indices 1 2 3 4 5 6 
#
# 1 0.012170 -0.003655 -0.003520 0.000000 0.000000 0.000000
# 2 -0.003655 0.009682 -0.002706 0.000000 0.000000 0.000000
# 3 -0.003520 -0.002706 0.008967 0.000000 0.000000 0.000000
# 4 0.000000 0.000000 0.000000 0.025651 0.000000 0.000000
# 5 0.000000 0.000000 0.000000 0.000000 0.024078 0.000000
# 6 0.000000 0.000000 0.000000 0.000000 0.000000 0.031917
#
#
# Mechanical properties :
#
#
# Convention : Reuss Voigt Hill
#
# Bulk Modulus (GPa) = 90.44105 91.99251 91.21678
# Shear Modulus (GPa) = 36.78843 37.42713 37.10778
#
# Velocity S-wave (km/s) = 4.57212 4.61164 4.59193
# Velocity P-wave (km/s) = 8.90302 8.97938 8.94128
#
# Compressibility (1/GPa) = 0.01105693
#
# Stress axis : x y z
#
# Youngs Moduli (GPa) = 82.16903 103.28627 111.51734
#
# Poissons Ratio (x) = 0.37751 0.39250
# Poissons Ratio (y) = 0.30033 0.30182
# Poissons Ratio (z) = 0.28920 0.27954
#
# Static dielectric constant tensor:
#      x y z
#    x 1.604780 0.000000 0.000000 
#    y 0.000000 1.604210 0.000000 
#    z 0.000000 0.000000 1.583240 
# 
# From -- ./inp_files/22793.got.cif
#   From: 2010.05.17/outbox.ucp.g08.bks.cvg/sg44_12_cif.got.tgz:22793.got - 2010.06.11 16:32:36.
