data_PCOD9376756
_publ_section_title
;
Structure prediction by ZEFSAII (Michael W. Deem and Ramdas Pophale) SiO2 
 PCOD9376756
Probable space group: I B A 2
;
_chemical_formula_sum "Si O2"
_cell_formula_units_Z 56
_cell_length_a 4.851857
_cell_length_b 28.752365
_cell_length_c 14.539755
_cell_angle_alpha 90.000000
_cell_angle_beta 90.000000
_cell_angle_gamma 90.000000
_cell_volume 2028.330186
_symmetry_space_group_name_H-M "I B A 2"
_symmetry_group_IT_number 45
_symmetry_cell_setting 'orthorhombic'
loop_
_space_group_symop_operation_xyz
x,y,z
-x,-y,z
-x,y,1/2+z
x,-y,1/2+z
1/2+x,1/2+y,1/2+z
1/2-x,1/2-y,1/2+z
1/2-x,1/2+y,z
1/2+x,1/2-y,z
loop_
_atom_site_type_symbol
_atom_site_label
_atom_site_fract_x
_atom_site_fract_y
_atom_site_fract_z
Si Si1 0.165613 0.775515 0.871610
Si Si2 0.918738 0.223647 0.651948
Si Si3 0.338470 0.454736 0.573539
Si Si4 0.618645 0.950296 0.719273
Si Si5 0.747023 0.870630 0.623042
Si Si6 0.528079 0.574945 0.379237
Si Si7 0.979809 0.631986 0.924411
O O1 0.362071 0.734115 0.908592
O O2 0.119624 0.773191 0.762033
O O3 0.329160 0.822351 0.889470
O O4 0.613915 0.234420 0.617349
O O5 0.077314 0.175953 0.634500
O O6 0.500000 0.500000 0.610225
O O7 0.526829 0.411189 0.602784
O O8 0.353754 0.455268 0.463773
O O9 0.041227 0.453990 0.619498
O O10 0.587740 0.891802 0.711564
O O11 0.895019 0.946754 0.782062
O O12 0.500000 0.000000 0.758213
O O13 0.552947 0.866584 0.534504
O O14 0.209616 0.588125 0.390447
O O15 0.708186 0.621970 0.395864
#
# Coordination Sequence:
#
# PCOD9376756 Si02
#       7
#     8   8   8   8   8   8   8
#     4  10  21  39  63  95 135 180 236 303 366 432
#     4  10  24  41  66 102 140 187 243 306 370 440
#     4  11  25  49  74 107 156 198 249 320 375 451
#     4  12  26  44  75 108 144 198 248 304 377 455
#     4  11  25  44  70 101 148 190 245 309 373 444
#     4  11  27  44  72 106 145 194 249 300 375 445
#     4  11  24  45  68 101 142 193 244 307 373 446
#
# _framework density 27.608919
#
# number of rings (size 3 to 8) (size 9 to 14) (size 15 to 20)
#    0.000    1.143    2.857    1.714    6.000    5.143 
#    0.000    0.000    0.000    0.000    0.000    0.000 
#    0.000    0.000    0.000    0.000    0.000    0.000 
#
# Total GULP energy -156207.827881 kJ/mol
# GULP energy per Si atom -5578.850996 kJ/mol
# Density = 2.754608 g / cm^3
# Si number density = 27.608919 Si / 1000 Ang^3
#
#
#
# Elastic Constant Matrix: (Units=GPa)
#
#
# Indices 1 2 3 4 5 6 
#
# 1 137.6710 36.2029 22.2706 0.0000 0.0000 0.0000
# 2 36.2029 160.3857 6.8697 0.0000 0.0000 0.0000
# 3 22.2706 6.8697 103.9231 -0.0001 0.0000 0.0000
# 4 0.0000 0.0000 -0.0001 34.4228 0.0000 0.0000
# 5 0.0000 0.0000 0.0000 0.0000 38.0859 0.0000
# 6 0.0000 0.0000 0.0000 0.0000 0.0000 49.5686
#
#
#
# Elastic Compliance Matrix: (Units=1/GPa)
#
#
# Indices 1 2 3 4 5 6 
#
# 1 0.007977 -0.001732 -0.001595 0.000000 0.000000 0.000000
# 2 -0.001732 0.006629 -0.000067 0.000000 0.000000 0.000000
# 3 -0.001595 -0.000067 0.009969 0.000000 0.000000 0.000000
# 4 0.000000 0.000000 0.000000 0.029051 0.000000 0.000000
# 5 0.000000 0.000000 0.000000 0.000000 0.026256 0.000000
# 6 0.000000 0.000000 0.000000 0.000000 0.000000 0.020174
#
#
# Mechanical properties :
#
#
# Convention : Reuss Voigt Hill
#
# Bulk Modulus (GPa) = 56.22315 59.18512 57.70413
# Shear Modulus (GPa) = 44.33677 46.85791 45.59734
#
# Velocity S-wave (km/s) = 4.01170 4.12418 4.06833
# Velocity P-wave (km/s) = 6.47044 6.64545 6.55853
#
# Compressibility (1/GPa) = 0.01778627
#
# Stress axis : x y z
#
# Youngs Moduli (GPa) = 125.35634 150.85527 100.31368
#
# Poissons Ratio (x) = 0.26133 0.16000
# Poissons Ratio (y) = 0.21716 0.00672
# Poissons Ratio (z) = 0.19994 0.01010
#
# Static dielectric constant tensor:
#      x y z
#    x 2.283130 0.000000 0.000000 
#    y 0.000000 2.275840 0.000000 
#    z 0.000000 0.000000 2.309080 
# 
# From -- ./inp_files/5283.got.cif
#   From: 2010.05.17/outbox.cif.g08.bks.cpg/sg45_3_cif.got.tgz:5283.got - 2010.06.03 19:51:22.
