data_PCOD9376271
_publ_section_title
;
Structure prediction by ZEFSAII (Michael W. Deem and Ramdas Pophale) SiO2 
 PCOD9376271
Probable space group: I B A 2
;
_chemical_formula_sum "Si O2"
_cell_formula_units_Z 52
_cell_length_a 20.327181
_cell_length_b 9.267589
_cell_length_c 13.625106
_cell_angle_alpha 90.000000
_cell_angle_beta 90.000000
_cell_angle_gamma 90.000000
_cell_volume 2566.751411
_symmetry_space_group_name_H-M "I B A 2"
_symmetry_group_IT_number 45
_symmetry_cell_setting 'orthorhombic'
loop_
_space_group_symop_operation_xyz
x,y,z
-x,-y,z
-x,y,1/2+z
x,-y,1/2+z
1/2+x,1/2+y,1/2+z
1/2-x,1/2-y,1/2+z
1/2-x,1/2+y,z
1/2+x,1/2-y,z
loop_
_atom_site_type_symbol
_atom_site_label
_atom_site_fract_x
_atom_site_fract_y
_atom_site_fract_z
Si Si1 0.338375 0.902552 0.929020
Si Si2 0.500000 0.500000 0.697530
Si Si3 0.717220 0.685794 0.588662
Si Si4 0.100306 0.006223 0.540425
Si Si5 0.644429 0.206141 0.483438
Si Si6 0.704728 0.397317 0.310614
Si Si7 0.903622 0.133839 0.336251
O O1 0.272537 0.938043 0.865885
O O2 0.379298 0.791470 0.863257
O O3 0.316668 0.817317 0.028521
O O4 0.377549 0.046915 0.954899
O O5 0.442996 0.442026 0.627081
O O6 0.464405 0.618060 0.763950
O O7 0.675427 0.545967 0.553665
O O8 0.791226 0.681405 0.550269
O O9 0.715427 0.680244 0.706267
O O10 0.097837 0.179252 0.537503
O O11 0.076963 0.942429 0.438057
O O12 0.667553 0.290201 0.385359
O O13 0.658526 0.538355 0.297871
#
# Coordination Sequence:
#
# PCOD9376271 Si02
#       7
#     8   4   8   8   8   8   8
#     4  10  21  35  56  91 126 155 187 250 317 358
#     4  12  22  40  64  88 104 164 218 248 272 346
#     4  10  19  35  58  88 125 161 199 242 297 367
#     4  10  22  39  62  88 116 156 205 248 291 358
#     4  10  21  35  56  91 126 155 187 250 317 358
#     4  10  19  35  58  88 125 161 199 242 297 367
#     4  10  22  39  62  88 116 156 205 248 291 358
#
# _framework density 20.259070999999999
#
# number of rings (size 3 to 8) (size 9 to 14) (size 15 to 20)
#    0.000    1.846    1.538    5.077    2.154    3.692 
#    0.000    0.000    0.000   22.154    0.000    0.000 
#    0.000    0.000    0.000    0.000    0.000    0.000 
#
# Total GULP energy -145172.427333 kJ/mol
# GULP energy per Si atom -5583.554897 kJ/mol
# Density = 2.021296 g / cm^3
# Si number density = 20.259071 Si / 1000 Ang^3
#
#
#
# Elastic Constant Matrix: (Units=GPa)
#
#
# Indices 1 2 3 4 5 6 
#
# 1 62.9320 35.2544 30.7414 0.0000 0.0000 0.0000
# 2 35.2544 122.6652 17.3265 0.0000 0.0000 0.0000
# 3 30.7414 17.3265 120.2219 0.0000 0.0000 0.0000
# 4 0.0000 0.0000 0.0000 9.4722 0.0000 0.0000
# 5 0.0000 0.0000 0.0000 0.0000 30.1726 0.0000
# 6 0.0000 0.0000 0.0000 0.0000 0.0000 1.1683
#
#
#
# Elastic Compliance Matrix: (Units=1/GPa)
#
#
# Indices 1 2 3 4 5 6 
#
# 1 0.021202 -0.005439 -0.004638 0.000000 0.000000 0.000000
# 2 -0.005439 0.009717 -0.000010 0.000000 0.000000 0.000000
# 3 -0.004638 -0.000010 0.009505 0.000000 0.000000 0.000000
# 4 0.000000 0.000000 0.000000 0.105572 0.000000 0.000000
# 5 0.000000 0.000000 0.000000 0.000000 0.033143 0.000000
# 6 0.000000 0.000000 0.000000 0.000000 0.000000 0.855939
#
#
# Mechanical properties :
#
#
# Convention : Reuss Voigt Hill
#
# Bulk Modulus (GPa) = 49.37721 52.49598 50.93659
# Shear Modulus (GPa) = 4.70809 22.99574 13.85192
#
# Velocity S-wave (km/s) = 1.52610 3.37276 2.61768
# Velocity P-wave (km/s) = 5.24701 6.41373 5.85948
#
# Compressibility (1/GPa) = 0.02025226
#
# Stress axis : x y z
#
# Youngs Moduli (GPa) = 47.16471 102.91559 105.20502
#
# Poissons Ratio (x) = 0.55971 0.48791
# Poissons Ratio (y) = 0.25651 0.00102
# Poissons Ratio (z) = 0.21874 0.00100
#
# Static dielectric constant tensor:
#      x y z
#    x 1.742150 0.000000 0.000000 
#    y 0.000000 1.725760 0.000000 
#    z 0.000000 0.000000 1.749190 
# 
# From -- ./inp_files/5708.got.cif
#   From: 2010.05.17/outbox.cif.g08.bks.cpg/sg45_3_cif.got.tgz:5708.got - 2010.06.03 19:51:22.
