data_PCOD9376573
_publ_section_title
;
Structure prediction by ZEFSAII (Michael W. Deem and Ramdas Pophale) SiO2 
 PCOD9376573
Probable space group: I B A 2
;
_chemical_formula_sum "Si O2"
_cell_formula_units_Z 60
_cell_length_a 15.665714
_cell_length_b 9.864314
_cell_length_c 17.572008
_cell_angle_alpha 90.000000
_cell_angle_beta 90.000000
_cell_angle_gamma 90.000000
_cell_volume 2715.429140
_symmetry_space_group_name_H-M "I B A 2"
_symmetry_group_IT_number 45
_symmetry_cell_setting 'orthorhombic'
loop_
_space_group_symop_operation_xyz
x,y,z
-x,-y,z
-x,y,1/2+z
x,-y,1/2+z
1/2+x,1/2+y,1/2+z
1/2-x,1/2-y,1/2+z
1/2-x,1/2+y,z
1/2+x,1/2-y,z
loop_
_atom_site_type_symbol
_atom_site_label
_atom_site_fract_x
_atom_site_fract_y
_atom_site_fract_z
Si Si1 0.500000 0.500000 0.918231
Si Si2 0.861769 0.177580 0.346392
Si Si3 0.251880 0.066269 0.983533
Si Si4 0.487739 0.155307 0.571994
Si Si5 0.815355 0.229834 0.632100
Si Si6 0.307403 0.456711 0.190429
Si Si7 0.377223 0.369157 0.041975
Si Si8 0.913607 0.438354 0.414093
O O1 0.451945 0.609034 0.867097
O O2 0.437529 0.424948 0.976202
O O3 0.799459 0.128244 0.413319
O O4 0.833391 0.117717 0.266656
O O5 0.869196 0.338788 0.354678
O O6 0.230222 0.159854 0.057458
O O7 0.213360 0.917906 0.005528
O O8 0.346805 0.042869 0.951581
O O9 0.414931 0.237884 0.617185
O O10 0.579412 0.227620 0.565743
O O11 0.447704 0.145493 0.487178
O O12 0.500000 0.000000 0.598558
O O13 0.771423 0.370498 0.656428
O O14 0.796597 0.117592 0.696944
O O15 0.377490 0.445624 0.122914
O O16 0.000000 0.500000 0.380289
#
# Coordination Sequence:
#
# PCOD9376573 Si02
#       8
#     4   8   8   8   8   8   8   8
#     4  10  20  42  70  92 134 174 246 296 348 448
#     4  11  24  45  68 104 137 185 238 301 375 435
#     4  10  23  42  75  98 137 192 246 292 354 448
#     4  11  22  38  71 110 137 176 241 306 349 419
#     4  11  24  46  67 107 139 197 243 298 364 444
#     4  11  27  41  72  95 150 182 241 295 374 439
#     4  10  20  40  66  98 133 182 228 291 352 433
#     4  11  24  41  69 104 141 177 245 305 363 421
#
# _framework density 22.095955
#
# number of rings (size 3 to 8) (size 9 to 14) (size 15 to 20)
#    0.000    1.333    2.667    3.200    7.467    1.600 
#    0.000    2.000    0.000    0.000    0.000    0.000 
#    0.000    0.000    0.000    0.000    0.000    0.000 
#
# Total GULP energy -167321.433897 kJ/mol
# GULP energy per Si atom -5577.381130 kJ/mol
# Density = 2.204566 g / cm^3
# Si number density = 22.095955 Si / 1000 Ang^3
#
#
#
# Elastic Constant Matrix: (Units=GPa)
#
#
# Indices 1 2 3 4 5 6 
#
# 1 98.7322 48.7468 18.5167 0.0000 0.0000 0.0000
# 2 48.7468 126.0103 3.6767 0.0000 0.0000 0.0000
# 3 18.5167 3.6767 80.3762 0.0000 0.0000 0.0000
# 4 0.0000 0.0000 0.0000 27.2228 0.0000 0.0000
# 5 0.0000 0.0000 0.0000 0.0000 24.3222 0.0000
# 6 0.0000 0.0000 0.0000 0.0000 0.0000 44.2938
#
#
#
# Elastic Compliance Matrix: (Units=1/GPa)
#
#
# Indices 1 2 3 4 5 6 
#
# 1 0.013117 -0.004993 -0.002794 0.000000 0.000000 0.000000
# 2 -0.004993 0.009847 0.000700 0.000000 0.000000 0.000000
# 3 -0.002794 0.000700 0.013053 0.000000 0.000000 0.000000
# 4 0.000000 0.000000 0.000000 0.036734 0.000000 0.000000
# 5 0.000000 0.000000 0.000000 0.000000 0.041115 0.000000
# 6 0.000000 0.000000 0.000000 0.000000 0.000000 0.022577
#
#
# Mechanical properties :
#
#
# Convention : Reuss Voigt Hill
#
# Bulk Modulus (GPa) = 45.77893 49.66657 47.72275
# Shear Modulus (GPa) = 31.66611 34.77964 33.22287
#
# Velocity S-wave (km/s) = 3.78976 3.97171 3.88180
# Velocity P-wave (km/s) = 6.31767 6.59993 6.46034
#
# Compressibility (1/GPa) = 0.02184411
#
# Stress axis : x y z
#
# Youngs Moduli (GPa) = 76.23413 101.55425 76.61040
#
# Poissons Ratio (x) = 0.50706 0.21402
# Poissons Ratio (y) = 0.38063 -0.05361
# Poissons Ratio (z) = 0.21296 -0.07107
#
# Static dielectric constant tensor:
#      x y z
#    x 1.797220 0.000000 0.000000 
#    y 0.000000 1.862180 0.000000 
#    z 0.000000 0.000000 1.769240 
# 
# From -- ./inp_files/8354.got.cif
#   From: 2010.05.17/outbox.cif.g08.bks.cpg/sg45_5_cif.got.tgz:8354.got - 2010.06.03 19:51:22.
