data_PCOD9376357
_publ_section_title
;
Structure prediction by ZEFSAII (Michael W. Deem and Ramdas Pophale) SiO2 
 PCOD9376357
Probable space group: I B A 2
;
_chemical_formula_sum "Si O2"
_cell_formula_units_Z 60
_cell_length_a 24.002502
_cell_length_b 13.596995
_cell_length_c 9.039397
_cell_angle_alpha 90.000000
_cell_angle_beta 90.000000
_cell_angle_gamma 90.000000
_cell_volume 2950.114777
_symmetry_space_group_name_H-M "I B A 2"
_symmetry_group_IT_number 45
_symmetry_cell_setting 'orthorhombic'
loop_
_space_group_symop_operation_xyz
x,y,z
-x,-y,z
-x,y,1/2+z
x,-y,1/2+z
1/2+x,1/2+y,1/2+z
1/2-x,1/2-y,1/2+z
1/2-x,1/2+y,z
1/2+x,1/2-y,z
loop_
_atom_site_type_symbol
_atom_site_label
_atom_site_fract_x
_atom_site_fract_y
_atom_site_fract_z
Si Si1 0.077568 0.491953 0.576440
Si Si2 0.124718 0.698139 0.506807
Si Si3 0.942905 0.892545 0.980727
Si Si4 0.336141 0.258300 0.829654
Si Si5 0.729194 0.113184 0.833916
Si Si6 0.301929 0.072076 0.015647
Si Si7 0.436588 0.403880 0.836128
Si Si8 0.000000 0.500000 0.331436
O O1 0.080475 0.610590 0.547488
O O2 0.142197 0.472176 0.587602
O O3 0.044080 0.454123 0.717948
O O4 0.042908 0.445872 0.440617
O O5 0.092395 0.794441 0.452575
O O6 0.156844 0.728721 0.657400
O O7 0.171209 0.661718 0.390158
O O8 0.944434 0.908925 0.158295
O O9 0.004875 0.880897 0.915123
O O10 0.918880 0.989791 0.900651
O O11 0.282788 0.323326 0.872290
O O12 0.391074 0.320505 0.868033
O O13 0.326048 0.158626 0.917028
O O14 0.732598 0.104422 0.657006
O O15 0.728568 0.007622 0.914163
#
# Coordination Sequence:
#
# PCOD9376357 Si02
#       8
#     8   8   8   8   8   8   8   4
#     4  10  20  36  55  85 120 157 193 241 296 352
#     4  10  22  40  60  86 122 158 202 250 301 364
#     4  10  21  39  59  85 122 158 201 250 301 360
#     4  11  24  41  63  91 118 157 206 250 306 365
#     4  11  24  41  64  90 119 159 200 249 306 362
#     4  11  23  42  63  86 125 158 195 252 305 361
#     4  10  22  38  60  87 120 159 201 253 304 360
#     4  10  20  32  56  86 120 156 200 236 286 364
#
# _framework density 20.338191999999999
#
# number of rings (size 3 to 8) (size 9 to 14) (size 15 to 20)
#    0.000    1.600    0.000    6.400    0.000    9.600 
#    0.000    0.000    0.000    0.000    0.000    0.000 
#    0.000    0.000    0.000    0.000    0.000    0.000 
#
# Total GULP energy -167340.124907 kJ/mol
# GULP energy per Si atom -5578.004164 kJ/mol
# Density = 2.029190 g / cm^3
# Si number density = 20.338192 Si / 1000 Ang^3
#
#
#
# Elastic Constant Matrix: (Units=GPa)
#
#
# Indices 1 2 3 4 5 6 
#
# 1 37.6703 25.5385 11.0344 0.0000 0.0000 0.0000
# 2 25.5385 118.4744 29.8837 0.0000 0.0000 0.0000
# 3 11.0344 29.8837 84.5884 0.0000 0.0000 0.0000
# 4 0.0000 0.0000 0.0000 22.7819 0.0000 0.0000
# 5 0.0000 0.0000 0.0000 0.0000 16.1636 0.0000
# 6 0.0000 0.0000 0.0000 0.0000 0.0000 5.2994
#
#
#
# Elastic Compliance Matrix: (Units=1/GPa)
#
#
# Indices 1 2 3 4 5 6 
#
# 1 0.031356 -0.006288 -0.001869 0.000000 0.000000 0.000000
# 2 -0.006288 0.010527 -0.002899 0.000000 0.000000 0.000000
# 3 -0.001869 -0.002899 0.013090 0.000000 0.000000 0.000000
# 4 0.000000 0.000000 0.000000 0.043894 0.000000 0.000000
# 5 0.000000 0.000000 0.000000 0.000000 0.061867 0.000000
# 6 0.000000 0.000000 0.000000 0.000000 0.000000 0.188699
#
#
# Mechanical properties :
#
#
# Convention : Reuss Voigt Hill
#
# Bulk Modulus (GPa) = 30.43015 41.51626 35.97320
# Shear Modulus (GPa) = 13.07189 20.46742 16.76965
#
# Velocity S-wave (km/s) = 2.53795 3.17575 2.87460
# Velocity P-wave (km/s) = 4.85622 5.82275 5.36131
#
# Compressibility (1/GPa) = 0.03286215
#
# Stress axis : x y z
#
# Youngs Moduli (GPa) = 31.89145 94.99148 76.39486
#
# Poissons Ratio (x) = 0.59729 0.14278
# Poissons Ratio (y) = 0.20053 0.22146
# Poissons Ratio (z) = 0.05961 0.27537
#
# Static dielectric constant tensor:
#      x y z
#    x 1.697060 0.000000 0.000000 
#    y 0.000000 1.757150 0.000000 
#    z 0.000000 0.000000 1.742390 
# 
# From -- ./inp_files/2526.got.cif
#   From: 2010.05.17/outbox.cif.g08.bks.cpg/sg45_2_cif.got.tgz:2526.got - 2010.06.03 19:51:22.
