data_PCOD9376477
_publ_section_title
;
Structure prediction by ZEFSAII (Michael W. Deem and Ramdas Pophale) SiO2 
 PCOD9376477
Probable space group: I B A 2
;
_chemical_formula_sum "Si O2"
_cell_formula_units_Z 48
_cell_length_a 18.506238
_cell_length_b 5.445360
_cell_length_c 19.435886
_cell_angle_alpha 90.000000
_cell_angle_beta 90.000000
_cell_angle_gamma 90.000000
_cell_volume 1958.615031
_symmetry_space_group_name_H-M "I B A 2"
_symmetry_group_IT_number 45
_symmetry_cell_setting 'orthorhombic'
loop_
_space_group_symop_operation_xyz
x,y,z
-x,-y,z
-x,y,1/2+z
x,-y,1/2+z
1/2+x,1/2+y,1/2+z
1/2-x,1/2-y,1/2+z
1/2-x,1/2+y,z
1/2+x,1/2-y,z
loop_
_atom_site_type_symbol
_atom_site_label
_atom_site_fract_x
_atom_site_fract_y
_atom_site_fract_z
Si Si1 0.582945 0.572704 0.733850
Si Si2 0.786385 0.260119 0.240898
Si Si3 0.786385 0.260119 0.075498
Si Si4 0.582946 0.572704 0.582546
Si Si5 0.583776 0.754361 0.880378
Si Si6 0.083776 0.254361 0.936019
O O1 0.500000 0.500000 0.729942
O O2 0.631842 0.334632 0.749901
O O3 0.605519 0.669623 0.658198
O O4 0.587005 0.751055 0.798306
O O5 0.739429 0.025431 0.266907
O O6 0.776571 0.275991 0.158198
O O7 0.739429 0.025431 0.049489
O O8 0.868157 0.165368 0.066495
O O9 0.500000 0.500000 0.586455
O O10 0.587005 0.751056 0.518090
O O11 0.500000 0.752984 0.908198
O O12 0.615788 0.500000 0.908198
O O13 0.618793 0.000000 0.908198
#
# Coordination Sequence:
#
# PCOD9376477 Si02
#       6
#     8   8   8   8   8   8
#     4  10  20  38  66 101 125 155 218 274 300 357
#     4   9  19  37  58  85 126 167 196 244 321 378
#     4   9  19  37  58  85 126 167 196 244 321 378
#     4  10  20  38  66 101 125 155 218 274 300 357
#     4  10  20  38  57  84 122 170 193 242 318 384
#     4  10  20  38  57  84 122 170 193 242 318 384
#
# _framework density 24.507114000000001
#
# number of rings (size 3 to 8) (size 9 to 14) (size 15 to 20)
#    0.000    2.333    3.333    0.000    0.000    2.667 
#    0.000    8.333    0.000    6.000    0.000    0.000 
#    0.000    0.000    0.000    0.000    0.000    0.000 
#
# Total GULP energy -134093.334987 kJ/mol
# GULP energy per Si atom -5587.222291 kJ/mol
# Density = 2.445133 g / cm^3
# Si number density = 24.507114 Si / 1000 Ang^3
#
#
#
# Elastic Constant Matrix: (Units=GPa)
#
#
# Indices 1 2 3 4 5 6 
#
# 1 117.7272 1.8219 -15.1689 0.0000 0.0000 0.0000
# 2 1.8219 145.7659 51.0460 0.0000 0.0000 0.0000
# 3 -15.1689 51.0460 163.1544 0.0000 0.0000 0.0000
# 4 0.0000 0.0000 0.0000 -10.2419 0.0000 0.0000
# 5 0.0000 0.0000 0.0000 0.0000 1.8671 0.0000
# 6 0.0000 0.0000 0.0000 0.0000 0.0000 14.9774
#
#
#
# Elastic Compliance Matrix: (Units=1/GPa)
#
#
# Indices 1 2 3 4 5 6 
#
# 1 0.008622 -0.000436 0.000938 0.000000 0.000000 0.000000
# 2 -0.000436 0.007727 -0.002458 0.000000 0.000000 0.000000
# 3 0.000938 -0.002458 0.006985 0.000000 0.000000 0.000000
# 4 0.000000 0.000000 0.000000 -0.097638 0.000000 0.000000
# 5 0.000000 0.000000 0.000000 0.000000 0.535586 0.000000
# 6 0.000000 0.000000 0.000000 0.000000 0.000000 0.066767
#
#
# Mechanical properties :
#
#
# Convention : Reuss Voigt Hill
#
# Bulk Modulus (GPa) = 51.48935 55.78282 53.63608
# Shear Modulus (GPa) = 9.28618 27.25043 18.26830
#
# Velocity S-wave (km/s) = 1.94869 3.33819 2.73322
# Velocity P-wave (km/s) = 5.11065 6.13754 5.64748
#
# Compressibility (1/GPa) = 0.01942149
#
# Stress axis : x y z
#
# Youngs Moduli (GPa) = 115.98453 129.42440 143.15578
#
# Poissons Ratio (x) = 0.05646 -0.13429
# Poissons Ratio (y) = 0.05060 0.35187
# Poissons Ratio (z) = -0.10880 0.31812
#
# Static dielectric constant tensor:
#      x y z
#    x 1.974930 0.000000 0.000000 
#    y 0.000000 1.988630 0.000000 
#    z 0.000000 0.000000 1.996780 
# 
# From -- ./inp_files/9285.got.cif
#   From: 2010.05.17/outbox.cif.g08.bks.cpg/sg45_5_cif.got.tgz:9285.got - 2010.06.03 19:51:22.
