data_PCOD9376613
_publ_section_title
;
Structure prediction by ZEFSAII (Michael W. Deem and Ramdas Pophale) SiO2 
 PCOD9376613
Probable space group: I B A 2
;
_chemical_formula_sum "Si O2"
_cell_formula_units_Z 56
_cell_length_a 12.061048
_cell_length_b 14.141193
_cell_length_c 14.705335
_cell_angle_alpha 90.000000
_cell_angle_beta 90.000000
_cell_angle_gamma 90.000000
_cell_volume 2508.106756
_symmetry_space_group_name_H-M "I B A 2"
_symmetry_group_IT_number 45
_symmetry_cell_setting 'orthorhombic'
loop_
_space_group_symop_operation_xyz
x,y,z
-x,-y,z
-x,y,1/2+z
x,-y,1/2+z
1/2+x,1/2+y,1/2+z
1/2-x,1/2-y,1/2+z
1/2-x,1/2+y,z
1/2+x,1/2-y,z
loop_
_atom_site_type_symbol
_atom_site_label
_atom_site_fract_x
_atom_site_fract_y
_atom_site_fract_z
Si Si1 0.813804 0.521287 0.883310
Si Si2 0.474987 0.890731 0.175236
Si Si3 0.212205 0.345906 0.035512
Si Si4 0.060946 0.812249 0.484464
Si Si5 0.100946 0.933595 0.316873
Si Si6 0.084948 0.206113 0.655077
Si Si7 0.464633 0.853797 0.371265
O O1 0.720233 0.486313 0.812727
O O2 0.914273 0.594669 0.859344
O O3 0.881047 0.428812 0.915837
O O4 0.751460 0.577677 0.962129
O O5 0.395758 0.883943 0.088494
O O6 0.576180 0.819573 0.158227
O O7 0.422886 0.845563 0.267240
O O8 0.500000 0.000000 0.191668
O O9 0.304977 0.327317 0.107446
O O10 0.173898 0.247884 0.990920
O O11 0.081679 0.901213 0.420926
O O12 0.978470 0.740441 0.429621
O O13 0.013495 0.826356 0.585964
O O14 0.088585 0.841181 0.253790
O O15 0.000000 0.000000 0.288802
#
# Coordination Sequence:
#
# PCOD9376613 Si02
#       7
#     8   8   8   8   8   8   8
#     4  10  22  40  70  98 133 178 228 286 342 424
#     4  11  22  41  69  99 134 176 235 295 343 414
#     4  10  24  41  66 105 136 181 230 288 358 405
#     4  10  24  44  66  95 142 182 229 290 351 419
#     4  12  26  46  68 101 143 194 227 280 364 432
#     4  11  25  45  64 105 140 180 235 291 343 431
#     4  10  20  43  68 101 127 177 239 291 349 398
#
# _framework density 22.327597999999998
#
# number of rings (size 3 to 8) (size 9 to 14) (size 15 to 20)
#    0.000    1.429    2.857    1.714    8.000    1.714 
#    5.143    0.000    0.000    0.000    0.000    0.000 
#    0.000    0.000    0.000    0.000    0.000    0.000 
#
# Total GULP energy -156317.844329 kJ/mol
# GULP energy per Si atom -5582.780155 kJ/mol
# Density = 2.227678 g / cm^3
# Si number density = 22.327598 Si / 1000 Ang^3
#
#
#
# Elastic Constant Matrix: (Units=GPa)
#
#
# Indices 1 2 3 4 5 6 
#
# 1 70.4414 24.5223 -3.0686 0.0000 0.0000 0.0000
# 2 24.5223 50.3962 16.3599 0.0000 0.0000 0.0000
# 3 -3.0686 16.3599 68.5750 0.0000 0.0000 0.0000
# 4 0.0000 0.0000 0.0000 37.4900 0.0000 0.0000
# 5 0.0000 0.0000 0.0000 0.0000 26.0885 0.0000
# 6 0.0000 0.0000 0.0000 0.0000 0.0000 15.6877
#
#
#
# Elastic Compliance Matrix: (Units=1/GPa)
#
#
# Indices 1 2 3 4 5 6 
#
# 1 0.017672 -0.009599 0.003081 0.000000 0.000000 0.000000
# 2 -0.009599 0.026723 -0.006805 0.000000 0.000000 0.000000
# 3 0.003081 -0.006805 0.016344 0.000000 0.000000 0.000000
# 4 0.000000 0.000000 0.000000 0.026674 0.000000 0.000000
# 5 0.000000 0.000000 0.000000 0.000000 0.038331 0.000000
# 6 0.000000 0.000000 0.000000 0.000000 0.000000 0.063744
#
#
# Mechanical properties :
#
#
# Convention : Reuss Voigt Hill
#
# Bulk Modulus (GPa) = 29.33202 29.44886 29.39044
# Shear Modulus (GPa) = 21.97822 25.95985 23.96903
#
# Velocity S-wave (km/s) = 3.14084 3.41351 3.28001
# Velocity P-wave (km/s) = 5.13019 5.36229 5.24752
#
# Compressibility (1/GPa) = 0.03409243
#
# Stress axis : x y z
#
# Youngs Moduli (GPa) = 56.58636 37.42145 61.18518
#
# Poissons Ratio (x) = 0.35922 -0.18850
# Poissons Ratio (y) = 0.54318 0.41635
# Poissons Ratio (z) = -0.17433 0.25464
#
# Static dielectric constant tensor:
#      x y z
#    x 1.858460 0.000000 0.000000 
#    y 0.000000 1.819430 0.000000 
#    z 0.000000 0.000000 1.864780 
# 
# From -- ./inp_files/6174.got.cif
#   From: 2010.05.17/outbox.cif.g08.bks.cpg/sg45_4_cif.got.tgz:6174.got - 2010.06.03 19:51:22.
