data_PCOD9376122
_publ_section_title
;
Structure prediction by ZEFSAII (Michael W. Deem and Ramdas Pophale) SiO2 
 PCOD9376122
Probable space group: I B A 2
;
_chemical_formula_sum "Si O2"
_cell_formula_units_Z 56
_cell_length_a 31.497972
_cell_length_b 5.202015
_cell_length_c 16.214983
_cell_angle_alpha 90.000000
_cell_angle_beta 90.000000
_cell_angle_gamma 90.000000
_cell_volume 2656.872358
_symmetry_space_group_name_H-M "I B A 2"
_symmetry_group_IT_number 45
_symmetry_cell_setting 'orthorhombic'
loop_
_space_group_symop_operation_xyz
x,y,z
-x,-y,z
-x,y,1/2+z
x,-y,1/2+z
1/2+x,1/2+y,1/2+z
1/2-x,1/2-y,1/2+z
1/2-x,1/2+y,z
1/2+x,1/2-y,z
loop_
_atom_site_type_symbol
_atom_site_label
_atom_site_fract_x
_atom_site_fract_y
_atom_site_fract_z
Si Si1 0.627584 0.113500 0.613190
Si Si2 0.270836 0.875094 0.599755
Si Si3 0.146278 0.871386 0.874115
Si Si4 0.405409 0.397271 0.526864
Si Si5 0.027755 0.244508 0.900794
Si Si6 0.261935 0.447472 0.410758
Si Si7 0.887474 0.645458 0.799301
O O1 0.678480 0.157204 0.603252
O O2 0.601371 0.372027 0.591198
O O3 0.615243 0.048092 0.706397
O O4 0.615230 0.868711 0.557265
O O5 0.245423 0.639133 0.638942
O O6 0.253371 0.897378 0.504873
O O7 0.133429 0.582346 0.853187
O O8 0.194056 0.902984 0.903426
O O9 0.136731 0.080512 0.803168
O O10 0.118868 0.982349 0.948883
O O11 0.451154 0.330343 0.488851
O O12 0.065797 0.304742 0.836651
O O13 0.000000 0.500000 0.908782
O O14 0.000000 0.000000 0.873410
O O15 0.231873 0.665903 0.372444
#
# Coordination Sequence:
#
# PCOD9376122 Si02
#       7
#     8   8   8   8   8   8   8
#     4  12  23  42  64  97 134 169 215 264 322 389
#     4  10  20  34  56  86 122 167 211 262 313 351
#     4  11  21  40  62  90 122 170 224 258 304 389
#     4  11  22  39  69  94 120 164 213 263 312 378
#     4  11  23  44  68  96 127 163 211 264 319 390
#     4  10  18  31  54  84 114 156 215 271 305 340
#     4  11  25  42  65  93 131 175 205 256 333 395
#
# _framework density 21.077415999999999
#
# number of rings (size 3 to 8) (size 9 to 14) (size 15 to 20)
#    0.000    1.143    0.000   10.286    0.000    0.000 
#    0.000    8.571    0.000    0.000    0.000    0.000 
#    0.000    0.000    0.000    0.000    0.000    0.000 
#
# Total GULP energy -156215.370467 kJ/mol
# GULP energy per Si atom -5579.120374 kJ/mol
# Density = 2.102944 g / cm^3
# Si number density = 21.077416 Si / 1000 Ang^3
#
#
#
# Elastic Constant Matrix: (Units=GPa)
#
#
# Indices 1 2 3 4 5 6 
#
# 1 96.4067 37.6297 27.2295 0.0000 0.0000 0.0000
# 2 37.6297 163.7732 10.3128 0.0000 0.0000 0.0000
# 3 27.2295 10.3128 56.6271 0.0000 0.0000 0.0000
# 4 0.0000 0.0000 0.0000 24.8627 0.0000 0.0000
# 5 0.0000 0.0000 0.0000 0.0000 4.6935 0.0000
# 6 0.0000 0.0000 0.0000 0.0000 0.0000 47.8319
#
#
#
# Elastic Compliance Matrix: (Units=1/GPa)
#
#
# Indices 1 2 3 4 5 6 
#
# 1 0.013034 -0.002630 -0.005789 0.000000 0.000000 0.000000
# 2 -0.002630 0.006708 0.000043 0.000000 0.000000 0.000000
# 3 -0.005789 0.000043 0.020435 0.000000 0.000000 0.000000
# 4 0.000000 0.000000 0.000000 0.040221 0.000000 0.000000
# 5 0.000000 0.000000 0.000000 0.000000 0.213059 0.000000
# 6 0.000000 0.000000 0.000000 0.000000 0.000000 0.020907
#
#
# Mechanical properties :
#
#
# Convention : Reuss Voigt Hill
#
# Bulk Modulus (GPa) = 42.68844 51.90566 47.29705
# Shear Modulus (GPa) = 14.75260 31.58662 23.16961
#
# Velocity S-wave (km/s) = 2.64848 3.87538 3.31911
# Velocity P-wave (km/s) = 5.44516 6.68613 6.09730
#
# Compressibility (1/GPa) = 0.02342555
#
# Stress axis : x y z
#
# Youngs Moduli (GPa) = 76.72017 149.08337 48.93567
#
# Poissons Ratio (x) = 0.39214 0.28327
# Poissons Ratio (y) = 0.20180 -0.00212
# Poissons Ratio (z) = 0.44410 -0.00645
#
# Static dielectric constant tensor:
#      x y z
#    x 1.834290 0.000000 0.000000 
#    y 0.000000 2.071680 0.000000 
#    z 0.000000 0.000000 1.836540 
# 
# From -- ./inp_files/5285.got.cif
#   From: 2010.05.17/outbox.cif.g08.bks.cpg/sg45_3_cif.got.tgz:5285.got - 2010.06.03 19:51:22.
