data_PCOD9376274
_publ_section_title
;
Structure prediction by ZEFSAII (Michael W. Deem and Ramdas Pophale) SiO2 
 PCOD9376274
Probable space group: I B A 2
;
_chemical_formula_sum "Si O2"
_cell_formula_units_Z 48
_cell_length_a 8.302717
_cell_length_b 12.925154
_cell_length_c 19.362113
_cell_angle_alpha 90.000000
_cell_angle_beta 90.000000
_cell_angle_gamma 90.000000
_cell_volume 2077.823778
_symmetry_space_group_name_H-M "I B A 2"
_symmetry_group_IT_number 45
_symmetry_cell_setting 'orthorhombic'
loop_
_space_group_symop_operation_xyz
x,y,z
-x,-y,z
-x,y,1/2+z
x,-y,1/2+z
1/2+x,1/2+y,1/2+z
1/2-x,1/2-y,1/2+z
1/2-x,1/2+y,z
1/2+x,1/2-y,z
loop_
_atom_site_type_symbol
_atom_site_label
_atom_site_fract_x
_atom_site_fract_y
_atom_site_fract_z
Si Si1 0.290275 0.619530 0.846850
Si Si2 0.430709 0.253486 0.777005
Si Si3 0.856530 0.626350 0.147416
Si Si4 0.184116 0.035855 0.229187
Si Si5 0.565400 0.611719 0.498234
Si Si6 0.137288 0.722940 0.066740
O O1 0.412798 0.685772 0.799996
O O2 0.134478 0.691980 0.843738
O O3 0.266948 0.515775 0.802619
O O4 0.367882 0.601588 0.920606
O O5 0.437563 0.169704 0.717004
O O6 0.319662 0.343156 0.743378
O O7 0.793182 0.513476 0.169129
O O8 0.703171 0.697418 0.125349
O O9 0.989233 0.650148 0.089529
O O10 0.000000 0.000000 0.214394
O O11 0.500000 0.500000 0.520662
O O12 0.713445 0.653526 0.543582
O O13 0.428126 0.698782 0.507827
#
# Coordination Sequence:
#
# PCOD9376274 Si02
#       6
#     8   8   8   8   8   8
#     4  10  20  36  59  88 117 151 201 249 306 370
#     4  10  19  35  60  87 117 153 191 252 317 363
#     4  10  20  38  59  88 123 156 202 252 306 373
#     4   9  18  33  60  91 118 154 195 247 313 372
#     4  11  23  42  65  88 124 172 213 259 314 369
#     4  10  23  40  60  90 125 166 214 257 302 373
#
# _framework density 23.101094
#
# number of rings (size 3 to 8) (size 9 to 14) (size 15 to 20)
#    0.000    2.000    0.000    5.500    0.000    3.333 
#    0.000   15.833    0.000    8.000    0.000    0.000 
#    0.000    0.000    0.000    0.000    0.000    0.000 
#
# Total GULP energy -134138.335410 kJ/mol
# GULP energy per Si atom -5589.097309 kJ/mol
# Density = 2.304851 g / cm^3
# Si number density = 23.101094 Si / 1000 Ang^3
#
#
#
# Elastic Constant Matrix: (Units=GPa)
#
#
# Indices 1 2 3 4 5 6 
#
# 1 42.6674 24.9108 -4.4611 0.0000 0.0000 0.0000
# 2 24.9108 106.0391 17.5420 0.0000 0.0000 0.0000
# 3 -4.4611 17.5420 64.4092 0.0000 0.0000 0.0000
# 4 0.0000 0.0000 0.0000 31.1316 0.0000 0.0000
# 5 0.0000 0.0000 0.0000 0.0000 29.3010 0.0000
# 6 0.0000 0.0000 0.0000 0.0000 0.0000 18.2779
#
#
#
# Elastic Compliance Matrix: (Units=1/GPa)
#
#
# Indices 1 2 3 4 5 6 
#
# 1 0.028076 -0.007244 0.003917 0.000000 0.000000 0.000000
# 2 -0.007244 0.011744 -0.003700 0.000000 0.000000 0.000000
# 3 0.003917 -0.003700 0.016805 0.000000 0.000000 0.000000
# 4 0.000000 0.000000 0.000000 0.032122 0.000000 0.000000
# 5 0.000000 0.000000 0.000000 0.000000 0.034129 0.000000
# 6 0.000000 0.000000 0.000000 0.000000 0.000000 0.054711
#
#
# Mechanical properties :
#
#
# Convention : Reuss Voigt Hill
#
# Bulk Modulus (GPa) = 23.48967 32.12211 27.80589
# Shear Modulus (GPa) = 24.29190 27.41702 25.85446
#
# Velocity S-wave (km/s) = 3.24628 3.44877 3.34906
# Velocity P-wave (km/s) = 4.92355 5.45838 5.19785
#
# Compressibility (1/GPa) = 0.04257190
#
# Stress axis : x y z
#
# Youngs Moduli (GPa) = 35.61785 85.14760 59.50660
#
# Poissons Ratio (x) = 0.61678 -0.23311
# Poissons Ratio (y) = 0.25800 0.22019
# Poissons Ratio (z) = -0.13953 0.31507
#
# Static dielectric constant tensor:
#      x y z
#    x 1.943630 0.000000 0.000000 
#    y 0.000000 1.852370 0.000000 
#    z 0.000000 0.000000 1.847990 
# 
# From -- ./inp_files/7563.got.cif
#   From: 2010.05.17/outbox.cif.g08.bks.cpg/sg45_4_cif.got.tgz:7563.got - 2010.06.03 19:51:22.
