data_PCOD9376043
_publ_section_title
;
Structure prediction by ZEFSAII (Michael W. Deem and Ramdas Pophale) SiO2 
 PCOD9376043
Probable space group: I B A 2
;
_chemical_formula_sum "Si O2"
_cell_formula_units_Z 52
_cell_length_a 8.805825
_cell_length_b 17.100566
_cell_length_c 18.275192
_cell_angle_alpha 90.000000
_cell_angle_beta 90.000000
_cell_angle_gamma 90.000000
_cell_volume 2751.962324
_symmetry_space_group_name_H-M "I B A 2"
_symmetry_group_IT_number 45
_symmetry_cell_setting 'orthorhombic'
loop_
_space_group_symop_operation_xyz
x,y,z
-x,-y,z
-x,y,1/2+z
x,-y,1/2+z
1/2+x,1/2+y,1/2+z
1/2-x,1/2-y,1/2+z
1/2-x,1/2+y,z
1/2+x,1/2-y,z
loop_
_atom_site_type_symbol
_atom_site_label
_atom_site_fract_x
_atom_site_fract_y
_atom_site_fract_z
Si Si1 0.110030 0.348371 0.265920
Si Si2 0.236588 0.403946 0.112323
Si Si3 0.500000 0.000000 0.027192
Si Si4 0.692237 0.210873 0.710775
Si Si5 0.417774 0.147457 0.928926
Si Si6 0.025246 0.831065 0.619828
Si Si7 0.832049 0.262028 0.496529
O O1 0.173138 0.392083 0.194297
O O2 0.201344 0.266007 0.260339
O O3 0.132465 0.377400 0.347984
O O4 0.929694 0.339753 0.253781
O O5 0.418442 0.406506 0.116985
O O6 0.141318 0.472154 0.075903
O O7 0.205415 0.327823 0.059024
O O8 0.442208 0.071907 0.978719
O O9 0.580497 0.266851 0.662349
O O10 0.812675 0.164797 0.660434
O O11 0.301261 0.209045 0.964674
O O12 0.578024 0.193596 0.932563
O O13 0.059752 0.797747 0.540098
#
# Coordination Sequence:
#
# PCOD9376043 Si02
#       7
#     8   8   4   8   8   8   8
#     4  10  19  32  56  86 117 152 191 245 302 351
#     4  10  20  37  60  84 114 158 203 242 285 366
#     4  10  26  40  56  84 120 158 204 238 308 364
#     4   9  16  28  53  94 116 135 192 256 289 339
#     4  11  23  37  58  88 123 153 192 247 312 352
#     4  10  15  29  57  88 115 142 194 249 288 330
#     4  11  18  34  61  87 114 151 198 243 286 359
#
# _framework density 18.895607999999999
#
# number of rings (size 3 to 8) (size 9 to 14) (size 15 to 20)
#    0.000    1.846    6.154    0.923    2.154    0.615 
#    0.000    0.769    0.000    0.000    0.000    0.000 
#    0.000    0.000    0.000    0.000    0.000    0.000 
#
# Total GULP energy -144816.663760 kJ/mol
# GULP energy per Si atom -5569.871683 kJ/mol
# Density = 1.885260 g / cm^3
# Si number density = 18.895608 Si / 1000 Ang^3
#
#
#
# Elastic Constant Matrix: (Units=GPa)
#
#
# Indices 1 2 3 4 5 6 
#
# 1 105.8223 25.8321 25.1516 0.0000 0.0000 0.0000
# 2 25.8321 53.7723 20.9601 0.0000 0.0000 0.0000
# 3 25.1516 20.9601 102.5691 0.0000 0.0000 0.0000
# 4 0.0000 0.0000 0.0000 11.6270 0.0000 0.0000
# 5 0.0000 0.0000 0.0000 0.0000 23.7476 0.0000
# 6 0.0000 0.0000 0.0000 0.0000 0.0000 22.3040
#
#
#
# Elastic Compliance Matrix: (Units=1/GPa)
#
#
# Indices 1 2 3 4 5 6 
#
# 1 0.010989 -0.004595 -0.001756 0.000000 0.000000 0.000000
# 2 -0.004595 0.022128 -0.003395 0.000000 0.000000 0.000000
# 3 -0.001756 -0.003395 0.010874 0.000000 0.000000 0.000000
# 4 0.000000 0.000000 0.000000 0.086007 0.000000 0.000000
# 5 0.000000 0.000000 0.000000 0.000000 0.042110 0.000000
# 6 0.000000 0.000000 0.000000 0.000000 0.000000 0.044835
#
#
# Mechanical properties :
#
#
# Convention : Reuss Voigt Hill
#
# Bulk Modulus (GPa) = 40.81750 45.11681 42.96715
# Shear Modulus (GPa) = 20.44163 24.21704 22.32934
#
# Velocity S-wave (km/s) = 3.29267 3.58386 3.44135
# Velocity P-wave (km/s) = 6.00866 6.40735 6.21121
#
# Compressibility (1/GPa) = 0.02449930
#
# Stress axis : x y z
#
# Youngs Moduli (GPa) = 91.00286 45.19249 91.96379
#
# Poissons Ratio (x) = 0.20764 0.16146
# Poissons Ratio (y) = 0.41812 0.31223
# Poissons Ratio (z) = 0.15977 0.15343
#
# Static dielectric constant tensor:
#      x y z
#    x 1.700680 0.000000 0.000000 
#    y 0.000000 1.671620 0.000000 
#    z 0.000000 0.000000 1.670910 
# 
# From -- ./inp_files/7666.got.cif
#   From: 2010.05.17/outbox.cif.g08.bks.cpg/sg45_4_cif.got.tgz:7666.got - 2010.06.03 19:51:22.
