data_PCOD9376189
_publ_section_title
;
Structure prediction by ZEFSAII (Michael W. Deem and Ramdas Pophale) SiO2 
 PCOD9376189
Probable space group: I B A 2
;
_chemical_formula_sum "Si O2"
_cell_formula_units_Z 64
_cell_length_a 27.089200
_cell_length_b 9.360973
_cell_length_c 11.761074
_cell_angle_alpha 90.000000
_cell_angle_beta 90.000000
_cell_angle_gamma 90.000000
_cell_volume 2982.388079
_symmetry_space_group_name_H-M "I B A 2"
_symmetry_group_IT_number 45
_symmetry_cell_setting 'orthorhombic'
loop_
_space_group_symop_operation_xyz
x,y,z
-x,-y,z
-x,y,1/2+z
x,-y,1/2+z
1/2+x,1/2+y,1/2+z
1/2-x,1/2-y,1/2+z
1/2-x,1/2+y,z
1/2+x,1/2-y,z
loop_
_atom_site_type_symbol
_atom_site_label
_atom_site_fract_x
_atom_site_fract_y
_atom_site_fract_z
Si Si1 0.035049 0.203945 0.975640
Si Si2 0.923128 0.708562 0.219961
Si Si3 0.773107 0.594447 0.719631
Si Si4 0.927379 0.103791 0.936859
Si Si5 0.136766 0.693266 0.079132
Si Si6 0.070681 0.605236 0.281975
Si Si7 0.188645 0.291618 0.153389
Si Si8 0.833107 0.585072 0.932949
O O1 0.035825 0.303466 0.863654
O O2 0.978483 0.157963 0.993335
O O3 0.068488 0.066036 0.945809
O O4 0.055603 0.268301 0.093493
O O5 0.930191 0.838709 0.307289
O O6 0.943717 0.559591 0.267826
O O7 0.863922 0.687820 0.212940
O O8 0.814431 0.697523 0.659279
O O9 0.780450 0.437292 0.668395
O O10 0.720120 0.661208 0.698325
O O11 0.786218 0.573934 0.851539
O O12 0.880830 0.175006 0.001283
O O13 0.089161 0.658544 0.158585
O O14 0.150672 0.558129 0.999631
O O15 0.120991 0.614128 0.353490
O O16 0.176290 0.287829 0.020660
#
# Coordination Sequence:
#
# PCOD9376189 Si02
#       8
#     8   8   8   8   8   8   8   8
#     4  11  28  46  67 109 141 186 240 298 359 434
#     4  12  24  47  73  98 144 189 242 298 356 433
#     4  10  23  38  66  94 138 178 230 288 350 421
#     4  11  27  46  70  99 150 188 231 295 371 427
#     4  10  20  41  70  93 134 191 228 283 356 412
#     4  11  20  43  71  96 134 182 234 295 346 407
#     4  11  22  42  63  99 135 176 235 285 357 416
#     4  10  18  42  64  92 136 178 222 292 342 404
#
# _framework density 21.459313999999999
#
# number of rings (size 3 to 8) (size 9 to 14) (size 15 to 20)
#    0.000    1.250    6.250    0.000    3.500    5.500 
#    2.250    1.250    0.000    0.000    0.000    0.000 
#    0.000    0.000    0.000    0.000    0.000    0.000 
#
# Total GULP energy -178616.104447 kJ/mol
# GULP energy per Si atom -5581.753264 kJ/mol
# Density = 2.141047 g / cm^3
# Si number density = 21.459314 Si / 1000 Ang^3
#
#
#
# Elastic Constant Matrix: (Units=GPa)
#
#
# Indices 1 2 3 4 5 6 
#
# 1 67.1049 41.7325 23.9995 0.0000 0.0000 0.0000
# 2 41.7325 94.3486 43.4199 0.0000 0.0000 0.0000
# 3 23.9995 43.4199 109.2102 0.0000 0.0000 0.0000
# 4 0.0000 0.0000 0.0000 19.2165 0.0000 0.0000
# 5 0.0000 0.0000 0.0000 0.0000 19.5948 0.0000
# 6 0.0000 0.0000 0.0000 0.0000 0.0000 38.1977
#
#
#
# Elastic Compliance Matrix: (Units=1/GPa)
#
#
# Indices 1 2 3 4 5 6 
#
# 1 0.020666 -0.008630 -0.001110 0.000000 0.000000 0.000000
# 2 -0.008630 0.016577 -0.004694 0.000000 0.000000 0.000000
# 3 -0.001110 -0.004694 0.011267 0.000000 0.000000 0.000000
# 4 0.000000 0.000000 0.000000 0.052039 0.000000 0.000000
# 5 0.000000 0.000000 0.000000 0.000000 0.051034 0.000000
# 6 0.000000 0.000000 0.000000 0.000000 0.000000 0.026180
#
#
# Mechanical properties :
#
#
# Convention : Reuss Voigt Hill
#
# Bulk Modulus (GPa) = 50.91465 54.32970 52.62218
# Shear Modulus (GPa) = 23.45462 26.16925 24.81193
#
# Velocity S-wave (km/s) = 3.30961 3.49590 3.40403
# Velocity P-wave (km/s) = 6.19535 6.45504 6.32653
#
# Compressibility (1/GPa) = 0.01964071
#
# Stress axis : x y z
#
# Youngs Moduli (GPa) = 48.38814 60.32631 88.75555
#
# Poissons Ratio (x) = 0.52063 0.09855
# Poissons Ratio (y) = 0.41760 0.41662
# Poissons Ratio (z) = 0.05373 0.28317
#
# Static dielectric constant tensor:
#      x y z
#    x 1.796820 0.000000 0.000000 
#    y 0.000000 1.763100 0.000000 
#    z 0.000000 0.000000 1.833810 
# 
# From -- ./inp_files/4954.got.cif
#   From: 2010.05.17/outbox.cif.g08.bks.cpg/sg45_3_cif.got.tgz:4954.got - 2010.06.03 19:51:22.
