data_PCOD9376169
_publ_section_title
;
Structure prediction by ZEFSAII (Michael W. Deem and Ramdas Pophale) SiO2 
 PCOD9376169
Probable space group: I B A 2
;
_chemical_formula_sum "Si O2"
_cell_formula_units_Z 64
_cell_length_a 14.646454
_cell_length_b 20.173654
_cell_length_c 9.156721
_cell_angle_alpha 90.000000
_cell_angle_beta 90.000000
_cell_angle_gamma 90.000000
_cell_volume 2705.559203
_symmetry_space_group_name_H-M "I B A 2"
_symmetry_group_IT_number 45
_symmetry_cell_setting 'orthorhombic'
loop_
_space_group_symop_operation_xyz
x,y,z
-x,-y,z
-x,y,1/2+z
x,-y,1/2+z
1/2+x,1/2+y,1/2+z
1/2-x,1/2-y,1/2+z
1/2-x,1/2+y,z
1/2+x,1/2-y,z
loop_
_atom_site_type_symbol
_atom_site_label
_atom_site_fract_x
_atom_site_fract_y
_atom_site_fract_z
Si Si1 0.279916 0.991878 0.919800
Si Si2 0.511622 0.421553 0.675639
Si Si3 0.494923 0.664957 0.426321
Si Si4 0.447739 0.936707 0.519241
Si Si5 0.042894 0.742963 0.677674
Si Si6 0.128617 0.366166 0.016525
Si Si7 0.200007 0.911702 0.642908
Si Si8 0.147215 0.671962 0.206416
O O1 0.310189 0.931607 0.028203
O O2 0.240186 0.956357 0.777380
O O3 0.373572 0.034984 0.905683
O O4 0.213056 0.042285 0.000987
O O5 0.500000 0.500000 0.680588
O O6 0.555528 0.388027 0.532243
O O7 0.549896 0.382925 0.815690
O O8 0.405251 0.401694 0.672589
O O9 0.550913 0.712631 0.533133
O O10 0.440353 0.716575 0.325029
O O11 0.527585 0.889600 0.460933
O O12 0.398391 0.896408 0.646287
O O13 0.500000 0.000000 0.581904
O O14 0.933775 0.723910 0.676886
O O15 0.106210 0.678927 0.654942
O O16 0.166509 0.326490 0.878381
O O17 0.254174 0.841573 0.633561
#
# Coordination Sequence:
#
# PCOD9376169 Si02
#       8
#     8   8   8   8   8   8   8   8
#     4   9  19  33  52  86 125 162 193 242 293 348
#     4  11  25  44  69  88 107 142 199 260 320 358
#     4  10  23  40  65  91 110 144 204 249 293 354
#     4   8  15  25  43  80 121 164 206 231 264 335
#     4  10  18  37  61  89 125 157 194 232 277 352
#     4   9  16  28  54  85 123 170 196 223 273 346
#     4  10  22  38  58  85 125 152 197 254 306 353
#     4   9  17  31  53  84 123 163 187 233 289 346
#
# _framework density 23.654997000000002
#
# number of rings (size 3 to 8) (size 9 to 14) (size 15 to 20)
#    0.000    2.500    1.250    0.375    3.500    5.500 
#    2.250    1.250    0.000    0.000    0.000    0.000 
#    0.000    0.000    0.000    0.000    0.000    0.000 
#
# Total GULP energy -178229.483693 kJ/mol
# GULP energy per Si atom -5569.671365 kJ/mol
# Density = 2.360116 g / cm^3
# Si number density = 23.654997 Si / 1000 Ang^3
#
#
#
# Elastic Constant Matrix: (Units=GPa)
#
#
# Indices 1 2 3 4 5 6 
#
# 1 64.2547 10.4914 -1.7540 0.0000 0.0000 0.0000
# 2 10.4914 82.1275 17.2344 0.0000 0.0000 0.0000
# 3 -1.7540 17.2344 75.8291 0.0000 0.0000 0.0000
# 4 0.0000 0.0000 0.0000 36.3673 0.0000 0.0000
# 5 0.0000 0.0000 0.0000 0.0000 14.1837 0.0000
# 6 0.0000 0.0000 0.0000 0.0000 0.0000 14.8379
#
#
#
# Elastic Compliance Matrix: (Units=1/GPa)
#
#
# Indices 1 2 3 4 5 6 
#
# 1 0.015950 -0.002221 0.000874 0.000000 0.000000 0.000000
# 2 -0.002221 0.013095 -0.003028 0.000000 0.000000 0.000000
# 3 0.000874 -0.003028 0.013896 0.000000 0.000000 0.000000
# 4 0.000000 0.000000 0.000000 0.027497 0.000000 0.000000
# 5 0.000000 0.000000 0.000000 0.000000 0.070504 0.000000
# 6 0.000000 0.000000 0.000000 0.000000 0.000000 0.067395
#
#
# Mechanical properties :
#
#
# Convention : Reuss Voigt Hill
#
# Bulk Modulus (GPa) = 29.24740 30.46165 29.85453
# Shear Modulus (GPa) = 21.88345 26.16041 24.02193
#
# Velocity S-wave (km/s) = 3.04486 3.32914 3.19017
# Velocity P-wave (km/s) = 4.97519 5.26146 5.12033
#
# Compressibility (1/GPa) = 0.03419107
#
# Stress axis : x y z
#
# Youngs Moduli (GPa) = 62.69776 76.36369 71.96380
#
# Poissons Ratio (x) = 0.16959 -0.06287
# Poissons Ratio (y) = 0.13924 0.21788
# Poissons Ratio (z) = -0.05478 0.23120
#
# Static dielectric constant tensor:
#      x y z
#    x 1.984360 0.000000 0.000000 
#    y 0.000000 1.974410 0.000000 
#    z 0.000000 0.000000 1.972540 
# 
# From -- ./inp_files/2196.got.cif
#   From: 2010.05.17/outbox.cif.g08.bks.cpg/sg45_2_cif.got.tgz:2196.got - 2010.06.03 19:51:22.
