data_PCOD9376780
_publ_section_title
;
Structure prediction by ZEFSAII (Michael W. Deem and Ramdas Pophale) SiO2 
 PCOD9376780
Probable space group: I B A 2
;
_chemical_formula_sum "Si O2"
_cell_formula_units_Z 40
_cell_length_a 5.583765
_cell_length_b 22.779550
_cell_length_c 13.365050
_cell_angle_alpha 90.000000
_cell_angle_beta 90.000000
_cell_angle_gamma 90.000000
_cell_volume 1699.976276
_symmetry_space_group_name_H-M "I B A 2"
_symmetry_group_IT_number 45
_symmetry_cell_setting 'orthorhombic'
loop_
_space_group_symop_operation_xyz
x,y,z
-x,-y,z
-x,y,1/2+z
x,-y,1/2+z
1/2+x,1/2+y,1/2+z
1/2-x,1/2-y,1/2+z
1/2-x,1/2+y,z
1/2+x,1/2-y,z
loop_
_atom_site_type_symbol
_atom_site_label
_atom_site_fract_x
_atom_site_fract_y
_atom_site_fract_z
Si Si1 0.443285 0.130595 0.596000
Si Si2 0.772737 0.349237 0.273924
Si Si3 0.655553 0.717278 0.967127
Si Si4 0.887267 0.060737 0.224419
Si Si5 0.592156 0.934646 0.913906
O O1 0.555310 0.170579 0.683560
O O2 0.232287 0.163152 0.536838
O O3 0.338147 0.075348 0.655937
O O4 0.621429 0.104793 0.512305
O O5 0.677234 0.301192 0.350582
O O6 0.564539 0.384741 0.219608
O O7 0.909696 0.396834 0.344400
O O8 0.385779 0.739675 0.984778
O O9 0.816621 0.057662 0.341237
O O10 0.000000 0.000000 0.192549
O O11 0.500000 0.000000 0.936922
#
# Coordination Sequence:
#
# PCOD9376780 Si02
#       5
#     8   8   8   8   8
#     4  10  26  42  69 104 140 178 246 295 349 440
#     4  10  24  44  68 100 140 180 237 293 350 434
#     4  11  28  50  74 102 140 190 243 307 369 412
#     4  11  23  42  69 100 146 189 225 285 364 435
#     4  10  21  40  61  97 143 187 222 281 352 426
#
# _framework density 23.529741000000001
#
# number of rings (size 3 to 8) (size 9 to 14) (size 15 to 20)
#    0.000    1.600    2.000    0.000   14.000    3.200 
#    0.000    0.000    0.000    0.000    0.000    0.000 
#    0.000    0.000    0.000    0.000    0.000    0.000 
#
# Total GULP energy -111735.049404 kJ/mol
# GULP energy per Si atom -5586.752470 kJ/mol
# Density = 2.347619 g / cm^3
# Si number density = 23.529741 Si / 1000 Ang^3
#
#
#
# Elastic Constant Matrix: (Units=GPa)
#
#
# Indices 1 2 3 4 5 6 
#
# 1 35.0838 5.5743 7.9183 0.0000 0.0000 0.0000
# 2 5.5743 41.8551 22.7568 0.0000 0.0000 0.0000
# 3 7.9183 22.7568 127.9409 0.0000 0.0000 0.0000
# 4 0.0000 0.0000 0.0000 4.9183 0.0000 0.0000
# 5 0.0000 0.0000 0.0000 0.0000 -28.7018 0.0000
# 6 0.0000 0.0000 0.0000 0.0000 0.0000 36.5142
#
#
#
# Elastic Compliance Matrix: (Units=1/GPa)
#
#
# Indices 1 2 3 4 5 6 
#
# 1 0.029296 -0.003228 -0.001239 0.000000 0.000000 0.000000
# 2 -0.003228 0.026806 -0.004568 0.000000 0.000000 0.000000
# 3 -0.001239 -0.004568 0.008705 0.000000 0.000000 0.000000
# 4 0.000000 0.000000 0.000000 0.203322 0.000000 0.000000
# 5 0.000000 0.000000 0.000000 0.000000 -0.034841 0.000000
# 6 0.000000 0.000000 0.000000 0.000000 0.000000 0.027387
#
#
# Mechanical properties :
#
#
# Convention : Reuss Voigt Hill
#
# Bulk Modulus (GPa) = 21.39662 30.81986 26.10824
# Shear Modulus (GPa) = 16.98812 13.78816 15.38814
#
# Velocity S-wave (km/s) = 2.68989 2.42335 2.56009
# Velocity P-wave (km/s) = 4.33134 4.57786 4.45631
#
# Compressibility (1/GPa) = 0.04673636
#
# Stress axis : x y z
#
# Youngs Moduli (GPa) = 34.13475 37.30570 114.87236
#
# Poissons Ratio (x) = 0.12042 0.14232
# Poissons Ratio (y) = 0.11019 0.52475
# Poissons Ratio (z) = 0.04229 0.17042
#
# Static dielectric constant tensor:
#      x y z
#    x 2.026990 0.000000 0.000000 
#    y 0.000000 1.892490 0.000000 
#    z 0.000000 0.000000 1.862890 
# 
# From -- ./inp_files/2919.got.cif
#   From: 2010.05.17/outbox.cif.g08.bks.cpg/sg45_2_cif.got.tgz:2919.got - 2010.06.03 19:51:22.
