data_PCOD9376680
_publ_section_title
;
Structure prediction by ZEFSAII (Michael W. Deem and Ramdas Pophale) SiO2 
 PCOD9376680
Probable space group: I B A 2
;
_chemical_formula_sum "Si O2"
_cell_formula_units_Z 56
_cell_length_a 29.832957
_cell_length_b 18.705286
_cell_length_c 5.079785
_cell_angle_alpha 90.000000
_cell_angle_beta 90.000000
_cell_angle_gamma 90.000000
_cell_volume 2834.692707
_symmetry_space_group_name_H-M "I B A 2"
_symmetry_group_IT_number 45
_symmetry_cell_setting 'orthorhombic'
loop_
_space_group_symop_operation_xyz
x,y,z
-x,-y,z
-x,y,1/2+z
x,-y,1/2+z
1/2+x,1/2+y,1/2+z
1/2-x,1/2-y,1/2+z
1/2-x,1/2+y,z
1/2+x,1/2-y,z
loop_
_atom_site_type_symbol
_atom_site_label
_atom_site_fract_x
_atom_site_fract_y
_atom_site_fract_z
Si Si1 0.833716 0.880560 0.547580
Si Si2 0.616062 0.755467 0.937501
Si Si3 0.250421 0.797687 0.815396
Si Si4 0.152177 0.333143 0.956315
Si Si5 0.086231 0.451600 0.172090
Si Si6 0.027490 0.685017 0.672655
Si Si7 0.297073 0.522575 0.914637
O O1 0.874043 0.826081 0.519957
O O2 0.791476 0.843839 0.409363
O O3 0.817946 0.901667 0.843934
O O4 0.836185 0.961007 0.431813
O O5 0.625469 0.802865 0.199388
O O6 0.649763 0.777585 0.700909
O O7 0.568692 0.771334 0.799736
O O8 0.251273 0.730413 0.017661
O O9 0.296830 0.839313 0.865012
O O10 0.127896 0.402138 0.079286
O O11 0.086139 0.484383 0.462716
O O12 0.044184 0.397230 0.167510
O O13 0.013193 0.699372 0.373606
O O14 0.269396 0.493314 0.669997
#
# Coordination Sequence:
#
# PCOD9376680 Si02
#       7
#     8   8   8   8   8   8   8
#     4  10  21  37  58  84 119 153 208 244 303 346
#     4  11  22  37  66  80 121 154 189 251 313 360
#     4  12  23  35  58  84 115 158 210 244 303 355
#     4  11  22  40  53  89 114 160 202 256 293 362
#     4  11  23  40  61  83 118 162 205 242 304 374
#     4  11  23  41  60  94 118 143 196 253 308 368
#     4   8  20  34  52  80 113 144 200 236 282 345
#
# _framework density 19.755227000000001
#
# number of rings (size 3 to 8) (size 9 to 14) (size 15 to 20)
#    0.857    0.571    2.857    4.286    4.000    1.714 
#    2.571    0.000    0.000    0.000    0.000    3.000 
#    0.000    0.000    0.000    0.000    0.000    0.000 
#
# Total GULP energy -155873.582925 kJ/mol
# GULP energy per Si atom -5566.913676 kJ/mol
# Density = 1.971026 g / cm^3
# Si number density = 19.755227 Si / 1000 Ang^3
#
#
#
# Elastic Constant Matrix: (Units=GPa)
#
#
# Indices 1 2 3 4 5 6 
#
# 1 59.5091 13.0045 4.0959 0.0000 0.0000 0.0000
# 2 13.0045 68.9303 4.1637 0.0000 0.0000 0.0000
# 3 4.0959 4.1637 91.4527 0.0000 0.0000 0.0000
# 4 0.0000 0.0000 0.0000 41.2560 0.0000 0.0000
# 5 0.0000 0.0000 0.0000 0.0000 24.4189 0.0000
# 6 0.0000 0.0000 0.0000 0.0000 0.0000 23.7989
#
#
#
# Elastic Compliance Matrix: (Units=1/GPa)
#
#
# Indices 1 2 3 4 5 6 
#
# 1 0.017564 -0.003275 -0.000638 0.000000 0.000000 0.000000
# 2 -0.003275 0.015158 -0.000543 0.000000 0.000000 0.000000
# 3 -0.000638 -0.000543 0.010988 0.000000 0.000000 0.000000
# 4 0.000000 0.000000 0.000000 0.024239 0.000000 0.000000
# 5 0.000000 0.000000 0.000000 0.000000 0.040952 0.000000
# 6 0.000000 0.000000 0.000000 0.000000 0.000000 0.042019
#
#
# Mechanical properties :
#
#
# Convention : Reuss Voigt Hill
#
# Bulk Modulus (GPa) = 28.73759 29.15783 28.94771
# Shear Modulus (GPa) = 29.16630 31.13661 30.15146
#
# Velocity S-wave (km/s) = 3.84654 3.97435 3.91097
# Velocity P-wave (km/s) = 5.85715 5.98767 5.92277
#
# Compressibility (1/GPa) = 0.03479763
#
# Stress axis : x y z
#
# Youngs Moduli (GPa) = 56.93543 65.97125 91.00915
#
# Poissons Ratio (x) = 0.21606 0.05802
# Poissons Ratio (y) = 0.18647 0.04946
# Poissons Ratio (z) = 0.03630 0.03585
#
# Static dielectric constant tensor:
#      x y z
#    x 1.696250 0.000000 0.000000 
#    y 0.000000 1.748260 0.000000 
#    z 0.000000 0.000000 1.898610 
# 
# From -- ./inp_files/628.got.cif
#   From: 2010.05.17/outbox.cif.g08.bks.cpg/sg45_1_cif.got.tgz:628.got - 2010.06.03 19:51:22.
