data_PCOD9376318
_publ_section_title
;
Structure prediction by ZEFSAII (Michael W. Deem and Ramdas Pophale) SiO2 
 PCOD9376318
Probable space group: I B A 2
;
_chemical_formula_sum "Si O2"
_cell_formula_units_Z 56
_cell_length_a 11.199856
_cell_length_b 14.383982
_cell_length_c 14.051281
_cell_angle_alpha 90.000000
_cell_angle_beta 90.000000
_cell_angle_gamma 90.000000
_cell_volume 2263.640673
_symmetry_space_group_name_H-M "I B A 2"
_symmetry_group_IT_number 45
_symmetry_cell_setting 'orthorhombic'
loop_
_space_group_symop_operation_xyz
x,y,z
-x,-y,z
-x,y,1/2+z
x,-y,1/2+z
1/2+x,1/2+y,1/2+z
1/2-x,1/2-y,1/2+z
1/2-x,1/2+y,z
1/2+x,1/2-y,z
loop_
_atom_site_type_symbol
_atom_site_label
_atom_site_fract_x
_atom_site_fract_y
_atom_site_fract_z
Si Si1 0.810649 0.820356 0.128740
Si Si2 0.831335 0.243667 0.837988
Si Si3 0.305085 0.530580 0.620376
Si Si4 0.068727 0.218032 0.644138
Si Si5 0.928462 0.745545 0.872443
Si Si6 0.872442 0.546930 0.288815
Si Si7 0.391425 0.943849 0.976197
O O1 0.810028 0.820764 0.245684
O O2 0.681816 0.775861 0.103663
O O3 0.934406 0.765235 0.105341
O O4 0.827712 0.924611 0.090088
O O5 0.710093 0.266146 0.894529
O O6 0.870009 0.342185 0.792632
O O7 0.944930 0.206391 0.897535
O O8 0.406260 0.607405 0.635548
O O9 0.229811 0.519716 0.716588
O O10 0.212911 0.576849 0.547357
O O11 0.071976 0.241332 0.757325
O O12 0.939465 0.643968 0.918592
O O13 0.843116 0.510294 0.393349
O O14 0.000000 0.500000 0.262901
O O15 0.500000 0.000000 0.024174
#
# Coordination Sequence:
#
# PCOD9376318 Si02
#       7
#     8   8   8   8   8   8   8
#     4  10  22  39  69 101 139 185 237 290 354 425
#     4  10  19  38  70 102 133 185 232 289 358 417
#     4  12  24  42  70 102 144 189 244 295 363 426
#     4  10  22  43  69 106 135 187 236 292 362 421
#     4  10  19  41  68  99 141 178 233 293 348 424
#     4  11  20  39  70  98 140 186 238 294 353 425
#     4  11  24  42  70 108 143 186 243 295 357 432
#
# _framework density 24.738907999999999
#
# number of rings (size 3 to 8) (size 9 to 14) (size 15 to 20)
#    0.000    1.429    5.714    2.571    2.000    1.143 
#    2.571    1.429    3.143    0.000    0.000    0.000 
#    0.000    0.000    0.000    0.000    0.000    0.000 
#
# Total GULP energy -156277.797152 kJ/mol
# GULP energy per Si atom -5581.349898 kJ/mol
# Density = 2.468260 g / cm^3
# Si number density = 24.738908 Si / 1000 Ang^3
#
#
#
# Elastic Constant Matrix: (Units=GPa)
#
#
# Indices 1 2 3 4 5 6 
#
# 1 205.1223 24.7315 8.0344 0.0000 0.0000 0.0000
# 2 24.7315 110.9965 4.8628 0.0000 0.0000 0.0000
# 3 8.0344 4.8628 40.9259 0.0000 0.0000 0.0000
# 4 0.0000 0.0000 0.0000 19.7570 0.0000 0.0000
# 5 0.0000 0.0000 0.0000 0.0000 23.2696 0.0000
# 6 0.0000 0.0000 0.0000 0.0000 0.0000 38.0539
#
#
#
# Elastic Compliance Matrix: (Units=1/GPa)
#
#
# Indices 1 2 3 4 5 6 
#
# 1 0.005040 -0.001085 -0.000860 0.000000 0.000000 0.000000
# 2 -0.001085 0.009290 -0.000891 0.000000 0.000000 0.000000
# 3 -0.000860 -0.000891 0.024709 0.000000 0.000000 0.000000
# 4 0.000000 0.000000 0.000000 0.050615 0.000000 0.000000
# 5 0.000000 0.000000 0.000000 0.000000 0.042975 0.000000
# 6 0.000000 0.000000 0.000000 0.000000 0.000000 0.026279
#
#
# Mechanical properties :
#
#
# Convention : Reuss Voigt Hill
#
# Bulk Modulus (GPa) = 29.97055 48.03357 39.00206
# Shear Modulus (GPa) = 28.45729 37.51049 32.98389
#
# Velocity S-wave (km/s) = 3.39529 3.89814 3.65537
# Velocity P-wave (km/s) = 5.24516 6.30230 5.79788
#
# Compressibility (1/GPa) = 0.03336609
#
# Stress axis : x y z
#
# Youngs Moduli (GPa) = 198.42504 107.64125 40.47081
#
# Poissons Ratio (x) = 0.11681 0.03482
# Poissons Ratio (y) = 0.21533 0.03605
# Poissons Ratio (z) = 0.17073 0.09589
#
# Static dielectric constant tensor:
#      x y z
#    x 2.081670 0.000000 0.000000 
#    y 0.000000 1.971120 0.000000 
#    z 0.000000 0.000000 1.955010 
# 
# From -- ./inp_files/6175.got.cif
#   From: 2010.05.17/outbox.cif.g08.bks.cpg/sg45_4_cif.got.tgz:6175.got - 2010.06.03 19:51:22.
