data_PCOD9376537
_publ_section_title
;
Structure prediction by ZEFSAII (Michael W. Deem and Ramdas Pophale) SiO2 
 PCOD9376537
Probable space group: I B A 2
;
_chemical_formula_sum "Si O2"
_cell_formula_units_Z 64
_cell_length_a 24.142826
_cell_length_b 13.240915
_cell_length_c 9.091777
_cell_angle_alpha 90.000000
_cell_angle_beta 90.000000
_cell_angle_gamma 90.000000
_cell_volume 2906.396601
_symmetry_space_group_name_H-M "I B A 2"
_symmetry_group_IT_number 45
_symmetry_cell_setting 'orthorhombic'
loop_
_space_group_symop_operation_xyz
x,y,z
-x,-y,z
-x,y,1/2+z
x,-y,1/2+z
1/2+x,1/2+y,1/2+z
1/2-x,1/2-y,1/2+z
1/2-x,1/2+y,z
1/2+x,1/2-y,z
loop_
_atom_site_type_symbol
_atom_site_label
_atom_site_fract_x
_atom_site_fract_y
_atom_site_fract_z
Si Si1 0.709801 0.912080 0.902850
Si Si2 0.042963 0.920819 0.397893
Si Si3 0.890042 0.075288 0.105050
Si Si4 0.465828 0.759376 0.367798
Si Si5 0.854198 0.793010 0.342206
Si Si6 0.281527 0.458717 0.678201
Si Si7 0.044566 0.416499 0.800564
Si Si8 0.593496 0.044908 0.520692
O O1 0.684951 0.804192 0.853135
O O2 0.654774 0.965386 0.961432
O O3 0.739013 0.977357 0.776935
O O4 0.751521 0.905418 0.040940
O O5 0.084957 0.897262 0.264165
O O6 0.001414 0.830021 0.445913
O O7 0.075117 0.985624 0.523166
O O8 0.000000 0.000000 0.328151
O O9 0.827994 0.034804 0.121186
O O10 0.881494 0.170668 0.997182
O O11 0.414019 0.725350 0.265301
O O12 0.515773 0.810937 0.278660
O O13 0.439206 0.857333 0.453039
O O14 0.816991 0.879775 0.273733
O O15 0.061643 0.445464 0.965166
O O16 0.094956 0.436201 0.692732
O O17 0.000000 0.500000 0.753804
#
# Coordination Sequence:
#
# PCOD9376537 Si02
#       8
#     8   8   8   8   8   8   8   8
#     4  11  26  44  74  96 133 180 228 285 341 387
#     4  12  24  40  67  98 136 175 213 265 331 399
#     4  12  24  45  66  97 135 174 223 274 330 401
#     4  10  23  39  64 100 132 178 211 265 326 401
#     4  11  25  45  67 103 134 172 232 275 329 414
#     4  12  24  49  69  97 134 178 225 293 339 380
#     4  10  20  39  64  93 136 176 211 267 328 387
#     4  10  22  42  63  99 134 171 226 271 320 401
#
# _framework density 22.020396000000002
#
# number of rings (size 3 to 8) (size 9 to 14) (size 15 to 20)
#    0.000    1.000    3.750    2.250    5.250    1.000 
#    0.000    2.500    0.000    0.000    0.000    0.000 
#    0.000    0.000    0.000    0.000    0.000    0.000 
#
# Total GULP energy -178421.121596 kJ/mol
# GULP energy per Si atom -5575.660050 kJ/mol
# Density = 2.197028 g / cm^3
# Si number density = 22.020396 Si / 1000 Ang^3
#
#
#
# Elastic Constant Matrix: (Units=GPa)
#
#
# Indices 1 2 3 4 5 6 
#
# 1 101.0503 36.1234 7.2934 0.0000 0.0000 0.0000
# 2 36.1234 81.3293 7.2296 0.0000 0.0000 0.0000
# 3 7.2934 7.2296 50.6140 0.0000 0.0000 0.0000
# 4 0.0000 0.0000 0.0000 10.5164 0.0000 0.0000
# 5 0.0000 0.0000 0.0000 0.0000 37.3784 0.0000
# 6 0.0000 0.0000 0.0000 0.0000 0.0000 48.7073
#
#
#
# Elastic Compliance Matrix: (Units=1/GPa)
#
#
# Indices 1 2 3 4 5 6 
#
# 1 0.011810 -0.005160 -0.000965 0.000000 0.000000 0.000000
# 2 -0.005160 0.014708 -0.001357 0.000000 0.000000 0.000000
# 3 -0.000965 -0.001357 0.020090 0.000000 0.000000 0.000000
# 4 0.000000 0.000000 0.000000 0.095090 0.000000 0.000000
# 5 0.000000 0.000000 0.000000 0.000000 0.026753 0.000000
# 6 0.000000 0.000000 0.000000 0.000000 0.000000 0.020531
#
#
# Mechanical properties :
#
#
# Convention : Reuss Voigt Hill
#
# Bulk Modulus (GPa) = 31.60100 37.14295 34.37197
# Shear Modulus (GPa) = 23.31057 31.47689 27.39373
#
# Velocity S-wave (km/s) = 3.25713 3.78490 3.53089
# Velocity P-wave (km/s) = 5.34108 6.00040 5.68031
#
# Compressibility (1/GPa) = 0.03164457
#
# Stress axis : x y z
#
# Youngs Moduli (GPa) = 84.67208 67.98927 49.77532
#
# Poissons Ratio (x) = 0.35082 0.04802
# Poissons Ratio (y) = 0.43690 0.06756
# Poissons Ratio (z) = 0.08169 0.09229
#
# Static dielectric constant tensor:
#      x y z
#    x 1.825470 0.000000 0.000000 
#    y 0.000000 1.883320 0.000000 
#    z 0.000000 0.000000 1.857920 
# 
# From -- ./inp_files/2536.got.cif
#   From: 2010.05.17/outbox.cif.g08.bks.cpg/sg45_2_cif.got.tgz:2536.got - 2010.06.03 19:51:22.
