data_PCOD9376367
_publ_section_title
;
Structure prediction by ZEFSAII (Michael W. Deem and Ramdas Pophale) SiO2 
 PCOD9376367
Probable space group: I B A 2
;
_chemical_formula_sum "Si O2"
_cell_formula_units_Z 64
_cell_length_a 23.987292
_cell_length_b 7.751792
_cell_length_c 16.494042
_cell_angle_alpha 90.000000
_cell_angle_beta 90.000000
_cell_angle_gamma 90.000000
_cell_volume 3066.976363
_symmetry_space_group_name_H-M "I B A 2"
_symmetry_group_IT_number 45
_symmetry_cell_setting 'orthorhombic'
loop_
_space_group_symop_operation_xyz
x,y,z
-x,-y,z
-x,y,1/2+z
x,-y,1/2+z
1/2+x,1/2+y,1/2+z
1/2-x,1/2-y,1/2+z
1/2-x,1/2+y,z
1/2+x,1/2-y,z
loop_
_atom_site_type_symbol
_atom_site_label
_atom_site_fract_x
_atom_site_fract_y
_atom_site_fract_z
Si Si1 0.859754 0.284484 0.338800
Si Si2 0.223551 0.264005 0.132795
Si Si3 0.560332 0.561641 0.710065
Si Si4 0.937332 0.985431 0.903497
Si Si5 0.830412 0.903104 0.682899
Si Si6 0.332781 0.310604 0.924963
Si Si7 0.136261 0.635161 0.754686
Si Si8 0.779966 0.454731 0.464995
O O1 0.833892 0.141841 0.278370
O O2 0.882014 0.446860 0.285948
O O3 0.810551 0.359181 0.392068
O O4 0.907461 0.200790 0.395179
O O5 0.289800 0.262421 0.145850
O O6 0.190446 0.378405 0.198419
O O7 0.199350 0.076191 0.151676
O O8 0.211539 0.344529 0.045833
O O9 0.500000 0.500000 0.680774
O O10 0.558778 0.534653 0.807760
O O11 0.604883 0.436444 0.666491
O O12 0.588187 0.753833 0.708205
O O13 0.892835 0.110531 0.946807
O O14 0.000000 0.000000 0.936273
O O15 0.342168 0.245542 0.832469
O O16 0.285465 0.453540 0.942085
O O17 0.308732 0.141378 0.969313
#
# Coordination Sequence:
#
# PCOD9376367 Si02
#       8
#     8   8   8   8   8   8   8   8
#     4  10  20  36  58  84 112 150 192 235 292 350
#     4  11  21  35  54  83 117 149 187 234 289 346
#     4   8  16  33  54  80 111 142 185 241 288 335
#     4   9  18  35  57  82 110 142 188 240 283 335
#     4  10  20  33  54  79 111 150 188 235 286 344
#     4  10  20  35  55  83 116 151 189 236 293 347
#     4   9  19  34  56  81 111 151 192 238 289 349
#     4  11  22  35  56  86 120 151 188 239 293 352
#
# _framework density 20.867457999999999
#
# number of rings (size 3 to 8) (size 9 to 14) (size 15 to 20)
#    0.000    2.250    0.000    3.750    0.000    7.000 
#    0.000   15.625    0.000    6.750    0.000   23.625 
#    0.000    0.000    0.000    0.000    0.000    0.000 
#
# Total GULP energy -178275.174764 kJ/mol
# GULP energy per Si atom -5571.099211 kJ/mol
# Density = 2.081996 g / cm^3
# Si number density = 20.867458 Si / 1000 Ang^3
#
#
#
# Elastic Constant Matrix: (Units=GPa)
#
#
# Indices 1 2 3 4 5 6 
#
# 1 192.9404 58.7869 36.9263 0.0000 0.0000 0.0000
# 2 58.7869 97.0643 25.7569 0.0000 0.0000 0.0000
# 3 36.9263 25.7569 53.0182 0.0000 0.0000 0.0000
# 4 0.0000 0.0000 0.0000 19.3815 0.0000 0.0000
# 5 0.0000 0.0000 0.0000 0.0000 -12.1432 0.0000
# 6 0.0000 0.0000 0.0000 0.0000 0.0000 20.4618
#
#
#
# Elastic Compliance Matrix: (Units=1/GPa)
#
#
# Indices 1 2 3 4 5 6 
#
# 1 0.006780 -0.003276 -0.003131 0.000000 0.000000 0.000000
# 2 -0.003276 0.013410 -0.004233 0.000000 0.000000 0.000000
# 3 -0.003131 -0.004233 0.023099 0.000000 0.000000 0.000000
# 4 0.000000 0.000000 0.000000 0.051596 0.000000 0.000000
# 5 0.000000 0.000000 0.000000 0.000000 -0.082351 0.000000
# 6 0.000000 0.000000 0.000000 0.000000 0.000000 0.048872
#
#
# Mechanical properties :
#
#
# Convention : Reuss Voigt Hill
#
# Bulk Modulus (GPa) = 45.43595 65.10700 55.27147
# Shear Modulus (GPa) = 55.54272 20.31021 37.92647
#
# Velocity S-wave (km/s) = 5.16475 3.12315 4.26783
# Velocity P-wave (km/s) = 7.57543 6.65383 7.12954
#
# Compressibility (1/GPa) = 0.02200901
#
# Stress axis : x y z
#
# Youngs Moduli (GPa) = 147.48793 74.57336 43.29262
#
# Poissons Ratio (x) = 0.24427 0.13555
# Poissons Ratio (y) = 0.48311 0.18326
# Poissons Ratio (z) = 0.46178 0.31568
#
# Static dielectric constant tensor:
#      x y z
#    x 1.756900 0.000000 0.000000 
#    y 0.000000 1.857900 0.000000 
#    z 0.000000 0.000000 1.770350 
# 
# From -- ./inp_files/8461.got.cif
#   From: 2010.05.17/outbox.cif.g08.bks.cpg/sg45_5_cif.got.tgz:8461.got - 2010.06.03 19:51:22.
