data_PCOD9376008
_publ_section_title
;
Structure prediction by ZEFSAII (Michael W. Deem and Ramdas Pophale) SiO2 
 PCOD9376008
Probable space group: I M M 2
;
_chemical_formula_sum "Si O2"
_cell_formula_units_Z 32
_cell_length_a 15.000000
_cell_length_b 24.000000
_cell_length_c 9.000000
_cell_angle_alpha 90.000000
_cell_angle_beta 90.000000
_cell_angle_gamma 90.000000
_cell_volume 3240.000000
_symmetry_space_group_name_H-M "I M M 2"
_symmetry_group_IT_number 44
_symmetry_cell_setting 'orthorhombic'
loop_
_space_group_symop_operation_xyz
x,y,z
-x,-y,z
-x,y,z
x,-y,z
1/2+x,1/2+y,1/2+z
1/2-x,1/2-y,1/2+z
1/2-x,1/2+y,1/2+z
1/2+x,1/2-y,1/2+z
loop_
_atom_site_type_symbol
_atom_site_label
_atom_site_fract_x
_atom_site_fract_y
_atom_site_fract_z
Si Si1 0.280371 0.675617 0.429290
Si Si2 0.595945 0.067128 0.725309
Si Si3 0.258673 0.862499 0.248130
Si Si4 0.292440 0.431263 0.221664
Si Si5 0.402054 0.933365 0.076544
Si Si6 0.104145 0.874205 0.459126
Si Si7 0.600316 0.760904 0.965158
Si Si8 0.102402 0.276693 0.818796
O O1 0.281874 0.671627 0.608313
O O2 0.294466 0.613552 0.359102
O O3 0.183315 0.704913 0.394165
O O4 0.356113 0.717912 0.371438
O O5 0.500000 0.088986 0.668712
O O6 0.692224 0.079795 0.656972
O O7 0.590515 0.000000 0.718820
O O8 0.602384 0.081216 0.901437
O O9 0.324811 0.906072 0.170453
O O10 0.176988 0.889608 0.335274
O O11 0.322581 0.823700 0.350581
O O12 0.299816 0.500000 0.249580
O O13 0.364938 0.407529 0.106334
O O14 0.500000 0.915111 0.130619
O O15 0.397270 0.000000 0.085044
O O16 0.113333 0.806299 0.466394
O O17 0.000000 0.885580 0.427814
O O18 0.500000 0.772730 0.904138
O O19 0.598804 0.777177 0.138978
O O20 0.000000 0.284749 0.871685
#
# Coordination Sequence:
#
# PCOD9376008 Si02
#       8
#     8   8   8   8   8   8   8   8
#     4  11  21  36  64  94 122 160 212 270 323 382
#     4   8  15  31  56  87 121 154 195 250 306 363
#     4  11  22  37  63  92 126 161 211 264 324 386
#     4  11  23  40  64  92 126 172 221 265 320 389
#     4   9  17  32  58  92 126 159 196 244 307 377
#     4  11  24  43  62  83 122 171 219 271 327 383
#     4   9  19  37  61  87 120 162 207 256 318 384
#     4  10  20  36  59  89 123 158 199 257 321 382
#
# _framework density 9.8765429999999999
#
# number of rings (size 3 to 8) (size 9 to 14) (size 15 to 20)
#    0.000    2.000    3.750    1.125    0.000    2.250 
#    0.000    1.250    0.000    1.500    0.000    0.000 
#    0.000    0.000    0.000    0.000    0.000    0.000 
#
# Total GULP energy -178362.746122 kJ/mol
# GULP energy per Si atom -5573.835816 kJ/mol
# Density = 0.985406 g / cm^3
# Si number density = 9.876543 Si / 1000 Ang^3
#
#
#
# Elastic Constant Matrix: (Units=GPa)
#
#
# Indices 1 2 3 4 5 6 
#
# 1 154.2441 29.1103 33.7998 0.0000 0.0000 0.0000
# 2 29.1103 83.5841 13.7146 -0.0001 0.0000 0.0000
# 3 33.7998 13.7146 29.1013 -0.0004 0.0000 -0.0001
# 4 0.0000 -0.0001 -0.0004 21.6202 0.0000 -0.0001
# 5 0.0000 0.0000 0.0000 0.0000 34.8451 0.0000
# 6 0.0000 0.0000 -0.0001 -0.0001 0.0000 34.1862
#
#
#
# Elastic Compliance Matrix: (Units=1/GPa)
#
#
# Indices 1 2 3 4 5 6 
#
# 1 0.008870 -0.001516 -0.009588 0.000000 0.000000 0.000000
# 2 -0.001516 0.013226 -0.004472 0.000000 0.000000 0.000000
# 3 -0.009588 -0.004472 0.047606 0.000001 0.000000 0.000000
# 4 0.000000 0.000000 0.000001 0.046253 0.000000 0.000000
# 5 0.000000 0.000000 0.000000 0.000000 0.028698 0.000000
# 6 0.000000 0.000000 0.000000 0.000000 0.000000 0.029252
#
#
# Mechanical properties :
#
#
# Convention : Reuss Voigt Hill
#
# Bulk Modulus (GPa) = 25.94023 46.68656 36.31339
# Shear Modulus (GPa) = 22.94543 30.81729 26.88136
#
# Velocity S-wave (km/s) = 3.41194 3.95413 3.69300
# Velocity P-wave (km/s) = 5.35561 6.67332 6.05044
#
# Compressibility (1/GPa) = 0.03855017
#
# Stress axis : x y z
#
# Youngs Moduli (GPa) = 112.73407 75.60979 21.00555
#
# Poissons Ratio (x) = 0.11463 0.20140
# Poissons Ratio (y) = 0.17092 0.09394
# Poissons Ratio (z) = 1.08091 0.33813
#
# Static dielectric constant tensor:
#      x y z
#    x 1.740990 0.000000 0.000000 
#    y 0.000000 1.724350 0.000000 
#    z 0.000000 0.000000 1.702650 
# 
# From -- ./inp_files/7548.got.cif
#   From: 2010.05.17/outbox.ucp.g08.bks.cvg/sg44_4_cif.got.tgz:7548.got - 2010.06.11 16:32:36.
