data_PCOD9376078
_publ_section_title
;
Structure prediction by ZEFSAII (Michael W. Deem and Ramdas Pophale) SiO2 
 PCOD9376078
Probable space group: I B A 2
;
_chemical_formula_sum "Si O2"
_cell_formula_units_Z 32
_cell_length_a 6.862752
_cell_length_b 21.830785
_cell_length_c 8.027599
_cell_angle_alpha 90.000000
_cell_angle_beta 90.000000
_cell_angle_gamma 90.000000
_cell_volume 1202.688969
_symmetry_space_group_name_H-M "I B A 2"
_symmetry_group_IT_number 45
_symmetry_cell_setting 'orthorhombic'
loop_
_space_group_symop_operation_xyz
x,y,z
-x,-y,z
-x,y,1/2+z
x,-y,1/2+z
1/2+x,1/2+y,1/2+z
1/2-x,1/2-y,1/2+z
1/2-x,1/2+y,z
1/2+x,1/2-y,z
loop_
_atom_site_type_symbol
_atom_site_label
_atom_site_fract_x
_atom_site_fract_y
_atom_site_fract_z
Si Si1 0.810112 0.424657 0.444020
Si Si2 0.103538 0.695646 0.623125
Si Si3 0.293897 0.678037 0.982720
Si Si4 0.744472 0.447428 0.058713
O O1 0.788617 0.355919 0.513298
O O2 0.758769 0.435442 0.253861
O O3 0.704922 0.480466 0.539552
O O4 0.043455 0.437221 0.470278
O O5 0.199991 0.693309 0.803818
O O6 0.089721 0.762962 0.542598
O O7 0.878866 0.675873 0.620323
O O8 0.377279 0.609130 0.979824
#
# Coordination Sequence:
#
# PCOD9376078 Si02
#       4
#     8   8   8   8
#     4  10  17  28  46  71  99 130 166 210 254 298
#     4  11  21  35  53  77 105 137 172 212 256 305
#     4  11  21  35  53  77 105 137 172 212 256 305
#     4  10  17  28  46  71  99 130 166 210 254 298
#
# _framework density 26.607047000000001
#
# number of rings (size 3 to 8) (size 9 to 14) (size 15 to 20)
#    0.000    1.500    0.000   13.500    0.000    0.000 
#    0.000    0.000    0.000    1.500    0.000   10.500 
#    0.000    0.000    0.000    0.000    0.000    0.000 
#
# Total GULP energy -89537.650981 kJ/mol
# GULP energy per Si atom -5596.103186 kJ/mol
# Density = 2.654649 g / cm^3
# Si number density = 26.607047 Si / 1000 Ang^3
#
#
#
# Elastic Constant Matrix: (Units=GPa)
#
#
# Indices 1 2 3 4 5 6 
#
# 1 46.5944 17.5940 -15.1533 0.0000 0.0000 0.0000
# 2 17.5940 283.5644 49.3133 -0.0001 -0.0002 0.0000
# 3 -15.1533 49.3133 150.8440 0.0005 -0.0007 0.0001
# 4 0.0000 -0.0001 0.0005 52.7659 -0.0001 0.0000
# 5 0.0000 -0.0002 -0.0007 -0.0001 10.2130 -0.0001
# 6 0.0000 0.0000 0.0001 0.0000 -0.0001 46.9153
#
#
#
# Elastic Compliance Matrix: (Units=1/GPa)
#
#
# Indices 1 2 3 4 5 6 
#
# 1 0.023164 -0.001953 0.002965 0.000000 0.000000 0.000000
# 2 -0.001953 0.003904 -0.001472 0.000000 0.000000 0.000000
# 3 0.002965 -0.001472 0.007409 0.000000 0.000000 0.000000
# 4 0.000000 0.000000 0.000000 0.018952 0.000000 0.000000
# 5 0.000000 0.000000 0.000000 0.000000 0.097915 0.000000
# 6 0.000000 0.000000 0.000000 0.000000 0.000000 0.021315
#
#
# Mechanical properties :
#
#
# Convention : Reuss Voigt Hill
#
# Bulk Modulus (GPa) = 29.80079 64.94565 47.37322
# Shear Modulus (GPa) = 27.06179 50.59543 38.82861
#
# Velocity S-wave (km/s) = 3.19265 4.36544 3.82427
# Velocity P-wave (km/s) = 4.98150 7.06198 6.11093
#
# Compressibility (1/GPa) = 0.03355616
#
# Stress axis : x y z
#
# Youngs Moduli (GPa) = 43.17116 256.16331 134.97823
#
# Poissons Ratio (x) = 0.50026 -0.40026
# Poissons Ratio (y) = 0.08431 0.19874
# Poissons Ratio (z) = -0.12802 0.37717
#
# Static dielectric constant tensor:
#      x y z
#    x 2.296980 0.000000 0.000000 
#    y 0.000000 2.248000 0.000000 
#    z 0.000000 0.000000 1.966430 
# 
# From -- ./inp_files/899.got.cif
#   From: 2010.05.17/outbox.cif.g08.bks.cpg/sg45_1_cif.got.tgz:899.got - 2010.06.03 19:51:22.
