data_PCOD9376562
_publ_section_title
;
Structure prediction by ZEFSAII (Michael W. Deem and Ramdas Pophale) SiO2 
 PCOD9376562
Probable space group: I B A 2
;
_chemical_formula_sum "Si O2"
_cell_formula_units_Z 64
_cell_length_a 8.651350
_cell_length_b 26.189607
_cell_length_c 13.785542
_cell_angle_alpha 90.000000
_cell_angle_beta 90.000000
_cell_angle_gamma 90.000000
_cell_volume 3123.465472
_symmetry_space_group_name_H-M "I B A 2"
_symmetry_group_IT_number 45
_symmetry_cell_setting 'orthorhombic'
loop_
_space_group_symop_operation_xyz
x,y,z
-x,-y,z
-x,y,1/2+z
x,-y,1/2+z
1/2+x,1/2+y,1/2+z
1/2-x,1/2-y,1/2+z
1/2-x,1/2+y,z
1/2+x,1/2-y,z
loop_
_atom_site_type_symbol
_atom_site_label
_atom_site_fract_x
_atom_site_fract_y
_atom_site_fract_z
Si Si1 0.048227 0.135378 0.914950
Si Si2 0.145394 0.769830 0.841406
Si Si3 0.975466 0.580808 0.522577
Si Si4 0.032889 0.583033 0.240675
Si Si5 0.729005 0.439003 0.412586
Si Si6 0.754412 0.451965 0.853053
Si Si7 0.940911 0.300171 0.227655
Si Si8 0.666570 0.186405 0.512594
O O1 0.147037 0.097678 0.845757
O O2 0.968919 0.183816 0.865451
O O3 0.907934 0.098268 0.944695
O O4 0.169150 0.157634 0.994095
O O5 0.311597 0.790713 0.809844
O O6 0.075591 0.739320 0.750445
O O7 0.154436 0.730856 0.932512
O O8 0.921773 0.570748 0.631330
O O9 0.858141 0.555778 0.448517
O O10 0.961284 0.641538 0.499845
O O11 0.145521 0.560721 0.498868
O O12 0.168559 0.579194 0.319762
O O13 0.991318 0.643016 0.237917
O O14 0.884477 0.549593 0.270181
O O15 0.675070 0.494290 0.374536
O O16 0.862544 0.294886 0.122015
#
# Coordination Sequence:
#
# PCOD9376562 Si02
#       8
#     8   8   8   8   8   8   8   8
#     4  11  23  42  60  87 131 160 201 264 312 363
#     4  12  23  41  64  88 128 165 209 257 314 379
#     4   9  20  39  64  89 123 160 205 254 307 374
#     4  10  20  40  63  92 123 158 207 255 307 378
#     4  11  21  38  65  91 117 164 213 252 313 373
#     4  10  22  39  61  89 124 162 205 259 314 368
#     4  11  24  40  64  95 125 166 212 256 318 382
#     4  10  24  43  63  93 127 167 207 260 316 384
#
# _framework density 20.490062000000002
#
# number of rings (size 3 to 8) (size 9 to 14) (size 15 to 20)
#    0.000    1.500    2.500    4.125    1.750    2.000 
#    4.500    0.000    0.000    3.000    0.000    0.000 
#    0.000    0.000    0.000    0.000    0.000    0.000 
#
# Total GULP energy -178520.931810 kJ/mol
# GULP energy per Si atom -5578.779119 kJ/mol
# Density = 2.044343 g / cm^3
# Si number density = 20.490062 Si / 1000 Ang^3
#
#
#
# Elastic Constant Matrix: (Units=GPa)
#
#
# Indices 1 2 3 4 5 6 
#
# 1 71.1744 26.5923 1.7435 0.0000 0.0000 0.0000
# 2 26.5923 106.3119 19.4937 0.0000 0.0000 0.0000
# 3 1.7435 19.4937 75.2010 -0.0001 0.0000 0.0000
# 4 0.0000 0.0000 -0.0001 19.1969 0.0000 0.0000
# 5 0.0000 0.0000 0.0000 0.0000 14.4817 0.0000
# 6 0.0000 0.0000 0.0000 0.0000 0.0000 30.2845
#
#
#
# Elastic Compliance Matrix: (Units=1/GPa)
#
#
# Indices 1 2 3 4 5 6 
#
# 1 0.015531 -0.004009 0.000679 0.000000 0.000000 0.000000
# 2 -0.004009 0.010911 -0.002735 0.000000 0.000000 0.000000
# 3 0.000679 -0.002735 0.013991 0.000000 0.000000 0.000000
# 4 0.000000 0.000000 0.000000 0.052092 0.000000 0.000000
# 5 0.000000 0.000000 0.000000 0.000000 0.069053 0.000000
# 6 0.000000 0.000000 0.000000 0.000000 0.000000 0.033020
#
#
# Mechanical properties :
#
#
# Convention : Reuss Voigt Hill
#
# Bulk Modulus (GPa) = 35.33317 38.70513 37.01915
# Shear Modulus (GPa) = 23.13070 26.44980 24.79025
#
# Velocity S-wave (km/s) = 3.36352 3.59675 3.48209
# Velocity P-wave (km/s) = 5.68910 6.01494 5.85429
#
# Compressibility (1/GPa) = 0.02830201
#
# Stress axis : x y z
#
# Youngs Moduli (GPa) = 64.38577 91.65264 71.47444
#
# Poissons Ratio (x) = 0.36748 -0.04855
# Poissons Ratio (y) = 0.25815 0.19551
# Poissons Ratio (z) = -0.04373 0.25070
#
# Static dielectric constant tensor:
#      x y z
#    x 1.742750 0.000000 0.000000 
#    y 0.000000 1.777770 0.000000 
#    z 0.000000 0.000000 1.712270 
# 
# From -- ./inp_files/5862.got.cif
#   From: 2010.05.17/outbox.cif.g08.bks.cpg/sg45_3_cif.got.tgz:5862.got - 2010.06.03 19:51:22.
