data_PCOD9376662
_publ_section_title
;
Structure prediction by ZEFSAII (Michael W. Deem and Ramdas Pophale) SiO2 
 PCOD9376662
Probable space group: I B A 2
;
_chemical_formula_sum "Si O2"
_cell_formula_units_Z 60
_cell_length_a 11.883262
_cell_length_b 28.272935
_cell_length_c 8.963723
_cell_angle_alpha 90.000000
_cell_angle_beta 90.000000
_cell_angle_gamma 90.000000
_cell_volume 3011.584093
_symmetry_space_group_name_H-M "I B A 2"
_symmetry_group_IT_number 45
_symmetry_cell_setting 'orthorhombic'
loop_
_space_group_symop_operation_xyz
x,y,z
-x,-y,z
-x,y,1/2+z
x,-y,1/2+z
1/2+x,1/2+y,1/2+z
1/2-x,1/2-y,1/2+z
1/2-x,1/2+y,z
1/2+x,1/2-y,z
loop_
_atom_site_type_symbol
_atom_site_label
_atom_site_fract_x
_atom_site_fract_y
_atom_site_fract_z
Si Si1 0.286433 0.650021 0.000000
Si Si2 0.611680 0.640050 0.825270
Si Si3 0.597443 0.264996 0.488631
Si Si4 0.968673 0.670144 0.614288
Si Si5 0.225729 0.235581 0.789595
Si Si6 0.916558 0.065483 0.386566
Si Si7 0.500000 0.500000 0.146954
Si Si8 0.852889 0.659982 0.899554
O O1 0.317532 0.692771 0.889652
O O2 0.315163 0.601355 0.917057
O O3 0.361576 0.652627 0.151962
O O4 0.154603 0.655981 0.044479
O O5 0.524661 0.598009 0.845405
O O6 0.738178 0.631045 0.884848
O O7 0.566861 0.683877 0.925605
O O8 0.521818 0.226288 0.571350
O O9 0.644953 0.239964 0.339000
O O10 0.693406 0.271305 0.618006
O O11 0.951491 0.651775 0.780394
O O12 0.086200 0.651704 0.553597
O O13 0.179435 0.286267 0.846996
O O14 0.912544 0.027292 0.254325
O O15 0.941175 0.037496 0.538541
#
# Coordination Sequence:
#
# PCOD9376662 Si02
#       8
#     8   8   8   8   8   8   4   8
#     4  10  21  36  55  81 112 148 188 232 280 339
#     4  10  21  36  55  81 112 148 188 232 280 339
#     4   9  18  31  48  73 110 151 195 232 266 310
#     4   9  19  34  49  75 113 155 191 226 263 308
#     4   9  18  31  48  73 110 151 195 232 266 310
#     4  11  22  42  62  88 114 136 180 236 300 361
#     4  10  24  42  64  86 110 138 176 234 312 364
#     4   9  19  34  49  75 113 155 191 226 263 308
#
# _framework density 19.923069999999999
#
# number of rings (size 3 to 8) (size 9 to 14) (size 15 to 20)
#    0.000    2.400    1.333    2.400    3.733    5.333 
#    0.000    0.000    0.000    0.000    0.000    5.600 
#    0.000    0.000    0.000    0.000    0.000    0.000 
#
# Total GULP energy -167134.400403 kJ/mol
# GULP energy per Si atom -5571.146680 kJ/mol
# Density = 1.987772 g / cm^3
# Si number density = 19.923070 Si / 1000 Ang^3
#
#
#
# Elastic Constant Matrix: (Units=GPa)
#
#
# Indices 1 2 3 4 5 6 
#
# 1 43.3480 6.5133 18.1025 -0.0008 0.0014 -0.0003
# 2 6.5133 66.7437 26.9686 -0.0002 0.0006 -0.0001
# 3 18.1025 26.9686 71.5472 -0.0025 0.0063 -0.0013
# 4 -0.0008 -0.0002 -0.0025 28.9357 0.0012 -0.0002
# 5 0.0014 0.0006 0.0063 0.0012 21.3553 -0.0015
# 6 -0.0003 -0.0001 -0.0013 -0.0002 -0.0015 9.3824
#
#
#
# Elastic Compliance Matrix: (Units=1/GPa)
#
#
# Indices 1 2 3 4 5 6 
#
# 1 0.025796 0.000141 -0.006580 0.000000 0.000000 0.000000
# 2 0.000141 0.017675 -0.006698 0.000000 0.000001 -0.000001
# 3 -0.006580 -0.006698 0.018166 0.000001 -0.000005 0.000002
# 4 0.000000 0.000000 0.000001 0.034559 -0.000002 0.000001
# 5 0.000000 0.000001 -0.000005 -0.000002 0.046827 0.000007
# 6 0.000000 -0.000001 0.000002 0.000001 0.000007 0.106582
#
#
# Mechanical properties :
#
#
# Convention : Reuss Voigt Hill
#
# Bulk Modulus (GPa) = 28.27742 31.64528 29.96135
# Shear Modulus (GPa) = 17.38118 20.60498 18.99308
#
# Velocity S-wave (km/s) = 2.95687 3.21943 3.09094
# Velocity P-wave (km/s) = 5.08739 5.45324 5.27349
#
# Compressibility (1/GPa) = 0.03536391
#
# Stress axis : x y z
#
# Youngs Moduli (GPa) = 38.76609 56.57579 55.04664
#
# Poissons Ratio (x) = -0.00800 0.36221
# Poissons Ratio (y) = -0.00548 0.36872
# Poissons Ratio (z) = 0.25508 0.37896
#
# Static dielectric constant tensor:
#      x y z
#    x 1.853490 0.000000 0.000000 
#    y 0.000000 1.711520 0.000000 
#    z 0.000000 0.000000 1.766210 
# 
# From -- ./inp_files/1914.got.cif
#   From: 2010.05.17/outbox.cif.g08.bks.cpg/sg45_1_cif.got.tgz:1914.got - 2010.06.03 19:51:22.
