data_PCOD9376867
_publ_section_title
;
Structure prediction by ZEFSAII (Michael W. Deem and Ramdas Pophale) SiO2 
 PCOD9376867
Probable space group: I B A 2
;
_chemical_formula_sum "Si O2"
_cell_formula_units_Z 40
_cell_length_a 9.073078
_cell_length_b 13.115361
_cell_length_c 12.541790
_cell_angle_alpha 90.000000
_cell_angle_beta 90.000000
_cell_angle_gamma 90.000000
_cell_volume 1492.431539
_symmetry_space_group_name_H-M "I B A 2"
_symmetry_group_IT_number 45
_symmetry_cell_setting 'orthorhombic'
loop_
_space_group_symop_operation_xyz
x,y,z
-x,-y,z
-x,y,1/2+z
x,-y,1/2+z
1/2+x,1/2+y,1/2+z
1/2-x,1/2-y,1/2+z
1/2-x,1/2+y,z
1/2+x,1/2-y,z
loop_
_atom_site_type_symbol
_atom_site_label
_atom_site_fract_x
_atom_site_fract_y
_atom_site_fract_z
Si Si1 0.194644 0.161845 0.297770
Si Si2 0.154675 0.006867 0.965349
Si Si3 0.716718 0.177314 0.556424
Si Si4 0.531623 0.879051 0.824485
Si Si5 0.376799 0.119704 0.586569
O O1 0.136860 0.063242 0.362004
O O2 0.203700 0.146813 0.169286
O O3 0.366344 0.162335 0.326161
O O4 0.114172 0.265552 0.334375
O O5 0.297074 0.974546 0.033017
O O6 0.000000 0.000000 0.024689
O O7 0.199349 0.124263 0.957551
O O8 0.540300 0.156431 0.550426
O O9 0.754600 0.295651 0.560758
O O10 0.601581 0.904885 0.709606
O O11 0.500000 0.000000 0.865418
#
# Coordination Sequence:
#
# PCOD9376867 Si02
#       5
#     8   8   8   8   8
#     4  10  25  44  70 105 141 190 254 307 373 457
#     4  12  26  42  67 105 148 193 245 304 375 457
#     4  10  22  45  70  98 141 188 242 315 377 448
#     4  10  22  45  73 102 143 191 242 312 379 440
#     4  10  21  42  70 102 137 186 247 302 377 452
#
# _framework density 26.8019
#
# number of rings (size 3 to 8) (size 9 to 14) (size 15 to 20)
#    0.000    1.600    0.000    4.200    0.000   10.400 
#    0.000    0.000    0.000    0.000    0.000    0.000 
#    0.000    0.000    0.000    0.000    0.000    0.000 
#
# Total GULP energy -111435.718029 kJ/mol
# GULP energy per Si atom -5571.785901 kJ/mol
# Density = 2.674090 g / cm^3
# Si number density = 26.801900 Si / 1000 Ang^3
#
#
#
# Elastic Constant Matrix: (Units=GPa)
#
#
# Indices 1 2 3 4 5 6 
#
# 1 160.0586 58.6009 21.4969 0.0000 0.0000 0.0000
# 2 58.6009 138.5956 47.5656 0.0000 0.0000 0.0000
# 3 21.4969 47.5656 74.6908 0.0000 0.0000 0.0000
# 4 0.0000 0.0000 0.0000 -63.2769 0.0000 0.0000
# 5 0.0000 0.0000 0.0000 0.0000 -1.6244 0.0000
# 6 0.0000 0.0000 0.0000 0.0000 0.0000 60.1063
#
#
#
# Elastic Compliance Matrix: (Units=1/GPa)
#
#
# Indices 1 2 3 4 5 6 
#
# 1 0.007394 -0.003066 -0.000175 0.000000 0.000000 0.000000
# 2 -0.003066 0.010505 -0.005807 0.000000 0.000000 0.000000
# 3 -0.000175 -0.005807 0.017137 0.000000 0.000000 0.000000
# 4 0.000000 0.000000 0.000000 -0.015804 0.000000 0.000000
# 5 0.000000 0.000000 0.000000 0.000000 -0.615627 0.000000
# 6 0.000000 0.000000 0.000000 0.000000 0.000000 0.016637
#
#
# Mechanical properties :
#
#
# Convention : Reuss Voigt Hill
#
# Bulk Modulus (GPa) = 59.03811 69.85242 64.44526
# Shear Modulus (GPa) = -8.99258 15.41979 3.21361
#
# Velocity S-wave (km/s) = -1.83371 2.40119 1.09619
# Velocity P-wave (km/s) = 4.19429 5.81435 5.06946
#
# Compressibility (1/GPa) = 0.01693821
#
# Stress axis : x y z
#
# Youngs Moduli (GPa) = 135.24810 95.19594 58.35228
#
# Poissons Ratio (x) = 0.29187 0.01024
# Poissons Ratio (y) = 0.41467 0.33887
# Poissons Ratio (z) = 0.02373 0.55283
#
# Static dielectric constant tensor:
#      x y z
#    x 2.165690 0.000000 0.000000 
#    y 0.000000 2.234060 0.000000 
#    z 0.000000 0.000000 2.370050 
# 
# From -- ./inp_files/7431.got.cif
#   From: 2010.05.17/outbox.cif.g08.bks.cpg/sg45_4_cif.got.tgz:7431.got - 2010.06.03 19:51:22.
