data_PCOD9376211
_publ_section_title
;
Structure prediction by ZEFSAII (Michael W. Deem and Ramdas Pophale) SiO2 
 PCOD9376211
Probable space group: I B A 2
;
_chemical_formula_sum "Si O2"
_cell_formula_units_Z 56
_cell_length_a 13.958951
_cell_length_b 8.460375
_cell_length_c 20.475602
_cell_angle_alpha 90.000000
_cell_angle_beta 90.000000
_cell_angle_gamma 90.000000
_cell_volume 2418.126827
_symmetry_space_group_name_H-M "I B A 2"
_symmetry_group_IT_number 45
_symmetry_cell_setting 'orthorhombic'
loop_
_space_group_symop_operation_xyz
x,y,z
-x,-y,z
-x,y,1/2+z
x,-y,1/2+z
1/2+x,1/2+y,1/2+z
1/2-x,1/2-y,1/2+z
1/2-x,1/2+y,z
1/2+x,1/2-y,z
loop_
_atom_site_type_symbol
_atom_site_label
_atom_site_fract_x
_atom_site_fract_y
_atom_site_fract_z
Si Si1 0.442420 0.663619 0.780950
Si Si2 0.761608 0.037851 0.448654
Si Si3 0.459661 0.682347 0.919467
Si Si4 0.629928 0.354350 0.651263
Si Si5 0.123575 0.747529 0.007305
Si Si6 0.783626 0.583180 0.303406
Si Si7 0.790529 0.840346 0.211993
O O1 0.500000 0.500000 0.781691
O O2 0.470591 0.753447 0.846818
O O3 0.441182 0.717814 0.705993
O O4 0.330684 0.620159 0.796051
O O5 0.850149 0.160681 0.440799
O O6 0.689065 0.092242 0.504885
O O7 0.705585 0.041765 0.379072
O O8 0.813297 0.874176 0.465823
O O9 0.500000 0.500000 0.918237
O O10 0.524424 0.774826 0.970020
O O11 0.603107 0.321118 0.577676
O O12 0.733288 0.273260 0.663555
O O13 0.644974 0.537413 0.671813
O O14 0.836392 0.731534 0.269459
O O15 0.789448 0.438765 0.253259
#
# Coordination Sequence:
#
# PCOD9376211 Si02
#       7
#     8   8   8   8   8   8   8
#     4   8  15  28  47  70  97 132 174 220 259 300
#     4  10  20  34  55  81 111 143 184 231 275 325
#     4   8  17  34  53  76 107 142 186 231 265 319
#     4  10  19  31  50  78 108 139 176 220 273 329
#     4  11  21  34  55  83 113 149 182 221 283 339
#     4   9  16  29  51  76  98 134 180 224 267 312
#     4   8  16  30  48  72 103 131 172 221 260 312
#
# _framework density 23.158421000000001
#
# number of rings (size 3 to 8) (size 9 to 14) (size 15 to 20)
#    0.000    3.143    0.000    2.571    0.000    4.000 
#    0.000    0.714    0.000    0.000    0.000  118.000 
#    0.000    0.000    0.000    0.000    0.000    0.000 
#
# Total GULP energy -156070.989540 kJ/mol
# GULP energy per Si atom -5573.963912 kJ/mol
# Density = 2.310571 g / cm^3
# Si number density = 23.158421 Si / 1000 Ang^3
#
#
#
# Elastic Constant Matrix: (Units=GPa)
#
#
# Indices 1 2 3 4 5 6 
#
# 1 61.0930 2.0780 25.2370 0.0000 0.0000 0.0000
# 2 2.0780 41.9111 -0.3080 0.0000 0.0000 0.0000
# 3 25.2370 -0.3080 134.3407 0.0000 0.0000 0.0000
# 4 0.0000 0.0000 0.0000 19.8586 0.0000 0.0000
# 5 0.0000 0.0000 0.0000 0.0000 25.0841 0.0000
# 6 0.0000 0.0000 0.0000 0.0000 0.0000 15.8722
#
#
#
# Elastic Compliance Matrix: (Units=1/GPa)
#
#
# Indices 1 2 3 4 5 6 
#
# 1 0.017780 -0.000906 -0.003342 0.000000 0.000000 0.000000
# 2 -0.000906 0.023907 0.000225 0.000000 0.000000 0.000000
# 3 -0.003342 0.000225 0.008072 0.000000 0.000000 0.000000
# 4 0.000000 0.000000 0.000000 0.050356 0.000000 0.000000
# 5 0.000000 0.000000 0.000000 0.000000 0.039866 0.000000
# 6 0.000000 0.000000 0.000000 0.000000 0.000000 0.063003
#
#
# Mechanical properties :
#
#
# Convention : Reuss Voigt Hill
#
# Bulk Modulus (GPa) = 23.97382 32.37317 28.17350
# Shear Modulus (GPa) = 22.22871 26.18550 24.20710
#
# Velocity S-wave (km/s) = 3.10151 3.36625 3.23659
# Velocity P-wave (km/s) = 4.81668 5.39613 5.11462
#
# Compressibility (1/GPa) = 0.04171217
#
# Stress axis : x y z
#
# Youngs Moduli (GPa) = 56.24314 41.82947 123.88296
#
# Poissons Ratio (x) = 0.03790 0.41404
# Poissons Ratio (y) = 0.05096 -0.02788
# Poissons Ratio (z) = 0.18797 -0.00941
#
# Static dielectric constant tensor:
#      x y z
#    x 1.906890 0.000000 0.000000 
#    y 0.000000 1.935020 0.000000 
#    z 0.000000 0.000000 1.906270 
# 
# From -- ./inp_files/9238.got.cif
#   From: 2010.05.17/outbox.cif.g08.bks.cpg/sg45_5_cif.got.tgz:9238.got - 2010.06.03 19:51:22.
