data_PCOD9376212
_publ_section_title
;
Structure prediction by ZEFSAII (Michael W. Deem and Ramdas Pophale) SiO2 
 PCOD9376212
Probable space group: I B A 2
;
_chemical_formula_sum "Si O2"
_cell_formula_units_Z 56
_cell_length_a 7.196929
_cell_length_b 19.751700
_cell_length_c 15.775303
_cell_angle_alpha 90.000000
_cell_angle_beta 90.000000
_cell_angle_gamma 90.000000
_cell_volume 2242.484286
_symmetry_space_group_name_H-M "I B A 2"
_symmetry_group_IT_number 45
_symmetry_cell_setting 'orthorhombic'
loop_
_space_group_symop_operation_xyz
x,y,z
-x,-y,z
-x,y,1/2+z
x,-y,1/2+z
1/2+x,1/2+y,1/2+z
1/2-x,1/2-y,1/2+z
1/2-x,1/2+y,z
1/2+x,1/2-y,z
loop_
_atom_site_type_symbol
_atom_site_label
_atom_site_fract_x
_atom_site_fract_y
_atom_site_fract_z
Si Si1 0.869474 0.140187 0.784630
Si Si2 0.114764 0.439802 0.536805
Si Si3 0.664839 0.670755 0.971101
Si Si4 0.013013 0.276994 0.248994
Si Si5 0.271687 0.128038 0.638636
Si Si6 0.778841 0.505294 0.708359
Si Si7 0.097106 0.319602 0.433730
O O1 0.924952 0.145742 0.883887
O O2 0.005991 0.195853 0.741897
O O3 0.675033 0.179451 0.759309
O O4 0.823137 0.062918 0.761641
O O5 0.244093 0.471274 0.609604
O O6 0.196888 0.384625 0.473385
O O7 0.000000 0.500000 0.490885
O O8 0.957161 0.405143 0.595552
O O9 0.635650 0.750676 0.983378
O O10 0.881609 0.662669 0.947052
O O11 0.630847 0.636191 0.060869
O O12 0.137353 0.303786 0.172889
O O13 0.119463 0.297196 0.336712
O O14 0.212260 0.072514 0.708279
O O15 0.000000 0.500000 0.731189
#
# Coordination Sequence:
#
# PCOD9376212 Si02
#       7
#     8   8   8   8   8   8   8
#     4  10  19  34  51  79 102 138 162 218 250 313
#     4   8  15  29  46  71 100 125 164 212 253 288
#     4   9  19  31  50  74 110 128 171 203 263 296
#     4  10  19  31  51  75 106 129 175 202 262 294
#     4   9  17  31  47  74 100 133 162 220 241 304
#     4   9  16  31  50  73 103 125 174 209 252 289
#     4   9  18  32  46  77 102 135 165 211 248 310
#
# _framework density 24.972304000000001
#
# number of rings (size 3 to 8) (size 9 to 14) (size 15 to 20)
#    0.000    3.143    2.857    0.000    2.000    0.000 
#   10.286    0.714    0.000    0.857    3.714    3.000 
#    0.000    0.000    0.000    0.000    0.000    0.000 
#
# Total GULP energy -156103.457814 kJ/mol
# GULP energy per Si atom -5575.123493 kJ/mol
# Density = 2.491547 g / cm^3
# Si number density = 24.972304 Si / 1000 Ang^3
#
#
#
# Elastic Constant Matrix: (Units=GPa)
#
#
# Indices 1 2 3 4 5 6 
#
# 1 67.3729 -9.9778 -3.6053 0.0000 0.0000 0.0000
# 2 -9.9778 170.2692 35.7960 -0.0001 0.0000 0.0000
# 3 -3.6053 35.7960 38.6054 -0.0004 -0.0002 0.0000
# 4 0.0000 -0.0001 -0.0004 829.3288 0.0007 0.0000
# 5 0.0000 0.0000 -0.0002 0.0007 -106.9479 0.0000
# 6 0.0000 0.0000 0.0000 0.0000 0.0000 27.5382
#
#
#
# Elastic Compliance Matrix: (Units=1/GPa)
#
#
# Indices 1 2 3 4 5 6 
#
# 1 0.014989 0.000726 0.000727 0.000000 0.000000 0.000000
# 2 0.000726 0.007330 -0.006729 0.000000 0.000000 0.000000
# 3 0.000727 -0.006729 0.032210 0.000000 0.000000 0.000000
# 4 0.000000 0.000000 0.000000 0.001206 0.000000 0.000000
# 5 0.000000 0.000000 0.000000 0.000000 -0.009350 0.000000
# 6 0.000000 0.000000 0.000000 0.000000 0.000000 0.036313
#
#
# Mechanical properties :
#
#
# Convention : Reuss Voigt Hill
#
# Bulk Modulus (GPa) = 22.73926 35.63039 29.18482
# Shear Modulus (GPa) = 46.33487 166.91945 106.62716
#
# Velocity S-wave (km/s) = 4.31217 8.18455 6.54147
# Velocity P-wave (km/s) = 5.82397 10.17914 8.29257
#
# Compressibility (1/GPa) = 0.04397681
#
# Stress axis : x y z
#
# Youngs Moduli (GPa) = 66.71509 136.42143 31.04592
#
# Poissons Ratio (x) = -0.09897 -0.02257
# Poissons Ratio (y) = -0.04840 0.20891
# Poissons Ratio (z) = -0.04851 0.91798
#
# Static dielectric constant tensor:
#      x y z
#    x 2.163550 0.000000 0.000000 
#    y 0.000000 1.387730 0.000000 
#    z 0.000000 0.000000 2.055150 
# 
# From -- ./inp_files/7730.got.cif
#   From: 2010.05.17/outbox.cif.g08.bks.cpg/sg45_4_cif.got.tgz:7730.got - 2010.06.03 19:51:22.
