data_PCOD9376618
_publ_section_title
;
Structure prediction by ZEFSAII (Michael W. Deem and Ramdas Pophale) SiO2 
 PCOD9376618
Probable space group: I B A 2
;
_chemical_formula_sum "Si O2"
_cell_formula_units_Z 48
_cell_length_a 15.263090
_cell_length_b 9.569882
_cell_length_c 13.830697
_cell_angle_alpha 90.000000
_cell_angle_beta 90.000000
_cell_angle_gamma 90.000000
_cell_volume 2020.194177
_symmetry_space_group_name_H-M "I B A 2"
_symmetry_group_IT_number 45
_symmetry_cell_setting 'orthorhombic'
loop_
_space_group_symop_operation_xyz
x,y,z
-x,-y,z
-x,y,1/2+z
x,-y,1/2+z
1/2+x,1/2+y,1/2+z
1/2-x,1/2-y,1/2+z
1/2-x,1/2+y,z
1/2+x,1/2-y,z
loop_
_atom_site_type_symbol
_atom_site_label
_atom_site_fract_x
_atom_site_fract_y
_atom_site_fract_z
Si Si1 0.551100 0.368031 0.243490
Si Si2 0.662616 0.379012 0.005279
Si Si3 0.399684 0.331496 0.947715
Si Si4 0.746852 0.939768 0.190476
Si Si5 0.979971 0.336363 0.583039
Si Si6 0.255583 0.295811 0.315041
O O1 0.500000 0.500000 0.204086
O O2 0.536507 0.355053 0.357108
O O3 0.652397 0.403740 0.220510
O O4 0.523036 0.228761 0.189511
O O5 0.746264 0.407020 0.076540
O O6 0.607424 0.241112 0.036653
O O7 0.613452 0.527257 0.008108
O O8 0.683541 0.371243 0.891915
O O9 0.314588 0.271597 0.890659
O O10 0.441137 0.223389 0.020130
O O11 0.696801 0.823697 0.252969
O O12 0.723705 0.090837 0.234692
O O13 0.000000 0.500000 0.585829
#
# Coordination Sequence:
#
# PCOD9376618 Si02
#       6
#     8   8   8   8   8   8
#     4  10  20  44  69  91 132 175 233 278 350 427
#     4  11  23  46  71  95 141 189 234 286 360 438
#     4  11  24  44  69 100 132 184 231 284 354 427
#     4  10  24  40  65 100 133 182 229 290 347 427
#     4  11  25  41  67 104 134 176 231 297 356 419
#     4  11  23  43  64 101 137 181 233 285 357 423
#
# _framework density 23.760090999999999
#
# number of rings (size 3 to 8) (size 9 to 14) (size 15 to 20)
#    0.000    1.333    3.333    3.500    4.667    0.667 
#    6.000    0.000    0.000    0.000    0.000    0.000 
#    0.000    0.000    0.000    0.000    0.000    0.000 
#
# Total GULP energy -133898.495451 kJ/mol
# GULP energy per Si atom -5579.103977 kJ/mol
# Density = 2.370601 g / cm^3
# Si number density = 23.760091 Si / 1000 Ang^3
#
#
#
# Elastic Constant Matrix: (Units=GPa)
#
#
# Indices 1 2 3 4 5 6 
#
# 1 43.8027 12.2519 11.0141 0.0000 0.0000 0.0000
# 2 12.2519 179.7494 43.3594 0.0000 0.0000 0.0000
# 3 11.0141 43.3594 117.1903 0.0000 0.0000 0.0000
# 4 0.0000 0.0000 0.0000 30.2496 0.0000 0.0000
# 5 0.0000 0.0000 0.0000 0.0000 19.4024 0.0000
# 6 0.0000 0.0000 0.0000 0.0000 0.0000 28.9624
#
#
#
# Elastic Compliance Matrix: (Units=1/GPa)
#
#
# Indices 1 2 3 4 5 6 
#
# 1 0.023608 -0.001179 -0.001782 0.000000 0.000000 0.000000
# 2 -0.001179 0.006167 -0.002171 0.000000 0.000000 0.000000
# 3 -0.001782 -0.002171 0.009504 0.000000 0.000000 0.000000
# 4 0.000000 0.000000 0.000000 0.033058 0.000000 0.000000
# 5 0.000000 0.000000 0.000000 0.000000 0.051540 0.000000
# 6 0.000000 0.000000 0.000000 0.000000 0.000000 0.034527
#
#
# Mechanical properties :
#
#
# Convention : Reuss Voigt Hill
#
# Bulk Modulus (GPa) = 34.46660 52.66592 43.56626
# Shear Modulus (GPa) = 28.03611 33.99734 31.01672
#
# Velocity S-wave (km/s) = 3.43879 3.78677 3.61697
# Velocity P-wave (km/s) = 5.50496 6.42910 5.98490
#
# Compressibility (1/GPa) = 0.02901359
#
# Stress axis : x y z
#
# Youngs Moduli (GPa) = 42.35909 162.14338 105.21958
#
# Poissons Ratio (x) = 0.19119 0.18755
# Poissons Ratio (y) = 0.04995 0.22844
# Poissons Ratio (z) = 0.07550 0.35202
#
# Static dielectric constant tensor:
#      x y z
#    x 2.089740 0.000000 0.000000 
#    y 0.000000 2.028270 0.000000 
#    z 0.000000 0.000000 1.939820 
# 
# From -- ./inp_files/5617.got.cif
#   From: 2010.05.17/outbox.cif.g08.bks.cpg/sg45_3_cif.got.tgz:5617.got - 2010.06.03 19:51:22.
