data_PCOD9376531
_publ_section_title
;
Structure prediction by ZEFSAII (Michael W. Deem and Ramdas Pophale) SiO2 
 PCOD9376531
Probable space group: I B A 2
;
_chemical_formula_sum "Si O2"
_cell_formula_units_Z 36
_cell_length_a 8.715226
_cell_length_b 12.990834
_cell_length_c 13.869292
_cell_angle_alpha 90.000000
_cell_angle_beta 90.000000
_cell_angle_gamma 90.000000
_cell_volume 1570.254254
_symmetry_space_group_name_H-M "I B A 2"
_symmetry_group_IT_number 45
_symmetry_cell_setting 'orthorhombic'
loop_
_space_group_symop_operation_xyz
x,y,z
-x,-y,z
-x,y,1/2+z
x,-y,1/2+z
1/2+x,1/2+y,1/2+z
1/2-x,1/2-y,1/2+z
1/2-x,1/2+y,z
1/2+x,1/2-y,z
loop_
_atom_site_type_symbol
_atom_site_label
_atom_site_fract_x
_atom_site_fract_y
_atom_site_fract_z
Si Si1 0.079450 0.662893 0.173600
Si Si2 0.091556 0.822718 0.340771
Si Si3 0.619473 0.787784 0.969253
Si Si4 0.717010 0.966941 0.730185
Si Si5 0.000000 0.500000 0.405031
O O1 0.107161 0.725048 0.270756
O O2 0.200374 0.568223 0.165520
O O3 0.907615 0.614631 0.186231
O O4 0.106780 0.734975 0.081713
O O5 0.218185 0.819259 0.425013
O O6 0.127627 0.914610 0.266361
O O7 0.937144 0.803819 0.399920
O O8 0.515917 0.892515 0.960601
O O9 0.641560 0.002383 0.831411
#
# Coordination Sequence:
#
# PCOD9376531 Si02
#       5
#     8   8   8   8   4
#     4  10  20  39  61  88 120 168 209 250 314 391
#     4  11  21  38  59  96 123 154 214 271 310 374
#     4  11  22  35  65  88 122 162 214 257 313 382
#     4   9  18  37  63  84 117 163 204 257 298 381
#     4   8  14  36  54  82 104 158 204 234 288 376
#
# _framework density 22.926223
#
# number of rings (size 3 to 8) (size 9 to 14) (size 15 to 20)
#    0.000    2.222    6.667    1.333    3.111    0.000 
#    0.000    1.111    0.000    0.000    0.000    0.000 
#    0.000    0.000    0.000    0.000    0.000    0.000 
#
# Total GULP energy -100273.725515 kJ/mol
# GULP energy per Si atom -5570.762529 kJ/mol
# Density = 2.287404 g / cm^3
# Si number density = 22.926223 Si / 1000 Ang^3
#
#
#
# Elastic Constant Matrix: (Units=GPa)
#
#
# Indices 1 2 3 4 5 6 
#
# 1 24.2072 10.7080 1.6227 0.0000 0.0000 0.0000
# 2 10.7080 50.3733 4.9452 0.0000 0.0000 0.0000
# 3 1.6227 4.9452 115.6440 0.0000 0.0000 0.0000
# 4 0.0000 0.0000 0.0000 8.0388 0.0000 0.0000
# 5 0.0000 0.0000 0.0000 0.0000 10.3989 0.0000
# 6 0.0000 0.0000 0.0000 0.0000 0.0000 29.8884
#
#
#
# Elastic Compliance Matrix: (Units=1/GPa)
#
#
# Indices 1 2 3 4 5 6 
#
# 1 0.045604 -0.009672 -0.000226 0.000000 0.000000 0.000000
# 2 -0.009672 0.021987 -0.000804 0.000000 0.000000 0.000000
# 3 -0.000226 -0.000804 0.008685 0.000000 0.000000 0.000000
# 4 0.000000 0.000000 0.000000 0.124396 0.000000 0.000000
# 5 0.000000 0.000000 0.000000 0.000000 0.096164 0.000000
# 6 0.000000 0.000000 0.000000 0.000000 0.000000 0.033458
#
#
# Mechanical properties :
#
#
# Convention : Reuss Voigt Hill
#
# Bulk Modulus (GPa) = 18.22498 24.97514 21.60006
# Shear Modulus (GPa) = 13.51394 21.19513 17.35454
#
# Velocity S-wave (km/s) = 2.43050 3.04385 2.75430
# Velocity P-wave (km/s) = 3.98034 4.82397 4.42232
#
# Compressibility (1/GPa) = 0.05486975
#
# Stress axis : x y z
#
# Youngs Moduli (GPa) = 21.92813 45.48194 115.14358
#
# Poissons Ratio (x) = 0.43990 0.02606
# Poissons Ratio (y) = 0.21209 0.09263
# Poissons Ratio (z) = 0.00496 0.03659
#
# Static dielectric constant tensor:
#      x y z
#    x 1.923550 0.000000 0.000000 
#    y 0.000000 1.988370 0.000000 
#    z 0.000000 0.000000 1.815200 
# 
# From -- ./inp_files/5418.got.cif
#   From: 2010.05.17/outbox.cif.g08.bks.cpg/sg45_3_cif.got.tgz:5418.got - 2010.06.03 19:51:22.
