data_PCOD9376899
_publ_section_title
;
Structure prediction by ZEFSAII (Michael W. Deem and Ramdas Pophale) SiO2 
 PCOD9376899
Probable space group: I B A 2
;
_chemical_formula_sum "Si O2"
_cell_formula_units_Z 40
_cell_length_a 7.947009
_cell_length_b 22.207541
_cell_length_c 9.287472
_cell_angle_alpha 90.000000
_cell_angle_beta 90.000000
_cell_angle_gamma 90.000000
_cell_volume 1639.085827
_symmetry_space_group_name_H-M "I B A 2"
_symmetry_group_IT_number 45
_symmetry_cell_setting 'orthorhombic'
loop_
_space_group_symop_operation_xyz
x,y,z
-x,-y,z
-x,y,1/2+z
x,-y,1/2+z
1/2+x,1/2+y,1/2+z
1/2-x,1/2-y,1/2+z
1/2-x,1/2+y,z
1/2+x,1/2-y,z
loop_
_atom_site_type_symbol
_atom_site_label
_atom_site_fract_x
_atom_site_fract_y
_atom_site_fract_z
Si Si1 0.072791 0.067021 0.683570
Si Si2 0.937854 0.565307 0.089083
Si Si3 0.887356 0.186085 0.663686
Si Si4 0.146145 0.616651 0.862498
Si Si5 0.306391 0.265415 0.345350
O O1 0.235179 0.928930 0.075838
O O2 0.931120 0.115850 0.646340
O O3 0.246305 0.799040 0.789731
O O4 0.000000 0.000000 0.690674
O O5 0.668509 0.412028 0.831917
O O6 0.055897 0.613133 0.012855
O O7 0.000000 0.500000 0.545557
O O8 0.966379 0.576321 0.257748
O O9 0.851342 0.219861 0.511702
O O10 0.055347 0.212971 0.733010
O O11 0.157860 0.685778 0.817729
#
# Coordination Sequence:
#
# PCOD9376899 Si02
#       5
#     8   8   8   8   8
#     4   9  23  49  75 112 156 203 254 330 392 472
#     4  10  21  44  72 107 148 198 252 308 396 474
#     4  11  25  51  73 114 149 208 259 324 394 470
#     4   9  23  43  70 108 144 198 250 315 386 466
#     4  11  25  49  75 104 154 199 261 318 392 463
#
# _framework density 24.403846000000001
#
# number of rings (size 3 to 8) (size 9 to 14) (size 15 to 20)
#    1.200    0.800    0.000    1.800    2.800    3.200 
#   14.400    0.000    0.000    1.200    0.000    0.000 
#    0.000    0.000    0.000    0.000    0.000    0.000 
#
# Total GULP energy -111528.397302 kJ/mol
# GULP energy per Si atom -5576.419865 kJ/mol
# Density = 2.434830 g / cm^3
# Si number density = 24.403846 Si / 1000 Ang^3
#
#
#
# Elastic Constant Matrix: (Units=GPa)
#
#
# Indices 1 2 3 4 5 6 
#
# 1 88.5955 66.9811 46.0194 0.0000 0.0004 -0.0001
# 2 66.9811 138.4519 55.5505 -0.0003 -0.0004 0.0000
# 3 46.0194 55.5505 125.2550 0.0000 -0.0009 -0.0002
# 4 0.0000 -0.0003 0.0000 13.9297 -0.0001 0.0000
# 5 0.0004 -0.0004 -0.0009 -0.0001 27.4505 0.0001
# 6 -0.0001 0.0000 -0.0002 0.0000 0.0001 44.9933
#
#
#
# Elastic Compliance Matrix: (Units=1/GPa)
#
#
# Indices 1 2 3 4 5 6 
#
# 1 0.019000 -0.007775 -0.003533 0.000000 0.000000 0.000000
# 2 -0.007775 0.011967 -0.002451 0.000000 0.000000 0.000000
# 3 -0.003533 -0.002451 0.010369 0.000000 0.000000 0.000000
# 4 0.000000 0.000000 0.000000 0.071789 0.000000 0.000000
# 5 0.000000 0.000000 0.000000 0.000000 0.036429 0.000000
# 6 0.000000 0.000000 0.000000 0.000000 0.000000 0.022226
#
#
# Mechanical properties :
#
#
# Convention : Reuss Voigt Hill
#
# Bulk Modulus (GPa) = 72.36200 76.60050 74.48125
# Shear Modulus (GPa) = 24.52142 29.52478 27.02310
#
# Velocity S-wave (km/s) = 3.17333 3.48205 3.33127
# Velocity P-wave (km/s) = 6.56833 6.90095 6.73669
#
# Compressibility (1/GPa) = 0.01381941
#
# Stress axis : x y z
#
# Youngs Moduli (GPa) = 52.63127 83.56031 96.44391
#
# Poissons Ratio (x) = 0.64965 0.34071
# Poissons Ratio (y) = 0.40919 0.23639
# Poissons Ratio (z) = 0.18593 0.20482
#
# Static dielectric constant tensor:
#      x y z
#    x 2.028560 0.000000 0.000000 
#    y 0.000000 1.998980 0.000000 
#    z 0.000000 0.000000 1.958420 
# 
# From -- ./inp_files/1266.got.cif
#   From: 2010.05.17/outbox.cif.g08.bks.cpg/sg45_1_cif.got.tgz:1266.got - 2010.06.03 19:51:22.
