data_PCOD9376563
_publ_section_title
;
Structure prediction by ZEFSAII (Michael W. Deem and Ramdas Pophale) SiO2 
 PCOD9376563
Probable space group: I B A 2
;
_chemical_formula_sum "Si O2"
_cell_formula_units_Z 60
_cell_length_a 8.472509
_cell_length_b 12.908491
_cell_length_c 24.574294
_cell_angle_alpha 90.000000
_cell_angle_beta 90.000000
_cell_angle_gamma 90.000000
_cell_volume 2687.624336
_symmetry_space_group_name_H-M "I B A 2"
_symmetry_group_IT_number 45
_symmetry_cell_setting 'orthorhombic'
loop_
_space_group_symop_operation_xyz
x,y,z
-x,-y,z
-x,y,1/2+z
x,-y,1/2+z
1/2+x,1/2+y,1/2+z
1/2-x,1/2-y,1/2+z
1/2-x,1/2+y,z
1/2+x,1/2-y,z
loop_
_atom_site_type_symbol
_atom_site_label
_atom_site_fract_x
_atom_site_fract_y
_atom_site_fract_z
Si Si1 0.000000 0.000000 0.055820
Si Si2 0.902726 0.345386 0.816226
Si Si3 0.680257 0.287484 0.417666
Si Si4 0.273834 0.843462 0.089065
Si Si5 0.747089 0.058957 0.828665
Si Si6 0.087990 0.202871 0.996149
Si Si7 0.439473 0.796040 0.657993
Si Si8 0.652617 0.672827 0.731415
O O1 0.095043 0.090620 0.023760
O O2 0.853609 0.063853 0.083375
O O3 0.900928 0.272540 0.868516
O O4 0.785060 0.438678 0.827833
O O5 0.844234 0.282170 0.764051
O O6 0.080526 0.387105 0.811626
O O7 0.717157 0.396687 0.388672
O O8 0.824273 0.218519 0.438816
O O9 0.588836 0.294646 0.474058
O O10 0.367027 0.797122 0.036585
O O11 0.411992 0.859387 0.134261
O O12 0.167269 0.747499 0.109451
O O13 0.865653 0.092622 0.780735
O O14 0.514131 0.695099 0.688533
O O15 0.313821 0.848022 0.698507
#
# Coordination Sequence:
#
# PCOD9376563 Si02
#       8
#     4   8   8   8   8   8   8   8
#     4  12  26  44  74  98 138 174 242 284 362 422
#     4  10  21  38  62  95 136 175 231 278 337 409
#     4  11  23  41  66  92 136 182 220 281 348 404
#     4  11  23  47  67  99 136 176 227 303 342 425
#     4  10  21  39  60  97 134 176 229 283 331 413
#     4  12  24  45  67  98 136 178 229 290 347 418
#     4  10  21  42  70  90 138 175 221 284 360 398
#     4  10  20  40  63  96 129 180 217 281 344 408
#
# _framework density 22.324548
#
# number of rings (size 3 to 8) (size 9 to 14) (size 15 to 20)
#    0.000    1.333    5.333    0.000    1.867    0.000 
#    4.800    4.667    0.000    0.000    0.000    0.000 
#    0.000    0.000    0.000    0.000    0.000    0.000 
#
# Total GULP energy -167163.118223 kJ/mol
# GULP energy per Si atom -5572.103941 kJ/mol
# Density = 2.227374 g / cm^3
# Si number density = 22.324548 Si / 1000 Ang^3
#
#
#
# Elastic Constant Matrix: (Units=GPa)
#
#
# Indices 1 2 3 4 5 6 
#
# 1 63.9641 9.6782 36.9875 0.0000 0.0000 0.0000
# 2 9.6782 66.7967 20.3314 0.0000 0.0000 0.0000
# 3 36.9875 20.3314 101.5908 0.0000 0.0000 0.0000
# 4 0.0000 0.0000 0.0000 16.5129 0.0000 0.0000
# 5 0.0000 0.0000 0.0000 0.0000 45.2427 0.0000
# 6 0.0000 0.0000 0.0000 0.0000 0.0000 26.1188
#
#
#
# Elastic Compliance Matrix: (Units=1/GPa)
#
#
# Indices 1 2 3 4 5 6 
#
# 1 0.019835 -0.000720 -0.007078 0.000000 0.000000 0.000000
# 2 -0.000720 0.015968 -0.002934 0.000000 0.000000 0.000000
# 3 -0.007078 -0.002934 0.013007 0.000000 0.000000 0.000000
# 4 0.000000 0.000000 0.000000 0.060559 0.000000 0.000000
# 5 0.000000 0.000000 0.000000 0.000000 0.022103 0.000000
# 6 0.000000 0.000000 0.000000 0.000000 0.000000 0.038287
#
#
# Mechanical properties :
#
#
# Convention : Reuss Voigt Hill
#
# Bulk Modulus (GPa) = 36.56480 40.70510 38.63495
# Shear Modulus (GPa) = 24.95790 28.59850 26.77820
#
# Velocity S-wave (km/s) = 3.34721 3.58304 3.46713
# Velocity P-wave (km/s) = 5.59935 5.94899 5.77682
#
# Compressibility (1/GPa) = 0.02734871
#
# Stress axis : x y z
#
# Youngs Moduli (GPa) = 50.41496 62.62525 76.87935
#
# Poissons Ratio (x) = 0.04507 0.54413
# Poissons Ratio (y) = 0.03628 0.22554
# Poissons Ratio (z) = 0.35682 0.18372
#
# Static dielectric constant tensor:
#      x y z
#    x 2.133930 0.000000 0.000000 
#    y 0.000000 1.794540 0.000000 
#    z 0.000000 0.000000 1.858430 
# 
# From -- ./inp_files/9576.got.cif
#   From: 2010.05.17/outbox.cif.g08.bks.cpg/sg45_5_cif.got.tgz:9576.got - 2010.06.03 19:51:22.
