data_PCOD9376682
_publ_section_title
;
Structure prediction by ZEFSAII (Michael W. Deem and Ramdas Pophale) SiO2 
 PCOD9376682
Probable space group: I B A 2
;
_chemical_formula_sum "Si O2"
_cell_formula_units_Z 32
_cell_length_a 17.953230
_cell_length_b 17.145211
_cell_length_c 4.961793
_cell_angle_alpha 90.000000
_cell_angle_beta 90.000000
_cell_angle_gamma 90.000000
_cell_volume 1527.299013
_symmetry_space_group_name_H-M "I B A 2"
_symmetry_group_IT_number 45
_symmetry_cell_setting 'orthorhombic'
loop_
_space_group_symop_operation_xyz
x,y,z
-x,-y,z
-x,y,1/2+z
x,-y,1/2+z
1/2+x,1/2+y,1/2+z
1/2-x,1/2-y,1/2+z
1/2-x,1/2+y,z
1/2+x,1/2-y,z
loop_
_atom_site_type_symbol
_atom_site_label
_atom_site_fract_x
_atom_site_fract_y
_atom_site_fract_z
Si Si1 0.905676 0.049625 0.070630
Si Si2 0.227288 0.550266 0.597929
Si Si3 0.205088 0.720051 0.383499
Si Si4 0.546479 0.722467 0.167836
O O1 0.816671 0.061608 0.090406
O O2 0.943594 0.129116 0.157472
O O3 0.922194 0.978236 0.270119
O O4 0.207356 0.480502 0.392742
O O5 0.197283 0.632804 0.498490
O O6 0.236483 0.771871 0.633750
O O7 0.125750 0.746576 0.267897
O O8 0.480877 0.745832 0.372307
#
# Coordination Sequence:
#
# PCOD9376682 Si02
#       4
#     8   8   8   8
#     4  10  21  37  59  88 126 169 208 248 308 389
#     4  10  21  38  64  95 122 158 215 274 317 370
#     4  12  24  42  69  94 125 173 221 270 321 382
#     4  12  26  41  60  92 132 170 209 261 325 385
#
# _framework density 20.952023000000001
#
# number of rings (size 3 to 8) (size 9 to 14) (size 15 to 20)
#    0.000    1.000    2.500    4.500    7.000    3.000 
#    0.000    0.000    0.000    4.500    0.000    0.000 
#    0.000    0.000    0.000    0.000    0.000    0.000 
#
# Total GULP energy -89509.863211 kJ/mol
# GULP energy per Si atom -5594.366451 kJ/mol
# Density = 2.090433 g / cm^3
# Si number density = 20.952023 Si / 1000 Ang^3
#
#
#
# Elastic Constant Matrix: (Units=GPa)
#
#
# Indices 1 2 3 4 5 6 
#
# 1 65.2961 28.3264 3.9925 0.0000 0.0000 0.0000
# 2 28.3264 75.5899 1.8046 0.0000 0.0000 0.0000
# 3 3.9925 1.8046 88.2920 0.0000 0.0000 0.0000
# 4 0.0000 0.0000 0.0000 30.1274 0.0000 0.0000
# 5 0.0000 0.0000 0.0000 0.0000 31.5259 0.0000
# 6 0.0000 0.0000 0.0000 0.0000 0.0000 34.0510
#
#
#
# Elastic Compliance Matrix: (Units=1/GPa)
#
#
# Indices 1 2 3 4 5 6 
#
# 1 0.018330 -0.006852 -0.000689 0.000000 0.000000 0.000000
# 2 -0.006852 0.015797 -0.000013 0.000000 0.000000 0.000000
# 3 -0.000689 -0.000013 0.011357 0.000000 0.000000 0.000000
# 4 0.000000 0.000000 0.000000 0.033192 0.000000 0.000000
# 5 0.000000 0.000000 0.000000 0.000000 0.031720 0.000000
# 6 0.000000 0.000000 0.000000 0.000000 0.000000 0.029368
#
#
# Mechanical properties :
#
#
# Convention : Reuss Voigt Hill
#
# Bulk Modulus (GPa) = 32.92055 33.04721 32.98388
# Shear Modulus (GPa) = 30.30334 32.14449 31.22391
#
# Velocity S-wave (km/s) = 3.80718 3.92113 3.86457
# Velocity P-wave (km/s) = 5.92221 6.02556 5.97411
#
# Compressibility (1/GPa) = 0.03037617
#
# Stress axis : x y z
#
# Youngs Moduli (GPa) = 54.55653 63.30143 88.04782
#
# Poissons Ratio (x) = 0.43376 0.06065
# Poissons Ratio (y) = 0.37384 0.00115
# Poissons Ratio (z) = 0.03758 0.00082
#
# Static dielectric constant tensor:
#      x y z
#    x 1.771210 0.000000 0.000000 
#    y 0.000000 1.725940 0.000000 
#    z 0.000000 0.000000 1.753670 
# 
# From -- ./inp_files/10.got.cif
#   From: 2010.05.17/outbox.cif.g08.bks.cpg/sg45_1_cif.got.tgz:10.got - 2010.06.03 19:51:22.
