data_PCOD9376328
_publ_section_title
;
Structure prediction by ZEFSAII (Michael W. Deem and Ramdas Pophale) SiO2 
 PCOD9376328
Probable space group: I B A 2
;
_chemical_formula_sum "Si O2"
_cell_formula_units_Z 40
_cell_length_a 14.170323
_cell_length_b 8.692559
_cell_length_c 12.821788
_cell_angle_alpha 90.000000
_cell_angle_beta 90.000000
_cell_angle_gamma 90.000000
_cell_volume 1579.341286
_symmetry_space_group_name_H-M "I B A 2"
_symmetry_group_IT_number 45
_symmetry_cell_setting 'orthorhombic'
loop_
_space_group_symop_operation_xyz
x,y,z
-x,-y,z
-x,y,1/2+z
x,-y,1/2+z
1/2+x,1/2+y,1/2+z
1/2-x,1/2-y,1/2+z
1/2-x,1/2+y,z
1/2+x,1/2-y,z
loop_
_atom_site_type_symbol
_atom_site_label
_atom_site_fract_x
_atom_site_fract_y
_atom_site_fract_z
Si Si1 0.628392 0.225778 0.264770
Si Si2 0.500000 0.500000 0.784661
Si Si3 0.256393 0.924181 0.546749
Si Si4 0.385128 0.197776 0.514713
Si Si5 0.172709 0.170552 0.693123
Si Si6 0.000000 0.500000 0.878538
O O1 0.581408 0.376011 0.319237
O O2 0.605757 0.218612 0.139420
O O3 0.742521 0.221950 0.269894
O O4 0.583103 0.068151 0.307587
O O5 0.430540 0.629019 0.732537
O O6 0.171387 0.849259 0.482470
O O7 0.322134 0.793444 0.598293
O O8 0.317333 0.052987 0.493184
O O9 0.209348 0.012626 0.643076
O O10 0.474871 0.144937 0.452050
#
# Coordination Sequence:
#
# PCOD9376328 Si02
#       6
#     8   4   8   8   8   4
#     4  10  25  44  65 103 137 183 236 292 344 420
#     4  12  22  40  76 100 130 192 242 280 362 422
#     4   8  18  38  65  97 134 169 228 282 348 395
#     4  10  21  44  66  98 132 187 220 291 344 418
#     4  10  19  39  67 103 128 179 226 294 338 414
#     4  12  26  42  66 100 146 184 232 278 358 424
#
# _framework density 25.327014999999999
#
# number of rings (size 3 to 8) (size 9 to 14) (size 15 to 20)
#    0.000    2.400    4.000    0.600    8.400    0.000 
#    7.200    3.000    0.000    0.000    0.000    0.000 
#    0.000    0.000    0.000    0.000    0.000    0.000 
#
# Total GULP energy -111477.153865 kJ/mol
# GULP energy per Si atom -5573.857693 kJ/mol
# Density = 2.526937 g / cm^3
# Si number density = 25.327015 Si / 1000 Ang^3
#
#
#
# Elastic Constant Matrix: (Units=GPa)
#
#
# Indices 1 2 3 4 5 6 
#
# 1 121.5524 30.4379 17.4393 0.0000 0.0000 0.0000
# 2 30.4379 128.7538 13.4614 0.0000 0.0000 0.0000
# 3 17.4393 13.4614 68.1734 0.0000 0.0000 0.0000
# 4 0.0000 0.0000 0.0000 9.8461 0.0000 0.0000
# 5 0.0000 0.0000 0.0000 0.0000 12.0977 0.0000
# 6 0.0000 0.0000 0.0000 0.0000 0.0000 48.0183
#
#
#
# Elastic Compliance Matrix: (Units=1/GPa)
#
#
# Indices 1 2 3 4 5 6 
#
# 1 0.008984 -0.001923 -0.001918 0.000000 0.000000 0.000000
# 2 -0.001923 0.008342 -0.001155 0.000000 0.000000 0.000000
# 3 -0.001918 -0.001155 0.015387 0.000000 0.000000 0.000000
# 4 0.000000 0.000000 0.000000 0.101563 0.000000 0.000000
# 5 0.000000 0.000000 0.000000 0.000000 0.082661 0.000000
# 6 0.000000 0.000000 0.000000 0.000000 0.000000 0.020825
#
#
# Mechanical properties :
#
#
# Convention : Reuss Voigt Hill
#
# Bulk Modulus (GPa) = 44.01489 49.01743 46.51616
# Shear Modulus (GPa) = 19.58259 31.13515 25.35887
#
# Velocity S-wave (km/s) = 2.78365 3.50998 3.16770
# Velocity P-wave (km/s) = 5.26763 5.98518 5.63783
#
# Compressibility (1/GPa) = 0.02271958
#
# Stress axis : x y z
#
# Youngs Moduli (GPa) = 111.31238 119.87242 64.98855
#
# Poissons Ratio (x) = 0.23054 0.12467
# Poissons Ratio (y) = 0.21408 0.07508
# Poissons Ratio (z) = 0.21354 0.13848
#
# Static dielectric constant tensor:
#      x y z
#    x 2.101880 0.000000 0.000000 
#    y 0.000000 1.999310 0.000000 
#    z 0.000000 0.000000 2.039100 
# 
# From -- ./inp_files/5489.got.cif
#   From: 2010.05.17/outbox.cif.g08.bks.cpg/sg45_3_cif.got.tgz:5489.got - 2010.06.03 19:51:22.
