data_PCOD9376419
_publ_section_title
;
Structure prediction by ZEFSAII (Michael W. Deem and Ramdas Pophale) SiO2 
 PCOD9376419
Probable space group: I B A 2
;
_chemical_formula_sum "Si O2"
_cell_formula_units_Z 60
_cell_length_a 14.511326
_cell_length_b 17.516540
_cell_length_c 10.102066
_cell_angle_alpha 90.000000
_cell_angle_beta 90.000000
_cell_angle_gamma 90.000000
_cell_volume 2567.826198
_symmetry_space_group_name_H-M "I B A 2"
_symmetry_group_IT_number 45
_symmetry_cell_setting 'orthorhombic'
loop_
_space_group_symop_operation_xyz
x,y,z
-x,-y,z
-x,y,1/2+z
x,-y,1/2+z
1/2+x,1/2+y,1/2+z
1/2-x,1/2-y,1/2+z
1/2-x,1/2+y,z
1/2+x,1/2-y,z
loop_
_atom_site_type_symbol
_atom_site_label
_atom_site_fract_x
_atom_site_fract_y
_atom_site_fract_z
Si Si1 0.249858 0.831577 0.589500
Si Si2 0.500000 0.000000 0.502181
Si Si3 0.947709 0.121476 0.610703
Si Si4 0.343529 0.922006 0.355141
Si Si5 0.595064 0.861035 0.596110
Si Si6 0.430696 0.398491 0.893671
Si Si7 0.770438 0.590923 0.872974
Si Si8 0.428956 0.741784 0.550591
O O1 0.139615 0.824796 0.577265
O O2 0.282927 0.889160 0.475174
O O3 0.261916 0.863337 0.737012
O O4 0.324571 0.765226 0.573850
O O5 0.554926 0.059707 0.412248
O O6 0.435778 0.050020 0.594256
O O7 0.929705 0.075298 0.742546
O O8 0.981619 0.078493 0.480452
O O9 0.035865 0.173939 0.644591
O O10 0.352607 0.860169 0.237167
O O11 0.305817 0.007199 0.331112
O O12 0.662711 0.861985 0.470380
O O13 0.504432 0.808524 0.575164
O O14 0.328716 0.418712 0.943630
O O15 0.434833 0.304717 0.911024
#
# Coordination Sequence:
#
# PCOD9376419 Si02
#       8
#     8   4   8   8   8   8   8   8
#     4  11  23  41  63  92 128 164 208 269 322 388
#     4  10  20  36  54  86 128 164 200 258 316 394
#     4   9  23  41  62  89 123 164 214 262 316 383
#     4  11  23  38  63  93 127 167 214 261 324 388
#     4  11  23  34  61  94 126 165 211 260 325 390
#     4   9  22  42  62  88 123 168 213 262 314 385
#     4  10  23  42  62  89 131 168 208 264 325 391
#     4  10  24  37  63  90 126 167 208 262 321 386
#
# _framework density 23.366067999999999
#
# number of rings (size 3 to 8) (size 9 to 14) (size 15 to 20)
#    0.800    1.067    1.333    2.000    9.333    1.067 
#    2.400    0.667    0.000    3.200    0.000    0.000 
#    0.000    0.000    0.000    0.000    0.000    0.000 
#
# Total GULP energy -167079.950113 kJ/mol
# GULP energy per Si atom -5569.331670 kJ/mol
# Density = 2.331289 g / cm^3
# Si number density = 23.366068 Si / 1000 Ang^3
#
#
#
# Elastic Constant Matrix: (Units=GPa)
#
#
# Indices 1 2 3 4 5 6 
#
# 1 113.0979 14.7045 25.7843 0.0000 0.0000 0.0000
# 2 14.7045 41.0514 -6.2023 0.0000 0.0000 0.0000
# 3 25.7843 -6.2023 74.3977 0.0000 0.0000 0.0000
# 4 0.0000 0.0000 0.0000 -0.2879 0.0000 0.0000
# 5 0.0000 0.0000 0.0000 0.0000 108.3008 0.0000
# 6 0.0000 0.0000 0.0000 0.0000 0.0000 27.4590
#
#
#
# Elastic Compliance Matrix: (Units=1/GPa)
#
#
# Indices 1 2 3 4 5 6 
#
# 1 0.010293 -0.004280 -0.003924 0.000000 0.000000 0.000000
# 2 -0.004280 0.026450 0.003688 0.000000 0.000000 0.000000
# 3 -0.003924 0.003688 0.015109 0.000000 0.000000 0.000000
# 4 0.000000 0.000000 0.000000 -3.473495 0.000000 0.000000
# 5 0.000000 0.000000 0.000000 0.000000 0.009234 0.000000
# 6 0.000000 0.000000 0.000000 0.000000 0.000000 0.036418
#
#
# Mechanical properties :
#
#
# Convention : Reuss Voigt Hill
#
# Bulk Modulus (GPa) = 23.35326 33.01334 28.18330
# Shear Modulus (GPa) = -1.49134 40.04506 19.27686
#
# Velocity S-wave (km/s) = -0.79977 4.14431 2.87539
# Velocity P-wave (km/s) = 3.02711 6.08768 4.80745
#
# Compressibility (1/GPa) = 0.04282057
#
# Stress axis : x y z
#
# Youngs Moduli (GPa) = 97.15388 37.80725 66.18686
#
# Poissons Ratio (x) = 0.16181 0.25972
# Poissons Ratio (y) = 0.41580 -0.24412
# Poissons Ratio (z) = 0.38124 -0.13944
#
# Static dielectric constant tensor:
#      x y z
#    x 1.794510 0.000000 0.000000 
#    y 0.000000 1.954650 0.000000 
#    z 0.000000 0.000000 1.943840 
# 
# From -- ./inp_files/1908.got.cif
#   From: 2010.05.17/outbox.cif.g08.bks.cpg/sg45_1_cif.got.tgz:1908.got - 2010.06.03 19:51:22.
