data_PCOD9376853
_publ_section_title
;
Structure prediction by ZEFSAII (Michael W. Deem and Ramdas Pophale) SiO2 
 PCOD9376853
Probable space group: I B A 2
;
_chemical_formula_sum "Si O2"
_cell_formula_units_Z 40
_cell_length_a 17.924132
_cell_length_b 8.282812
_cell_length_c 13.174930
_cell_angle_alpha 90.000000
_cell_angle_beta 90.000000
_cell_angle_gamma 90.000000
_cell_volume 1955.979298
_symmetry_space_group_name_H-M "I B A 2"
_symmetry_group_IT_number 45
_symmetry_cell_setting 'orthorhombic'
loop_
_space_group_symop_operation_xyz
x,y,z
-x,-y,z
-x,y,1/2+z
x,-y,1/2+z
1/2+x,1/2+y,1/2+z
1/2-x,1/2-y,1/2+z
1/2-x,1/2+y,z
1/2+x,1/2-y,z
loop_
_atom_site_type_symbol
_atom_site_label
_atom_site_fract_x
_atom_site_fract_y
_atom_site_fract_z
Si Si1 0.189305 0.836154 0.990790
Si Si2 0.320395 0.167372 0.333940
Si Si3 0.570076 0.883762 0.501655
Si Si4 0.075142 0.932685 0.384165
Si Si5 0.308353 0.977247 0.618573
O O1 0.249950 0.790230 0.904131
O O2 0.122088 0.927482 0.937332
O O3 0.168114 0.682234 0.056785
O O4 0.233992 0.955074 0.066771
O O5 0.377020 0.066344 0.405812
O O6 0.368347 0.329822 0.313692
O O7 0.298998 0.071635 0.234412
O O8 0.551918 0.700244 0.470000
O O9 0.500000 0.000000 0.511683
O O10 0.624902 0.896295 0.597980
O O11 0.000000 0.000000 0.335355
#
# Coordination Sequence:
#
# PCOD9376853 Si02
#       5
#     8   8   8   8   8
#     4  11  21  40  62  92 124 167 213 273 320 386
#     4   9  23  37  62  92 123 166 216 257 330 379
#     4   9  20  39  59  90 124 169 204 265 330 387
#     4  10  21  42  63  90 128 169 211 266 335 379
#     4  11  21  36  64  90 126 165 223 260 322 399
#
# _framework density 20.450115
#
# number of rings (size 3 to 8) (size 9 to 14) (size 15 to 20)
#    1.200    0.800    2.000    1.200    2.800    0.800 
#    0.000    3.000    4.400    0.000    0.000    0.000 
#    0.000    0.000    0.000    0.000    0.000    0.000 
#
# Total GULP energy -111497.823330 kJ/mol
# GULP energy per Si atom -5574.891167 kJ/mol
# Density = 2.040357 g / cm^3
# Si number density = 20.450115 Si / 1000 Ang^3
#
#
#
# Elastic Constant Matrix: (Units=GPa)
#
#
# Indices 1 2 3 4 5 6 
#
# 1 91.2409 3.9995 6.8704 0.0000 0.0000 0.0000
# 2 3.9995 43.5188 -4.1893 0.0000 0.0000 0.0000
# 3 6.8704 -4.1893 71.7570 0.0000 0.0000 0.0000
# 4 0.0000 0.0000 0.0000 21.5263 0.0000 0.0000
# 5 0.0000 0.0000 0.0000 0.0000 7.5867 0.0000
# 6 0.0000 0.0000 0.0000 0.0000 0.0000 29.4780
#
#
#
# Elastic Compliance Matrix: (Units=1/GPa)
#
#
# Indices 1 2 3 4 5 6 
#
# 1 0.011094 -0.001128 -0.001128 0.000000 0.000000 0.000000
# 2 -0.001128 0.023223 0.001464 0.000000 0.000000 0.000000
# 3 -0.001128 0.001464 0.014129 0.000000 0.000000 0.000000
# 4 0.000000 0.000000 0.000000 0.046455 0.000000 0.000000
# 5 0.000000 0.000000 0.000000 0.000000 0.131810 0.000000
# 6 0.000000 0.000000 0.000000 0.000000 0.000000 0.033924
#
#
# Mechanical properties :
#
#
# Convention : Reuss Voigt Hill
#
# Bulk Modulus (GPa) = 21.33925 24.43089 22.88507
# Shear Modulus (GPa) = 17.99592 25.04061 21.51826
#
# Velocity S-wave (km/s) = 2.96968 3.50304 3.24733
# Velocity P-wave (km/s) = 4.71340 5.32299 5.02744
#
# Compressibility (1/GPa) = 0.04686200
#
# Stress axis : x y z
#
# Youngs Moduli (GPa) = 90.13555 43.06041 70.77445
#
# Poissons Ratio (x) = 0.04858 0.07984
# Poissons Ratio (y) = 0.10169 -0.10360
# Poissons Ratio (z) = 0.10168 -0.06303
#
# Static dielectric constant tensor:
#      x y z
#    x 1.731450 0.000000 0.000000 
#    y 0.000000 1.786090 0.000000 
#    z 0.000000 0.000000 1.700590 
# 
# From -- ./inp_files/3216.got.cif
#   From: 2010.05.17/outbox.cif.g08.bks.cpg/sg45_2_cif.got.tgz:3216.got - 2010.06.03 19:51:22.
