data_PCOD9376568
_publ_section_title
;
Structure prediction by ZEFSAII (Michael W. Deem and Ramdas Pophale) SiO2 
 PCOD9376568
Probable space group: I B A 2
;
_chemical_formula_sum "Si O2"
_cell_formula_units_Z 60
_cell_length_a 16.211566
_cell_length_b 18.427096
_cell_length_c 7.794031
_cell_angle_alpha 90.000000
_cell_angle_beta 90.000000
_cell_angle_gamma 90.000000
_cell_volume 2328.327116
_symmetry_space_group_name_H-M "I B A 2"
_symmetry_group_IT_number 45
_symmetry_cell_setting 'orthorhombic'
loop_
_space_group_symop_operation_xyz
x,y,z
-x,-y,z
-x,y,1/2+z
x,-y,1/2+z
1/2+x,1/2+y,1/2+z
1/2-x,1/2-y,1/2+z
1/2-x,1/2+y,z
1/2+x,1/2-y,z
loop_
_atom_site_type_symbol
_atom_site_label
_atom_site_fract_x
_atom_site_fract_y
_atom_site_fract_z
Si Si1 0.000000 0.000000 0.276220
Si Si2 0.018905 0.747916 0.045497
Si Si3 0.786007 0.361366 0.262658
Si Si4 0.865996 0.223213 0.373289
Si Si5 0.162533 0.074513 0.710209
Si Si6 0.897139 0.129600 0.838783
Si Si7 0.843169 0.490490 0.713509
Si Si8 0.906747 0.394012 0.979620
O O1 0.963415 0.919048 0.235931
O O2 0.092696 0.968940 0.317312
O O3 0.070683 0.793592 0.906563
O O4 0.020307 0.662617 0.998315
O O5 0.926344 0.778656 0.035910
O O6 0.068247 0.758229 0.221268
O O7 0.805992 0.291918 0.377435
O O8 0.689377 0.368363 0.244398
O O9 0.824793 0.436829 0.331140
O O10 0.829837 0.354849 0.076892
O O11 0.824269 0.149347 0.312540
O O12 0.122260 0.091108 0.524876
O O13 0.248371 0.033146 0.679181
O O14 0.886000 0.420177 0.791102
O O15 0.903974 0.529266 0.579040
#
# Coordination Sequence:
#
# PCOD9376568 Si02
#       8
#     4   8   8   8   8   8   8   8
#     4  12  20  38  62  98 128 178 214 262 344 398
#     4  10  22  44  63  92 135 173 225 277 330 409
#     4   9  21  39  64  90 130 169 218 272 331 403
#     4  10  22  45  63  94 129 178 222 277 331 405
#     4  11  23  37  63  94 132 167 216 270 334 401
#     4  11  22  39  62  96 135 173 219 275 329 414
#     4  10  20  40  65  92 127 167 214 282 329 398
#     4   9  21  41  66  90 130 167 225 278 335 401
#
# _framework density 25.769575
#
# number of rings (size 3 to 8) (size 9 to 14) (size 15 to 20)
#    0.800    1.067    2.667    1.200    1.867    0.000 
#    9.600    0.667    2.933    0.000    0.000    0.000 
#    0.000    0.000    0.000    0.000    0.000    0.000 
#
# Total GULP energy -167113.746325 kJ/mol
# GULP energy per Si atom -5570.458211 kJ/mol
# Density = 2.571092 g / cm^3
# Si number density = 25.769575 Si / 1000 Ang^3
#
#
#
# Elastic Constant Matrix: (Units=GPa)
#
#
# Indices 1 2 3 4 5 6 
#
# 1 62.3418 32.2302 18.0644 0.0000 0.0000 0.0000
# 2 32.2302 122.7411 19.9518 0.0000 0.0000 0.0000
# 3 18.0644 19.9518 42.3973 0.0000 0.0000 0.0000
# 4 0.0000 0.0000 0.0000 21.1835 0.0000 0.0000
# 5 0.0000 0.0000 0.0000 0.0000 19.7761 0.0000
# 6 0.0000 0.0000 0.0000 0.0000 0.0000 41.8898
#
#
#
# Elastic Compliance Matrix: (Units=1/GPa)
#
#
# Indices 1 2 3 4 5 6 
#
# 1 0.020130 -0.004214 -0.006594 0.000000 0.000000 0.000000
# 2 -0.004214 0.009704 -0.002771 0.000000 0.000000 0.000000
# 3 -0.006594 -0.002771 0.027700 0.000000 0.000000 0.000000
# 4 0.000000 0.000000 0.000000 0.047207 0.000000 0.000000
# 5 0.000000 0.000000 0.000000 0.000000 0.050566 0.000000
# 6 0.000000 0.000000 0.000000 0.000000 0.000000 0.023872
#
#
# Mechanical properties :
#
#
# Convention : Reuss Voigt Hill
#
# Bulk Modulus (GPa) = 32.92067 40.88588 36.90328
# Shear Modulus (GPa) = 23.09871 27.05212 25.07542
#
# Velocity S-wave (km/s) = 2.99717 3.24353 3.12278
# Velocity P-wave (km/s) = 4.97796 5.47062 5.23010
#
# Compressibility (1/GPa) = 0.03037605
#
# Stress axis : x y z
#
# Youngs Moduli (GPa) = 49.67755 103.04770 36.10119
#
# Poissons Ratio (x) = 0.43424 0.23804
# Poissons Ratio (y) = 0.20934 0.10005
# Poissons Ratio (z) = 0.32756 0.28557
#
# Static dielectric constant tensor:
#      x y z
#    x 1.955710 0.000000 0.000000 
#    y 0.000000 2.075210 0.000000 
#    z 0.000000 0.000000 2.195560 
# 
# From -- ./inp_files/2165.got.cif
#   From: 2010.05.17/outbox.cif.g08.bks.cpg/sg45_2_cif.got.tgz:2165.got - 2010.06.03 19:51:22.
