data_PCOD9376914
_publ_section_title
;
Structure prediction by ZEFSAII (Michael W. Deem and Ramdas Pophale) SiO2 
 PCOD9376914
Probable space group: I B A 2
;
_chemical_formula_sum "Si O2"
_cell_formula_units_Z 64
_cell_length_a 25.676415
_cell_length_b 16.434354
_cell_length_c 5.686028
_cell_angle_alpha 90.000000
_cell_angle_beta 90.000000
_cell_angle_gamma 90.000000
_cell_volume 2399.363334
_symmetry_space_group_name_H-M "I B A 2"
_symmetry_group_IT_number 45
_symmetry_cell_setting 'orthorhombic'
loop_
_space_group_symop_operation_xyz
x,y,z
-x,-y,z
-x,y,1/2+z
x,-y,1/2+z
1/2+x,1/2+y,1/2+z
1/2-x,1/2-y,1/2+z
1/2-x,1/2+y,z
1/2+x,1/2-y,z
loop_
_atom_site_type_symbol
_atom_site_label
_atom_site_fract_x
_atom_site_fract_y
_atom_site_fract_z
Si Si1 0.974922 0.114364 0.503670
Si Si2 0.189647 0.147528 0.630173
Si Si3 0.134077 0.119133 0.228556
Si Si4 0.639824 0.966089 0.975207
Si Si5 0.713771 0.195223 0.857497
Si Si6 0.754523 0.934168 0.011471
Si Si7 0.370817 0.185251 0.703655
Si Si8 0.976562 0.688436 0.977460
O O1 0.915441 0.093146 0.577643
O O2 0.980438 0.212733 0.485536
O O3 0.992178 0.088436 0.238979
O O4 0.227512 0.197552 0.454203
O O5 0.183849 0.219638 0.816143
O O6 0.224159 0.077675 0.746147
O O7 0.140249 0.106669 0.510277
O O8 0.188251 0.078205 0.138679
O O9 0.129103 0.218240 0.245913
O O10 0.702378 0.986996 0.971271
O O11 0.625198 0.871008 0.931831
O O12 0.620116 0.005840 0.729938
O O13 0.723289 0.140713 0.632109
O O14 0.681132 0.159291 0.070323
O O15 0.417082 0.167517 0.524947
O O16 0.995360 0.660662 0.720580
#
# Coordination Sequence:
#
# PCOD9376914 Si02
#       8
#     8   8   8   8   8   8   8   8
#     4   9  19  34  51  80 127 163 185 228 297 384
#     4  11  18  28  50  81 121 142 187 246 299 357
#     4  10  22  32  58  93 115 158 202 249 314 355
#     4  12  28  46  59  83 122 171 209 244 305 370
#     4  11  18  31  50  88 114 152 191 245 317 352
#     4  11  22  36  56  82 123 152 199 254 295 372
#     4  11  21  39  62  85 115 159 206 259 300 373
#     4   9  20  36  56  85 115 149 195 248 315 369
#
# _framework density 26.673743000000002
#
# number of rings (size 3 to 8) (size 9 to 14) (size 15 to 20)
#    0.000    1.500    3.750    2.250    3.500    5.000 
#    0.000    0.000    0.000    2.250    0.000    0.000 
#    0.000    3.000    0.000    0.000    0.000    0.000 
#
# Total GULP energy -178286.585415 kJ/mol
# GULP energy per Si atom -5571.455794 kJ/mol
# Density = 2.661303 g / cm^3
# Si number density = 26.673743 Si / 1000 Ang^3
#
#
#
# Elastic Constant Matrix: (Units=GPa)
#
#
# Indices 1 2 3 4 5 6 
#
# 1 43.4368 -2.5377 -4.9658 0.0000 0.0000 0.0000
# 2 -2.5377 75.9854 2.6274 0.0000 0.0000 0.0000
# 3 -4.9658 2.6274 93.8784 0.0000 0.0000 0.0000
# 4 0.0000 0.0000 0.0000 -17.4249 0.0000 0.0000
# 5 0.0000 0.0000 0.0000 0.0000 42.6637 0.0000
# 6 0.0000 0.0000 0.0000 0.0000 0.0000 10.5127
#
#
#
# Elastic Compliance Matrix: (Units=1/GPa)
#
#
# Indices 1 2 3 4 5 6 
#
# 1 0.023203 0.000733 0.001207 0.000000 0.000000 0.000000
# 2 0.000733 0.013196 -0.000331 0.000000 0.000000 0.000000
# 3 0.001207 -0.000331 0.010725 0.000000 0.000000 0.000000
# 4 0.000000 0.000000 0.000000 -0.057389 0.000000 0.000000
# 5 0.000000 0.000000 0.000000 0.000000 0.023439 0.000000
# 6 0.000000 0.000000 0.000000 0.000000 0.000000 0.095123
#
#
# Mechanical properties :
#
#
# Convention : Reuss Voigt Hill
#
# Bulk Modulus (GPa) = 19.86368 22.61650 21.24009
# Shear Modulus (GPa) = 41.03097 21.69542 31.36319
#
# Velocity S-wave (km/s) = 3.92631 2.85504 3.43273
# Velocity P-wave (km/s) = 5.29317 4.40065 4.86741
#
# Compressibility (1/GPa) = 0.05034313
#
# Stress axis : x y z
#
# Youngs Moduli (GPa) = 43.09834 75.77856 93.23866
#
# Poissons Ratio (x) = -0.05556 -0.11252
# Poissons Ratio (y) = -0.03160 0.03082
# Poissons Ratio (z) = -0.05201 0.02505
#
# Static dielectric constant tensor:
#      x y z
#    x 2.093970 0.000000 0.000000 
#    y 0.000000 2.377580 0.000000 
#    z 0.000000 0.000000 2.363860 
# 
# From -- ./inp_files/636.got.cif
#   From: 2010.05.17/outbox.cif.g08.bks.cpg/sg45_1_cif.got.tgz:636.got - 2010.06.03 19:51:22.
