data_PCOD9376251
_publ_section_title
;
Structure prediction by ZEFSAII (Michael W. Deem and Ramdas Pophale) SiO2 
 PCOD9376251
Probable space group: I B A 2
;
_chemical_formula_sum "Si O2"
_cell_formula_units_Z 64
_cell_length_a 14.216191
_cell_length_b 14.527783
_cell_length_c 14.597263
_cell_angle_alpha 90.000000
_cell_angle_beta 90.000000
_cell_angle_gamma 90.000000
_cell_volume 3014.768902
_symmetry_space_group_name_H-M "I B A 2"
_symmetry_group_IT_number 45
_symmetry_cell_setting 'orthorhombic'
loop_
_space_group_symop_operation_xyz
x,y,z
-x,-y,z
-x,y,1/2+z
x,-y,1/2+z
1/2+x,1/2+y,1/2+z
1/2-x,1/2-y,1/2+z
1/2-x,1/2+y,z
1/2+x,1/2-y,z
loop_
_atom_site_type_symbol
_atom_site_label
_atom_site_fract_x
_atom_site_fract_y
_atom_site_fract_z
Si Si1 0.822513 0.611690 0.839000
Si Si2 0.174954 0.126499 0.707623
Si Si3 0.341692 0.084344 0.835003
Si Si4 0.847032 0.300610 0.096069
Si Si5 0.000968 0.352914 0.724309
Si Si6 0.645655 0.714602 0.912538
Si Si7 0.959000 0.146615 0.744367
Si Si8 0.787032 0.060892 0.649208
O O1 0.840038 0.512668 0.886505
O O2 0.923091 0.650799 0.807606
O O3 0.751486 0.678409 0.891943
O O4 0.771366 0.582357 0.743224
O O5 0.239950 0.106172 0.794107
O O6 0.189021 0.231075 0.675582
O O7 0.066077 0.115873 0.734129
O O8 0.207886 0.048351 0.635453
O O9 0.419396 0.076795 0.752712
O O10 0.368421 0.178330 0.884867
O O11 0.935715 0.358992 0.133208
O O12 0.764094 0.373379 0.076083
O O13 0.873444 0.225754 0.019531
O O14 0.953838 0.253281 0.714916
O O15 0.580286 0.650514 0.848580
O O16 0.891000 0.092154 0.676935
#
# Coordination Sequence:
#
# PCOD9376251 Si02
#       8
#     8   8   8   8   8   8   8   8
#     4   9  18  33  55  79 104 142 189 231 277 340
#     4  10  19  34  56  78 104 147 195 234 276 340
#     4  10  19  34  56  78 104 147 195 234 276 340
#     4  10  20  34  53  82 115 141 176 235 299 351
#     4   9  17  33  55  75 103 142 187 228 272 338
#     4  10  20  34  53  82 115 141 176 235 299 351
#     4   9  17  33  55  75 103 142 187 228 272 338
#     4   9  18  33  55  79 104 142 189 231 277 340
#
# _framework density 21.228825000000001
#
# number of rings (size 3 to 8) (size 9 to 14) (size 15 to 20)
#    0.000    2.500    0.000    4.500    0.000    1.000 
#    0.000   11.250    0.000   18.000    0.000    0.000 
#    0.000    0.000    0.000    0.000    0.000    0.000 
#
# Total GULP energy -178160.586580 kJ/mol
# GULP energy per Si atom -5567.518331 kJ/mol
# Density = 2.118051 g / cm^3
# Si number density = 21.228825 Si / 1000 Ang^3
#
#
#
# Elastic Constant Matrix: (Units=GPa)
#
#
# Indices 1 2 3 4 5 6 
#
# 1 91.1936 11.4925 2.7827 0.0000 0.0000 0.0000
# 2 11.4925 101.8245 -0.5372 0.0000 0.0000 0.0000
# 3 2.7827 -0.5372 22.2994 0.0000 0.0000 0.0000
# 4 0.0000 0.0000 0.0000 17.8661 0.0000 0.0000
# 5 0.0000 0.0000 0.0000 0.0000 9.4452 0.0000
# 6 0.0000 0.0000 0.0000 0.0000 0.0000 29.9620
#
#
#
# Elastic Compliance Matrix: (Units=1/GPa)
#
#
# Indices 1 2 3 4 5 6 
#
# 1 0.011169 -0.001268 -0.001424 0.000000 0.000000 0.000000
# 2 -0.001268 0.009966 0.000398 0.000000 0.000000 0.000000
# 3 -0.001424 0.000398 0.045032 0.000000 0.000000 0.000000
# 4 0.000000 0.000000 0.000000 0.055972 0.000000 0.000000
# 5 0.000000 0.000000 0.000000 0.000000 0.105874 0.000000
# 6 0.000000 0.000000 0.000000 0.000000 0.000000 0.033376
#
#
# Mechanical properties :
#
#
# Convention : Reuss Voigt Hill
#
# Bulk Modulus (GPa) = 16.23944 26.97704 21.60824
# Shear Modulus (GPa) = 17.45187 24.89330 21.17259
#
# Velocity S-wave (km/s) = 2.87031 3.42807 3.16151
# Velocity P-wave (km/s) = 4.31871 5.32956 4.85054
#
# Compressibility (1/GPa) = 0.06157847
#
# Stress axis : x y z
#
# Youngs Moduli (GPa) = 89.53387 100.34065 22.20662
#
# Poissons Ratio (x) = 0.12724 0.03163
# Poissons Ratio (y) = 0.11354 -0.00885
# Poissons Ratio (z) = 0.12752 -0.03997
#
# Static dielectric constant tensor:
#      x y z
#    x 1.791460 0.000000 0.000000 
#    y 0.000000 1.829010 0.000000 
#    z 0.000000 0.000000 1.873700 
# 
# From -- ./inp_files/8277.got.cif
#   From: 2010.05.17/outbox.cif.g08.bks.cpg/sg45_5_cif.got.tgz:8277.got - 2010.06.03 19:51:22.
