data_PCOD9376221
_publ_section_title
;
Structure prediction by ZEFSAII (Michael W. Deem and Ramdas Pophale) SiO2 
 PCOD9376221
Probable space group: I B A 2
;
_chemical_formula_sum "Si O2"
_cell_formula_units_Z 40
_cell_length_a 21.514674
_cell_length_b 21.078171
_cell_length_c 5.220127
_cell_angle_alpha 90.000000
_cell_angle_beta 90.000000
_cell_angle_gamma 90.000000
_cell_volume 2367.275276
_symmetry_space_group_name_H-M "I B A 2"
_symmetry_group_IT_number 45
_symmetry_cell_setting 'orthorhombic'
loop_
_space_group_symop_operation_xyz
x,y,z
-x,-y,z
-x,y,1/2+z
x,-y,1/2+z
1/2+x,1/2+y,1/2+z
1/2-x,1/2-y,1/2+z
1/2-x,1/2+y,z
1/2+x,1/2-y,z
loop_
_atom_site_type_symbol
_atom_site_label
_atom_site_fract_x
_atom_site_fract_y
_atom_site_fract_z
Si Si1 0.176427 0.792296 0.045350
Si Si2 0.040263 0.406534 0.614596
Si Si3 0.539579 0.245612 0.635291
Si Si4 0.178362 0.460427 0.657557
Si Si5 0.242247 0.835675 0.545538
O O1 0.103803 0.781690 0.090100
O O2 0.207819 0.832117 0.273663
O O3 0.209179 0.722992 0.052484
O O4 0.193598 0.822555 0.773307
O O5 0.051575 0.330399 0.622580
O O6 0.106139 0.440485 0.635990
O O7 0.995323 0.421760 0.852145
O O8 0.490934 0.259753 0.409014
O O9 0.190137 0.513345 0.441377
O O10 0.220562 0.399855 0.594889
#
# Coordination Sequence:
#
# PCOD9376221 Si02
#       5
#     8   8   8   8   8
#     4  10  19  35  57  75 106 135 174 221 263 334
#     4  10  21  35  50  71 105 145 187 221 251 293
#     4  10  19  32  53  80 109 136 170 217 266 310
#     4  12  24  37  53  74 108 143 189 228 252 302
#     4  10  21  35  53  78 101 140 181 214 273 306
#
# _framework density 16.897062999999999
#
# number of rings (size 3 to 8) (size 9 to 14) (size 15 to 20)
#    0.000    1.600    2.000    3.600    0.000    2.400 
#    0.000    0.000    0.000    0.000    0.000    0.000 
#    0.000   56.000    0.000    0.000    0.000    0.000 
#
# Total GULP energy -111782.159023 kJ/mol
# GULP energy per Si atom -5589.107951 kJ/mol
# Density = 1.685860 g / cm^3
# Si number density = 16.897063 Si / 1000 Ang^3
#
#
#
# Elastic Constant Matrix: (Units=GPa)
#
#
# Indices 1 2 3 4 5 6 
#
# 1 39.3215 12.7728 -19.1981 0.0000 0.0000 0.0000
# 2 12.7728 32.7294 -17.0411 0.0000 0.0000 0.0000
# 3 -19.1981 -17.0411 48.8518 0.0000 0.0000 0.0000
# 4 0.0000 0.0000 0.0000 11.7219 0.0000 0.0000
# 5 0.0000 0.0000 0.0000 0.0000 16.9867 0.0000
# 6 0.0000 0.0000 0.0000 0.0000 0.0000 24.7676
#
#
#
# Elastic Compliance Matrix: (Units=1/GPa)
#
#
# Indices 1 2 3 4 5 6 
#
# 1 0.032896 -0.007462 0.010325 0.000000 0.000000 0.000000
# 2 -0.007462 0.039027 0.010681 0.000000 0.000000 0.000000
# 3 0.010325 0.010681 0.028254 0.000000 0.000000 0.000000
# 4 0.000000 0.000000 0.000000 0.085310 0.000000 0.000000
# 5 0.000000 0.000000 0.000000 0.000000 0.058870 0.000000
# 6 0.000000 0.000000 0.000000 0.000000 0.000000 0.040375
#
#
# Mechanical properties :
#
#
# Convention : Reuss Voigt Hill
#
# Bulk Modulus (GPa) = 7.85763 8.21888 8.03825
# Shear Modulus (GPa) = 16.66302 20.31986 18.49144
#
# Velocity S-wave (km/s) = 3.14371 3.47157 3.31170
# Velocity P-wave (km/s) = 4.22346 4.57643 4.40348
#
# Compressibility (1/GPa) = 0.12726487
#
# Stress axis : x y z
#
# Youngs Moduli (GPa) = 30.39863 25.62320 35.39376
#
# Poissons Ratio (x) = 0.19120 -0.36543
# Poissons Ratio (y) = 0.22684 -0.37806
# Poissons Ratio (z) = -0.31386 -0.27369
#
# Static dielectric constant tensor:
#      x y z
#    x 1.532410 0.000000 0.000000 
#    y 0.000000 1.564380 0.000000 
#    z 0.000000 0.000000 1.566020 
# 
# From -- ./inp_files/14.got.cif
#   From: 2010.05.17/outbox.cif.g08.bks.cpg/sg45_1_cif.got.tgz:14.got - 2010.06.03 19:51:22.
