data_PCOD9376653
_publ_section_title
;
Structure prediction by ZEFSAII (Michael W. Deem and Ramdas Pophale) SiO2 
 PCOD9376653
Probable space group: I B A 2
;
_chemical_formula_sum "Si O2"
_cell_formula_units_Z 36
_cell_length_a 19.439851
_cell_length_b 9.251546
_cell_length_c 9.539177
_cell_angle_alpha 90.000000
_cell_angle_beta 90.000000
_cell_angle_gamma 90.000000
_cell_volume 1715.608351
_symmetry_space_group_name_H-M "I B A 2"
_symmetry_group_IT_number 45
_symmetry_cell_setting 'orthorhombic'
loop_
_space_group_symop_operation_xyz
x,y,z
-x,-y,z
-x,y,1/2+z
x,-y,1/2+z
1/2+x,1/2+y,1/2+z
1/2-x,1/2-y,1/2+z
1/2-x,1/2+y,z
1/2+x,1/2-y,z
loop_
_atom_site_type_symbol
_atom_site_label
_atom_site_fract_x
_atom_site_fract_y
_atom_site_fract_z
Si Si1 0.712074 0.958980 0.198310
Si Si2 0.355830 0.428262 0.817710
Si Si3 0.000000 0.500000 0.494134
Si Si4 0.082915 0.639010 0.748203
Si Si5 0.329834 0.653512 0.612466
O O1 0.774057 0.896260 0.293492
O O2 0.679622 0.823892 0.117363
O O3 0.652026 0.045613 0.273576
O O4 0.755076 0.075415 0.108513
O O5 0.397504 0.306346 0.736101
O O6 0.363552 0.587495 0.753301
O O7 0.370303 0.405585 0.979720
O O8 0.050350 0.581262 0.603331
O O9 0.036133 0.390812 0.384452
#
# Coordination Sequence:
#
# PCOD9376653 Si02
#       5
#     8   8   4   8   8
#     4  10  21  35  62  95 131 153 197 269 325 379
#     4  10  22  37  60  95 126 160 192 275 319 378
#     4  10  26  40  66  90 118 194 212 258 280 378
#     4  11  22  44  65  91 132 161 230 247 312 377
#     4  10  22  33  58 100 125 159 193 238 366 352
#
# _framework density 20.983809000000001
#
# number of rings (size 3 to 8) (size 9 to 14) (size 15 to 20)
#    1.333    0.444    2.222    1.333    9.333    1.778 
#    0.000    0.000    0.000   22.667    0.000    0.000 
#    0.000    0.000    0.000    0.000    0.000    0.000 
#
# Total GULP energy -100264.462060 kJ/mol
# GULP energy per Si atom -5570.247892 kJ/mol
# Density = 2.093605 g / cm^3
# Si number density = 20.983809 Si / 1000 Ang^3
#
#
#
# Elastic Constant Matrix: (Units=GPa)
#
#
# Indices 1 2 3 4 5 6 
#
# 1 34.2927 12.8000 0.0165 0.0000 0.0000 0.0000
# 2 12.8000 64.0242 -3.0962 0.0000 0.0000 0.0000
# 3 0.0165 -3.0962 71.6149 0.0000 0.0000 0.0000
# 4 0.0000 0.0000 0.0000 17.2151 0.0000 0.0000
# 5 0.0000 0.0000 0.0000 0.0000 22.5600 0.0000
# 6 0.0000 0.0000 0.0000 0.0000 0.0000 -9.3202
#
#
#
# Elastic Compliance Matrix: (Units=1/GPa)
#
#
# Indices 1 2 3 4 5 6 
#
# 1 0.031518 -0.006315 -0.000280 0.000000 0.000000 0.000000
# 2 -0.006315 0.016917 0.000733 0.000000 0.000000 0.000000
# 3 -0.000280 0.000733 0.013995 0.000000 0.000000 0.000000
# 4 0.000000 0.000000 0.000000 0.058089 0.000000 0.000000
# 5 0.000000 0.000000 0.000000 0.000000 0.044326 0.000000
# 6 0.000000 0.000000 0.000000 0.000000 0.000000 -0.107294
#
#
# Mechanical properties :
#
#
# Convention : Reuss Voigt Hill
#
# Bulk Modulus (GPa) = 19.72158 21.04138 20.38148
# Shear Modulus (GPa) = 58.01973 16.77174 37.39573
#
# Velocity S-wave (km/s) = 5.26401 2.83020 4.22610
# Velocity P-wave (km/s) = 6.80920 4.55294 5.79200
#
# Compressibility (1/GPa) = 0.05070587
#
# Stress axis : x y z
#
# Youngs Moduli (GPa) = 31.72802 59.11214 71.45248
#
# Poissons Ratio (x) = 0.37328 0.02003
# Poissons Ratio (y) = 0.20035 -0.05236
# Poissons Ratio (z) = 0.00889 -0.04332
#
# Static dielectric constant tensor:
#      x y z
#    x 1.796150 0.000000 0.000000 
#    y 0.000000 1.720230 0.000000 
#    z 0.000000 0.000000 1.774310 
# 
# From -- ./inp_files/930.got.cif
#   From: 2010.05.17/outbox.cif.g08.bks.cpg/sg45_1_cif.got.tgz:930.got - 2010.06.03 19:51:22.
