data_PCOD9376937
_publ_section_title
;
Structure prediction by ZEFSAII (Michael W. Deem and Ramdas Pophale) SiO2 
 PCOD9376937
Probable space group: I B A 2
;
_chemical_formula_sum "Si O2"
_cell_formula_units_Z 60
_cell_length_a 8.349071
_cell_length_b 14.591612
_cell_length_c 21.316497
_cell_angle_alpha 90.000000
_cell_angle_beta 90.000000
_cell_angle_gamma 90.000000
_cell_volume 2596.912188
_symmetry_space_group_name_H-M "I B A 2"
_symmetry_group_IT_number 45
_symmetry_cell_setting 'orthorhombic'
loop_
_space_group_symop_operation_xyz
x,y,z
-x,-y,z
-x,y,1/2+z
x,-y,1/2+z
1/2+x,1/2+y,1/2+z
1/2-x,1/2-y,1/2+z
1/2-x,1/2+y,z
1/2+x,1/2-y,z
loop_
_atom_site_type_symbol
_atom_site_label
_atom_site_fract_x
_atom_site_fract_y
_atom_site_fract_z
Si Si1 0.308701 0.888698 0.382250
Si Si2 0.000000 0.000000 0.535700
Si Si3 0.141767 0.710195 0.365629
Si Si4 0.688333 0.026380 0.244334
Si Si5 0.261111 0.827458 0.727875
Si Si6 0.863891 0.942917 0.416912
Si Si7 0.705965 0.391407 0.614799
Si Si8 0.022503 0.730401 0.639052
O O1 0.174872 0.810949 0.391525
O O2 0.479666 0.838619 0.387687
O O3 0.302811 0.923756 0.310559
O O4 0.274489 0.978855 0.423541
O O5 0.049255 0.075967 0.483287
O O6 0.151946 0.015057 0.580990
O O7 0.156614 0.713491 0.289988
O O8 0.287096 0.644720 0.386701
O O9 0.756216 0.084203 0.186876
O O10 0.500000 0.000000 0.235571
O O11 0.782661 0.930619 0.245502
O O12 0.119207 0.768070 0.699544
O O13 0.382403 0.829799 0.669107
O O14 0.000000 0.000000 0.379352
O O15 0.861968 0.331635 0.596290
O O16 0.557855 0.320563 0.609500
#
# Coordination Sequence:
#
# PCOD9376937 Si02
#       8
#     8   4   8   8   8   8   8   8
#     4  12  23  42  66 105 139 175 223 272 348 430
#     4  10  26  50  64  92 124 174 238 296 328 404
#     4  12  22  39  68  96 139 179 209 276 337 404
#     4  12  21  37  64 102 140 176 213 267 347 429
#     4  11  20  37  58 102 143 170 213 264 334 423
#     4  10  24  46  66  92 134 170 237 282 338 404
#     4  11  22  44  66  91 136 169 227 281 337 404
#     4  10  22  37  65  99 132 178 218 270 343 416
#
# _framework density 23.104361999999998
#
# number of rings (size 3 to 8) (size 9 to 14) (size 15 to 20)
#    0.400    0.533    4.000    4.400    0.000    1.067 
#    3.600    1.333    0.000    0.000    0.000    0.000 
#    0.000    0.000    0.000    0.000    0.000    0.000 
#
# Total GULP energy -167324.535265 kJ/mol
# GULP energy per Si atom -5577.484509 kJ/mol
# Density = 2.305178 g / cm^3
# Si number density = 23.104362 Si / 1000 Ang^3
#
#
#
# Elastic Constant Matrix: (Units=GPa)
#
#
# Indices 1 2 3 4 5 6 
#
# 1 90.3574 22.8336 33.4699 0.0000 0.0000 0.0000
# 2 22.8336 109.2948 17.1495 0.0000 0.0000 0.0000
# 3 33.4699 17.1495 61.5695 0.0000 0.0000 0.0000
# 4 0.0000 0.0000 0.0000 18.3325 0.0000 0.0000
# 5 0.0000 0.0000 0.0000 0.0000 11.5955 0.0000
# 6 0.0000 0.0000 0.0000 0.0000 0.0000 46.1747
#
#
#
# Elastic Compliance Matrix: (Units=1/GPa)
#
#
# Indices 1 2 3 4 5 6 
#
# 1 0.014201 -0.001836 -0.007209 0.000000 0.000000 0.000000
# 2 -0.001836 0.009805 -0.001733 0.000000 0.000000 0.000000
# 3 -0.007209 -0.001733 0.020643 0.000000 0.000000 0.000000
# 4 0.000000 0.000000 0.000000 0.054548 0.000000 0.000000
# 5 0.000000 0.000000 0.000000 0.000000 0.086240 0.000000
# 6 0.000000 0.000000 0.000000 0.000000 0.000000 0.021657
#
#
# Mechanical properties :
#
#
# Convention : Reuss Voigt Hill
#
# Bulk Modulus (GPa) = 43.30043 45.34752 44.32398
# Shear Modulus (GPa) = 21.15523 27.73845 24.44684
#
# Velocity S-wave (km/s) = 3.02923 3.46869 3.25638
# Velocity P-wave (km/s) = 5.56928 5.97597 5.77621
#
# Compressibility (1/GPa) = 0.02309446
#
# Stress axis : x y z
#
# Youngs Moduli (GPa) = 70.41615 101.98842 48.44189
#
# Poissons Ratio (x) = 0.18723 0.34920
# Poissons Ratio (y) = 0.12927 0.08396
# Poissons Ratio (z) = 0.50761 0.17676
#
# Static dielectric constant tensor:
#      x y z
#    x 1.981790 0.000000 0.000000 
#    y 0.000000 1.939730 0.000000 
#    z 0.000000 0.000000 1.869820 
# 
# From -- ./inp_files/9578.got.cif
#   From: 2010.05.17/outbox.cif.g08.bks.cpg/sg45_5_cif.got.tgz:9578.got - 2010.06.03 19:51:22.
