data_PCOD9376376
_publ_section_title
;
Structure prediction by ZEFSAII (Michael W. Deem and Ramdas Pophale) SiO2 
 PCOD9376376
Probable space group: I B A 2
;
_chemical_formula_sum "Si O2"
_cell_formula_units_Z 64
_cell_length_a 10.074561
_cell_length_b 28.304151
_cell_length_c 9.147210
_cell_angle_alpha 90.000000
_cell_angle_beta 90.000000
_cell_angle_gamma 90.000000
_cell_volume 2608.344273
_symmetry_space_group_name_H-M "I B A 2"
_symmetry_group_IT_number 45
_symmetry_cell_setting 'orthorhombic'
loop_
_space_group_symop_operation_xyz
x,y,z
-x,-y,z
-x,y,1/2+z
x,-y,1/2+z
1/2+x,1/2+y,1/2+z
1/2-x,1/2-y,1/2+z
1/2-x,1/2+y,z
1/2+x,1/2-y,z
loop_
_atom_site_type_symbol
_atom_site_label
_atom_site_fract_x
_atom_site_fract_y
_atom_site_fract_z
Si Si1 0.850200 0.678831 0.776960
Si Si2 0.871586 0.841182 0.785999
Si Si3 0.483905 0.254876 0.650176
Si Si4 0.784949 0.461599 0.288030
Si Si5 0.731401 0.760771 0.940591
Si Si6 0.260879 0.391851 0.534739
Si Si7 0.597648 0.061698 0.289159
Si Si8 0.777141 0.608035 0.028253
O O1 0.985538 0.707389 0.744314
O O2 0.853987 0.755922 0.052445
O O3 0.793146 0.649587 0.640370
O O4 0.843225 0.644437 0.915489
O O5 0.982600 0.803009 0.739645
O O6 0.754325 0.808271 0.850000
O O7 0.827702 0.868080 0.639104
O O8 0.882872 0.876009 0.927494
O O9 0.601552 0.248910 0.531535
O O10 0.749999 0.219983 0.822692
O O11 0.723196 0.436311 0.145470
O O12 0.796971 0.518033 0.285095
O O13 0.724344 0.435307 0.428954
O O14 0.943686 0.450812 0.299966
O O15 0.146854 0.406793 0.421875
O O16 0.613105 0.088253 0.137338
#
# Coordination Sequence:
#
# PCOD9376376 Si02
#       8
#     8   8   8   8   8   8   8   8
#     4  10  22  38  60  89 124 169 229 270 323 388
#     4  10  22  42  60  87 124 166 222 275 329 389
#     4  11  24  44  64  91 128 178 217 275 333 386
#     4  10  20  34  52  86 121 181 217 275 327 418
#     4  11  24  44  64  91 128 178 217 275 333 386
#     4  10  20  36  56  83 126 167 226 269 328 390
#     4  10  20  34  52  80 133 171 225 261 345 402
#     4  10  20  36  56  83 126 167 226 269 328 390
#
# _framework density 24.536638
#
# number of rings (size 3 to 8) (size 9 to 14) (size 15 to 20)
#    0.000    1.750    2.500    1.500    0.000   10.000 
#    4.500    0.000    0.000    0.000    0.000    0.000 
#    0.000   48.000    0.000    0.000    0.000    0.000 
#
# Total GULP energy -178940.670108 kJ/mol
# GULP energy per Si atom -5591.895941 kJ/mol
# Density = 2.448079 g / cm^3
# Si number density = 24.536638 Si / 1000 Ang^3
#
#
#
# Elastic Constant Matrix: (Units=GPa)
#
#
# Indices 1 2 3 4 5 6 
#
# 1 83.3677 12.8492 47.2488 0.0001 0.0005 0.0250
# 2 12.8492 127.6760 67.3429 0.0001 0.0000 -0.0011
# 3 47.2488 67.3429 207.1385 0.0014 0.0027 0.1138
# 4 0.0001 0.0001 0.0014 29.8573 0.0001 -0.0061
# 5 0.0005 0.0000 0.0027 0.0001 38.1623 -0.0103
# 6 0.0250 -0.0011 0.1138 -0.0061 -0.0103 388.9552
#
#
#
# Elastic Compliance Matrix: (Units=1/GPa)
#
#
# Indices 1 2 3 4 5 6 
#
# 1 0.013787 0.000327 -0.003251 0.000000 0.000000 0.000000
# 2 0.000327 0.009461 -0.003151 0.000000 0.000000 0.000001
# 3 -0.003251 -0.003151 0.006594 0.000000 0.000000 -0.000002
# 4 0.000000 0.000000 0.000000 0.033493 0.000000 0.000001
# 5 0.000000 0.000000 0.000000 0.000000 0.026204 0.000001
# 6 0.000000 0.000001 -0.000002 0.000001 0.000001 0.002571
#
#
# Mechanical properties :
#
#
# Convention : Reuss Voigt Hill
#
# Bulk Modulus (GPa) = 56.51966 74.78490 65.65228
# Shear Modulus (GPa) = 45.39002 110.77772 78.08387
#
# Velocity S-wave (km/s) = 4.30570 6.72651 5.64734
# Velocity P-wave (km/s) = 6.91401 9.53273 8.32696
#
# Compressibility (1/GPa) = 0.01769296
#
# Stress axis : x y z
#
# Youngs Moduli (GPa) = 72.53049 105.69515 151.66156
#
# Poissons Ratio (x) = -0.03460 0.49311
# Poissons Ratio (y) = -0.02375 0.47783
# Poissons Ratio (z) = 0.23582 0.33300
#
# Static dielectric constant tensor:
#      x y z
#    x 1.969590 0.000000 0.000000 
#    y 0.000000 2.063220 0.000000 
#    z 0.000000 0.000000 1.990600 
# 
# From -- ./inp_files/2572.got.cif
#   From: 2010.05.17/outbox.cif.g08.bks.cpg/sg45_2_cif.got.tgz:2572.got - 2010.06.03 19:51:22.
