data_PCOD9376023
_publ_section_title
;
Structure prediction by ZEFSAII (Michael W. Deem and Ramdas Pophale) SiO2 
 PCOD9376023
Probable space group: I M M 2
;
_chemical_formula_sum "Si O2"
_cell_formula_units_Z 32
_cell_length_a 9.000000
_cell_length_b 18.000000
_cell_length_c 21.000000
_cell_angle_alpha 90.000000
_cell_angle_beta 90.000000
_cell_angle_gamma 90.000000
_cell_volume 3402.000000
_symmetry_space_group_name_H-M "I M M 2"
_symmetry_group_IT_number 44
_symmetry_cell_setting 'orthorhombic'
loop_
_space_group_symop_operation_xyz
x,y,z
-x,-y,z
-x,y,z
x,-y,z
1/2+x,1/2+y,1/2+z
1/2-x,1/2-y,1/2+z
1/2-x,1/2+y,1/2+z
1/2+x,1/2-y,1/2+z
loop_
_atom_site_type_symbol
_atom_site_label
_atom_site_fract_x
_atom_site_fract_y
_atom_site_fract_z
Si Si1 0.324863 0.411272 0.590790
Si Si2 0.822721 0.697194 0.685450
Si Si3 0.824521 0.415028 0.210565
Si Si4 0.180119 0.589203 0.966281
Si Si5 0.823716 0.330601 0.338346
Si Si6 0.830588 0.911113 0.948162
Si Si7 0.321744 0.823499 0.335439
Si Si8 0.321190 0.658830 0.095868
O O1 0.500000 0.394752 0.600846
O O2 0.307670 0.500000 0.593152
O O3 0.226756 0.372697 0.643745
O O4 0.286976 0.384842 0.519022
O O5 0.770990 0.679555 0.759341
O O6 0.774047 0.767082 0.638582
O O7 0.000000 0.705757 0.690256
O O8 0.810369 0.500000 0.232743
O O9 0.777697 0.361605 0.268778
O O10 0.731610 0.403137 0.146599
O O11 0.000000 0.401406 0.197329
O O12 0.216401 0.500000 0.971188
O O13 0.222179 0.620471 0.894478
O O14 0.000000 0.595776 0.971417
O O15 0.250677 0.636532 0.026270
O O16 0.780095 0.388104 0.393005
O O17 0.736230 0.256669 0.356556
O O18 0.000000 0.317948 0.336392
O O19 0.000000 0.885197 0.934614
O O20 0.836379 0.000000 0.951553
O O21 0.500000 0.828752 0.332799
O O22 0.500000 0.661715 0.088517
#
# Coordination Sequence:
#
# PCOD9376023 Si02
#       8
#     8   8   8   8   8   8   8   8
#     4   9  20  38  59  85 116 152 196 241 289 351
#     4  10  22  39  60  88 121 154 195 250 304 358
#     4  10  21  37  57  83 117 157 199 241 292 358
#     4  10  23  43  66  90 117 157 208 255 302 361
#     4  11  22  35  55  85 120 155 194 243 296 348
#     4   9  19  36  56  80 114 155 195 233 278 341
#     4  10  22  42  63  85 116 155 200 245 294 355
#     4  11  23  39  60  90 125 156 195 248 305 360
#
# _framework density 9.4062319999999993
#
# number of rings (size 3 to 8) (size 9 to 14) (size 15 to 20)
#    0.000    2.000    1.250    2.250    1.750    6.500 
#    0.000    2.500    0.000    0.000    0.000    0.000 
#    0.000    0.000    0.000    0.000    0.000    0.000 
#
# Total GULP energy -178142.769504 kJ/mol
# GULP energy per Si atom -5566.961547 kJ/mol
# Density = 0.938482 g / cm^3
# Si number density = 9.406232 Si / 1000 Ang^3
#
#
#
# Elastic Constant Matrix: (Units=GPa)
#
#
# Indices 1 2 3 4 5 6 
#
# 1 2.4885 8.1756 18.6363 0.0000 0.0000 0.0000
# 2 8.1756 57.2738 41.2836 0.0000 0.0000 0.0000
# 3 18.6363 41.2836 144.5712 0.0000 0.0000 0.0000
# 4 0.0000 0.0000 0.0000 36.9201 0.0000 0.0000
# 5 0.0000 0.0000 0.0000 0.0000 36.9314 0.0000
# 6 0.0000 0.0000 0.0000 0.0000 0.0000 26.8738
#
#
#
# Elastic Compliance Matrix: (Units=1/GPa)
#
#
# Indices 1 2 3 4 5 6 
#
# 1 -10.760315 0.675120 1.194298 0.000000 0.000000 0.000000
# 2 0.675120 -0.020373 -0.081210 0.000000 0.000000 0.000000
# 3 1.194298 -0.081210 -0.123846 0.000000 0.000000 0.000000
# 4 0.000000 0.000000 0.000000 0.027086 0.000000 0.000000
# 5 0.000000 0.000000 0.000000 0.000000 0.027077 0.000000
# 6 0.000000 0.000000 0.000000 0.000000 0.000000 0.037211
#
#
# Mechanical properties :
#
#
# Convention : Reuss Voigt Hill
#
# Bulk Modulus (GPa) = -0.13646 37.83606 18.84980
# Shear Modulus (GPa) = -0.29705 29.22760 14.46528
#
# Velocity S-wave (km/s) = -0.39780 3.94589 2.77595
# Velocity P-wave (km/s) = 0.53262 6.39656 4.50734
#
# Compressibility (1/GPa) = -7.32811919
#
# Stress axis : x y z
#
# Youngs Moduli (GPa) = -0.09293 -49.08488 -8.07452
#
# Poissons Ratio (x) = 33.13820 9.64337
# Poissons Ratio (y) = 0.06274 -0.65573
# Poissons Ratio (z) = 0.11099 -3.98620
#
# Static dielectric constant tensor:
#      x y z
#    x 1.645730 0.000000 0.000000 
#    y 0.000000 1.687040 0.000000 
#    z 0.000000 0.000000 1.669860 
# 
# From -- ./inp_files/23290.got.cif
#   From: 2010.05.17/outbox.ucp.g08.bks.cvg/sg44_12_cif.got.tgz:23290.got - 2010.06.11 16:32:36.
