data_PCOD9376089
_publ_section_title
;
Structure prediction by ZEFSAII (Michael W. Deem and Ramdas Pophale) SiO2 
 PCOD9376089
Probable space group: I B A 2
;
_chemical_formula_sum "Si O2"
_cell_formula_units_Z 60
_cell_length_a 13.684405
_cell_length_b 14.889093
_cell_length_c 12.305587
_cell_angle_alpha 90.000000
_cell_angle_beta 90.000000
_cell_angle_gamma 90.000000
_cell_volume 2507.243400
_symmetry_space_group_name_H-M "I B A 2"
_symmetry_group_IT_number 45
_symmetry_cell_setting 'orthorhombic'
loop_
_space_group_symop_operation_xyz
x,y,z
-x,-y,z
-x,y,1/2+z
x,-y,1/2+z
1/2+x,1/2+y,1/2+z
1/2-x,1/2-y,1/2+z
1/2-x,1/2+y,z
1/2+x,1/2-y,z
loop_
_atom_site_type_symbol
_atom_site_label
_atom_site_fract_x
_atom_site_fract_y
_atom_site_fract_z
Si Si1 0.615049 0.471968 0.896250
Si Si2 0.934254 0.681390 0.313927
Si Si3 0.743885 0.395504 0.698133
Si Si4 0.589765 0.750064 0.135678
Si Si5 0.170113 0.579310 0.177826
Si Si6 0.830918 0.852752 0.324915
Si Si7 0.946837 0.902490 0.106701
Si Si8 0.000000 0.500000 0.825429
O O1 0.500000 0.500000 0.879253
O O2 0.672051 0.424355 0.798246
O O3 0.666619 0.567673 0.910636
O O4 0.621723 0.412238 0.002769
O O5 0.848171 0.646033 0.233134
O O6 0.876851 0.762581 0.370488
O O7 0.026119 0.721927 0.245546
O O8 0.967084 0.592979 0.380213
O O9 0.682934 0.315605 0.645064
O O10 0.766549 0.492378 0.642576
O O11 0.626382 0.847536 0.096140
O O12 0.513494 0.683039 0.079506
O O13 0.227814 0.642557 0.264723
O O14 0.085571 0.532952 0.246871
O O15 0.898708 0.882325 0.222220
O O16 0.000000 0.000000 0.114629
#
# Coordination Sequence:
#
# PCOD9376089 Si02
#       8
#     8   8   8   8   8   8   8   4
#     4  10  20  33  54  83 118 154 199 255 315 367
#     4   9  17  29  52  84 117 152 206 243 313 375
#     4  10  18  32  56  84 117 156 201 260 309 378
#     4  10  18  32  56  84 118 155 199 252 305 381
#     4   9  17  29  52  83 109 152 204 240 302 370
#     4  10  17  32  56  80 112 154 201 253 301 374
#     4  10  20  33  54  85 117 152 197 252 313 364
#     4   8  16  28  44  82 116 146 194 246 294 380
#
# _framework density 23.930662999999999
#
# number of rings (size 3 to 8) (size 9 to 14) (size 15 to 20)
#    0.000    2.400    1.333    3.600    0.000    0.000 
#    0.000    0.000    8.800    0.000    0.000    0.933 
#    0.000    0.000    0.000    0.000    0.000    1.600 
#
# Total GULP energy -167075.739714 kJ/mol
# GULP energy per Si atom -5569.191324 kJ/mol
# Density = 2.387620 g / cm^3
# Si number density = 23.930663 Si / 1000 Ang^3
#
#
#
# Elastic Constant Matrix: (Units=GPa)
#
#
# Indices 1 2 3 4 5 6 
#
# 1 98.9357 29.8976 20.5095 0.0000 0.0000 0.0000
# 2 29.8976 174.9023 43.9946 0.0000 0.0000 0.0000
# 3 20.5095 43.9946 52.6896 0.0000 0.0000 0.0000
# 4 0.0000 0.0000 0.0000 30.0680 0.0000 0.0000
# 5 0.0000 0.0000 0.0000 0.0000 14.1638 0.0000
# 6 0.0000 0.0000 0.0000 0.0000 0.0000 62.0750
#
#
#
# Elastic Compliance Matrix: (Units=1/GPa)
#
#
# Indices 1 2 3 4 5 6 
#
# 1 0.011139 -0.001030 -0.003476 0.000000 0.000000 0.000000
# 2 -0.001030 0.007333 -0.005722 0.000000 0.000000 0.000000
# 3 -0.003476 -0.005722 0.025110 0.000000 0.000000 0.000000
# 4 0.000000 0.000000 0.000000 0.033258 0.000000 0.000000
# 5 0.000000 0.000000 0.000000 0.000000 0.070603 0.000000
# 6 0.000000 0.000000 0.000000 0.000000 0.000000 0.016110
#
#
# Mechanical properties :
#
#
# Convention : Reuss Voigt Hill
#
# Bulk Modulus (GPa) = 43.24076 57.25899 50.24987
# Shear Modulus (GPa) = 26.08017 36.73642 31.40830
#
# Velocity S-wave (km/s) = 3.30483 3.92231 3.62673
# Velocity P-wave (km/s) = 5.71585 6.67021 6.21138
#
# Compressibility (1/GPa) = 0.02312633
#
# Stress axis : x y z
#
# Youngs Moduli (GPa) = 89.77155 136.37418 39.82507
#
# Poissons Ratio (x) = 0.14043 0.13844
# Poissons Ratio (y) = 0.09244 0.22787
# Poissons Ratio (z) = 0.31206 0.78031
#
# Static dielectric constant tensor:
#      x y z
#    x 2.011320 0.000000 0.000000 
#    y 0.000000 1.969160 0.000000 
#    z 0.000000 0.000000 1.923550 
# 
# From -- ./inp_files/6605.got.cif
#   From: 2010.05.17/outbox.cif.g08.bks.cpg/sg45_4_cif.got.tgz:6605.got - 2010.06.03 19:51:22.
