data_PCOD9376927
_publ_section_title
;
Structure prediction by ZEFSAII (Michael W. Deem and Ramdas Pophale) SiO2 
 PCOD9376927
Probable space group: I B A 2
;
_chemical_formula_sum "Si O2"
_cell_formula_units_Z 44
_cell_length_a 8.921290
_cell_length_b 10.713676
_cell_length_c 21.376364
_cell_angle_alpha 90.000000
_cell_angle_beta 90.000000
_cell_angle_gamma 90.000000
_cell_volume 2043.148822
_symmetry_space_group_name_H-M "I B A 2"
_symmetry_group_IT_number 45
_symmetry_cell_setting 'orthorhombic'
loop_
_space_group_symop_operation_xyz
x,y,z
-x,-y,z
-x,y,1/2+z
x,-y,1/2+z
1/2+x,1/2+y,1/2+z
1/2-x,1/2-y,1/2+z
1/2-x,1/2+y,z
1/2+x,1/2-y,z
loop_
_atom_site_type_symbol
_atom_site_label
_atom_site_fract_x
_atom_site_fract_y
_atom_site_fract_z
Si Si1 0.106531 0.109981 0.088830
Si Si2 0.448074 0.133299 0.060303
Si Si3 0.185441 0.413855 0.335045
Si Si4 0.810464 0.905620 0.229358
Si Si5 0.423553 0.742740 0.787766
Si Si6 0.500000 0.000000 0.941659
O O1 0.267842 0.132953 0.057149
O O2 0.155292 0.064628 0.158255
O O3 0.016791 0.241674 0.090013
O O4 0.000000 0.000000 0.062285
O O5 0.500000 0.000000 0.091328
O O6 0.508457 0.115999 0.989408
O O7 0.241289 0.492804 0.275735
O O8 0.315869 0.311847 0.341124
O O9 0.145128 0.486104 0.397782
O O10 0.031626 0.347746 0.315065
O O11 0.687355 0.795138 0.234606
O O12 0.963908 0.857470 0.259534
#
# Coordination Sequence:
#
# PCOD9376927 Si02
#       6
#     8   8   8   8   8   4
#     4  12  24  45  74 107 143 191 252 308 374 447
#     4  10  26  47  69  99 142 197 252 302 365 437
#     4  11  21  43  64 101 137 179 228 293 367 438
#     4  11  22  40  66 105 142 172 228 290 373 440
#     4  10  22  36  65 103 137 177 216 282 376 438
#     4  10  24  48  68  92 144 192 248 298 358 444
#
# _framework density 21.535387
#
# number of rings (size 3 to 8) (size 9 to 14) (size 15 to 20)
#    0.545    0.727    1.818    3.818    0.000    7.273 
#    0.000    1.818    0.000    0.000    0.000    0.000 
#    0.000    0.000    0.000    0.000    0.000    0.000 
#
# Total GULP energy -122740.073523 kJ/mol
# GULP energy per Si atom -5579.094251 kJ/mol
# Density = 2.148637 g / cm^3
# Si number density = 21.535387 Si / 1000 Ang^3
#
#
#
# Elastic Constant Matrix: (Units=GPa)
#
#
# Indices 1 2 3 4 5 6 
#
# 1 156.0934 41.6146 11.7688 0.0000 0.0000 0.0000
# 2 41.6146 91.7166 0.8739 0.0000 0.0000 0.0000
# 3 11.7688 0.8739 68.8785 0.0000 0.0000 0.0000
# 4 0.0000 0.0000 0.0000 22.4702 0.0000 0.0000
# 5 0.0000 0.0000 0.0000 0.0000 6.7123 0.0000
# 6 0.0000 0.0000 0.0000 0.0000 0.0000 58.4287
#
#
#
# Elastic Compliance Matrix: (Units=1/GPa)
#
#
# Indices 1 2 3 4 5 6 
#
# 1 0.007389 -0.003341 -0.001220 0.000000 0.000000 0.000000
# 2 -0.003341 0.012415 0.000413 0.000000 0.000000 0.000000
# 3 -0.001220 0.000413 0.014722 0.000000 0.000000 0.000000
# 4 0.000000 0.000000 0.000000 0.044503 0.000000 0.000000
# 5 0.000000 0.000000 0.000000 0.000000 0.148981 0.000000
# 6 0.000000 0.000000 0.000000 0.000000 0.000000 0.017115
#
#
# Mechanical properties :
#
#
# Convention : Reuss Voigt Hill
#
# Bulk Modulus (GPa) = 38.12408 47.24479 42.68443
# Shear Modulus (GPa) = 19.07204 35.01764 27.04484
#
# Velocity S-wave (km/s) = 2.97916 4.03681 3.54762
# Velocity P-wave (km/s) = 5.43831 6.61162 6.05346
#
# Compressibility (1/GPa) = 0.02623014
#
# Stress axis : x y z
#
# Youngs Moduli (GPa) = 135.33377 80.54677 67.92766
#
# Poissons Ratio (x) = 0.26911 0.08288
# Poissons Ratio (y) = 0.45216 -0.02808
# Poissons Ratio (z) = 0.16513 -0.03329
#
# Static dielectric constant tensor:
#      x y z
#    x 1.786040 0.000000 0.000000 
#    y 0.000000 1.923030 0.000000 
#    z 0.000000 0.000000 1.809590 
# 
# From -- ./inp_files/9519.got.cif
#   From: 2010.05.17/outbox.cif.g08.bks.cpg/sg45_5_cif.got.tgz:9519.got - 2010.06.03 19:51:22.
