data_PCOD9376901
_publ_section_title
;
Structure prediction by ZEFSAII (Michael W. Deem and Ramdas Pophale) SiO2 
 PCOD9376901
Probable space group: I B A 2
;
_chemical_formula_sum "Si O2"
_cell_formula_units_Z 56
_cell_length_a 13.790263
_cell_length_b 8.364275
_cell_length_c 19.537985
_cell_angle_alpha 90.000000
_cell_angle_beta 90.000000
_cell_angle_gamma 90.000000
_cell_volume 2253.619666
_symmetry_space_group_name_H-M "I B A 2"
_symmetry_group_IT_number 45
_symmetry_cell_setting 'orthorhombic'
loop_
_space_group_symop_operation_xyz
x,y,z
-x,-y,z
-x,y,1/2+z
x,-y,1/2+z
1/2+x,1/2+y,1/2+z
1/2-x,1/2-y,1/2+z
1/2-x,1/2+y,z
1/2+x,1/2-y,z
loop_
_atom_site_type_symbol
_atom_site_label
_atom_site_fract_x
_atom_site_fract_y
_atom_site_fract_z
Si Si1 0.394423 0.549401 0.804480
Si Si2 0.285547 0.166651 0.537914
Si Si3 0.655534 0.076916 0.182189
Si Si4 0.978246 0.831586 0.021847
Si Si5 0.717400 0.783937 0.823150
Si Si6 0.449080 0.257166 0.170482
Si Si7 0.370235 0.862062 0.461787
O O1 0.500000 0.500000 0.832507
O O2 0.327743 0.391216 0.812312
O O3 0.331790 0.691964 0.839663
O O4 0.418885 0.615638 0.727981
O O5 0.277905 0.125698 0.617999
O O6 0.365000 0.307697 0.534267
O O7 0.193300 0.218349 0.495091
O O8 0.335227 0.015214 0.502690
O O9 0.705119 0.120974 0.252627
O O10 0.555227 0.178221 0.183740
O O11 0.624765 0.892525 0.173513
O O12 0.035507 0.824145 0.094382
O O13 0.020557 0.688023 0.976908
O O14 0.000000 0.000000 0.988887
O O15 0.656526 0.867076 0.882906
#
# Coordination Sequence:
#
# PCOD9376901 Si02
#       7
#     8   8   8   8   8   8   8
#     4  12  26  49  73 111 155 202 252 330 388 468
#     4  11  25  46  72 102 148 198 252 313 383 455
#     4  10  22  45  73 109 141 195 258 323 380 463
#     4  11  24  45  74 104 144 194 250 315 380 460
#     4  12  28  46  75 113 152 201 265 314 406 478
#     4  10  21  44  75 106 144 191 259 319 389 457
#     4  12  26  48  70 109 150 197 252 314 385 474
#
# _framework density 24.848913
#
# number of rings (size 3 to 8) (size 9 to 14) (size 15 to 20)
#    0.000    0.857    2.857    3.429    4.000    2.857 
#    5.143    0.000    0.000    0.000    0.000    0.000 
#    0.000    0.000    0.000    0.000    0.000    0.000 
#
# Total GULP energy -156848.984347 kJ/mol
# GULP energy per Si atom -5601.749441 kJ/mol
# Density = 2.479236 g / cm^3
# Si number density = 24.848913 Si / 1000 Ang^3
#
#
#
# Elastic Constant Matrix: (Units=GPa)
#
#
# Indices 1 2 3 4 5 6 
#
# 1 100.7472 35.7092 2.5337 0.0000 0.0000 0.0000
# 2 35.7092 100.4330 24.2043 0.0000 0.0000 0.0000
# 3 2.5337 24.2043 126.1631 0.0000 0.0000 0.0000
# 4 0.0000 0.0000 0.0000 16.7115 0.0000 0.0000
# 5 0.0000 0.0000 0.0000 0.0000 9.4220 0.0000
# 6 0.0000 0.0000 0.0000 0.0000 0.0000 52.8285
#
#
#
# Elastic Compliance Matrix: (Units=1/GPa)
#
#
# Indices 1 2 3 4 5 6 
#
# 1 0.011397 -0.004191 0.000575 0.000000 0.000000 0.000000
# 2 -0.004191 0.011981 -0.002214 0.000000 0.000000 0.000000
# 3 0.000575 -0.002214 0.008340 0.000000 0.000000 0.000000
# 4 0.000000 0.000000 0.000000 0.059839 0.000000 0.000000
# 5 0.000000 0.000000 0.000000 0.000000 0.106134 0.000000
# 6 0.000000 0.000000 0.000000 0.000000 0.000000 0.018929
#
#
# Mechanical properties :
#
#
# Convention : Reuss Voigt Hill
#
# Bulk Modulus (GPa) = 49.85800 50.24863 50.05331
# Shear Modulus (GPa) = 21.27977 33.45213 27.36595
#
# Velocity S-wave (km/s) = 2.92955 3.67307 3.32217
# Velocity P-wave (km/s) = 5.61703 6.18499 5.90784
#
# Compressibility (1/GPa) = 0.02005696
#
# Stress axis : x y z
#
# Youngs Moduli (GPa) = 87.74424 83.46851 119.91113
#
# Poissons Ratio (x) = 0.34980 -0.06896
# Poissons Ratio (y) = 0.36771 0.26552
# Poissons Ratio (z) = -0.05046 0.18482
#
# Static dielectric constant tensor:
#      x y z
#    x 2.048030 0.000000 0.000000 
#    y 0.000000 1.961620 0.000000 
#    z 0.000000 0.000000 1.930460 
# 
# From -- ./inp_files/9175.got.cif
#   From: 2010.05.17/outbox.cif.g08.bks.cpg/sg45_5_cif.got.tgz:9175.got - 2010.06.03 19:51:22.
