data_PCOD9376877
_publ_section_title
;
Structure prediction by ZEFSAII (Michael W. Deem and Ramdas Pophale) SiO2 
 PCOD9376877
Probable space group: I B A 2
;
_chemical_formula_sum "Si O2"
_cell_formula_units_Z 60
_cell_length_a 23.871502
_cell_length_b 9.176037
_cell_length_c 11.900942
_cell_angle_alpha 90.000000
_cell_angle_beta 90.000000
_cell_angle_gamma 90.000000
_cell_volume 2606.851190
_symmetry_space_group_name_H-M "I B A 2"
_symmetry_group_IT_number 45
_symmetry_cell_setting 'orthorhombic'
loop_
_space_group_symop_operation_xyz
x,y,z
-x,-y,z
-x,y,1/2+z
x,-y,1/2+z
1/2+x,1/2+y,1/2+z
1/2-x,1/2-y,1/2+z
1/2-x,1/2+y,z
1/2+x,1/2-y,z
loop_
_atom_site_type_symbol
_atom_site_label
_atom_site_fract_x
_atom_site_fract_y
_atom_site_fract_z
Si Si1 0.000000 0.000000 0.859030
Si Si2 0.981101 0.271569 0.019144
Si Si3 0.835974 0.659824 0.668799
Si Si4 0.912848 0.467559 0.569449
Si Si5 0.413631 0.431842 0.174880
Si Si6 0.272054 0.693575 0.316910
Si Si7 0.152842 0.185062 0.100112
Si Si8 0.743292 0.058724 0.468222
O O1 0.057581 0.013132 0.787964
O O2 0.995725 0.154969 0.923648
O O3 0.931602 0.391309 0.994165
O O4 0.960032 0.167772 0.117631
O O5 0.031899 0.368334 0.065376
O O6 0.889321 0.551668 0.680373
O O7 0.859969 0.824001 0.676665
O O8 0.785414 0.655824 0.754272
O O9 0.807505 0.599192 0.553134
O O10 0.866836 0.340653 0.554221
O O11 0.397166 0.569237 0.099150
O O12 0.322677 0.676647 0.228222
O O13 0.271350 0.860451 0.353142
O O14 0.266812 0.598965 0.430992
O O15 0.203256 0.132880 0.024115
#
# Coordination Sequence:
#
# PCOD9376877 Si02
#       8
#     4   8   8   8   8   8   8   8
#     4  12  24  42  68  96 126 164 222 282 330 408
#     4  10  24  44  66  94 127 169 221 270 336 404
#     4  10  23  42  65  95 132 173 221 275 337 402
#     4  10  21  43  66  88 128 170 210 272 330 387
#     4  11  24  43  66  93 128 170 217 277 336 396
#     4  11  23  39  63  99 132 170 223 271 326 400
#     4  11  23  40  65  96 132 174 220 269 332 404
#     4  11  23  40  63  94 134 174 216 274 330 396
#
# _framework density 23.016273000000002
#
# number of rings (size 3 to 8) (size 9 to 14) (size 15 to 20)
#    0.000    1.333    0.000    5.200    0.000   11.733 
#    0.000   16.000    0.000    0.000    0.000    0.000 
#    0.000    0.000    0.000    0.000    0.000    0.000 
#
# Total GULP energy -167144.725815 kJ/mol
# GULP energy per Si atom -5571.490860 kJ/mol
# Density = 2.296389 g / cm^3
# Si number density = 23.016273 Si / 1000 Ang^3
#
#
#
# Elastic Constant Matrix: (Units=GPa)
#
#
# Indices 1 2 3 4 5 6 
#
# 1 93.8569 45.8332 26.5223 0.0000 0.0000 0.0000
# 2 45.8332 151.6891 16.0743 0.0000 0.0000 0.0000
# 3 26.5223 16.0743 38.7313 0.0000 0.0000 0.0000
# 4 0.0000 0.0000 0.0000 23.7066 0.0000 0.0000
# 5 0.0000 0.0000 0.0000 0.0000 2.5745 0.0000
# 6 0.0000 0.0000 0.0000 0.0000 0.0000 40.6635
#
#
#
# Elastic Compliance Matrix: (Units=1/GPa)
#
#
# Indices 1 2 3 4 5 6 
#
# 1 0.014852 -0.003567 -0.008690 0.000000 0.000000 0.000000
# 2 -0.003567 0.007752 -0.000775 0.000000 0.000000 0.000000
# 3 -0.008690 -0.000775 0.032091 0.000000 0.000000 0.000000
# 4 0.000000 0.000000 0.000000 0.042182 0.000000 0.000000
# 5 0.000000 0.000000 0.000000 0.000000 0.388430 0.000000
# 6 0.000000 0.000000 0.000000 0.000000 0.000000 0.024592
#
#
# Mechanical properties :
#
#
# Convention : Reuss Voigt Hill
#
# Bulk Modulus (GPa) = 34.92583 51.23743 43.08163
# Shear Modulus (GPa) = 9.16579 26.44541 17.80560
#
# Velocity S-wave (km/s) = 1.99774 3.39335 2.78440
# Velocity P-wave (km/s) = 4.53085 6.13700 5.39404
#
# Compressibility (1/GPa) = 0.02863210
#
# Stress axis : x y z
#
# Youngs Moduli (GPa) = 67.33165 128.99511 31.16121
#
# Poissons Ratio (x) = 0.46008 0.27079
# Poissons Ratio (y) = 0.24015 0.02415
# Poissons Ratio (z) = 0.58511 0.09997
#
# Static dielectric constant tensor:
#      x y z
#    x 1.948530 0.000000 0.000000 
#    y 0.000000 2.051010 0.000000 
#    z 0.000000 0.000000 1.895020 
# 
# From -- ./inp_files/4893.got.cif
#   From: 2010.05.17/outbox.cif.g08.bks.cpg/sg45_3_cif.got.tgz:4893.got - 2010.06.03 19:51:22.
