data_PCOD9376645
_publ_section_title
;
Structure prediction by ZEFSAII (Michael W. Deem and Ramdas Pophale) SiO2 
 PCOD9376645
Probable space group: I B A 2
;
_chemical_formula_sum "Si O2"
_cell_formula_units_Z 44
_cell_length_a 21.075180
_cell_length_b 11.312842
_cell_length_c 8.646779
_cell_angle_alpha 90.000000
_cell_angle_beta 90.000000
_cell_angle_gamma 90.000000
_cell_volume 2061.566618
_symmetry_space_group_name_H-M "I B A 2"
_symmetry_group_IT_number 45
_symmetry_cell_setting 'orthorhombic'
loop_
_space_group_symop_operation_xyz
x,y,z
-x,-y,z
-x,y,1/2+z
x,-y,1/2+z
1/2+x,1/2+y,1/2+z
1/2-x,1/2-y,1/2+z
1/2-x,1/2+y,z
1/2+x,1/2-y,z
loop_
_atom_site_type_symbol
_atom_site_label
_atom_site_fract_x
_atom_site_fract_y
_atom_site_fract_z
Si Si1 0.500000 0.000000 0.173630
Si Si2 0.798976 0.521050 0.083135
Si Si3 0.076770 0.629498 0.429997
Si Si4 0.281676 0.829359 0.376132
Si Si5 0.161244 0.898272 0.960402
Si Si6 0.135127 0.143414 0.805660
O O1 0.445547 0.053065 0.282660
O O2 0.525352 0.103440 0.062722
O O3 0.799565 0.566884 0.257352
O O4 0.732260 0.566444 0.015059
O O5 0.858385 0.578625 0.999213
O O6 0.796019 0.381504 0.046962
O O7 0.087255 0.764071 0.381121
O O8 0.325231 0.715067 0.353067
O O9 0.206767 0.811363 0.349230
O O10 0.127430 0.864571 0.120690
O O11 0.132202 0.010943 0.874817
#
# Coordination Sequence:
#
# PCOD9376645 Si02
#       6
#     4   8   8   8   8   8
#     4  10  26  42  72  90 118 152 238 274 316 344
#     4  10  21  34  63  90 133 161 201 247 318 362
#     4  11  22  46  63  98 116 167 205 284 309 358
#     4  10  21  35  56  99 134 170 199 240 300 411
#     4  10  22  37  57  99 134 169 197 235 305 421
#     4  10  23  38  61  89 138 169 204 245 314 377
#
# _framework density 21.342991999999999
#
# number of rings (size 3 to 8) (size 9 to 14) (size 15 to 20)
#    0.000    1.818    1.818    1.091    7.636    2.909 
#    0.000    0.000    0.000    3.273    0.000    0.000 
#    0.000    0.000    0.000    0.000    0.000    0.000 
#
# Total GULP energy -122911.437054 kJ/mol
# GULP energy per Si atom -5586.883502 kJ/mol
# Density = 2.129441 g / cm^3
# Si number density = 21.342992 Si / 1000 Ang^3
#
#
#
# Elastic Constant Matrix: (Units=GPa)
#
#
# Indices 1 2 3 4 5 6 
#
# 1 31.0857 5.9555 18.8469 0.0000 0.0000 0.0000
# 2 5.9555 89.3427 35.5233 0.0000 0.0000 0.0000
# 3 18.8469 35.5233 96.8292 0.0000 0.0000 0.0000
# 4 0.0000 0.0000 0.0000 30.3618 0.0000 0.0000
# 5 0.0000 0.0000 0.0000 0.0000 16.9565 0.0000
# 6 0.0000 0.0000 0.0000 0.0000 0.0000 30.5554
#
#
#
# Elastic Compliance Matrix: (Units=1/GPa)
#
#
# Indices 1 2 3 4 5 6 
#
# 1 0.036489 0.000458 -0.007271 0.000000 0.000000 0.000000
# 2 0.000458 0.013110 -0.004899 0.000000 0.000000 0.000000
# 3 -0.007271 -0.004899 0.013540 0.000000 0.000000 0.000000
# 4 0.000000 0.000000 0.000000 0.032936 0.000000 0.000000
# 5 0.000000 0.000000 0.000000 0.000000 0.058974 0.000000
# 6 0.000000 0.000000 0.000000 0.000000 0.000000 0.032727
#
#
# Mechanical properties :
#
#
# Convention : Reuss Voigt Hill
#
# Bulk Modulus (GPa) = 25.17787 37.54544 31.36166
# Shear Modulus (GPa) = 22.27785 26.03688 24.15737
#
# Velocity S-wave (km/s) = 3.23430 3.49653 3.36797
# Velocity P-wave (km/s) = 5.07641 5.82500 5.46354
#
# Compressibility (1/GPa) = 0.03971741
#
# Stress axis : x y z
#
# Youngs Moduli (GPa) = 27.40529 76.27690 73.85614
#
# Poissons Ratio (x) = -0.03497 0.53697
# Poissons Ratio (y) = -0.01256 0.36181
# Poissons Ratio (z) = 0.19925 0.37367
#
# Static dielectric constant tensor:
#      x y z
#    x 1.740510 0.000000 0.000000 
#    y 0.000000 1.812960 0.000000 
#    z 0.000000 0.000000 1.828710 
# 
# From -- ./inp_files/2480.got.cif
#   From: 2010.05.17/outbox.cif.g08.bks.cpg/sg45_2_cif.got.tgz:2480.got - 2010.06.03 19:51:22.
