data_PCOD9376747
_publ_section_title
;
Structure prediction by ZEFSAII (Michael W. Deem and Ramdas Pophale) SiO2 
 PCOD9376747
Probable space group: I B A 2
;
_chemical_formula_sum "Si O2"
_cell_formula_units_Z 48
_cell_length_a 30.464599
_cell_length_b 4.880880
_cell_length_c 14.096818
_cell_angle_alpha 90.000000
_cell_angle_beta 90.000000
_cell_angle_gamma 90.000000
_cell_volume 2096.112988
_symmetry_space_group_name_H-M "I B A 2"
_symmetry_group_IT_number 45
_symmetry_cell_setting 'orthorhombic'
loop_
_space_group_symop_operation_xyz
x,y,z
-x,-y,z
-x,y,1/2+z
x,-y,1/2+z
1/2+x,1/2+y,1/2+z
1/2-x,1/2-y,1/2+z
1/2-x,1/2+y,z
1/2+x,1/2-y,z
loop_
_atom_site_type_symbol
_atom_site_label
_atom_site_fract_x
_atom_site_fract_y
_atom_site_fract_z
Si Si1 0.854894 0.586440 0.322440
Si Si2 0.588749 0.578827 0.339633
Si Si3 0.837248 0.580385 0.543661
Si Si4 0.893865 0.918353 0.061185
Si Si5 0.029645 0.227237 0.197159
Si Si6 0.222468 0.686429 0.203940
O O1 0.898386 0.391613 0.317055
O O2 0.838048 0.603804 0.430528
O O3 0.817950 0.443534 0.260763
O O4 0.870936 0.892123 0.301415
O O5 0.587833 0.565748 0.453643
O O6 0.547248 0.436141 0.290442
O O7 0.850682 0.269413 0.562807
O O8 0.792560 0.657543 0.595000
O O9 0.876031 0.778905 0.583451
O O10 0.928231 0.766302 0.128764
O O11 0.000000 0.500000 0.210798
O O12 0.000000 0.000000 0.145732
O O13 0.235654 0.995514 0.224962
#
# Coordination Sequence:
#
# PCOD9376747 Si02
#       6
#     8   8   8   8   8   8
#     4  10  21  39  62  83 111 156 204 244 286 352
#     4  10  21  40  63  85 113 157 206 245 288 354
#     4  10  21  39  62  83 111 156 204 244 286 352
#     4  10  21  40  63  85 113 157 206 245 288 354
#     4  12  24  38  60  92 126 156 190 248 314 364
#     4  12  24  36  56  88 122 152 186 244 310 358
#
# _framework density 22.899528
#
# number of rings (size 3 to 8) (size 9 to 14) (size 15 to 20)
#    0.000    1.333    0.000    6.000    0.000    2.000 
#    0.000    1.667    0.000    0.000    0.000    0.000 
#    0.000    0.000    0.000    0.000    0.000    0.000 
#
# Total GULP energy -134024.786967 kJ/mol
# GULP energy per Si atom -5584.366124 kJ/mol
# Density = 2.284741 g / cm^3
# Si number density = 22.899528 Si / 1000 Ang^3
#
#
#
# Elastic Constant Matrix: (Units=GPa)
#
#
# Indices 1 2 3 4 5 6 
#
# 1 57.6667 5.5614 21.2658 0.0000 0.0000 0.0000
# 2 5.5614 112.3791 15.4762 0.0000 0.0000 0.0000
# 3 21.2658 15.4762 77.4182 0.0000 0.0000 0.0000
# 4 0.0000 0.0000 0.0000 19.6702 0.0000 0.0000
# 5 0.0000 0.0000 0.0000 0.0000 11.4704 0.0000
# 6 0.0000 0.0000 0.0000 0.0000 0.0000 49.0372
#
#
#
# Elastic Compliance Matrix: (Units=1/GPa)
#
#
# Indices 1 2 3 4 5 6 
#
# 1 0.019301 -0.000231 -0.005256 0.000000 0.000000 0.000000
# 2 -0.000231 0.009153 -0.001766 0.000000 0.000000 0.000000
# 3 -0.005256 -0.001766 0.014714 0.000000 0.000000 0.000000
# 4 0.000000 0.000000 0.000000 0.050838 0.000000 0.000000
# 5 0.000000 0.000000 0.000000 0.000000 0.087181 0.000000
# 6 0.000000 0.000000 0.000000 0.000000 0.000000 0.020393
#
#
# Mechanical properties :
#
#
# Convention : Reuss Voigt Hill
#
# Bulk Modulus (GPa) = 34.88970 36.89677 35.89324
# Shear Modulus (GPa) = 22.15913 29.71292 25.93603
#
# Velocity S-wave (km/s) = 3.11411 3.60604 3.36906
# Velocity P-wave (km/s) = 5.31030 5.78666 5.55359
#
# Compressibility (1/GPa) = 0.02866175
#
# Stress axis : x y z
#
# Youngs Moduli (GPa) = 51.80951 109.25223 67.96441
#
# Poissons Ratio (x) = 0.02528 0.35719
# Poissons Ratio (y) = 0.01199 0.12004
# Poissons Ratio (z) = 0.27229 0.19296
#
# Static dielectric constant tensor:
#      x y z
#    x 1.966780 0.000000 0.000000 
#    y 0.000000 1.815450 0.000000 
#    z 0.000000 0.000000 1.879930 
# 
# From -- ./inp_files/7118.got.cif
#   From: 2010.05.17/outbox.cif.g08.bks.cpg/sg45_4_cif.got.tgz:7118.got - 2010.06.03 19:51:22.
