data_PCOD9376913
_publ_section_title
;
Structure prediction by ZEFSAII (Michael W. Deem and Ramdas Pophale) SiO2 
 PCOD9376913
Probable space group: I B A 2
;
_chemical_formula_sum "Si O2"
_cell_formula_units_Z 40
_cell_length_a 9.015262
_cell_length_b 25.850723
_cell_length_c 7.626527
_cell_angle_alpha 90.000000
_cell_angle_beta 90.000000
_cell_angle_gamma 90.000000
_cell_volume 1777.370055
_symmetry_space_group_name_H-M "I B A 2"
_symmetry_group_IT_number 45
_symmetry_cell_setting 'orthorhombic'
loop_
_space_group_symop_operation_xyz
x,y,z
-x,-y,z
-x,y,1/2+z
x,-y,1/2+z
1/2+x,1/2+y,1/2+z
1/2-x,1/2-y,1/2+z
1/2-x,1/2+y,z
1/2+x,1/2-y,z
loop_
_atom_site_type_symbol
_atom_site_label
_atom_site_fract_x
_atom_site_fract_y
_atom_site_fract_z
Si Si1 0.338359 0.439896 0.345000
Si Si2 0.229041 0.865225 0.658311
Si Si3 0.963914 0.212914 0.825069
Si Si4 0.233557 0.242379 0.050740
Si Si5 0.188997 0.055310 0.435837
O O1 0.284145 0.396725 0.480121
O O2 0.270791 0.495477 0.402295
O O3 0.516337 0.442957 0.373975
O O4 0.304329 0.431866 0.140845
O O5 0.070966 0.840469 0.725441
O O6 0.309460 0.810840 0.619436
O O7 0.274879 0.904031 0.812457
O O8 0.888038 0.255500 0.698605
O O9 0.851146 0.215748 0.990935
O O10 0.125955 0.225186 0.890237
#
# Coordination Sequence:
#
# PCOD9376913 Si02
#       5
#     8   8   8   8   8
#     4  11  18  28  44  70 107 146 184 220 274 338
#     4  10  22  31  54  72 112 147 192 221 286 336
#     4  10  22  37  57  79 113 150 194 236 284 335
#     4  10  22  37  57  79 113 150 194 236 284 335
#     4  11  18  28  44  70 107 146 184 220 274 338
#
# _framework density 22.505161999999999
#
# number of rings (size 3 to 8) (size 9 to 14) (size 15 to 20)
#    1.200    0.400    4.000    3.600    0.000    1.600 
#    0.000    0.000    0.000    0.000    0.000    0.000 
#    0.000    4.800    0.000    0.400    0.000    0.000 
#
# Total GULP energy -111433.390760 kJ/mol
# GULP energy per Si atom -5571.669538 kJ/mol
# Density = 2.245394 g / cm^3
# Si number density = 22.505162 Si / 1000 Ang^3
#
#
#
# Elastic Constant Matrix: (Units=GPa)
#
#
# Indices 1 2 3 4 5 6 
#
# 1 31.7791 27.5934 16.6604 0.0010 -0.0003 0.0000
# 2 27.5934 114.8248 51.3467 0.0008 -0.0005 0.0000
# 3 16.6604 51.3467 165.5141 0.0102 0.0040 0.0015
# 4 0.0010 0.0008 0.0102 46.6761 0.0002 0.0010
# 5 -0.0003 -0.0005 0.0040 0.0002 17.6383 0.0011
# 6 0.0000 0.0000 0.0015 0.0010 0.0011 9.9708
#
#
#
# Elastic Compliance Matrix: (Units=1/GPa)
#
#
# Indices 1 2 3 4 5 6 
#
# 1 0.039973 -0.009064 -0.001212 0.000000 0.000001 0.000000
# 2 -0.009064 0.012167 -0.002862 0.000001 0.000001 0.000000
# 3 -0.001212 -0.002862 0.007052 -0.000001 -0.000002 -0.000001
# 4 0.000000 0.000001 -0.000001 0.021424 0.000000 -0.000002
# 5 0.000001 0.000001 -0.000002 0.000000 0.056695 -0.000006
# 6 0.000000 0.000000 -0.000001 -0.000002 -0.000006 0.100293
#
#
# Mechanical properties :
#
#
# Convention : Reuss Voigt Hill
#
# Bulk Modulus (GPa) = 30.38067 55.92431 43.15249
# Shear Modulus (GPa) = 18.19173 29.29156 23.74164
#
# Velocity S-wave (km/s) = 2.84621 3.61161 3.25151
# Velocity P-wave (km/s) = 4.93254 6.50347 5.77170
#
# Compressibility (1/GPa) = 0.03291567
#
# Stress axis : x y z
#
# Youngs Moduli (GPa) = 25.01714 82.19011 141.81062
#
# Poissons Ratio (x) = 0.74496 0.17184
# Poissons Ratio (y) = 0.22675 0.40588
# Poissons Ratio (z) = 0.03031 0.23524
#
# Static dielectric constant tensor:
#      x y z
#    x 1.845680 0.000000 0.000000 
#    y 0.000000 1.884360 0.000000 
#    z 0.000000 0.000000 2.013360 
# 
# From -- ./inp_files/1024.got.cif
#   From: 2010.05.17/outbox.cif.g08.bks.cpg/sg45_1_cif.got.tgz:1024.got - 2010.06.03 19:51:22.
