data_PCOD9376721
_publ_section_title
;
Structure prediction by ZEFSAII (Michael W. Deem and Ramdas Pophale) SiO2 
 PCOD9376721
Probable space group: I B A 2
;
_chemical_formula_sum "Si O2"
_cell_formula_units_Z 60
_cell_length_a 4.930213
_cell_length_b 25.357214
_cell_length_c 21.974826
_cell_angle_alpha 90.000000
_cell_angle_beta 90.000000
_cell_angle_gamma 90.000000
_cell_volume 2747.215090
_symmetry_space_group_name_H-M "I B A 2"
_symmetry_group_IT_number 45
_symmetry_cell_setting 'orthorhombic'
loop_
_space_group_symop_operation_xyz
x,y,z
-x,-y,z
-x,y,1/2+z
x,-y,1/2+z
1/2+x,1/2+y,1/2+z
1/2-x,1/2-y,1/2+z
1/2-x,1/2+y,z
1/2+x,1/2-y,z
loop_
_atom_site_type_symbol
_atom_site_label
_atom_site_fract_x
_atom_site_fract_y
_atom_site_fract_z
Si Si1 0.500000 0.000000 0.606130
Si Si2 0.403606 0.560298 0.872700
Si Si3 0.990759 0.602426 0.173804
Si Si4 0.122183 0.056457 0.009341
Si Si5 0.675424 0.214812 0.382660
Si Si6 0.337290 0.218053 0.026959
Si Si7 0.069843 0.612225 0.316738
Si Si8 0.007596 0.134293 0.602661
O O1 0.381188 0.044200 0.652840
O O2 0.650456 0.038907 0.557918
O O3 0.500000 0.500000 0.870545
O O4 0.123523 0.565130 0.838016
O O5 0.631290 0.597865 0.841916
O O6 0.332146 0.578134 0.942066
O O7 0.026069 0.613920 0.244631
O O8 0.781111 0.642529 0.140777
O O9 0.295877 0.607721 0.148997
O O10 0.927968 0.095069 0.046621
O O11 0.000000 0.000000 0.996475
O O12 0.476254 0.264334 0.368955
O O13 0.678562 0.204271 0.455484
O O14 0.556107 0.164844 0.347343
O O15 0.653975 0.229365 0.037005
O O16 0.183341 0.177521 0.070143
#
# Coordination Sequence:
#
# PCOD9376721 Si02
#       8
#     4   8   8   8   8   8   8   8
#     4  10  22  40  62  90 132 176 216 272 312 400
#     4  11  26  39  65  95 134 171 218 277 339 391
#     4  11  25  40  65  89 132 176 224 252 322 391
#     4  10  21  38  62  92 126 161 211 268 327 381
#     4  10  22  42  70  97 127 171 221 278 343 398
#     4  10  21  39  64  96 128 160 209 273 338 386
#     4  12  25  46  62  97 134 178 225 275 323 405
#     4  11  22  41  63  94 123 170 213 270 321 393
#
# _framework density 21.840299999999999
#
# number of rings (size 3 to 8) (size 9 to 14) (size 15 to 20)
#    0.000    1.333    1.333    3.600    5.600    3.200 
#    0.000    4.000    0.000    0.000    0.000    0.000 
#    0.000    0.000    0.000    0.000    0.000    0.000 
#
# Total GULP energy -167115.549769 kJ/mol
# GULP energy per Si atom -5570.518326 kJ/mol
# Density = 2.179059 g / cm^3
# Si number density = 21.840300 Si / 1000 Ang^3
#
#
#
# Elastic Constant Matrix: (Units=GPa)
#
#
# Indices 1 2 3 4 5 6 
#
# 1 92.1996 2.9561 26.1720 0.0000 0.0000 0.0000
# 2 2.9561 54.6139 39.6437 0.0000 0.0000 0.0000
# 3 26.1720 39.6437 148.1779 0.0000 0.0000 0.0000
# 4 0.0000 0.0000 0.0000 26.5641 0.0000 0.0000
# 5 0.0000 0.0000 0.0000 0.0000 89.9313 0.0000
# 6 0.0000 0.0000 0.0000 0.0000 0.0000 32.0014
#
#
#
# Elastic Compliance Matrix: (Units=1/GPa)
#
#
# Indices 1 2 3 4 5 6 
#
# 1 0.011467 0.001054 -0.002307 0.000000 0.000000 0.000000
# 2 0.001054 0.022820 -0.006292 0.000000 0.000000 0.000000
# 3 -0.002307 -0.006292 0.008839 0.000000 0.000000 0.000000
# 4 0.000000 0.000000 0.000000 0.037645 0.000000 0.000000
# 5 0.000000 0.000000 0.000000 0.000000 0.011120 0.000000
# 6 0.000000 0.000000 0.000000 0.000000 0.000000 0.031249
#
#
# Mechanical properties :
#
#
# Convention : Reuss Voigt Hill
#
# Bulk Modulus (GPa) = 35.66662 48.05947 41.86304
# Shear Modulus (GPa) = 33.88100 44.78067 39.33084
#
# Velocity S-wave (km/s) = 3.94294 4.53301 4.24823
# Velocity P-wave (km/s) = 6.09057 7.03209 6.57820
#
# Compressibility (1/GPa) = 0.02803742
#
# Stress axis : x y z
#
# Youngs Moduli (GPa) = 87.20497 43.82068 113.12915
#
# Poissons Ratio (x) = -0.04620 0.26104
# Poissons Ratio (y) = -0.09194 0.71176
# Poissons Ratio (z) = 0.20122 0.27570
#
# Static dielectric constant tensor:
#      x y z
#    x 1.795840 0.000000 0.000000 
#    y 0.000000 1.873700 0.000000 
#    z 0.000000 0.000000 1.912690 
# 
# From -- ./inp_files/8721.got.cif
#   From: 2010.05.17/outbox.cif.g08.bks.cpg/sg45_5_cif.got.tgz:8721.got - 2010.06.03 19:51:22.
