data_PCOD9376090
_publ_section_title
;
Structure prediction by ZEFSAII (Michael W. Deem and Ramdas Pophale) SiO2 
 PCOD9376090
Probable space group: I B A 2
;
_chemical_formula_sum "Si O2"
_cell_formula_units_Z 64
_cell_length_a 18.363658
_cell_length_b 9.027160
_cell_length_c 19.418045
_cell_angle_alpha 90.000000
_cell_angle_beta 90.000000
_cell_angle_gamma 90.000000
_cell_volume 3218.961922
_symmetry_space_group_name_H-M "I B A 2"
_symmetry_group_IT_number 45
_symmetry_cell_setting 'orthorhombic'
loop_
_space_group_symop_operation_xyz
x,y,z
-x,-y,z
-x,y,1/2+z
x,-y,1/2+z
1/2+x,1/2+y,1/2+z
1/2-x,1/2-y,1/2+z
1/2-x,1/2+y,z
1/2+x,1/2-y,z
loop_
_atom_site_type_symbol
_atom_site_label
_atom_site_fract_x
_atom_site_fract_y
_atom_site_fract_z
Si Si1 0.157440 0.580442 0.709720
Si Si2 0.171396 0.984773 0.019255
Si Si3 0.392141 0.110752 0.852360
Si Si4 0.814514 0.321340 0.562534
Si Si5 0.537132 0.641448 0.946852
Si Si6 0.779524 0.946216 0.864410
Si Si7 0.226513 0.299954 0.771911
Si Si8 0.064059 0.398395 0.964671
O O1 0.099770 0.617648 0.770050
O O2 0.146145 0.615637 0.630605
O O3 0.179616 0.411001 0.725737
O O4 0.226463 0.686759 0.727166
O O5 0.176706 0.143471 0.057546
O O6 0.230946 0.874746 0.053316
O O7 0.193001 0.020471 0.939911
O O8 0.092470 0.908709 0.007355
O O9 0.422525 0.250270 0.893792
O O10 0.305765 0.097833 0.866464
O O11 0.424886 0.964329 0.888280
O O12 0.858362 0.397880 0.500334
O O13 0.500000 0.500000 0.912521
O O14 0.468489 0.736263 0.971787
O O15 0.815550 0.805155 0.826438
O O16 0.779035 0.090753 0.815937
O O17 0.000000 0.500000 0.996330
#
# Coordination Sequence:
#
# PCOD9376090 Si02
#       8
#     8   8   8   8   8   8   8   8
#     4  10  20  36  56  88 127 164 200 255 319 373
#     4  12  23  35  62  96 129 159 217 261 320 372
#     4   9  19  38  63  85 117 157 211 259 313 365
#     4  12  24  38  61  94 129 166 211 261 317 390
#     4  11  22  39  61  92 124 161 207 270 313 375
#     4  10  17  32  59  91 116 147 201 261 311 349
#     4   8  17  31  52  81 124 153 189 249 316 360
#     4  10  22  42  62  87 124 167 211 259 320 372
#
# _framework density 19.882186999999998
#
# number of rings (size 3 to 8) (size 9 to 14) (size 15 to 20)
#    0.000    2.000    2.500    3.750    3.500    0.000 
#    0.000    1.875    2.750    0.000    0.000    0.000 
#    0.000    0.000    0.000    0.000    0.000    0.000 
#
# Total GULP energy -178308.874665 kJ/mol
# GULP energy per Si atom -5572.152333 kJ/mol
# Density = 1.983693 g / cm^3
# Si number density = 19.882187 Si / 1000 Ang^3
#
#
#
# Elastic Constant Matrix: (Units=GPa)
#
#
# Indices 1 2 3 4 5 6 
#
# 1 54.7405 12.5307 4.5626 0.0000 0.0000 0.0000
# 2 12.5307 111.9958 20.2126 0.0000 0.0000 0.0000
# 3 4.5626 20.2126 83.7132 0.0000 0.0000 0.0000
# 4 0.0000 0.0000 0.0000 21.1835 0.0000 0.0000
# 5 0.0000 0.0000 0.0000 0.0000 12.3256 0.0000
# 6 0.0000 0.0000 0.0000 0.0000 0.0000 29.2804
#
#
#
# Elastic Compliance Matrix: (Units=1/GPa)
#
#
# Indices 1 2 3 4 5 6 
#
# 1 0.018771 -0.002003 -0.000539 0.000000 0.000000 0.000000
# 2 -0.002003 0.009549 -0.002197 0.000000 0.000000 0.000000
# 3 -0.000539 -0.002197 0.012505 0.000000 0.000000 0.000000
# 4 0.000000 0.000000 0.000000 0.047206 0.000000 0.000000
# 5 0.000000 0.000000 0.000000 0.000000 0.081132 0.000000
# 6 0.000000 0.000000 0.000000 0.000000 0.000000 0.034153
#
#
# Mechanical properties :
#
#
# Convention : Reuss Voigt Hill
#
# Bulk Modulus (GPa) = 31.89962 36.11790 34.00876
# Shear Modulus (GPa) = 22.39697 26.76749 24.58223
#
# Velocity S-wave (km/s) = 3.35995 3.67318 3.52005
# Velocity P-wave (km/s) = 5.57957 6.01624 5.80201
#
# Compressibility (1/GPa) = 0.03134833
#
# Stress axis : x y z
#
# Youngs Moduli (GPa) = 53.27240 104.71833 79.96602
#
# Poissons Ratio (x) = 0.20974 0.04314
# Poissons Ratio (y) = 0.10670 0.17565
# Poissons Ratio (z) = 0.02874 0.23002
#
# Static dielectric constant tensor:
#      x y z
#    x 1.733750 0.000000 0.000000 
#    y 0.000000 1.806360 0.000000 
#    z 0.000000 0.000000 1.740490 
# 
# From -- ./inp_files/9317.got.cif
#   From: 2010.05.17/outbox.cif.g08.bks.cpg/sg45_5_cif.got.tgz:9317.got - 2010.06.03 19:51:22.
