data_PCOD9376894
_publ_section_title
;
Structure prediction by ZEFSAII (Michael W. Deem and Ramdas Pophale) SiO2 
 PCOD9376894
Probable space group: I B A 2
;
_chemical_formula_sum "Si O2"
_cell_formula_units_Z 48
_cell_length_a 14.164757
_cell_length_b 14.045784
_cell_length_c 9.307111
_cell_angle_alpha 90.000000
_cell_angle_beta 90.000000
_cell_angle_gamma 90.000000
_cell_volume 1851.697360
_symmetry_space_group_name_H-M "I B A 2"
_symmetry_group_IT_number 45
_symmetry_cell_setting 'orthorhombic'
loop_
_space_group_symop_operation_xyz
x,y,z
-x,-y,z
-x,y,1/2+z
x,-y,1/2+z
1/2+x,1/2+y,1/2+z
1/2-x,1/2-y,1/2+z
1/2-x,1/2+y,z
1/2+x,1/2-y,z
loop_
_atom_site_type_symbol
_atom_site_label
_atom_site_fract_x
_atom_site_fract_y
_atom_site_fract_z
Si Si1 0.010960 0.215912 0.824660
Si Si2 0.136077 0.937906 0.206549
Si Si3 0.888686 0.604961 0.878332
Si Si4 0.841729 0.421516 0.691155
Si Si5 0.702381 0.708727 0.774619
Si Si6 0.366628 0.603851 0.025868
O O1 0.156151 0.050775 0.876892
O O2 0.028417 0.328459 0.813588
O O3 0.903180 0.182637 0.826511
O O4 0.059296 0.182955 0.972865
O O5 0.237313 0.946907 0.131254
O O6 0.077084 0.840605 0.209745
O O7 0.089579 0.028062 0.133648
O O8 0.876442 0.505496 0.795040
O O9 0.792495 0.668191 0.856979
O O10 0.903396 0.590337 0.048026
O O11 0.811082 0.322055 0.765781
O O12 0.710746 0.662842 0.614879
#
# Coordination Sequence:
#
# PCOD9376894 Si02
#       6
#     8   8   8   8   8   8
#     4  10  26  49  70 107 151 195 243 304 367 439
#     4  10  21  44  69 105 145 186 236 302 362 430
#     4  12  27  50  76 111 152 192 258 301 376 442
#     4  12  25  47  78 110 144 203 248 308 367 447
#     4  12  25  48  76 104 154 197 245 307 376 440
#     4  10  22  46  65 111 144 190 244 296 370 444
#
# _framework density 25.922163999999999
#
# number of rings (size 3 to 8) (size 9 to 14) (size 15 to 20)
#    1.000    0.000    5.000    1.000    0.000    2.667 
#    9.000    1.667    0.000    0.000    0.000    0.000 
#    0.000    0.000    0.000    0.000    0.000    0.000 
#
# Total GULP energy -134030.281050 kJ/mol
# GULP energy per Si atom -5584.595044 kJ/mol
# Density = 2.586316 g / cm^3
# Si number density = 25.922164 Si / 1000 Ang^3
#
#
#
# Elastic Constant Matrix: (Units=GPa)
#
#
# Indices 1 2 3 4 5 6 
#
# 1 49.2804 -3.8873 1.9249 0.0000 0.0000 0.0000
# 2 -3.8873 169.3244 52.2668 0.0000 0.0000 0.0000
# 3 1.9249 52.2668 124.4631 0.0000 0.0000 0.0000
# 4 0.0000 0.0000 0.0000 44.0603 0.0000 0.0000
# 5 0.0000 0.0000 0.0000 0.0000 29.9293 0.0000
# 6 0.0000 0.0000 0.0000 0.0000 0.0000 27.2570
#
#
#
# Elastic Compliance Matrix: (Units=1/GPa)
#
#
# Indices 1 2 3 4 5 6 
#
# 1 0.020366 0.000649 -0.000587 0.000000 0.000000 0.000000
# 2 0.000649 0.006806 -0.002868 0.000000 0.000000 0.000000
# 3 -0.000587 -0.002868 0.009248 0.000000 0.000000 0.000000
# 4 0.000000 0.000000 0.000000 0.022696 0.000000 0.000000
# 5 0.000000 0.000000 0.000000 0.000000 0.033412 0.000000
# 6 0.000000 0.000000 0.000000 0.000000 0.000000 0.036688
#
#
# Mechanical properties :
#
#
# Convention : Reuss Voigt Hill
#
# Bulk Modulus (GPa) = 32.46032 49.29738 40.87885
# Shear Modulus (GPa) = 34.45927 39.76687 37.11307
#
# Velocity S-wave (km/s) = 3.64996 3.92099 3.78790
# Velocity P-wave (km/s) = 5.50567 6.28949 5.91059
#
# Compressibility (1/GPa) = 0.03080684
#
# Stress axis : x y z
#
# Youngs Moduli (GPa) = 49.10101 146.92786 108.13095
#
# Poissons Ratio (x) = -0.09534 0.06352
# Poissons Ratio (y) = -0.03186 0.31014
# Poissons Ratio (z) = 0.02885 0.42141
#
# Static dielectric constant tensor:
#      x y z
#    x 2.220890 0.000000 0.000000 
#    y 0.000000 2.151650 0.000000 
#    z 0.000000 0.000000 2.058670 
# 
# From -- ./inp_files/4419.got.cif
#   From: 2010.05.17/outbox.cif.g08.bks.cpg/sg45_3_cif.got.tgz:4419.got - 2010.06.03 19:51:22.
