data_PCOD9376730
_publ_section_title
;
Structure prediction by ZEFSAII (Michael W. Deem and Ramdas Pophale) SiO2 
 PCOD9376730
Probable space group: I B A 2
;
_chemical_formula_sum "Si O2"
_cell_formula_units_Z 44
_cell_length_a 19.631418
_cell_length_b 5.666002
_cell_length_c 16.358088
_cell_angle_alpha 90.000000
_cell_angle_beta 90.000000
_cell_angle_gamma 90.000000
_cell_volume 1819.537179
_symmetry_space_group_name_H-M "I B A 2"
_symmetry_group_IT_number 45
_symmetry_cell_setting 'orthorhombic'
loop_
_space_group_symop_operation_xyz
x,y,z
-x,-y,z
-x,y,1/2+z
x,-y,1/2+z
1/2+x,1/2+y,1/2+z
1/2-x,1/2-y,1/2+z
1/2-x,1/2+y,z
1/2+x,1/2-y,z
loop_
_atom_site_type_symbol
_atom_site_label
_atom_site_fract_x
_atom_site_fract_y
_atom_site_fract_z
Si Si1 0.600280 0.181103 0.037690
Si Si2 0.500000 0.500000 0.463355
Si Si3 0.261757 0.648226 0.986569
Si Si4 0.583639 0.988782 0.212975
Si Si5 0.573796 0.131281 0.388840
Si Si6 0.214289 0.271253 0.672083
O O1 0.527472 0.295875 0.020256
O O2 0.660028 0.356227 0.014326
O O3 0.604501 0.129717 0.132284
O O4 0.606680 0.972245 0.970911
O O5 0.558285 0.403330 0.404698
O O6 0.247722 0.400960 0.942598
O O7 0.221906 0.693096 0.072917
O O8 0.605408 0.085769 0.301316
O O9 0.500000 0.000000 0.211051
O O10 0.634400 0.764815 0.199086
O O11 0.500000 0.000000 0.383415
O O12 0.249300 0.524419 0.698401
#
# Coordination Sequence:
#
# PCOD9376730 Si02
#       6
#     8   4   8   8   8   8
#     4  11  22  40  67  96 131 184 232 288 363 436
#     4  10  22  40  64  94 142 178 232 310 352 442
#     4  10  21  38  66  94 134 180 228 285 352 424
#     4  11  22  42  70 103 135 186 243 300 365 441
#     4   9  22  42  59  97 141 177 231 299 360 425
#     4  10  21  43  66  96 143 185 229 296 360 427
#
# _framework density 24.181972999999999
#
# number of rings (size 3 to 8) (size 9 to 14) (size 15 to 20)
#    0.000    1.818    3.636    1.636    2.545    3.636 
#    9.818    1.818    0.000    0.000    0.000    0.000 
#    0.000    0.000    0.000    0.000    0.000    0.000 
#
# Total GULP energy -122496.601125 kJ/mol
# GULP energy per Si atom -5568.027324 kJ/mol
# Density = 2.412693 g / cm^3
# Si number density = 24.181973 Si / 1000 Ang^3
#
#
#
# Elastic Constant Matrix: (Units=GPa)
#
#
# Indices 1 2 3 4 5 6 
#
# 1 99.2710 17.5923 8.6062 0.0000 0.0000 0.0000
# 2 17.5923 131.0976 25.2071 0.0000 0.0000 0.0000
# 3 8.6062 25.2071 110.5987 0.0000 0.0000 0.0000
# 4 0.0000 0.0000 0.0000 5.0258 0.0000 0.0000
# 5 0.0000 0.0000 0.0000 0.0000 9.7907 0.0000
# 6 0.0000 0.0000 0.0000 0.0000 0.0000 37.4814
#
#
#
# Elastic Compliance Matrix: (Units=1/GPa)
#
#
# Indices 1 2 3 4 5 6 
#
# 1 0.010346 -0.001290 -0.000511 0.000000 0.000000 0.000000
# 2 -0.001290 0.008138 -0.001754 0.000000 0.000000 0.000000
# 3 -0.000511 -0.001754 0.009481 0.000000 0.000000 0.000000
# 4 0.000000 0.000000 0.000000 0.198972 0.000000 0.000000
# 5 0.000000 0.000000 0.000000 0.000000 0.102137 0.000000
# 6 0.000000 0.000000 0.000000 0.000000 0.000000 0.026680
#
#
# Mechanical properties :
#
#
# Convention : Reuss Voigt Hill
#
# Bulk Modulus (GPa) = 47.95070 49.30873 48.62971
# Shear Modulus (GPa) = 13.52017 29.76371 21.64194
#
# Velocity S-wave (km/s) = 2.36710 3.51211 2.99484
# Velocity P-wave (km/s) = 5.22906 6.07302 5.66677
#
# Compressibility (1/GPa) = 0.02085475
#
# Stress axis : x y z
#
# Youngs Moduli (GPa) = 96.65219 122.87465 105.47042
#
# Poissons Ratio (x) = 0.15853 0.05390
# Poissons Ratio (y) = 0.12469 0.18504
# Poissons Ratio (z) = 0.04940 0.21558
#
# Static dielectric constant tensor:
#      x y z
#    x 2.068620 0.000000 0.000000 
#    y 0.000000 2.038380 0.000000 
#    z 0.000000 0.000000 1.879110 
# 
# From -- ./inp_files/8481.got.cif
#   From: 2010.05.17/outbox.cif.g08.bks.cpg/sg45_5_cif.got.tgz:8481.got - 2010.06.03 19:51:22.
