data_PCOD9376136
_publ_section_title
;
Structure prediction by ZEFSAII (Michael W. Deem and Ramdas Pophale) SiO2 
 PCOD9376136
Probable space group: I B A 2
;
_chemical_formula_sum "Si O2"
_cell_formula_units_Z 64
_cell_length_a 17.444937
_cell_length_b 9.686966
_cell_length_c 16.260331
_cell_angle_alpha 90.000000
_cell_angle_beta 90.000000
_cell_angle_gamma 90.000000
_cell_volume 2747.809134
_symmetry_space_group_name_H-M "I B A 2"
_symmetry_group_IT_number 45
_symmetry_cell_setting 'orthorhombic'
loop_
_space_group_symop_operation_xyz
x,y,z
-x,-y,z
-x,y,1/2+z
x,-y,1/2+z
1/2+x,1/2+y,1/2+z
1/2-x,1/2-y,1/2+z
1/2-x,1/2+y,z
1/2+x,1/2-y,z
loop_
_atom_site_type_symbol
_atom_site_label
_atom_site_fract_x
_atom_site_fract_y
_atom_site_fract_z
Si Si1 0.425506 0.220068 0.344400
Si Si2 0.297429 0.173740 0.654488
Si Si3 0.734343 0.115048 0.790968
Si Si4 0.408642 0.813711 0.288453
Si Si5 0.359617 0.669366 0.998677
Si Si6 0.645568 0.600526 0.076284
Si Si7 0.804436 0.282488 0.936129
Si Si8 0.379710 0.485328 0.253891
O O1 0.354403 0.137413 0.306961
O O2 0.503808 0.162024 0.309343
O O3 0.411963 0.234829 0.441820
O O4 0.417187 0.380193 0.316690
O O5 0.253315 0.282615 0.714030
O O6 0.364128 0.114400 0.713073
O O7 0.342306 0.258747 0.584961
O O8 0.235667 0.083676 0.603709
O O9 0.772453 0.158811 0.878305
O O10 0.786922 0.984026 0.768537
O O11 0.361703 0.850092 0.371360
O O12 0.402652 0.646039 0.267540
O O13 0.388719 0.517349 0.018272
O O14 0.275202 0.646211 0.958986
O O15 0.604479 0.579103 0.163856
O O16 0.651955 0.735126 0.018712
#
# Coordination Sequence:
#
# PCOD9376136 Si02
#       8
#     8   8   8   8   8   8   8   8
#     4  11  21  34  58  81 114 154 172 227 303 338
#     4   9  18  34  55  80 107 143 187 236 265 335
#     4   9  17  35  52  79 106 144 191 225 267 333
#     4  10  20  39  50  82 124 146 177 226 295 351
#     4  10  18  33  55  84 104 142 192 232 273 318
#     4  11  17  31  57  84 105 137 191 236 274 308
#     4   8  19  32  52  79 109 139 187 227 267 334
#     4  10  19  32  55  84 108 140 189 231 266 337
#
# _framework density 23.291283
#
# number of rings (size 3 to 8) (size 9 to 14) (size 15 to 20)
#    0.000    2.500    3.750    1.875    0.000    0.000 
#    2.250    0.000    0.000    0.750    6.500    0.000 
#    0.000    0.000    0.000    0.000    0.000    0.000 
#
# Total GULP energy -178355.195811 kJ/mol
# GULP energy per Si atom -5573.599869 kJ/mol
# Density = 2.323827 g / cm^3
# Si number density = 23.291283 Si / 1000 Ang^3
#
#
#
# Elastic Constant Matrix: (Units=GPa)
#
#
# Indices 1 2 3 4 5 6 
#
# 1 117.8485 -11.8261 26.4301 0.0000 0.0000 0.0000
# 2 -11.8261 50.2321 18.2142 0.0000 0.0000 0.0000
# 3 26.4301 18.2142 130.7242 0.0000 0.0000 0.0000
# 4 0.0000 0.0000 0.0000 31.9506 0.0000 0.0000
# 5 0.0000 0.0000 0.0000 0.0000 16.2251 0.0000
# 6 0.0000 0.0000 0.0000 0.0000 0.0000 16.4227
#
#
#
# Elastic Compliance Matrix: (Units=1/GPa)
#
#
# Indices 1 2 3 4 5 6 
#
# 1 0.009306 0.003026 -0.002303 0.000000 0.000000 0.000000
# 2 0.003026 0.021951 -0.003670 0.000000 0.000000 0.000000
# 3 -0.002303 -0.003670 0.008627 0.000000 0.000000 0.000000
# 4 0.000000 0.000000 0.000000 0.031298 0.000000 0.000000
# 5 0.000000 0.000000 0.000000 0.000000 0.061633 0.000000
# 6 0.000000 0.000000 0.000000 0.000000 0.000000 0.060891
#
#
# Mechanical properties :
#
#
# Convention : Reuss Voigt Hill
#
# Bulk Modulus (GPa) = 29.42182 40.49346 34.95764
# Shear Modulus (GPa) = 23.70453 30.65212 27.17832
#
# Velocity S-wave (km/s) = 3.19367 3.63165 3.41968
# Velocity P-wave (km/s) = 5.12434 5.91681 5.53478
#
# Compressibility (1/GPa) = 0.03398838
#
# Stress axis : x y z
#
# Youngs Moduli (GPa) = 107.46187 45.55638 115.91899
#
# Poissons Ratio (x) = -0.13785 0.26697
# Poissons Ratio (y) = -0.32517 0.42545
# Poissons Ratio (z) = 0.24749 0.16720
#
# Static dielectric constant tensor:
#      x y z
#    x 1.925540 0.000000 0.000000 
#    y 0.000000 2.006830 0.000000 
#    z 0.000000 0.000000 1.912770 
# 
# From -- ./inp_files/6858.got.cif
#   From: 2010.05.17/outbox.cif.g08.bks.cpg/sg45_4_cif.got.tgz:6858.got - 2010.06.03 19:51:22.
