data_PCOD9376957
_publ_section_title
;
Structure prediction by ZEFSAII (Michael W. Deem and Ramdas Pophale) SiO2 
 PCOD9376957
Probable space group: I B A 2
;
_chemical_formula_sum "Si O2"
_cell_formula_units_Z 52
_cell_length_a 9.762704
_cell_length_b 24.101806
_cell_length_c 9.111720
_cell_angle_alpha 90.000000
_cell_angle_beta 90.000000
_cell_angle_gamma 90.000000
_cell_volume 2143.976762
_symmetry_space_group_name_H-M "I B A 2"
_symmetry_group_IT_number 45
_symmetry_cell_setting 'orthorhombic'
loop_
_space_group_symop_operation_xyz
x,y,z
-x,-y,z
-x,y,1/2+z
x,-y,1/2+z
1/2+x,1/2+y,1/2+z
1/2-x,1/2-y,1/2+z
1/2-x,1/2+y,z
1/2+x,1/2-y,z
loop_
_atom_site_type_symbol
_atom_site_label
_atom_site_fract_x
_atom_site_fract_y
_atom_site_fract_z
Si Si1 0.630648 0.375786 0.008050
Si Si2 0.408294 0.212351 0.658945
Si Si3 0.790007 0.020989 0.321419
Si Si4 0.860617 0.896175 0.344606
Si Si5 0.844173 0.592751 0.088808
Si Si6 0.000000 0.500000 0.956342
Si Si7 0.180439 0.727832 0.974618
O O1 0.633080 0.372669 0.182430
O O2 0.668049 0.436846 0.949233
O O3 0.479897 0.368810 0.941130
O O4 0.738569 0.330287 0.955624
O O5 0.390641 0.146231 0.676677
O O6 0.293572 0.231972 0.543453
O O7 0.555986 0.223723 0.589343
O O8 0.380102 0.241364 0.814576
O O9 0.774095 0.056813 0.171973
O O10 0.872581 0.963472 0.321882
O O11 0.633973 0.005719 0.359322
O O12 0.720760 0.888796 0.434090
O O13 0.972597 0.553575 0.055697
#
# Coordination Sequence:
#
# PCOD9376957 Si02
#       7
#     8   8   8   8   8   4   8
#     4  12  26  46  72 109 151 202 258 323 388 474
#     4  12  29  53  82 118 155 210 261 342 388 485
#     4  11  22  44  65 107 147 204 250 320 383 480
#     4  11  26  41  74 103 156 198 254 313 396 463
#     4  11  24  44  74 110 153 206 256 317 393 473
#     4  10  22  38  72 106 152 194 258 308 390 472
#     4  12  30  52  86 112 161 199 276 324 412 458
#
# _framework density 24.253993999999999
#
# number of rings (size 3 to 8) (size 9 to 14) (size 15 to 20)
#    0.000    0.615    1.538    5.538    6.462    3.692 
#    0.000    0.000    0.000    0.000    0.000    0.000 
#    0.000    0.000    0.000    0.000    0.000    0.000 
#
# Total GULP energy -145667.899365 kJ/mol
# GULP energy per Si atom -5602.611514 kJ/mol
# Density = 2.419879 g / cm^3
# Si number density = 24.253994 Si / 1000 Ang^3
#
#
#
# Elastic Constant Matrix: (Units=GPa)
#
#
# Indices 1 2 3 4 5 6 
#
# 1 108.5015 33.5152 15.6139 0.0000 -0.0001 0.0000
# 2 33.5152 87.2842 21.4819 0.0000 0.0001 0.0000
# 3 15.6139 21.4819 102.5324 -0.0009 -0.0004 0.0004
# 4 0.0000 0.0000 -0.0009 24.1767 0.0000 0.0000
# 5 -0.0001 0.0001 -0.0004 0.0000 32.1686 0.0000
# 6 0.0000 0.0000 0.0004 0.0000 0.0000 43.7316
#
#
#
# Elastic Compliance Matrix: (Units=1/GPa)
#
#
# Indices 1 2 3 4 5 6 
#
# 1 0.010518 -0.003843 -0.000797 0.000000 0.000000 0.000000
# 2 -0.003843 0.013484 -0.002240 0.000000 0.000000 0.000000
# 3 -0.000797 -0.002240 0.010344 0.000000 0.000000 0.000000
# 4 0.000000 0.000000 0.000000 0.041362 0.000000 0.000000
# 5 0.000000 0.000000 0.000000 0.000000 0.031086 0.000000
# 6 0.000000 0.000000 0.000000 0.000000 0.000000 0.022867
#
#
# Mechanical properties :
#
#
# Convention : Reuss Voigt Hill
#
# Bulk Modulus (GPa) = 48.57424 48.83779 48.70601
# Shear Modulus (GPa) = 33.27102 35.19584 34.23343
#
# Velocity S-wave (km/s) = 3.70777 3.81351 3.76101
# Velocity P-wave (km/s) = 6.19684 6.29048 6.24384
#
# Compressibility (1/GPa) = 0.02058704
#
# Stress axis : x y z
#
# Youngs Moduli (GPa) = 95.07459 74.16439 96.67817
#
# Poissons Ratio (x) = 0.28499 0.07702
# Poissons Ratio (y) = 0.36534 0.21654
# Poissons Ratio (z) = 0.07574 0.16611
#
# Static dielectric constant tensor:
#      x y z
#    x 1.900000 0.000000 0.000000 
#    y 0.000000 1.988720 0.000000 
#    z 0.000000 0.000000 1.930890 
# 
# From -- ./inp_files/1407.got.cif
#   From: 2010.05.17/outbox.cif.g08.bks.cpg/sg45_1_cif.got.tgz:1407.got - 2010.06.03 19:51:22.
