data_PCOD9376507
_publ_section_title
;
Structure prediction by ZEFSAII (Michael W. Deem and Ramdas Pophale) SiO2 
 PCOD9376507
Probable space group: I B A 2
;
_chemical_formula_sum "Si O2"
_cell_formula_units_Z 56
_cell_length_a 17.879707
_cell_length_b 14.037095
_cell_length_c 9.358864
_cell_angle_alpha 90.000000
_cell_angle_beta 90.000000
_cell_angle_gamma 90.000000
_cell_volume 2348.879692
_symmetry_space_group_name_H-M "I B A 2"
_symmetry_group_IT_number 45
_symmetry_cell_setting 'orthorhombic'
loop_
_space_group_symop_operation_xyz
x,y,z
-x,-y,z
-x,y,1/2+z
x,-y,1/2+z
1/2+x,1/2+y,1/2+z
1/2-x,1/2-y,1/2+z
1/2-x,1/2+y,z
1/2+x,1/2-y,z
loop_
_atom_site_type_symbol
_atom_site_label
_atom_site_fract_x
_atom_site_fract_y
_atom_site_fract_z
Si Si1 0.748825 0.724299 0.032010
Si Si2 0.402601 0.622868 0.501369
Si Si3 0.158736 0.578543 0.031516
Si Si4 0.973604 0.309682 0.126591
Si Si5 0.892012 0.952797 0.815350
Si Si6 0.279337 0.073333 0.743046
Si Si7 0.909691 0.748782 0.931442
O O1 0.709817 0.826502 0.050834
O O2 0.773349 0.680494 0.184245
O O3 0.683979 0.652429 0.982500
O O4 0.821246 0.727200 0.932224
O O5 0.442851 0.722781 0.526664
O O6 0.422474 0.552045 0.374553
O O7 0.413573 0.569174 0.652345
O O8 0.075528 0.599706 0.085151
O O9 0.198820 0.494259 0.113700
O O10 0.159314 0.560511 0.863907
O O11 0.952282 0.287800 0.289772
O O12 0.058198 0.303114 0.072924
O O13 0.801374 0.953733 0.808414
O O14 0.913688 0.864064 0.917928
#
# Coordination Sequence:
#
# PCOD9376507 Si02
#       7
#     8   8   8   8   8   8   8
#     4  10  23  40  70  98 136 173 228 289 347 405
#     4   9  21  40  64 100 131 168 224 282 346 407
#     4  11  25  43  71 106 138 175 235 290 356 412
#     4  10  26  44  66  93 137 187 227 275 348 425
#     4  10  20  38  64 100 131 165 223 279 344 401
#     4  11  23  40  70 107 130 175 226 287 354 404
#     4  11  24  45  64  94 136 185 227 279 344 420
#
# _framework density 23.841152000000001
#
# number of rings (size 3 to 8) (size 9 to 14) (size 15 to 20)
#    0.000    1.714    1.429    2.571    6.000    2.857 
#    0.000    3.571    0.000    0.000    0.000    0.000 
#    0.000    0.000    0.000    0.000    0.000    0.000 
#
# Total GULP energy -156606.948328 kJ/mol
# GULP energy per Si atom -5593.105297 kJ/mol
# Density = 2.378689 g / cm^3
# Si number density = 23.841152 Si / 1000 Ang^3
#
#
#
# Elastic Constant Matrix: (Units=GPa)
#
#
# Indices 1 2 3 4 5 6 
#
# 1 86.0852 2.6081 11.7298 0.0000 0.0000 0.0000
# 2 2.6081 39.5744 26.6045 0.0000 0.0000 0.0000
# 3 11.7298 26.6045 62.6036 0.0000 0.0000 0.0000
# 4 0.0000 0.0000 0.0000 19.7274 0.0000 0.0000
# 5 0.0000 0.0000 0.0000 0.0000 32.3900 0.0000
# 6 0.0000 0.0000 0.0000 0.0000 0.0000 31.0338
#
#
#
# Elastic Compliance Matrix: (Units=1/GPa)
#
#
# Indices 1 2 3 4 5 6 
#
# 1 0.011949 0.001005 -0.002666 0.000000 0.000000 0.000000
# 2 0.001005 0.035460 -0.015257 0.000000 0.000000 0.000000
# 3 -0.002666 -0.015257 0.022957 0.000000 0.000000 0.000000
# 4 0.000000 0.000000 0.000000 0.050691 0.000000 0.000000
# 5 0.000000 0.000000 0.000000 0.000000 0.030874 0.000000
# 6 0.000000 0.000000 0.000000 0.000000 0.000000 0.032223
#
#
# Mechanical properties :
#
#
# Convention : Reuss Voigt Hill
#
# Bulk Modulus (GPa) = 27.37585 30.01645 28.69615
# Shear Modulus (GPa) = 21.72337 26.45162 24.08749
#
# Velocity S-wave (km/s) = 3.02184 3.33452 3.18202
# Velocity P-wave (km/s) = 4.86650 5.23860 5.05597
#
# Compressibility (1/GPa) = 0.03652855
#
# Stress axis : x y z
#
# Youngs Moduli (GPa) = 83.68764 28.20105 43.55984
#
# Poissons Ratio (x) = -0.02833 0.11612
# Poissons Ratio (y) = -0.08407 0.66461
# Poissons Ratio (z) = 0.22310 0.43028
#
# Static dielectric constant tensor:
#      x y z
#    x 1.997290 0.000000 0.000000 
#    y 0.000000 1.876400 0.000000 
#    z 0.000000 0.000000 1.886530 
# 
# From -- ./inp_files/2327.got.cif
#   From: 2010.05.17/outbox.cif.g08.bks.cpg/sg45_2_cif.got.tgz:2327.got - 2010.06.03 19:51:22.
