data_PCOD9376398
_publ_section_title
;
Structure prediction by ZEFSAII (Michael W. Deem and Ramdas Pophale) SiO2 
 PCOD9376398
Probable space group: I B A 2
;
_chemical_formula_sum "Si O2"
_cell_formula_units_Z 52
_cell_length_a 25.728820
_cell_length_b 10.091244
_cell_length_c 9.367700
_cell_angle_alpha 90.000000
_cell_angle_beta 90.000000
_cell_angle_gamma 90.000000
_cell_volume 2432.190288
_symmetry_space_group_name_H-M "I B A 2"
_symmetry_group_IT_number 45
_symmetry_cell_setting 'orthorhombic'
loop_
_space_group_symop_operation_xyz
x,y,z
-x,-y,z
-x,y,1/2+z
x,-y,1/2+z
1/2+x,1/2+y,1/2+z
1/2-x,1/2-y,1/2+z
1/2-x,1/2+y,z
1/2+x,1/2-y,z
loop_
_atom_site_type_symbol
_atom_site_label
_atom_site_fract_x
_atom_site_fract_y
_atom_site_fract_z
Si Si1 0.606501 0.565343 0.752710
Si Si2 0.500000 0.500000 0.651294
Si Si3 0.751673 0.116698 0.168344
Si Si4 0.127606 0.340086 0.143030
Si Si5 0.904751 0.157265 0.057752
Si Si6 0.882552 0.565109 0.449122
Si Si7 0.762587 0.627297 0.488938
O O1 0.543709 0.570191 0.745206
O O2 0.622626 0.682386 0.646020
O O3 0.620480 0.420853 0.691574
O O4 0.621645 0.602650 0.912471
O O5 0.464182 0.603375 0.565090
O O6 0.688991 0.132568 0.156779
O O7 0.771292 0.232920 0.065869
O O8 0.765224 0.134401 0.335141
O O9 0.763569 0.973380 0.101160
O O10 0.102111 0.398233 0.288253
O O11 0.104537 0.421034 0.010535
O O12 0.901544 0.314834 0.050503
O O13 0.819916 0.572719 0.454195
#
# Coordination Sequence:
#
# PCOD9376398 Si02
#       7
#     8   4   8   8   8   8   8
#     4   9  18  32  52  75 100 129 167 207 251 301
#     4   8  18  32  56  72 106 128 168 208 262 292
#     4  10  20  35  54  75 105 138 174 216 261 309
#     4   9  19  35  52  75 103 134 170 211 253 304
#     4   9  18  32  52  75 100 129 167 207 251 301
#     4   9  19  35  52  75 103 134 170 211 253 304
#     4  10  20  35  54  75 105 138 174 216 261 309
#
# _framework density 21.379905000000001
#
# number of rings (size 3 to 8) (size 9 to 14) (size 15 to 20)
#    0.923    1.846    0.000    1.385    0.000    3.692 
#    0.000    3.846    0.000    3.692    0.000    0.000 
#    0.000    0.000    0.000    0.000    0.000    0.000 
#
# Total GULP energy -144797.573979 kJ/mol
# GULP energy per Si atom -5569.137461 kJ/mol
# Density = 2.133124 g / cm^3
# Si number density = 21.379905 Si / 1000 Ang^3
#
#
#
# Elastic Constant Matrix: (Units=GPa)
#
#
# Indices 1 2 3 4 5 6 
#
# 1 30.2212 5.9594 1.4347 0.0000 0.0000 0.0000
# 2 5.9594 41.5292 6.1616 0.0000 0.0000 0.0000
# 3 1.4347 6.1616 61.8090 0.0000 0.0000 0.0000
# 4 0.0000 0.0000 0.0000 8.3035 0.0000 0.0000
# 5 0.0000 0.0000 0.0000 0.0000 11.1412 0.0000
# 6 0.0000 0.0000 0.0000 0.0000 0.0000 14.6055
#
#
#
# Elastic Compliance Matrix: (Units=1/GPa)
#
#
# Indices 1 2 3 4 5 6 
#
# 1 0.034059 -0.004842 -0.000308 0.000000 0.000000 0.000000
# 2 -0.004842 0.025129 -0.002393 0.000000 0.000000 0.000000
# 3 -0.000308 -0.002393 0.016425 0.000000 0.000000 0.000000
# 4 0.000000 0.000000 0.000000 0.120431 0.000000 0.000000
# 5 0.000000 0.000000 0.000000 0.000000 0.089757 0.000000
# 6 0.000000 0.000000 0.000000 0.000000 0.000000 0.068468
#
#
# Mechanical properties :
#
#
# Convention : Reuss Voigt Hill
#
# Bulk Modulus (GPa) = 16.52131 17.85232 17.18682
# Shear Modulus (GPa) = 12.83602 14.81028 13.82315
#
# Velocity S-wave (km/s) = 2.45292 2.63481 2.54549
# Velocity P-wave (km/s) = 3.97073 4.19815 4.08602
#
# Compressibility (1/GPa) = 0.06052787
#
# Stress axis : x y z
#
# Youngs Moduli (GPa) = 29.36102 39.79428 60.88451
#
# Poissons Ratio (x) = 0.19267 0.01875
# Poissons Ratio (y) = 0.14216 0.14568
# Poissons Ratio (z) = 0.00904 0.09522
#
# Static dielectric constant tensor:
#      x y z
#    x 1.804140 0.000000 0.000000 
#    y 0.000000 1.785140 0.000000 
#    z 0.000000 0.000000 1.810210 
# 
# From -- ./inp_files/4935.got.cif
#   From: 2010.05.17/outbox.cif.g08.bks.cpg/sg45_3_cif.got.tgz:4935.got - 2010.06.03 19:51:22.
