data_PCOD9376453
_publ_section_title
;
Structure prediction by ZEFSAII (Michael W. Deem and Ramdas Pophale) SiO2 
 PCOD9376453
Probable space group: I B A 2
;
_chemical_formula_sum "Si O2"
_cell_formula_units_Z 56
_cell_length_a 19.441069
_cell_length_b 8.243535
_cell_length_c 15.023285
_cell_angle_alpha 90.000000
_cell_angle_beta 90.000000
_cell_angle_gamma 90.000000
_cell_volume 2407.678718
_symmetry_space_group_name_H-M "I B A 2"
_symmetry_group_IT_number 45
_symmetry_cell_setting 'orthorhombic'
loop_
_space_group_symop_operation_xyz
x,y,z
-x,-y,z
-x,y,1/2+z
x,-y,1/2+z
1/2+x,1/2+y,1/2+z
1/2-x,1/2-y,1/2+z
1/2-x,1/2+y,z
1/2+x,1/2-y,z
loop_
_atom_site_type_symbol
_atom_site_label
_atom_site_fract_x
_atom_site_fract_y
_atom_site_fract_z
Si Si1 0.476584 0.772790 0.265610
Si Si2 0.586022 0.643981 0.604682
Si Si3 0.840515 0.025598 0.963208
Si Si4 0.471529 0.270687 0.963879
Si Si5 0.874447 0.494609 0.045812
Si Si6 0.704424 0.171723 0.899226
Si Si7 0.617868 0.089249 0.729851
O O1 0.438497 0.634463 0.206857
O O2 0.502719 0.764885 0.367420
O O3 0.549083 0.803006 0.216412
O O4 0.421684 0.922347 0.260746
O O5 0.642380 0.517144 0.567474
O O6 0.522406 0.653971 0.535648
O O7 0.611061 0.828162 0.586968
O O8 0.822252 0.850584 0.923503
O O9 0.911661 0.106184 0.935424
O O10 0.783701 0.149909 0.926502
O O11 0.437099 0.111865 0.008040
O O12 0.846154 0.407899 0.133227
O O13 0.827961 0.534271 0.962669
O O14 0.674681 0.135844 0.801951
#
# Coordination Sequence:
#
# PCOD9376453 Si02
#       7
#     8   8   8   8   8   8   8
#     4  10  20  36  69 104 134 170 218 277 350 409
#     4  10  22  41  64 103 140 167 226 287 351 418
#     4  11  26  44  66  92 135 183 232 282 339 406
#     4  12  21  40  67  99 136 177 217 287 349 411
#     4  10  20  39  69  99 131 178 216 274 345 414
#     4  11  23  46  64  93 135 182 231 279 333 414
#     4  10  20  37  67 105 131 169 223 275 333 416
#
# _framework density 23.258918999999999
#
# number of rings (size 3 to 8) (size 9 to 14) (size 15 to 20)
#    0.000    1.429    2.857    3.429    2.000    0.000 
#    5.143    2.857    0.000    0.000    0.000    0.000 
#    0.000    0.000    0.000    0.000    0.000    0.000 
#
# Total GULP energy -155994.352772 kJ/mol
# GULP energy per Si atom -5571.226885 kJ/mol
# Density = 2.320598 g / cm^3
# Si number density = 23.258919 Si / 1000 Ang^3
#
#
#
# Elastic Constant Matrix: (Units=GPa)
#
#
# Indices 1 2 3 4 5 6 
#
# 1 56.4965 3.5415 1.2388 0.0000 0.0000 0.0000
# 2 3.5415 45.5701 -8.5026 0.0000 0.0000 0.0000
# 3 1.2388 -8.5026 127.0442 0.0000 0.0000 0.0000
# 4 0.0000 0.0000 0.0000 31.5692 0.0000 0.0000
# 5 0.0000 0.0000 0.0000 0.0000 6.3190 0.0000
# 6 0.0000 0.0000 0.0000 0.0000 0.0000 30.8711
#
#
#
# Elastic Compliance Matrix: (Units=1/GPa)
#
#
# Indices 1 2 3 4 5 6 
#
# 1 0.017796 -0.001433 -0.000269 0.000000 0.000000 0.000000
# 2 -0.001433 0.022337 0.001509 0.000000 0.000000 0.000000
# 3 -0.000269 0.001509 0.007975 0.000000 0.000000 0.000000
# 4 0.000000 0.000000 0.000000 0.031676 0.000000 0.000000
# 5 0.000000 0.000000 0.000000 0.000000 0.158253 0.000000
# 6 0.000000 0.000000 0.000000 0.000000 0.000000 0.032393
#
#
# Mechanical properties :
#
#
# Convention : Reuss Voigt Hill
#
# Bulk Modulus (GPa) = 20.95540 24.62955 22.79248
# Shear Modulus (GPa) = 17.43832 29.27408 23.35620
#
# Velocity S-wave (km/s) = 2.74112 3.55155 3.17232
# Velocity P-wave (km/s) = 4.36435 5.23739 4.82067
#
# Compressibility (1/GPa) = 0.04772039
#
# Stress axis : x y z
#
# Youngs Moduli (GPa) = 56.19253 44.76848 125.39355
#
# Poissons Ratio (x) = 0.06417 0.03379
# Poissons Ratio (y) = 0.08054 -0.18921
# Poissons Ratio (z) = 0.01514 -0.06755
#
# Static dielectric constant tensor:
#      x y z
#    x 2.006810 0.000000 0.000000 
#    y 0.000000 1.986760 0.000000 
#    z 0.000000 0.000000 1.926010 
# 
# From -- ./inp_files/6943.got.cif
#   From: 2010.05.17/outbox.cif.g08.bks.cpg/sg45_4_cif.got.tgz:6943.got - 2010.06.03 19:51:22.
