data_PCOD9376188
_publ_section_title
;
Structure prediction by ZEFSAII (Michael W. Deem and Ramdas Pophale) SiO2 
 PCOD9376188
Probable space group: I B A 2
;
_chemical_formula_sum "Si O2"
_cell_formula_units_Z 56
_cell_length_a 17.507807
_cell_length_b 9.518665
_cell_length_c 14.437018
_cell_angle_alpha 90.000000
_cell_angle_beta 90.000000
_cell_angle_gamma 90.000000
_cell_volume 2405.942761
_symmetry_space_group_name_H-M "I B A 2"
_symmetry_group_IT_number 45
_symmetry_cell_setting 'orthorhombic'
loop_
_space_group_symop_operation_xyz
x,y,z
-x,-y,z
-x,y,1/2+z
x,-y,1/2+z
1/2+x,1/2+y,1/2+z
1/2-x,1/2-y,1/2+z
1/2-x,1/2+y,z
1/2+x,1/2-y,z
loop_
_atom_site_type_symbol
_atom_site_label
_atom_site_fract_x
_atom_site_fract_y
_atom_site_fract_z
Si Si1 0.353534 0.789182 0.822200
Si Si2 0.691563 0.407766 0.987753
Si Si3 0.632540 0.028419 0.448064
Si Si4 0.392724 0.936694 0.146873
Si Si5 0.029058 0.263429 0.687645
Si Si6 0.891718 0.175301 0.020180
Si Si7 0.246521 0.261226 0.153307
O O1 0.325478 0.714354 0.915111
O O2 0.424958 0.707259 0.775556
O O3 0.283791 0.787809 0.749113
O O4 0.380569 0.943259 0.854954
O O5 0.776171 0.464800 0.964298
O O6 0.628807 0.528512 0.975071
O O7 0.696343 0.347685 0.092567
O O8 0.602265 0.188037 0.454827
O O9 0.598421 0.941965 0.535079
O O10 0.443945 0.818260 0.194683
O O11 0.305886 0.897710 0.167999
O O12 0.422839 0.091294 0.170513
O O13 0.040552 0.173982 0.594884
O O14 0.816613 0.204170 0.084613
#
# Coordination Sequence:
#
# PCOD9376188 Si02
#       7
#     8   8   8   8   8   8   8
#     4  11  23  36  66  99 133 162 220 275 323 397
#     4  11  20  38  63  98 128 169 210 269 333 382
#     4  10  19  37  64  94 122 164 218 267 317 383
#     4  10  18  42  64  89 126 174 215 270 325 378
#     4   9  22  37  64  93 125 171 226 266 321 387
#     4   9  19  37  62  93 127 164 215 261 329 386
#     4  10  21  37  66  92 128 166 218 266 328 384
#
# _framework density 23.275698999999999
#
# number of rings (size 3 to 8) (size 9 to 14) (size 15 to 20)
#    0.000    2.000    2.857    1.714    2.000    1.143 
#    0.000    6.429    3.143    1.714    0.000    0.000 
#    0.000    0.000    0.000    0.000    0.000    0.000 
#
# Total GULP energy -156388.058671 kJ/mol
# GULP energy per Si atom -5585.287810 kJ/mol
# Density = 2.322272 g / cm^3
# Si number density = 23.275699 Si / 1000 Ang^3
#
#
#
# Elastic Constant Matrix: (Units=GPa)
#
#
# Indices 1 2 3 4 5 6 
#
# 1 42.0570 3.7410 6.2723 0.0000 0.0000 0.0000
# 2 3.7410 67.5469 39.4919 0.0000 0.0000 0.0000
# 3 6.2723 39.4919 109.4556 0.0000 0.0000 0.0000
# 4 0.0000 0.0000 0.0000 19.4765 0.0000 0.0000
# 5 0.0000 0.0000 0.0000 0.0000 12.4409 0.0000
# 6 0.0000 0.0000 0.0000 0.0000 0.0000 29.4965
#
#
#
# Elastic Compliance Matrix: (Units=1/GPa)
#
#
# Indices 1 2 3 4 5 6 
#
# 1 0.024006 -0.000666 -0.001135 0.000000 0.000000 0.000000
# 2 -0.000666 0.018781 -0.006738 0.000000 0.000000 0.000000
# 3 -0.001135 -0.006738 0.011632 0.000000 0.000000 0.000000
# 4 0.000000 0.000000 0.000000 0.051344 0.000000 0.000000
# 5 0.000000 0.000000 0.000000 0.000000 0.080380 0.000000
# 6 0.000000 0.000000 0.000000 0.000000 0.000000 0.033902
#
#
# Mechanical properties :
#
#
# Convention : Reuss Voigt Hill
#
# Bulk Modulus (GPa) = 26.78049 35.34109 31.06079
# Shear Modulus (GPa) = 20.03440 23.58639 21.81039
#
# Velocity S-wave (km/s) = 2.93703 3.18677 3.06444
# Velocity P-wave (km/s) = 4.79919 5.36258 5.08869
#
# Compressibility (1/GPa) = 0.03734061
#
# Stress axis : x y z
#
# Youngs Moduli (GPa) = 41.65659 53.24565 85.96747
#
# Poissons Ratio (x) = 0.03544 0.09761
# Poissons Ratio (y) = 0.02773 0.57925
# Poissons Ratio (z) = 0.04730 0.35877
#
# Static dielectric constant tensor:
#      x y z
#    x 1.875390 0.000000 0.000000 
#    y 0.000000 1.924790 0.000000 
#    z 0.000000 0.000000 1.925090 
# 
# From -- ./inp_files/6949.got.cif
#   From: 2010.05.17/outbox.cif.g08.bks.cpg/sg45_4_cif.got.tgz:6949.got - 2010.06.03 19:51:22.
