data_PCOD9376711
_publ_section_title
;
Structure prediction by ZEFSAII (Michael W. Deem and Ramdas Pophale) SiO2 
 PCOD9376711
Probable space group: I B A 2
;
_chemical_formula_sum "Si O2"
_cell_formula_units_Z 64
_cell_length_a 9.104719
_cell_length_b 28.001845
_cell_length_c 10.374083
_cell_angle_alpha 90.000000
_cell_angle_beta 90.000000
_cell_angle_gamma 90.000000
_cell_volume 2644.861363
_symmetry_space_group_name_H-M "I B A 2"
_symmetry_group_IT_number 45
_symmetry_cell_setting 'orthorhombic'
loop_
_space_group_symop_operation_xyz
x,y,z
-x,-y,z
-x,y,1/2+z
x,-y,1/2+z
1/2+x,1/2+y,1/2+z
1/2-x,1/2-y,1/2+z
1/2-x,1/2+y,z
1/2+x,1/2-y,z
loop_
_atom_site_type_symbol
_atom_site_label
_atom_site_fract_x
_atom_site_fract_y
_atom_site_fract_z
Si Si1 0.274172 0.975251 0.327260
Si Si2 0.264814 0.416841 0.550455
Si Si3 0.798737 0.186102 0.137082
Si Si4 0.214873 0.847262 0.851995
Si Si5 0.249018 0.184972 0.049878
Si Si6 0.921906 0.424454 0.279892
Si Si7 0.035355 0.905506 0.234590
Si Si8 0.024669 0.261030 0.100444
O O1 0.254959 0.965954 0.478030
O O2 0.413177 0.941510 0.293529
O O3 0.128571 0.951854 0.270183
O O4 0.319510 0.028826 0.300393
O O5 0.274288 0.365539 0.479850
O O6 0.119400 0.409739 0.635619
O O7 0.414598 0.418742 0.628620
O O8 0.854496 0.135124 0.183345
O O9 0.917783 0.225670 0.179379
O O10 0.638397 0.204985 0.175430
O O11 0.796816 0.184154 0.979635
O O12 0.228610 0.823790 0.707672
O O13 0.357278 0.881787 0.865180
O O14 0.070846 0.881254 0.841766
O O15 0.409387 0.205903 0.026375
O O16 0.126394 0.224394 0.020202
#
# Coordination Sequence:
#
# PCOD9376711 Si02
#       8
#     8   8   8   8   8   8   8   8
#     4  11  23  41  71  95 125 172 209 249 328 368
#     4  10  22  43  63  89 142 160 205 268 305 375
#     4  11  22  39  59  91 120 163 207 256 310 367
#     4  10  22  40  60  86 130 161 205 255 317 371
#     4   9  20  39  57  87 123 158 202 263 305 365
#     4   9  24  42  61 101 123 159 216 261 303 382
#     4  10  22  40  63  90 127 167 208 257 308 379
#     4  10  21  38  60  84 122 157 208 262 306 366
#
# _framework density 24.197866000000001
#
# number of rings (size 3 to 8) (size 9 to 14) (size 15 to 20)
#    0.000    2.250    2.500    0.750    5.250    6.000 
#    0.000    2.500    0.000    0.000    0.000    0.000 
#    0.000    0.000    0.000    0.000    0.000    0.000 
#
# Total GULP energy -178644.685054 kJ/mol
# GULP energy per Si atom -5582.646408 kJ/mol
# Density = 2.414279 g / cm^3
# Si number density = 24.197866 Si / 1000 Ang^3
#
#
#
# Elastic Constant Matrix: (Units=GPa)
#
#
# Indices 1 2 3 4 5 6 
#
# 1 123.6067 33.5081 4.4048 0.0004 0.0015 0.0004
# 2 33.5081 54.1932 7.7427 0.0002 0.0007 -0.0007
# 3 4.4048 7.7427 55.1253 0.0016 0.0016 0.0167
# 4 0.0004 0.0002 0.0016 1.3455 0.0012 0.0006
# 5 0.0015 0.0007 0.0016 0.0012 -17.8858 -0.0237
# 6 0.0004 -0.0007 0.0167 0.0006 -0.0237 172.5627
#
#
#
# Elastic Compliance Matrix: (Units=1/GPa)
#
#
# Indices 1 2 3 4 5 6 
#
# 1 0.009720 -0.006020 0.000069 -0.000002 0.000001 0.000000
# 2 -0.006020 0.022558 -0.002687 0.000001 0.000000 0.000000
# 3 0.000069 -0.002687 0.018512 -0.000021 0.000002 -0.000002
# 4 -0.000002 0.000001 -0.000021 0.743242 0.000049 -0.000003
# 5 0.000001 0.000000 0.000002 0.000049 -0.055910 -0.000008
# 6 0.000000 0.000000 -0.000002 -0.000003 -0.000008 0.005795
#
#
# Mechanical properties :
#
#
# Convention : Reuss Voigt Hill
#
# Bulk Modulus (GPa) = 29.83821 36.02628 32.93225
# Shear Modulus (GPa) = 6.47362 43.68910 25.08136
#
# Velocity S-wave (km/s) = 1.63740 4.25372 3.22298
# Velocity P-wave (km/s) = 3.99155 6.24868 5.24302
#
# Compressibility (1/GPa) = 0.03351407
#
# Stress axis : x y z
#
# Youngs Moduli (GPa) = 102.88564 44.32946 54.01762
#
# Poissons Ratio (x) = 0.26684 -0.00372
# Poissons Ratio (y) = 0.61932 0.14517
# Poissons Ratio (z) = -0.00708 0.11913
#
# Static dielectric constant tensor:
#      x y z
#    x 1.925190 0.000000 0.000000 
#    y 0.000000 1.935520 0.000000 
#    z 0.000000 0.000000 1.992040 
# 
# From -- ./inp_files/3403.got.cif
#   From: 2010.05.17/outbox.cif.g08.bks.cpg/sg45_2_cif.got.tgz:3403.got - 2010.06.03 19:51:22.
