data_PCOD9376666
_publ_section_title
;
Structure prediction by ZEFSAII (Michael W. Deem and Ramdas Pophale) SiO2 
 PCOD9376666
Probable space group: I B A 2
;
_chemical_formula_sum "Si O2"
_cell_formula_units_Z 64
_cell_length_a 29.816917
_cell_length_b 11.018305
_cell_length_c 8.880992
_cell_angle_alpha 90.000000
_cell_angle_beta 90.000000
_cell_angle_gamma 90.000000
_cell_volume 2917.689048
_symmetry_space_group_name_H-M "I B A 2"
_symmetry_group_IT_number 45
_symmetry_cell_setting 'orthorhombic'
loop_
_space_group_symop_operation_xyz
x,y,z
-x,-y,z
-x,y,1/2+z
x,-y,1/2+z
1/2+x,1/2+y,1/2+z
1/2-x,1/2-y,1/2+z
1/2-x,1/2+y,z
1/2+x,1/2-y,z
loop_
_atom_site_type_symbol
_atom_site_label
_atom_site_fract_x
_atom_site_fract_y
_atom_site_fract_z
Si Si1 0.247214 0.134799 0.436730
Si Si2 0.916257 0.655964 0.548551
Si Si3 0.032395 0.890427 0.316465
Si Si4 0.644027 0.656211 0.910415
Si Si5 0.126051 0.022588 0.694995
Si Si6 0.991372 0.756429 0.070830
Si Si7 0.225537 0.882261 0.284845
Si Si8 0.451974 0.942606 0.861280
O O1 0.196448 0.168463 0.391787
O O2 0.247878 0.130909 0.618829
O O3 0.274135 0.250796 0.368966
O O4 0.250330 0.995436 0.371834
O O5 0.872787 0.729463 0.504104
O O6 0.921808 0.545190 0.435751
O O7 0.925345 0.613262 0.719634
O O8 0.957737 0.744813 0.511214
O O9 0.081589 0.908167 0.250675
O O10 0.033168 0.868973 0.494153
O O11 0.004180 0.778628 0.243017
O O12 0.000000 0.000000 0.283067
O O13 0.622981 0.616262 0.751977
O O14 0.630909 0.542681 0.017611
O O15 0.173591 0.076650 0.756537
O O16 0.964494 0.643291 0.004165
O O17 0.500000 0.000000 0.809963
#
# Coordination Sequence:
#
# PCOD9376666 Si02
#       8
#     8   8   8   8   8   8   8   8
#     4  10  21  40  71 102 133 174 217 272 334 413
#     4  11  21  40  57  83 118 159 209 260 316 371
#     4  12  24  36  57  91 125 168 217 263 321 379
#     4  10  21  41  63  93 130 162 206 262 323 394
#     4  10  22  41  62  91 131 173 206 266 326 391
#     4  11  21  37  57  80 119 161 214 267 312 374
#     4  10  21  41  71 101 135 176 224 271 343 412
#     4  10  21  36  60  80 110 163 216 262 316 372
#
# _framework density 21.935168000000001
#
# number of rings (size 3 to 8) (size 9 to 14) (size 15 to 20)
#    0.000    1.500    2.500    3.000    3.500    1.000 
#    0.000    5.000    0.000    0.000    0.000    0.000 
#    0.000    0.000    0.000    0.000    0.000    0.000 
#
# Total GULP energy -178266.741489 kJ/mol
# GULP energy per Si atom -5570.835672 kJ/mol
# Density = 2.188524 g / cm^3
# Si number density = 21.935168 Si / 1000 Ang^3
#
#
#
# Elastic Constant Matrix: (Units=GPa)
#
#
# Indices 1 2 3 4 5 6 
#
# 1 36.5693 17.3179 15.1835 0.0000 0.0000 0.0000
# 2 17.3179 91.0782 32.1906 0.0000 0.0000 0.0000
# 3 15.1835 32.1906 91.1623 0.0000 0.0000 0.0000
# 4 0.0000 0.0000 0.0000 38.2908 0.0000 0.0000
# 5 0.0000 0.0000 0.0000 0.0000 -22.0280 0.0000
# 6 0.0000 0.0000 0.0000 0.0000 0.0000 23.4247
#
#
#
# Elastic Compliance Matrix: (Units=1/GPa)
#
#
# Indices 1 2 3 4 5 6 
#
# 1 0.031011 -0.004651 -0.003522 0.000000 0.000000 0.000000
# 2 -0.004651 0.013243 -0.003902 0.000000 0.000000 0.000000
# 3 -0.003522 -0.003902 0.012934 0.000000 0.000000 0.000000
# 4 0.000000 0.000000 0.000000 0.026116 0.000000 0.000000
# 5 0.000000 0.000000 0.000000 0.000000 -0.045397 0.000000
# 6 0.000000 0.000000 0.000000 0.000000 0.000000 0.042690
#
#
# Mechanical properties :
#
#
# Convention : Reuss Voigt Hill
#
# Bulk Modulus (GPa) = 30.26963 38.68822 34.47892
# Shear Modulus (GPa) = 43.19295 18.21202 30.70248
#
# Velocity S-wave (km/s) = 4.44229 2.88456 3.74530
# Velocity P-wave (km/s) = 6.33573 5.36377 5.86990
#
# Compressibility (1/GPa) = 0.03303642
#
# Stress axis : x y z
#
# Youngs Moduli (GPa) = 32.24705 75.51169 77.31673
#
# Poissons Ratio (x) = 0.35124 0.27234
# Poissons Ratio (y) = 0.15000 0.30165
# Poissons Ratio (z) = 0.11359 0.29461
#
# Static dielectric constant tensor:
#      x y z
#    x 1.814890 0.000000 0.000000 
#    y 0.000000 1.938510 0.000000 
#    z 0.000000 0.000000 1.814070 
# 
# From -- ./inp_files/2785.got.cif
#   From: 2010.05.17/outbox.cif.g08.bks.cpg/sg45_2_cif.got.tgz:2785.got - 2010.06.03 19:51:22.
