data_PCOD9376545
_publ_section_title
;
Structure prediction by ZEFSAII (Michael W. Deem and Ramdas Pophale) SiO2 
 PCOD9376545
Probable space group: I B A 2
;
_chemical_formula_sum "Si O2"
_cell_formula_units_Z 48
_cell_length_a 12.353697
_cell_length_b 10.916034
_cell_length_c 17.877381
_cell_angle_alpha 90.000000
_cell_angle_beta 90.000000
_cell_angle_gamma 90.000000
_cell_volume 2410.825190
_symmetry_space_group_name_H-M "I B A 2"
_symmetry_group_IT_number 45
_symmetry_cell_setting 'orthorhombic'
loop_
_space_group_symop_operation_xyz
x,y,z
-x,-y,z
-x,y,1/2+z
x,-y,1/2+z
1/2+x,1/2+y,1/2+z
1/2-x,1/2-y,1/2+z
1/2-x,1/2+y,z
1/2+x,1/2-y,z
loop_
_atom_site_type_symbol
_atom_site_label
_atom_site_fract_x
_atom_site_fract_y
_atom_site_fract_z
Si Si1 0.318372 0.147323 0.381740
Si Si2 0.255841 0.405642 0.317814
Si Si3 0.607856 0.083662 0.047536
Si Si4 0.974285 0.187240 0.634728
Si Si5 0.014807 0.370836 0.267746
Si Si6 0.181103 0.042881 0.647451
O O1 0.293589 0.291466 0.368780
O O2 0.344070 0.105996 0.465396
O O3 0.423387 0.131373 0.329814
O O4 0.234573 0.043452 0.351062
O O5 0.130069 0.375019 0.306244
O O6 0.301115 0.412311 0.232920
O O7 0.569159 0.214833 0.076920
O O8 0.705694 0.039902 0.102606
O O9 0.500000 0.000000 0.044915
O O10 0.992579 0.259421 0.711719
O O11 0.090006 0.131354 0.611562
O O12 0.881664 0.086128 0.647654
O O13 0.000000 0.500000 0.224468
#
# Coordination Sequence:
#
# PCOD9376545 Si02
#       6
#     8   8   8   8   8   8
#     4  11  26  43  68 101 140 180 233 288 355 419
#     4  11  22  42  71 100 133 183 232 290 346 420
#     4  12  28  44  73 103 145 189 233 289 365 430
#     4  11  24  44  68 103 139 180 235 294 351 417
#     4  10  20  39  67  97 127 176 234 282 342 418
#     4  11  26  42  72 105 139 182 238 294 352 422
#
# _framework density 19.910194000000001
#
# number of rings (size 3 to 8) (size 9 to 14) (size 15 to 20)
#    0.000    1.000    3.333    3.000    7.000    1.333 
#    0.000    0.000    0.000    0.000    0.000    0.000 
#    0.000    0.000    0.000    0.000    0.000    0.000 
#
# Total GULP energy -133911.967170 kJ/mol
# GULP energy per Si atom -5579.665299 kJ/mol
# Density = 1.986488 g / cm^3
# Si number density = 19.910194 Si / 1000 Ang^3
#
#
#
# Elastic Constant Matrix: (Units=GPa)
#
#
# Indices 1 2 3 4 5 6 
#
# 1 102.2432 59.4980 31.2186 0.0000 0.0000 0.0000
# 2 59.4980 112.0667 37.2010 0.0000 0.0000 0.0000
# 3 31.2186 37.2010 103.0831 0.0000 0.0000 0.0000
# 4 0.0000 0.0000 0.0000 24.3440 0.0000 0.0000
# 5 0.0000 0.0000 0.0000 0.0000 11.1277 0.0000
# 6 0.0000 0.0000 0.0000 0.0000 0.0000 1427.5643
#
#
#
# Elastic Compliance Matrix: (Units=1/GPa)
#
#
# Indices 1 2 3 4 5 6 
#
# 1 0.014450 -0.007065 -0.001826 0.000000 0.000000 0.000000
# 2 -0.007065 0.013592 -0.002766 0.000000 0.000000 0.000000
# 3 -0.001826 -0.002766 0.011252 0.000000 0.000000 0.000000
# 4 0.000000 0.000000 0.000000 0.041078 0.000000 0.000000
# 5 0.000000 0.000000 0.000000 0.000000 0.089866 0.000000
# 6 0.000000 0.000000 0.000000 0.000000 0.000000 0.000700
#
#
# Mechanical properties :
#
#
# Convention : Reuss Voigt Hill
#
# Bulk Modulus (GPa) = 62.57911 63.69203 63.13557
# Shear Modulus (GPa) = 25.05269 305.23888 165.14579
#
# Velocity S-wave (km/s) = 3.55108 12.39519 9.11731
# Velocity P-wave (km/s) = 6.95072 15.39199 11.94206
#
# Compressibility (1/GPa) = 0.01597977
#
# Stress axis : x y z
#
# Youngs Moduli (GPa) = 69.20533 73.57060 88.87271
#
# Poissons Ratio (x) = 0.51980 0.16231
# Poissons Ratio (y) = 0.48896 0.24578
# Poissons Ratio (z) = 0.12639 0.20346
#
# Static dielectric constant tensor:
#      x y z
#    x 1.731890 0.000000 0.000000 
#    y 0.000000 1.759300 0.000000 
#    z 0.000000 0.000000 1.711160 
# 
# From -- ./inp_files/7879.got.cif
#   From: 2010.05.17/outbox.cif.g08.bks.cpg/sg45_4_cif.got.tgz:7879.got - 2010.06.03 19:51:22.
