data_PCOD9376791
_publ_section_title
;
Structure prediction by ZEFSAII (Michael W. Deem and Ramdas Pophale) SiO2 
 PCOD9376791
Probable space group: I B A 2
;
_chemical_formula_sum "Si O2"
_cell_formula_units_Z 64
_cell_length_a 11.899351
_cell_length_b 16.683531
_cell_length_c 14.187077
_cell_angle_alpha 90.000000
_cell_angle_beta 90.000000
_cell_angle_gamma 90.000000
_cell_volume 2816.463801
_symmetry_space_group_name_H-M "I B A 2"
_symmetry_group_IT_number 45
_symmetry_cell_setting 'orthorhombic'
loop_
_space_group_symop_operation_xyz
x,y,z
-x,-y,z
-x,y,1/2+z
x,-y,1/2+z
1/2+x,1/2+y,1/2+z
1/2-x,1/2-y,1/2+z
1/2-x,1/2+y,z
1/2+x,1/2-y,z
loop_
_atom_site_type_symbol
_atom_site_label
_atom_site_fract_x
_atom_site_fract_y
_atom_site_fract_z
Si Si1 0.263070 0.749105 0.598960
Si Si2 0.125356 0.481632 0.367330
Si Si3 0.148938 0.154273 0.762168
Si Si4 0.068070 0.181643 0.970612
Si Si5 0.438328 0.164649 0.981059
Si Si6 0.953914 0.910844 0.143047
Si Si7 0.236020 0.509443 0.193494
Si Si8 0.815841 0.409600 0.516325
O O1 0.278153 0.721792 0.707197
O O2 0.148729 0.782961 0.553819
O O3 0.358150 0.811865 0.567855
O O4 0.266631 0.662602 0.544539
O O5 0.128525 0.389881 0.404928
O O6 0.131735 0.516536 0.262351
O O7 0.208803 0.541759 0.421647
O O8 0.000000 0.500000 0.400358
O O9 0.129738 0.165877 0.872607
O O10 0.206219 0.067885 0.744790
O O11 0.030289 0.148617 0.705330
O O12 0.975937 0.248074 0.944330
O O13 0.028099 0.106166 0.031671
O O14 0.557208 0.125442 0.012220
O O15 0.825017 0.919935 0.178196
O O16 0.000000 0.000000 0.160073
O O17 0.194654 0.477844 0.094214
#
# Coordination Sequence:
#
# PCOD9376791 Si02
#       8
#     8   8   8   8   8   8   8   8
#     4  10  21  42  62  92 131 168 219 278 334 407
#     4  10  22  41  61  94 126 171 229 270 339 406
#     4  10  22  43  63  94 132 169 221 275 339 408
#     4  11  23  42  66  97 129 180 226 280 351 412
#     4  10  21  40  64  90 132 169 220 280 338 395
#     4  10  23  43  64  99 133 172 224 281 345 413
#     4  10  22  39  63  92 128 171 221 273 332 405
#     4   9  22  40  61  89 128 167 216 275 327 402
#
# _framework density 22.723531999999999
#
# number of rings (size 3 to 8) (size 9 to 14) (size 15 to 20)
#    0.000    2.000    1.250    0.750    3.500    5.000 
#   11.250    0.000    0.000    0.000    0.000    0.000 
#    0.000    0.000    0.000    0.000    0.000    0.000 
#
# Total GULP energy -178152.243600 kJ/mol
# GULP energy per Si atom -5567.257612 kJ/mol
# Density = 2.267181 g / cm^3
# Si number density = 22.723532 Si / 1000 Ang^3
#
#
#
# Elastic Constant Matrix: (Units=GPa)
#
#
# Indices 1 2 3 4 5 6 
#
# 1 46.3912 6.2887 5.2231 0.0000 0.0000 0.0000
# 2 6.2887 35.1784 -0.8374 0.0000 0.0000 0.0000
# 3 5.2231 -0.8374 63.5164 0.0000 0.0000 0.0000
# 4 0.0000 0.0000 0.0000 18.6360 0.0000 0.0000
# 5 0.0000 0.0000 0.0000 0.0000 25.5437 0.0000
# 6 0.0000 0.0000 0.0000 0.0000 0.0000 14.8334
#
#
#
# Elastic Compliance Matrix: (Units=1/GPa)
#
#
# Indices 1 2 3 4 5 6 
#
# 1 0.022315 -0.004034 -0.001888 0.000000 0.000000 0.000000
# 2 -0.004034 0.029165 0.000716 0.000000 0.000000 0.000000
# 3 -0.001888 0.000716 0.015909 0.000000 0.000000 0.000000
# 4 0.000000 0.000000 0.000000 0.053660 0.000000 0.000000
# 5 0.000000 0.000000 0.000000 0.000000 0.039149 0.000000
# 6 0.000000 0.000000 0.000000 0.000000 0.000000 0.067415
#
#
# Mechanical properties :
#
#
# Convention : Reuss Voigt Hill
#
# Bulk Modulus (GPa) = 17.55113 18.49277 18.02195
# Shear Modulus (GPa) = 19.45399 20.76339 20.10869
#
# Velocity S-wave (km/s) = 2.92912 3.02609 2.97800
# Velocity P-wave (km/s) = 4.37952 4.51281 4.44667
#
# Compressibility (1/GPa) = 0.05697640
#
# Stress axis : x y z
#
# Youngs Moduli (GPa) = 44.81235 34.28797 62.85877
#
# Poissons Ratio (x) = 0.13832 0.11869
# Poissons Ratio (y) = 0.18078 -0.04502
# Poissons Ratio (z) = 0.08462 -0.02456
#
# Static dielectric constant tensor:
#      x y z
#    x 1.959370 0.000000 0.000000 
#    y 0.000000 1.972860 0.000000 
#    z 0.000000 0.000000 1.865820 
# 
# From -- ./inp_files/6281.got.cif
#   From: 2010.05.17/outbox.cif.g08.bks.cpg/sg45_4_cif.got.tgz:6281.got - 2010.06.03 19:51:22.
