data_PCOD9376557
_publ_section_title
;
Structure prediction by ZEFSAII (Michael W. Deem and Ramdas Pophale) SiO2 
 PCOD9376557
Probable space group: I B A 2
;
_chemical_formula_sum "Si O2"
_cell_formula_units_Z 56
_cell_length_a 22.743343
_cell_length_b 5.650573
_cell_length_c 20.885710
_cell_angle_alpha 90.000000
_cell_angle_beta 90.000000
_cell_angle_gamma 90.000000
_cell_volume 2684.083576
_symmetry_space_group_name_H-M "I B A 2"
_symmetry_group_IT_number 45
_symmetry_cell_setting 'orthorhombic'
loop_
_space_group_symop_operation_xyz
x,y,z
-x,-y,z
-x,y,1/2+z
x,-y,1/2+z
1/2+x,1/2+y,1/2+z
1/2-x,1/2-y,1/2+z
1/2-x,1/2+y,z
1/2+x,1/2-y,z
loop_
_atom_site_type_symbol
_atom_site_label
_atom_site_fract_x
_atom_site_fract_y
_atom_site_fract_z
Si Si1 0.274717 0.673160 0.721640
Si Si2 0.934559 0.612469 0.500545
Si Si3 0.500000 0.500000 0.948940
Si Si4 0.563551 0.108712 0.872511
Si Si5 0.397103 0.175610 0.619311
Si Si6 0.730820 0.739905 0.577308
Si Si7 0.599570 0.187994 0.732846
Si Si8 0.000000 0.000000 0.168524
O O1 0.244128 0.434071 0.748093
O O2 0.260158 0.711960 0.646657
O O3 0.344505 0.642072 0.725739
O O4 0.907557 0.529397 0.432688
O O5 0.907509 0.524249 0.565356
O O6 0.000000 0.500000 0.497429
O O7 0.951542 0.882435 0.494688
O O8 0.542468 0.355416 0.901928
O O9 0.597557 0.117320 0.806836
O O10 0.500000 0.000000 0.856041
O O11 0.337826 0.297490 0.594064
O O12 0.453427 0.343798 0.628396
O O13 0.389772 0.035359 0.686120
O O14 0.757512 0.500806 0.546051
O O15 0.540213 0.321946 0.710751
#
# Coordination Sequence:
#
# PCOD9376557 Si02
#       8
#     8   8   4   8   8   8   8   4
#     4  10  20  40  61  87 118 169 217 258 315 381
#     4   9  20  38  56  83 121 165 206 248 312 394
#     4   8  17  39  58  74 119 169 214 236 309 411
#     4   9  19  36  55  84 121 164 206 246 309 393
#     4  12  24  37  61  91 130 158 207 274 320 390
#     4  10  20  41  61  87 117 169 218 257 314 382
#     4  12  23  36  61  91 132 157 211 271 318 389
#     4  12  25  35  52 100 129 161 192 266 343 375
#
# _framework density 20.863731999999999
#
# number of rings (size 3 to 8) (size 9 to 14) (size 15 to 20)
#    0.000    2.000    2.857    4.286    0.000    6.286 
#    0.000    0.000    0.000    1.714    0.000    0.000 
#    0.000    0.000    0.000    0.000    0.000    0.000 
#
# Total GULP energy -155994.257595 kJ/mol
# GULP energy per Si atom -5571.223486 kJ/mol
# Density = 2.081624 g / cm^3
# Si number density = 20.863732 Si / 1000 Ang^3
#
#
#
# Elastic Constant Matrix: (Units=GPa)
#
#
# Indices 1 2 3 4 5 6 
#
# 1 83.7689 21.9482 10.6250 0.0000 0.0000 0.0000
# 2 21.9482 106.7165 21.2083 0.0000 0.0000 0.0000
# 3 10.6250 21.2083 102.0815 0.0000 0.0000 0.0000
# 4 0.0000 0.0000 0.0000 23.6350 0.0000 0.0000
# 5 0.0000 0.0000 0.0000 0.0000 12.8280 0.0000
# 6 0.0000 0.0000 0.0000 0.0000 0.0000 25.8009
#
#
#
# Elastic Compliance Matrix: (Units=1/GPa)
#
#
# Indices 1 2 3 4 5 6 
#
# 1 0.012682 -0.002447 -0.000812 0.000000 0.000000 0.000000
# 2 -0.002447 0.010246 -0.001874 0.000000 0.000000 0.000000
# 3 -0.000812 -0.001874 0.010270 0.000000 0.000000 0.000000
# 4 0.000000 0.000000 0.000000 0.042310 0.000000 0.000000
# 5 0.000000 0.000000 0.000000 0.000000 0.077955 0.000000
# 6 0.000000 0.000000 0.000000 0.000000 0.000000 0.038758
#
#
# Mechanical properties :
#
#
# Convention : Reuss Voigt Hill
#
# Bulk Modulus (GPa) = 43.60579 44.45888 44.03234
# Shear Modulus (GPa) = 23.79476 28.37181 26.08328
#
# Velocity S-wave (km/s) = 3.38077 3.69163 3.53961
# Velocity P-wave (km/s) = 6.01541 6.28699 6.15270
#
# Compressibility (1/GPa) = 0.02293273
#
# Stress axis : x y z
#
# Youngs Moduli (GPa) = 78.85402 97.59598 97.37170
#
# Poissons Ratio (x) = 0.23881 0.07903
# Poissons Ratio (y) = 0.19295 0.18248
# Poissons Ratio (z) = 0.06400 0.18290
#
# Static dielectric constant tensor:
#      x y z
#    x 1.743190 0.000000 0.000000 
#    y 0.000000 1.839230 0.000000 
#    z 0.000000 0.000000 1.740160 
# 
# From -- ./inp_files/9837.got.cif
#   From: 2010.05.17/outbox.cif.g08.bks.cpg/sg45_5_cif.got.tgz:9837.got - 2010.06.03 19:51:22.
