data_PCOD9376978
_publ_section_title
;
Structure prediction by ZEFSAII (Michael W. Deem and Ramdas Pophale) SiO2 
 PCOD9376978
Probable space group: I B A 2
;
_chemical_formula_sum "Si O2"
_cell_formula_units_Z 52
_cell_length_a 7.013166
_cell_length_b 22.565825
_cell_length_c 14.848869
_cell_angle_alpha 90.000000
_cell_angle_beta 90.000000
_cell_angle_gamma 90.000000
_cell_volume 2349.950479
_symmetry_space_group_name_H-M "I B A 2"
_symmetry_group_IT_number 45
_symmetry_cell_setting 'orthorhombic'
loop_
_space_group_symop_operation_xyz
x,y,z
-x,-y,z
-x,y,1/2+z
x,-y,1/2+z
1/2+x,1/2+y,1/2+z
1/2-x,1/2-y,1/2+z
1/2-x,1/2+y,z
1/2+x,1/2-y,z
loop_
_atom_site_type_symbol
_atom_site_label
_atom_site_fract_x
_atom_site_fract_y
_atom_site_fract_z
Si Si1 0.809922 0.166609 0.916940
Si Si2 0.225467 0.403235 0.748647
Si Si3 0.309922 0.666609 0.619879
Si Si4 0.868749 0.299120 0.916930
Si Si5 0.368749 0.200880 0.119889
Si Si6 0.500000 0.500000 0.268410
Si Si7 0.225467 0.403235 0.288172
O O1 0.824387 0.116632 0.842126
O O2 0.882861 0.231184 0.885441
O O3 0.582762 0.177241 0.922423
O O4 0.877897 0.153178 0.018410
O O5 0.234496 0.345974 0.683663
O O6 0.347445 0.458924 0.715023
O O7 0.000000 0.415831 0.768410
O O8 0.382861 0.731184 0.651378
O O9 0.324387 0.616632 0.694694
O O10 0.082762 0.677241 0.614396
O O11 0.765504 0.345974 0.853156
O O12 0.787544 0.296554 0.018410
O O13 0.347445 0.458924 0.321796
#
# Coordination Sequence:
#
# PCOD9376978 Si02
#       7
#     8   8   8   8   8   4   8
#     4   9  18  33  57  87 116 145 180 232 295 347
#     4  10  22  40  57  80 116 151 192 242 279 327
#     4   9  18  33  57  87 116 145 180 232 295 347
#     4   9  18  33  57  87 116 145 180 232 295 347
#     4   9  18  33  57  87 116 145 180 232 295 347
#     4  12  26  40  62  82 108 166 210 226 274 342
#     4  10  22  40  57  80 116 151 192 242 279 327
#
# _framework density 22.128126999999999
#
# number of rings (size 3 to 8) (size 9 to 14) (size 15 to 20)
#    0.000    2.462    0.000    1.385    4.308    0.000 
#    0.000    3.077    0.000    7.385    0.000    0.000 
#    0.000    0.000    0.000    0.000    0.000    0.000 
#
# Total GULP energy -145063.393818 kJ/mol
# GULP energy per Si atom -5579.361301 kJ/mol
# Density = 2.207776 g / cm^3
# Si number density = 22.128127 Si / 1000 Ang^3
#
#
#
# Elastic Constant Matrix: (Units=GPa)
#
#
# Indices 1 2 3 4 5 6 
#
# 1 90.5895 37.0860 15.2306 0.0000 0.0000 0.0000
# 2 37.0860 80.9684 30.8761 0.0000 0.0000 0.0000
# 3 15.2306 30.8761 52.2972 0.0001 0.0000 0.0000
# 4 0.0000 0.0000 0.0001 0.3757 0.0000 0.0000
# 5 0.0000 0.0000 0.0000 0.0000 10.0929 0.0000
# 6 0.0000 0.0000 0.0000 0.0000 0.0000 27.2778
#
#
#
# Elastic Compliance Matrix: (Units=1/GPa)
#
#
# Indices 1 2 3 4 5 6 
#
# 1 0.013592 -0.006086 -0.000365 0.000001 0.000000 0.000000
# 2 -0.006086 0.018664 -0.009247 0.000001 0.000000 0.000000
# 3 -0.000365 -0.009247 0.024687 -0.000006 0.000000 0.000000
# 4 0.000001 0.000001 -0.000006 2.661419 -0.000005 0.000003
# 5 0.000000 0.000000 0.000000 -0.000005 0.099080 0.000000
# 6 0.000000 0.000000 0.000000 0.000003 0.000000 0.036660
#
#
# Mechanical properties :
#
#
# Convention : Reuss Voigt Hill
#
# Bulk Modulus (GPa) = 39.14368 43.36006 41.25187
# Shear Modulus (GPa) = 1.72770 16.92678 9.32724
#
# Velocity S-wave (km/s) = 0.88457 2.76876 2.05530
# Velocity P-wave (km/s) = 4.33258 5.46433 4.93103
#
# Compressibility (1/GPa) = 0.02554691
#
# Stress axis : x y z
#
# Youngs Moduli (GPa) = 73.57377 53.57814 40.50703
#
# Poissons Ratio (x) = 0.32609 0.01479
# Poissons Ratio (y) = 0.44779 0.37456
# Poissons Ratio (z) = 0.02686 0.49543
#
# Static dielectric constant tensor:
#      x y z
#    x 1.893710 0.000000 0.000000 
#    y 0.000000 1.859210 0.000000 
#    z 0.000000 0.000000 1.851510 
# 
# From -- ./inp_files/5711.got.cif
#   From: 2010.05.17/outbox.cif.g08.bks.cpg/sg45_3_cif.got.tgz:5711.got - 2010.06.03 19:51:22.
