data_PCOD9376890
_publ_section_title
;
Structure prediction by ZEFSAII (Michael W. Deem and Ramdas Pophale) SiO2 
 PCOD9376890
Probable space group: I B A 2
;
_chemical_formula_sum "Si O2"
_cell_formula_units_Z 64
_cell_length_a 11.643441
_cell_length_b 16.887385
_cell_length_c 13.558916
_cell_angle_alpha 90.000000
_cell_angle_beta 90.000000
_cell_angle_gamma 90.000000
_cell_volume 2666.052649
_symmetry_space_group_name_H-M "I B A 2"
_symmetry_group_IT_number 45
_symmetry_cell_setting 'orthorhombic'
loop_
_space_group_symop_operation_xyz
x,y,z
-x,-y,z
-x,y,1/2+z
x,-y,1/2+z
1/2+x,1/2+y,1/2+z
1/2-x,1/2-y,1/2+z
1/2-x,1/2+y,z
1/2+x,1/2-y,z
loop_
_atom_site_type_symbol
_atom_site_label
_atom_site_fract_x
_atom_site_fract_y
_atom_site_fract_z
Si Si1 0.409516 0.688809 0.364560
Si Si2 0.899911 0.868983 0.014210
Si Si3 0.166188 0.567633 0.979782
Si Si4 0.611817 0.545381 0.718975
Si Si5 0.474750 0.148169 0.361457
Si Si6 0.286808 0.208793 0.507933
Si Si7 0.784136 0.425584 0.624918
Si Si8 0.030021 0.407282 0.663915
O O1 0.493700 0.646707 0.443685
O O2 0.369767 0.621967 0.287661
O O3 0.479048 0.765680 0.327916
O O4 0.302958 0.727604 0.422000
O O5 0.846175 0.785967 0.051281
O O6 0.793638 0.906265 0.953232
O O7 0.919205 0.922932 0.109248
O O8 0.182959 0.481916 0.030901
O O9 0.110734 0.615548 0.073335
O O10 0.074283 0.586784 0.895674
O O11 0.500000 0.500000 0.758514
O O12 0.715491 0.482507 0.699258
O O13 0.390174 0.163772 0.451696
O O14 0.413163 0.111839 0.266952
O O15 0.218985 0.149999 0.580958
O O16 0.898080 0.379945 0.663295
O O17 0.000000 0.500000 0.657109
#
# Coordination Sequence:
#
# PCOD9376890 Si02
#       8
#     8   8   8   8   8   8   8   8
#     4  11  26  44  66 105 138 182 244 289 355 432
#     4  10  24  47  72  95 142 192 236 297 356 432
#     4  10  21  44  64  96 135 176 230 281 352 429
#     4  11  26  47  70 101 138 195 245 297 355 426
#     4  11  24  39  66  97 135 182 219 288 356 420
#     4  11  23  42  67 100 135 180 232 288 354 422
#     4  10  23  40  67 100 135 178 229 288 357 417
#     4  10  23  38  62 100 133 167 222 287 357 422
#
# _framework density 24.005527000000001
#
# number of rings (size 3 to 8) (size 9 to 14) (size 15 to 20)
#    0.000    1.500    2.500    0.750    8.750    3.500 
#    2.250    0.000    0.000    0.000    0.000    0.000 
#    0.000    0.000    0.000    0.000    0.000    0.000 
#
# Total GULP energy -178560.159378 kJ/mol
# GULP energy per Si atom -5580.004981 kJ/mol
# Density = 2.395089 g / cm^3
# Si number density = 24.005527 Si / 1000 Ang^3
#
#
#
# Elastic Constant Matrix: (Units=GPa)
#
#
# Indices 1 2 3 4 5 6 
#
# 1 70.1638 18.8559 1.5589 0.0000 0.0000 0.0000
# 2 18.8559 66.4895 14.1803 -0.0001 0.0000 0.0000
# 3 1.5589 14.1803 56.2564 0.0000 0.0000 0.0000
# 4 0.0000 -0.0001 0.0000 38.4102 0.0000 0.0000
# 5 0.0000 0.0000 0.0000 0.0000 17.6206 0.0000
# 6 0.0000 0.0000 0.0000 0.0000 0.0000 30.5957
#
#
#
# Elastic Compliance Matrix: (Units=1/GPa)
#
#
# Indices 1 2 3 4 5 6 
#
# 1 0.015455 -0.004535 0.000715 0.000000 0.000000 0.000000
# 2 -0.004535 0.017225 -0.004216 0.000000 0.000000 0.000000
# 3 0.000715 -0.004216 0.018819 0.000000 0.000000 0.000000
# 4 0.000000 0.000000 0.000000 0.026035 0.000000 0.000000
# 5 0.000000 0.000000 0.000000 0.000000 0.056752 0.000000
# 6 0.000000 0.000000 0.000000 0.000000 0.000000 0.032684
#
#
# Mechanical properties :
#
#
# Convention : Reuss Voigt Hill
#
# Bulk Modulus (GPa) = 28.22792 29.12220 28.67506
# Shear Modulus (GPa) = 25.66042 27.87961 26.77001
#
# Velocity S-wave (km/s) = 3.27301 3.41160 3.34302
# Velocity P-wave (km/s) = 5.10567 5.26085 5.18384
#
# Compressibility (1/GPa) = 0.03542591
#
# Stress axis : x y z
#
# Youngs Moduli (GPa) = 64.70248 58.05380 53.13862
#
# Poissons Ratio (x) = 0.26330 -0.03799
# Poissons Ratio (y) = 0.29346 0.22405
# Poissons Ratio (z) = -0.04626 0.24477
#
# Static dielectric constant tensor:
#      x y z
#    x 2.119630 0.000000 0.000000 
#    y 0.000000 1.996950 0.000000 
#    z 0.000000 0.000000 1.923460 
# 
# From -- ./inp_files/6269.got.cif
#   From: 2010.05.17/outbox.cif.g08.bks.cpg/sg45_4_cif.got.tgz:6269.got - 2010.06.03 19:51:22.
