data_PCOD9376580
_publ_section_title
;
Structure prediction by ZEFSAII (Michael W. Deem and Ramdas Pophale) SiO2 
 PCOD9376580
Probable space group: I B A 2
;
_chemical_formula_sum "Si O2"
_cell_formula_units_Z 56
_cell_length_a 13.203372
_cell_length_b 17.772031
_cell_length_c 10.218226
_cell_angle_alpha 90.000000
_cell_angle_beta 90.000000
_cell_angle_gamma 90.000000
_cell_volume 2397.714257
_symmetry_space_group_name_H-M "I B A 2"
_symmetry_group_IT_number 45
_symmetry_cell_setting 'orthorhombic'
loop_
_space_group_symop_operation_xyz
x,y,z
-x,-y,z
-x,y,1/2+z
x,-y,1/2+z
1/2+x,1/2+y,1/2+z
1/2-x,1/2-y,1/2+z
1/2-x,1/2+y,z
1/2+x,1/2-y,z
loop_
_atom_site_type_symbol
_atom_site_label
_atom_site_fract_x
_atom_site_fract_y
_atom_site_fract_z
Si Si1 0.800296 0.442342 0.800630
Si Si2 0.000000 0.500000 0.925275
Si Si3 0.500000 0.500000 0.505812
Si Si4 0.621189 0.126939 0.057209
Si Si5 0.984683 0.226406 0.630995
Si Si6 0.559716 0.660203 0.891286
Si Si7 0.274217 0.880878 0.796888
Si Si8 0.680621 0.606983 0.544932
O O1 0.794539 0.402717 0.659301
O O2 0.767805 0.529250 0.815230
O O3 0.728590 0.400687 0.903051
O O4 0.919472 0.450898 0.841428
O O5 0.059386 0.446283 0.021410
O O6 0.468755 0.573940 0.424305
O O7 0.603382 0.534702 0.574469
O O8 0.554446 0.189352 0.127936
O O9 0.654527 0.151330 0.910316
O O10 0.007639 0.196096 0.775559
O O11 0.894345 0.176567 0.565477
O O12 0.068578 0.208822 0.522905
O O13 0.668637 0.657571 0.826702
O O14 0.277529 0.879377 0.639992
#
# Coordination Sequence:
#
# PCOD9376580 Si02
#       8
#     8   4   4   8   8   8   8   8
#     4  11  22  41  71  97 130 176 229 287 340 403
#     4  10  24  44  70  98 124 178 232 286 340 394
#     4  10  20  40  70 102 140 176 232 288 330 430
#     4  11  25  44  66  98 139 172 236 291 344 419
#     4  10  25  43  61  99 137 182 226 280 356 415
#     4  10  22  42  67  97 135 179 226 279 349 416
#     4  10  21  40  67  96 131 173 227 285 341 408
#     4  10  22  41  66 101 137 179 226 277 350 412
#
# _framework density 23.355577
#
# number of rings (size 3 to 8) (size 9 to 14) (size 15 to 20)
#    0.000    1.714    1.429    2.143    2.000   10.857 
#    0.000    0.000    0.000    0.000    0.000    0.000 
#    0.000    0.000    0.000    0.000    0.000    0.000 
#
# Total GULP energy -155980.019706 kJ/mol
# GULP energy per Si atom -5570.714990 kJ/mol
# Density = 2.330242 g / cm^3
# Si number density = 23.355577 Si / 1000 Ang^3
#
#
#
# Elastic Constant Matrix: (Units=GPa)
#
#
# Indices 1 2 3 4 5 6 
#
# 1 25.4021 -13.9558 12.7006 0.0000 0.0000 0.0000
# 2 -13.9558 62.1277 24.3979 0.0000 0.0000 0.0000
# 3 12.7006 24.3979 85.6163 0.0000 0.0000 0.0000
# 4 0.0000 0.0000 0.0000 24.9922 0.0000 0.0000
# 5 0.0000 0.0000 0.0000 0.0000 40.4969 0.0000
# 6 0.0000 0.0000 0.0000 0.0000 0.0000 9.1229
#
#
#
# Elastic Compliance Matrix: (Units=1/GPa)
#
#
# Indices 1 2 3 4 5 6 
#
# 1 0.055804 0.017775 -0.013344 0.000000 0.000000 0.000000
# 2 0.017775 0.023786 -0.009415 0.000000 0.000000 0.000000
# 3 -0.013344 -0.009415 0.016342 0.000000 0.000000 0.000000
# 4 0.000000 0.000000 0.000000 0.040012 0.000000 0.000000
# 5 0.000000 0.000000 0.000000 0.000000 0.024693 0.000000
# 6 0.000000 0.000000 0.000000 0.000000 0.000000 0.109614
#
#
# Mechanical properties :
#
#
# Convention : Reuss Voigt Hill
#
# Bulk Modulus (GPa) = 11.63249 24.38128 18.00688
# Shear Modulus (GPa) = 16.18780 24.92263 20.55521
#
# Velocity S-wave (km/s) = 2.63554 3.27019 2.96986
# Velocity P-wave (km/s) = 3.77529 4.97199 4.41438
#
# Compressibility (1/GPa) = 0.08596612
#
# Stress axis : x y z
#
# Youngs Moduli (GPa) = 17.91983 42.04122 61.19025
#
# Poissons Ratio (x) = -0.74730 0.81650
# Poissons Ratio (y) = -0.31853 0.57612
# Poissons Ratio (z) = 0.23911 0.39583
#
# Static dielectric constant tensor:
#      x y z
#    x 2.015510 0.000000 0.000000 
#    y 0.000000 1.838640 0.000000 
#    z 0.000000 0.000000 2.052090 
# 
# From -- ./inp_files/1850.got.cif
#   From: 2010.05.17/outbox.cif.g08.bks.cpg/sg45_1_cif.got.tgz:1850.got - 2010.06.03 19:51:22.
