data_PCOD9376101
_publ_section_title
;
Structure prediction by ZEFSAII (Michael W. Deem and Ramdas Pophale) SiO2 
 PCOD9376101
Probable space group: I B A 2
;
_chemical_formula_sum "Si O2"
_cell_formula_units_Z 48
_cell_length_a 11.883111
_cell_length_b 12.640000
_cell_length_c 14.346695
_cell_angle_alpha 90.000000
_cell_angle_beta 90.000000
_cell_angle_gamma 90.000000
_cell_volume 2154.909786
_symmetry_space_group_name_H-M "I B A 2"
_symmetry_group_IT_number 45
_symmetry_cell_setting 'orthorhombic'
loop_
_space_group_symop_operation_xyz
x,y,z
-x,-y,z
-x,y,1/2+z
x,-y,1/2+z
1/2+x,1/2+y,1/2+z
1/2-x,1/2-y,1/2+z
1/2-x,1/2+y,z
1/2+x,1/2-y,z
loop_
_atom_site_type_symbol
_atom_site_label
_atom_site_fract_x
_atom_site_fract_y
_atom_site_fract_z
Si Si1 0.448670 0.844069 0.365260
Si Si2 0.688985 0.064891 0.855649
Si Si3 0.578102 0.896119 0.063334
Si Si4 0.253539 0.429006 0.066454
Si Si5 0.113989 0.036829 0.204765
Si Si6 0.909445 0.268415 0.672117
O O1 0.583839 0.853321 0.351943
O O2 0.424505 0.820943 0.473423
O O3 0.397748 0.773879 0.283833
O O4 0.382083 0.955205 0.353514
O O5 0.781798 0.053897 0.775456
O O6 0.749964 0.081980 0.955359
O O7 0.523542 0.831561 0.146655
O O8 0.500000 0.000000 0.041424
O O9 0.692311 0.956485 0.083049
O O10 0.362309 0.445460 0.128679
O O11 0.182263 0.335564 0.114771
O O12 0.094146 0.146262 0.150651
O O13 0.000000 0.000000 0.256254
#
# Coordination Sequence:
#
# PCOD9376101 Si02
#       6
#     8   8   8   8   8   8
#     4  10  17  37  73  99 117 154 224 290 318 362
#     4  10  20  42  70  96 124 165 223 281 321 372
#     4   9  17  35  67 104 119 149 224 287 323 360
#     4  10  21  44  70  91 126 173 228 277 317 381
#     4  12  28  45  59  95 146 182 207 258 338 405
#     4  11  22  40  67  99 127 175 215 269 333 389
#
# _framework density 22.274712999999998
#
# number of rings (size 3 to 8) (size 9 to 14) (size 15 to 20)
#    0.000    1.667    6.667    1.000    4.667    3.333 
#   12.000    0.000    0.000    0.000    0.000    0.000 
#    0.000    0.000    0.000    0.000    0.000    0.000 
#
# Total GULP energy -133805.491038 kJ/mol
# GULP energy per Si atom -5575.228793 kJ/mol
# Density = 2.222401 g / cm^3
# Si number density = 22.274713 Si / 1000 Ang^3
#
#
#
# Elastic Constant Matrix: (Units=GPa)
#
#
# Indices 1 2 3 4 5 6 
#
# 1 81.7932 21.2234 41.0014 0.0000 0.0000 0.0000
# 2 21.2234 51.3261 21.3242 0.0000 0.0000 0.0000
# 3 41.0014 21.3242 136.5331 0.0000 0.0000 0.0000
# 4 0.0000 0.0000 0.0000 1.0966 0.0000 0.0000
# 5 0.0000 0.0000 0.0000 0.0000 10.5444 0.0000
# 6 0.0000 0.0000 0.0000 0.0000 0.0000 6.6142
#
#
#
# Elastic Compliance Matrix: (Units=1/GPa)
#
#
# Indices 1 2 3 4 5 6 
#
# 1 0.015407 -0.004757 -0.003884 0.000000 0.000000 0.000000
# 2 -0.004757 0.022304 -0.002055 0.000000 0.000000 0.000000
# 3 -0.003884 -0.002055 0.008812 0.000000 0.000000 0.000000
# 4 0.000000 0.000000 0.000000 0.911896 0.000000 0.000000
# 5 0.000000 0.000000 0.000000 0.000000 0.094837 0.000000
# 6 0.000000 0.000000 0.000000 0.000000 0.000000 0.151190
#
#
# Mechanical properties :
#
#
# Convention : Reuss Voigt Hill
#
# Bulk Modulus (GPa) = 39.79181 48.52782 44.15981
# Shear Modulus (GPa) = 4.05116 16.05794 10.05455
#
# Velocity S-wave (km/s) = 1.35006 2.68788 2.12690
# Velocity P-wave (km/s) = 4.50923 5.60948 5.08918
#
# Compressibility (1/GPa) = 0.02513080
#
# Stress axis : x y z
#
# Youngs Moduli (GPa) = 64.90449 44.83466 113.48799
#
# Poissons Ratio (x) = 0.21329 0.44077
# Poissons Ratio (y) = 0.30877 0.23321
# Poissons Ratio (z) = 0.25208 0.09213
#
# Static dielectric constant tensor:
#      x y z
#    x 1.914120 0.000000 0.000000 
#    y 0.000000 1.794640 0.000000 
#    z 0.000000 0.000000 1.819100 
# 
# From -- ./inp_files/6122.got.cif
#   From: 2010.05.17/outbox.cif.g08.bks.cpg/sg45_4_cif.got.tgz:6122.got - 2010.06.03 19:51:22.
