data_PCOD9376510
_publ_section_title
;
Structure prediction by ZEFSAII (Michael W. Deem and Ramdas Pophale) SiO2 
 PCOD9376510
Probable space group: I B A 2
;
_chemical_formula_sum "Si O2"
_cell_formula_units_Z 56
_cell_length_a 16.923919
_cell_length_b 13.488162
_cell_length_c 11.084262
_cell_angle_alpha 90.000000
_cell_angle_beta 90.000000
_cell_angle_gamma 90.000000
_cell_volume 2530.232875
_symmetry_space_group_name_H-M "I B A 2"
_symmetry_group_IT_number 45
_symmetry_cell_setting 'orthorhombic'
loop_
_space_group_symop_operation_xyz
x,y,z
-x,-y,z
-x,y,1/2+z
x,-y,1/2+z
1/2+x,1/2+y,1/2+z
1/2-x,1/2-y,1/2+z
1/2-x,1/2+y,z
1/2+x,1/2-y,z
loop_
_atom_site_type_symbol
_atom_site_label
_atom_site_fract_x
_atom_site_fract_y
_atom_site_fract_z
Si Si1 0.052472 0.794285 0.512670
Si Si2 0.813315 0.404442 0.238557
Si Si3 0.988631 0.611197 0.646719
Si Si4 0.312360 0.312651 0.905637
Si Si5 0.532918 0.389527 0.282300
Si Si6 0.778422 0.766211 0.084210
Si Si7 0.355457 0.127725 0.785763
O O1 0.014231 0.688158 0.544534
O O2 0.034554 0.850961 0.642449
O O3 0.147151 0.791010 0.499771
O O4 0.017657 0.834088 0.386947
O O5 0.770216 0.344613 0.344748
O O6 0.817567 0.520024 0.273412
O O7 0.901874 0.374617 0.200923
O O8 0.758042 0.369443 0.128713
O O9 0.052416 0.618928 0.754947
O O10 0.000000 0.500000 0.597691
O O11 0.379616 0.376486 0.841477
O O12 0.289375 0.312207 0.044952
O O13 0.335821 0.195610 0.899011
O O14 0.500000 0.500000 0.278802
O O15 0.821720 0.704500 0.188020
#
# Coordination Sequence:
#
# PCOD9376510 Si02
#       7
#     8   8   8   8   8   8   8
#     4  11  24  47  70 105 144 186 243 299 362 438
#     4  10  20  38  64  96 123 174 225 279 365 415
#     4   9  18  39  68  95 128 177 225 285 361 426
#     4  11  23  42  62  99 137 178 232 296 350 425
#     4  12  26  47  71 101 147 193 246 297 356 443
#     4  10  22  41  64  93 139 173 228 294 354 424
#     4   9  20  40  61  89 136 165 220 293 338 437
#
# _framework density 22.132351
#
# number of rings (size 3 to 8) (size 9 to 14) (size 15 to 20)
#    0.000    1.714    4.286    1.286    2.000    3.429 
#    5.143    2.143    0.000    0.000    0.000    0.000 
#    0.000    0.000    0.000    0.000    0.000    0.000 
#
# Total GULP energy -155888.591317 kJ/mol
# GULP energy per Si atom -5567.449690 kJ/mol
# Density = 2.208198 g / cm^3
# Si number density = 22.132351 Si / 1000 Ang^3
#
#
#
# Elastic Constant Matrix: (Units=GPa)
#
#
# Indices 1 2 3 4 5 6 
#
# 1 127.2481 65.3971 16.1436 0.0000 0.0000 0.0000
# 2 65.3971 142.9031 15.6209 0.0000 0.0000 0.0000
# 3 16.1436 15.6209 41.4928 0.0000 0.0000 0.0000
# 4 0.0000 0.0000 0.0000 3.8705 0.0000 0.0000
# 5 0.0000 0.0000 0.0000 0.0000 11.3147 0.0000
# 6 0.0000 0.0000 0.0000 0.0000 0.0000 21.9628
#
#
#
# Elastic Compliance Matrix: (Units=1/GPa)
#
#
# Indices 1 2 3 4 5 6 
#
# 1 0.010495 -0.004543 -0.002373 0.000000 0.000000 0.000000
# 2 -0.004543 0.009265 -0.001720 0.000000 0.000000 0.000000
# 3 -0.002373 -0.001720 0.025671 0.000000 0.000000 0.000000
# 4 0.000000 0.000000 0.000000 0.258366 0.000000 0.000000
# 5 0.000000 0.000000 0.000000 0.000000 0.088381 0.000000
# 6 0.000000 0.000000 0.000000 0.000000 0.000000 0.045532
#
#
# Mechanical properties :
#
#
# Convention : Reuss Voigt Hill
#
# Bulk Modulus (GPa) = 35.51355 56.21859 45.86607
# Shear Modulus (GPa) = 10.76732 21.72842 16.24787
#
# Velocity S-wave (km/s) = 2.20806 3.13669 2.71241
# Velocity P-wave (km/s) = 4.75200 6.21085 5.52975
#
# Compressibility (1/GPa) = 0.02815827
#
# Stress axis : x y z
#
# Youngs Moduli (GPa) = 95.28661 107.93330 38.95384
#
# Poissons Ratio (x) = 0.49038 0.09243
# Poissons Ratio (y) = 0.43292 0.06701
# Poissons Ratio (z) = 0.22609 0.18568
#
# Static dielectric constant tensor:
#      x y z
#    x 1.875160 0.000000 0.000000 
#    y 0.000000 1.860000 0.000000 
#    z 0.000000 0.000000 1.977640 
# 
# From -- ./inp_files/4149.got.cif
#   From: 2010.05.17/outbox.cif.g08.bks.cpg/sg45_3_cif.got.tgz:4149.got - 2010.06.03 19:51:22.
