data_PCOD9376223
_publ_section_title
;
Structure prediction by ZEFSAII (Michael W. Deem and Ramdas Pophale) SiO2 
 PCOD9376223
Probable space group: I B A 2
;
_chemical_formula_sum "Si O2"
_cell_formula_units_Z 40
_cell_length_a 20.515056
_cell_length_b 18.758775
_cell_length_c 5.276624
_cell_angle_alpha 90.000000
_cell_angle_beta 90.000000
_cell_angle_gamma 90.000000
_cell_volume 2030.641837
_symmetry_space_group_name_H-M "I B A 2"
_symmetry_group_IT_number 45
_symmetry_cell_setting 'orthorhombic'
loop_
_space_group_symop_operation_xyz
x,y,z
-x,-y,z
-x,y,1/2+z
x,-y,1/2+z
1/2+x,1/2+y,1/2+z
1/2-x,1/2-y,1/2+z
1/2-x,1/2+y,z
1/2+x,1/2-y,z
loop_
_atom_site_type_symbol
_atom_site_label
_atom_site_fract_x
_atom_site_fract_y
_atom_site_fract_z
Si Si1 0.024566 0.728620 0.660240
Si Si2 0.329333 0.207839 0.844143
Si Si3 0.654117 0.454107 0.336032
Si Si4 0.266602 0.155551 0.347649
Si Si5 0.525928 0.610884 0.031943
O O1 0.096492 0.726918 0.777188
O O2 0.020393 0.695147 0.380080
O O3 0.998055 0.808586 0.594533
O O4 0.303422 0.160338 0.613023
O O5 0.285651 0.279390 0.841370
O O6 0.314575 0.169820 0.111226
O O7 0.647796 0.487644 0.058323
O O8 0.723431 0.414990 0.337700
O O9 0.597029 0.398268 0.411765
O O10 0.520436 0.578404 0.313542
#
# Coordination Sequence:
#
# PCOD9376223 Si02
#       5
#     8   8   8   8   8
#     4  10  19  32  53  80 112 143 175 223 289 346
#     4  10  20  35  58  81 108 148 188 243 303 342
#     4  12  25  39  56  80 117 163 205 238 275 339
#     4  10  21  37  55  79 109 145 198 246 288 337
#     4  10  21  35  52  75 112 155 196 233 273 326
#
# _framework density 19.698207
#
# number of rings (size 3 to 8) (size 9 to 14) (size 15 to 20)
#    0.000    1.600    0.000    6.000    0.000   12.000 
#    0.000    0.000    0.000    0.000    0.000    0.000 
#    0.000   56.000    0.000    0.000    0.000    0.000 
#
# Total GULP energy -111515.524259 kJ/mol
# GULP energy per Si atom -5575.776213 kJ/mol
# Density = 1.965337 g / cm^3
# Si number density = 19.698207 Si / 1000 Ang^3
#
#
#
# Elastic Constant Matrix: (Units=GPa)
#
#
# Indices 1 2 3 4 5 6 
#
# 1 81.3186 22.9061 7.8434 0.0000 0.0000 0.0000
# 2 22.9061 22.7173 9.2497 0.0000 0.0000 0.0000
# 3 7.8434 9.2497 144.4277 0.0000 0.0000 0.0000
# 4 0.0000 0.0000 0.0000 13.5512 0.0000 0.0000
# 5 0.0000 0.0000 0.0000 0.0000 36.7164 0.0000
# 6 0.0000 0.0000 0.0000 0.0000 0.0000 29.1199
#
#
#
# Elastic Compliance Matrix: (Units=1/GPa)
#
#
# Indices 1 2 3 4 5 6 
#
# 1 0.017180 -0.017397 0.000181 0.000000 0.000000 0.000000
# 2 -0.017397 0.062814 -0.003078 0.000000 0.000000 0.000000
# 3 0.000181 -0.003078 0.007111 0.000000 0.000000 0.000000
# 4 0.000000 0.000000 0.000000 0.073794 0.000000 0.000000
# 5 0.000000 0.000000 0.000000 0.000000 0.027236 0.000000
# 6 0.000000 0.000000 0.000000 0.000000 0.000000 0.034341
#
#
# Mechanical properties :
#
#
# Convention : Reuss Voigt Hill
#
# Bulk Modulus (GPa) = 21.49708 36.49578 28.99643
# Shear Modulus (GPa) = 17.94884 29.77513 23.86198
#
# Velocity S-wave (km/s) = 3.02187 3.89210 3.48426
# Velocity P-wave (km/s) = 4.80755 6.22621 5.56229
#
# Compressibility (1/GPa) = 0.04651795
#
# Stress axis : x y z
#
# Youngs Moduli (GPa) = 58.20644 15.92003 140.62377
#
# Poissons Ratio (x) = 0.27696 -0.02547
# Poissons Ratio (y) = 1.01260 0.43285
# Poissons Ratio (z) = -0.01054 0.04900
#
# Static dielectric constant tensor:
#      x y z
#    x 1.721840 0.000000 0.000000 
#    y 0.000000 1.762860 0.000000 
#    z 0.000000 0.000000 1.802080 
# 
# From -- ./inp_files/257.got.cif
#   From: 2010.05.17/outbox.cif.g08.bks.cpg/sg45_1_cif.got.tgz:257.got - 2010.06.03 19:51:22.
