data_PCOD9376571
_publ_section_title
;
Structure prediction by ZEFSAII (Michael W. Deem and Ramdas Pophale) SiO2 
 PCOD9376571
Probable space group: I B A 2
;
_chemical_formula_sum "Si O2"
_cell_formula_units_Z 48
_cell_length_a 23.903906
_cell_length_b 9.257385
_cell_length_c 7.980630
_cell_angle_alpha 90.000000
_cell_angle_beta 90.000000
_cell_angle_gamma 90.000000
_cell_volume 1766.014945
_symmetry_space_group_name_H-M "I B A 2"
_symmetry_group_IT_number 45
_symmetry_cell_setting 'orthorhombic'
loop_
_space_group_symop_operation_xyz
x,y,z
-x,-y,z
-x,y,1/2+z
x,-y,1/2+z
1/2+x,1/2+y,1/2+z
1/2-x,1/2-y,1/2+z
1/2-x,1/2+y,z
1/2+x,1/2-y,z
loop_
_atom_site_type_symbol
_atom_site_label
_atom_site_fract_x
_atom_site_fract_y
_atom_site_fract_z
Si Si1 0.382569 0.505261 0.224650
Si Si2 0.500000 0.000000 0.118519
Si Si3 0.221383 0.138101 0.901893
Si Si4 0.710265 0.929108 0.219309
Si Si5 0.904740 0.312802 0.157354
Si Si6 0.000000 0.000000 0.420888
Si Si7 0.433698 0.247706 0.549152
O O1 0.329380 0.465569 0.339550
O O2 0.389021 0.353793 0.121520
O O3 0.441843 0.516451 0.321999
O O4 0.383305 0.654976 0.121582
O O5 0.453869 0.112882 0.052764
O O6 0.545313 0.121860 0.171880
O O7 0.210209 0.304410 0.861298
O O8 0.149990 0.410152 0.637528
O O9 0.274099 0.083009 0.791887
O O10 0.241993 0.110247 0.087116
O O11 0.922685 0.310244 0.358139
O O12 0.015621 0.861678 0.529773
#
# Coordination Sequence:
#
# PCOD9376571 Si02
#       7
#     8   4   8   8   8   4   8
#     4  10  23  43  73 105 144 195 257 310 372 453
#     4  12  24  42  66 110 156 198 242 306 392 454
#     4  11  26  48  78 108 153 197 259 317 390 450
#     4  11  26  49  74 112 148 199 257 317 380 463
#     4  10  25  44  68 104 150 194 252 303 386 447
#     4  10  20  40  66 106 146 190 254 312 368 450
#     4  11  22  40  71 102 154 195 249 308 377 458
#
# _framework density 27.179836999999999
#
# number of rings (size 3 to 8) (size 9 to 14) (size 15 to 20)
#    0.000    1.333    0.000    5.000    9.333    1.333 
#    3.000    0.000    0.000    0.000    0.000    0.000 
#    0.000    0.000    0.000    0.000    0.000    0.000 
#
# Total GULP energy -133990.818768 kJ/mol
# GULP energy per Si atom -5582.950782 kJ/mol
# Density = 2.711797 g / cm^3
# Si number density = 27.179837 Si / 1000 Ang^3
#
#
#
# Elastic Constant Matrix: (Units=GPa)
#
#
# Indices 1 2 3 4 5 6 
#
# 1 143.3567 33.7207 19.6926 0.0000 0.0000 0.0000
# 2 33.7207 119.2395 16.8476 0.0000 0.0000 0.0000
# 3 19.6926 16.8476 85.7806 0.0000 0.0000 0.0000
# 4 0.0000 0.0000 0.0000 15.1953 0.0000 0.0000
# 5 0.0000 0.0000 0.0000 0.0000 14.7488 0.0000
# 6 0.0000 0.0000 0.0000 0.0000 0.0000 48.5092
#
#
#
# Elastic Compliance Matrix: (Units=1/GPa)
#
#
# Indices 1 2 3 4 5 6 
#
# 1 0.007625 -0.001963 -0.001365 0.000000 0.000000 0.000000
# 2 -0.001963 0.009131 -0.001343 0.000000 0.000000 0.000000
# 3 -0.001365 -0.001343 0.012235 0.000000 0.000000 0.000000
# 4 0.000000 0.000000 0.000000 0.065810 0.000000 0.000000
# 5 0.000000 0.000000 0.000000 0.000000 0.067802 0.000000
# 6 0.000000 0.000000 0.000000 0.000000 0.000000 0.020615
#
#
# Mechanical properties :
#
#
# Convention : Reuss Voigt Hill
#
# Bulk Modulus (GPa) = 50.89291 54.32205 52.60748
# Shear Modulus (GPa) = 25.11181 34.23171 29.67176
#
# Velocity S-wave (km/s) = 3.04289 3.55273 3.30765
# Velocity P-wave (km/s) = 5.57770 6.07114 5.82964
#
# Compressibility (1/GPa) = 0.01964910
#
# Stress axis : x y z
#
# Youngs Moduli (GPa) = 131.14855 109.51145 81.73490
#
# Poissons Ratio (x) = 0.21502 0.11155
# Poissons Ratio (y) = 0.25751 0.10974
# Poissons Ratio (z) = 0.17899 0.14704
#
# Static dielectric constant tensor:
#      x y z
#    x 2.170430 0.000000 0.000000 
#    y 0.000000 2.098030 0.000000 
#    z 0.000000 0.000000 2.334560 
# 
# From -- ./inp_files/4780.got.cif
#   From: 2010.05.17/outbox.cif.g08.bks.cpg/sg45_3_cif.got.tgz:4780.got - 2010.06.03 19:51:22.
