data_PCOD9376868
_publ_section_title
;
Structure prediction by ZEFSAII (Michael W. Deem and Ramdas Pophale) SiO2 
 PCOD9376868
Probable space group: I B A 2
;
_chemical_formula_sum "Si O2"
_cell_formula_units_Z 40
_cell_length_a 10.338989
_cell_length_b 14.844562
_cell_length_c 9.878031
_cell_angle_alpha 90.000000
_cell_angle_beta 90.000000
_cell_angle_gamma 90.000000
_cell_volume 1516.058103
_symmetry_space_group_name_H-M "I B A 2"
_symmetry_group_IT_number 45
_symmetry_cell_setting 'orthorhombic'
loop_
_space_group_symop_operation_xyz
x,y,z
-x,-y,z
-x,y,1/2+z
x,-y,1/2+z
1/2+x,1/2+y,1/2+z
1/2-x,1/2-y,1/2+z
1/2-x,1/2+y,z
1/2+x,1/2-y,z
loop_
_atom_site_type_symbol
_atom_site_label
_atom_site_fract_x
_atom_site_fract_y
_atom_site_fract_z
Si Si1 0.633382 0.908280 0.363950
Si Si2 0.014315 0.154714 0.161939
Si Si3 0.703648 0.519281 0.193129
Si Si4 0.140302 0.769873 0.917518
Si Si5 0.618863 0.093364 0.548379
O O1 0.710841 0.999789 0.323712
O O2 0.740056 0.837975 0.413542
O O3 0.506784 0.907814 0.454550
O O4 0.407850 0.117932 0.207024
O O5 0.108307 0.066645 0.166784
O O6 0.078541 0.223247 0.267752
O O7 0.877293 0.109289 0.205440
O O8 0.974341 0.195337 0.017714
O O9 0.807689 0.501636 0.075727
O O10 0.192150 0.677499 0.981473
#
# Coordination Sequence:
#
# PCOD9376868 Si02
#       5
#     8   8   8   8   8
#     4   9  22  41  68  99 147 193 248 303 393 464
#     4  10  21  44  70 103 149 191 256 317 379 467
#     4   8  21  41  69  99 147 195 250 307 389 460
#     4  11  23  39  74 109 143 193 255 323 384 461
#     4  10  21  42  70 106 150 186 252 314 393 455
#
# _framework density 26.384211000000001
#
# number of rings (size 3 to 8) (size 9 to 14) (size 15 to 20)
#    1.200    1.200    0.000    1.200    2.800    8.000 
#    3.600    1.000    8.800    0.000    0.000    0.000 
#    0.000    0.000    0.000    0.000    0.000    0.000 
#
# Total GULP energy -111655.919187 kJ/mol
# GULP energy per Si atom -5582.795959 kJ/mol
# Density = 2.632416 g / cm^3
# Si number density = 26.384211 Si / 1000 Ang^3
#
#
#
# Elastic Constant Matrix: (Units=GPa)
#
#
# Indices 1 2 3 4 5 6 
#
# 1 128.8721 11.2055 32.1503 0.0000 0.0000 0.0000
# 2 11.2055 71.1893 -23.6440 0.0000 0.0000 0.0000
# 3 32.1503 -23.6440 89.2580 0.0000 0.0000 0.0000
# 4 0.0000 0.0000 0.0000 33.4156 0.0000 0.0000
# 5 0.0000 0.0000 0.0000 0.0000 46.4852 0.0000
# 6 0.0000 0.0000 0.0000 0.0000 0.0000 47.0933
#
#
#
# Elastic Compliance Matrix: (Units=1/GPa)
#
#
# Indices 1 2 3 4 5 6 
#
# 1 0.008985 -0.002729 -0.003959 0.000000 0.000000 0.000000
# 2 -0.002729 0.016231 0.005283 0.000000 0.000000 0.000000
# 3 -0.003959 0.005283 0.014029 0.000000 0.000000 0.000000
# 4 0.000000 0.000000 0.000000 0.029926 0.000000 0.000000
# 5 0.000000 0.000000 0.000000 0.000000 0.021512 0.000000
# 6 0.000000 0.000000 0.000000 0.000000 0.000000 0.021234
#
#
# Mechanical properties :
#
#
# Convention : Reuss Voigt Hill
#
# Bulk Modulus (GPa) = 27.44754 36.52700 31.98727
# Shear Modulus (GPa) = 39.40938 43.37267 41.39102
#
# Velocity S-wave (km/s) = 3.86900 4.05889 3.96508
# Velocity P-wave (km/s) = 5.51221 5.98669 5.75434
#
# Compressibility (1/GPa) = 0.03643313
#
# Stress axis : x y z
#
# Youngs Moduli (GPa) = 111.30100 61.61001 71.28153
#
# Poissons Ratio (x) = 0.16814 0.28222
# Poissons Ratio (y) = 0.30376 -0.37655
# Poissons Ratio (z) = 0.44066 -0.32546
#
# Static dielectric constant tensor:
#      x y z
#    x 2.078420 0.000000 0.000000 
#    y 0.000000 2.282920 0.000000 
#    z 0.000000 0.000000 2.331780 
# 
# From -- ./inp_files/1264.got.cif
#   From: 2010.05.17/outbox.cif.g08.bks.cpg/sg45_1_cif.got.tgz:1264.got - 2010.06.03 19:51:22.
