data_PCOD9376474
_publ_section_title
;
Structure prediction by ZEFSAII (Michael W. Deem and Ramdas Pophale) SiO2 
 PCOD9376474
Probable space group: I B A 2
;
_chemical_formula_sum "Si O2"
_cell_formula_units_Z 64
_cell_length_a 18.952922
_cell_length_b 8.684839
_cell_length_c 19.112527
_cell_angle_alpha 90.000000
_cell_angle_beta 90.000000
_cell_angle_gamma 90.000000
_cell_volume 3145.980737
_symmetry_space_group_name_H-M "I B A 2"
_symmetry_group_IT_number 45
_symmetry_cell_setting 'orthorhombic'
loop_
_space_group_symop_operation_xyz
x,y,z
-x,-y,z
-x,y,1/2+z
x,-y,1/2+z
1/2+x,1/2+y,1/2+z
1/2-x,1/2-y,1/2+z
1/2-x,1/2+y,z
1/2+x,1/2-y,z
loop_
_atom_site_type_symbol
_atom_site_label
_atom_site_fract_x
_atom_site_fract_y
_atom_site_fract_z
Si Si1 0.059872 0.370229 0.699580
Si Si2 0.322175 0.063896 0.627516
Si Si3 0.853493 0.653862 0.835500
Si Si4 0.173707 0.069090 0.472819
Si Si5 0.681850 0.590126 0.668780
Si Si6 0.565844 0.598874 0.089527
Si Si7 0.831597 0.297654 0.486984
Si Si8 0.213961 0.983087 0.323042
O O1 0.129957 0.447672 0.669184
O O2 0.084106 0.331118 0.779129
O O3 0.043986 0.233143 0.644428
O O4 0.000000 0.500000 0.700604
O O5 0.313588 0.227378 0.664754
O O6 0.357792 0.111204 0.554494
O O7 0.246164 0.984447 0.625189
O O8 0.798001 0.513959 0.827151
O O9 0.803693 0.803425 0.826969
O O10 0.873329 0.656865 0.917133
O O11 0.115052 0.146988 0.523119
O O12 0.249782 0.147908 0.483935
O O13 0.172119 0.062509 0.387810
O O14 0.169385 0.887050 0.492736
O O15 0.612172 0.517654 0.636332
O O16 0.688932 0.541632 0.748591
O O17 0.500000 0.500000 0.062639
#
# Coordination Sequence:
#
# PCOD9376474 Si02
#       8
#     8   8   8   8   8   8   8   8
#     4  12  27  44  63  92 131 175 223 275 325 391
#     4  12  22  37  65  99 128 165 217 270 322 383
#     4  10  21  39  63  93 133 163 211 267 332 391
#     4  10  22  38  65  95 132 164 211 267 333 391
#     4  12  21  37  66  97 127 165 217 271 324 383
#     4  12  25  44  64  90 128 174 218 273 325 388
#     4  10  20  37  64  97 130 161 207 268 324 386
#     4  10  20  38  64 100 128 161 206 271 324 386
#
# _framework density 20.343418
#
# number of rings (size 3 to 8) (size 9 to 14) (size 15 to 20)
#    0.000    1.000    5.000    2.250    1.750    0.000 
#    0.000    1.250    2.750    0.000    0.000    0.000 
#    0.000    0.000    0.000    0.000    0.000    0.000 
#
# Total GULP energy -178573.725462 kJ/mol
# GULP energy per Si atom -5580.428921 kJ/mol
# Density = 2.029712 g / cm^3
# Si number density = 20.343418 Si / 1000 Ang^3
#
#
#
# Elastic Constant Matrix: (Units=GPa)
#
#
# Indices 1 2 3 4 5 6 
#
# 1 42.7654 0.4398 3.5868 0.0000 0.0000 0.0000
# 2 0.4398 51.3050 2.8662 0.0000 0.0000 0.0000
# 3 3.5868 2.8662 140.3592 0.0000 0.0000 0.0000
# 4 0.0000 0.0000 0.0000 2.5875 0.0000 0.0000
# 5 0.0000 0.0000 0.0000 0.0000 19.6503 0.0000
# 6 0.0000 0.0000 0.0000 0.0000 0.0000 34.1110
#
#
#
# Elastic Compliance Matrix: (Units=1/GPa)
#
#
# Indices 1 2 3 4 5 6 
#
# 1 0.023435 -0.000168 -0.000595 0.000000 0.000000 0.000000
# 2 -0.000168 0.019515 -0.000394 0.000000 0.000000 0.000000
# 3 -0.000595 -0.000394 0.007148 0.000000 0.000000 0.000000
# 4 0.000000 0.000000 0.000000 0.386475 0.000000 0.000000
# 5 0.000000 0.000000 0.000000 0.000000 0.050890 0.000000
# 6 0.000000 0.000000 0.000000 0.000000 0.000000 0.029316
#
#
# Mechanical properties :
#
#
# Convention : Reuss Voigt Hill
#
# Bulk Modulus (GPa) = 20.92792 27.57948 24.25370
# Shear Modulus (GPa) = 9.34544 26.43888 17.89216
#
# Velocity S-wave (km/s) = 2.14565 3.60895 2.96886
# Velocity P-wave (km/s) = 4.05562 5.56349 4.86829
#
# Compressibility (1/GPa) = 0.04778306
#
# Stress axis : x y z
#
# Youngs Moduli (GPa) = 42.67114 51.24335 139.90235
#
# Poissons Ratio (x) = 0.00859 0.08331
# Poissons Ratio (y) = 0.00715 0.05515
# Poissons Ratio (z) = 0.02541 0.02020
#
# Static dielectric constant tensor:
#      x y z
#    x 1.673170 0.000000 0.000000 
#    y 0.000000 1.728090 0.000000 
#    z 0.000000 0.000000 1.795750 
# 
# From -- ./inp_files/9260.got.cif
#   From: 2010.05.17/outbox.cif.g08.bks.cpg/sg45_5_cif.got.tgz:9260.got - 2010.06.03 19:51:22.
