data_PCOD9376280
_publ_section_title
;
Structure prediction by ZEFSAII (Michael W. Deem and Ramdas Pophale) SiO2 
 PCOD9376280
Probable space group: I B A 2
;
_chemical_formula_sum "Si O2"
_cell_formula_units_Z 56
_cell_length_a 15.761008
_cell_length_b 19.977900
_cell_length_c 9.149387
_cell_angle_alpha 90.000000
_cell_angle_beta 90.000000
_cell_angle_gamma 90.000000
_cell_volume 2880.884335
_symmetry_space_group_name_H-M "I B A 2"
_symmetry_group_IT_number 45
_symmetry_cell_setting 'orthorhombic'
loop_
_space_group_symop_operation_xyz
x,y,z
-x,-y,z
-x,y,1/2+z
x,-y,1/2+z
1/2+x,1/2+y,1/2+z
1/2-x,1/2-y,1/2+z
1/2-x,1/2+y,z
1/2+x,1/2-y,z
loop_
_atom_site_type_symbol
_atom_site_label
_atom_site_fract_x
_atom_site_fract_y
_atom_site_fract_z
Si Si1 0.000000 0.000000 0.468920
Si Si2 0.580999 0.409996 0.216771
Si Si3 0.763945 0.815182 0.233704
Si Si4 0.414034 0.189419 0.396735
Si Si5 0.342820 0.776592 0.464669
Si Si6 0.947592 0.410909 0.945089
Si Si7 0.498336 0.271080 0.136484
Si Si8 0.000000 0.500000 0.195875
O O1 0.052189 0.049547 0.361213
O O2 0.939228 0.042897 0.576933
O O3 0.676400 0.380458 0.224593
O O4 0.523766 0.343240 0.195531
O O5 0.678642 0.822468 0.331607
O O6 0.815185 0.757194 0.316106
O O7 0.733347 0.789450 0.076673
O O8 0.457908 0.120520 0.442842
O O9 0.471733 0.220871 0.266347
O O10 0.429062 0.239760 0.532268
O O11 0.385637 0.848555 0.445304
O O12 0.412849 0.728430 0.539117
O O13 0.942057 0.455934 0.802342
O O14 0.943181 0.454144 0.090996
#
# Coordination Sequence:
#
# PCOD9376280 Si02
#       8
#     4   8   8   8   8   8   8   4
#     4  10  24  40  62  80 110 162 204 226 264 338
#     4  11  21  40  60  84 113 150 196 239 278 335
#     4  11  22  36  58  90 119 143 180 242 302 333
#     4  10  20  35  59  89 116 144 185 240 294 341
#     4  10  22  37  58  89 117 145 184 237 299 346
#     4  10  20  38  56  83 114 152 196 228 270 346
#     4  10  19  35  62  85 110 148 187 233 295 353
#     4  10  20  34  60  78 104 152 200 228 256 320
#
# _framework density 19.438476999999999
#
# number of rings (size 3 to 8) (size 9 to 14) (size 15 to 20)
#    0.000    1.714    0.000    6.857    0.000    2.286 
#    0.000    5.714    0.000    0.000    0.000    0.000 
#    0.000    0.000    0.000    0.000    0.000    0.000 
#
# Total GULP energy -156373.217477 kJ/mol
# GULP energy per Si atom -5584.757767 kJ/mol
# Density = 1.939423 g / cm^3
# Si number density = 19.438477 Si / 1000 Ang^3
#
#
#
# Elastic Constant Matrix: (Units=GPa)
#
#
# Indices 1 2 3 4 5 6 
#
# 1 100.7162 47.1004 52.9046 0.0000 0.0000 0.0000
# 2 47.1004 107.0861 61.0711 0.0000 0.0000 0.0000
# 3 52.9046 61.0711 142.1581 0.0000 0.0000 0.0000
# 4 0.0000 0.0000 0.0000 26.4626 0.0000 0.0000
# 5 0.0000 0.0000 0.0000 0.0000 29.4608 0.0000
# 6 0.0000 0.0000 0.0000 0.0000 0.0000 18.8844
#
#
#
# Elastic Compliance Matrix: (Units=1/GPa)
#
#
# Indices 1 2 3 4 5 6 
#
# 1 0.013572 -0.004091 -0.003293 0.000000 0.000000 0.000000
# 2 -0.004091 0.013602 -0.004321 0.000000 0.000000 0.000000
# 3 -0.003293 -0.004321 0.010116 0.000000 0.000000 0.000000
# 4 0.000000 0.000000 0.000000 0.037789 0.000000 0.000000
# 5 0.000000 0.000000 0.000000 0.000000 0.033943 0.000000
# 6 0.000000 0.000000 0.000000 0.000000 0.000000 0.052954
#
#
# Mechanical properties :
#
#
# Convention : Reuss Voigt Hill
#
# Bulk Modulus (GPa) = 72.04882 74.67920 73.36401
# Shear Modulus (GPa) = 26.31386 27.55385 26.93386
#
# Velocity S-wave (km/s) = 3.68326 3.76904 3.72640
# Velocity P-wave (km/s) = 7.43196 7.57909 7.50588
#
# Compressibility (1/GPa) = 0.01387948
#
# Stress axis : x y z
#
# Youngs Moduli (GPa) = 73.68036 73.51876 98.85114
#
# Poissons Ratio (x) = 0.30079 0.32554
# Poissons Ratio (y) = 0.30146 0.42711
# Poissons Ratio (z) = 0.24265 0.31766
#
# Static dielectric constant tensor:
#      x y z
#    x 1.721460 0.000000 0.000000 
#    y 0.000000 1.667370 0.000000 
#    z 0.000000 0.000000 1.720840 
# 
# From -- ./inp_files/1837.got.cif
#   From: 2010.05.17/outbox.cif.g08.bks.cpg/sg45_1_cif.got.tgz:1837.got - 2010.06.03 19:51:22.
