data_PCOD9376437
_publ_section_title
;
Structure prediction by ZEFSAII (Michael W. Deem and Ramdas Pophale) SiO2 
 PCOD9376437
Probable space group: I B A 2
;
_chemical_formula_sum "Si O2"
_cell_formula_units_Z 56
_cell_length_a 16.974784
_cell_length_b 8.697876
_cell_length_c 16.163666
_cell_angle_alpha 90.000000
_cell_angle_beta 90.000000
_cell_angle_gamma 90.000000
_cell_volume 2386.477457
_symmetry_space_group_name_H-M "I B A 2"
_symmetry_group_IT_number 45
_symmetry_cell_setting 'orthorhombic'
loop_
_space_group_symop_operation_xyz
x,y,z
-x,-y,z
-x,y,1/2+z
x,-y,1/2+z
1/2+x,1/2+y,1/2+z
1/2-x,1/2-y,1/2+z
1/2-x,1/2+y,z
1/2+x,1/2-y,z
loop_
_atom_site_type_symbol
_atom_site_label
_atom_site_fract_x
_atom_site_fract_y
_atom_site_fract_z
Si Si1 0.729825 0.254949 0.526690
Si Si2 0.659747 0.875594 0.804759
Si Si3 0.500000 0.500000 0.815710
Si Si4 0.500000 0.000000 0.077546
Si Si5 0.156701 0.038482 0.117222
Si Si6 0.667127 0.484422 0.311101
Si Si7 0.041181 0.250052 0.180410
Si Si8 0.361128 0.035751 0.455256
O O1 0.774985 0.164331 0.600298
O O2 0.676635 0.394455 0.560131
O O3 0.680413 0.123136 0.483236
O O4 0.797700 0.329844 0.469174
O O5 0.669625 0.696995 0.828457
O O6 0.613405 0.855657 0.717233
O O7 0.610976 0.992138 0.863241
O O8 0.747291 0.942914 0.818882
O O9 0.414493 0.531575 0.856978
O O10 0.512317 0.649398 0.757385
O O11 0.521525 0.858876 0.137371
O O12 0.568801 0.058217 0.019000
O O13 0.154427 0.989680 0.212867
O O14 0.075624 0.132184 0.112297
#
# Coordination Sequence:
#
# PCOD9376437 Si02
#       8
#     8   8   4   4   8   8   8   8
#     4  10  20  36  63  87 125 159 210 251 311 375
#     4  10  22  40  62  90 126 164 211 250 312 385
#     4   8  20  38  62  94 128 144 206 272 314 356
#     4  12  26  40  62  94 126 164 218 264 324 356
#     4   9  17  34  58  93 114 155 207 260 292 364
#     4  10  20  36  66  93 123 160 212 255 311 369
#     4  10  22  40  60  90 123 165 212 261 309 376
#     4  11  24  41  63  91 130 165 205 260 318 388
#
# _framework density 23.465547999999998
#
# number of rings (size 3 to 8) (size 9 to 14) (size 15 to 20)
#    0.000    2.286    1.429    2.571    6.000    1.714 
#    0.000    4.286   12.571    0.000    0.000    0.000 
#    0.000    0.000    0.000    0.000    0.000    0.000 
#
# Total GULP energy -156026.394831 kJ/mol
# GULP energy per Si atom -5572.371244 kJ/mol
# Density = 2.341214 g / cm^3
# Si number density = 23.465548 Si / 1000 Ang^3
#
#
#
# Elastic Constant Matrix: (Units=GPa)
#
#
# Indices 1 2 3 4 5 6 
#
# 1 58.5535 15.3443 3.3536 0.0000 0.0000 0.0000
# 2 15.3443 52.3898 -9.4393 0.0000 0.0000 0.0000
# 3 3.3536 -9.4393 31.7939 0.0000 0.0000 0.0000
# 4 0.0000 0.0000 0.0000 24.9125 0.0000 0.0000
# 5 0.0000 0.0000 0.0000 0.0000 22.9917 0.0000
# 6 0.0000 0.0000 0.0000 0.0000 0.0000 22.4446
#
#
#
# Elastic Compliance Matrix: (Units=1/GPa)
#
#
# Indices 1 2 3 4 5 6 
#
# 1 0.018934 -0.006239 -0.003849 0.000000 0.000000 0.000000
# 2 -0.006239 0.022222 0.007256 0.000000 0.000000 0.000000
# 3 -0.003849 0.007256 0.034013 0.000000 0.000000 0.000000
# 4 0.000000 0.000000 0.000000 0.040140 0.000000 0.000000
# 5 0.000000 0.000000 0.000000 0.000000 0.043494 0.000000
# 6 0.000000 0.000000 0.000000 0.000000 0.000000 0.044554
#
#
# Mechanical properties :
#
#
# Convention : Reuss Voigt Hill
#
# Bulk Modulus (GPa) = 14.38780 17.91715 16.15248
# Shear Modulus (GPa) = 21.53400 22.96833 22.25116
#
# Velocity S-wave (km/s) = 3.03262 3.13199 3.08270
# Velocity P-wave (km/s) = 4.29035 4.55316 4.42371
#
# Compressibility (1/GPa) = 0.06950331
#
# Stress axis : x y z
#
# Youngs Moduli (GPa) = 52.81550 44.99982 29.40074
#
# Poissons Ratio (x) = 0.28076 0.11318
# Poissons Ratio (y) = 0.32952 -0.21332
# Poissons Ratio (z) = 0.20331 -0.32650
#
# Static dielectric constant tensor:
#      x y z
#    x 1.993660 0.000000 0.000000 
#    y 0.000000 1.875970 0.000000 
#    z 0.000000 0.000000 1.981150 
# 
# From -- ./inp_files/9241.got.cif
#   From: 2010.05.17/outbox.cif.g08.bks.cpg/sg45_5_cif.got.tgz:9241.got - 2010.06.03 19:51:22.
