data_PCOD9376896
_publ_section_title
;
Structure prediction by ZEFSAII (Michael W. Deem and Ramdas Pophale) SiO2 
 PCOD9376896
Probable space group: I B A 2
;
_chemical_formula_sum "Si O2"
_cell_formula_units_Z 64
_cell_length_a 8.165820
_cell_length_b 21.521754
_cell_length_c 17.002758
_cell_angle_alpha 90.000000
_cell_angle_beta 90.000000
_cell_angle_gamma 90.000000
_cell_volume 2988.111776
_symmetry_space_group_name_H-M "I B A 2"
_symmetry_group_IT_number 45
_symmetry_cell_setting 'orthorhombic'
loop_
_space_group_symop_operation_xyz
x,y,z
-x,-y,z
-x,y,1/2+z
x,-y,1/2+z
1/2+x,1/2+y,1/2+z
1/2-x,1/2-y,1/2+z
1/2-x,1/2+y,z
1/2+x,1/2-y,z
loop_
_atom_site_type_symbol
_atom_site_label
_atom_site_fract_x
_atom_site_fract_y
_atom_site_fract_z
Si Si1 0.953910 0.650987 0.042970
Si Si2 0.475859 0.779791 0.383955
Si Si3 0.906338 0.941741 0.750727
Si Si4 0.566429 0.787449 0.203587
Si Si5 0.575944 0.662018 0.668907
Si Si6 0.865619 0.845559 0.877549
Si Si7 0.818826 0.093278 0.528412
Si Si8 0.814468 0.527506 0.102445
O O1 0.833151 0.592453 0.055420
O O2 0.962726 0.685865 0.128452
O O3 0.134077 0.620574 0.032560
O O4 0.934236 0.692651 0.963191
O O5 0.525061 0.802223 0.295050
O O6 0.289956 0.801868 0.393316
O O7 0.490483 0.705039 0.377562
O O8 0.829050 0.888392 0.803552
O O9 0.774656 0.961126 0.685342
O O10 0.052925 0.903131 0.711074
O O11 0.000000 0.000000 0.788473
O O12 0.554421 0.713379 0.192735
O O13 0.749631 0.809784 0.189785
O O14 0.574544 0.641210 0.579324
O O15 0.887581 0.897863 0.942793
O O16 0.796515 0.023561 0.558341
O O17 0.000000 0.500000 0.112473
#
# Coordination Sequence:
#
# PCOD9376896 Si02
#       8
#     8   8   8   8   8   8   8   8
#     4   9  21  38  66 100 126 169 227 264 333 395
#     4  11  22  42  66  98 137 169 220 283 329 397
#     4  12  25  45  64  95 133 172 221 271 330 404
#     4  11  22  39  66  94 131 174 216 281 334 390
#     4  11  23  41  64  93 129 172 222 265 332 393
#     4  11  24  43  65  96 132 171 219 274 337 394
#     4   9  20  43  63  91 134 166 216 275 320 395
#     4  10  21  44  70  94 129 176 219 271 322 398
#
# _framework density 21.418206999999999
#
# number of rings (size 3 to 8) (size 9 to 14) (size 15 to 20)
#    0.000    1.500    2.500    2.250    1.750    0.000 
#    6.750    1.875    0.000    0.000    0.000    0.000 
#    0.000    0.000    0.000    0.000    0.000    0.000 
#
# Total GULP energy -178304.598699 kJ/mol
# GULP energy per Si atom -5572.018709 kJ/mol
# Density = 2.136946 g / cm^3
# Si number density = 21.418207 Si / 1000 Ang^3
#
#
#
# Elastic Constant Matrix: (Units=GPa)
#
#
# Indices 1 2 3 4 5 6 
#
# 1 50.7670 35.7870 12.8356 0.0000 0.0000 0.0000
# 2 35.7870 105.0146 61.7341 0.0000 0.0000 0.0000
# 3 12.8356 61.7341 134.5309 0.0000 0.0000 0.0000
# 4 0.0000 0.0000 0.0000 29.7707 0.0000 0.0000
# 5 0.0000 0.0000 0.0000 0.0000 0.4941 0.0000
# 6 0.0000 0.0000 0.0000 0.0000 0.0000 30.5096
#
#
#
# Elastic Compliance Matrix: (Units=1/GPa)
#
#
# Indices 1 2 3 4 5 6 
#
# 1 0.026395 -0.010290 0.002204 0.000000 0.000000 0.000000
# 2 -0.010290 0.017052 -0.006843 0.000000 0.000000 0.000000
# 3 0.002204 -0.006843 0.010363 0.000000 0.000000 0.000000
# 4 0.000000 0.000000 0.000000 0.033590 0.000001 0.000000
# 5 0.000000 0.000000 0.000000 0.000001 2.023785 0.000000
# 6 0.000000 0.000000 0.000000 0.000000 0.000000 0.032777
#
#
# Mechanical properties :
#
#
# Convention : Reuss Voigt Hill
#
# Bulk Modulus (GPa) = 41.75285 56.78067 49.26676
# Shear Modulus (GPa) = 2.29168 24.15195 13.22182
#
# Velocity S-wave (km/s) = 1.03552 3.36167 2.48728
# Velocity P-wave (km/s) = 4.57888 6.45258 5.59473
#
# Compressibility (1/GPa) = 0.02395046
#
# Stress axis : x y z
#
# Youngs Moduli (GPa) = 37.88662 58.64407 96.49555
#
# Poissons Ratio (x) = 0.60346 -0.21265
# Poissons Ratio (y) = 0.38986 0.66033
# Poissons Ratio (z) = -0.08349 0.40131
#
# Static dielectric constant tensor:
#      x y z
#    x 1.925060 0.000000 0.000000 
#    y 0.000000 1.841000 0.000000 
#    z 0.000000 0.000000 2.000280 
# 
# From -- ./inp_files/7793.got.cif
#   From: 2010.05.17/outbox.cif.g08.bks.cpg/sg45_4_cif.got.tgz:7793.got - 2010.06.03 19:51:22.
