data_PCOD9376050
_publ_section_title
;
Structure prediction by ZEFSAII (Michael W. Deem and Ramdas Pophale) SiO2 
 PCOD9376050
Probable space group: I B A 2
;
_chemical_formula_sum "Si O2"
_cell_formula_units_Z 44
_cell_length_a 31.592682
_cell_length_b 8.945865
_cell_length_c 8.365176
_cell_angle_alpha 90.000000
_cell_angle_beta 90.000000
_cell_angle_gamma 90.000000
_cell_volume 2364.198399
_symmetry_space_group_name_H-M "I B A 2"
_symmetry_group_IT_number 45
_symmetry_cell_setting 'orthorhombic'
loop_
_space_group_symop_operation_xyz
x,y,z
-x,-y,z
-x,y,1/2+z
x,-y,1/2+z
1/2+x,1/2+y,1/2+z
1/2-x,1/2-y,1/2+z
1/2-x,1/2+y,z
1/2+x,1/2-y,z
loop_
_atom_site_type_symbol
_atom_site_label
_atom_site_fract_x
_atom_site_fract_y
_atom_site_fract_z
Si Si1 0.217980 0.414172 0.943240
Si Si2 0.062329 0.114785 0.744223
Si Si3 0.709056 0.222447 0.298516
Si Si4 0.640092 0.422745 0.173307
Si Si5 0.853684 0.211286 0.319048
Si Si6 0.000000 0.000000 0.999294
O O1 0.258410 0.351334 0.848749
O O2 0.214294 0.591613 0.927994
O O3 0.177333 0.346067 0.850553
O O4 0.218401 0.350913 0.124040
O O5 0.098437 0.240828 0.758839
O O6 0.092605 0.032440 0.224253
O O7 0.029230 0.111050 0.601423
O O8 0.032910 0.094814 0.896218
O O9 0.663126 0.298443 0.279270
O O10 0.663692 0.582412 0.200335
O O11 0.641648 0.371055 0.990948
#
# Coordination Sequence:
#
# PCOD9376050 Si02
#       6
#     8   8   8   8   8   4
#     4  11  23  38  55  79 107 148 187 229 270 323
#     4   9  16  30  48  82 110 134 170 224 268 323
#     4  11  23  38  55  79 107 148 187 229 270 323
#     4   9  18  33  51  76 109 140 174 219 267 313
#     4   9  18  33  51  76 109 140 174 219 267 313
#     4  10  16  26  52  82 110 130 172 218 282 318
#
# _framework density 18.610959000000001
#
# number of rings (size 3 to 8) (size 9 to 14) (size 15 to 20)
#    1.091    1.091    1.818    2.182    0.000    5.818 
#    0.000    0.000    0.000    0.000    0.000    7.636 
#    0.000    0.000    0.000    0.000    0.000    0.000 
#
# Total GULP energy -122479.993230 kJ/mol
# GULP energy per Si atom -5567.272420 kJ/mol
# Density = 1.856860 g / cm^3
# Si number density = 18.610959 Si / 1000 Ang^3
#
#
#
# Elastic Constant Matrix: (Units=GPa)
#
#
# Indices 1 2 3 4 5 6 
#
# 1 96.3320 13.4489 16.7731 0.0000 0.0000 0.0000
# 2 13.4489 39.7021 -6.4519 0.0000 0.0000 0.0000
# 3 16.7731 -6.4519 41.3682 0.0000 0.0000 0.0000
# 4 0.0000 0.0000 0.0000 16.3854 0.0000 0.0000
# 5 0.0000 0.0000 0.0000 0.0000 22.4072 0.0000
# 6 0.0000 0.0000 0.0000 0.0000 0.0000 18.9362
#
#
#
# Elastic Compliance Matrix: (Units=1/GPa)
#
#
# Indices 1 2 3 4 5 6 
#
# 1 0.012068 -0.005010 -0.005675 0.000000 0.000000 0.000000
# 2 -0.005010 0.027923 0.006386 0.000000 0.000000 0.000000
# 3 -0.005675 0.006386 0.027470 0.000000 0.000000 0.000000
# 4 0.000000 0.000000 0.000000 0.061030 0.000000 0.000000
# 5 0.000000 0.000000 0.000000 0.000000 0.044628 0.000000
# 6 0.000000 0.000000 0.000000 0.000000 0.000000 0.052809
#
#
# Mechanical properties :
#
#
# Convention : Reuss Voigt Hill
#
# Bulk Modulus (GPa) = 16.98833 24.99360 20.99096
# Shear Modulus (GPa) = 19.67370 21.78793 20.73082
#
# Velocity S-wave (km/s) = 3.25484 3.42527 3.34114
# Velocity P-wave (km/s) = 4.82424 5.39462 5.11738
#
# Compressibility (1/GPa) = 0.05886394
#
# Stress axis : x y z
#
# Youngs Moduli (GPa) = 82.86173 35.81323 36.40334
#
# Poissons Ratio (x) = 0.17943 0.20657
# Poissons Ratio (y) = 0.41516 -0.23248
# Poissons Ratio (z) = 0.47021 -0.22872
#
# Static dielectric constant tensor:
#      x y z
#    x 1.655920 0.000000 0.000000 
#    y 0.000000 1.627930 0.000000 
#    z 0.000000 0.000000 1.700910 
# 
# From -- ./inp_files/2724.got.cif
#   From: 2010.05.17/outbox.cif.g08.bks.cpg/sg45_2_cif.got.tgz:2724.got - 2010.06.03 19:51:22.
