data_PCOD9376714
_publ_section_title
;
Structure prediction by ZEFSAII (Michael W. Deem and Ramdas Pophale) SiO2 
 PCOD9376714
Probable space group: I B A 2
;
_chemical_formula_sum "Si O2"
_cell_formula_units_Z 60
_cell_length_a 18.409054
_cell_length_b 14.915493
_cell_length_c 10.840792
_cell_angle_alpha 90.000000
_cell_angle_beta 90.000000
_cell_angle_gamma 90.000000
_cell_volume 2976.665926
_symmetry_space_group_name_H-M "I B A 2"
_symmetry_group_IT_number 45
_symmetry_cell_setting 'orthorhombic'
loop_
_space_group_symop_operation_xyz
x,y,z
-x,-y,z
-x,y,1/2+z
x,-y,1/2+z
1/2+x,1/2+y,1/2+z
1/2-x,1/2-y,1/2+z
1/2-x,1/2+y,z
1/2+x,1/2-y,z
loop_
_atom_site_type_symbol
_atom_site_label
_atom_site_fract_x
_atom_site_fract_y
_atom_site_fract_z
Si Si1 0.751179 0.665710 0.690420
Si Si2 0.483167 0.301416 0.769097
Si Si3 0.604990 0.858786 0.875532
Si Si4 0.593498 0.415205 0.885727
Si Si5 0.111330 0.046226 0.155420
Si Si6 0.000000 0.500000 0.271414
Si Si7 0.240358 0.802318 0.412440
Si Si8 0.583753 0.160194 0.653526
O O1 0.691583 0.587634 0.679638
O O2 0.745151 0.722189 0.816288
O O3 0.743389 0.719927 0.559376
O O4 0.834539 0.635472 0.689793
O O5 0.424140 0.222870 0.791730
O O6 0.518718 0.358211 0.881003
O O7 0.444476 0.372934 0.682223
O O8 0.552609 0.248903 0.716125
O O9 0.691719 0.867786 0.881891
O O10 0.563138 0.950405 0.847282
O O11 0.580964 0.826311 0.009233
O O12 0.596876 0.471105 0.758367
O O13 0.663347 0.349466 0.889986
O O14 0.601089 0.474709 0.010262
O O15 0.965922 0.422285 0.190546
#
# Coordination Sequence:
#
# PCOD9376714 Si02
#       8
#     8   8   8   8   8   4   8   8
#     4  10  21  41  63  87 117 155 202 245 297 357
#     4  11  21  39  65  86 120 156 207 251 307 359
#     4  10  21  38  61  87 119 156 197 248 304 361
#     4  11  25  41  62  92 125 162 206 254 304 364
#     4  11  25  41  62  92 125 162 206 254 304 364
#     4  10  22  36  58  90 122 150 196 244 304 368
#     4  10  21  41  63  87 117 155 202 245 297 357
#     4  10  21  38  61  87 119 156 197 248 304 361
#
# _framework density 20.156780000000001
#
# number of rings (size 3 to 8) (size 9 to 14) (size 15 to 20)
#    0.000    1.600    2.667    1.600    1.867    4.267 
#    0.000    1.333    0.000    0.000    0.000    0.000 
#    0.000    0.000    0.000    0.000    0.000    0.000 
#
# Total GULP energy -167246.199845 kJ/mol
# GULP energy per Si atom -5574.873328 kJ/mol
# Density = 2.011090 g / cm^3
# Si number density = 20.156780 Si / 1000 Ang^3
#
#
#
# Elastic Constant Matrix: (Units=GPa)
#
#
# Indices 1 2 3 4 5 6 
#
# 1 78.6935 -6.7167 -8.2688 0.0000 0.0000 0.0000
# 2 -6.7167 22.2113 -9.3207 0.0000 0.0000 0.0000
# 3 -8.2688 -9.3207 35.4477 0.0000 0.0000 0.0000
# 4 0.0000 0.0000 0.0000 26.6843 0.0000 0.0000
# 5 0.0000 0.0000 0.0000 0.0000 22.2814 0.0000
# 6 0.0000 0.0000 0.0000 0.0000 0.0000 27.2404
#
#
#
# Elastic Compliance Matrix: (Units=1/GPa)
#
#
# Indices 1 2 3 4 5 6 
#
# 1 0.013743 0.006183 0.004832 0.000000 0.000000 0.000000
# 2 0.006183 0.053388 0.015480 0.000000 0.000000 0.000000
# 3 0.004832 0.015480 0.033408 0.000000 0.000000 0.000000
# 4 0.000000 0.000000 0.000000 0.037475 0.000000 0.000000
# 5 0.000000 0.000000 0.000000 0.000000 0.044881 0.000000
# 6 0.000000 0.000000 0.000000 0.000000 0.000000 0.036710
#
#
# Mechanical properties :
#
#
# Convention : Reuss Voigt Hill
#
# Bulk Modulus (GPa) = 6.51339 9.74892 8.13116
# Shear Modulus (GPa) = 22.95780 25.95179 24.45479
#
# Velocity S-wave (km/s) = 3.37851 3.59206 3.48692
# Velocity P-wave (km/s) = 4.29622 4.69584 4.50047
#
# Compressibility (1/GPa) = 0.15352986
#
# Stress axis : x y z
#
# Youngs Moduli (GPa) = 72.76442 18.73079 29.93289
#
# Poissons Ratio (x) = -0.11582 -0.14463
# Poissons Ratio (y) = -0.44993 -0.46337
# Poissons Ratio (z) = -0.35157 -0.28996
#
# Static dielectric constant tensor:
#      x y z
#    x 1.742470 0.000000 0.000000 
#    y 0.000000 1.652290 0.000000 
#    z 0.000000 0.000000 1.736590 
# 
# From -- ./inp_files/4235.got.cif
#   From: 2010.05.17/outbox.cif.g08.bks.cpg/sg45_3_cif.got.tgz:4235.got - 2010.06.03 19:51:22.
