data_PCOD9376783
_publ_section_title
;
Structure prediction by ZEFSAII (Michael W. Deem and Ramdas Pophale) SiO2 
 PCOD9376783
Probable space group: I B A 2
;
_chemical_formula_sum "Si O2"
_cell_formula_units_Z 32
_cell_length_a 12.451317
_cell_length_b 4.818724
_cell_length_c 23.326111
_cell_angle_alpha 90.000000
_cell_angle_beta 90.000000
_cell_angle_gamma 90.000000
_cell_volume 1399.554065
_symmetry_space_group_name_H-M "I B A 2"
_symmetry_group_IT_number 45
_symmetry_cell_setting 'orthorhombic'
loop_
_space_group_symop_operation_xyz
x,y,z
-x,-y,z
-x,y,1/2+z
x,-y,1/2+z
1/2+x,1/2+y,1/2+z
1/2-x,1/2-y,1/2+z
1/2-x,1/2+y,z
1/2+x,1/2-y,z
loop_
_atom_site_type_symbol
_atom_site_label
_atom_site_fract_x
_atom_site_fract_y
_atom_site_fract_z
Si Si1 0.322724 0.430424 0.063900
Si Si2 0.676099 0.518665 0.192159
Si Si3 0.000000 0.000000 0.973227
Si Si4 0.000000 0.500000 0.891529
Si Si5 0.171080 0.804599 0.311245
O O1 0.214825 0.613865 0.058994
O O2 0.368704 0.449090 0.128575
O O3 0.401385 0.546341 0.016084
O O4 0.712385 0.198847 0.195537
O O5 0.619700 0.649516 0.247650
O O6 0.962319 0.255540 0.933869
O O7 0.084556 0.333272 0.852459
O O8 0.275385 0.605941 0.318854
#
# Coordination Sequence:
#
# PCOD9376783 Si02
#       5
#     8   8   4   4   8
#     4  10  21  40  63  87 119 156 197 255 310 356
#     4   8  16  34  60  86 110 142 190 242 302 360
#     4  12  26  40  58  90 124 164 214 244 292 380
#     4  12  26  40  58  90 124 164 214 244 292 380
#     4  10  21  40  63  87 119 156 197 255 310 356
#
# _framework density 22.864426999999999
#
# number of rings (size 3 to 8) (size 9 to 14) (size 15 to 20)
#    0.000    2.000    0.000    3.000    0.000    6.000 
#    0.000   17.500    0.000    0.000    0.000    0.000 
#    0.000    0.000    0.000    0.000    0.000    0.000 
#
# Total GULP energy -89106.032289 kJ/mol
# GULP energy per Si atom -5569.127018 kJ/mol
# Density = 2.281239 g / cm^3
# Si number density = 22.864427 Si / 1000 Ang^3
#
#
#
# Elastic Constant Matrix: (Units=GPa)
#
#
# Indices 1 2 3 4 5 6 
#
# 1 43.7208 -9.5154 34.7646 0.0000 0.0000 0.0000
# 2 -9.5154 95.5063 3.0276 0.0000 0.0000 0.0000
# 3 34.7646 3.0276 117.0309 0.0000 0.0000 0.0000
# 4 0.0000 0.0000 0.0000 43.2856 0.0000 0.0000
# 5 0.0000 0.0000 0.0000 0.0000 19.1213 0.0000
# 6 0.0000 0.0000 0.0000 0.0000 0.0000 23.1734
#
#
#
# Elastic Compliance Matrix: (Units=1/GPa)
#
#
# Indices 1 2 3 4 5 6 
#
# 1 0.031001 0.003383 -0.009296 0.000000 0.000000 0.000000
# 2 0.003383 0.010848 -0.001286 0.000000 0.000000 0.000000
# 3 -0.009296 -0.001286 0.011340 0.000000 0.000000 0.000000
# 4 0.000000 0.000000 0.000000 0.023102 0.000000 0.000000
# 5 0.000000 0.000000 0.000000 0.000000 0.052298 0.000000
# 6 0.000000 0.000000 0.000000 0.000000 0.000000 0.043153
#
#
# Mechanical properties :
#
#
# Convention : Reuss Voigt Hill
#
# Bulk Modulus (GPa) = 25.77911 34.75687 30.26799
# Shear Modulus (GPa) = 25.11681 32.31480 28.71581
#
# Velocity S-wave (km/s) = 3.31797 3.76350 3.54774
# Velocity P-wave (km/s) = 5.09685 5.84119 5.48167
#
# Compressibility (1/GPa) = 0.03879110
#
# Stress axis : x y z
#
# Youngs Moduli (GPa) = 32.25719 92.17992 88.18664
#
# Poissons Ratio (x) = -0.31188 0.81983
# Poissons Ratio (y) = -0.10914 0.11338
# Poissons Ratio (z) = 0.29988 0.11851
#
# Static dielectric constant tensor:
#      x y z
#    x 1.863240 0.000000 0.000000 
#    y 0.000000 1.804630 0.000000 
#    z 0.000000 0.000000 1.922770 
# 
# From -- ./inp_files/77.got.cif
#   From: 2010.05.17/outbox.cif.g08.bks.cpg/sg45_1_cif.got.tgz:77.got - 2010.06.03 19:51:22.
