data_PCOD9376254
_publ_section_title
;
Structure prediction by ZEFSAII (Michael W. Deem and Ramdas Pophale) SiO2 
 PCOD9376254
Probable space group: I B A 2
;
_chemical_formula_sum "Si O2"
_cell_formula_units_Z 64
_cell_length_a 20.992005
_cell_length_b 26.819624
_cell_length_c 5.632951
_cell_angle_alpha 90.000000
_cell_angle_beta 90.000000
_cell_angle_gamma 90.000000
_cell_volume 3171.338351
_symmetry_space_group_name_H-M "I B A 2"
_symmetry_group_IT_number 45
_symmetry_cell_setting 'orthorhombic'
loop_
_space_group_symop_operation_xyz
x,y,z
-x,-y,z
-x,y,1/2+z
x,-y,1/2+z
1/2+x,1/2+y,1/2+z
1/2-x,1/2-y,1/2+z
1/2-x,1/2+y,z
1/2+x,1/2-y,z
loop_
_atom_site_type_symbol
_atom_site_label
_atom_site_fract_x
_atom_site_fract_y
_atom_site_fract_z
Si Si1 0.151820 0.878078 0.254940
Si Si2 0.664089 0.798045 0.795331
Si Si3 0.473207 0.660602 0.930882
Si Si4 0.775402 0.803058 0.433132
Si Si5 0.753694 0.523305 0.762288
Si Si6 0.519689 0.224627 0.362743
Si Si7 0.391723 0.486814 0.202981
Si Si8 0.231494 0.624912 0.062741
O O1 0.101397 0.851643 0.427866
O O2 0.173125 0.836442 0.070029
O O3 0.121303 0.928511 0.158471
O O4 0.217948 0.895461 0.372770
O O5 0.706366 0.805294 0.559128
O O6 0.592433 0.779391 0.775755
O O7 0.700071 0.752713 0.924957
O O8 0.671265 0.849856 0.938413
O O9 0.498739 0.640320 0.677479
O O10 0.492652 0.719206 0.909575
O O11 0.767590 0.828793 0.181406
O O12 0.776352 0.499112 0.512852
O O13 0.676677 0.515290 0.743704
O O14 0.774638 0.580914 0.750051
O O15 0.516977 0.202739 0.631911
O O16 0.422595 0.491354 0.464481
#
# Coordination Sequence:
#
# PCOD9376254 Si02
#       8
#     8   8   8   8   8   8   8   8
#     4  11  23  35  63  85 115 158 210 247 310 370
#     4  11  24  37  56  88 126 164 207 250 319 367
#     4  10  23  39  56  82 105 152 213 261 286 338
#     4  11  22  36  54  88 126 161 190 254 311 381
#     4  10  19  36  55  85 120 155 192 233 301 378
#     4  10  23  40  61  78 112 166 213 254 284 345
#     4  10  19  34  56  87 112 153 191 244 305 375
#     4  11  23  35  59  90 124 160 193 249 311 390
#
# _framework density 20.180755999999999
#
# number of rings (size 3 to 8) (size 9 to 14) (size 15 to 20)
#    0.000    1.500    3.750    3.000    8.750    0.000 
#    0.000    0.000    0.000    2.250    0.000    0.000 
#    0.000    3.000    0.000    0.000    0.000    0.000 
#
# Total GULP energy -178341.264204 kJ/mol
# GULP energy per Si atom -5573.164506 kJ/mol
# Density = 2.013482 g / cm^3
# Si number density = 20.180756 Si / 1000 Ang^3
#
#
#
# Elastic Constant Matrix: (Units=GPa)
#
#
# Indices 1 2 3 4 5 6 
#
# 1 157.1304 -9.7365 31.8806 0.0000 0.0000 0.0000
# 2 -9.7365 75.6272 -2.3725 0.0000 0.0000 0.0000
# 3 31.8806 -2.3725 123.1491 0.0000 0.0000 0.0000
# 4 0.0000 0.0000 0.0000 20.0495 0.0000 0.0000
# 5 0.0000 0.0000 0.0000 0.0000 16.5629 0.0000
# 6 0.0000 0.0000 0.0000 0.0000 0.0000 8.8034
#
#
#
# Elastic Compliance Matrix: (Units=1/GPa)
#
#
# Indices 1 2 3 4 5 6 
#
# 1 0.006767 0.000817 -0.001736 0.000000 0.000000 0.000000
# 2 0.000817 0.013329 0.000045 0.000000 0.000000 0.000000
# 3 -0.001736 0.000045 0.008571 0.000000 0.000000 0.000000
# 4 0.000000 0.000000 0.000000 0.049877 0.000000 0.000000
# 5 0.000000 0.000000 0.000000 0.000000 0.060376 0.000000
# 6 0.000000 0.000000 0.000000 0.000000 0.000000 0.113592
#
#
# Mechanical properties :
#
#
# Convention : Reuss Voigt Hill
#
# Bulk Modulus (GPa) = 37.14863 43.93887 40.54375
# Shear Modulus (GPa) = 18.99461 31.49218 25.24340
#
# Velocity S-wave (km/s) = 3.07127 3.95461 3.54059
# Velocity P-wave (km/s) = 5.56999 6.53237 6.07028
#
# Compressibility (1/GPa) = 0.02691889
#
# Stress axis : x y z
#
# Youngs Moduli (GPa) = 147.77617 75.02249 116.67871
#
# Poissons Ratio (x) = -0.06127 0.20256
# Poissons Ratio (y) = -0.12070 -0.00529
# Poissons Ratio (z) = 0.25655 -0.00340
#
# Static dielectric constant tensor:
#      x y z
#    x 1.730530 0.000000 0.000000 
#    y 0.000000 1.761140 0.000000 
#    z 0.000000 0.000000 1.834980 
# 
# From -- ./inp_files/348.got.cif
#   From: 2010.05.17/outbox.cif.g08.bks.cpg/sg45_1_cif.got.tgz:348.got - 2010.06.03 19:51:22.
