data_PCOD9376678
_publ_section_title
;
Structure prediction by ZEFSAII (Michael W. Deem and Ramdas Pophale) SiO2 
 PCOD9376678
Probable space group: I B A 2
;
_chemical_formula_sum "Si O2"
_cell_formula_units_Z 60
_cell_length_a 22.757926
_cell_length_b 8.372804
_cell_length_c 14.450445
_cell_angle_alpha 90.000000
_cell_angle_beta 90.000000
_cell_angle_gamma 90.000000
_cell_volume 2753.498392
_symmetry_space_group_name_H-M "I B A 2"
_symmetry_group_IT_number 45
_symmetry_cell_setting 'orthorhombic'
loop_
_space_group_symop_operation_xyz
x,y,z
-x,-y,z
-x,y,1/2+z
x,-y,1/2+z
1/2+x,1/2+y,1/2+z
1/2-x,1/2-y,1/2+z
1/2-x,1/2+y,z
1/2+x,1/2-y,z
loop_
_atom_site_type_symbol
_atom_site_label
_atom_site_fract_x
_atom_site_fract_y
_atom_site_fract_z
Si Si1 0.566362 0.337813 0.625000
Si Si2 0.817862 0.975496 0.076007
Si Si3 0.297825 0.127808 0.495960
Si Si4 0.703649 0.224194 0.798586
Si Si5 0.864615 0.538632 0.647381
Si Si6 0.000000 0.000000 0.976521
Si Si7 0.833010 0.232326 0.754792
Si Si8 0.595679 0.534784 0.322310
O O1 0.623048 0.420654 0.575599
O O2 0.579848 0.153385 0.644519
O O3 0.515703 0.361673 0.550227
O O4 0.562880 0.426553 0.724613
O O5 0.814268 0.812140 0.017021
O O6 0.816265 0.904983 0.179835
O O7 0.763894 0.085333 0.044790
O O8 0.295059 0.107524 0.386700
O O9 0.343380 0.010956 0.546009
O O10 0.684048 0.141597 0.703208
O O11 0.769693 0.288869 0.790355
O O12 0.651780 0.348248 0.820726
O O13 0.867103 0.374105 0.703879
O O14 0.052176 0.052291 0.908063
O O15 0.876253 0.142198 0.824049
#
# Coordination Sequence:
#
# PCOD9376678 Si02
#       8
#     8   8   8   8   8   4   8   8
#     4  10  23  43  68  92 132 179 233 295 344 398
#     4  10  21  37  57  92 135 173 220 270 340 420
#     4  11  22  33  58  95 140 179 220 269 343 425
#     4  11  22  36  63  97 144 176 220 281 352 426
#     4  10  22  40  61  96 138 181 221 277 347 421
#     4  12  24  44  74  96 128 180 256 294 330 404
#     4  10  21  38  65  96 140 176 215 275 355 428
#     4  10  24  43  67 102 131 180 236 288 345 417
#
# _framework density 21.790461000000001
#
# number of rings (size 3 to 8) (size 9 to 14) (size 15 to 20)
#    0.000    1.600    1.333    2.800   13.067    1.067 
#    0.000    0.000    0.000   41.600    0.000    0.000 
#    0.000    0.000    0.000    0.000    0.000    0.000 
#
# Total GULP energy -167560.456016 kJ/mol
# GULP energy per Si atom -5585.348534 kJ/mol
# Density = 2.174086 g / cm^3
# Si number density = 21.790461 Si / 1000 Ang^3
#
#
#
# Elastic Constant Matrix: (Units=GPa)
#
#
# Indices 1 2 3 4 5 6 
#
# 1 70.5817 37.3216 46.2542 0.0000 0.0000 0.0000
# 2 37.3216 91.3882 37.8045 0.0000 0.0000 0.0000
# 3 46.2542 37.8045 115.5649 0.0000 0.0000 0.0000
# 4 0.0000 0.0000 0.0000 20.7053 0.0000 0.0000
# 5 0.0000 0.0000 0.0000 0.0000 32.8650 0.0000
# 6 0.0000 0.0000 0.0000 0.0000 0.0000 9.7503
#
#
#
# Elastic Compliance Matrix: (Units=1/GPa)
#
#
# Indices 1 2 3 4 5 6 
#
# 1 0.021816 -0.006126 -0.006728 0.000000 0.000000 0.000000
# 2 -0.006126 0.014375 -0.002250 0.000000 0.000000 0.000000
# 3 -0.006728 -0.002250 0.012082 0.000000 0.000000 0.000000
# 4 0.000000 0.000000 0.000000 0.048297 0.000000 0.000000
# 5 0.000000 0.000000 0.000000 0.000000 0.030428 0.000000
# 6 0.000000 0.000000 0.000000 0.000000 0.000000 0.102560
#
#
# Mechanical properties :
#
#
# Convention : Reuss Voigt Hill
#
# Bulk Modulus (GPa) = 55.35755 57.81060 56.58408
# Shear Modulus (GPa) = 18.81190 23.07442 20.94316
#
# Velocity S-wave (km/s) = 2.94140 3.25764 3.10355
# Velocity P-wave (km/s) = 6.08239 6.38259 6.23429
#
# Compressibility (1/GPa) = 0.01806438
#
# Stress axis : x y z
#
# Youngs Moduli (GPa) = 45.83721 69.56421 82.76719
#
# Poissons Ratio (x) = 0.42618 0.55684
# Poissons Ratio (y) = 0.28082 0.18627
# Poissons Ratio (z) = 0.30838 0.15655
#
# Static dielectric constant tensor:
#      x y z
#    x 1.828200 0.000000 0.000000 
#    y 0.000000 1.819860 0.000000 
#    z 0.000000 0.000000 1.830320 
# 
# From -- ./inp_files/7046.got.cif
#   From: 2010.05.17/outbox.cif.g08.bks.cpg/sg45_4_cif.got.tgz:7046.got - 2010.06.03 19:51:22.
