data_PCOD9376521
_publ_section_title
;
Structure prediction by ZEFSAII (Michael W. Deem and Ramdas Pophale) SiO2 
 PCOD9376521
Probable space group: I B A 2
;
_chemical_formula_sum "Si O2"
_cell_formula_units_Z 40
_cell_length_a 18.101378
_cell_length_b 7.303364
_cell_length_c 11.473169
_cell_angle_alpha 90.000000
_cell_angle_beta 90.000000
_cell_angle_gamma 90.000000
_cell_volume 1516.763869
_symmetry_space_group_name_H-M "I B A 2"
_symmetry_group_IT_number 45
_symmetry_cell_setting 'orthorhombic'
loop_
_space_group_symop_operation_xyz
x,y,z
-x,-y,z
-x,y,1/2+z
x,-y,1/2+z
1/2+x,1/2+y,1/2+z
1/2-x,1/2-y,1/2+z
1/2-x,1/2+y,z
1/2+x,1/2-y,z
loop_
_atom_site_type_symbol
_atom_site_label
_atom_site_fract_x
_atom_site_fract_y
_atom_site_fract_z
Si Si1 0.500000 0.000000 0.314600
Si Si2 0.383272 0.154723 0.157083
Si Si3 0.135372 0.200039 0.399913
Si Si4 0.394179 0.172305 0.503028
Si Si5 0.220538 0.832458 0.344921
Si Si6 0.000000 0.000000 0.436074
O O1 0.537895 0.852879 0.223918
O O2 0.565264 0.970940 0.413099
O O3 0.318283 0.232553 0.236885
O O4 0.376407 0.270316 0.038059
O O5 0.380027 0.942383 0.118441
O O6 0.191924 0.349534 0.351239
O O7 0.184793 0.030201 0.357668
O O8 0.054059 0.133616 0.362775
O O9 0.314502 0.233355 0.457701
O O10 0.446837 0.353073 0.502380
#
# Coordination Sequence:
#
# PCOD9376521 Si02
#       6
#     4   8   8   8   8   4
#     4  10  20  38  70 110 144 192 250 306 392 464
#     4  11  23  44  75 105 147 207 255 317 399 454
#     4  11  23  45  70 105 152 193 258 324 380 471
#     4  10  21  42  69 105 154 198 252 314 374 469
#     4  10  25  43  66 104 146 201 261 315 388 470
#     4  10  22  42  72 110 154 198 240 318 392 452
#
# _framework density 26.371936999999999
#
# number of rings (size 3 to 8) (size 9 to 14) (size 15 to 20)
#    0.000    1.600    0.000    4.200    0.000    4.800 
#    0.000   34.000    0.000    2.400    0.000    0.000 
#    0.000    0.000    0.000    0.000    0.000    0.000 
#
# Total GULP energy -111404.812515 kJ/mol
# GULP energy per Si atom -5570.240626 kJ/mol
# Density = 2.631191 g / cm^3
# Si number density = 26.371937 Si / 1000 Ang^3
#
#
#
# Elastic Constant Matrix: (Units=GPa)
#
#
# Indices 1 2 3 4 5 6 
#
# 1 172.9314 54.4217 71.7858 0.0000 0.0000 0.0000
# 2 54.4217 98.5842 51.1575 0.0000 0.0000 0.0000
# 3 71.7858 51.1575 125.4014 0.0000 0.0000 0.0000
# 4 0.0000 0.0000 0.0000 9.3939 0.0000 0.0000
# 5 0.0000 0.0000 0.0000 0.0000 26.2758 0.0000
# 6 0.0000 0.0000 0.0000 0.0000 0.0000 54.0720
#
#
#
# Elastic Compliance Matrix: (Units=1/GPa)
#
#
# Indices 1 2 3 4 5 6 
#
# 1 0.008084 -0.002615 -0.003561 0.000000 0.000000 0.000000
# 2 -0.002615 0.013713 -0.004098 0.000000 0.000000 0.000000
# 3 -0.003561 -0.004098 0.011684 0.000000 0.000000 0.000000
# 4 0.000000 0.000000 0.000000 0.106452 0.000000 0.000000
# 5 0.000000 0.000000 0.000000 0.000000 0.038058 0.000000
# 6 0.000000 0.000000 0.000000 0.000000 0.000000 0.018494
#
#
# Mechanical properties :
#
#
# Convention : Reuss Voigt Hill
#
# Bulk Modulus (GPa) = 77.30833 83.51633 80.41233
# Shear Modulus (GPa) = 22.58944 32.58515 27.58730
#
# Velocity S-wave (km/s) = 2.92990 3.51892 3.23783
# Velocity P-wave (km/s) = 6.38937 6.94606 6.67352
#
# Compressibility (1/GPa) = 0.01293522
#
# Stress axis : x y z
#
# Youngs Moduli (GPa) = 123.70735 72.92184 85.58430
#
# Poissons Ratio (x) = 0.19066 0.30475
# Poissons Ratio (y) = 0.32345 0.35069
# Poissons Ratio (z) = 0.44050 0.29881
#
# Static dielectric constant tensor:
#      x y z
#    x 2.286940 0.000000 0.000000 
#    y 0.000000 2.396510 0.000000 
#    z 0.000000 0.000000 2.043120 
# 
# From -- ./inp_files/4376.got.cif
#   From: 2010.05.17/outbox.cif.g08.bks.cpg/sg45_3_cif.got.tgz:4376.got - 2010.06.03 19:51:22.
