data_PCOD9376104
_publ_section_title
;
Structure prediction by ZEFSAII (Michael W. Deem and Ramdas Pophale) SiO2 
 PCOD9376104
Probable space group: I B A 2
;
_chemical_formula_sum "Si O2"
_cell_formula_units_Z 48
_cell_length_a 12.745601
_cell_length_b 11.391790
_cell_length_c 14.294719
_cell_angle_alpha 90.000000
_cell_angle_beta 90.000000
_cell_angle_gamma 90.000000
_cell_volume 2075.524727
_symmetry_space_group_name_H-M "I B A 2"
_symmetry_group_IT_number 45
_symmetry_cell_setting 'orthorhombic'
loop_
_space_group_symop_operation_xyz
x,y,z
-x,-y,z
-x,y,1/2+z
x,-y,1/2+z
1/2+x,1/2+y,1/2+z
1/2-x,1/2-y,1/2+z
1/2-x,1/2+y,z
1/2+x,1/2-y,z
loop_
_atom_site_type_symbol
_atom_site_label
_atom_site_fract_x
_atom_site_fract_y
_atom_site_fract_z
Si Si1 0.760728 0.182087 0.225480
Si Si2 0.914688 0.294604 0.080840
Si Si3 0.583721 0.395076 0.036658
Si Si4 0.103454 0.033621 0.839729
Si Si5 0.192012 0.473047 0.064418
Si Si6 0.712219 0.679198 0.914239
O O1 0.855593 0.247712 0.173243
O O2 0.803751 0.065118 0.273796
O O3 0.726915 0.260393 0.313717
O O4 0.690042 0.127260 0.144109
O O5 0.901186 0.434566 0.077704
O O6 0.022985 0.220929 0.073521
O O7 0.839750 0.259989 0.992805
O O8 0.500000 0.500000 0.051954
O O9 0.697190 0.448555 0.070483
O O10 0.598405 0.373268 0.924406
O O11 0.123849 0.916531 0.895579
O O12 0.000000 0.000000 0.783489
O O13 0.199094 0.400340 0.966372
#
# Coordination Sequence:
#
# PCOD9376104 Si02
#       6
#     8   8   8   8   8   8
#     4  11  22  34  60  96 128 170 216 274 338 392
#     4  11  21  37  62  93 133 175 215 280 335 387
#     4  10  17  39  61  91 124 173 228 268 324 396
#     4  10  19  34  59  91 117 157 226 269 301 391
#     4  10  22  37  63 100 136 168 229 281 328 413
#     4  10  19  37  59  90 126 171 216 269 334 389
#
# _framework density 23.126681999999999
#
# number of rings (size 3 to 8) (size 9 to 14) (size 15 to 20)
#    0.000    1.667    6.667    3.000    2.333    0.000 
#    0.000    0.000    0.000    9.000    4.333    0.000 
#    0.000    0.000    0.000    0.000    0.000    0.000 
#
# Total GULP energy -133612.735437 kJ/mol
# GULP energy per Si atom -5567.197310 kJ/mol
# Density = 2.307404 g / cm^3
# Si number density = 23.126682 Si / 1000 Ang^3
#
#
#
# Elastic Constant Matrix: (Units=GPa)
#
#
# Indices 1 2 3 4 5 6 
#
# 1 66.0220 59.3624 25.9636 0.0000 0.0000 0.0000
# 2 59.3624 109.8182 37.5603 0.0000 0.0000 0.0000
# 3 25.9636 37.5603 114.1912 0.0000 0.0000 0.0000
# 4 0.0000 0.0000 0.0000 29.9629 0.0000 0.0000
# 5 0.0000 0.0000 0.0000 0.0000 8.4853 0.0000
# 6 0.0000 0.0000 0.0000 0.0000 0.0000 35.2544
#
#
#
# Elastic Compliance Matrix: (Units=1/GPa)
#
#
# Indices 1 2 3 4 5 6 
#
# 1 0.029746 -0.015511 -0.001661 0.000000 0.000000 0.000000
# 2 -0.015511 0.018349 -0.002509 0.000000 0.000000 0.000000
# 3 -0.001661 -0.002509 0.009960 0.000000 0.000000 0.000000
# 4 0.000000 0.000000 0.000000 0.033375 0.000000 0.000000
# 5 0.000000 0.000000 0.000000 0.000000 0.117851 0.000000
# 6 0.000000 0.000000 0.000000 0.000000 0.000000 0.028365
#
#
# Mechanical properties :
#
#
# Convention : Reuss Voigt Hill
#
# Bulk Modulus (GPa) = 53.49655 59.53379 56.51517
# Shear Modulus (GPa) = 17.65294 25.88353 21.76823
#
# Velocity S-wave (km/s) = 2.76581 3.34908 3.07133
# Velocity P-wave (km/s) = 5.77770 6.38385 6.08832
#
# Compressibility (1/GPa) = 0.01869279
#
# Stress axis : x y z
#
# Youngs Moduli (GPa) = 33.61745 54.50019 100.40052
#
# Poissons Ratio (x) = 0.84537 0.16680
# Poissons Ratio (y) = 0.52145 0.25186
# Poissons Ratio (z) = 0.05585 0.13671
#
# Static dielectric constant tensor:
#      x y z
#    x 1.978350 0.000000 0.000000 
#    y 0.000000 1.906190 0.000000 
#    z 0.000000 0.000000 1.923620 
# 
# From -- ./inp_files/6485.got.cif
#   From: 2010.05.17/outbox.cif.g08.bks.cpg/sg45_4_cif.got.tgz:6485.got - 2010.06.03 19:51:22.
