data_PCOD9376121
_publ_section_title
;
Structure prediction by ZEFSAII (Michael W. Deem and Ramdas Pophale) SiO2 
 PCOD9376121
Probable space group: I B A 2
;
_chemical_formula_sum "Si O2"
_cell_formula_units_Z 60
_cell_length_a 12.259426
_cell_length_b 20.545691
_cell_length_c 13.920095
_cell_angle_alpha 90.000000
_cell_angle_beta 90.000000
_cell_angle_gamma 90.000000
_cell_volume 3506.170956
_symmetry_space_group_name_H-M "I B A 2"
_symmetry_group_IT_number 45
_symmetry_cell_setting 'orthorhombic'
loop_
_space_group_symop_operation_xyz
x,y,z
-x,-y,z
-x,y,1/2+z
x,-y,1/2+z
1/2+x,1/2+y,1/2+z
1/2-x,1/2-y,1/2+z
1/2-x,1/2+y,z
1/2+x,1/2-y,z
loop_
_atom_site_type_symbol
_atom_site_label
_atom_site_fract_x
_atom_site_fract_y
_atom_site_fract_z
Si Si1 0.931324 0.800160 0.234950
Si Si2 0.916623 0.189222 0.520691
Si Si3 0.871142 0.099227 0.243179
Si Si4 0.249309 0.325134 0.876725
Si Si5 0.000000 0.000000 0.881398
Si Si6 0.622048 0.406812 0.523507
Si Si7 0.508847 0.194661 0.879303
Si Si8 0.724154 0.167647 0.391476
O O1 0.890935 0.788140 0.127808
O O2 0.838896 0.838816 0.294661
O O3 0.964773 0.733591 0.286832
O O4 0.040859 0.842553 0.235647
O O5 0.813014 0.153896 0.473582
O O6 0.014865 0.138540 0.525382
O O7 0.959725 0.249509 0.456908
O O8 0.930181 0.046926 0.311655
O O9 0.766980 0.130165 0.297312
O O10 0.851082 0.075479 0.133897
O O11 0.286189 0.362770 0.972177
O O12 0.261789 0.246514 0.884365
O O13 0.122999 0.339850 0.856538
O O14 0.914118 0.035787 0.952074
O O15 0.402657 0.154985 0.912980
#
# Coordination Sequence:
#
# PCOD9376121 Si02
#       8
#     8   8   8   8   4   8   8   8
#     4  10  18  31  49  76 109 142 178 223 277 333
#     4  10  18  31  49  76 109 142 178 223 277 333
#     4  11  21  35  57  83 111 144 185 235 287 333
#     4  10  18  34  51  78 114 149 181 231 280 345
#     4  12  20  40  60  84 112 146 194 246 282 326
#     4  11  21  35  57  83 111 144 185 235 287 333
#     4  10  19  32  50  76 110 147 184 214 276 338
#     4  10  18  34  51  78 114 149 181 231 280 345
#
# _framework density 17.112684000000002
#
# number of rings (size 3 to 8) (size 9 to 14) (size 15 to 20)
#    0.000    1.600    8.000    0.400    0.000    5.333 
#    0.000    0.000    0.000    0.800    0.000    1.867 
#    0.000    0.000    0.000    0.000    0.000    0.000 
#
# Total GULP energy -167027.329323 kJ/mol
# GULP energy per Si atom -5567.577644 kJ/mol
# Density = 1.707374 g / cm^3
# Si number density = 17.112684 Si / 1000 Ang^3
#
#
#
# Elastic Constant Matrix: (Units=GPa)
#
#
# Indices 1 2 3 4 5 6 
#
# 1 106.9651 -12.1316 9.9826 0.0000 0.0000 0.0000
# 2 -12.1316 28.0178 6.7919 0.0002 0.0000 0.0000
# 3 9.9826 6.7919 107.1280 0.0002 -0.0001 0.0000
# 4 0.0000 0.0002 0.0002 4.4374 0.0000 -0.0001
# 5 0.0000 0.0000 -0.0001 0.0000 6.2103 0.0000
# 6 0.0000 0.0000 0.0000 -0.0001 0.0000 17.3162
#
#
#
# Elastic Compliance Matrix: (Units=1/GPa)
#
#
# Indices 1 2 3 4 5 6 
#
# 1 0.009987 0.004621 -0.001224 0.000000 0.000000 0.000000
# 2 0.004621 0.038387 -0.002864 -0.000002 0.000000 0.000000
# 3 -0.001224 -0.002864 0.009630 0.000000 0.000000 0.000000
# 4 0.000000 -0.000002 0.000000 0.225355 0.000001 0.000001
# 5 0.000000 0.000000 0.000000 0.000001 0.161022 0.000000
# 6 0.000000 0.000000 0.000000 0.000001 0.000000 0.057749
#
#
# Mechanical properties :
#
#
# Convention : Reuss Voigt Hill
#
# Bulk Modulus (GPa) = 16.92895 27.93296 22.43095
# Shear Modulus (GPa) = 9.60145 21.42400 15.51272
#
# Velocity S-wave (km/s) = 2.37127 3.54211 3.01409
# Velocity P-wave (km/s) = 4.17269 5.75214 5.02486
#
# Compressibility (1/GPa) = 0.05907042
#
# Stress axis : x y z
#
# Youngs Moduli (GPa) = 100.12884 26.05058 103.83955
#
# Poissons Ratio (x) = -0.12038 0.12706
# Poissons Ratio (y) = -0.46270 0.29743
# Poissons Ratio (z) = 0.12252 0.07462
#
# Static dielectric constant tensor:
#      x y z
#    x 1.622610 0.000000 0.000000 
#    y 0.000000 1.593260 0.000000 
#    z 0.000000 0.000000 1.638400 
# 
# From -- ./inp_files/6331.got.cif
#   From: 2010.05.17/outbox.cif.g08.bks.cpg/sg45_4_cif.got.tgz:6331.got - 2010.06.03 19:51:22.
