data_PCOD9376148
_publ_section_title
;
Structure prediction by ZEFSAII (Michael W. Deem and Ramdas Pophale) SiO2 
 PCOD9376148
Probable space group: I B A 2
;
_chemical_formula_sum "Si O2"
_cell_formula_units_Z 60
_cell_length_a 22.521105
_cell_length_b 14.024180
_cell_length_c 9.123731
_cell_angle_alpha 90.000000
_cell_angle_beta 90.000000
_cell_angle_gamma 90.000000
_cell_volume 2881.639476
_symmetry_space_group_name_H-M "I B A 2"
_symmetry_group_IT_number 45
_symmetry_cell_setting 'orthorhombic'
loop_
_space_group_symop_operation_xyz
x,y,z
-x,-y,z
-x,y,1/2+z
x,-y,1/2+z
1/2+x,1/2+y,1/2+z
1/2-x,1/2-y,1/2+z
1/2-x,1/2+y,z
1/2+x,1/2-y,z
loop_
_atom_site_type_symbol
_atom_site_label
_atom_site_fract_x
_atom_site_fract_y
_atom_site_fract_z
Si Si1 0.961749 0.852465 0.643650
Si Si2 0.580751 0.340780 0.305581
Si Si3 0.500000 0.000000 0.768111
Si Si4 0.805331 0.451373 0.294853
Si Si5 0.639841 0.534682 0.289603
Si Si6 0.720033 0.507815 0.546114
Si Si7 0.907063 0.350352 0.177290
Si Si8 0.110941 0.374722 0.350890
O O1 0.947502 0.856289 0.469553
O O2 0.938576 0.749473 0.694557
O O3 0.030391 0.860908 0.684523
O O4 0.923459 0.924150 0.743607
O O5 0.631563 0.420187 0.293405
O O6 0.602438 0.231630 0.287989
O O7 0.457658 0.930105 0.679506
O O8 0.547677 0.930680 0.846354
O O9 0.764334 0.454968 0.436337
O O10 0.858244 0.375463 0.298417
O O11 0.839829 0.554119 0.283109
O O12 0.762127 0.435233 0.157315
O O13 0.672243 0.560919 0.441341
O O14 0.682880 0.559770 0.154670
O O15 0.875168 0.357599 0.021122
#
# Coordination Sequence:
#
# PCOD9376148 Si02
#       8
#     8   8   4   8   8   8   8   8
#     4  11  24  42  63  95 128 162 208 258 315 377
#     4  11  24  42  63  95 128 162 208 258 315 377
#     4  10  18  34  60  92 130 170 186 254 302 384
#     4  10  20  41  65  91 127 164 198 266 302 382
#     4  11  23  43  65  87 119 171 209 270 302 364
#     4  10  22  42  65  89 120 164 220 254 316 346
#     4  10  20  37  61  95 128 162 203 248 314 377
#     4  10  20  37  61  95 128 162 203 248 314 377
#
# _framework density 20.821480999999999
#
# number of rings (size 3 to 8) (size 9 to 14) (size 15 to 20)
#    0.000    1.600    4.000    0.800    1.867    1.067 
#    2.400    8.000    0.000    0.000    0.000    0.000 
#    0.000    0.000    0.000    0.000    0.000    0.000 
#
# Total GULP energy -167253.866902 kJ/mol
# GULP energy per Si atom -5575.128897 kJ/mol
# Density = 2.077409 g / cm^3
# Si number density = 20.821481 Si / 1000 Ang^3
#
#
#
# Elastic Constant Matrix: (Units=GPa)
#
#
# Indices 1 2 3 4 5 6 
#
# 1 83.0523 21.3053 17.4817 0.0000 0.0000 0.0000
# 2 21.3053 77.4968 4.8595 0.0000 0.0000 0.0000
# 3 17.4817 4.8595 75.8412 0.0000 0.0000 0.0000
# 4 0.0000 0.0000 0.0000 8.4692 0.0000 0.0000
# 5 0.0000 0.0000 0.0000 0.0000 34.5295 0.0000
# 6 0.0000 0.0000 0.0000 0.0000 0.0000 9.0306
#
#
#
# Elastic Compliance Matrix: (Units=1/GPa)
#
#
# Indices 1 2 3 4 5 6 
#
# 1 0.013560 -0.003546 -0.002899 0.000000 0.000000 0.000000
# 2 -0.003546 0.013883 -0.000072 0.000000 0.000000 0.000000
# 3 -0.002899 -0.000072 0.013858 0.000000 0.000000 0.000000
# 4 0.000000 0.000000 0.000000 0.118075 0.000000 0.000000
# 5 0.000000 0.000000 0.000000 0.000000 0.028961 0.000000
# 6 0.000000 0.000000 0.000000 0.000000 0.000000 0.110735
#
#
# Mechanical properties :
#
#
# Convention : Reuss Voigt Hill
#
# Bulk Modulus (GPa) = 35.37565 35.96480 35.67023
# Shear Modulus (GPa) = 15.55070 23.25543 19.40307
#
# Velocity S-wave (km/s) = 2.73584 3.34563 3.05598
# Velocity P-wave (km/s) = 5.19679 5.67756 5.44249
#
# Compressibility (1/GPa) = 0.02826803
#
# Stress axis : x y z
#
# Youngs Moduli (GPa) = 73.74397 72.02940 72.15955
#
# Poissons Ratio (x) = 0.25543 0.20915
# Poissons Ratio (y) = 0.26151 0.00521
# Poissons Ratio (z) = 0.21375 0.00520
#
# Static dielectric constant tensor:
#      x y z
#    x 1.754130 0.000000 0.000000 
#    y 0.000000 1.762600 0.000000 
#    z 0.000000 0.000000 1.773240 
# 
# From -- ./inp_files/1913.got.cif
#   From: 2010.05.17/outbox.cif.g08.bks.cpg/sg45_1_cif.got.tgz:1913.got - 2010.06.03 19:51:22.
