data_PCOD9376417
_publ_section_title
;
Structure prediction by ZEFSAII (Michael W. Deem and Ramdas Pophale) SiO2 
 PCOD9376417
Probable space group: I B A 2
;
_chemical_formula_sum "Si O2"
_cell_formula_units_Z 48
_cell_length_a 16.206767
_cell_length_b 9.862193
_cell_length_c 12.663927
_cell_angle_alpha 90.000000
_cell_angle_beta 90.000000
_cell_angle_gamma 90.000000
_cell_volume 2024.129452
_symmetry_space_group_name_H-M "I B A 2"
_symmetry_group_IT_number 45
_symmetry_cell_setting 'orthorhombic'
loop_
_space_group_symop_operation_xyz
x,y,z
-x,-y,z
-x,y,1/2+z
x,-y,1/2+z
1/2+x,1/2+y,1/2+z
1/2-x,1/2-y,1/2+z
1/2-x,1/2+y,z
1/2+x,1/2-y,z
loop_
_atom_site_type_symbol
_atom_site_label
_atom_site_fract_x
_atom_site_fract_y
_atom_site_fract_z
Si Si1 0.904686 0.163472 0.068720
Si Si2 0.788752 0.005635 0.428139
Si Si3 0.980615 0.726352 0.373331
Si Si4 0.128057 0.527939 0.313986
Si Si5 0.610052 0.452740 0.246466
Si Si6 0.772654 0.371977 0.139992
O O1 0.842086 0.258230 0.132581
O O2 0.919393 0.038091 0.146200
O O3 0.977379 0.233014 0.998831
O O4 0.847122 0.107026 0.976595
O O5 0.760359 0.101054 0.522651
O O6 0.705570 0.939677 0.386605
O O7 0.845630 0.054011 0.331095
O O8 0.910351 0.612853 0.353418
O O9 0.957686 0.856911 0.301859
O O10 0.060619 0.645537 0.331469
O O11 0.170845 0.513508 0.198490
O O12 0.688387 0.361230 0.207235
#
# Coordination Sequence:
#
# PCOD9376417 Si02
#       6
#     8   8   8   8   8   8
#     4  10  20  38  65  95 127 175 226 279 337 406
#     4   9  19  36  61 101 130 162 224 276 336 395
#     4  10  21  41  62  96 142 169 220 282 337 418
#     4  10  21  39  63  99 133 175 213 286 344 400
#     4   9  21  35  65  98 131 175 220 282 336 405
#     4  10  20  35  63  95 127 171 223 271 340 403
#
# _framework density 23.713899000000001
#
# number of rings (size 3 to 8) (size 9 to 14) (size 15 to 20)
#    0.000    2.333    1.667    0.000    7.000    1.333 
#    6.000    0.833    0.000    6.000    0.000    0.000 
#    0.000    0.000    0.000    0.000    0.000    0.000 
#
# Total GULP energy -133766.202161 kJ/mol
# GULP energy per Si atom -5573.591757 kJ/mol
# Density = 2.365992 g / cm^3
# Si number density = 23.713899 Si / 1000 Ang^3
#
#
#
# Elastic Constant Matrix: (Units=GPa)
#
#
# Indices 1 2 3 4 5 6 
#
# 1 99.9805 20.3277 39.1415 0.0000 0.0000 0.0000
# 2 20.3277 76.6570 32.7916 0.0000 0.0000 0.0000
# 3 39.1415 32.7916 100.8980 0.0000 0.0000 0.0000
# 4 0.0000 0.0000 0.0000 5.5870 0.0000 0.0000
# 5 0.0000 0.0000 0.0000 0.0000 20.5991 0.0000
# 6 0.0000 0.0000 0.0000 0.0000 0.0000 15.0169
#
#
#
# Elastic Compliance Matrix: (Units=1/GPa)
#
#
# Indices 1 2 3 4 5 6 
#
# 1 0.011916 -0.001373 -0.004176 0.000000 0.000000 0.000000
# 2 -0.001373 0.015310 -0.004443 0.000000 0.000000 0.000000
# 3 -0.004176 -0.004443 0.012975 0.000000 0.000000 0.000000
# 4 0.000000 0.000000 0.000000 0.178985 0.000000 0.000000
# 5 0.000000 0.000000 0.000000 0.000000 0.048546 0.000000
# 6 0.000000 0.000000 0.000000 0.000000 0.000000 0.066591
#
#
# Mechanical properties :
#
#
# Convention : Reuss Voigt Hill
#
# Bulk Modulus (GPa) = 49.46601 51.33967 50.40284
# Shear Modulus (GPa) = 13.84859 20.59225 17.22042
#
# Velocity S-wave (km/s) = 2.41920 2.95000 2.69769
# Velocity P-wave (km/s) = 5.35800 5.77061 5.56813
#
# Compressibility (1/GPa) = 0.02021590
#
# Stress axis : x y z
#
# Youngs Moduli (GPa) = 83.91955 65.31739 77.07105
#
# Poissons Ratio (x) = 0.08971 0.32187
# Poissons Ratio (y) = 0.11526 0.34242
# Poissons Ratio (z) = 0.35047 0.29020
#
# Static dielectric constant tensor:
#      x y z
#    x 1.935340 0.000000 0.000000 
#    y 0.000000 1.943530 0.000000 
#    z 0.000000 0.000000 2.021640 
# 
# From -- ./inp_files/4434.got.cif
#   From: 2010.05.17/outbox.cif.g08.bks.cpg/sg45_3_cif.got.tgz:4434.got - 2010.06.03 19:51:22.
