data_PCOD9376073
_publ_section_title
;
Structure prediction by ZEFSAII (Michael W. Deem and Ramdas Pophale) SiO2 
 PCOD9376073
Probable space group: I B A 2
;
_chemical_formula_sum "Si O2"
_cell_formula_units_Z 56
_cell_length_a 12.431951
_cell_length_b 14.607946
_cell_length_c 12.917005
_cell_angle_alpha 90.000000
_cell_angle_beta 90.000000
_cell_angle_gamma 90.000000
_cell_volume 2345.796166
_symmetry_space_group_name_H-M "I B A 2"
_symmetry_group_IT_number 45
_symmetry_cell_setting 'orthorhombic'
loop_
_space_group_symop_operation_xyz
x,y,z
-x,-y,z
-x,y,1/2+z
x,-y,1/2+z
1/2+x,1/2+y,1/2+z
1/2-x,1/2-y,1/2+z
1/2-x,1/2+y,z
1/2+x,1/2-y,z
loop_
_atom_site_type_symbol
_atom_site_label
_atom_site_fract_x
_atom_site_fract_y
_atom_site_fract_z
Si Si1 0.481928 0.698151 0.864180
Si Si2 0.167316 0.793231 0.533711
Si Si3 0.370951 0.173311 0.941969
Si Si4 0.357701 0.897565 0.120423
Si Si5 0.000000 0.000000 0.829032
Si Si6 0.916137 0.326132 0.190043
Si Si7 0.288844 0.558298 0.202681
Si Si8 0.500000 0.000000 0.953742
O O1 0.601010 0.739085 0.872756
O O2 0.474026 0.592333 0.887567
O O3 0.432861 0.734674 0.757468
O O4 0.432789 0.742942 0.967132
O O5 0.243430 0.832276 0.443085
O O6 0.196660 0.699460 0.592941
O O7 0.159404 0.874894 0.615295
O O8 0.436693 0.085049 0.903906
O O9 0.387422 0.182972 0.067748
O O10 0.467161 0.875779 0.184990
O O11 0.269501 0.965456 0.166377
O O12 0.407467 0.952699 0.023138
O O13 0.108507 0.970924 0.769126
O O14 0.816956 0.383302 0.239637
#
# Coordination Sequence:
#
# PCOD9376073 Si02
#       8
#     8   8   8   8   4   8   8   4
#     4  12  27  47  66 108 147 185 246 289 366 436
#     4  11  24  41  76 105 139 192 231 308 357 421
#     4  10  23  45  72 104 144 184 239 300 364 423
#     4  11  19  43  77 105 133 182 248 294 357 422
#     4  12  32  44  64 108 154 198 228 292 366 460
#     4  10  22  46  76 103 135 185 243 310 351 407
#     4  11  25  47  72 102 143 195 242 288 371 430
#     4  10  16  44  70 106 130 172 254 288 348 410
#
# _framework density 23.872492999999999
#
# number of rings (size 3 to 8) (size 9 to 14) (size 15 to 20)
#    0.000    1.143    7.143    0.857    6.000    2.857 
#    5.143    0.000    0.000    0.000    0.000    0.000 
#    0.000    0.000    0.000    0.000    0.000    0.000 
#
# Total GULP energy -156069.457251 kJ/mol
# GULP energy per Si atom -5573.909188 kJ/mol
# Density = 2.381816 g / cm^3
# Si number density = 23.872493 Si / 1000 Ang^3
#
#
#
# Elastic Constant Matrix: (Units=GPa)
#
#
# Indices 1 2 3 4 5 6 
#
# 1 89.8450 15.4869 6.6279 0.0000 0.0000 0.0000
# 2 15.4869 129.0266 28.7158 0.0000 0.0000 0.0000
# 3 6.6279 28.7158 27.1871 0.0000 0.0000 0.0000
# 4 0.0000 0.0000 0.0000 30.1030 0.0000 0.0000
# 5 0.0000 0.0000 0.0000 0.0000 123.2678 0.0000
# 6 0.0000 0.0000 0.0000 0.0000 0.0000 47.4196
#
#
#
# Elastic Compliance Matrix: (Units=1/GPa)
#
#
# Indices 1 2 3 4 5 6 
#
# 1 0.011429 -0.000983 -0.001748 0.000000 0.000000 0.000000
# 2 -0.000983 0.010217 -0.010551 0.000000 0.000000 0.000000
# 3 -0.001748 -0.010551 0.048353 0.000000 0.000000 0.000000
# 4 0.000000 0.000000 0.000000 0.033219 0.000000 0.000000
# 5 0.000000 0.000000 0.000000 0.000000 0.008112 0.000000
# 6 0.000000 0.000000 0.000000 0.000000 0.000000 0.021088
#
#
# Mechanical properties :
#
#
# Convention : Reuss Voigt Hill
#
# Bulk Modulus (GPa) = 23.02368 38.63553 30.82960
# Shear Modulus (GPa) = 28.82494 53.17329 40.99911
#
# Velocity S-wave (km/s) = 3.47861 4.72464 4.14867
# Velocity P-wave (km/s) = 5.07934 6.78102 5.99091
#
# Compressibility (1/GPa) = 0.04343355
#
# Stress axis : x y z
#
# Youngs Moduli (GPa) = 87.49952 97.87995 20.68121
#
# Poissons Ratio (x) = 0.09619 0.03616
# Poissons Ratio (y) = 0.08598 0.21822
# Poissons Ratio (z) = 0.15297 1.03278
#
# Static dielectric constant tensor:
#      x y z
#    x 2.024250 0.000000 0.000000 
#    y 0.000000 3.748190 0.000000 
#    z 0.000000 0.000000 1.898490 
# 
# From -- ./inp_files/6200.got.cif
#   From: 2010.05.17/outbox.cif.g08.bks.cpg/sg45_4_cif.got.tgz:6200.got - 2010.06.03 19:51:22.
