data_PCOD9376438
_publ_section_title
;
Structure prediction by ZEFSAII (Michael W. Deem and Ramdas Pophale) SiO2 
 PCOD9376438
Probable space group: I B A 2
;
_chemical_formula_sum "Si O2"
_cell_formula_units_Z 44
_cell_length_a 11.980203
_cell_length_b 13.250896
_cell_length_c 11.528385
_cell_angle_alpha 90.000000
_cell_angle_beta 90.000000
_cell_angle_gamma 90.000000
_cell_volume 1830.112950
_symmetry_space_group_name_H-M "I B A 2"
_symmetry_group_IT_number 45
_symmetry_cell_setting 'orthorhombic'
loop_
_space_group_symop_operation_xyz
x,y,z
-x,-y,z
-x,y,1/2+z
x,-y,1/2+z
1/2+x,1/2+y,1/2+z
1/2-x,1/2-y,1/2+z
1/2-x,1/2+y,z
1/2+x,1/2-y,z
loop_
_atom_site_type_symbol
_atom_site_label
_atom_site_fract_x
_atom_site_fract_y
_atom_site_fract_z
Si Si1 0.169225 0.088068 0.223700
Si Si2 0.263477 0.635023 0.680273
Si Si3 0.844376 0.380425 0.426654
Si Si4 0.644949 0.820592 0.091181
Si Si5 0.430680 0.775392 0.336892
Si Si6 0.000000 0.500000 0.054134
O O1 0.256050 0.102453 0.328325
O O2 0.234319 0.127610 0.109404
O O3 0.075653 0.167686 0.267398
O O4 0.167970 0.967718 0.203506
O O5 0.208623 0.644845 0.551780
O O6 0.347813 0.728172 0.679857
O O7 0.157887 0.654356 0.765058
O O8 0.624512 0.225255 0.465126
O O9 0.899693 0.484895 0.465279
O O10 0.447301 0.815109 0.877005
O O11 0.546461 0.901999 0.120567
#
# Coordination Sequence:
#
# PCOD9376438 Si02
#       6
#     8   8   8   8   8   4
#     4  11  22  40  64 101 143 189 244 307 380 439
#     4  11  23  39  67 102 143 195 240 309 379 453
#     4  11  22  38  64 100 143 185 247 304 365 445
#     4  10  21  39  62 103 144 184 243 309 367 439
#     4  10  24  39  63 105 140 188 247 312 369 439
#     4  10  20  36  64 102 134 182 238 300 356 438
#
# _framework density 24.042231000000001
#
# number of rings (size 3 to 8) (size 9 to 14) (size 15 to 20)
#    0.000    1.455    3.636    2.182    5.091    0.727 
#    0.000    0.000    0.000    4.364   18.909    0.000 
#    0.000    0.000    0.000    0.000    0.000    0.000 
#
# Total GULP energy -122472.231787 kJ/mol
# GULP energy per Si atom -5566.919627 kJ/mol
# Density = 2.398751 g / cm^3
# Si number density = 24.042231 Si / 1000 Ang^3
#
#
#
# Elastic Constant Matrix: (Units=GPa)
#
#
# Indices 1 2 3 4 5 6 
#
# 1 62.7455 30.0898 31.1491 0.0000 0.0000 0.0000
# 2 30.0898 176.6396 13.1697 0.0000 0.0000 0.0000
# 3 31.1491 13.1697 96.6881 0.0000 0.0000 0.0000
# 4 0.0000 0.0000 0.0000 25.7943 0.0000 0.0000
# 5 0.0000 0.0000 0.0000 0.0000 44.8902 0.0000
# 6 0.0000 0.0000 0.0000 0.0000 0.0000 50.6192
#
#
#
# Elastic Compliance Matrix: (Units=1/GPa)
#
#
# Indices 1 2 3 4 5 6 
#
# 1 0.020454 -0.003024 -0.006178 0.000000 0.000000 0.000000
# 2 -0.003024 0.006166 0.000134 0.000000 0.000000 0.000000
# 3 -0.006178 0.000134 0.012314 0.000000 0.000000 0.000000
# 4 0.000000 0.000000 0.000000 0.038768 0.000000 0.000000
# 5 0.000000 0.000000 0.000000 0.000000 0.022277 0.000000
# 6 0.000000 0.000000 0.000000 0.000000 0.000000 0.019755
#
#
# Mechanical properties :
#
#
# Convention : Reuss Voigt Hill
#
# Bulk Modulus (GPa) = 48.07541 53.87672 50.97606
# Shear Modulus (GPa) = 34.52962 41.70504 38.11733
#
# Velocity S-wave (km/s) = 3.79384 4.16944 3.98607
# Velocity P-wave (km/s) = 6.26344 6.75550 6.51412
#
# Compressibility (1/GPa) = 0.02080066
#
# Stress axis : x y z
#
# Youngs Moduli (GPa) = 48.88956 162.17154 81.20532
#
# Poissons Ratio (x) = 0.49036 0.50166
# Poissons Ratio (y) = 0.14783 -0.01090
# Poissons Ratio (z) = 0.30203 -0.02177
#
# Static dielectric constant tensor:
#      x y z
#    x 2.050450 0.000000 0.000000 
#    y 0.000000 2.161190 0.000000 
#    z 0.000000 0.000000 1.938090 
# 
# From -- ./inp_files/6467.got.cif
#   From: 2010.05.17/outbox.cif.g08.bks.cpg/sg45_4_cif.got.tgz:6467.got - 2010.06.03 19:51:22.
