data_PCOD9376252
_publ_section_title
;
Structure prediction by ZEFSAII (Michael W. Deem and Ramdas Pophale) SiO2 
 PCOD9376252
Probable space group: I B A 2
;
_chemical_formula_sum "Si O2"
_cell_formula_units_Z 40
_cell_length_a 4.986141
_cell_length_b 14.114733
_cell_length_c 24.612279
_cell_angle_alpha 90.000000
_cell_angle_beta 90.000000
_cell_angle_gamma 90.000000
_cell_volume 1732.164175
_symmetry_space_group_name_H-M "I B A 2"
_symmetry_group_IT_number 45
_symmetry_cell_setting 'orthorhombic'
loop_
_space_group_symop_operation_xyz
x,y,z
-x,-y,z
-x,y,1/2+z
x,-y,1/2+z
1/2+x,1/2+y,1/2+z
1/2-x,1/2-y,1/2+z
1/2-x,1/2+y,z
1/2+x,1/2-y,z
loop_
_atom_site_type_symbol
_atom_site_label
_atom_site_fract_x
_atom_site_fract_y
_atom_site_fract_z
Si Si1 0.989108 0.613200 0.096900
Si Si2 0.553204 0.184886 0.865912
Si Si3 0.745147 0.064936 0.764688
Si Si4 0.808442 0.688550 0.981970
Si Si5 0.487699 0.615861 0.159540
O O1 0.782145 0.647773 0.143083
O O2 0.000000 0.500000 0.099793
O O3 0.285181 0.646772 0.112172
O O4 0.885893 0.638345 0.037479
O O5 0.252569 0.224319 0.862891
O O6 0.627078 0.117964 0.816386
O O7 0.614088 0.139726 0.925004
O O8 0.859209 0.135111 0.718156
O O9 0.500000 0.000000 0.742351
O O10 0.000000 0.000000 0.780080
O O11 0.498403 0.717887 0.981269
O O12 0.500000 0.500000 0.159677
#
# Coordination Sequence:
#
# PCOD9376252 Si02
#       5
#     8   8   8   8   8
#     4  10  19  34  56  80 106 140 181 220 263 324
#     4  10  22  40  58  80 115 152 184 229 288 333
#     4  11  21  37  61  85 111 146 191 233 273 332
#     4  10  21  38  56  77 111 148 179 222 279 326
#     4   9  18  33  54  80 110 140 171 220 280 319
#
# _framework density 23.092497999999999
#
# number of rings (size 3 to 8) (size 9 to 14) (size 15 to 20)
#    0.000    2.000    0.000    5.400    0.000    0.800 
#    0.000    9.000    0.000    0.000    0.000    0.000 
#    0.000    0.000    0.000    0.000    0.000    0.000 
#
# Total GULP energy -111797.045984 kJ/mol
# GULP energy per Si atom -5589.852299 kJ/mol
# Density = 2.303994 g / cm^3
# Si number density = 23.092498 Si / 1000 Ang^3
#
#
#
# Elastic Constant Matrix: (Units=GPa)
#
#
# Indices 1 2 3 4 5 6 
#
# 1 96.1314 -1.5739 17.4390 0.0000 0.0000 0.0000
# 2 -1.5739 38.7021 16.9440 0.0000 0.0000 0.0000
# 3 17.4390 16.9440 168.7528 0.0000 0.0000 0.0000
# 4 0.0000 0.0000 0.0000 35.9882 0.0000 0.0000
# 5 0.0000 0.0000 0.0000 0.0000 38.5069 0.0000
# 6 0.0000 0.0000 0.0000 0.0000 0.0000 15.8766
#
#
#
# Elastic Compliance Matrix: (Units=1/GPa)
#
#
# Indices 1 2 3 4 5 6 
#
# 1 0.010635 0.000956 -0.001195 0.000000 0.000000 0.000000
# 2 0.000956 0.027112 -0.002821 0.000000 0.000000 0.000000
# 3 -0.001195 -0.002821 0.006333 0.000000 0.000000 0.000000
# 4 0.000000 0.000000 0.000000 0.027787 0.000000 0.000000
# 5 0.000000 0.000000 0.000000 0.000000 0.025969 0.000000
# 6 0.000000 0.000000 0.000000 0.000000 0.000000 0.062986
#
#
# Mechanical properties :
#
#
# Convention : Reuss Voigt Hill
#
# Bulk Modulus (GPa) = 26.34416 41.02270 33.68343
# Shear Modulus (GPa) = 27.84033 36.12616 31.98324
#
# Velocity S-wave (km/s) = 3.47594 3.95955 3.72560
# Velocity P-wave (km/s) = 5.24809 6.22151 5.75542
#
# Compressibility (1/GPa) = 0.03795907
#
# Stress axis : x y z
#
# Youngs Moduli (GPa) = 94.03047 36.88361 157.91386
#
# Poissons Ratio (x) = -0.03525 0.18870
# Poissons Ratio (y) = -0.08986 0.44548
# Poissons Ratio (z) = 0.11236 0.10405
#
# Static dielectric constant tensor:
#      x y z
#    x 1.831000 0.000000 0.000000 
#    y 0.000000 1.890490 0.000000 
#    z 0.000000 0.000000 1.896590 
# 
# From -- ./inp_files/7247.got.cif
#   From: 2010.05.17/outbox.cif.g08.bks.cpg/sg45_4_cif.got.tgz:7247.got - 2010.06.03 19:51:22.
