data_PCOD9376654
_publ_section_title
;
Structure prediction by ZEFSAII (Michael W. Deem and Ramdas Pophale) SiO2 
 PCOD9376654
Probable space group: I B A 2
;
_chemical_formula_sum "Si O2"
_cell_formula_units_Z 60
_cell_length_a 20.848464
_cell_length_b 11.277907
_cell_length_c 9.616323
_cell_angle_alpha 90.000000
_cell_angle_beta 90.000000
_cell_angle_gamma 90.000000
_cell_volume 2261.057544
_symmetry_space_group_name_H-M "I B A 2"
_symmetry_group_IT_number 45
_symmetry_cell_setting 'orthorhombic'
loop_
_space_group_symop_operation_xyz
x,y,z
-x,-y,z
-x,y,1/2+z
x,-y,1/2+z
1/2+x,1/2+y,1/2+z
1/2-x,1/2-y,1/2+z
1/2-x,1/2+y,z
1/2+x,1/2-y,z
loop_
_atom_site_type_symbol
_atom_site_label
_atom_site_fract_x
_atom_site_fract_y
_atom_site_fract_z
Si Si1 0.082217 0.357182 0.409100
Si Si2 0.939112 0.899404 0.324962
Si Si3 0.834765 0.930104 0.727184
Si Si4 0.203917 0.465715 0.732123
Si Si5 0.356450 0.784764 0.911874
Si Si6 0.085554 0.566633 0.609773
Si Si7 0.500000 0.500000 0.078526
Si Si8 0.286658 0.241199 0.020021
O O1 0.055538 0.225818 0.398996
O O2 0.064415 0.446369 0.532970
O O3 0.060658 0.412009 0.262914
O O4 0.158729 0.323251 0.426437
O O5 0.877644 0.952146 0.242435
O O6 0.945135 0.982655 0.462838
O O7 0.989721 0.899672 0.196323
O O8 0.869140 0.824570 0.810748
O O9 0.815940 0.864473 0.581905
O O10 0.766021 0.969722 0.789071
O O11 0.151257 0.410842 0.834317
O O12 0.162778 0.549738 0.633516
O O13 0.225195 0.350162 0.646143
O O14 0.412533 0.812831 0.020539
O O15 0.282896 0.761803 0.957430
#
# Coordination Sequence:
#
# PCOD9376654 Si02
#       8
#     8   8   8   8   8   8   4   8
#     4  11  24  42  66  95 131 180 232 267 324 398
#     4  11  25  47  77 103 129 167 220 290 356 433
#     4  11  23  36  63  99 127 183 244 269 319 408
#     4  10  21  36  50  86 140 184 226 264 303 358
#     4  11  22  34  53  84 138 188 222 270 310 361
#     4  11  22  40  59  91 140 190 218 266 312 368
#     4  10  26  52  74 106 134 156 200 304 396 406
#     4  10  22  34  55  89 141 191 228 270 306 374
#
# _framework density 26.536254
#
# number of rings (size 3 to 8) (size 9 to 14) (size 15 to 20)
#    0.000    1.333    2.667    2.400    7.467    1.067 
#    0.000    0.000    0.000    2.400    0.000    0.000 
#    0.000    0.000    0.000    0.000    0.000    0.000 
#
# Total GULP energy -167413.281899 kJ/mol
# GULP energy per Si atom -5580.442730 kJ/mol
# Density = 2.647586 g / cm^3
# Si number density = 26.536254 Si / 1000 Ang^3
#
#
#
# Elastic Constant Matrix: (Units=GPa)
#
#
# Indices 1 2 3 4 5 6 
#
# 1 54.4689 19.7987 8.0651 0.0000 0.0000 0.0000
# 2 19.7987 83.2846 29.3517 0.0000 0.0000 0.0000
# 3 8.0651 29.3517 125.1263 0.0000 0.0000 0.0000
# 4 0.0000 0.0000 0.0000 51.3690 0.0000 0.0000
# 5 0.0000 0.0000 0.0000 0.0000 19.9576 0.0000
# 6 0.0000 0.0000 0.0000 0.0000 0.0000 24.4347
#
#
#
# Elastic Compliance Matrix: (Units=1/GPa)
#
#
# Indices 1 2 3 4 5 6 
#
# 1 0.020100 -0.004711 -0.000190 0.000000 0.000000 0.000000
# 2 -0.004711 0.014193 -0.003026 0.000000 0.000000 0.000000
# 3 -0.000190 -0.003026 0.008714 0.000000 0.000000 0.000000
# 4 0.000000 0.000000 0.000000 0.019467 0.000000 0.000000
# 5 0.000000 0.000000 0.000000 0.000000 0.050106 0.000000
# 6 0.000000 0.000000 0.000000 0.000000 0.000000 0.040925
#
#
# Mechanical properties :
#
#
# Convention : Reuss Voigt Hill
#
# Bulk Modulus (GPa) = 36.82906 41.92342 39.37624
# Shear Modulus (GPa) = 28.02517 32.86320 30.44418
#
# Velocity S-wave (km/s) = 3.25331 3.52295 3.39081
# Velocity P-wave (km/s) = 5.29348 5.69043 5.49554
#
# Compressibility (1/GPa) = 0.02715247
#
# Stress axis : x y z
#
# Youngs Moduli (GPa) = 49.75198 70.45573 114.75822
#
# Poissons Ratio (x) = 0.33192 0.02185
# Poissons Ratio (y) = 0.23438 0.34723
# Poissons Ratio (z) = 0.00947 0.21318
#
# Static dielectric constant tensor:
#      x y z
#    x 2.155080 0.000000 0.000000 
#    y 0.000000 2.116030 0.000000 
#    z 0.000000 0.000000 2.203520 
# 
# From -- ./inp_files/2641.got.cif
#   From: 2010.05.17/outbox.cif.g08.bks.cpg/sg45_2_cif.got.tgz:2641.got - 2010.06.03 19:51:22.
