data_PCOD9376068
_publ_section_title
;
Structure prediction by ZEFSAII (Michael W. Deem and Ramdas Pophale) SiO2 
 PCOD9376068
Probable space group: I B A 2
;
_chemical_formula_sum "Si O2"
_cell_formula_units_Z 56
_cell_length_a 23.143225
_cell_length_b 19.709771
_cell_length_c 5.212575
_cell_angle_alpha 90.000000
_cell_angle_beta 90.000000
_cell_angle_gamma 90.000000
_cell_volume 2377.703915
_symmetry_space_group_name_H-M "I B A 2"
_symmetry_group_IT_number 45
_symmetry_cell_setting 'orthorhombic'
loop_
_space_group_symop_operation_xyz
x,y,z
-x,-y,z
-x,y,1/2+z
x,-y,1/2+z
1/2+x,1/2+y,1/2+z
1/2-x,1/2-y,1/2+z
1/2-x,1/2+y,z
1/2+x,1/2-y,z
loop_
_atom_site_type_symbol
_atom_site_label
_atom_site_fract_x
_atom_site_fract_y
_atom_site_fract_z
Si Si1 0.977969 0.578804 0.372400
Si Si2 0.754075 0.597012 0.770248
Si Si3 0.659485 0.539946 0.051543
Si Si4 0.858051 0.146722 0.447379
Si Si5 0.647426 0.042654 0.439252
Si Si6 0.285488 0.231318 0.515588
Si Si7 0.024668 0.920446 0.662627
O O1 0.913353 0.579458 0.475289
O O2 0.000000 0.500000 0.335999
O O3 0.017265 0.610092 0.592650
O O4 0.695504 0.619347 0.621951
O O5 0.798395 0.582706 0.543908
O O6 0.784977 0.652919 0.943482
O O7 0.727192 0.540733 0.965390
O O8 0.650193 0.615408 0.161530
O O9 0.635672 0.496266 0.294800
O O10 0.853100 0.519215 0.145067
O O11 0.844505 0.226693 0.467458
O O12 0.916706 0.113358 0.551772
O O13 0.260109 0.240228 0.801217
O O14 0.020751 0.894802 0.951937
O O15 0.000000 0.000000 0.689485
#
# Coordination Sequence:
#
# PCOD9376068 Si02
#       7
#     8   8   8   8   8   8   8
#     4  10  16  33  52  72 103 156 204 232 282 360
#     4  11  25  41  61  98 133 171 213 270 344 409
#     4  12  24  36  58  93 133 168 201 256 349 411
#     4  11  25  44  69  90 133 179 221 282 340 404
#     4  12  23  34  54  87 125 158 196 255 320 392
#     4  10  22  42  66  91 119 168 222 255 314 406
#     4  10  25  42  62  93 126 168 228 277 331 403
#
# _framework density 23.552133999999999
#
# number of rings (size 3 to 8) (size 9 to 14) (size 15 to 20)
#    0.000    1.143    5.714    0.857    8.000    0.000 
#    0.000    0.000    0.000    1.714    0.000    0.000 
#    0.000    0.000    0.000    0.000    0.000    0.000 
#
# Total GULP energy -155871.762487 kJ/mol
# GULP energy per Si atom -5566.848660 kJ/mol
# Density = 2.349853 g / cm^3
# Si number density = 23.552134 Si / 1000 Ang^3
#
#
#
# Elastic Constant Matrix: (Units=GPa)
#
#
# Indices 1 2 3 4 5 6 
#
# 1 99.3212 22.4072 0.9074 0.0000 0.0000 0.0000
# 2 22.4072 37.4689 13.0438 0.0000 0.0000 0.0000
# 3 0.9074 13.0438 120.0118 0.0000 0.0000 0.0000
# 4 0.0000 0.0000 0.0000 33.8605 0.0000 0.0000
# 5 0.0000 0.0000 0.0000 0.0000 40.8876 0.0000
# 6 0.0000 0.0000 0.0000 0.0000 0.0000 20.5857
#
#
#
# Elastic Compliance Matrix: (Units=1/GPa)
#
#
# Indices 1 2 3 4 5 6 
#
# 1 0.011695 -0.007237 0.000698 0.000000 0.000000 0.000000
# 2 -0.007237 0.032216 -0.003447 0.000000 0.000000 0.000000
# 3 0.000698 -0.003447 0.008702 0.000000 0.000000 0.000000
# 4 0.000000 0.000000 0.000000 0.029533 0.000000 0.000000
# 5 0.000000 0.000000 0.000000 0.000000 0.024457 0.000000
# 6 0.000000 0.000000 0.000000 0.000000 0.000000 0.048577
#
#
# Mechanical properties :
#
#
# Convention : Reuss Voigt Hill
#
# Bulk Modulus (GPa) = 30.63522 36.61318 33.62420
# Shear Modulus (GPa) = 26.87710 33.76298 30.32004
#
# Velocity S-wave (km/s) = 3.38179 3.79032 3.59187
# Velocity P-wave (km/s) = 5.31830 5.89362 5.61334
#
# Compressibility (1/GPa) = 0.03264217
#
# Stress axis : x y z
#
# Youngs Moduli (GPa) = 85.50969 31.04007 114.91791
#
# Poissons Ratio (x) = 0.22463 -0.08023
# Poissons Ratio (y) = 0.61880 0.39610
# Poissons Ratio (z) = -0.05970 0.10699
#
# Static dielectric constant tensor:
#      x y z
#    x 1.995000 0.000000 0.000000 
#    y 0.000000 1.972080 0.000000 
#    z 0.000000 0.000000 1.992940 
# 
# From -- ./inp_files/441.got.cif
#   From: 2010.05.17/outbox.cif.g08.bks.cpg/sg45_1_cif.got.tgz:441.got - 2010.06.03 19:51:22.
