data_PCOD9376698
_publ_section_title
;
Structure prediction by ZEFSAII (Michael W. Deem and Ramdas Pophale) SiO2 
 PCOD9376698
Probable space group: I B A 2
;
_chemical_formula_sum "Si O2"
_cell_formula_units_Z 60
_cell_length_a 15.436307
_cell_length_b 12.310116
_cell_length_c 15.659304
_cell_angle_alpha 90.000000
_cell_angle_beta 90.000000
_cell_angle_gamma 90.000000
_cell_volume 2975.623693
_symmetry_space_group_name_H-M "I B A 2"
_symmetry_group_IT_number 45
_symmetry_cell_setting 'orthorhombic'
loop_
_space_group_symop_operation_xyz
x,y,z
-x,-y,z
-x,y,1/2+z
x,-y,1/2+z
1/2+x,1/2+y,1/2+z
1/2-x,1/2-y,1/2+z
1/2-x,1/2+y,z
1/2+x,1/2-y,z
loop_
_atom_site_type_symbol
_atom_site_label
_atom_site_fract_x
_atom_site_fract_y
_atom_site_fract_z
Si Si1 0.375242 0.765785 0.671010
Si Si2 0.283246 0.971609 0.706696
Si Si3 0.500000 0.500000 0.571421
Si Si4 0.224902 0.652232 0.562983
Si Si5 0.562036 0.727763 0.630256
Si Si6 0.155136 0.815351 0.786857
Si Si7 0.204785 0.856955 0.324281
Si Si8 0.850516 0.039653 0.940079
O O1 0.359867 0.885957 0.707446
O O2 0.298596 0.728510 0.606615
O O3 0.465000 0.770963 0.621430
O O4 0.364205 0.680593 0.750806
O O5 0.201377 0.891371 0.716029
O O6 0.285549 0.048334 0.625228
O O7 0.267644 0.050414 0.785727
O O8 0.542878 0.599143 0.621748
O O9 0.422617 0.543351 0.512410
O O10 0.134891 0.719893 0.568513
O O11 0.264870 0.598962 0.477678
O O12 0.591574 0.753116 0.727710
O O13 0.230593 0.744477 0.830612
O O14 0.116455 0.892472 0.858474
O O15 0.165710 0.916289 0.406862
#
# Coordination Sequence:
#
# PCOD9376698 Si02
#       8
#     8   8   4   8   8   8   8   8
#     4  10  21  37  65  94 124 162 219 269 314 398
#     4   9  17  39  64  87 119 164 211 256 321 391
#     4  12  28  40  62 100 128 178 218 278 342 394
#     4  11  22  42  61  94 129 174 217 271 337 390
#     4  12  24  41  67  93 129 171 226 271 322 407
#     4  10  21  39  66  93 122 168 212 269 331 387
#     4   9  20  40  63  91 126 169 213 262 336 389
#     4  11  25  38  62  95 133 169 214 275 337 396
#
# _framework density 20.163841000000001
#
# number of rings (size 3 to 8) (size 9 to 14) (size 15 to 20)
#    0.000    1.600    5.333    0.800    7.467    0.533 
#    0.000    0.000    0.000    0.000    0.000    0.000 
#    0.000    0.000    0.000    0.000    0.000    0.000 
#
# Total GULP energy -167024.842309 kJ/mol
# GULP energy per Si atom -5567.494744 kJ/mol
# Density = 2.011795 g / cm^3
# Si number density = 20.163841 Si / 1000 Ang^3
#
#
#
# Elastic Constant Matrix: (Units=GPa)
#
#
# Indices 1 2 3 4 5 6 
#
# 1 110.9677 30.7574 16.1166 0.0000 0.0000 0.0000
# 2 30.7574 74.3417 10.8952 0.0000 0.0000 0.0000
# 3 16.1166 10.8952 44.2779 0.0000 0.0000 0.0000
# 4 0.0000 0.0000 0.0000 25.3857 0.0000 0.0000
# 5 0.0000 0.0000 0.0000 0.0000 17.2760 0.0000
# 6 0.0000 0.0000 0.0000 0.0000 0.0000 19.8911
#
#
#
# Elastic Compliance Matrix: (Units=1/GPa)
#
#
# Indices 1 2 3 4 5 6 
#
# 1 0.010517 -0.003932 -0.002861 0.000000 0.000000 0.000000
# 2 -0.003932 0.015425 -0.002364 0.000000 0.000000 0.000000
# 3 -0.002861 -0.002364 0.024208 0.000000 0.000000 0.000000
# 4 0.000000 0.000000 0.000000 0.039392 0.000000 0.000000
# 5 0.000000 0.000000 0.000000 0.000000 0.057884 0.000000
# 6 0.000000 0.000000 0.000000 0.000000 0.000000 0.050274
#
#
# Mechanical properties :
#
#
# Convention : Reuss Voigt Hill
#
# Bulk Modulus (GPa) = 31.41127 38.34729 34.87928
# Shear Modulus (GPa) = 22.06295 23.96510 23.01403
#
# Velocity S-wave (km/s) = 3.31143 3.45123 3.38205
# Velocity P-wave (km/s) = 5.49842 5.91105 5.70846
#
# Compressibility (1/GPa) = 0.03183571
#
# Stress axis : x y z
#
# Youngs Moduli (GPa) = 95.08493 64.83127 41.30939
#
# Poissons Ratio (x) = 0.25491 0.11817
# Poissons Ratio (y) = 0.37387 0.09767
# Poissons Ratio (z) = 0.27199 0.15328
#
# Static dielectric constant tensor:
#      x y z
#    x 1.786860 0.000000 0.000000 
#    y 0.000000 1.802890 0.000000 
#    z 0.000000 0.000000 1.746050 
# 
# From -- ./inp_files/8222.got.cif
#   From: 2010.05.17/outbox.cif.g08.bks.cpg/sg45_5_cif.got.tgz:8222.got - 2010.06.03 19:51:22.
