data_PCOD9376293
_publ_section_title
;
Structure prediction by ZEFSAII (Michael W. Deem and Ramdas Pophale) SiO2 
 PCOD9376293
Probable space group: I B A 2
;
_chemical_formula_sum "Si O2"
_cell_formula_units_Z 60
_cell_length_a 9.828312
_cell_length_b 15.509357
_cell_length_c 16.748502
_cell_angle_alpha 90.000000
_cell_angle_beta 90.000000
_cell_angle_gamma 90.000000
_cell_volume 2552.987551
_symmetry_space_group_name_H-M "I B A 2"
_symmetry_group_IT_number 45
_symmetry_cell_setting 'orthorhombic'
loop_
_space_group_symop_operation_xyz
x,y,z
-x,-y,z
-x,y,1/2+z
x,-y,1/2+z
1/2+x,1/2+y,1/2+z
1/2-x,1/2-y,1/2+z
1/2-x,1/2+y,z
1/2+x,1/2-y,z
loop_
_atom_site_type_symbol
_atom_site_label
_atom_site_fract_x
_atom_site_fract_y
_atom_site_fract_z
Si Si1 0.628262 0.944956 0.158310
Si Si2 0.456866 0.396528 0.247176
Si Si3 0.250696 0.861823 0.805282
Si Si4 0.161868 0.719462 0.472804
Si Si5 0.318383 0.597920 0.593391
Si Si6 0.749053 0.446454 0.866270
Si Si7 0.614865 0.149818 0.493847
Si Si8 0.000000 0.000000 0.474176
O O1 0.674944 0.869216 0.219017
O O2 0.589770 0.903109 0.073620
O O3 0.500000 0.000000 0.189769
O O4 0.745296 0.015365 0.135920
O O5 0.500000 0.500000 0.241724
O O6 0.589101 0.353044 0.286616
O O7 0.410679 0.359848 0.162141
O O8 0.317267 0.389167 0.297326
O O9 0.295453 0.805298 0.881611
O O10 0.278705 0.959408 0.834065
O O11 0.212055 0.650975 0.540099
O O12 0.239399 0.805118 0.497222
O O13 0.000380 0.720153 0.479010
O O14 0.426438 0.567307 0.529369
O O15 0.873597 0.410183 0.916128
O O16 0.617532 0.459450 0.921777
#
# Coordination Sequence:
#
# PCOD9376293 Si02
#       8
#     8   8   8   8   8   8   8   4
#     4  12  24  45  72 108 141 179 253 313 365 427
#     4  10  19  36  65 111 132 164 226 292 358 416
#     4  11  23  43  73 108 140 178 238 309 367 434
#     4  12  29  49  68 101 147 201 239 297 379 458
#     4  12  21  39  72 102 142 178 239 298 361 427
#     4  11  21  38  69 101 136 176 239 299 351 427
#     4  12  30  48  69 102 147 199 245 301 377 455
#     4  12  18  32  72 102 130 176 216 298 352 416
#
# _framework density 23.501878999999999
#
# number of rings (size 3 to 8) (size 9 to 14) (size 15 to 20)
#    0.000    0.533    9.333    0.000    5.600    0.000 
#    2.400    0.000    0.000    0.000    0.000    0.000 
#    0.000    0.000    0.000    0.000    0.000    0.000 
#
# Total GULP energy -167654.826770 kJ/mol
# GULP energy per Si atom -5588.494226 kJ/mol
# Density = 2.344839 g / cm^3
# Si number density = 23.501879 Si / 1000 Ang^3
#
#
#
# Elastic Constant Matrix: (Units=GPa)
#
#
# Indices 1 2 3 4 5 6 
#
# 1 53.4519 5.1940 -10.4194 0.0000 0.0000 0.0000
# 2 5.1940 25.7833 13.9719 0.0000 0.0000 0.0000
# 3 -10.4194 13.9719 151.1111 0.0000 0.0000 0.0000
# 4 0.0000 0.0000 0.0000 18.6337 0.0000 0.0000
# 5 0.0000 0.0000 0.0000 0.0000 25.0817 0.0000
# 6 0.0000 0.0000 0.0000 0.0000 0.0000 30.9890
#
#
#
# Elastic Compliance Matrix: (Units=1/GPa)
#
#
# Indices 1 2 3 4 5 6 
#
# 1 0.019537 -0.004912 0.001801 0.000000 0.000000 0.000000
# 2 -0.004912 0.042065 -0.004228 0.000000 0.000000 0.000000
# 3 0.001801 -0.004228 0.007133 0.000000 0.000000 0.000000
# 4 0.000000 0.000000 0.000000 0.053666 0.000000 0.000000
# 5 0.000000 0.000000 0.000000 0.000000 0.039870 0.000000
# 6 0.000000 0.000000 0.000000 0.000000 0.000000 0.032270
#
#
# Mechanical properties :
#
#
# Convention : Reuss Voigt Hill
#
# Bulk Modulus (GPa) = 18.49871 27.53772 23.01821
# Shear Modulus (GPa) = 22.00345 29.71419 25.85882
#
# Velocity S-wave (km/s) = 3.06313 3.55960 3.32066
# Velocity P-wave (km/s) = 4.51648 5.35136 4.95155
#
# Compressibility (1/GPa) = 0.05405783
#
# Stress axis : x y z
#
# Youngs Moduli (GPa) = 51.18544 23.77248 140.19779
#
# Poissons Ratio (x) = 0.11676 -0.25253
# Poissons Ratio (y) = 0.25141 0.59277
# Poissons Ratio (z) = -0.09220 0.10051
#
# Static dielectric constant tensor:
#      x y z
#    x 1.892680 0.000000 0.000000 
#    y 0.000000 1.921600 0.000000 
#    z 0.000000 0.000000 1.933410 
# 
# From -- ./inp_files/7702.got.cif
#   From: 2010.05.17/outbox.cif.g08.bks.cpg/sg45_4_cif.got.tgz:7702.got - 2010.06.03 19:51:22.
