data_PCOD9376778
_publ_section_title
;
Structure prediction by ZEFSAII (Michael W. Deem and Ramdas Pophale) SiO2 
 PCOD9376778
Probable space group: I B A 2
;
_chemical_formula_sum "Si O2"
_cell_formula_units_Z 48
_cell_length_a 24.911329
_cell_length_b 16.251547
_cell_length_c 5.213771
_cell_angle_alpha 90.000000
_cell_angle_beta 90.000000
_cell_angle_gamma 90.000000
_cell_volume 2110.782854
_symmetry_space_group_name_H-M "I B A 2"
_symmetry_group_IT_number 45
_symmetry_cell_setting 'orthorhombic'
loop_
_space_group_symop_operation_xyz
x,y,z
-x,-y,z
-x,y,1/2+z
x,-y,1/2+z
1/2+x,1/2+y,1/2+z
1/2-x,1/2-y,1/2+z
1/2-x,1/2+y,z
1/2+x,1/2-y,z
loop_
_atom_site_type_symbol
_atom_site_label
_atom_site_fract_x
_atom_site_fract_y
_atom_site_fract_z
Si Si1 0.903045 0.314620 0.858620
Si Si2 0.560956 0.464872 0.811605
Si Si3 0.696610 0.057244 0.347795
Si Si4 0.601663 0.713151 0.369096
Si Si5 0.441251 0.032222 0.101860
Si Si6 0.271942 0.703240 0.920473
O O1 0.850007 0.372352 0.842598
O O2 0.918140 0.277498 0.584708
O O3 0.944629 0.378683 0.980535
O O4 0.897404 0.246299 0.078463
O O5 0.500000 0.500000 0.783487
O O6 0.587026 0.482619 0.538149
O O7 0.566567 0.369606 0.879692
O O8 0.749828 0.112913 0.357885
O O9 0.694436 0.001650 0.602198
O O10 0.663910 0.700335 0.444125
O O11 0.500000 0.000000 0.162139
O O12 0.414691 0.974946 0.881700
O O13 0.254092 0.762191 0.683848
#
# Coordination Sequence:
#
# PCOD9376778 Si02
#       6
#     8   8   8   8   8   8
#     4  12  23  41  65  99 132 175 228 269 332 417
#     4  10  23  46  70  97 135 171 224 293 347 397
#     4  12  24  39  65  97 133 176 222 271 331 394
#     4  12  24  42  72  98 131 185 218 277 353 396
#     4  10  21  40  60  87 129 173 212 276 325 381
#     4  12  23  44  64  96 143 176 227 284 332 404
#
# _framework density 22.740376000000001
#
# number of rings (size 3 to 8) (size 9 to 14) (size 15 to 20)
#    0.000    0.667    3.333    5.000    0.000    1.333 
#    0.000   20.000    0.000    0.000    0.000    0.000 
#    0.000    0.000    0.000    0.000    0.000    0.000 
#
# Total GULP energy -134150.812465 kJ/mol
# GULP energy per Si atom -5589.617186 kJ/mol
# Density = 2.268862 g / cm^3
# Si number density = 22.740376 Si / 1000 Ang^3
#
#
#
# Elastic Constant Matrix: (Units=GPa)
#
#
# Indices 1 2 3 4 5 6 
#
# 1 56.3012 17.5343 -13.8320 0.0000 0.0000 0.0000
# 2 17.5343 112.0671 12.9158 0.0000 0.0000 0.0000
# 3 -13.8320 12.9158 134.9352 0.0000 0.0000 0.0000
# 4 0.0000 0.0000 0.0000 54.4223 0.0000 0.0000
# 5 0.0000 0.0000 0.0000 0.0000 14.5068 0.0000
# 6 0.0000 0.0000 0.0000 0.0000 0.0000 49.0169
#
#
#
# Elastic Compliance Matrix: (Units=1/GPa)
#
#
# Indices 1 2 3 4 5 6 
#
# 1 0.019352 -0.003293 0.002299 0.000000 0.000000 0.000000
# 2 -0.003293 0.009583 -0.001255 0.000000 0.000000 0.000000
# 3 0.002299 -0.001255 0.007767 0.000000 0.000000 0.000000
# 4 0.000000 0.000000 0.000000 0.018375 0.000000 0.000000
# 5 0.000000 0.000000 0.000000 0.000000 0.068933 0.000000
# 6 0.000000 0.000000 0.000000 0.000000 0.000000 0.020401
#
#
# Mechanical properties :
#
#
# Convention : Reuss Voigt Hill
#
# Bulk Modulus (GPa) = 31.05180 37.39332 34.22256
# Shear Modulus (GPa) = 31.31992 42.70157 37.01074
#
# Velocity S-wave (km/s) = 3.71520 4.33804 4.03865
# Velocity P-wave (km/s) = 5.66464 6.44754 6.06873
#
# Compressibility (1/GPa) = 0.03220425
#
# Stress axis : x y z
#
# Youngs Moduli (GPa) = 51.67452 104.35092 128.75432
#
# Poissons Ratio (x) = 0.34361 -0.29599
# Poissons Ratio (y) = 0.17015 0.16156
# Poissons Ratio (z) = -0.11880 0.13094
#
# Static dielectric constant tensor:
#      x y z
#    x 1.949260 0.000000 0.000000 
#    y 0.000000 1.851930 0.000000 
#    z 0.000000 0.000000 1.906210 
# 
# From -- ./inp_files/604.got.cif
#   From: 2010.05.17/outbox.cif.g08.bks.cpg/sg45_1_cif.got.tgz:604.got - 2010.06.03 19:51:22.
