data_PCOD9376769
_publ_section_title
;
Structure prediction by ZEFSAII (Michael W. Deem and Ramdas Pophale) SiO2 
 PCOD9376769
Probable space group: I B A 2
;
_chemical_formula_sum "Si O2"
_cell_formula_units_Z 60
_cell_length_a 13.819145
_cell_length_b 22.556820
_cell_length_c 8.301557
_cell_angle_alpha 90.000000
_cell_angle_beta 90.000000
_cell_angle_gamma 90.000000
_cell_volume 2587.727862
_symmetry_space_group_name_H-M "I B A 2"
_symmetry_group_IT_number 45
_symmetry_cell_setting 'orthorhombic'
loop_
_space_group_symop_operation_xyz
x,y,z
-x,-y,z
-x,y,1/2+z
x,-y,1/2+z
1/2+x,1/2+y,1/2+z
1/2-x,1/2-y,1/2+z
1/2-x,1/2+y,z
1/2+x,1/2-y,z
loop_
_atom_site_type_symbol
_atom_site_label
_atom_site_fract_x
_atom_site_fract_y
_atom_site_fract_z
Si Si1 0.500000 0.500000 0.540870
Si Si2 0.128801 0.049757 0.778664
Si Si3 0.683935 0.731276 0.937241
Si Si4 0.620834 0.923162 0.834174
Si Si5 0.651977 0.158041 0.806726
Si Si6 0.778866 0.833058 0.770441
Si Si7 0.315332 0.971103 0.677856
Si Si8 0.022060 0.316193 0.487515
O O1 0.588740 0.517585 0.432813
O O2 0.459226 0.550909 0.653257
O O3 0.146928 0.117318 0.821688
O O4 0.217410 0.009209 0.711912
O O5 0.740078 0.686311 0.817592
O O6 0.689207 0.701765 0.112337
O O7 0.577086 0.759488 0.907700
O O8 0.748770 0.790044 0.913247
O O9 0.674207 0.948720 0.994581
O O10 0.539013 0.880244 0.901374
O O11 0.687280 0.876156 0.739067
O O12 0.604210 0.979467 0.722450
O O13 0.592996 0.185989 0.959891
O O14 0.670569 0.087507 0.787255
O O15 0.581676 0.176833 0.655704
#
# Coordination Sequence:
#
# PCOD9376769 Si02
#       8
#     4   8   8   8   8   8   8   8
#     4  10  22  40  64 102 142 168 222 290 344 410
#     4  10  21  41  64  98 137 176 222 285 345 418
#     4  11  23  45  66  94 134 185 236 286 345 407
#     4   9  21  38  64  96 132 168 223 279 341 418
#     4  11  25  41  68  96 132 179 224 288 349 414
#     4  10  22  41  65  91 131 179 235 278 340 408
#     4  10  21  39  67  98 131 178 222 272 354 419
#     4  10  24  44  62  99 134 173 231 291 341 414
#
# _framework density 23.186366
#
# number of rings (size 3 to 8) (size 9 to 14) (size 15 to 20)
#    0.000    1.867    1.333    1.600    9.333    0.533 
#    2.400    2.667    0.000    0.000    0.000    0.000 
#    0.000    0.000    0.000    0.000    0.000    0.000 
#
# Total GULP energy -167077.256107 kJ/mol
# GULP energy per Si atom -5569.241870 kJ/mol
# Density = 2.313359 g / cm^3
# Si number density = 23.186366 Si / 1000 Ang^3
#
#
#
# Elastic Constant Matrix: (Units=GPa)
#
#
# Indices 1 2 3 4 5 6 
#
# 1 62.5623 27.7056 15.7710 0.0002 0.0000 0.0000
# 2 27.7056 138.1159 24.5382 0.0008 0.0003 0.0002
# 3 15.7710 24.5382 58.3413 0.0030 0.0014 0.0018
# 4 0.0002 0.0008 0.0030 -8.3476 0.0013 0.0014
# 5 0.0000 0.0003 0.0014 0.0013 21.4796 0.0002
# 6 0.0000 0.0002 0.0018 0.0014 0.0002 6.3451
#
#
#
# Elastic Compliance Matrix: (Units=1/GPa)
#
#
# Indices 1 2 3 4 5 6 
#
# 1 0.018240 -0.003008 -0.003666 -0.000001 0.000000 0.000001
# 2 -0.003008 0.008321 -0.002687 0.000000 0.000000 0.000000
# 3 -0.003666 -0.002687 0.019261 0.000007 -0.000001 -0.000005
# 4 -0.000001 0.000000 0.000007 -0.119795 0.000007 0.000027
# 5 0.000000 0.000000 -0.000001 0.000007 0.046556 -0.000001
# 6 0.000001 0.000000 -0.000005 0.000027 -0.000001 0.157601
#
#
# Mechanical properties :
#
#
# Convention : Reuss Voigt Hill
#
# Bulk Modulus (GPa) = 36.89718 43.89434 40.39576
# Shear Modulus (GPa) = 31.65773 16.62906 24.14340
#
# Velocity S-wave (km/s) = 3.69909 2.68095 3.23038
# Velocity P-wave (km/s) = 5.84741 5.34374 5.60124
#
# Compressibility (1/GPa) = 0.02710234
#
# Stress axis : x y z
#
# Youngs Moduli (GPa) = 54.82436 120.17847 51.91709
#
# Poissons Ratio (x) = 0.36145 0.19031
# Poissons Ratio (y) = 0.16489 0.13949
# Poissons Ratio (z) = 0.20097 0.32289
#
# Static dielectric constant tensor:
#      x y z
#    x 2.040470 0.000000 0.000000 
#    y 0.000000 1.905880 0.000000 
#    z 0.000000 0.000000 1.904800 
# 
# From -- ./inp_files/1902.got.cif
#   From: 2010.05.17/outbox.cif.g08.bks.cpg/sg45_1_cif.got.tgz:1902.got - 2010.06.03 19:51:22.
