data_PCOD9376403
_publ_section_title
;
Structure prediction by ZEFSAII (Michael W. Deem and Ramdas Pophale) SiO2 
 PCOD9376403
Probable space group: I B A 2
;
_chemical_formula_sum "Si O2"
_cell_formula_units_Z 48
_cell_length_a 11.375040
_cell_length_b 22.053940
_cell_length_c 8.053471
_cell_angle_alpha 90.000000
_cell_angle_beta 90.000000
_cell_angle_gamma 90.000000
_cell_volume 2020.329570
_symmetry_space_group_name_H-M "I B A 2"
_symmetry_group_IT_number 45
_symmetry_cell_setting 'orthorhombic'
loop_
_space_group_symop_operation_xyz
x,y,z
-x,-y,z
-x,y,1/2+z
x,-y,1/2+z
1/2+x,1/2+y,1/2+z
1/2-x,1/2-y,1/2+z
1/2-x,1/2+y,z
1/2+x,1/2-y,z
loop_
_atom_site_type_symbol
_atom_site_label
_atom_site_fract_x
_atom_site_fract_y
_atom_site_fract_z
Si Si1 0.649182 0.592164 0.007100
Si Si2 0.346330 0.015023 0.505466
Si Si3 0.164438 0.685025 0.661256
Si Si4 0.559671 0.350647 0.177870
Si Si5 0.369850 0.724878 0.877049
Si Si6 0.458720 0.918998 0.319322
O O1 0.742461 0.634167 0.103822
O O2 0.529824 0.599244 0.107626
O O3 0.708826 0.526910 0.998398
O O4 0.631345 0.621606 0.827809
O O5 0.411621 0.059995 0.372184
O O6 0.402481 0.040768 0.672815
O O7 0.382134 0.945903 0.472324
O O8 0.117205 0.716826 0.495396
O O9 0.066098 0.649424 0.766469
O O10 0.247420 0.727602 0.775894
O O11 0.631593 0.327137 0.019592
O O12 0.476839 0.295874 0.255338
#
# Coordination Sequence:
#
# PCOD9376403 Si02
#       6
#     8   8   8   8   8   8
#     4   9  19  36  59  82 113 151 197 244 301 356
#     4  10  20  37  58  85 118 153 191 241 296 356
#     4  10  21  36  57  88 116 156 202 242 297 363
#     4   9  19  36  57  82 114 155 194 251 301 346
#     4  10  20  35  55  80 116 152 198 245 295 353
#     4  10  21  36  58  87 119 153 192 240 298 355
#
# _framework density 23.758497999999999
#
# number of rings (size 3 to 8) (size 9 to 14) (size 15 to 20)
#    0.000    2.333    0.000    3.000    0.000    5.333 
#    0.000    1.667    0.000   34.000    0.000    0.000 
#    0.000    0.000    0.000    0.000    0.000    0.000 
#
# Total GULP energy -133902.537711 kJ/mol
# GULP energy per Si atom -5579.272405 kJ/mol
# Density = 2.370442 g / cm^3
# Si number density = 23.758498 Si / 1000 Ang^3
#
#
#
# Elastic Constant Matrix: (Units=GPa)
#
#
# Indices 1 2 3 4 5 6 
#
# 1 53.1890 12.4071 10.8773 -0.0003 -0.0001 0.0000
# 2 12.4071 38.1803 -9.1472 -0.0008 -0.0002 0.0002
# 3 10.8773 -9.1472 92.1451 -0.0014 -0.0007 0.0003
# 4 -0.0003 -0.0008 -0.0014 16.0549 0.0000 0.0005
# 5 -0.0001 -0.0002 -0.0007 0.0000 29.7552 0.0000
# 6 0.0000 0.0002 0.0003 0.0005 0.0000 20.9146
#
#
#
# Elastic Compliance Matrix: (Units=1/GPa)
#
#
# Indices 1 2 3 4 5 6 
#
# 1 0.021265 -0.007695 -0.003274 0.000000 0.000000 0.000000
# 2 -0.007695 0.029614 0.003848 0.000002 0.000000 0.000000
# 3 -0.003274 0.003848 0.011621 0.000001 0.000000 0.000000
# 4 0.000000 0.000002 0.000001 0.062286 0.000000 -0.000002
# 5 0.000000 0.000000 0.000000 0.000000 0.033608 0.000000
# 6 0.000000 0.000000 0.000000 -0.000002 0.000000 0.047814
#
#
# Mechanical properties :
#
#
# Convention : Reuss Voigt Hill
#
# Bulk Modulus (GPa) = 20.72170 23.53209 22.12690
# Shear Modulus (GPa) = 21.13847 24.63675 22.88761
#
# Velocity S-wave (km/s) = 2.98606 3.22369 3.10715
# Velocity P-wave (km/s) = 4.54197 4.87672 4.71232
#
# Compressibility (1/GPa) = 0.04825858
#
# Stress axis : x y z
#
# Youngs Moduli (GPa) = 47.02477 33.76781 86.05146
#
# Poissons Ratio (x) = 0.25984 0.28175
# Poissons Ratio (y) = 0.36185 -0.33114
# Poissons Ratio (z) = 0.15397 -0.12994
#
# Static dielectric constant tensor:
#      x y z
#    x 1.912290 0.000000 0.000000 
#    y 0.000000 2.002290 0.000000 
#    z 0.000000 0.000000 1.953990 
# 
# From -- ./inp_files/1395.got.cif
#   From: 2010.05.17/outbox.cif.g08.bks.cpg/sg45_1_cif.got.tgz:1395.got - 2010.06.03 19:51:22.
