data_PCOD9376192
_publ_section_title
;
Structure prediction by ZEFSAII (Michael W. Deem and Ramdas Pophale) SiO2 
 PCOD9376192
Probable space group: I B A 2
;
_chemical_formula_sum "Si O2"
_cell_formula_units_Z 44
_cell_length_a 9.282963
_cell_length_b 10.639757
_cell_length_c 17.598925
_cell_angle_alpha 90.000000
_cell_angle_beta 90.000000
_cell_angle_gamma 90.000000
_cell_volume 1738.218906
_symmetry_space_group_name_H-M "I B A 2"
_symmetry_group_IT_number 45
_symmetry_cell_setting 'orthorhombic'
loop_
_space_group_symop_operation_xyz
x,y,z
-x,-y,z
-x,y,1/2+z
x,-y,1/2+z
1/2+x,1/2+y,1/2+z
1/2-x,1/2-y,1/2+z
1/2-x,1/2+y,z
1/2+x,1/2-y,z
loop_
_atom_site_type_symbol
_atom_site_label
_atom_site_fract_x
_atom_site_fract_y
_atom_site_fract_z
Si Si1 0.911846 0.373156 0.962360
Si Si2 0.277851 0.079764 0.669638
Si Si3 0.449898 0.873753 0.747438
Si Si4 0.699164 0.690819 0.852003
Si Si5 0.000000 0.000000 0.760238
Si Si6 0.691880 0.786060 0.512829
O O1 0.871260 0.321862 0.878690
O O2 0.000000 0.500000 0.969156
O O3 0.022339 0.274057 0.000403
O O4 0.766400 0.350166 0.009022
O O5 0.399532 0.170119 0.710880
O O6 0.122532 0.067466 0.708965
O O7 0.270517 0.134717 0.586222
O O8 0.353246 0.942189 0.681047
O O9 0.340193 0.798855 0.799602
O O10 0.500000 0.000000 0.790821
O O11 0.588330 0.596515 0.813214
O O12 0.752320 0.645857 0.935200
#
# Coordination Sequence:
#
# PCOD9376192 Si02
#       6
#     8   8   8   8   4   8
#     4  10  25  48  76 110 155 199 265 332 397 471
#     4   8  18  37  71 112 157 203 249 325 396 483
#     4   7  16  37  66 111 159 209 246 318 406 473
#     4   9  21  41  72 111 153 214 258 325 399 476
#     4  10  18  42  74 120 166 198 268 334 398 474
#     4  10  23  46  74 110 143 213 264 316 404 469
#
# _framework density 25.313268000000001
#
# number of rings (size 3 to 8) (size 9 to 14) (size 15 to 20)
#    2.182    0.727    0.000    0.000    2.545    2.909 
#    6.545    0.000   12.000    1.091    0.000    0.000 
#    0.000    0.000    0.000    0.000    0.000    0.000 
#
# Total GULP energy -122690.673188 kJ/mol
# GULP energy per Si atom -5576.848781 kJ/mol
# Density = 2.525565 g / cm^3
# Si number density = 25.313268 Si / 1000 Ang^3
#
#
#
# Elastic Constant Matrix: (Units=GPa)
#
#
# Indices 1 2 3 4 5 6 
#
# 1 151.0816 42.3354 45.7787 0.0000 0.0000 0.0000
# 2 42.3354 72.5672 49.7677 0.0000 0.0000 0.0000
# 3 45.7787 49.7677 154.6405 0.0000 0.0000 0.0000
# 4 0.0000 0.0000 0.0000 35.5604 0.0000 0.0000
# 5 0.0000 0.0000 0.0000 0.0000 30.0299 0.0000
# 6 0.0000 0.0000 0.0000 0.0000 0.0000 43.0391
#
#
#
# Elastic Compliance Matrix: (Units=1/GPa)
#
#
# Indices 1 2 3 4 5 6 
#
# 1 0.008061 -0.003935 -0.001120 0.000000 0.000000 0.000000
# 2 -0.003935 0.019604 -0.005144 0.000000 0.000000 0.000000
# 3 -0.001120 -0.005144 0.008454 0.000000 0.000000 0.000000
# 4 0.000000 0.000000 0.000000 0.028121 0.000000 0.000000
# 5 0.000000 0.000000 0.000000 0.000000 0.033300 0.000000
# 6 0.000000 0.000000 0.000000 0.000000 0.000000 0.023235
#
#
# Mechanical properties :
#
#
# Convention : Reuss Voigt Hill
#
# Bulk Modulus (GPa) = 63.61060 72.67254 68.14157
# Shear Modulus (GPa) = 34.15015 37.75305 35.95160
#
# Velocity S-wave (km/s) = 3.67700 3.86610 3.77273
# Velocity P-wave (km/s) = 6.57350 6.97858 6.77907
#
# Compressibility (1/GPa) = 0.01572065
#
# Stress axis : x y z
#
# Youngs Moduli (GPa) = 124.05676 51.01064 118.29061
#
# Poissons Ratio (x) = 0.20070 0.13249
# Poissons Ratio (y) = 0.48810 0.60852
# Poissons Ratio (z) = 0.13895 0.26241
#
# Static dielectric constant tensor:
#      x y z
#    x 2.036510 0.000000 0.000000 
#    y 0.000000 2.128180 0.000000 
#    z 0.000000 0.000000 2.041420 
# 
# From -- ./inp_files/7867.got.cif
#   From: 2010.05.17/outbox.cif.g08.bks.cpg/sg45_4_cif.got.tgz:7867.got - 2010.06.03 19:51:22.
