data_PCOD9376400
_publ_section_title
;
Structure prediction by ZEFSAII (Michael W. Deem and Ramdas Pophale) SiO2 
 PCOD9376400
Probable space group: I B A 2
;
_chemical_formula_sum "Si O2"
_cell_formula_units_Z 64
_cell_length_a 20.798962
_cell_length_b 19.975107
_cell_length_c 8.707079
_cell_angle_alpha 90.000000
_cell_angle_beta 90.000000
_cell_angle_gamma 90.000000
_cell_volume 3617.456027
_symmetry_space_group_name_H-M "I B A 2"
_symmetry_group_IT_number 45
_symmetry_cell_setting 'orthorhombic'
loop_
_space_group_symop_operation_xyz
x,y,z
-x,-y,z
-x,y,1/2+z
x,-y,1/2+z
1/2+x,1/2+y,1/2+z
1/2-x,1/2-y,1/2+z
1/2-x,1/2+y,z
1/2+x,1/2-y,z
loop_
_atom_site_type_symbol
_atom_site_label
_atom_site_fract_x
_atom_site_fract_y
_atom_site_fract_z
Si Si1 0.823317 0.671341 0.675260
Si Si2 0.931080 0.925913 0.674019
Si Si3 0.931080 0.074087 0.542790
Si Si4 0.430223 0.926178 0.175148
Si Si5 0.815652 0.827273 0.043043
Si Si6 0.069777 0.426178 0.541660
Si Si7 0.823317 0.671341 0.041548
Si Si8 0.315652 0.672727 0.673766
O O1 0.751129 0.653374 0.622892
O O2 0.875889 0.625554 0.593771
O O3 0.829501 0.664165 0.858404
O O4 0.831203 0.749998 0.635126
O O5 0.874002 0.875718 0.630979
O O6 0.000000 0.903648 0.608404
O O7 0.918770 1.000000 0.608404
O O8 0.935003 0.929357 0.858404
O O9 0.874002 0.124282 0.585830
O O10 0.433950 0.929971 0.358404
O O11 0.500000 0.906467 0.108404
O O12 0.375889 0.874446 0.123038
O O13 0.415767 0.000000 0.108404
O O14 0.831203 0.749998 0.081683
O O15 0.806722 0.830640 0.858404
O O16 0.751129 0.653374 0.093916
#
# Coordination Sequence:
#
# PCOD9376400 Si02
#       8
#     8   8   8   8   8   8   8   8
#     4  10  20  36  57  81 109 142 180 222 269 319
#     4  10  20  35  54  77 106 138 176 219 264 314
#     4  10  20  35  54  77 106 138 176 219 264 314
#     4  11  22  38  58  81 110 142 179 222 269 322
#     4   9  20  37  55  78 109 144 182 223 266 317
#     4  11  22  38  58  81 110 142 179 222 269 322
#     4  10  20  36  57  81 109 142 180 222 269 319
#     4   9  20  37  55  78 109 144 182 223 266 317
#
# _framework density 17.691991999999999
#
# number of rings (size 3 to 8) (size 9 to 14) (size 15 to 20)
#    0.000    2.000    0.000    5.250    0.000    5.000 
#    0.000    5.000    0.000    0.000    0.000    0.000 
#    0.000    0.000    0.000    0.000    0.000    0.000 
#
# Total GULP energy -178716.066412 kJ/mol
# GULP energy per Si atom -5584.877075 kJ/mol
# Density = 1.765172 g / cm^3
# Si number density = 17.691992 Si / 1000 Ang^3
#
#
#
# Elastic Constant Matrix: (Units=GPa)
#
#
# Indices 1 2 3 4 5 6 
#
# 1 174.0339 112.4022 80.9199 0.0000 0.0000 0.0000
# 2 112.4022 86.6252 57.6995 0.0000 0.0000 0.0000
# 3 80.9199 57.6995 101.4885 0.0000 0.0000 0.0000
# 4 0.0000 0.0000 0.0000 26.5902 0.0000 0.0000
# 5 0.0000 0.0000 0.0000 0.0000 36.1388 0.0000
# 6 0.0000 0.0000 0.0000 0.0000 0.0000 41.7814
#
#
#
# Elastic Compliance Matrix: (Units=1/GPa)
#
#
# Indices 1 2 3 4 5 6 
#
# 1 0.036227 -0.044692 -0.003476 0.000000 0.000000 0.000000
# 2 -0.044692 0.073714 -0.006275 0.000000 0.000000 0.000000
# 3 -0.003476 -0.006275 0.016193 0.000000 0.000000 0.000000
# 4 0.000000 0.000000 0.000000 0.037608 0.000000 0.000000
# 5 0.000000 0.000000 0.000000 0.000000 0.027671 0.000000
# 6 0.000000 0.000000 0.000000 0.000000 0.000000 0.023934
#
#
# Mechanical properties :
#
#
# Convention : Reuss Voigt Hill
#
# Bulk Modulus (GPa) = 57.97730 96.02120 76.99925
# Shear Modulus (GPa) = 15.15234 28.31049 21.73142
#
# Velocity S-wave (km/s) = 2.92970 4.00457 3.50854
# Velocity P-wave (km/s) = 6.65475 8.70481 7.74788
#
# Compressibility (1/GPa) = 0.01724813
#
# Stress axis : x y z
#
# Youngs Moduli (GPa) = 27.60362 13.56591 61.75683
#
# Poissons Ratio (x) = 0.60628 0.21468
# Poissons Ratio (y) = 1.23365 0.38751
# Poissons Ratio (z) = 0.09596 0.08512
#
# Static dielectric constant tensor:
#      x y z
#    x 1.574920 0.000000 0.000000 
#    y 0.000000 1.584740 0.000000 
#    z 0.000000 0.000000 1.595740 
# 
# From -- ./inp_files/2215.got.cif
#   From: 2010.05.17/outbox.cif.g08.bks.cpg/sg45_2_cif.got.tgz:2215.got - 2010.06.03 19:51:22.
