data_PCOD9376520
_publ_section_title
;
Structure prediction by ZEFSAII (Michael W. Deem and Ramdas Pophale) SiO2 
 PCOD9376520
Probable space group: I B A 2
;
_chemical_formula_sum "Si O2"
_cell_formula_units_Z 40
_cell_length_a 10.617376
_cell_length_b 14.267661
_cell_length_c 11.897841
_cell_angle_alpha 90.000000
_cell_angle_beta 90.000000
_cell_angle_gamma 90.000000
_cell_volume 1802.345889
_symmetry_space_group_name_H-M "I B A 2"
_symmetry_group_IT_number 45
_symmetry_cell_setting 'orthorhombic'
loop_
_space_group_symop_operation_xyz
x,y,z
-x,-y,z
-x,y,1/2+z
x,-y,1/2+z
1/2+x,1/2+y,1/2+z
1/2-x,1/2-y,1/2+z
1/2-x,1/2+y,z
1/2+x,1/2-y,z
loop_
_atom_site_type_symbol
_atom_site_label
_atom_site_fract_x
_atom_site_fract_y
_atom_site_fract_z
Si Si1 0.500000 0.000000 0.692500
Si Si2 0.225823 0.485580 0.042773
Si Si3 0.008065 0.792111 0.495681
Si Si4 0.230752 0.698118 0.107227
Si Si5 0.000000 0.000000 0.024555
Si Si6 0.141813 0.645614 0.342244
O O1 0.389694 0.046232 0.619193
O O2 0.556219 0.076985 0.771690
O O3 0.202085 0.598335 0.043694
O O4 0.368622 0.483533 0.089424
O O5 0.214522 0.422174 0.930943
O O6 0.125115 0.779626 0.580643
O O7 0.013637 0.901635 0.459563
O O8 0.051975 0.721736 0.399308
O O9 0.875314 0.765749 0.553494
O O10 0.222479 0.691574 0.242155
#
# Coordination Sequence:
#
# PCOD9376520 Si02
#       6
#     4   8   8   8   4   8
#     4  10  20  38  70 102 124 166 222 270 330 394
#     4  10  21  42  66  95 131 163 214 272 322 396
#     4  11  23  43  64  91 130 167 216 270 316 390
#     4  10  24  41  65  97 126 169 217 264 328 390
#     4  10  24  44  62  86 130 174 206 266 330 370
#     4  11  21  39  68  96 128 168 214 271 331 385
#
# _framework density 22.193297999999999
#
# number of rings (size 3 to 8) (size 9 to 14) (size 15 to 20)
#    0.000    1.600    0.000    5.400    0.000    3.200 
#    0.000   32.000    0.000    0.000    0.000    0.000 
#    0.000    0.000    0.000    0.000    0.000    0.000 
#
# Total GULP energy -111456.447555 kJ/mol
# GULP energy per Si atom -5572.822378 kJ/mol
# Density = 2.214279 g / cm^3
# Si number density = 22.193298 Si / 1000 Ang^3
#
#
#
# Elastic Constant Matrix: (Units=GPa)
#
#
# Indices 1 2 3 4 5 6 
#
# 1 148.6451 17.5945 39.8537 0.0000 0.0000 0.0000
# 2 17.5945 92.2354 32.9100 0.0001 0.0000 0.0000
# 3 39.8537 32.9100 97.8913 0.0001 0.0000 0.0000
# 4 0.0000 0.0001 0.0001 118.4610 0.0000 0.0000
# 5 0.0000 0.0000 0.0000 0.0000 3.2664 0.0000
# 6 0.0000 0.0000 0.0000 0.0000 0.0000 26.3909
#
#
#
# Elastic Compliance Matrix: (Units=1/GPa)
#
#
# Indices 1 2 3 4 5 6 
#
# 1 0.007564 -0.000391 -0.002948 0.000000 0.000000 0.000000
# 2 -0.000391 0.012340 -0.003989 0.000000 0.000000 0.000000
# 3 -0.002948 -0.003989 0.012757 0.000000 0.000000 0.000000
# 4 0.000000 0.000000 0.000000 0.008442 0.000000 0.000000
# 5 0.000000 0.000000 0.000000 0.000000 0.306144 0.000000
# 6 0.000000 0.000000 0.000000 0.000000 0.000000 0.037892
#
#
# Mechanical properties :
#
#
# Convention : Reuss Voigt Hill
#
# Bulk Modulus (GPa) = 55.54341 57.72091 56.63216
# Shear Modulus (GPa) = 12.32144 46.18458 29.25301
#
# Velocity S-wave (km/s) = 2.35880 4.56676 3.63450
# Velocity P-wave (km/s) = 5.70088 7.33974 6.57160
#
# Compressibility (1/GPa) = 0.01800394
#
# Stress axis : x y z
#
# Youngs Moduli (GPa) = 132.20289 81.03845 78.38952
#
# Poissons Ratio (x) = 0.03169 0.23110
# Poissons Ratio (y) = 0.05169 0.31272
# Poissons Ratio (z) = 0.38974 0.32329
#
# Static dielectric constant tensor:
#      x y z
#    x 1.701200 0.000000 0.000000 
#    y 0.000000 1.585910 0.000000 
#    z 0.000000 0.000000 1.814020 
# 
# From -- ./inp_files/3588.got.cif
#   From: 2010.05.17/outbox.cif.g08.bks.cpg/sg45_2_cif.got.tgz:3588.got - 2010.06.03 19:51:22.
