data_PCOD9376693
_publ_section_title
;
Structure prediction by ZEFSAII (Michael W. Deem and Ramdas Pophale) SiO2 
 PCOD9376693
Probable space group: I B A 2
;
_chemical_formula_sum "Si O2"
_cell_formula_units_Z 56
_cell_length_a 20.270004
_cell_length_b 8.823117
_cell_length_c 14.280917
_cell_angle_alpha 90.000000
_cell_angle_beta 90.000000
_cell_angle_gamma 90.000000
_cell_volume 2554.065130
_symmetry_space_group_name_H-M "I B A 2"
_symmetry_group_IT_number 45
_symmetry_cell_setting 'orthorhombic'
loop_
_space_group_symop_operation_xyz
x,y,z
-x,-y,z
-x,y,1/2+z
x,-y,1/2+z
1/2+x,1/2+y,1/2+z
1/2-x,1/2-y,1/2+z
1/2-x,1/2+y,z
1/2+x,1/2-y,z
loop_
_atom_site_type_symbol
_atom_site_label
_atom_site_fract_x
_atom_site_fract_y
_atom_site_fract_z
Si Si1 0.673895 0.055935 0.117220
Si Si2 0.249445 0.183248 0.231953
Si Si3 0.842753 0.940116 0.486821
Si Si4 0.963147 0.361569 0.704504
Si Si5 0.393454 0.573370 0.294553
Si Si6 0.216384 0.267579 0.943236
Si Si7 0.054308 0.120266 0.638952
O O1 0.717738 0.175250 0.177906
O O2 0.598420 0.076196 0.146022
O O3 0.703750 0.901133 0.157894
O O4 0.681383 0.105339 0.008671
O O5 0.183616 0.088734 0.263063
O O6 0.287705 0.218271 0.329939
O O7 0.895638 0.944246 0.404498
O O8 0.792512 0.805211 0.463895
O O9 0.879720 0.905824 0.581560
O O10 0.806678 0.103259 0.479660
O O11 0.931223 0.226079 0.764500
O O12 0.000000 0.500000 0.755102
O O13 0.018494 0.280231 0.640817
O O14 0.426579 0.432786 0.243013
O O15 0.000000 0.000000 0.603961
#
# Coordination Sequence:
#
# PCOD9376693 Si02
#       7
#     8   8   8   8   8   8   8
#     4  11  22  40  62  90 128 163 200 260 322 368
#     4  10  21  37  62  93 123 158 204 257 319 385
#     4  11  23  39  64  95 126 161 206 260 315 377
#     4  10  23  41  61  87 122 165 214 261 307 369
#     4   9  20  40  62  87 120 161 205 253 311 373
#     4  11  22  38  63  98 129 163 209 264 328 387
#     4  10  21  41  63  86 121 169 214 247 298 379
#
# _framework density 21.925830999999999
#
# number of rings (size 3 to 8) (size 9 to 14) (size 15 to 20)
#    0.000    1.714    0.000    6.000    0.000    6.286 
#    0.000    2.143    0.000    0.000    0.000    0.000 
#    0.000    0.000    0.000    0.000    0.000    0.000 
#
# Total GULP energy -156368.960611 kJ/mol
# GULP energy per Si atom -5584.605736 kJ/mol
# Density = 2.187593 g / cm^3
# Si number density = 21.925831 Si / 1000 Ang^3
#
#
#
# Elastic Constant Matrix: (Units=GPa)
#
#
# Indices 1 2 3 4 5 6 
#
# 1 86.7482 62.0599 36.1097 0.0000 0.0000 0.0000
# 2 62.0599 101.1908 33.6841 0.0000 0.0000 0.0000
# 3 36.1097 33.6841 97.2167 0.0000 0.0000 0.0000
# 4 0.0000 0.0000 0.0000 14.9347 0.0000 0.0000
# 5 0.0000 0.0000 0.0000 0.0000 26.0392 0.0000
# 6 0.0000 0.0000 0.0000 0.0000 0.0000 33.9401
#
#
#
# Elastic Compliance Matrix: (Units=1/GPa)
#
#
# Indices 1 2 3 4 5 6 
#
# 1 0.021781 -0.012056 -0.003913 0.000000 0.000000 0.000000
# 2 -0.012056 0.017843 -0.001705 0.000000 0.000000 0.000000
# 3 -0.003913 -0.001705 0.012330 0.000000 0.000000 0.000000
# 4 0.000000 0.000000 0.000000 0.066958 0.000000 0.000000
# 5 0.000000 0.000000 0.000000 0.000000 0.038404 0.000000
# 6 0.000000 0.000000 0.000000 0.000000 0.000000 0.029464
#
#
# Mechanical properties :
#
#
# Convention : Reuss Voigt Hill
#
# Bulk Modulus (GPa) = 60.21150 60.98479 60.59814
# Shear Modulus (GPa) = 21.96225 25.20294 23.58259
#
# Velocity S-wave (km/s) = 3.16834 3.39405 3.28313
# Velocity P-wave (km/s) = 6.39574 6.57525 6.48612
#
# Compressibility (1/GPa) = 0.01660812
#
# Stress axis : x y z
#
# Youngs Moduli (GPa) = 45.91115 56.04303 81.10040
#
# Poissons Ratio (x) = 0.67564 0.31736
# Poissons Ratio (y) = 0.55349 0.13824
# Poissons Ratio (z) = 0.17966 0.09553
#
# Static dielectric constant tensor:
#      x y z
#    x 1.810520 0.000000 0.000000 
#    y 0.000000 1.812900 0.000000 
#    z 0.000000 0.000000 1.799860 
# 
# From -- ./inp_files/6959.got.cif
#   From: 2010.05.17/outbox.cif.g08.bks.cpg/sg45_4_cif.got.tgz:6959.got - 2010.06.03 19:51:22.
