data_PCOD9376621
_publ_section_title
;
Structure prediction by ZEFSAII (Michael W. Deem and Ramdas Pophale) SiO2 
 PCOD9376621
Probable space group: I B A 2
;
_chemical_formula_sum "Si O2"
_cell_formula_units_Z 56
_cell_length_a 5.728241
_cell_length_b 27.625078
_cell_length_c 13.767981
_cell_angle_alpha 90.000000
_cell_angle_beta 90.000000
_cell_angle_gamma 90.000000
_cell_volume 2178.688055
_symmetry_space_group_name_H-M "I B A 2"
_symmetry_group_IT_number 45
_symmetry_cell_setting 'orthorhombic'
loop_
_space_group_symop_operation_xyz
x,y,z
-x,-y,z
-x,y,1/2+z
x,-y,1/2+z
1/2+x,1/2+y,1/2+z
1/2-x,1/2-y,1/2+z
1/2-x,1/2+y,z
1/2+x,1/2-y,z
loop_
_atom_site_type_symbol
_atom_site_label
_atom_site_fract_x
_atom_site_fract_y
_atom_site_fract_z
Si Si1 0.052001 0.386422 0.760980
Si Si2 0.513284 0.132381 0.462611
Si Si3 0.324860 0.234361 0.425818
Si Si4 0.389968 0.355596 0.622819
Si Si5 0.151579 0.230274 0.700300
Si Si6 0.753857 0.015764 0.755011
Si Si7 0.756465 0.936375 0.598825
O O1 0.899824 0.377810 0.854453
O O2 0.893442 0.410064 0.680835
O O3 0.206406 0.345466 0.711216
O O4 0.247208 0.427436 0.775162
O O5 0.334934 0.176178 0.438574
O O6 0.722654 0.150656 0.530082
O O7 0.381271 0.084568 0.504649
O O8 0.074902 0.249133 0.467694
O O9 0.335043 0.259107 0.317295
O O10 0.606814 0.323192 0.656517
O O11 0.494724 0.409412 0.602658
O O12 0.909010 0.254881 0.667075
O O13 0.500000 0.000000 0.795552
O O14 0.757341 0.990758 0.645218
O O15 0.000000 0.000000 0.799329
#
# Coordination Sequence:
#
# PCOD9376621 Si02
#       7
#     8   8   8   8   8   8   8
#     4  10  22  44  72 101 142 195 244 302 378 455
#     4  11  26  43  69 111 146 192 251 316 373 446
#     4  10  23  42  65  98 143 192 243 301 358 434
#     4  11  24  42  71 101 147 192 247 309 379 445
#     4  10  23  41  67  97 134 195 243 292 360 433
#     4  10  20  44  72 102 138 191 238 292 371 448
#     4  10  24  43  70 104 144 189 240 308 375 444
#
# _framework density 25.703541999999999
#
# number of rings (size 3 to 8) (size 9 to 14) (size 15 to 20)
#    0.000    1.714    1.429    1.714   10.000    2.286 
#    0.000   11.429    0.000    0.000    0.000    0.000 
#    0.000    0.000    0.000    0.000    0.000    0.000 
#
# Total GULP energy -155916.231027 kJ/mol
# GULP energy per Si atom -5568.436822 kJ/mol
# Density = 2.564504 g / cm^3
# Si number density = 25.703542 Si / 1000 Ang^3
#
#
#
# Elastic Constant Matrix: (Units=GPa)
#
#
# Indices 1 2 3 4 5 6 
#
# 1 151.0816 5.8801 20.4256 0.0000 0.0000 0.0000
# 2 5.8801 76.1660 -3.8607 0.0000 0.0000 0.0000
# 3 20.4256 -3.8607 118.6766 0.0000 0.0000 0.0000
# 4 0.0000 0.0000 0.0000 20.2181 0.0000 0.0000
# 5 0.0000 0.0000 0.0000 0.0000 6.2706 0.0000
# 6 0.0000 0.0000 0.0000 0.0000 0.0000 56.6493
#
#
#
# Elastic Compliance Matrix: (Units=1/GPa)
#
#
# Indices 1 2 3 4 5 6 
#
# 1 0.006803 -0.000585 -0.001190 0.000000 0.000000 0.000000
# 2 -0.000585 0.013201 0.000530 0.000000 0.000000 0.000000
# 3 -0.001190 0.000530 0.008648 0.000000 0.000000 0.000000
# 4 0.000000 0.000000 0.000000 0.049461 0.000000 0.000000
# 5 0.000000 0.000000 0.000000 0.000000 0.159474 0.000000
# 6 0.000000 0.000000 0.000000 0.000000 0.000000 0.017652
#
#
# Mechanical properties :
#
#
# Convention : Reuss Voigt Hill
#
# Bulk Modulus (GPa) = 38.22343 43.42381 40.82362
# Shear Modulus (GPa) = 18.76526 38.19289 28.47907
#
# Velocity S-wave (km/s) = 2.70490 3.85892 3.33225
# Velocity P-wave (km/s) = 4.96573 6.06513 5.54276
#
# Compressibility (1/GPa) = 0.02616196
#
# Stress axis : x y z
#
# Youngs Moduli (GPa) = 147.00287 75.75018 115.62972
#
# Poissons Ratio (x) = 0.04435 0.13758
# Poissons Ratio (y) = 0.08607 -0.06131
# Poissons Ratio (z) = 0.17491 -0.04016
#
# Static dielectric constant tensor:
#      x y z
#    x 2.000370 0.000000 0.000000 
#    y 0.000000 2.447200 0.000000 
#    z 0.000000 0.000000 2.115450 
# 
# From -- ./inp_files/5268.got.cif
#   From: 2010.05.17/outbox.cif.g08.bks.cpg/sg45_3_cif.got.tgz:5268.got - 2010.06.03 19:51:22.
