data_PCOD9376816
_publ_section_title
;
Structure prediction by ZEFSAII (Michael W. Deem and Ramdas Pophale) SiO2 
 PCOD9376816
Probable space group: I B A 2
;
_chemical_formula_sum "Si O2"
_cell_formula_units_Z 48
_cell_length_a 14.702404
_cell_length_b 5.121627
_cell_length_c 30.805155
_cell_angle_alpha 90.000000
_cell_angle_beta 90.000000
_cell_angle_gamma 90.000000
_cell_volume 2319.635235
_symmetry_space_group_name_H-M "I B A 2"
_symmetry_group_IT_number 45
_symmetry_cell_setting 'orthorhombic'
loop_
_space_group_symop_operation_xyz
x,y,z
-x,-y,z
-x,y,1/2+z
x,-y,1/2+z
1/2+x,1/2+y,1/2+z
1/2-x,1/2-y,1/2+z
1/2-x,1/2+y,z
1/2+x,1/2-y,z
loop_
_atom_site_type_symbol
_atom_site_label
_atom_site_fract_x
_atom_site_fract_y
_atom_site_fract_z
Si Si1 0.690822 0.001877 0.776820
Si Si2 0.552207 0.252345 0.610417
Si Si3 0.812489 0.099274 0.936173
Si Si4 0.000000 0.500000 0.824958
Si Si5 0.190654 0.138254 0.538700
Si Si6 0.500000 0.500000 0.385234
Si Si7 0.803582 0.493523 0.672775
O O1 0.741042 0.268967 0.789580
O O2 0.681959 0.004665 0.724448
O O3 0.591533 0.966559 0.796936
O O4 0.500000 0.500000 0.630434
O O5 0.608099 0.384189 0.571424
O O6 0.613209 0.112407 0.646757
O O7 0.500000 0.000000 0.591445
O O8 0.758670 0.366526 0.926095
O O9 0.832147 0.106783 0.987976
O O10 0.908317 0.055465 0.912599
O O11 0.985183 0.750044 0.855088
O O12 0.234126 0.419722 0.547475
O O13 0.778088 0.196286 0.661744
#
# Coordination Sequence:
#
# PCOD9376816 Si02
#       7
#     8   8   8   4   8   4   8
#     4  10  23  43  66  94 127 170 211 260 318 381
#     4  12  24  36  58  98 126 162 210 264 316 368
#     4  10  23  43  66  94 127 170 211 260 318 381
#     4  12  26  42  66 100 128 166 210 266 328 386
#     4  10  21  41  63  85 123 169 210 253 312 373
#     4  12  26  42  66 100 128 166 210 266 328 386
#     4  10  21  41  63  85 123 169 210 253 312 373
#
# _framework density 20.692907999999999
#
# number of rings (size 3 to 8) (size 9 to 14) (size 15 to 20)
#    0.000    1.333    0.000    5.000    2.333    4.000 
#    3.000    0.000    0.000    0.000    0.000    0.000 
#    0.000    0.000    0.000    0.000    0.000    0.000 
#
# Total GULP energy -134177.413745 kJ/mol
# GULP energy per Si atom -5590.725573 kJ/mol
# Density = 2.064581 g / cm^3
# Si number density = 20.692908 Si / 1000 Ang^3
#
#
#
# Elastic Constant Matrix: (Units=GPa)
#
#
# Indices 1 2 3 4 5 6 
#
# 1 78.2664 -39.1266 32.5007 0.0000 0.0000 0.0000
# 2 -39.1266 0.1348 -0.2462 0.0000 0.0000 0.0000
# 3 32.5007 -0.2462 34.1914 0.0000 0.0000 0.0000
# 4 0.0000 0.0000 0.0000 28.0555 0.0000 0.0000
# 5 0.0000 0.0000 0.0000 0.0000 42.7757 0.0000
# 6 0.0000 0.0000 0.0000 0.0000 0.0000 23.9022
#
#
#
# Elastic Compliance Matrix: (Units=1/GPa)
#
#
# Indices 1 2 3 4 5 6 
#
# 1 -0.000088 -0.025819 -0.000102 0.000000 0.000000 0.000000
# 2 -0.025819 -0.031449 0.024316 0.000000 0.000000 0.000000
# 3 -0.000102 0.024316 0.029519 0.000000 0.000000 0.000000
# 4 0.000000 0.000000 0.000000 0.035644 0.000000 0.000000
# 5 0.000000 0.000000 0.000000 0.000000 0.023378 0.000000
# 6 0.000000 0.000000 0.000000 0.000000 0.000000 0.041837
#
#
# Mechanical properties :
#
#
# Convention : Reuss Voigt Hill
#
# Bulk Modulus (GPa) = -191.25226 10.98314 -90.13456
# Shear Modulus (GPa) = 49.84654 26.91100 38.37877
#
# Velocity S-wave (km/s) = 4.91335 3.61015 4.31127
# Velocity P-wave (km/s) = 7.77410 4.76411 4.34396
#
# Compressibility (1/GPa) = -0.00522870
#
# Stress axis : x y z
#
# Youngs Moduli (GPa) = -11326.24912 -31.79737 33.87627
#
# Poissons Ratio (x) = -0.82099 0.00346
# Poissons Ratio (y) = -292.43693 -0.82374
# Poissons Ratio (z) = -1.15541 0.77319
#
# Static dielectric constant tensor:
#      x y z
#    x 1.752570 0.000000 0.000000 
#    y 0.000000 1.840010 0.000000 
#    z 0.000000 0.000000 1.729180 
# 
# From -- ./inp_files/10068.got.cif
#   From: 2010.05.17/outbox.cif.g08.bks.cpg/sg45_6_cif.got.tgz:10068.got - 2010.06.03 19:51:22.
