data_PCOD9376685
_publ_section_title
;
Structure prediction by ZEFSAII (Michael W. Deem and Ramdas Pophale) SiO2 
 PCOD9376685
Probable space group: I B A 2
;
_chemical_formula_sum "Si O2"
_cell_formula_units_Z 48
_cell_length_a 31.437179
_cell_length_b 9.235341
_cell_length_c 8.655463
_cell_angle_alpha 90.000000
_cell_angle_beta 90.000000
_cell_angle_gamma 90.000000
_cell_volume 2512.967129
_symmetry_space_group_name_H-M "I B A 2"
_symmetry_group_IT_number 45
_symmetry_cell_setting 'orthorhombic'
loop_
_space_group_symop_operation_xyz
x,y,z
-x,-y,z
-x,y,1/2+z
x,-y,1/2+z
1/2+x,1/2+y,1/2+z
1/2-x,1/2-y,1/2+z
1/2-x,1/2+y,z
1/2+x,1/2-y,z
loop_
_atom_site_type_symbol
_atom_site_label
_atom_site_fract_x
_atom_site_fract_y
_atom_site_fract_z
Si Si1 0.629672 0.338021 0.051950
Si Si2 0.545533 0.838828 0.922636
Si Si3 0.709715 0.162466 0.922890
Si Si4 0.870330 0.838024 0.423656
Si Si5 0.790287 0.337531 0.052715
Si Si6 0.454466 0.838833 0.052963
O O1 0.633855 0.338967 0.237803
O O2 0.584389 0.265679 0.011492
O O3 0.667245 0.242350 0.980383
O O4 0.632293 0.499998 0.987802
O O5 0.584386 0.734311 0.964109
O O6 0.542818 0.847966 0.737799
O O7 0.499999 0.789467 0.987797
O O8 0.553466 0.999997 0.987801
O O9 0.711103 0.159905 0.737802
O O10 0.750002 0.249994 0.987801
O O11 0.710582 0.999997 0.987801
O O12 0.832759 0.742348 0.495228
#
# Coordination Sequence:
#
# PCOD9376685 Si02
#       6
#     8   8   8   8   8   8
#     4  11  24  41  61  89 122 160 202 248 300 356
#     4  10  21  37  60  87 118 155 199 247 299 356
#     4  12  25  43  66  92 123 159 199 246 297 355
#     4  11  24  41  61  89 122 160 202 248 300 356
#     4  12  25  43  66  92 123 159 199 246 297 355
#     4  10  21  37  60  87 118 155 199 247 299 356
#
# _framework density 19.100926999999999
#
# number of rings (size 3 to 8) (size 9 to 14) (size 15 to 20)
#    0.000    1.000    0.000    8.000    0.000    8.667 
#    0.000    3.333    0.000    0.000    0.000    0.000 
#    0.000    0.000    0.000    0.000    0.000    0.000 
#
# Total GULP energy -134322.203368 kJ/mol
# GULP energy per Si atom -5596.758474 kJ/mol
# Density = 1.905745 g / cm^3
# Si number density = 19.100927 Si / 1000 Ang^3
#
#
#
# Elastic Constant Matrix: (Units=GPa)
#
#
# Indices 1 2 3 4 5 6 
#
# 1 188.3789 132.3610 90.2825 0.0000 0.0000 0.0000
# 2 132.3610 186.6697 81.2144 0.0000 0.0000 0.0000
# 3 90.2825 81.2144 132.7931 0.0000 0.0000 0.0000
# 4 0.0000 0.0000 0.0000 36.2700 0.0000 0.0000
# 5 0.0000 0.0000 0.0000 0.0000 28.5160 0.0000
# 6 0.0000 0.0000 0.0000 0.0000 0.0000 39.9770
#
#
#
# Elastic Compliance Matrix: (Units=1/GPa)
#
#
# Indices 1 2 3 4 5 6 
#
# 1 0.011968 -0.006739 -0.004015 0.000000 0.000000 0.000000
# 2 -0.006739 0.011094 -0.002203 0.000000 0.000000 0.000000
# 3 -0.004015 -0.002203 0.011608 0.000000 0.000000 0.000000
# 4 0.000000 0.000000 0.000000 0.027571 0.000000 0.000000
# 5 0.000000 0.000000 0.000000 0.000000 0.035068 0.000000
# 6 0.000000 0.000000 0.000000 0.000000 0.000000 0.025014
#
#
# Mechanical properties :
#
#
# Convention : Reuss Voigt Hill
#
# Bulk Modulus (GPa) = 114.22317 123.95084 119.08701
# Shear Modulus (GPa) = 33.07837 34.55153 33.81495
#
# Velocity S-wave (km/s) = 4.16597 4.25772 4.21209
# Velocity P-wave (km/s) = 9.11427 9.44481 9.28101
#
# Compressibility (1/GPa) = 0.00875479
#
# Stress axis : x y z
#
# Youngs Moduli (GPa) = 83.55717 90.13786 86.14972
#
# Poissons Ratio (x) = 0.60745 0.34590
# Poissons Ratio (y) = 0.56311 0.18981
# Poissons Ratio (z) = 0.33549 0.19859
#
# Static dielectric constant tensor:
#      x y z
#    x 1.646990 0.000000 0.000000 
#    y 0.000000 1.621210 0.000000 
#    z 0.000000 0.000000 1.640450 
# 
# From -- ./inp_files/1077.got.cif
#   From: 2010.05.17/outbox.cif.g08.bks.cpg/sg45_1_cif.got.tgz:1077.got - 2010.06.03 19:51:22.
