data_PCOD9376518
_publ_section_title
;
Structure prediction by ZEFSAII (Michael W. Deem and Ramdas Pophale) SiO2 
 PCOD9376518
Probable space group: I B A 2
;
_chemical_formula_sum "Si O2"
_cell_formula_units_Z 60
_cell_length_a 8.600997
_cell_length_b 26.006255
_cell_length_c 11.835602
_cell_angle_alpha 90.000000
_cell_angle_beta 90.000000
_cell_angle_gamma 90.000000
_cell_volume 2647.384156
_symmetry_space_group_name_H-M "I B A 2"
_symmetry_group_IT_number 45
_symmetry_cell_setting 'orthorhombic'
loop_
_space_group_symop_operation_xyz
x,y,z
-x,-y,z
-x,y,1/2+z
x,-y,1/2+z
1/2+x,1/2+y,1/2+z
1/2-x,1/2-y,1/2+z
1/2-x,1/2+y,z
1/2+x,1/2-y,z
loop_
_atom_site_type_symbol
_atom_site_label
_atom_site_fract_x
_atom_site_fract_y
_atom_site_fract_z
Si Si1 0.500000 0.500000 0.561690
Si Si2 0.194143 0.773099 0.235056
Si Si3 0.713147 0.013056 0.720139
Si Si4 0.570395 0.277237 0.085666
Si Si5 0.556696 0.919110 0.654987
Si Si6 0.886452 0.658162 0.818558
Si Si7 0.642074 0.802845 0.960298
Si Si8 0.778368 0.923393 0.438628
O O1 0.632109 0.517943 0.648216
O O2 0.569377 0.452745 0.486832
O O3 0.330229 0.768360 0.143199
O O4 0.148030 0.715305 0.274351
O O5 0.265623 0.797163 0.344455
O O6 0.044483 0.799557 0.179936
O O7 0.590530 0.043414 0.641590
O O8 0.713296 0.038379 0.842781
O O9 0.666085 0.953687 0.736262
O O10 0.451854 0.249118 0.998615
O O11 0.712342 0.312656 0.043556
O O12 0.479356 0.871092 0.718780
O O13 0.664631 0.915293 0.545349
O O14 0.731994 0.629926 0.866707
O O15 0.004167 0.659750 0.925634
#
# Coordination Sequence:
#
# PCOD9376518 Si02
#       8
#     4   8   8   8   8   8   8   8
#     4  10  20  38  68  90 126 166 198 252 326 388
#     4  11  21  40  62  89 127 169 219 278 317 391
#     4   9  19  39  63  91 120 159 208 244 314 396
#     4  10  22  36  67  87 115 183 220 260 336 387
#     4   9  21  37  63  91 119 162 207 258 308 382
#     4  11  23  37  63  95 129 159 224 275 319 383
#     4  11  21  40  64  90 125 173 225 266 326 394
#     4  10  22  40  68  90 126 166 205 260 323 386
#
# _framework density 22.663881
#
# number of rings (size 3 to 8) (size 9 to 14) (size 15 to 20)
#    0.000    1.867    2.667    0.400    3.733    8.533 
#    0.000    2.667   26.400    0.000    0.000    0.000 
#    0.000    0.000    0.000    0.000    0.000    0.000 
#
# Total GULP energy -167018.463535 kJ/mol
# GULP energy per Si atom -5567.282118 kJ/mol
# Density = 2.261230 g / cm^3
# Si number density = 22.663881 Si / 1000 Ang^3
#
#
#
# Elastic Constant Matrix: (Units=GPa)
#
#
# Indices 1 2 3 4 5 6 
#
# 1 111.2987 7.4988 24.5330 -0.0005 0.0000 0.0001
# 2 7.4988 42.4058 -2.3578 -0.0007 0.0001 0.0001
# 3 24.5330 -2.3578 57.8595 -0.0017 0.0010 -0.0005
# 4 -0.0005 -0.0007 -0.0017 10.6861 0.0001 0.0004
# 5 0.0000 0.0001 0.0010 0.0001 72.3822 -0.0004
# 6 0.0001 0.0001 -0.0005 0.0004 -0.0004 28.2879
#
#
#
# Elastic Compliance Matrix: (Units=1/GPa)
#
#
# Indices 1 2 3 4 5 6 
#
# 1 0.010082 -0.002025 -0.004357 0.000000 0.000000 0.000000
# 2 -0.002025 0.024042 0.001838 0.000002 0.000000 0.000000
# 3 -0.004357 0.001838 0.019206 0.000003 0.000000 0.000000
# 4 0.000000 0.000002 0.000003 0.093580 0.000000 -0.000001
# 5 0.000000 0.000000 0.000000 0.000000 0.013816 0.000000
# 6 0.000000 0.000000 0.000000 -0.000001 0.000000 0.035351
#
#
# Mechanical properties :
#
#
# Convention : Reuss Voigt Hill
#
# Bulk Modulus (GPa) = 22.60326 30.10135 26.35230
# Shear Modulus (GPa) = 22.73652 34.39723 28.56687
#
# Velocity S-wave (km/s) = 3.17078 3.90001 3.55414
# Velocity P-wave (km/s) = 4.83736 5.79574 5.33810
#
# Compressibility (1/GPa) = 0.04424142
#
# Stress axis : x y z
#
# Youngs Moduli (GPa) = 99.18946 41.59394 52.06793
#
# Poissons Ratio (x) = 0.08423 0.22687
# Poissons Ratio (y) = 0.20086 -0.09572
# Poissons Ratio (z) = 0.43220 -0.07646
#
# Static dielectric constant tensor:
#      x y z
#    x 1.858310 0.000000 0.000000 
#    y 0.000000 1.950470 0.000000 
#    z 0.000000 0.000000 1.895600 
# 
# From -- ./inp_files/3381.got.cif
#   From: 2010.05.17/outbox.cif.g08.bks.cpg/sg45_2_cif.got.tgz:3381.got - 2010.06.03 19:51:22.
