data_PCOD9376673
_publ_section_title
;
Structure prediction by ZEFSAII (Michael W. Deem and Ramdas Pophale) SiO2 
 PCOD9376673
Probable space group: I B A 2
;
_chemical_formula_sum "Si O2"
_cell_formula_units_Z 64
_cell_length_a 28.276478
_cell_length_b 19.395318
_cell_length_c 5.295506
_cell_angle_alpha 90.000000
_cell_angle_beta 90.000000
_cell_angle_gamma 90.000000
_cell_volume 2904.221148
_symmetry_space_group_name_H-M "I B A 2"
_symmetry_group_IT_number 45
_symmetry_cell_setting 'orthorhombic'
loop_
_space_group_symop_operation_xyz
x,y,z
-x,-y,z
-x,y,1/2+z
x,-y,1/2+z
1/2+x,1/2+y,1/2+z
1/2-x,1/2-y,1/2+z
1/2-x,1/2+y,z
1/2+x,1/2-y,z
loop_
_atom_site_type_symbol
_atom_site_label
_atom_site_fract_x
_atom_site_fract_y
_atom_site_fract_z
Si Si1 0.570527 0.032588 0.421040
Si Si2 0.714315 0.325053 0.620124
Si Si3 0.426110 0.469450 0.729051
Si Si4 0.530723 0.823518 0.779162
Si Si5 0.031628 0.828190 0.855829
Si Si6 0.819723 0.027955 0.178645
Si Si7 0.818127 0.530762 0.476586
Si Si8 0.221023 0.673154 0.120113
O O1 0.562599 0.110581 0.333721
O O2 0.626105 0.018223 0.445244
O O3 0.550912 0.016606 0.699452
O O4 0.679811 0.390697 0.627035
O O5 0.748200 0.332041 0.375780
O O6 0.694608 0.247048 0.614296
O O7 0.744420 0.327685 0.877898
O O8 0.447169 0.484201 0.453817
O O9 0.432829 0.390914 0.809117
O O10 0.371638 0.493532 0.704536
O O11 0.510009 0.826418 0.495865
O O12 0.553298 0.748047 0.821160
O O13 0.992214 0.833409 0.632170
O O14 0.796185 0.011365 0.445771
O O15 0.799099 0.479404 0.692987
O O16 0.811125 0.606739 0.586809
#
# Coordination Sequence:
#
# PCOD9376673 Si02
#       8
#     8   8   8   8   8   8   8   8
#     4  10  21  37  57  83 118 148 187 239 285 340
#     4  10  21  37  58  83 118 145 189 237 284 339
#     4  10  21  37  56  81 114 147 191 237 282 338
#     4  10  21  37  58  85 116 149 195 235 286 346
#     4  10  21  37  58  83 114 151 194 241 283 338
#     4  10  21  37  56  81 118 149 184 239 283 342
#     4  10  21  37  57  83 114 146 193 232 278 345
#     4  10  21  37  58  85 112 151 189 232 284 344
#
# _framework density 22.036888999999999
#
# number of rings (size 3 to 8) (size 9 to 14) (size 15 to 20)
#    0.000    2.000    0.000    3.000    0.000    6.000 
#    4.500    0.000   11.000    0.000    0.000    0.000 
#    0.000    0.000    0.000    0.000    0.000    0.000 
#
# Total GULP energy -178655.638687 kJ/mol
# GULP energy per Si atom -5582.988709 kJ/mol
# Density = 2.198673 g / cm^3
# Si number density = 22.036889 Si / 1000 Ang^3
#
#
#
# Elastic Constant Matrix: (Units=GPa)
#
#
# Indices 1 2 3 4 5 6 
#
# 1 41.1381 7.6716 11.4999 0.0000 0.0000 0.0000
# 2 7.6716 161.0419 33.1483 0.0000 0.0000 0.0000
# 3 11.4999 33.1483 140.0702 0.0000 0.0000 0.0000
# 4 0.0000 0.0000 0.0000 35.3611 0.0000 0.0000
# 5 0.0000 0.0000 0.0000 0.0000 2.6914 0.0000
# 6 0.0000 0.0000 0.0000 0.0000 0.0000 18.9911
#
#
#
# Elastic Compliance Matrix: (Units=1/GPa)
#
#
# Indices 1 2 3 4 5 6 
#
# 1 0.024979 -0.000807 -0.001860 0.000000 0.000000 0.000000
# 2 -0.000807 0.006554 -0.001485 0.000000 0.000000 0.000000
# 3 -0.001860 -0.001485 0.007643 0.000000 0.000000 0.000000
# 4 0.000000 0.000000 0.000000 0.028280 0.000000 0.000000
# 5 0.000000 0.000000 0.000000 0.000000 0.371553 0.000000
# 6 0.000000 0.000000 0.000000 0.000000 0.000000 0.052656
#
#
# Mechanical properties :
#
#
# Convention : Reuss Voigt Hill
#
# Bulk Modulus (GPa) = 32.39118 49.65442 41.02280
# Shear Modulus (GPa) = 9.79895 30.73741 20.26818
#
# Velocity S-wave (km/s) = 2.11099 3.73878 3.03601
# Velocity P-wave (km/s) = 4.54667 6.42022 5.56289
#
# Compressibility (1/GPa) = 0.03087260
#
# Stress axis : x y z
#
# Youngs Moduli (GPa) = 40.03395 152.58753 130.83315
#
# Poissons Ratio (x) = 0.12315 0.24332
# Poissons Ratio (y) = 0.03231 0.19425
# Poissons Ratio (z) = 0.07445 0.22654
#
# Static dielectric constant tensor:
#      x y z
#    x 3.283670 0.000000 0.000000 
#    y 0.000000 1.815890 0.000000 
#    z 0.000000 0.000000 1.885750 
# 
# From -- ./inp_files/702.got.cif
#   From: 2010.05.17/outbox.cif.g08.bks.cpg/sg45_1_cif.got.tgz:702.got - 2010.06.03 19:51:22.
