data_PCOD9376027
_publ_section_title
;
Structure prediction by ZEFSAII (Michael W. Deem and Ramdas Pophale) SiO2 
 PCOD9376027
Probable space group: I M M 2
;
_chemical_formula_sum "Si O2"
_cell_formula_units_Z 24
_cell_length_a 18.000000
_cell_length_b 9.000000
_cell_length_c 15.000000
_cell_angle_alpha 90.000000
_cell_angle_beta 90.000000
_cell_angle_gamma 90.000000
_cell_volume 2430.000000
_symmetry_space_group_name_H-M "I M M 2"
_symmetry_group_IT_number 44
_symmetry_cell_setting 'orthorhombic'
loop_
_space_group_symop_operation_xyz
x,y,z
-x,-y,z
-x,y,z
x,-y,z
1/2+x,1/2+y,1/2+z
1/2-x,1/2-y,1/2+z
1/2-x,1/2+y,1/2+z
1/2+x,1/2-y,1/2+z
loop_
_atom_site_type_symbol
_atom_site_label
_atom_site_fract_x
_atom_site_fract_y
_atom_site_fract_z
Si Si1 0.412285 0.672973 0.569610
Si Si2 0.182903 0.328321 0.215836
Si Si3 0.500000 0.826848 0.968713
Si Si4 0.343839 0.328851 0.249489
Si Si5 0.184909 0.674387 0.929436
Si Si6 0.500000 0.671249 0.150296
Si Si7 0.150559 0.823799 0.401159
O O1 0.500000 0.697325 0.564799
O O2 0.399352 0.500000 0.590735
O O3 0.373143 0.777343 0.641001
O O4 0.371713 0.719679 0.479728
O O5 0.170818 0.500000 0.240111
O O6 0.269859 0.314440 0.188672
O O7 0.166329 0.226981 0.300655
O O8 0.424195 0.754525 0.932611
O O9 0.500000 0.000000 0.948543
O O10 0.500000 0.790569 0.072895
O O11 0.340665 0.500000 0.284695
O O12 0.330875 0.209535 0.326402
O O13 0.423706 0.311977 0.204806
O O14 0.173660 0.500000 0.949409
O O15 0.271211 0.712465 0.949896
O O16 0.500000 0.500000 0.114700
O O17 0.140521 0.000000 0.407176
#
# Coordination Sequence:
#
# PCOD9376027 Si02
#       7
#     8   8   4   8   8   4   8
#     4  11  25  41  60  87 122 163 203 245 301 361
#     4  10  21  39  63  91 121 156 201 250 299 356
#     4  12  26  40  60  93 124 157 202 254 298 347
#     4   9  20  39  63  89 121 160 198 239 297 362
#     4  10  22  40  64  91 120 156 200 250 302 353
#     4  10  22  40  62  89 124 163 198 240 294 361
#     4  10  22  42  65  88 120 162 200 243 305 367
#
# _framework density 9.8765429999999999
#
# number of rings (size 3 to 8) (size 9 to 14) (size 15 to 20)
#    0.000    1.833    0.000    2.750    4.667    4.667 
#    0.000    0.000    0.000    0.000    0.000    0.000 
#    0.000    0.000    0.000    0.000    0.000    0.000 
#
# Total GULP energy -133874.540090 kJ/mol
# GULP energy per Si atom -5578.105837 kJ/mol
# Density = 0.985406 g / cm^3
# Si number density = 9.876543 Si / 1000 Ang^3
#
#
#
# Elastic Constant Matrix: (Units=GPa)
#
#
# Indices 1 2 3 4 5 6 
#
# 1 141.9639 63.1609 23.1320 0.0000 0.0000 0.0000
# 2 63.1609 47.2463 7.0271 0.0000 0.0000 0.0000
# 3 23.1320 7.0271 30.1212 0.0000 0.0000 0.0000
# 4 0.0000 0.0000 0.0000 18.5167 0.0000 0.0000
# 5 0.0000 0.0000 0.0000 0.0000 28.3780 0.0000
# 6 0.0000 0.0000 0.0000 0.0000 0.0000 30.3794
#
#
#
# Elastic Compliance Matrix: (Units=1/GPa)
#
#
# Indices 1 2 3 4 5 6 
#
# 1 0.019594 -0.024817 -0.009258 0.000000 0.000000 0.000000
# 2 -0.024817 0.053359 0.006610 0.000000 0.000000 0.000000
# 3 -0.009258 0.006610 0.038767 0.000000 0.000000 0.000000
# 4 0.000000 0.000000 0.000000 0.054005 0.000000 0.000000
# 5 0.000000 0.000000 0.000000 0.000000 0.035239 0.000000
# 6 0.000000 0.000000 0.000000 0.000000 0.000000 0.032917
#
#
# Mechanical properties :
#
#
# Convention : Reuss Voigt Hill
#
# Bulk Modulus (GPa) = 17.60859 45.10794 31.35826
# Shear Modulus (GPa) = 16.24752 23.85555 20.05154
#
# Velocity S-wave (km/s) = 2.87109 3.47895 3.18953
# Velocity P-wave (km/s) = 4.46370 6.24683 5.42897
#
# Compressibility (1/GPa) = 0.05679045
#
# Stress axis : x y z
#
# Youngs Moduli (GPa) = 51.03668 18.74103 25.79537
#
# Poissons Ratio (x) = 0.46509 0.23880
# Poissons Ratio (y) = 1.26657 -0.17051
# Poissons Ratio (z) = 0.47248 -0.12388
#
# Static dielectric constant tensor:
#      x y z
#    x 1.678720 0.000000 0.000000 
#    y 0.000000 1.669130 0.000000 
#    z 0.000000 0.000000 1.745400 
# 
# From -- ./inp_files/18833.got.cif
#   From: 2010.05.17/outbox.ucp.g08.bks.cvg/sg44_10_cif.got.tgz:18833.got - 2010.06.11 16:32:36.
