data_PCOD9376777
_publ_section_title
;
Structure prediction by ZEFSAII (Michael W. Deem and Ramdas Pophale) SiO2 
 PCOD9376777
Probable space group: I B A 2
;
_chemical_formula_sum "Si O2"
_cell_formula_units_Z 60
_cell_length_a 15.069539
_cell_length_b 8.251236
_cell_length_c 24.142047
_cell_angle_alpha 90.000000
_cell_angle_beta 90.000000
_cell_angle_gamma 90.000000
_cell_volume 3001.878199
_symmetry_space_group_name_H-M "I B A 2"
_symmetry_group_IT_number 45
_symmetry_cell_setting 'orthorhombic'
loop_
_space_group_symop_operation_xyz
x,y,z
-x,-y,z
-x,y,1/2+z
x,-y,1/2+z
1/2+x,1/2+y,1/2+z
1/2-x,1/2-y,1/2+z
1/2-x,1/2+y,z
1/2+x,1/2-y,z
loop_
_atom_site_type_symbol
_atom_site_label
_atom_site_fract_x
_atom_site_fract_y
_atom_site_fract_z
Si Si1 0.320051 0.395265 0.834570
Si Si2 0.916341 0.093218 0.426254
Si Si3 0.000000 0.500000 0.097160
Si Si4 0.358380 0.796232 0.027780
Si Si5 0.343808 0.266515 0.276965
Si Si6 0.010666 0.315913 0.335265
Si Si7 0.712311 0.483566 0.583993
Si Si8 0.349056 0.813943 0.651616
O O1 0.345783 0.474663 0.894830
O O2 0.338028 0.544043 0.792536
O O3 0.222720 0.326324 0.819711
O O4 0.390125 0.248510 0.825763
O O5 0.874839 0.224645 0.467168
O O6 0.966743 0.191901 0.378385
O O7 0.000000 0.000000 0.454656
O O8 0.063473 0.398590 0.055953
O O9 0.055416 0.613866 0.138159
O O10 0.343293 0.635169 0.063933
O O11 0.270216 0.905795 0.034222
O O12 0.444401 0.203676 0.283848
O O13 0.321921 0.231212 0.213568
O O14 0.000000 0.500000 0.354890
O O15 0.658809 0.341792 0.612410
O O16 0.781430 0.551699 0.628695
#
# Coordination Sequence:
#
# PCOD9376777 Si02
#       8
#     8   8   4   8   8   8   8   8
#     4  10  22  41  58  95 122 158 210 256 305 394
#     4   9  21  38  61  90 124 160 209 256 319 374
#     4  10  24  38  58  92 130 156 226 252 312 384
#     4  10  21  40  62  87 123 169 202 269 315 374
#     4  11  21  38  65  84 126 164 203 254 320 367
#     4  10  22  40  59  90 124 154 204 257 299 382
#     4   9  21  40  59  86 128 155 214 257 306 379
#     4  10  21  40  58  92 119 165 203 258 308 379
#
# _framework density 19.987487000000002
#
# number of rings (size 3 to 8) (size 9 to 14) (size 15 to 20)
#    0.000    2.133    0.000    2.800    3.733    2.133 
#    9.600    0.000    0.000    0.000    0.000    0.000 
#    0.000    0.000    0.000    0.000    0.000    0.000 
#
# Total GULP energy -167263.523427 kJ/mol
# GULP energy per Si atom -5575.450781 kJ/mol
# Density = 1.994199 g / cm^3
# Si number density = 19.987487 Si / 1000 Ang^3
#
#
#
# Elastic Constant Matrix: (Units=GPa)
#
#
# Indices 1 2 3 4 5 6 
#
# 1 56.4620 37.1358 26.9525 0.0000 0.0000 0.0000
# 2 37.1358 101.9291 6.5286 0.0000 0.0000 0.0000
# 3 26.9525 6.5286 66.4416 0.0000 0.0000 0.0000
# 4 0.0000 0.0000 0.0000 54.0934 0.0000 0.0000
# 5 0.0000 0.0000 0.0000 0.0000 10.1658 0.0000
# 6 0.0000 0.0000 0.0000 0.0000 0.0000 -113.4250
#
#
#
# Elastic Compliance Matrix: (Units=1/GPa)
#
#
# Indices 1 2 3 4 5 6 
#
# 1 0.029598 -0.010078 -0.011016 0.000000 0.000000 0.000000
# 2 -0.010078 0.013304 0.002781 0.000000 0.000000 0.000000
# 3 -0.011016 0.002781 0.019246 0.000000 0.000000 0.000000
# 4 0.000000 0.000000 0.000000 0.018487 0.000000 0.000000
# 5 0.000000 0.000000 0.000000 0.000000 0.098369 0.000000
# 6 0.000000 0.000000 0.000000 0.000000 0.000000 -0.008816
#
#
# Mechanical properties :
#
#
# Convention : Reuss Voigt Hill
#
# Bulk Modulus (GPa) = 39.18186 40.67406 39.92796
# Shear Modulus (GPa) = 23.22101 0.44789 11.83445
#
# Velocity S-wave (km/s) = 3.41218 0.47389 2.43594
# Velocity P-wave (km/s) = 5.93041 4.54900 5.28503
#
# Compressibility (1/GPa) = 0.02552201
#
# Stress axis : x y z
#
# Youngs Moduli (GPa) = 33.78587 75.16363 51.95756
#
# Poissons Ratio (x) = 0.75749 0.57239
# Poissons Ratio (y) = 0.34049 -0.14449
# Poissons Ratio (z) = 0.37220 -0.20902
#
# Static dielectric constant tensor:
#      x y z
#    x 1.749670 0.000000 0.000000 
#    y 0.000000 1.691850 0.000000 
#    z 0.000000 0.000000 1.702290 
# 
# From -- ./inp_files/9763.got.cif
#   From: 2010.05.17/outbox.cif.g08.bks.cpg/sg45_5_cif.got.tgz:9763.got - 2010.06.03 19:51:22.
