data_PCOD9376805
_publ_section_title
;
Structure prediction by ZEFSAII (Michael W. Deem and Ramdas Pophale) SiO2 
 PCOD9376805
Probable space group: I B A 2
;
_chemical_formula_sum "Si O2"
_cell_formula_units_Z 48
_cell_length_a 12.402406
_cell_length_b 8.817478
_cell_length_c 19.016911
_cell_angle_alpha 90.000000
_cell_angle_beta 90.000000
_cell_angle_gamma 90.000000
_cell_volume 2079.650251
_symmetry_space_group_name_H-M "I B A 2"
_symmetry_group_IT_number 45
_symmetry_cell_setting 'orthorhombic'
loop_
_space_group_symop_operation_xyz
x,y,z
-x,-y,z
-x,y,1/2+z
x,-y,1/2+z
1/2+x,1/2+y,1/2+z
1/2-x,1/2-y,1/2+z
1/2-x,1/2+y,z
1/2+x,1/2-y,z
loop_
_atom_site_type_symbol
_atom_site_label
_atom_site_fract_x
_atom_site_fract_y
_atom_site_fract_z
Si Si1 0.938357 0.841940 0.372970
Si Si2 0.743562 0.479699 0.646444
Si Si3 0.411107 0.209156 0.480484
Si Si4 0.389950 0.720916 0.218386
Si Si5 0.447015 0.834950 0.615982
Si Si6 0.787516 0.022801 0.992783
O O1 0.893624 0.771306 0.302000
O O2 0.850634 0.886018 0.432302
O O3 0.023322 0.730294 0.409521
O O4 0.000000 0.000000 0.356402
O O5 0.659047 0.559736 0.696686
O O6 0.813217 0.351611 0.685185
O O7 0.823230 0.616402 0.621396
O O8 0.689139 0.426959 0.573294
O O9 0.494883 0.221405 0.544938
O O10 0.339262 0.058152 0.483654
O O11 0.328578 0.350632 0.486841
O O12 0.506277 0.739965 0.181338
O O13 0.500000 0.000000 0.625236
#
# Coordination Sequence:
#
# PCOD9376805 Si02
#       6
#     8   8   8   8   8   8
#     4  10  27  46  66 106 150 191 238 295 371 424
#     4  11  23  43  73 104 135 185 244 293 353 425
#     4  11  23  43  73 104 142 184 235 298 351 430
#     4  11  24  46  68 103 143 182 234 298 361 424
#     4  10  21  40  69 103 135 175 238 288 349 422
#     4  11  22  45  72 104 141 185 242 292 355 427
#
# _framework density 23.080804000000001
#
# number of rings (size 3 to 8) (size 9 to 14) (size 15 to 20)
#    0.000    1.333    5.000    0.000    4.667    5.333 
#    0.000    5.833    0.000    0.000    0.000    0.000 
#    0.000    0.000    0.000    0.000    0.000    0.000 
#
# Total GULP energy -134205.042634 kJ/mol
# GULP energy per Si atom -5591.876776 kJ/mol
# Density = 2.302827 g / cm^3
# Si number density = 23.080804 Si / 1000 Ang^3
#
#
#
# Elastic Constant Matrix: (Units=GPa)
#
#
# Indices 1 2 3 4 5 6 
#
# 1 87.7474 44.5327 56.6719 0.0000 0.0000 0.0000
# 2 44.5327 85.3766 51.4757 0.0000 0.0000 0.0000
# 3 56.6719 51.4757 182.0370 0.0000 0.0000 0.0000
# 4 0.0000 0.0000 0.0000 29.7492 0.0000 0.0000
# 5 0.0000 0.0000 0.0000 0.0000 36.5609 0.0000
# 6 0.0000 0.0000 0.0000 0.0000 0.0000 44.2145
#
#
#
# Elastic Compliance Matrix: (Units=1/GPa)
#
#
# Indices 1 2 3 4 5 6 
#
# 1 0.017056 -0.006866 -0.003369 0.000000 0.000000 0.000000
# 2 -0.006866 0.016884 -0.002637 0.000000 0.000000 0.000000
# 3 -0.003369 -0.002637 0.007288 0.000000 0.000000 0.000000
# 4 0.000000 0.000000 0.000000 0.033614 0.000000 0.000000
# 5 0.000000 0.000000 0.000000 0.000000 0.027352 0.000000
# 6 0.000000 0.000000 0.000000 0.000000 0.000000 0.022617
#
#
# Mechanical properties :
#
#
# Convention : Reuss Voigt Hill
#
# Bulk Modulus (GPa) = 64.57590 73.39130 68.98360
# Shear Modulus (GPa) = 32.10994 35.60363 33.85678
#
# Velocity S-wave (km/s) = 3.73392 3.93181 3.83414
# Velocity P-wave (km/s) = 6.82851 7.24422 7.03943
#
# Compressibility (1/GPa) = 0.01548565
#
# Stress axis : x y z
#
# Youngs Moduli (GPa) = 58.62929 59.22823 137.21664
#
# Poissons Ratio (x) = 0.40664 0.46222
# Poissons Ratio (y) = 0.40253 0.36183
# Poissons Ratio (z) = 0.19750 0.15618
#
# Static dielectric constant tensor:
#      x y z
#    x 1.930560 0.000000 0.000000 
#    y 0.000000 1.927690 0.000000 
#    z 0.000000 0.000000 1.825600 
# 
# From -- ./inp_files/8142.got.cif
#   From: 2010.05.17/outbox.cif.g08.bks.cpg/sg45_5_cif.got.tgz:8142.got - 2010.06.03 19:51:22.
