data_PCOD9376290
_publ_section_title
;
Structure prediction by ZEFSAII (Michael W. Deem and Ramdas Pophale) SiO2 
 PCOD9376290
Probable space group: I B A 2
;
_chemical_formula_sum "Si O2"
_cell_formula_units_Z 64
_cell_length_a 14.898016
_cell_length_b 11.728903
_cell_length_c 17.036532
_cell_angle_alpha 90.000000
_cell_angle_beta 90.000000
_cell_angle_gamma 90.000000
_cell_volume 2976.919044
_symmetry_space_group_name_H-M "I B A 2"
_symmetry_group_IT_number 45
_symmetry_cell_setting 'orthorhombic'
loop_
_space_group_symop_operation_xyz
x,y,z
-x,-y,z
-x,y,1/2+z
x,-y,1/2+z
1/2+x,1/2+y,1/2+z
1/2-x,1/2-y,1/2+z
1/2-x,1/2+y,z
1/2+x,1/2-y,z
loop_
_atom_site_type_symbol
_atom_site_label
_atom_site_fract_x
_atom_site_fract_y
_atom_site_fract_z
Si Si1 0.283623 0.443435 0.773170
Si Si2 0.593821 0.063987 0.443643
Si Si3 0.387282 0.368782 0.192311
Si Si4 0.773387 0.082941 0.951331
Si Si5 0.097152 0.443120 0.263923
Si Si6 0.185956 0.290835 0.564459
Si Si7 0.639090 0.565292 0.564717
Si Si8 0.580241 0.285137 0.180858
O O1 0.331427 0.567525 0.759990
O O2 0.289713 0.395170 0.860550
O O3 0.179617 0.469518 0.754169
O O4 0.340005 0.355935 0.721199
O O5 0.603754 0.106712 0.353174
O O6 0.606260 0.156601 0.512030
O O7 0.500000 0.000000 0.449926
O O8 0.676358 0.976675 0.454263
O O9 0.340998 0.264535 0.146844
O O10 0.391143 0.465969 0.124320
O O11 0.485693 0.327050 0.216081
O O12 0.774475 0.190863 0.008880
O O13 0.850962 0.995566 0.981408
O O14 0.099537 0.345100 0.198781
O O15 0.000000 0.500000 0.258573
O O16 0.259543 0.388762 0.576511
O O17 0.580404 0.674197 0.589840
#
# Coordination Sequence:
#
# PCOD9376290 Si02
#       8
#     8   8   8   8   8   8   8   8
#     4  10  20  39  61  85 118 156 194 243 295 348
#     4   9  19  37  57  86 119 145 187 245 290 343
#     4  10  22  38  57  86 119 155 200 244 288 350
#     4   9  19  35  59  85 113 150 194 236 290 352
#     4  10  22  38  60  89 119 153 198 243 291 354
#     4  10  19  36  60  84 115 157 195 234 295 353
#     4   9  19  36  56  81 113 148 190 240 284 341
#     4  11  22  39  59  84 119 158 195 241 296 349
#
# _framework density 21.498736999999998
#
# number of rings (size 3 to 8) (size 9 to 14) (size 15 to 20)
#    0.000    2.250    0.000    3.000    0.000    4.000 
#    0.000   16.875    0.000    0.000    0.000    0.000 
#    0.000    0.000    0.000    0.000    0.000    0.000 
#
# Total GULP energy -178437.814569 kJ/mol
# GULP energy per Si atom -5576.181705 kJ/mol
# Density = 2.144980 g / cm^3
# Si number density = 21.498737 Si / 1000 Ang^3
#
#
#
# Elastic Constant Matrix: (Units=GPa)
#
#
# Indices 1 2 3 4 5 6 
#
# 1 88.7117 16.5489 24.0943 0.0000 0.0000 0.0000
# 2 16.5489 55.1572 18.1874 0.0000 0.0000 0.0000
# 3 24.0943 18.1874 39.5692 0.0000 0.0000 0.0000
# 4 0.0000 0.0000 0.0000 28.3699 0.0000 0.0000
# 5 0.0000 0.0000 0.0000 0.0000 22.8243 0.0000
# 6 0.0000 0.0000 0.0000 0.0000 0.0000 26.8766
#
#
#
# Elastic Compliance Matrix: (Units=1/GPa)
#
#
# Indices 1 2 3 4 5 6 
#
# 1 0.013624 -0.001594 -0.007563 0.000000 0.000000 0.000000
# 2 -0.001594 0.021555 -0.008937 0.000000 0.000000 0.000000
# 3 -0.007563 -0.008937 0.033985 0.000000 0.000000 0.000000
# 4 0.000000 0.000000 0.000000 0.035249 0.000000 0.000000
# 5 0.000000 0.000000 0.000000 0.000000 0.043813 0.000000
# 6 0.000000 0.000000 0.000000 0.000000 0.000000 0.037207
#
#
# Mechanical properties :
#
#
# Convention : Reuss Voigt Hill
#
# Bulk Modulus (GPa) = 30.32482 33.45547 31.89014
# Shear Modulus (GPa) = 21.49489 23.92131 22.70810
#
# Velocity S-wave (km/s) = 3.16542 3.33931 3.25353
# Velocity P-wave (km/s) = 5.24365 5.51936 5.38327
#
# Compressibility (1/GPa) = 0.03297629
#
# Stress axis : x y z
#
# Youngs Moduli (GPa) = 73.39994 46.39283 29.42439
#
# Poissons Ratio (x) = 0.07394 0.22255
# Poissons Ratio (y) = 0.11698 0.26297
# Poissons Ratio (z) = 0.55515 0.41461
#
# Static dielectric constant tensor:
#      x y z
#    x 1.777760 0.000000 0.000000 
#    y 0.000000 1.805830 0.000000 
#    z 0.000000 0.000000 1.829010 
# 
# From -- ./inp_files/8004.got.cif
#   From: 2010.05.17/outbox.cif.g08.bks.cpg/sg45_5_cif.got.tgz:8004.got - 2010.06.03 19:51:22.
