data_PCOD9376208
_publ_section_title
;
Structure prediction by ZEFSAII (Michael W. Deem and Ramdas Pophale) SiO2 
 PCOD9376208
Probable space group: I B A 2
;
_chemical_formula_sum "Si O2"
_cell_formula_units_Z 64
_cell_length_a 27.360223
_cell_length_b 17.845481
_cell_length_c 8.318521
_cell_angle_alpha 90.000000
_cell_angle_beta 90.000000
_cell_angle_gamma 90.000000
_cell_volume 4061.570615
_symmetry_space_group_name_H-M "I B A 2"
_symmetry_group_IT_number 45
_symmetry_cell_setting 'orthorhombic'
loop_
_space_group_symop_operation_xyz
x,y,z
-x,-y,z
-x,y,1/2+z
x,-y,1/2+z
1/2+x,1/2+y,1/2+z
1/2-x,1/2-y,1/2+z
1/2-x,1/2+y,z
1/2+x,1/2-y,z
loop_
_atom_site_type_symbol
_atom_site_label
_atom_site_fract_x
_atom_site_fract_y
_atom_site_fract_z
Si Si1 0.557410 0.928098 0.312450
Si Si2 0.951058 0.403783 0.692828
Si Si3 0.734929 0.891797 0.721091
Si Si4 0.754938 0.454071 0.079353
Si Si5 0.302736 0.674957 0.200125
Si Si6 0.637808 0.805049 0.801671
Si Si7 0.715422 0.256125 0.849683
Si Si8 0.652999 0.144800 0.667345
O O1 0.508121 0.894127 0.234653
O O2 0.555644 0.914581 0.502647
O O3 0.603923 0.892060 0.228911
O O4 0.560467 0.017097 0.279592
O O5 0.914108 0.339746 0.752493
O O6 0.681198 0.854025 0.716177
O O7 0.773753 0.824817 0.729065
O O8 0.743573 0.957019 0.595352
O O9 0.741279 0.931952 0.893491
O O10 0.708689 0.412393 0.164651
O O11 0.803601 0.416568 0.156031
O O12 0.351859 0.718345 0.253742
O O13 0.262831 0.703677 0.328662
O O14 0.289081 0.711445 0.027132
O O15 0.646475 0.819507 0.990807
O O16 0.670082 0.208150 0.791478
#
# Coordination Sequence:
#
# PCOD9376208 Si02
#       8
#     8   8   8   8   8   8   8   8
#     4  11  21  33  47  64  87 115 146 183 219 255
#     4  11  21  33  47  64  87 115 146 183 219 255
#     4   9  18  28  41  61  86 113 144 177 212 254
#     4   9  18  28  41  61  86 113 144 177 212 254
#     4   9  17  29  42  60  84 112 144 180 217 257
#     4  10  19  31  45  63  85 114 149 182 217 260
#     4   9  17  29  42  60  84 112 144 180 217 257
#     4  10  19  31  45  63  85 114 149 182 217 260
#
# _framework density 15.75745
#
# number of rings (size 3 to 8) (size 9 to 14) (size 15 to 20)
#    0.000    2.250    0.000    6.750    0.000    8.000 
#    0.000    0.000    0.000    0.000    0.000    0.000 
#    0.000    1.000    0.000   10.500    0.000    5.750 
#
# Total GULP energy -178412.375060 kJ/mol
# GULP energy per Si atom -5575.386721 kJ/mol
# Density = 1.572159 g / cm^3
# Si number density = 15.757450 Si / 1000 Ang^3
#
#
#
# Elastic Constant Matrix: (Units=GPa)
#
#
# Indices 1 2 3 4 5 6 
#
# 1 74.5752 18.1409 3.5169 0.0000 0.0000 0.0000
# 2 18.1409 33.6133 -4.2965 0.0000 0.0000 0.0000
# 3 3.5169 -4.2965 44.0648 0.0000 0.0000 0.0000
# 4 0.0000 0.0000 0.0000 21.8255 0.0000 0.0000
# 5 0.0000 0.0000 0.0000 0.0000 19.8465 0.0000
# 6 0.0000 0.0000 0.0000 0.0000 0.0000 27.9810
#
#
#
# Elastic Compliance Matrix: (Units=1/GPa)
#
#
# Indices 1 2 3 4 5 6 
#
# 1 0.015624 -0.008700 -0.002095 0.000000 0.000000 0.000000
# 2 -0.008700 0.034970 0.004104 0.000000 0.000000 0.000000
# 3 -0.002095 0.004104 0.023261 0.000000 0.000000 0.000000
# 4 0.000000 0.000000 0.000000 0.045818 0.000000 0.000000
# 5 0.000000 0.000000 0.000000 0.000000 0.050387 0.000000
# 6 0.000000 0.000000 0.000000 0.000000 0.000000 0.035739
#
#
# Mechanical properties :
#
#
# Convention : Reuss Voigt Hill
#
# Bulk Modulus (GPa) = 16.53632 20.77510 18.65571
# Shear Modulus (GPa) = 20.89080 22.92340 21.90710
#
# Velocity S-wave (km/s) = 3.64507 3.81828 3.73268
# Velocity P-wave (km/s) = 5.31342 5.71419 5.51744
#
# Compressibility (1/GPa) = 0.06047294
#
# Stress axis : x y z
#
# Youngs Moduli (GPa) = 64.00214 28.59578 42.99000
#
# Poissons Ratio (x) = 0.24879 0.09008
# Poissons Ratio (y) = 0.55683 -0.17643
# Poissons Ratio (z) = 0.13411 -0.11736
#
# Static dielectric constant tensor:
#      x y z
#    x 1.516400 0.000000 0.000000 
#    y 0.000000 1.551740 0.000000 
#    z 0.000000 0.000000 1.558750 
# 
# From -- ./inp_files/2004.got.cif
#   From: 2010.05.17/outbox.cif.g08.bks.cpg/sg45_2_cif.got.tgz:2004.got - 2010.06.03 19:51:22.
