data_PCOD9376381
_publ_section_title
;
Structure prediction by ZEFSAII (Michael W. Deem and Ramdas Pophale) SiO2 
 PCOD9376381
Probable space group: I B A 2
;
_chemical_formula_sum "Si O2"
_cell_formula_units_Z 44
_cell_length_a 17.226926
_cell_length_b 12.866076
_cell_length_c 8.597690
_cell_angle_alpha 90.000000
_cell_angle_beta 90.000000
_cell_angle_gamma 90.000000
_cell_volume 1905.617282
_symmetry_space_group_name_H-M "I B A 2"
_symmetry_group_IT_number 45
_symmetry_cell_setting 'orthorhombic'
loop_
_space_group_symop_operation_xyz
x,y,z
-x,-y,z
-x,y,1/2+z
x,-y,1/2+z
1/2+x,1/2+y,1/2+z
1/2-x,1/2-y,1/2+z
1/2-x,1/2+y,z
1/2+x,1/2-y,z
loop_
_atom_site_type_symbol
_atom_site_label
_atom_site_fract_x
_atom_site_fract_y
_atom_site_fract_z
Si Si1 0.315480 0.730251 0.130280
Si Si2 0.411641 0.670415 0.435104
Si Si3 0.344298 0.487709 0.608526
Si Si4 0.647647 0.855603 0.081245
Si Si5 0.000000 0.000000 0.307853
Si Si6 0.181113 0.550784 0.737816
O O1 0.369358 0.710013 0.280469
O O2 0.339043 0.627341 0.031929
O O3 0.327220 0.853552 0.114277
O O4 0.222814 0.709206 0.143641
O O5 0.351824 0.583801 0.494728
O O6 0.416983 0.768224 0.549289
O O7 0.489620 0.605682 0.405533
O O8 0.422928 0.499689 0.706430
O O9 0.128902 0.451382 0.693589
O O10 0.669041 0.907588 0.912883
O O11 0.732425 0.506374 0.209756
#
# Coordination Sequence:
#
# PCOD9376381 Si02
#       6
#     8   8   8   8   4   8
#     4   9  20  32  55  83 123 160 192 258 317 377
#     4  10  20  39  55  87 125 158 212 255 313 371
#     4  10  20  34  54  83 119 159 198 253 310 365
#     4  10  21  34  57  87 127 159 201 257 322 382
#     4  10  22  34  56  82 118 166 206 258 302 366
#     4  10  21  35  55  86 125 159 200 253 323 380
#
# _framework density 23.08963
#
# number of rings (size 3 to 8) (size 9 to 14) (size 15 to 20)
#    0.000    2.182    1.818    0.545   15.273    0.000 
#    0.000    0.000    0.000    0.000    0.000   43.273 
#    0.000    0.000    0.000    0.000    0.000    0.000 
#
# Total GULP energy -122508.202625 kJ/mol
# GULP energy per Si atom -5568.554665 kJ/mol
# Density = 2.303708 g / cm^3
# Si number density = 23.089630 Si / 1000 Ang^3
#
#
#
# Elastic Constant Matrix: (Units=GPa)
#
#
# Indices 1 2 3 4 5 6 
#
# 1 54.4069 30.8136 9.2255 0.0000 0.0000 0.0000
# 2 30.8136 181.0018 13.8676 0.0000 0.0000 0.0000
# 3 9.2255 13.8676 19.5971 0.0000 0.0000 0.0000
# 4 0.0000 0.0000 0.0000 29.8459 0.0000 0.0000
# 5 0.0000 0.0000 0.0000 0.0000 15.9511 0.0000
# 6 0.0000 0.0000 0.0000 0.0000 0.0000 36.5613
#
#
#
# Elastic Compliance Matrix: (Units=1/GPa)
#
#
# Indices 1 2 3 4 5 6 
#
# 1 0.021451 -0.003043 -0.007945 0.000000 0.000000 0.000000
# 2 -0.003043 0.006273 -0.003007 0.000000 0.000000 0.000000
# 3 -0.007945 -0.003007 0.056896 0.000000 0.000000 0.000000
# 4 0.000000 0.000000 0.000000 0.033505 0.000000 0.000000
# 5 0.000000 0.000000 0.000000 0.000000 0.062691 0.000000
# 6 0.000000 0.000000 0.000000 0.000000 0.000000 0.027351
#
#
# Mechanical properties :
#
#
# Convention : Reuss Voigt Hill
#
# Bulk Modulus (GPa) = 17.65826 40.31325 28.98576
# Shear Modulus (GPa) = 19.60528 29.87827 24.74178
#
# Velocity S-wave (km/s) = 2.91708 3.60114 3.27701
# Velocity P-wave (km/s) = 4.36006 5.89816 5.18645
#
# Compressibility (1/GPa) = 0.05663071
#
# Stress axis : x y z
#
# Youngs Moduli (GPa) = 46.61871 159.40808 17.57604
#
# Poissons Ratio (x) = 0.48509 0.13964
# Poissons Ratio (y) = 0.14186 0.05284
# Poissons Ratio (z) = 0.37037 0.47928
#
# Static dielectric constant tensor:
#      x y z
#    x 1.844570 0.000000 0.000000 
#    y 0.000000 1.978290 0.000000 
#    z 0.000000 0.000000 2.009610 
# 
# From -- ./inp_files/3645.got.cif
#   From: 2010.05.17/outbox.cif.g08.bks.cpg/sg45_2_cif.got.tgz:3645.got - 2010.06.03 19:51:22.
