data_PCOD9376731
_publ_section_title
;
Structure prediction by ZEFSAII (Michael W. Deem and Ramdas Pophale) SiO2 
 PCOD9376731
Probable space group: I B A 2
;
_chemical_formula_sum "Si O2"
_cell_formula_units_Z 56
_cell_length_a 15.327525
_cell_length_b 9.185910
_cell_length_c 17.920762
_cell_angle_alpha 90.000000
_cell_angle_beta 90.000000
_cell_angle_gamma 90.000000
_cell_volume 2523.194279
_symmetry_space_group_name_H-M "I B A 2"
_symmetry_group_IT_number 45
_symmetry_cell_setting 'orthorhombic'
loop_
_space_group_symop_operation_xyz
x,y,z
-x,-y,z
-x,y,1/2+z
x,-y,1/2+z
1/2+x,1/2+y,1/2+z
1/2-x,1/2-y,1/2+z
1/2-x,1/2+y,z
1/2+x,1/2-y,z
loop_
_atom_site_type_symbol
_atom_site_label
_atom_site_fract_x
_atom_site_fract_y
_atom_site_fract_z
Si Si1 0.772845 0.159259 0.779290
Si Si2 0.000000 0.500000 0.358298
Si Si3 0.514055 0.769563 0.989511
Si Si4 0.830030 0.104151 0.366261
Si Si5 0.500000 0.500000 0.909747
Si Si6 0.662974 0.054278 0.575277
Si Si7 0.182304 0.238908 0.026691
Si Si8 0.361007 0.934283 0.229554
O O1 0.705371 0.279988 0.807670
O O2 0.726309 0.033364 0.733013
O O3 0.843549 0.261806 0.738751
O O4 0.802539 0.061216 0.848967
O O5 0.990841 0.366838 0.416444
O O6 0.080698 0.478134 0.301114
O O7 0.549760 0.614618 0.961669
O O8 0.424016 0.731775 0.033148
O O9 0.588203 0.856726 0.032458
O O10 0.801568 0.165205 0.446222
O O11 0.933579 0.092167 0.362126
O O12 0.748161 0.159597 0.580954
O O13 0.612961 0.985747 0.647417
O O14 0.696752 0.911659 0.531390
#
# Coordination Sequence:
#
# PCOD9376731 Si02
#       8
#     8   4   8   8   4   8   8   8
#     4  10  22  41  65  97 137 172 234 284 349 428
#     4  12  24  44  70 100 134 186 236 306 348 432
#     4  11  25  45  68 104 142 180 247 297 362 427
#     4  10  21  38  66  98 130 174 225 299 344 408
#     4  10  22  38  60  98 132 170 220 300 348 402
#     4  12  26  44  71 102 145 195 231 298 371 443
#     4  11  24  41  70 100 144 179 244 295 360 432
#     4  11  25  43  68  98 140 185 233 285 365 435
#
# _framework density 22.194089000000002
#
# number of rings (size 3 to 8) (size 9 to 14) (size 15 to 20)
#    0.000    1.143    1.429    4.286   12.000    0.000 
#    0.000    0.000    0.000    0.857    0.000    0.000 
#    0.000    0.000    0.000    0.000    0.000    0.000 
#
# Total GULP energy -155974.299197 kJ/mol
# GULP energy per Si atom -5570.510686 kJ/mol
# Density = 2.214357 g / cm^3
# Si number density = 22.194089 Si / 1000 Ang^3
#
#
#
# Elastic Constant Matrix: (Units=GPa)
#
#
# Indices 1 2 3 4 5 6 
#
# 1 71.4937 41.6040 21.0546 0.0000 0.0000 0.0000
# 2 41.6040 153.1433 20.6462 0.0000 0.0000 0.0000
# 3 21.0546 20.6462 59.6554 0.0000 0.0000 0.0000
# 4 0.0000 0.0000 0.0000 11.2109 0.0000 0.0000
# 5 0.0000 0.0000 0.0000 0.0000 -4.4456 0.0000
# 6 0.0000 0.0000 0.0000 0.0000 0.0000 31.3003
#
#
#
# Elastic Compliance Matrix: (Units=1/GPa)
#
#
# Indices 1 2 3 4 5 6 
#
# 1 0.017858 -0.004198 -0.004850 0.000000 0.000000 0.000000
# 2 -0.004198 0.007836 -0.001231 0.000000 0.000000 0.000000
# 3 -0.004850 -0.001231 0.018901 0.000000 0.000000 0.000000
# 4 0.000000 0.000000 0.000000 0.089199 0.000000 0.000000
# 5 0.000000 0.000000 0.000000 0.000000 -0.224940 0.000000
# 6 0.000000 0.000000 0.000000 0.000000 0.000000 0.031949
#
#
# Mechanical properties :
#
#
# Convention : Reuss Voigt Hill
#
# Bulk Modulus (GPa) = 41.59989 50.10022 45.85005
# Shear Modulus (GPa) = -163.24552 21.01230 -71.11661
#
# Velocity S-wave (km/s) = -8.58564 3.08027 -5.66680
# Velocity P-wave (km/s) = 8.91628 5.93915 4.70248
#
# Compressibility (1/GPa) = 0.02403852
#
# Stress axis : x y z
#
# Youngs Moduli (GPa) = 55.99641 127.61478 52.90843
#
# Poissons Ratio (x) = 0.53568 0.25661
# Poissons Ratio (y) = 0.23505 0.06510
# Poissons Ratio (z) = 0.27159 0.15703
#
# Static dielectric constant tensor:
#      x y z
#    x 2.077650 0.000000 0.000000 
#    y 0.000000 1.827750 0.000000 
#    z 0.000000 0.000000 1.928890 
# 
# From -- ./inp_files/9190.got.cif
#   From: 2010.05.17/outbox.cif.g08.bks.cpg/sg45_5_cif.got.tgz:9190.got - 2010.06.03 19:51:22.
