data_PCOD9376030
_publ_section_title
;
Structure prediction by ZEFSAII (Michael W. Deem and Ramdas Pophale) SiO2 
 PCOD9376030
Probable space group: I M M 2
;
_chemical_formula_sum "Si O2"
_cell_formula_units_Z 32
_cell_length_a 30.000000
_cell_length_b 9.000000
_cell_length_c 15.000000
_cell_angle_alpha 90.000000
_cell_angle_beta 90.000000
_cell_angle_gamma 90.000000
_cell_volume 4050.000000
_symmetry_space_group_name_H-M "I M M 2"
_symmetry_group_IT_number 44
_symmetry_cell_setting 'orthorhombic'
loop_
_space_group_symop_operation_xyz
x,y,z
-x,-y,z
-x,y,z
x,-y,z
1/2+x,1/2+y,1/2+z
1/2-x,1/2-y,1/2+z
1/2-x,1/2+y,1/2+z
1/2+x,1/2-y,1/2+z
loop_
_atom_site_type_symbol
_atom_site_label
_atom_site_fract_x
_atom_site_fract_y
_atom_site_fract_z
Si Si1 0.135164 0.328265 0.219290
Si Si2 0.287021 0.677744 0.829373
Si Si3 0.184137 0.327028 0.031246
Si Si4 0.051912 0.177206 0.152087
Si Si5 0.223758 0.676625 0.523042
Si Si6 0.802607 0.321069 0.717790
Si Si7 0.361897 0.321649 0.361112
Si Si8 0.451072 0.319955 0.446754
O O1 0.135133 0.500000 0.246612
O O2 0.169378 0.237786 0.279755
O O3 0.153067 0.320032 0.117621
O O4 0.085999 0.260510 0.215536
O O5 0.287439 0.500000 0.834300
O O6 0.243486 0.720826 0.769828
O O7 0.285537 0.744124 0.929083
O O8 0.196433 0.500000 0.016299
O O9 0.226700 0.226258 0.049537
O O10 0.162648 0.259407 0.942883
O O11 0.000000 0.203304 0.172255
O O12 0.060062 0.000000 0.156156
O O13 0.059106 0.225209 0.048717
O O14 0.221001 0.500000 0.510048
O O15 0.196887 0.716627 0.612858
O O16 0.806404 0.500000 0.725416
O O17 0.841323 0.238874 0.770801
O O18 0.356427 0.500000 0.368273
O O19 0.413240 0.280876 0.377261
O O20 0.500000 0.264521 0.423252
O O21 0.452494 0.500000 0.450066
#
# Coordination Sequence:
#
# PCOD9376030 Si02
#       8
#     8   8   8   8   8   8   8   8
#     4  11  22  33  49  74 104 139 175 211 249 299
#     4  11  22  36  53  74 101 133 169 209 254 301
#     4  11  21  31  46  70 103 136 167 207 248 290
#     4   9  17  31  51  73 101 136 171 208 253 305
#     4  11  22  37  53  70  96 133 173 210 248 295
#     4  10  22  36  50  71 102 134 165 206 255 302
#     4  11  20  30  51  75  98 134 174 208 245 296
#     4   8  15  28  46  71 101 131 165 205 249 297
#
# _framework density 7.9012349999999998
#
# number of rings (size 3 to 8) (size 9 to 14) (size 15 to 20)
#    0.000    1.750    3.750    2.625    0.000    2.750 
#    0.000    0.000    0.000    1.500    0.000    0.875 
#    0.000    3.000    0.000    0.000    0.000    0.000 
#
# Total GULP energy -178408.572351 kJ/mol
# GULP energy per Si atom -5575.267886 kJ/mol
# Density = 0.788325 g / cm^3
# Si number density = 7.901235 Si / 1000 Ang^3
#
#
#
# Elastic Constant Matrix: (Units=GPa)
#
#
# Indices 1 2 3 4 5 6 
#
# 1 69.4320 16.5464 16.7206 0.0000 0.0000 0.0000
# 2 16.5464 24.2083 19.6826 0.0000 0.0000 0.0000
# 3 16.7206 19.6826 51.5171 0.0000 0.0000 0.0000
# 4 0.0000 0.0000 0.0000 26.5706 0.0000 0.0000
# 5 0.0000 0.0000 0.0000 0.0000 20.7851 0.0000
# 6 0.0000 0.0000 0.0000 0.0000 0.0000 18.2322
#
#
#
# Elastic Compliance Matrix: (Units=1/GPa)
#
#
# Indices 1 2 3 4 5 6 
#
# 1 0.017294 -0.010527 -0.001591 0.000000 0.000000 0.000000
# 2 -0.010527 0.066330 -0.021925 0.000000 0.000000 0.000000
# 3 -0.001591 -0.021925 0.028304 0.000000 0.000000 0.000000
# 4 0.000000 0.000000 0.000000 0.037636 0.000000 0.000000
# 5 0.000000 0.000000 0.000000 0.000000 0.048111 0.000000
# 6 0.000000 0.000000 0.000000 0.000000 0.000000 0.054848
#
#
# Mechanical properties :
#
#
# Convention : Reuss Voigt Hill
#
# Bulk Modulus (GPa) = 22.80948 27.89520 25.35234
# Shear Modulus (GPa) = 14.91540 19.26478 17.09009
#
# Velocity S-wave (km/s) = 3.07557 3.49535 3.29216
# Velocity P-wave (km/s) = 5.20362 5.82930 5.52532
#
# Compressibility (1/GPa) = 0.04384141
#
# Stress axis : x y z
#
# Youngs Moduli (GPa) = 57.82189 15.07622 35.33041
#
# Poissons Ratio (x) = 0.15871 0.05622
# Poissons Ratio (y) = 0.60870 0.77463
# Poissons Ratio (z) = 0.09201 0.33055
#
# Static dielectric constant tensor:
#      x y z
#    x 1.558700 0.000000 0.000000 
#    y 0.000000 1.530260 0.000000 
#    z 0.000000 0.000000 1.522270 
# 
# From -- ./inp_files/17092.got.cif
#   From: 2010.05.17/outbox.ucp.g08.bks.cvg/sg44_9_cif.got.tgz:17092.got - 2010.06.11 16:32:36.
