data_PCOD9376710
_publ_section_title
;
Structure prediction by ZEFSAII (Michael W. Deem and Ramdas Pophale) SiO2 
 PCOD9376710
Probable space group: I B A 2
;
_chemical_formula_sum "Si O2"
_cell_formula_units_Z 40
_cell_length_a 12.274571
_cell_length_b 4.791486
_cell_length_c 28.815681
_cell_angle_alpha 90.000000
_cell_angle_beta 90.000000
_cell_angle_gamma 90.000000
_cell_volume 1694.749184
_symmetry_space_group_name_H-M "I B A 2"
_symmetry_group_IT_number 45
_symmetry_cell_setting 'orthorhombic'
loop_
_space_group_symop_operation_xyz
x,y,z
-x,-y,z
-x,y,1/2+z
x,-y,1/2+z
1/2+x,1/2+y,1/2+z
1/2-x,1/2-y,1/2+z
1/2-x,1/2+y,z
1/2+x,1/2-y,z
loop_
_atom_site_type_symbol
_atom_site_label
_atom_site_fract_x
_atom_site_fract_y
_atom_site_fract_z
Si Si1 0.000000 0.000000 0.961071
Si Si2 0.826312 0.079679 0.633502
Si Si3 0.670133 0.680401 0.832078
Si Si4 0.673482 0.512172 0.734737
Si Si5 0.326383 0.353853 0.037642
Si Si6 0.500000 0.000000 0.896804
O O1 0.044843 0.256018 0.930236
O O2 0.095881 0.900243 0.994621
O O3 0.786375 0.397988 0.633227
O O4 0.877911 0.044939 0.684092
O O5 0.878340 0.960476 0.586460
O O6 0.722755 0.375605 0.837976
O O7 0.583108 0.821726 0.865473
O O8 0.618700 0.640711 0.780404
O O9 0.713150 0.192786 0.736541
O O10 0.283570 0.039499 0.035683
#
# Coordination Sequence:
#
# PCOD9376710 Si02
#       6
#     4   8   8   8   8   4
#     4  12  26  40  58  84 114 152 202 250 288 340
#     4   8  14  27  51  80 107 138 174 216 273 337
#     4  10  21  38  60  84 114 150 188 236 292 347
#     4   8  14  27  51  80 107 138 174 216 273 337
#     4  10  21  38  60  84 114 150 188 236 292 347
#     4  12  26  40  58  84 114 152 202 250 288 340
#
# _framework density 23.602314
#
# number of rings (size 3 to 8) (size 9 to 14) (size 15 to 20)
#    0.000    2.400    0.000    2.400    0.000    4.800 
#    0.000    0.000    0.000   26.400    0.000    0.000 
#    0.000    0.000    0.000    0.000    0.000    0.000 
#
# Total GULP energy -111393.101562 kJ/mol
# GULP energy per Si atom -5569.655078 kJ/mol
# Density = 2.354859 g / cm^3
# Si number density = 23.602314 Si / 1000 Ang^3
#
#
#
# Elastic Constant Matrix: (Units=GPa)
#
#
# Indices 1 2 3 4 5 6 
#
# 1 44.0297 -15.2975 19.6413 0.0000 0.0000 0.0000
# 2 -15.2975 81.8864 -3.2007 0.0000 0.0000 0.0000
# 3 19.6413 -3.2007 118.7407 0.0000 0.0000 0.0000
# 4 0.0000 0.0000 0.0000 53.0350 0.0000 0.0000
# 5 0.0000 0.0000 0.0000 0.0000 40.5275 0.0000
# 6 0.0000 0.0000 0.0000 0.0000 0.0000 15.3788
#
#
#
# Elastic Compliance Matrix: (Units=1/GPa)
#
#
# Indices 1 2 3 4 5 6 
#
# 1 0.026237 0.004737 -0.004212 0.000000 0.000000 0.000000
# 2 0.004737 0.013080 -0.000431 0.000000 0.000000 0.000000
# 3 -0.004212 -0.000431 0.009107 0.000000 0.000000 0.000000
# 4 0.000000 0.000000 0.000000 0.018855 0.000000 0.000000
# 5 0.000000 0.000000 0.000000 0.000000 0.024675 0.000000
# 6 0.000000 0.000000 0.000000 0.000000 0.000000 0.065025
#
#
# Mechanical properties :
#
#
# Convention : Reuss Voigt Hill
#
# Bulk Modulus (GPa) = 20.57154 27.43809 24.00481
# Shear Modulus (GPa) = 28.90261 38.02249 33.46255
#
# Velocity S-wave (km/s) = 3.50318 4.01804 3.76941
# Velocity P-wave (km/s) = 5.00977 5.75991 5.39789
#
# Compressibility (1/GPa) = 0.04861084
#
# Stress axis : x y z
#
# Youngs Moduli (GPa) = 38.11453 76.45205 109.80742
#
# Poissons Ratio (x) = -0.36213 0.46253
# Poissons Ratio (y) = -0.18054 0.04732
# Poissons Ratio (z) = 0.16055 0.03295
#
# Static dielectric constant tensor:
#      x y z
#    x 1.897950 0.000000 0.000000 
#    y 0.000000 1.830110 0.000000 
#    z 0.000000 0.000000 2.011000 
# 
# From -- ./inp_files/85.got.cif
#   From: 2010.05.17/outbox.cif.g08.bks.cpg/sg45_1_cif.got.tgz:85.got - 2010.06.03 19:51:22.
