data_PCOD9376478
_publ_section_title
;
Structure prediction by ZEFSAII (Michael W. Deem and Ramdas Pophale) SiO2 
 PCOD9376478
Probable space group: I B A 2
;
_chemical_formula_sum "Si O2"
_cell_formula_units_Z 24
_cell_length_a 15.985008
_cell_length_b 11.255207
_cell_length_c 4.909408
_cell_angle_alpha 90.000000
_cell_angle_beta 90.000000
_cell_angle_gamma 90.000000
_cell_volume 883.274049
_symmetry_space_group_name_H-M "I B A 2"
_symmetry_group_IT_number 45
_symmetry_cell_setting 'orthorhombic'
loop_
_space_group_symop_operation_xyz
x,y,z
-x,-y,z
-x,y,1/2+z
x,-y,1/2+z
1/2+x,1/2+y,1/2+z
1/2-x,1/2-y,1/2+z
1/2-x,1/2+y,z
1/2+x,1/2-y,z
loop_
_atom_site_type_symbol
_atom_site_label
_atom_site_fract_x
_atom_site_fract_y
_atom_site_fract_z
Si Si1 0.231343 0.330265 0.585840
Si Si2 0.445661 0.161688 0.308024
Si Si3 0.396867 0.570450 0.935247
O O1 0.222226 0.232044 0.344390
O O2 0.143533 0.380785 0.692544
O O3 0.296170 0.419505 0.448806
O O4 0.478523 0.130608 0.606382
O O5 0.429054 0.303982 0.327834
O O6 0.420238 0.462557 0.740625
#
# Coordination Sequence:
#
# PCOD9376478 Si02
#       3
#     8   8   8
#     4  10  20  38  58  79 112 157 204 236 278 358
#     4  11  22  36  57  84 115 151 189 238 295 350
#     4  11  22  36  57  84 115 151 189 238 295 350
#
# _framework density 27.171633
#
# number of rings (size 3 to 8) (size 9 to 14) (size 15 to 20)
#    0.000    1.333    0.000   10.000    0.000    4.000 
#    0.000    0.000    0.000    6.000    0.000    0.000 
#    0.000    0.000    0.000    0.000    0.000    0.000 
#
# Total GULP energy -67237.304603 kJ/mol
# GULP energy per Si atom -5603.108717 kJ/mol
# Density = 2.710979 g / cm^3
# Si number density = 27.171633 Si / 1000 Ang^3
#
#
#
# Elastic Constant Matrix: (Units=GPa)
#
#
# Indices 1 2 3 4 5 6 
#
# 1 177.0046 32.6802 3.3609 0.0000 0.0000 0.0000
# 2 32.6802 73.4029 15.7012 0.0000 0.0000 0.0000
# 3 3.3609 15.7012 146.4251 0.0000 0.0000 0.0000
# 4 0.0000 0.0000 0.0000 23.0952 0.0000 0.0000
# 5 0.0000 0.0000 0.0000 0.0000 26.2957 0.0000
# 6 0.0000 0.0000 0.0000 0.0000 0.0000 44.1120
#
#
#
# Elastic Compliance Matrix: (Units=1/GPa)
#
#
# Indices 1 2 3 4 5 6 
#
# 1 0.006159 -0.002776 0.000156 0.000000 0.000000 0.000000
# 2 -0.002776 0.015194 -0.001566 0.000000 0.000000 0.000000
# 3 0.000156 -0.001566 0.006994 0.000000 0.000000 0.000000
# 4 0.000000 0.000000 0.000000 0.043299 0.000000 0.000000
# 5 0.000000 0.000000 0.000000 0.000000 0.038029 0.000000
# 6 0.000000 0.000000 0.000000 0.000000 0.000000 0.022670
#
#
# Mechanical properties :
#
#
# Convention : Reuss Voigt Hill
#
# Bulk Modulus (GPa) = 50.05725 55.59081 52.82403
# Shear Modulus (GPa) = 33.92746 41.70659 37.81702
#
# Velocity S-wave (km/s) = 3.53744 3.92207 3.73471
# Velocity P-wave (km/s) = 5.92851 6.40420 6.17094
#
# Compressibility (1/GPa) = 0.01997713
#
# Stress axis : x y z
#
# Youngs Moduli (GPa) = 162.36274 65.81528 142.98543
#
# Poissons Ratio (x) = 0.18267 -0.02234
# Poissons Ratio (y) = 0.45064 0.22385
# Poissons Ratio (z) = -0.02537 0.10304
#
# Static dielectric constant tensor:
#      x y z
#    x 2.237960 0.000000 0.000000 
#    y 0.000000 2.103630 0.000000 
#    z 0.000000 0.000000 2.029480 
# 
# From -- ./inp_files/6.got.cif
#   From: 2010.05.17/outbox.cif.g08.bks.cpg/sg45_1_cif.got.tgz:6.got - 2010.06.03 19:51:22.
