data_PCOD9376110
_publ_section_title
;
Structure prediction by ZEFSAII (Michael W. Deem and Ramdas Pophale) SiO2 
 PCOD9376110
Probable space group: I B A 2
;
_chemical_formula_sum "Si O2"
_cell_formula_units_Z 44
_cell_length_a 9.136920
_cell_length_b 19.789767
_cell_length_c 8.819330
_cell_angle_alpha 90.000000
_cell_angle_beta 90.000000
_cell_angle_gamma 90.000000
_cell_volume 1594.689360
_symmetry_space_group_name_H-M "I B A 2"
_symmetry_group_IT_number 45
_symmetry_cell_setting 'orthorhombic'
loop_
_space_group_symop_operation_xyz
x,y,z
-x,-y,z
-x,y,1/2+z
x,-y,1/2+z
1/2+x,1/2+y,1/2+z
1/2-x,1/2-y,1/2+z
1/2-x,1/2+y,z
1/2+x,1/2-y,z
loop_
_atom_site_type_symbol
_atom_site_label
_atom_site_fract_x
_atom_site_fract_y
_atom_site_fract_z
Si Si1 0.624241 0.097327 0.674100
Si Si2 0.569478 0.634298 0.637639
Si Si3 0.696833 0.210962 0.469661
Si Si4 0.500000 0.500000 0.452973
Si Si5 0.320778 0.031293 0.459817
Si Si6 0.759292 0.160428 0.154399
O O1 0.785431 0.121185 0.732417
O O2 0.588719 0.164831 0.575457
O O3 0.574190 0.063052 0.829921
O O4 0.637042 0.036111 0.553939
O O5 0.640330 0.686713 0.520687
O O6 0.524500 0.566147 0.552732
O O7 0.422567 0.651437 0.721776
O O8 0.670962 0.193185 0.294282
O O9 0.703699 0.288020 0.518907
O O10 0.337266 0.509346 0.384801
O O11 0.301968 0.090490 0.587319
#
# Coordination Sequence:
#
# PCOD9376110 Si02
#       6
#     8   8   8   4   8   8
#     4   9  19  32  48  78 106 137 174 208 262 315
#     4   8  20  32  51  75 105 136 174 206 263 307
#     4  10  22  35  49  74 105 141 181 211 264 306
#     4   8  16  28  46  76 104 130 160 204 256 316
#     4  10  18  29  49  73 107 135 168 210 255 312
#     4  11  21  34  52  71 106 143 175 220 254 315
#
# _framework density 27.591581000000001
#
# number of rings (size 3 to 8) (size 9 to 14) (size 15 to 20)
#    1.091    1.455    0.000    2.182    5.091    2.909 
#    0.000    0.000    0.000    0.000    0.000    1.273 
#    0.000    8.727    0.000    0.000    0.000    0.000 
#
# Total GULP energy -122638.037847 kJ/mol
# GULP energy per Si atom -5574.456266 kJ/mol
# Density = 2.752878 g / cm^3
# Si number density = 27.591581 Si / 1000 Ang^3
#
#
#
# Elastic Constant Matrix: (Units=GPa)
#
#
# Indices 1 2 3 4 5 6 
#
# 1 58.4064 4.4251 20.0023 0.0000 0.0000 0.0000
# 2 4.4251 137.2221 46.9644 -0.0003 0.0001 0.0000
# 3 20.0023 46.9644 154.3928 -0.0001 0.0001 -0.0002
# 4 0.0000 -0.0003 -0.0001 30.5072 0.0001 0.0000
# 5 0.0000 0.0001 0.0001 0.0001 31.3535 0.0000
# 6 0.0000 0.0000 -0.0002 0.0000 0.0000 26.3558
#
#
#
# Elastic Compliance Matrix: (Units=1/GPa)
#
#
# Indices 1 2 3 4 5 6 
#
# 1 0.017924 0.000242 -0.002396 0.000000 0.000000 0.000000
# 2 0.000242 0.008138 -0.002507 0.000000 0.000000 0.000000
# 3 -0.002396 -0.002507 0.007550 0.000000 0.000000 0.000000
# 4 0.000000 0.000000 0.000000 0.032779 0.000000 0.000000
# 5 0.000000 0.000000 0.000000 0.000000 0.031894 0.000000
# 6 0.000000 0.000000 0.000000 0.000000 0.000000 0.037942
#
#
# Mechanical properties :
#
#
# Convention : Reuss Voigt Hill
#
# Bulk Modulus (GPa) = 41.16907 54.75611 47.96259
# Shear Modulus (GPa) = 32.54268 36.21859 34.38063
#
# Velocity S-wave (km/s) = 3.43803 3.62701 3.53378
# Velocity P-wave (km/s) = 5.54196 6.11789 5.83703
#
# Compressibility (1/GPa) = 0.02429008
#
# Stress axis : x y z
#
# Youngs Moduli (GPa) = 55.79264 122.88682 132.45279
#
# Poissons Ratio (x) = -0.02973 0.31731
# Poissons Ratio (y) = -0.01350 0.33202
# Poissons Ratio (z) = 0.13366 0.30804
#
# Static dielectric constant tensor:
#      x y z
#    x 2.350440 0.000000 0.000000 
#    y 0.000000 2.590310 0.000000 
#    z 0.000000 0.000000 2.087890 
# 
# From -- ./inp_files/1670.got.cif
#   From: 2010.05.17/outbox.cif.g08.bks.cpg/sg45_1_cif.got.tgz:1670.got - 2010.06.03 19:51:22.
