data_PCOD9376350
_publ_section_title
;
Structure prediction by ZEFSAII (Michael W. Deem and Ramdas Pophale) SiO2 
 PCOD9376350
Probable space group: I B A 2
;
_chemical_formula_sum "Si O2"
_cell_formula_units_Z 60
_cell_length_a 18.665635
_cell_length_b 21.516373
_cell_length_c 8.643554
_cell_angle_alpha 90.000000
_cell_angle_beta 90.000000
_cell_angle_gamma 90.000000
_cell_volume 3471.396195
_symmetry_space_group_name_H-M "I B A 2"
_symmetry_group_IT_number 45
_symmetry_cell_setting 'orthorhombic'
loop_
_space_group_symop_operation_xyz
x,y,z
-x,-y,z
-x,y,1/2+z
x,-y,1/2+z
1/2+x,1/2+y,1/2+z
1/2-x,1/2-y,1/2+z
1/2-x,1/2+y,z
1/2+x,1/2-y,z
loop_
_atom_site_type_symbol
_atom_site_label
_atom_site_fract_x
_atom_site_fract_y
_atom_site_fract_z
Si Si1 0.197901 0.279314 0.307670
Si Si2 0.166245 0.900093 0.568636
Si Si3 0.104153 0.037054 0.568894
Si Si4 0.416892 0.750161 0.764325
Si Si5 0.811538 0.136695 0.213014
Si Si6 0.428094 0.721437 0.126163
Si Si7 0.000000 0.000000 0.309537
Si Si8 0.705046 0.823846 0.161782
O O1 0.231869 0.336297 0.210877
O O2 0.121636 0.260643 0.242386
O O3 0.249002 0.220749 0.273675
O O4 0.203587 0.296890 0.486714
O O5 0.176498 0.892744 0.383263
O O6 0.107674 0.847906 0.620446
O O7 0.243562 0.884231 0.645609
O O8 0.137365 0.968981 0.595845
O O9 0.164546 0.088486 0.583676
O O10 0.045082 0.046486 0.703174
O O11 0.057090 0.035294 0.415327
O O12 0.363468 0.695906 0.707003
O O13 0.491843 0.732362 0.685842
O O14 0.376832 0.814790 0.718611
O O15 0.422445 0.744879 0.949479
#
# Coordination Sequence:
#
# PCOD9376350 Si02
#       8
#     8   8   8   8   8   8   4   8
#     4   9  17  33  49  68  93 123 159 201 240 284
#     4   9  19  33  49  67  96 129 163 197 233 277
#     4  11  20  36  44  70  95 132 164 194 237 268
#     4  10  20  32  49  72  97 126 160 197 243 287
#     4   9  19  33  49  67  96 129 163 197 233 277
#     4  10  20  32  49  72  97 126 160 197 243 287
#     4  10  24  30  48  62 104 126 166 202 224 272
#     4   9  17  33  49  68  93 123 159 201 240 284
#
# _framework density 17.284112
#
# number of rings (size 3 to 8) (size 9 to 14) (size 15 to 20)
#    0.000    2.400    1.333    3.200    3.733    0.000 
#   12.000    0.000    0.000    0.000    0.000    0.933 
#    0.000    6.400    0.000    0.000    0.000    0.000 
#
# Total GULP energy -167136.214395 kJ/mol
# GULP energy per Si atom -5571.207147 kJ/mol
# Density = 1.724477 g / cm^3
# Si number density = 17.284112 Si / 1000 Ang^3
#
#
#
# Elastic Constant Matrix: (Units=GPa)
#
#
# Indices 1 2 3 4 5 6 
#
# 1 74.7286 20.1838 6.2385 0.0000 0.0000 0.0000
# 2 20.1838 38.5484 3.0404 0.0000 0.0000 0.0000
# 3 6.2385 3.0404 36.5649 0.0000 0.0000 0.0000
# 4 0.0000 0.0000 0.0000 14.0828 0.0000 0.0000
# 5 0.0000 0.0000 0.0000 0.0000 24.3927 0.0000
# 6 0.0000 0.0000 0.0000 0.0000 0.0000 13.1398
#
#
#
# Elastic Compliance Matrix: (Units=1/GPa)
#
#
# Indices 1 2 3 4 5 6 
#
# 1 0.015732 -0.008078 -0.002012 0.000000 0.000000 0.000000
# 2 -0.008078 0.030261 -0.001138 0.000000 0.000000 0.000000
# 3 -0.002012 -0.001138 0.027787 0.000000 0.000000 0.000000
# 4 0.000000 0.000000 0.000000 0.071008 0.000000 0.000000
# 5 0.000000 0.000000 0.000000 0.000000 0.040996 0.000000
# 6 0.000000 0.000000 0.000000 0.000000 0.000000 0.076105
#
#
# Mechanical properties :
#
#
# Convention : Reuss Voigt Hill
#
# Bulk Modulus (GPa) = 19.48479 23.19636 21.34057
# Shear Modulus (GPa) = 16.58633 18.34834 17.46733
#
# Velocity S-wave (km/s) = 3.10115 3.26171 3.18244
# Velocity P-wave (km/s) = 4.91127 5.25688 5.08701
#
# Compressibility (1/GPa) = 0.05132208
#
# Stress axis : x y z
#
# Youngs Moduli (GPa) = 63.56600 33.04583 35.98856
#
# Poissons Ratio (x) = 0.26696 0.07242
# Poissons Ratio (y) = 0.51351 0.04095
# Poissons Ratio (z) = 0.12792 0.03760
#
# Static dielectric constant tensor:
#      x y z
#    x 1.623580 0.000000 0.000000 
#    y 0.000000 1.598010 0.000000 
#    z 0.000000 0.000000 1.622100 
# 
# From -- ./inp_files/2210.got.cif
#   From: 2010.05.17/outbox.cif.g08.bks.cpg/sg45_2_cif.got.tgz:2210.got - 2010.06.03 19:51:22.
