data_PCOD9376106
_publ_section_title
;
Structure prediction by ZEFSAII (Michael W. Deem and Ramdas Pophale) SiO2 
 PCOD9376106
Probable space group: I B A 2
;
_chemical_formula_sum "Si O2"
_cell_formula_units_Z 64
_cell_length_a 20.353937
_cell_length_b 5.452091
_cell_length_c 22.231212
_cell_angle_alpha 90.000000
_cell_angle_beta 90.000000
_cell_angle_gamma 90.000000
_cell_volume 2467.031314
_symmetry_space_group_name_H-M "I B A 2"
_symmetry_group_IT_number 45
_symmetry_cell_setting 'orthorhombic'
loop_
_space_group_symop_operation_xyz
x,y,z
-x,-y,z
-x,y,1/2+z
x,-y,1/2+z
1/2+x,1/2+y,1/2+z
1/2-x,1/2-y,1/2+z
1/2-x,1/2+y,z
1/2+x,1/2-y,z
loop_
_atom_site_type_symbol
_atom_site_label
_atom_site_fract_x
_atom_site_fract_y
_atom_site_fract_z
Si Si1 0.120549 0.242555 0.633360
Si Si2 0.339527 0.827146 0.957370
Si Si3 0.922761 0.928315 0.763330
Si Si4 0.391170 0.679312 0.418190
Si Si5 0.993937 0.749572 0.043260
Si Si6 0.430114 0.073880 0.806350
Si Si7 0.656272 0.245272 0.087868
Si Si8 0.758851 0.827787 0.342711
O O1 0.094221 0.185989 0.699483
O O2 0.159885 0.496253 0.625735
O O3 0.053952 0.250838 0.591395
O O4 0.166112 0.012300 0.615365
O O5 0.387489 0.594791 0.944414
O O6 0.288937 0.833549 0.901772
O O7 0.372257 0.097066 0.962290
O O8 0.309386 0.776694 0.022850
O O9 0.900607 0.704534 0.808573
O O10 0.895494 0.208416 0.768782
O O11 0.000000 0.000000 0.770228
O O12 0.443283 0.794580 0.371152
O O13 0.329255 0.675867 0.373067
O O14 0.922937 0.751474 0.073668
O O15 0.000000 0.500000 0.007353
O O16 0.000000 0.000000 0.007365
O O17 0.500000 0.000000 0.777831
O O18 0.749232 0.578070 0.307668
#
# Coordination Sequence:
#
# PCOD9376106 Si02
#       8
#     8   8   8   8   8   8   8   8
#     4  10  18  30  46  67  98 136 173 207 243 292
#     4  10  19  32  51  75 102 130 165 210 261 310
#     4  10  19  32  51  71  97 136 179 220 257 300
#     4  10  19  35  52  70 103 133 167 216 258 308
#     4   8  15  25  38  56  86 122 160 191 221 268
#     4  10  21  34  49  73 102 137 179 217 262 312
#     4  10  18  28  44  69 100 128 160 207 249 293
#     4   8  16  30  51  73  94 118 159 210 254 301
#
# _framework density 25.94211
#
# number of rings (size 3 to 8) (size 9 to 14) (size 15 to 20)
#    0.000    2.500    0.000    3.375    0.000    3.500 
#    0.000    5.625    0.000    0.000    0.000    0.000 
#    0.000  180.000    0.000    0.000    0.000    0.000 
#
# Total GULP energy -178335.812778 kJ/mol
# GULP energy per Si atom -5572.994149 kJ/mol
# Density = 2.588306 g / cm^3
# Si number density = 25.942110 Si / 1000 Ang^3
#
#
#
# Elastic Constant Matrix: (Units=GPa)
#
#
# Indices 1 2 3 4 5 6 
#
# 1 39.0289 5.6889 12.0920 0.0000 0.0000 0.0000
# 2 5.6889 258.5860 14.6673 0.0000 0.0000 0.0000
# 3 12.0920 14.6673 74.4285 0.0000 0.0000 0.0000
# 4 0.0000 0.0000 0.0000 39.0143 0.0000 0.0000
# 5 0.0000 0.0000 0.0000 0.0000 11.5278 0.0000
# 6 0.0000 0.0000 0.0000 0.0000 0.0000 10.5807
#
#
#
# Elastic Compliance Matrix: (Units=1/GPa)
#
#
# Indices 1 2 3 4 5 6 
#
# 1 0.027011 -0.000349 -0.004320 0.000000 0.000000 0.000000
# 2 -0.000349 0.003915 -0.000715 0.000000 0.000000 0.000000
# 3 -0.004320 -0.000715 0.014278 0.000000 0.000000 0.000000
# 4 0.000000 0.000000 0.000000 0.025632 0.000000 0.000000
# 5 0.000000 0.000000 0.000000 0.000000 0.086747 0.000000
# 6 0.000000 0.000000 0.000000 0.000000 0.000000 0.094512
#
#
# Mechanical properties :
#
#
# Convention : Reuss Voigt Hill
#
# Bulk Modulus (GPa) = 29.03793 48.54888 38.79340
# Shear Modulus (GPa) = 18.22541 34.86423 26.54482
#
# Velocity S-wave (km/s) = 2.65343 3.66993 3.20227
# Velocity P-wave (km/s) = 4.53930 6.05911 5.35341
#
# Compressibility (1/GPa) = 0.03443772
#
# Stress axis : x y z
#
# Youngs Moduli (GPa) = 37.02159 255.40070 70.03604
#
# Poissons Ratio (x) = 0.08920 0.30253
# Poissons Ratio (y) = 0.01293 0.05007
# Poissons Ratio (z) = 0.15992 0.18257
#
# Static dielectric constant tensor:
#      x y z
#    x 2.127490 0.000000 0.000000 
#    y 0.000000 2.226320 0.000000 
#    z 0.000000 0.000000 2.034720 
# 
# From -- ./inp_files/9362.got.cif
#   From: 2010.05.17/outbox.cif.g08.bks.cpg/sg45_5_cif.got.tgz:9362.got - 2010.06.03 19:51:22.
