data_PCOD9376113
_publ_section_title
;
Structure prediction by ZEFSAII (Michael W. Deem and Ramdas Pophale) SiO2 
 PCOD9376113
Probable space group: I B A 2
;
_chemical_formula_sum "Si O2"
_cell_formula_units_Z 60
_cell_length_a 15.192725
_cell_length_b 14.525540
_cell_length_c 11.297619
_cell_angle_alpha 90.000000
_cell_angle_beta 90.000000
_cell_angle_gamma 90.000000
_cell_volume 2493.187197
_symmetry_space_group_name_H-M "I B A 2"
_symmetry_group_IT_number 45
_symmetry_cell_setting 'orthorhombic'
loop_
_space_group_symop_operation_xyz
x,y,z
-x,-y,z
-x,y,1/2+z
x,-y,1/2+z
1/2+x,1/2+y,1/2+z
1/2-x,1/2-y,1/2+z
1/2-x,1/2+y,z
1/2+x,1/2-y,z
loop_
_atom_site_type_symbol
_atom_site_label
_atom_site_fract_x
_atom_site_fract_y
_atom_site_fract_z
Si Si1 0.500000 0.500000 0.037640
Si Si2 0.039308 0.709979 0.061333
Si Si3 0.335948 0.180940 0.624115
Si Si4 0.245086 0.861111 0.357565
Si Si5 0.950297 0.844463 0.378182
Si Si6 0.283965 0.128994 0.118878
Si Si7 0.745881 0.860192 0.383775
Si Si8 0.414541 0.612697 0.697281
O O1 0.582551 0.522250 0.119428
O O2 0.508850 0.409194 0.962290
O O3 0.110447 0.634334 0.093674
O O4 0.093097 0.797220 0.117298
O O5 0.940024 0.697864 0.104879
O O6 0.036724 0.740543 0.923314
O O7 0.317196 0.134110 0.751733
O O8 0.278482 0.276979 0.626871
O O9 0.300628 0.122237 0.510700
O O10 0.255711 0.905534 0.486905
O O11 0.232159 0.750825 0.374285
O O12 0.157509 0.895443 0.295216
O O13 0.850324 0.873531 0.389958
O O14 0.990045 0.867844 0.252727
O O15 0.280091 0.095940 0.256524
#
# Coordination Sequence:
#
# PCOD9376113 Si02
#       8
#     4   8   8   8   8   8   8   8
#     4  10  24  36  48  78 108 150 214 264 276 346
#     4  11  20  28  52  75 110 153 200 238 302 370
#     4  10  18  30  46  72 104 149 187 231 297 369
#     4  10  18  33  50  73 108 142 199 244 298 371
#     4  11  20  35  52  73 107 161 202 249 301 355
#     4  10  19  31  44  79 108 141 201 233 286 377
#     4  10  18  33  50  73 108 142 199 244 298 371
#     4  11  20  35  52  73 107 161 202 249 301 355
#
# _framework density 24.065583
#
# number of rings (size 3 to 8) (size 9 to 14) (size 15 to 20)
#    0.000    1.600    5.333    4.400    0.000    1.067 
#    0.000    0.000    0.000    0.000    0.000    0.000 
#    0.000    0.000    0.000  199.200   27.733    0.000 
#
# Total GULP energy -167098.090536 kJ/mol
# GULP energy per Si atom -5569.936351 kJ/mol
# Density = 2.401081 g / cm^3
# Si number density = 24.065583 Si / 1000 Ang^3
#
#
#
# Elastic Constant Matrix: (Units=GPa)
#
#
# Indices 1 2 3 4 5 6 
#
# 1 130.2819 4.0687 11.7164 0.0000 0.0000 0.0000
# 2 4.0687 22.0626 11.2730 0.0000 0.0000 0.0000
# 3 11.7164 11.2730 152.8191 0.0000 0.0000 0.0000
# 4 0.0000 0.0000 0.0000 26.1002 0.0000 0.0000
# 5 0.0000 0.0000 0.0000 0.0000 28.3124 0.0000
# 6 0.0000 0.0000 0.0000 0.0000 0.0000 4.9618
#
#
#
# Elastic Compliance Matrix: (Units=1/GPa)
#
#
# Indices 1 2 3 4 5 6 
#
# 1 0.007758 -0.001171 -0.000508 0.000000 0.000000 0.000000
# 2 -0.001171 0.047278 -0.003398 0.000000 0.000000 0.000000
# 3 -0.000508 -0.003398 0.006833 0.000000 0.000000 0.000000
# 4 0.000000 0.000000 0.000000 0.038314 0.000000 0.000000
# 5 0.000000 0.000000 0.000000 0.000000 0.035320 0.000000
# 6 0.000000 0.000000 0.000000 0.000000 0.000000 0.201538
#
#
# Mechanical properties :
#
#
# Convention : Reuss Voigt Hill
#
# Bulk Modulus (GPa) = 19.33685 39.91997 29.62841
# Shear Modulus (GPa) = 13.71992 30.41527 22.06759
#
# Velocity S-wave (km/s) = 2.39028 3.55892 3.03145
# Velocity P-wave (km/s) = 3.95859 5.78895 4.95895
#
# Compressibility (1/GPa) = 0.05171474
#
# Stress axis : x y z
#
# Youngs Moduli (GPa) = 128.90001 21.15165 146.34213
#
# Poissons Ratio (x) = 0.02477 0.07440
# Poissons Ratio (y) = 0.15093 0.49723
# Poissons Ratio (z) = 0.06553 0.07187
#
# Static dielectric constant tensor:
#      x y z
#    x 1.942990 0.000000 0.000000 
#    y 0.000000 2.015300 0.000000 
#    z 0.000000 0.000000 2.075500 
# 
# From -- ./inp_files/4248.got.cif
#   From: 2010.05.17/outbox.cif.g08.bks.cpg/sg45_3_cif.got.tgz:4248.got - 2010.06.03 19:51:22.
