data_PCOD9376823
_publ_section_title
;
Structure prediction by ZEFSAII (Michael W. Deem and Ramdas Pophale) SiO2 
 PCOD9376823
Probable space group: I B A 2
;
_chemical_formula_sum "Si O2"
_cell_formula_units_Z 48
_cell_length_a 8.025652
_cell_length_b 17.196092
_cell_length_c 16.635172
_cell_angle_alpha 90.000000
_cell_angle_beta 90.000000
_cell_angle_gamma 90.000000
_cell_volume 2295.817595
_symmetry_space_group_name_H-M "I B A 2"
_symmetry_group_IT_number 45
_symmetry_cell_setting 'orthorhombic'
loop_
_space_group_symop_operation_xyz
x,y,z
-x,-y,z
-x,y,1/2+z
x,-y,1/2+z
1/2+x,1/2+y,1/2+z
1/2-x,1/2-y,1/2+z
1/2-x,1/2+y,z
1/2+x,1/2-y,z
loop_
_atom_site_type_symbol
_atom_site_label
_atom_site_fract_x
_atom_site_fract_y
_atom_site_fract_z
Si Si1 0.114738 0.144937 0.312550
Si Si2 0.531869 0.687988 0.987713
Si Si3 0.243632 0.298905 0.270358
Si Si4 0.347436 0.849912 0.445171
Si Si5 0.500000 0.500000 0.729481
Si Si6 0.500000 0.000000 0.520437
Si Si7 0.255970 0.603761 0.622747
O O1 0.125988 0.156207 0.407915
O O2 0.237193 0.205668 0.270845
O O3 0.933450 0.176354 0.285729
O O4 0.112102 0.056676 0.284405
O O5 0.542891 0.781526 0.985241
O O6 0.340772 0.662194 0.977730
O O7 0.627208 0.652840 0.062988
O O8 0.151089 0.331220 0.349918
O O9 0.179348 0.337281 0.188590
O O10 0.406655 0.935666 0.466729
O O11 0.377185 0.548172 0.673433
O O12 0.625880 0.949590 0.575204
#
# Coordination Sequence:
#
# PCOD9376823 Si02
#       7
#     8   8   8   8   4   4   8
#     4   9  20  39  62  86 114 156 198 235 293 360
#     4  10  21  41  65  87 119 160 200 242 295 362
#     4   9  21  40  61  85 115 156 199 237 293 359
#     4  10  22  42  64  87 119 161 202 240 295 364
#     4  10  22  38  58  86 120 156 196 246 298 344
#     4  12  26  38  58  92 122 156 202 252 302 344
#     4  11  24  38  58  91 122 155 198 249 300 342
#
# _framework density 20.907584
#
# number of rings (size 3 to 8) (size 9 to 14) (size 15 to 20)
#    0.000    2.000    0.000    2.000    0.000   14.667 
#    0.000    0.000    0.000    0.000    0.000    0.000 
#    0.000    0.000    0.000    0.000    0.000    0.000 
#
# Total GULP energy -134114.253515 kJ/mol
# GULP energy per Si atom -5588.093896 kJ/mol
# Density = 2.086000 g / cm^3
# Si number density = 20.907584 Si / 1000 Ang^3
#
#
#
# Elastic Constant Matrix: (Units=GPa)
#
#
# Indices 1 2 3 4 5 6 
#
# 1 47.5525 44.0924 27.3998 0.0000 0.0000 0.0000
# 2 44.0924 143.5705 82.9688 0.0000 0.0000 0.0000
# 3 27.3998 82.9688 99.5751 0.0000 0.0000 0.0000
# 4 0.0000 0.0000 0.0000 39.7843 0.0000 0.0000
# 5 0.0000 0.0000 0.0000 0.0000 19.7453 0.0000
# 6 0.0000 0.0000 0.0000 0.0000 0.0000 36.0808
#
#
#
# Elastic Compliance Matrix: (Units=1/GPa)
#
#
# Indices 1 2 3 4 5 6 
#
# 1 0.029464 -0.008416 -0.001095 0.000000 0.000000 0.000000
# 2 -0.008416 0.015838 -0.010881 0.000000 0.000000 0.000000
# 3 -0.001095 -0.010881 0.019410 0.000000 0.000000 0.000000
# 4 0.000000 0.000000 0.000000 0.025136 0.000000 0.000000
# 5 0.000000 0.000000 0.000000 0.000000 0.050645 0.000000
# 6 0.000000 0.000000 0.000000 0.000000 0.000000 0.027716
#
#
# Mechanical properties :
#
#
# Convention : Reuss Voigt Hill
#
# Bulk Modulus (GPa) = 41.79142 66.62445 54.20794
# Shear Modulus (GPa) = 23.04493 28.20455 25.62474
#
# Velocity S-wave (km/s) = 3.32358 3.67687 3.50468
# Velocity P-wave (km/s) = 5.89579 7.06832 6.50851
#
# Compressibility (1/GPa) = 0.02392836
#
# Stress axis : x y z
#
# Youngs Moduli (GPa) = 33.93980 63.14027 51.51945
#
# Poissons Ratio (x) = 0.53138 0.05642
# Poissons Ratio (y) = 0.28563 0.56057
# Poissons Ratio (z) = 0.03717 0.68701
#
# Static dielectric constant tensor:
#      x y z
#    x 1.766090 0.000000 0.000000 
#    y 0.000000 1.751250 0.000000 
#    z 0.000000 0.000000 1.756420 
# 
# From -- ./inp_files/6759.got.cif
#   From: 2010.05.17/outbox.cif.g08.bks.cpg/sg45_4_cif.got.tgz:6759.got - 2010.06.03 19:51:22.
