data_PCOD9376449
_publ_section_title
;
Structure prediction by ZEFSAII (Michael W. Deem and Ramdas Pophale) SiO2 
 PCOD9376449
Probable space group: I B A 2
;
_chemical_formula_sum "Si O2"
_cell_formula_units_Z 44
_cell_length_a 6.968861
_cell_length_b 17.645399
_cell_length_c 15.141356
_cell_angle_alpha 90.000000
_cell_angle_beta 90.000000
_cell_angle_gamma 90.000000
_cell_volume 1861.907305
_symmetry_space_group_name_H-M "I B A 2"
_symmetry_group_IT_number 45
_symmetry_cell_setting 'orthorhombic'
loop_
_space_group_symop_operation_xyz
x,y,z
-x,-y,z
-x,y,1/2+z
x,-y,1/2+z
1/2+x,1/2+y,1/2+z
1/2-x,1/2-y,1/2+z
1/2-x,1/2+y,z
1/2+x,1/2-y,z
loop_
_atom_site_type_symbol
_atom_site_label
_atom_site_fract_x
_atom_site_fract_y
_atom_site_fract_z
Si Si1 0.463317 0.678325 0.493010
Si Si2 0.000000 0.000000 0.699710
Si Si3 0.719323 0.899361 0.097636
Si Si4 0.380721 0.182569 0.261887
Si Si5 0.441824 0.352246 0.300231
Si Si6 0.975505 0.350909 0.454829
O O1 0.593582 0.652292 0.574026
O O2 0.579472 0.653451 0.405190
O O3 0.248895 0.645761 0.482788
O O4 0.450595 0.768841 0.488695
O O5 0.904633 0.933351 0.758286
O O6 0.175826 0.970468 0.640383
O O7 0.582391 0.857171 0.168777
O O8 0.597227 0.911284 0.009376
O O9 0.366248 0.273826 0.258270
O O10 0.497641 0.154917 0.348266
O O11 0.168927 0.155441 0.285179
#
# Coordination Sequence:
#
# PCOD9376449 Si02
#       6
#     8   4   8   8   8   8
#     4  10  20  36  66  98 132 177 238 284 345 409
#     4  10  24  42  62  98 138 186 228 280 374 418
#     4  11  23  41  68  99 142 183 227 296 349 424
#     4   9  21  37  64 104 130 178 236 287 346 411
#     4   9  20  40  65  94 135 178 234 294 346 423
#     4  10  20  38  63 105 136 172 237 298 340 414
#
# _framework density 23.631679999999999
#
# number of rings (size 3 to 8) (size 9 to 14) (size 15 to 20)
#    0.000    2.182    1.818    0.000    7.636    0.727 
#    0.000    0.909    4.000    0.000   18.909    0.000 
#    0.000    0.000    0.000    0.000    0.000    0.000 
#
# Total GULP energy -122875.365745 kJ/mol
# GULP energy per Si atom -5585.243897 kJ/mol
# Density = 2.357789 g / cm^3
# Si number density = 23.631680 Si / 1000 Ang^3
#
#
#
# Elastic Constant Matrix: (Units=GPa)
#
#
# Indices 1 2 3 4 5 6 
#
# 1 64.9650 19.8310 26.6501 0.0000 0.0000 0.0000
# 2 19.8310 103.6046 60.9904 0.0000 0.0000 0.0000
# 3 26.6501 60.9904 106.7583 0.0000 0.0000 0.0000
# 4 0.0000 0.0000 0.0000 -16.1807 0.0000 0.0000
# 5 0.0000 0.0000 0.0000 0.0000 40.9318 0.0000
# 6 0.0000 0.0000 0.0000 0.0000 0.0000 32.7352
#
#
#
# Elastic Compliance Matrix: (Units=1/GPa)
#
#
# Indices 1 2 3 4 5 6 
#
# 1 0.017240 -0.001155 -0.003644 0.000000 0.000000 0.000000
# 2 -0.001155 0.014620 -0.008064 0.000000 0.000000 0.000000
# 3 -0.003644 -0.008064 0.014884 0.000000 0.000000 0.000000
# 4 0.000000 0.000000 0.000000 -0.061802 0.000000 0.000000
# 5 0.000000 0.000000 0.000000 0.000000 0.024431 0.000000
# 6 0.000000 0.000000 0.000000 0.000000 0.000000 0.030548
#
#
# Mechanical properties :
#
#
# Convention : Reuss Voigt Hill
#
# Bulk Modulus (GPa) = 47.57774 54.47455 51.02614
# Shear Modulus (GPa) = 68.81968 22.68768 45.75368
#
# Velocity S-wave (km/s) = 5.40232 3.10183 4.40491
# Velocity P-wave (km/s) = 7.68701 5.99417 6.89275
#
# Compressibility (1/GPa) = 0.02101823
#
# Stress axis : x y z
#
# Youngs Moduli (GPa) = 58.00383 68.39739 67.18778
#
# Poissons Ratio (x) = 0.07899 0.24483
# Poissons Ratio (y) = 0.06698 0.54182
# Poissons Ratio (z) = 0.21136 0.55158
#
# Static dielectric constant tensor:
#      x y z
#    x 1.939330 0.000000 0.000000 
#    y 0.000000 2.041600 0.000000 
#    z 0.000000 0.000000 1.987650 
# 
# From -- ./inp_files/5559.got.cif
#   From: 2010.05.17/outbox.cif.g08.bks.cpg/sg45_3_cif.got.tgz:5559.got - 2010.06.03 19:51:22.
