data_PCOD9376174
_publ_section_title
;
Structure prediction by ZEFSAII (Michael W. Deem and Ramdas Pophale) SiO2 
 PCOD9376174
Probable space group: I B A 2
;
_chemical_formula_sum "Si O2"
_cell_formula_units_Z 60
_cell_length_a 12.065219
_cell_length_b 15.309997
_cell_length_c 14.127756
_cell_angle_alpha 90.000000
_cell_angle_beta 90.000000
_cell_angle_gamma 90.000000
_cell_volume 2609.657426
_symmetry_space_group_name_H-M "I B A 2"
_symmetry_group_IT_number 45
_symmetry_cell_setting 'orthorhombic'
loop_
_space_group_symop_operation_xyz
x,y,z
-x,-y,z
-x,y,1/2+z
x,-y,1/2+z
1/2+x,1/2+y,1/2+z
1/2-x,1/2-y,1/2+z
1/2-x,1/2+y,z
1/2+x,1/2-y,z
loop_
_atom_site_type_symbol
_atom_site_label
_atom_site_fract_x
_atom_site_fract_y
_atom_site_fract_z
Si Si1 0.079810 0.576000 0.672720
Si Si2 0.197527 0.049899 0.765286
Si Si3 0.912253 0.175543 0.467023
Si Si4 0.065733 0.905622 0.088443
Si Si5 0.298580 0.081365 0.495423
Si Si6 0.192609 0.616920 0.953141
Si Si7 0.000000 0.000000 0.366398
Si Si8 0.966710 0.341493 0.358195
O O1 0.188349 0.526290 0.714573
O O2 0.129669 0.623649 0.580632
O O3 0.015229 0.629225 0.755935
O O4 0.000000 0.500000 0.638914
O O5 0.124759 0.102738 0.689846
O O6 0.246089 0.104937 0.851897
O O7 0.109903 0.979228 0.804589
O O8 0.783863 0.179292 0.499321
O O9 0.986300 0.174208 0.561478
O O10 0.935793 0.242689 0.383180
O O11 0.956350 0.081672 0.426613
O O12 0.169117 0.902365 0.014192
O O13 0.000000 0.000000 0.093232
O O14 0.359279 0.105650 0.397076
O O15 0.306203 0.976687 0.501816
O O16 0.068699 0.641816 0.930461
#
# Coordination Sequence:
#
# PCOD9376174 Si02
#       8
#     8   8   8   8   8   8   4   8
#     4  10  21  40  65  99 130 172 227 280 345 424
#     4   9  19  33  63  90 119 162 223 281 333 398
#     4  11  23  38  61  92 131 175 228 276 353 424
#     4  11  19  38  63  94 127 173 232 287 338 416
#     4  11  22  41  74  95 130 182 231 286 356 425
#     4  10  20  41  62  93 127 175 237 276 345 429
#     4  10  18  38  60  86 116 172 222 272 330 412
#     4  11  24  40  63  98 140 177 221 296 352 416
#
# _framework density 22.991523999999998
#
# number of rings (size 3 to 8) (size 9 to 14) (size 15 to 20)
#    0.000    1.600    2.667    3.600    1.867    0.000 
#    4.800    0.000    0.000    0.000    0.000    0.000 
#    0.000    0.000    0.000    0.000    0.000    0.000 
#
# Total GULP energy -167010.956388 kJ/mol
# GULP energy per Si atom -5567.031880 kJ/mol
# Density = 2.293919 g / cm^3
# Si number density = 22.991524 Si / 1000 Ang^3
#
#
#
# Elastic Constant Matrix: (Units=GPa)
#
#
# Indices 1 2 3 4 5 6 
#
# 1 121.6107 6.9191 21.4560 0.0000 0.0000 0.0000
# 2 6.9191 46.8408 1.6497 0.0000 0.0000 0.0000
# 3 21.4560 1.6497 86.1259 0.0000 0.0000 0.0000
# 4 0.0000 0.0000 0.0000 -1.1135 0.0000 0.0000
# 5 0.0000 0.0000 0.0000 0.0000 37.1240 0.0000
# 6 0.0000 0.0000 0.0000 0.0000 0.0000 17.1062
#
#
#
# Elastic Compliance Matrix: (Units=1/GPa)
#
#
# Indices 1 2 3 4 5 6 
#
# 1 0.008668 -0.001205 -0.002136 0.000000 0.000000 0.000000
# 2 -0.001205 0.021531 -0.000112 0.000000 0.000000 0.000000
# 3 -0.002136 -0.000112 0.012145 0.000000 0.000000 0.000000
# 4 0.000000 0.000000 0.000000 -0.898060 0.000000 0.000000
# 5 0.000000 0.000000 0.000000 0.000000 0.026937 0.000000
# 6 0.000000 0.000000 0.000000 0.000000 0.000000 0.058458
#
#
# Mechanical properties :
#
#
# Convention : Reuss Voigt Hill
#
# Bulk Modulus (GPa) = 28.21909 34.95857 31.58883
# Shear Modulus (GPa) = -6.65247 25.59349 9.47051
#
# Velocity S-wave (km/s) = -1.70286 3.34004 2.03177
# Velocity P-wave (km/s) = 2.90414 5.48748 4.39013
#
# Compressibility (1/GPa) = 0.03543701
#
# Stress axis : x y z
#
# Youngs Moduli (GPa) = 115.36064 46.44490 82.33642
#
# Poissons Ratio (x) = 0.05598 0.17591
# Poissons Ratio (y) = 0.13904 0.00923
# Poissons Ratio (z) = 0.24646 0.00521
#
# Static dielectric constant tensor:
#      x y z
#    x 2.040790 0.000000 0.000000 
#    y 0.000000 1.897510 0.000000 
#    z 0.000000 0.000000 2.069500 
# 
# From -- ./inp_files/6249.got.cif
#   From: 2010.05.17/outbox.cif.g08.bks.cpg/sg45_4_cif.got.tgz:6249.got - 2010.06.03 19:51:22.
