data_PCOD9376954
_publ_section_title
;
Structure prediction by ZEFSAII (Michael W. Deem and Ramdas Pophale) SiO2 
 PCOD9376954
Probable space group: I B A 2
;
_chemical_formula_sum "Si O2"
_cell_formula_units_Z 52
_cell_length_a 24.133915
_cell_length_b 5.191740
_cell_length_c 17.458586
_cell_angle_alpha 90.000000
_cell_angle_beta 90.000000
_cell_angle_gamma 90.000000
_cell_volume 2187.508657
_symmetry_space_group_name_H-M "I B A 2"
_symmetry_group_IT_number 45
_symmetry_cell_setting 'orthorhombic'
loop_
_space_group_symop_operation_xyz
x,y,z
-x,-y,z
-x,y,1/2+z
x,-y,1/2+z
1/2+x,1/2+y,1/2+z
1/2-x,1/2-y,1/2+z
1/2-x,1/2+y,z
1/2+x,1/2-y,z
loop_
_atom_site_type_symbol
_atom_site_label
_atom_site_fract_x
_atom_site_fract_y
_atom_site_fract_z
Si Si1 0.726675 0.650363 0.755910
Si Si2 0.889418 0.895163 0.792601
Si Si3 0.500000 0.000000 0.452025
Si Si4 0.938258 0.385068 0.724963
Si Si5 0.224373 0.730413 0.935241
Si Si6 0.397543 0.673278 0.443017
Si Si7 0.444480 0.632267 0.074375
O O1 0.767765 0.435512 0.721375
O O2 0.667445 0.511099 0.758378
O O3 0.739236 0.720734 0.845470
O O4 0.901835 0.607750 0.765119
O O5 0.933803 0.105398 0.763865
O O6 0.888284 0.936639 0.884070
O O7 0.451425 0.832469 0.414355
O O8 0.532465 0.803542 0.505647
O O9 0.919678 0.317225 0.638297
O O10 0.000000 0.500000 0.723824
O O11 0.238870 0.006132 0.970287
O O12 0.159473 0.670270 0.939187
O O13 0.408285 0.578319 0.529721
O O14 0.500000 0.500000 0.108655
#
# Coordination Sequence:
#
# PCOD9376954 Si02
#       7
#     8   8   4   8   8   8   8
#     4   9  17  35  60  86 121 161 207 259 317 388
#     4  11  25  39  64 100 127 163 213 275 331 363
#     4  10  22  38  66  90 130 174 222 258 332 400
#     4  12  25  42  62  88 132 175 215 256 319 401
#     4   9  19  35  60  91 128 168 213 269 325 382
#     4  10  24  39  66 100 132 169 224 279 329 388
#     4  10  22  42  64  88 124 181 222 254 317 413
#
# _framework density 23.771336000000002
#
# number of rings (size 3 to 8) (size 9 to 14) (size 15 to 20)
#    0.000    1.846    0.769    2.308    7.538    4.923 
#    0.000    0.000    0.000    5.538    0.000    0.000 
#    0.000    0.000    0.000    0.000    0.000    0.000 
#
# Total GULP energy -145149.303668 kJ/mol
# GULP energy per Si atom -5582.665526 kJ/mol
# Density = 2.371723 g / cm^3
# Si number density = 23.771336 Si / 1000 Ang^3
#
#
#
# Elastic Constant Matrix: (Units=GPa)
#
#
# Indices 1 2 3 4 5 6 
#
# 1 78.6192 37.6748 30.3390 0.0000 0.0000 0.0000
# 2 37.6748 107.2358 8.9633 0.0000 0.0000 0.0000
# 3 30.3390 8.9633 37.5476 0.0000 0.0000 0.0000
# 4 0.0000 0.0000 0.0000 -19.6721 0.0000 0.0000
# 5 0.0000 0.0000 0.0000 0.0000 -6.3081 0.0000
# 6 0.0000 0.0000 0.0000 0.0000 0.0000 38.3698
#
#
#
# Elastic Compliance Matrix: (Units=1/GPa)
#
#
# Indices 1 2 3 4 5 6 
#
# 1 0.022079 -0.006393 -0.016314 0.000000 0.000000 0.000000
# 2 -0.006393 0.011366 0.002452 0.000000 0.000000 0.000000
# 3 -0.016314 0.002452 0.039229 0.000000 0.000000 0.000000
# 4 0.000000 0.000000 0.000000 -0.050833 0.000000 0.000000
# 5 0.000000 0.000000 0.000000 0.000000 -0.158525 0.000000
# 6 0.000000 0.000000 0.000000 0.000000 0.000000 0.026062
#
#
# Mechanical properties :
#
#
# Convention : Reuss Voigt Hill
#
# Bulk Modulus (GPa) = 31.08949 41.92855 36.50902
# Shear Modulus (GPa) = -84.18679 12.23961 -35.97359
#
# Velocity S-wave (km/s) = -5.95753 2.27158 -3.89436
# Velocity P-wave (km/s) = 5.84944 4.95547 2.19764
#
# Compressibility (1/GPa) = 0.03216521
#
# Stress axis : x y z
#
# Youngs Moduli (GPa) = 45.29267 87.97888 25.49127
#
# Poissons Ratio (x) = 0.56247 0.41586
# Poissons Ratio (y) = 0.28957 -0.06252
# Poissons Ratio (z) = 0.73889 -0.21576
#
# Static dielectric constant tensor:
#      x y z
#    x 1.973090 0.000000 0.000000 
#    y 0.000000 2.153050 0.000000 
#    z 0.000000 0.000000 1.916020 
# 
# From -- ./inp_files/9299.got.cif
#   From: 2010.05.17/outbox.cif.g08.bks.cpg/sg45_5_cif.got.tgz:9299.got - 2010.06.03 19:51:22.
