data_PCOD9376092
_publ_section_title
;
Structure prediction by ZEFSAII (Michael W. Deem and Ramdas Pophale) SiO2 
 PCOD9376092
Probable space group: I B A 2
;
_chemical_formula_sum "Si O2"
_cell_formula_units_Z 64
_cell_length_a 15.097407
_cell_length_b 7.458692
_cell_length_c 22.277526
_cell_angle_alpha 90.000000
_cell_angle_beta 90.000000
_cell_angle_gamma 90.000000
_cell_volume 2508.603339
_symmetry_space_group_name_H-M "I B A 2"
_symmetry_group_IT_number 45
_symmetry_cell_setting 'orthorhombic'
loop_
_space_group_symop_operation_xyz
x,y,z
-x,-y,z
-x,y,1/2+z
x,-y,1/2+z
1/2+x,1/2+y,1/2+z
1/2-x,1/2-y,1/2+z
1/2-x,1/2+y,z
1/2+x,1/2-y,z
loop_
_atom_site_type_symbol
_atom_site_label
_atom_site_fract_x
_atom_site_fract_y
_atom_site_fract_z
Si Si1 0.718061 0.493873 0.332130
Si Si2 0.673031 0.408041 0.963416
Si Si3 0.367851 0.820404 0.488722
Si Si4 0.643607 0.700271 0.661566
Si Si5 0.469238 0.709241 0.048825
Si Si6 0.002598 0.780817 0.759254
Si Si7 0.106658 0.372600 0.355049
Si Si8 0.169532 0.827397 0.204488
O O1 0.691599 0.604399 0.392364
O O2 0.824361 0.477570 0.332964
O O3 0.665152 0.309006 0.340465
O O4 0.695843 0.581610 0.268250
O O5 0.642880 0.609591 0.975168
O O6 0.767192 0.385093 0.997362
O O7 0.595082 0.287479 0.990340
O O8 0.442669 0.826150 0.539116
O O9 0.402310 0.897644 0.425725
O O10 0.594494 0.767011 0.602790
O O11 0.587637 0.761880 0.718924
O O12 0.746045 0.740051 0.673855
O O13 0.636942 0.484989 0.661095
O O14 0.500000 0.500000 0.057181
O O15 0.016739 0.681366 0.821785
O O16 0.917196 0.717970 0.722307
O O17 0.000000 0.000000 0.766954
#
# Coordination Sequence:
#
# PCOD9376092 Si02
#       8
#     8   8   8   8   8   8   8   8
#     4  10  17  33  56  87 122 149 199 241 300 350
#     4   9  20  34  58  88 116 158 195 247 298 347
#     4   9  20  36  59  89 118 156 196 246 297 348
#     4  11  23  39  59  86 118 158 197 242 297 351
#     4  10  21  38  60  85 117 155 209 244 284 353
#     4  10  19  32  55  85 109 152 196 236 281 346
#     4  10  18  32  59  88 123 155 195 243 299 354
#     4  11  21  37  61  85 119 155 195 250 295 347
#
# _framework density 25.512205999999999
#
# number of rings (size 3 to 8) (size 9 to 14) (size 15 to 20)
#    0.000    2.000    3.750    1.125    1.750    3.500 
#    0.000    1.250    0.000    4.500    0.000    0.000 
#    0.000    0.000    0.000    0.000    0.000    0.000 
#
# Total GULP energy -179002.837867 kJ/mol
# GULP energy per Si atom -5593.838683 kJ/mol
# Density = 2.545414 g / cm^3
# Si number density = 25.512206 Si / 1000 Ang^3
#
#
#
# Elastic Constant Matrix: (Units=GPa)
#
#
# Indices 1 2 3 4 5 6 
#
# 1 157.8451 16.1762 37.7128 0.0000 0.0000 0.0000
# 2 16.1762 54.3142 13.8891 0.0000 0.0000 0.0000
# 3 37.7128 13.8891 70.2438 0.0000 0.0000 0.0000
# 4 0.0000 0.0000 0.0000 16.1508 0.0000 0.0000
# 5 0.0000 0.0000 0.0000 0.0000 51.9894 0.0000
# 6 0.0000 0.0000 0.0000 0.0000 0.0000 30.1729
#
#
#
# Elastic Compliance Matrix: (Units=1/GPa)
#
#
# Indices 1 2 3 4 5 6 
#
# 1 0.007346 -0.001242 -0.003698 0.000000 0.000000 0.000000
# 2 -0.001242 0.019602 -0.003209 0.000000 0.000000 0.000000
# 3 -0.003698 -0.003209 0.016856 0.000000 0.000000 0.000000
# 4 0.000000 0.000000 0.000000 0.061916 0.000000 0.000000
# 5 0.000000 0.000000 0.000000 0.000000 0.019235 0.000000
# 6 0.000000 0.000000 0.000000 0.000000 0.000000 0.033142
#
#
# Mechanical properties :
#
#
# Convention : Reuss Voigt Hill
#
# Bulk Modulus (GPa) = 36.35657 46.43990 41.39824
# Shear Modulus (GPa) = 27.23824 33.97096 30.60460
#
# Velocity S-wave (km/s) = 3.27104 3.65301 3.46729
# Velocity P-wave (km/s) = 5.34302 6.00293 5.68256
#
# Compressibility (1/GPa) = 0.02750534
#
# Stress axis : x y z
#
# Youngs Moduli (GPa) = 136.12343 51.01543 59.32502
#
# Poissons Ratio (x) = 0.06337 0.21941
# Poissons Ratio (y) = 0.16908 0.19037
# Poissons Ratio (z) = 0.50345 0.16371
#
# Static dielectric constant tensor:
#      x y z
#    x 2.069970 0.000000 0.000000 
#    y 0.000000 2.088140 0.000000 
#    z 0.000000 0.000000 1.994350 
# 
# From -- ./inp_files/9776.got.cif
#   From: 2010.05.17/outbox.cif.g08.bks.cpg/sg45_5_cif.got.tgz:9776.got - 2010.06.03 19:51:22.
