data_PCOD9376567
_publ_section_title
;
Structure prediction by ZEFSAII (Michael W. Deem and Ramdas Pophale) SiO2 
 PCOD9376567
Probable space group: I B A 2
;
_chemical_formula_sum "Si O2"
_cell_formula_units_Z 40
_cell_length_a 9.581605
_cell_length_b 11.954764
_cell_length_c 16.328386
_cell_angle_alpha 90.000000
_cell_angle_beta 90.000000
_cell_angle_gamma 90.000000
_cell_volume 1870.348470
_symmetry_space_group_name_H-M "I B A 2"
_symmetry_group_IT_number 45
_symmetry_cell_setting 'orthorhombic'
loop_
_space_group_symop_operation_xyz
x,y,z
-x,-y,z
-x,y,1/2+z
x,-y,1/2+z
1/2+x,1/2+y,1/2+z
1/2-x,1/2-y,1/2+z
1/2-x,1/2+y,z
1/2+x,1/2-y,z
loop_
_atom_site_type_symbol
_atom_site_label
_atom_site_fract_x
_atom_site_fract_y
_atom_site_fract_z
Si Si1 0.771016 0.737652 0.776050
Si Si2 0.723035 0.637681 0.427041
Si Si3 0.370204 0.925114 0.920856
Si Si4 0.023719 0.761973 0.002590
Si Si5 0.486300 0.365432 0.679865
O O1 0.719700 0.837376 0.836035
O O2 0.821122 0.648452 0.844415
O O3 0.658254 0.679600 0.718237
O O4 0.894169 0.795161 0.725974
O O5 0.751683 0.510251 0.449588
O O6 0.559140 0.665121 0.434290
O O7 0.820348 0.720249 0.482216
O O8 0.500000 0.000000 0.893653
O O9 0.433286 0.851928 0.994814
O O10 0.002549 0.828237 0.085682
O O11 0.500000 0.500000 0.689114
#
# Coordination Sequence:
#
# PCOD9376567 Si02
#       5
#     8   8   8   8   8
#     4  11  23  41  65  93 126 161 210 259 308 376
#     4  10  20  40  65  88 116 160 209 257 304 361
#     4   9  19  39  64  88 116 161 211 256 305 363
#     4  10  22  38  59  88 122 156 202 249 301 371
#     4  12  26  42  62  95 132 166 202 257 319 369
#
# _framework density 21.386389999999999
#
# number of rings (size 3 to 8) (size 9 to 14) (size 15 to 20)
#    0.000    1.600    0.000    6.000    0.000    4.800 
#    0.000   17.000    0.000    0.000    0.000    0.000 
#    0.000    0.000    0.000    0.000    0.000    0.000 
#
# Total GULP energy -111540.974846 kJ/mol
# GULP energy per Si atom -5577.048742 kJ/mol
# Density = 2.133771 g / cm^3
# Si number density = 21.386390 Si / 1000 Ang^3
#
#
#
# Elastic Constant Matrix: (Units=GPa)
#
#
# Indices 1 2 3 4 5 6 
#
# 1 95.2893 55.6371 26.7055 0.0000 0.0000 0.0000
# 2 55.6371 103.1315 19.6660 0.0000 0.0000 0.0000
# 3 26.7055 19.6660 75.6844 0.0000 0.0000 0.0000
# 4 0.0000 0.0000 0.0000 31.4149 0.0000 0.0000
# 5 0.0000 0.0000 0.0000 0.0000 1.3059 0.0000
# 6 0.0000 0.0000 0.0000 0.0000 0.0000 33.4265
#
#
#
# Elastic Compliance Matrix: (Units=1/GPa)
#
#
# Indices 1 2 3 4 5 6 
#
# 1 0.016215 -0.008056 -0.003628 0.000000 0.000000 0.000000
# 2 -0.008056 0.014204 -0.000848 0.000000 0.000000 0.000000
# 3 -0.003628 -0.000848 0.014713 0.000000 0.000000 0.000000
# 4 0.000000 0.000000 0.000000 0.031832 0.000000 0.000000
# 5 0.000000 0.000000 0.000000 0.000000 0.765769 0.000000
# 6 0.000000 0.000000 0.000000 0.000000 0.000000 0.029916
#
#
# Mechanical properties :
#
#
# Convention : Reuss Voigt Hill
#
# Bulk Modulus (GPa) = 49.83123 53.12471 51.47797
# Shear Modulus (GPa) = 5.52851 24.70256 15.11554
#
# Velocity S-wave (km/s) = 1.60956 3.40230 2.66142
# Velocity P-wave (km/s) = 5.17738 6.35048 5.79370
#
# Compressibility (1/GPa) = 0.02006774
#
# Stress axis : x y z
#
# Youngs Moduli (GPa) = 61.67265 70.40305 67.96512
#
# Poissons Ratio (x) = 0.56714 0.24659
# Poissons Ratio (y) = 0.49681 0.05766
# Poissons Ratio (z) = 0.22376 0.05973
#
# Static dielectric constant tensor:
#      x y z
#    x 1.821050 0.000000 0.000000 
#    y 0.000000 1.971460 0.000000 
#    z 0.000000 0.000000 1.776380 
# 
# From -- ./inp_files/5992.got.cif
#   From: 2010.05.17/outbox.cif.g08.bks.cpg/sg45_3_cif.got.tgz:5992.got - 2010.06.03 19:51:22.
