data_PCOD9376465
_publ_section_title
;
Structure prediction by ZEFSAII (Michael W. Deem and Ramdas Pophale) SiO2 
 PCOD9376465
Probable space group: I B A 2
;
_chemical_formula_sum "Si O2"
_cell_formula_units_Z 52
_cell_length_a 19.286117
_cell_length_b 8.613088
_cell_length_c 13.532209
_cell_angle_alpha 90.000000
_cell_angle_beta 90.000000
_cell_angle_gamma 90.000000
_cell_volume 2247.876143
_symmetry_space_group_name_H-M "I B A 2"
_symmetry_group_IT_number 45
_symmetry_cell_setting 'orthorhombic'
loop_
_space_group_symop_operation_xyz
x,y,z
-x,-y,z
-x,y,1/2+z
x,-y,1/2+z
1/2+x,1/2+y,1/2+z
1/2-x,1/2-y,1/2+z
1/2-x,1/2+y,z
1/2+x,1/2-y,z
loop_
_atom_site_type_symbol
_atom_site_label
_atom_site_fract_x
_atom_site_fract_y
_atom_site_fract_z
Si Si1 0.406715 0.725173 0.625000
Si Si2 0.873320 0.325099 0.531769
Si Si3 0.000000 0.500000 0.080575
Si Si4 0.878407 0.092582 0.695514
Si Si5 0.215397 0.552747 0.166713
Si Si6 0.212381 0.525142 0.395156
Si Si7 0.353009 0.691307 0.416641
O O1 0.414844 0.574063 0.691755
O O2 0.329916 0.794244 0.646166
O O3 0.405394 0.677454 0.508663
O O4 0.460964 0.864815 0.641477
O O5 0.939729 0.431243 0.513795
O O6 0.902896 0.192595 0.601848
O O7 0.817524 0.420236 0.598464
O O8 0.831763 0.323672 0.430181
O O9 0.797486 0.073219 0.662995
O O10 0.881357 0.169941 0.804285
O O11 0.203956 0.508949 0.279307
O O12 0.291444 0.563633 0.423227
O O13 0.182595 0.360777 0.431783
#
# Coordination Sequence:
#
# PCOD9376465 Si02
#       7
#     8   8   4   8   8   8   8
#     4  11  24  42  65  92 139 176 223 271 331 390
#     4  11  22  40  63  90 127 177 213 269 325 384
#     4  10  24  46  64  86 122 182 236 268 316 386
#     4  11  23  37  66  99 133 165 218 273 338 409
#     4  10  20  37  61  98 131 171 201 265 339 411
#     4  11  22  36  62  98 137 165 213 264 342 408
#     4  11  23  38  62 101 134 167 210 269 343 412
#
# _framework density 23.132947000000001
#
# number of rings (size 3 to 8) (size 9 to 14) (size 15 to 20)
#    0.000    1.231    4.615    2.769    8.615    0.615 
#    0.000    6.923    0.000    1.846    0.000    0.000 
#    0.000    0.000    0.000    0.000    0.000    0.000 
#
# Total GULP energy -145100.121036 kJ/mol
# GULP energy per Si atom -5580.773886 kJ/mol
# Density = 2.308030 g / cm^3
# Si number density = 23.132947 Si / 1000 Ang^3
#
#
#
# Elastic Constant Matrix: (Units=GPa)
#
#
# Indices 1 2 3 4 5 6 
#
# 1 67.7400 8.5630 11.1218 0.0000 0.0000 0.0000
# 2 8.5630 107.3441 17.6622 0.0000 0.0000 0.0000
# 3 11.1218 17.6622 57.8590 0.0000 0.0000 0.0000
# 4 0.0000 0.0000 0.0000 24.2716 0.0000 0.0000
# 5 0.0000 0.0000 0.0000 0.0000 2.5766 0.0000
# 6 0.0000 0.0000 0.0000 0.0000 0.0000 20.7294
#
#
#
# Elastic Compliance Matrix: (Units=1/GPa)
#
#
# Indices 1 2 3 4 5 6 
#
# 1 0.015305 -0.000776 -0.002705 0.000000 0.000000 0.000000
# 2 -0.000776 0.009848 -0.002857 0.000000 0.000000 0.000000
# 3 -0.002705 -0.002857 0.018676 0.000000 0.000000 0.000000
# 4 0.000000 0.000000 0.000000 0.041200 0.000000 0.000000
# 5 0.000000 0.000000 0.000000 0.000000 0.388115 0.000000
# 6 0.000000 0.000000 0.000000 0.000000 0.000000 0.048241
#
#
# Mechanical properties :
#
#
# Convention : Reuss Voigt Hill
#
# Bulk Modulus (GPa) = 32.10059 34.18190 33.14125
# Shear Modulus (GPa) = 9.18368 22.55526 15.86947
#
# Velocity S-wave (km/s) = 1.99464 3.12593 2.62202
# Velocity P-wave (km/s) = 4.38309 5.27607 4.85018
#
# Compressibility (1/GPa) = 0.03115208
#
# Stress axis : x y z
#
# Youngs Moduli (GPa) = 65.34022 101.54537 53.54602
#
# Poissons Ratio (x) = 0.07878 0.14485
# Poissons Ratio (y) = 0.05069 0.15298
# Poissons Ratio (z) = 0.17675 0.29012
#
# Static dielectric constant tensor:
#      x y z
#    x 1.887680 0.000000 0.000000 
#    y 0.000000 1.986540 0.000000 
#    z 0.000000 0.000000 1.877770 
# 
# From -- ./inp_files/5700.got.cif
#   From: 2010.05.17/outbox.cif.g08.bks.cpg/sg45_3_cif.got.tgz:5700.got - 2010.06.03 19:51:22.
