data_PCOD9376207
_publ_section_title
;
Structure prediction by ZEFSAII (Michael W. Deem and Ramdas Pophale) SiO2 
 PCOD9376207
Probable space group: I B A 2
;
_chemical_formula_sum "Si O2"
_cell_formula_units_Z 64
_cell_length_a 20.509405
_cell_length_b 30.508029
_cell_length_c 5.119629
_cell_angle_alpha 90.000000
_cell_angle_beta 90.000000
_cell_angle_gamma 90.000000
_cell_volume 3203.359660
_symmetry_space_group_name_H-M "I B A 2"
_symmetry_group_IT_number 45
_symmetry_cell_setting 'orthorhombic'
loop_
_space_group_symop_operation_xyz
x,y,z
-x,-y,z
-x,y,1/2+z
x,-y,1/2+z
1/2+x,1/2+y,1/2+z
1/2-x,1/2-y,1/2+z
1/2-x,1/2+y,z
1/2+x,1/2-y,z
loop_
_atom_site_type_symbol
_atom_site_label
_atom_site_fract_x
_atom_site_fract_y
_atom_site_fract_z
Si Si1 0.713375 0.406309 0.607940
Si Si2 0.955867 0.945860 0.348119
Si Si3 0.540307 0.654718 0.810196
Si Si4 0.176329 0.281848 0.682008
Si Si5 0.253796 0.190718 0.687093
Si Si6 0.701397 0.982728 0.614955
Si Si7 0.046046 0.247223 0.462944
Si Si8 0.673544 0.546026 0.596322
O O1 0.718515 0.354879 0.633715
O O2 0.780663 0.432710 0.672195
O O3 0.701063 0.420257 0.310996
O O4 0.664916 0.428228 0.822816
O O5 0.892656 0.970351 0.234073
O O6 0.987997 0.952578 0.629770
O O7 0.934830 0.894324 0.350166
O O8 0.523356 0.657261 0.502720
O O9 0.575806 0.697731 0.918973
O O10 0.206950 0.232918 0.676010
O O11 0.189751 0.300241 0.971172
O O12 0.104115 0.277398 0.565504
O O13 0.217101 0.310333 0.476784
O O14 0.666902 0.991419 0.343834
O O15 0.771122 0.008819 0.563753
O O16 0.990581 0.252015 0.686035
#
# Coordination Sequence:
#
# PCOD9376207 Si02
#       8
#     8   8   8   8   8   8   8   8
#     4  10  19  33  52  70  88 122 164 197 243 305
#     4  10  19  31  43  63  92 120 157 209 260 298
#     4   8  16  28  40  60  87 113 152 199 239 284
#     4  10  21  36  51  72 106 128 167 216 244 307
#     4  10  21  36  51  74  99 136 166 203 264 297
#     4   8  16  30  48  67  90 111 152 201 237 283
#     4  10  19  33  51  72  94 131 169 206 256 295
#     4  10  19  31  50  72  90 121 161 206 246 304
#
# _framework density 19.979023999999999
#
# number of rings (size 3 to 8) (size 9 to 14) (size 15 to 20)
#    0.000    2.500    0.000    2.250    1.750    0.000 
#    6.750    0.000    0.000   20.250    0.000    0.000 
#    0.000    0.000    0.000    0.000    0.000  393.750 
#
# Total GULP energy -178272.492747 kJ/mol
# GULP energy per Si atom -5571.015398 kJ/mol
# Density = 1.993355 g / cm^3
# Si number density = 19.979024 Si / 1000 Ang^3
#
#
#
# Elastic Constant Matrix: (Units=GPa)
#
#
# Indices 1 2 3 4 5 6 
#
# 1 20.5820 0.8536 -11.6651 0.0000 0.0000 0.0000
# 2 0.8536 57.6290 -0.9260 0.0000 0.0000 0.0000
# 3 -11.6651 -0.9260 92.4217 0.0000 0.0000 0.0000
# 4 0.0000 0.0000 0.0000 21.2710 0.0000 0.0000
# 5 0.0000 0.0000 0.0000 0.0000 14.2428 0.0000
# 6 0.0000 0.0000 0.0000 0.0000 0.0000 11.0250
#
#
#
# Elastic Compliance Matrix: (Units=1/GPa)
#
#
# Indices 1 2 3 4 5 6 
#
# 1 0.052355 -0.000669 0.006601 0.000000 0.000000 0.000000
# 2 -0.000669 0.017364 0.000089 0.000000 0.000000 0.000000
# 3 0.006601 0.000089 0.011654 0.000000 0.000000 0.000000
# 4 0.000000 0.000000 0.000000 0.047012 0.000000 0.000000
# 5 0.000000 0.000000 0.000000 0.000000 0.070211 0.000000
# 6 0.000000 0.000000 0.000000 0.000000 0.000000 0.090703
#
#
# Mechanical properties :
#
#
# Convention : Reuss Voigt Hill
#
# Bulk Modulus (GPa) = 10.70480 16.35086 13.52783
# Shear Modulus (GPa) = 16.21298 21.46578 18.83938
#
# Velocity S-wave (km/s) = 2.85177 3.28138 3.07409
# Velocity P-wave (km/s) = 4.02655 4.74957 4.40293
#
# Compressibility (1/GPa) = 0.09341600
#
# Stress axis : x y z
#
# Youngs Moduli (GPa) = 19.10024 57.59137 85.80691
#
# Poissons Ratio (x) = 0.03855 -0.56644
# Poissons Ratio (y) = 0.01279 -0.00768
# Poissons Ratio (z) = -0.12609 -0.00515
#
# Static dielectric constant tensor:
#      x y z
#    x 1.714550 0.000000 0.000000 
#    y 0.000000 1.764430 0.000000 
#    z 0.000000 0.000000 1.784890 
# 
# From -- ./inp_files/342.got.cif
#   From: 2010.05.17/outbox.cif.g08.bks.cpg/sg45_1_cif.got.tgz:342.got - 2010.06.03 19:51:22.
