data_PCOD9376514
_publ_section_title
;
Structure prediction by ZEFSAII (Michael W. Deem and Ramdas Pophale) SiO2 
 PCOD9376514
Probable space group: I B A 2
;
_chemical_formula_sum "Si O2"
_cell_formula_units_Z 56
_cell_length_a 14.270591
_cell_length_b 11.009951
_cell_length_c 15.597163
_cell_angle_alpha 90.000000
_cell_angle_beta 90.000000
_cell_angle_gamma 90.000000
_cell_volume 2450.602974
_symmetry_space_group_name_H-M "I B A 2"
_symmetry_group_IT_number 45
_symmetry_cell_setting 'orthorhombic'
loop_
_space_group_symop_operation_xyz
x,y,z
-x,-y,z
-x,y,1/2+z
x,-y,1/2+z
1/2+x,1/2+y,1/2+z
1/2-x,1/2-y,1/2+z
1/2-x,1/2+y,z
1/2+x,1/2-y,z
loop_
_atom_site_type_symbol
_atom_site_label
_atom_site_fract_x
_atom_site_fract_y
_atom_site_fract_z
Si Si1 0.024145 0.687649 0.720510
Si Si2 0.846272 0.107468 0.745729
Si Si3 0.000000 0.000000 0.363335
Si Si4 0.755288 0.208042 0.909295
Si Si5 0.310337 0.033838 0.967904
Si Si6 0.964384 0.743477 0.914003
Si Si7 0.852199 0.538560 0.664272
Si Si8 0.500000 0.000000 0.447044
O O1 0.079512 0.810327 0.692494
O O2 0.094341 0.576185 0.704532
O O3 0.003881 0.705286 0.821239
O O4 0.922740 0.651650 0.681451
O O5 0.909724 0.011488 0.799660
O O6 0.801267 0.197735 0.816532
O O7 0.754429 0.056459 0.697763
O O8 0.997374 0.119101 0.422132
O O9 0.792369 0.324519 0.959097
O O10 0.646416 0.240632 0.906973
O O11 0.764110 0.071751 0.948236
O O12 0.397667 0.004507 0.904556
O O13 0.346412 0.012623 0.063381
O O14 0.994740 0.639239 0.981315
#
# Coordination Sequence:
#
# PCOD9376514 Si02
#       8
#     8   8   4   8   8   8   8   4
#     4  10  22  39  67 100 124 177 240 277 339 398
#     4  11  24  40  72  97 136 176 233 289 338 409
#     4  10  22  38  60 104 132 166 208 294 348 386
#     4  11  24  42  69 101 137 182 228 286 350 407
#     4  11  25  43  65 100 139 185 224 281 356 421
#     4  10  20  38  66 100 133 165 233 287 334 406
#     4  11  24  42  67  97 138 180 228 287 339 422
#     4  10  20  38  66  92 130 178 230 274 326 422
#
# _framework density 22.851520000000001
#
# number of rings (size 3 to 8) (size 9 to 14) (size 15 to 20)
#    0.000    1.429    1.429    4.286    8.000    0.000 
#    0.000    0.000    0.000    0.857    0.000    0.000 
#    0.000    0.000    0.000    0.000    0.000    0.000 
#
# Total GULP energy -155975.688496 kJ/mol
# GULP energy per Si atom -5570.560303 kJ/mol
# Density = 2.279951 g / cm^3
# Si number density = 22.851520 Si / 1000 Ang^3
#
#
#
# Elastic Constant Matrix: (Units=GPa)
#
#
# Indices 1 2 3 4 5 6 
#
# 1 132.9089 27.2333 7.2792 0.0000 0.0000 0.0000
# 2 27.2333 147.5067 23.1161 0.0000 0.0000 0.0000
# 3 7.2792 23.1161 48.0262 0.0000 0.0000 0.0000
# 4 0.0000 0.0000 0.0000 14.6320 0.0000 0.0000
# 5 0.0000 0.0000 0.0000 0.0000 19.1442 0.0000
# 6 0.0000 0.0000 0.0000 0.0000 0.0000 48.8208
#
#
#
# Elastic Compliance Matrix: (Units=1/GPa)
#
#
# Indices 1 2 3 4 5 6 
#
# 1 0.007832 -0.001363 -0.000531 0.000000 0.000000 0.000000
# 2 -0.001363 0.007570 -0.003437 0.000000 0.000000 0.000000
# 3 -0.000531 -0.003437 0.022557 0.000000 0.000000 0.000000
# 4 0.000000 0.000000 0.000000 0.068343 0.000000 0.000000
# 5 0.000000 0.000000 0.000000 0.000000 0.052235 0.000000
# 6 0.000000 0.000000 0.000000 0.000000 0.000000 0.020483
#
#
# Mechanical properties :
#
#
# Convention : Reuss Voigt Hill
#
# Bulk Modulus (GPa) = 36.63415 49.29987 42.96701
# Shear Modulus (GPa) = 25.15335 34.57361 29.86348
#
# Velocity S-wave (km/s) = 3.32132 3.89391 3.61896
# Velocity P-wave (km/s) = 5.54747 6.46819 6.02545
#
# Compressibility (1/GPa) = 0.02729693
#
# Stress axis : x y z
#
# Youngs Moduli (GPa) = 127.67679 132.10820 44.33272
#
# Poissons Ratio (x) = 0.18003 0.02355
# Poissons Ratio (y) = 0.17400 0.15236
# Poissons Ratio (z) = 0.06782 0.45404
#
# Static dielectric constant tensor:
#      x y z
#    x 1.954450 0.000000 0.000000 
#    y 0.000000 1.939830 0.000000 
#    z 0.000000 0.000000 1.894860 
# 
# From -- ./inp_files/6550.got.cif
#   From: 2010.05.17/outbox.cif.g08.bks.cpg/sg45_4_cif.got.tgz:6550.got - 2010.06.03 19:51:22.
