data_PCOD9376083
_publ_section_title
;
Structure prediction by ZEFSAII (Michael W. Deem and Ramdas Pophale) SiO2 
 PCOD9376083
Probable space group: I B A 2
;
_chemical_formula_sum "Si O2"
_cell_formula_units_Z 56
_cell_length_a 21.425957
_cell_length_b 14.895990
_cell_length_c 9.183206
_cell_angle_alpha 90.000000
_cell_angle_beta 90.000000
_cell_angle_gamma 90.000000
_cell_volume 2930.919752
_symmetry_space_group_name_H-M "I B A 2"
_symmetry_group_IT_number 45
_symmetry_cell_setting 'orthorhombic'
loop_
_space_group_symop_operation_xyz
x,y,z
-x,-y,z
-x,y,1/2+z
x,-y,1/2+z
1/2+x,1/2+y,1/2+z
1/2-x,1/2-y,1/2+z
1/2-x,1/2+y,z
1/2+x,1/2-y,z
loop_
_atom_site_type_symbol
_atom_site_label
_atom_site_fract_x
_atom_site_fract_y
_atom_site_fract_z
Si Si1 0.074904 0.571659 0.328910
Si Si2 0.748327 0.146137 0.239723
Si Si3 0.632949 0.274778 0.249221
Si Si4 0.820267 0.894376 0.469659
Si Si5 0.311870 0.595452 0.020921
Si Si6 0.455764 0.886732 0.170409
Si Si7 0.287411 0.057289 0.238623
O O1 0.056850 0.587585 0.499599
O O2 0.066695 0.468142 0.276253
O O3 0.146984 0.593336 0.295175
O O4 0.028028 0.622267 0.218239
O O5 0.697746 0.220881 0.272961
O O6 0.800866 0.131327 0.360534
O O7 0.712230 0.050773 0.224380
O O8 0.785192 0.162599 0.091389
O O9 0.626282 0.338648 0.389420
O O10 0.580920 0.202545 0.212711
O O11 0.645168 0.339380 0.112913
O O12 0.767171 0.918375 0.351070
O O13 0.836855 0.993308 0.529206
O O14 0.241221 0.592662 0.087796
#
# Coordination Sequence:
#
# PCOD9376083 Si02
#       7
#     8   8   8   8   8   8   8
#     4  11  22  39  55  83 120 158 206 240 307 349
#     4  10  17  29  49  80 114 153 197 231 283 355
#     4  11  20  35  54  84 117 151 198 241 294 358
#     4   9  19  34  53  83 119 154 188 239 298 358
#     4   9  20  33  53  83 120 158 189 239 299 355
#     4  11  24  38  61  83 117 163 201 254 291 363
#     4   9  18  32  54  76 118 164 190 228 298 361
#
# _framework density 19.106629000000002
#
# number of rings (size 3 to 8) (size 9 to 14) (size 15 to 20)
#    0.000    2.000    1.429    4.286    4.000    2.286 
#    0.000    2.857    0.000    0.000    0.000    3.000 
#    0.000    0.000    0.000    0.000    0.000    0.000 
#
# Total GULP energy -156141.327166 kJ/mol
# GULP energy per Si atom -5576.475970 kJ/mol
# Density = 1.906314 g / cm^3
# Si number density = 19.106629 Si / 1000 Ang^3
#
#
#
# Elastic Constant Matrix: (Units=GPa)
#
#
# Indices 1 2 3 4 5 6 
#
# 1 59.5092 42.4983 24.8120 0.0000 0.0000 0.0000
# 2 42.4983 99.2942 27.4404 0.0000 0.0000 0.0000
# 3 24.8120 27.4404 93.7979 0.0000 0.0000 0.0000
# 4 0.0000 0.0000 0.0000 9.8297 0.0000 0.0000
# 5 0.0000 0.0000 0.0000 0.0000 16.4411 0.0000
# 6 0.0000 0.0000 0.0000 0.0000 0.0000 33.6263
#
#
#
# Elastic Compliance Matrix: (Units=1/GPa)
#
#
# Indices 1 2 3 4 5 6 
#
# 1 0.025420 -0.009815 -0.003853 0.000000 0.000000 0.000000
# 2 -0.009815 0.014747 -0.001718 0.000000 0.000000 0.000000
# 3 -0.003853 -0.001718 0.012183 0.000000 0.000000 0.000000
# 4 0.000000 0.000000 0.000000 0.101732 0.000000 0.000000
# 5 0.000000 0.000000 0.000000 0.000000 0.060823 0.000000
# 6 0.000000 0.000000 0.000000 0.000000 0.000000 0.029739
#
#
# Mechanical properties :
#
#
# Convention : Reuss Voigt Hill
#
# Bulk Modulus (GPa) = 46.34315 49.12251 47.73283
# Shear Modulus (GPa) = 17.69236 22.50278 20.09757
#
# Velocity S-wave (km/s) = 3.04629 3.43556 3.24676
# Velocity P-wave (km/s) = 6.05647 6.44227 6.25235
#
# Compressibility (1/GPa) = 0.02157816
#
# Stress axis : x y z
#
# Youngs Moduli (GPa) = 39.33917 67.81188 82.08200
#
# Poissons Ratio (x) = 0.66558 0.31625
# Poissons Ratio (y) = 0.38612 0.14100
# Poissons Ratio (z) = 0.15157 0.11649
#
# Static dielectric constant tensor:
#      x y z
#    x 1.675100 0.000000 0.000000 
#    y 0.000000 1.701100 0.000000 
#    z 0.000000 0.000000 1.713340 
# 
# From -- ./inp_files/2330.got.cif
#   From: 2010.05.17/outbox.cif.g08.bks.cpg/sg45_2_cif.got.tgz:2330.got - 2010.06.03 19:51:22.
