data_PCOD9376146
_publ_section_title
;
Structure prediction by ZEFSAII (Michael W. Deem and Ramdas Pophale) SiO2 
 PCOD9376146
Probable space group: I B A 2
;
_chemical_formula_sum "Si O2"
_cell_formula_units_Z 32
_cell_length_a 14.871332
_cell_length_b 19.744841
_cell_length_c 4.905784
_cell_angle_alpha 90.000000
_cell_angle_beta 90.000000
_cell_angle_gamma 90.000000
_cell_volume 1440.495588
_symmetry_space_group_name_H-M "I B A 2"
_symmetry_group_IT_number 45
_symmetry_cell_setting 'orthorhombic'
loop_
_space_group_symop_operation_xyz
x,y,z
-x,-y,z
-x,y,1/2+z
x,-y,1/2+z
1/2+x,1/2+y,1/2+z
1/2-x,1/2-y,1/2+z
1/2-x,1/2+y,z
1/2+x,1/2-y,z
loop_
_atom_site_type_symbol
_atom_site_label
_atom_site_fract_x
_atom_site_fract_y
_atom_site_fract_z
Si Si1 0.365468 0.825473 0.514770
Si Si2 0.390601 0.044425 0.735883
Si Si3 0.245856 0.637919 0.553516
Si Si4 0.443232 0.319200 0.123104
O O1 0.423924 0.885770 0.374274
O O2 0.294224 0.807889 0.273007
O O3 0.309109 0.852444 0.773729
O O4 0.077663 0.739196 0.095099
O O5 0.286340 0.067878 0.696092
O O6 0.410800 0.016721 0.438032
O O7 0.351328 0.645178 0.533998
O O8 0.473811 0.335329 0.426617
#
# Coordination Sequence:
#
# PCOD9376146 Si02
#       4
#     8   8   8   8
#     4  10  20  36  60  83 114 144 193 234 277 332
#     4  10  18  34  60  88 104 140 196 244 268 318
#     4  10  20  36  60  83 114 144 193 234 277 332
#     4  12  24  36  56  86 122 150 180 230 294 344
#
# _framework density 22.214575
#
# number of rings (size 3 to 8) (size 9 to 14) (size 15 to 20)
#    1.500    0.000    2.500    4.500    0.000    0.000 
#    0.000    0.000    0.000    9.000    0.000    0.000 
#    0.000    0.000    0.000    0.000    0.000    0.000 
#
# Total GULP energy -89185.897190 kJ/mol
# GULP energy per Si atom -5574.118574 kJ/mol
# Density = 2.216401 g / cm^3
# Si number density = 22.214575 Si / 1000 Ang^3
#
#
#
# Elastic Constant Matrix: (Units=GPa)
#
#
# Indices 1 2 3 4 5 6 
#
# 1 89.9240 39.4812 20.5281 0.0000 0.0000 0.0000
# 2 39.4812 50.2342 1.4074 0.0000 0.0000 0.0000
# 3 20.5281 1.4074 123.5580 0.0000 0.0000 0.0000
# 4 0.0000 0.0000 0.0000 22.2002 0.0000 0.0000
# 5 0.0000 0.0000 0.0000 0.0000 26.6546 0.0000
# 6 0.0000 0.0000 0.0000 0.0000 0.0000 21.8604
#
#
#
# Elastic Compliance Matrix: (Units=1/GPa)
#
#
# Indices 1 2 3 4 5 6 
#
# 1 0.017908 -0.013996 -0.002816 0.000000 0.000000 0.000000
# 2 -0.013996 0.030852 0.001974 0.000000 0.000000 0.000000
# 3 -0.002816 0.001974 0.008539 0.000000 0.000000 0.000000
# 4 0.000000 0.000000 0.000000 0.045045 0.000000 0.000000
# 5 0.000000 0.000000 0.000000 0.000000 0.037517 0.000000
# 6 0.000000 0.000000 0.000000 0.000000 0.000000 0.045745
#
#
# Mechanical properties :
#
#
# Convention : Reuss Voigt Hill
#
# Bulk Modulus (GPa) = 36.20229 42.94995 39.57612
# Shear Modulus (GPa) = 22.27287 27.62969 24.95128
#
# Velocity S-wave (km/s) = 3.16986 3.53053 3.35504
# Velocity P-wave (km/s) = 5.45246 5.99964 5.73258
#
# Compressibility (1/GPa) = 0.02762256
#
# Stress axis : x y z
#
# Youngs Moduli (GPa) = 55.84005 32.41328 117.11362
#
# Poissons Ratio (x) = 0.45366 0.32978
# Poissons Ratio (y) = 0.78154 -0.23117
# Poissons Ratio (z) = 0.15724 -0.06398
#
# Static dielectric constant tensor:
#      x y z
#    x 1.867620 0.000000 0.000000 
#    y 0.000000 1.895930 0.000000 
#    z 0.000000 0.000000 1.860040 
# 
# From -- ./inp_files/252.got.cif
#   From: 2010.05.17/outbox.cif.g08.bks.cpg/sg45_1_cif.got.tgz:252.got - 2010.06.03 19:51:22.
