data_PCOD9376524
_publ_section_title
;
Structure prediction by ZEFSAII (Michael W. Deem and Ramdas Pophale) SiO2 
 PCOD9376524
Probable space group: I B A 2
;
_chemical_formula_sum "Si O2"
_cell_formula_units_Z 40
_cell_length_a 9.109427
_cell_length_b 11.502087
_cell_length_c 16.522619
_cell_angle_alpha 90.000000
_cell_angle_beta 90.000000
_cell_angle_gamma 90.000000
_cell_volume 1731.197421
_symmetry_space_group_name_H-M "I B A 2"
_symmetry_group_IT_number 45
_symmetry_cell_setting 'orthorhombic'
loop_
_space_group_symop_operation_xyz
x,y,z
-x,-y,z
-x,y,1/2+z
x,-y,1/2+z
1/2+x,1/2+y,1/2+z
1/2-x,1/2-y,1/2+z
1/2-x,1/2+y,z
1/2+x,1/2-y,z
loop_
_atom_site_type_symbol
_atom_site_label
_atom_site_fract_x
_atom_site_fract_y
_atom_site_fract_z
Si Si1 0.500000 0.000000 0.589381
Si Si2 0.551762 0.372381 0.760004
Si Si3 0.331175 0.144212 0.470809
Si Si4 0.000000 0.500000 0.842330
Si Si5 0.633604 0.841504 0.716264
Si Si6 0.492546 0.632802 0.949727
O O1 0.363962 0.034192 0.530709
O O2 0.479571 0.108938 0.649270
O O3 0.500000 0.500000 0.737992
O O4 0.423094 0.282077 0.743307
O O5 0.692214 0.338658 0.705408
O O6 0.573236 0.370529 0.858132
O O7 0.403544 0.266945 0.496701
O O8 0.163492 0.166790 0.450311
O O9 0.420340 0.099518 0.393119
O O10 0.117918 0.564161 0.787518
O O11 0.500000 0.500000 0.980808
#
# Coordination Sequence:
#
# PCOD9376524 Si02
#       6
#     4   8   8   4   8   8
#     4  10  28  46  68  94 150 200 244 280 374 450
#     4  11  24  41  73 108 137 177 246 307 365 423
#     4  11  24  44  68 101 143 189 242 300 363 437
#     4  10  20  38  72  90 136 186 234 304 352 410
#     4  11  24  44  68 101 143 189 242 300 363 437
#     4  11  24  41  73 108 137 177 246 307 365 423
#
# _framework density 23.105394
#
# number of rings (size 3 to 8) (size 9 to 14) (size 15 to 20)
#    0.000    1.200    2.000    3.600   11.200    1.600 
#    0.000    2.000    0.000    0.000    0.000    0.000 
#    0.000    0.000    0.000    0.000    0.000    0.000 
#
# Total GULP energy -111540.039802 kJ/mol
# GULP energy per Si atom -5577.001990 kJ/mol
# Density = 2.305281 g / cm^3
# Si number density = 23.105394 Si / 1000 Ang^3
#
#
#
# Elastic Constant Matrix: (Units=GPa)
#
#
# Indices 1 2 3 4 5 6 
#
# 1 117.6594 43.1400 -2.5747 0.0000 0.0000 0.0000
# 2 43.1400 135.8757 8.4746 0.0000 0.0000 0.0000
# 3 -2.5747 8.4746 36.7105 0.0000 0.0000 0.0000
# 4 0.0000 0.0000 0.0000 16.1770 0.0000 0.0000
# 5 0.0000 0.0000 0.0000 0.0000 4.4320 0.0000
# 6 0.0000 0.0000 0.0000 0.0000 0.0000 32.2854
#
#
#
# Elastic Compliance Matrix: (Units=1/GPa)
#
#
# Indices 1 2 3 4 5 6 
#
# 1 0.009690 -0.003165 0.001410 0.000000 0.000000 0.000000
# 2 -0.003165 0.008501 -0.002184 0.000000 0.000000 0.000000
# 3 0.001410 -0.002184 0.027843 0.000000 0.000000 0.000000
# 4 0.000000 0.000000 0.000000 0.061816 0.000000 0.000000
# 5 0.000000 0.000000 0.000000 0.000000 0.225632 0.000000
# 6 0.000000 0.000000 0.000000 0.000000 0.000000 0.030974
#
#
# Mechanical properties :
#
#
# Convention : Reuss Voigt Hill
#
# Bulk Modulus (GPa) = 26.20768 43.14727 34.67747
# Shear Modulus (GPa) = 12.98526 26.65927 19.82227
#
# Velocity S-wave (km/s) = 2.37323 3.40047 2.93218
# Velocity P-wave (km/s) = 4.34476 5.84228 5.14826
#
# Compressibility (1/GPa) = 0.03815676
#
# Stress axis : x y z
#
# Youngs Moduli (GPa) = 103.19635 117.63813 35.91529
#
# Poissons Ratio (x) = 0.37227 -0.05065
# Poissons Ratio (y) = 0.32657 0.07845
# Poissons Ratio (z) = -0.14552 0.25696
#
# Static dielectric constant tensor:
#      x y z
#    x 1.877850 0.000000 0.000000 
#    y 0.000000 1.833670 0.000000 
#    z 0.000000 0.000000 1.989510 
# 
# From -- ./inp_files/7441.got.cif
#   From: 2010.05.17/outbox.cif.g08.bks.cpg/sg45_4_cif.got.tgz:7441.got - 2010.06.03 19:51:22.
