data_PCOD9376222
_publ_section_title
;
Structure prediction by ZEFSAII (Michael W. Deem and Ramdas Pophale) SiO2 
 PCOD9376222
Probable space group: I B A 2
;
_chemical_formula_sum "Si O2"
_cell_formula_units_Z 56
_cell_length_a 4.997585
_cell_length_b 14.910898
_cell_length_c 35.333498
_cell_angle_alpha 90.000000
_cell_angle_beta 90.000000
_cell_angle_gamma 90.000000
_cell_volume 2632.998570
_symmetry_space_group_name_H-M "I B A 2"
_symmetry_group_IT_number 45
_symmetry_cell_setting 'orthorhombic'
loop_
_space_group_symop_operation_xyz
x,y,z
-x,-y,z
-x,y,1/2+z
x,-y,1/2+z
1/2+x,1/2+y,1/2+z
1/2-x,1/2-y,1/2+z
1/2-x,1/2+y,z
1/2+x,1/2-y,z
loop_
_atom_site_type_symbol
_atom_site_label
_atom_site_fract_x
_atom_site_fract_y
_atom_site_fract_z
Si Si1 0.834185 0.189923 0.960340
Si Si2 0.006194 0.107252 0.881970
Si Si3 0.034880 0.691555 0.753739
Si Si4 0.331476 0.312016 0.042809
Si Si5 0.506327 0.108900 0.835491
Si Si6 0.054066 0.812934 0.123889
Si Si7 0.249762 0.441146 0.190171
O O1 0.529689 0.223568 0.959233
O O2 0.414624 0.363608 0.923294
O O3 0.878110 0.144849 0.001618
O O4 0.298202 0.135731 0.868331
O O5 0.796319 0.137754 0.850131
O O6 0.000000 0.000000 0.881473
O O7 0.231312 0.776248 0.748577
O O8 0.125173 0.618677 0.723385
O O9 0.066506 0.652284 0.795743
O O10 0.530486 0.225754 0.043665
O O11 0.397074 0.357817 0.082647
O O12 0.500000 0.000000 0.831589
O O13 0.258224 0.728315 0.126334
O O14 0.128902 0.879144 0.157352
O O15 0.500000 0.500000 0.204459
O O16 0.000000 0.500000 0.175524
#
# Coordination Sequence:
#
# PCOD9376222 Si02
#       7
#     8   8   8   8   8   8   8
#     4  10  19  32  53  80 109 143 187 231 272 322
#     4  10  21  36  54  78 111 149 184 224 281 337
#     4  12  25  41  62  88 114 145 192 239 281 334
#     4   8  16  30  52  80 108 142 182 228 277 322
#     4  10  22  39  57  78 110 149 185 227 284 338
#     4  10  19  37  62  85 113 150 194 236 278 333
#     4  12  25  41  61  87 120 152 184 227 287 346
#
# _framework density 21.268529000000001
#
# number of rings (size 3 to 8) (size 9 to 14) (size 15 to 20)
#    0.000    1.714    0.000    4.714    0.000    5.143 
#    0.000    0.714    0.000    2.571    0.000    0.000 
#    0.000    0.000    0.000    0.000    0.000    0.000 
#
# Total GULP energy -156447.745451 kJ/mol
# GULP energy per Si atom -5587.419480 kJ/mol
# Density = 2.122012 g / cm^3
# Si number density = 21.268529 Si / 1000 Ang^3
#
#
#
# Elastic Constant Matrix: (Units=GPa)
#
#
# Indices 1 2 3 4 5 6 
#
# 1 67.8653 2.5547 -7.0486 0.0000 0.0000 0.0000
# 2 2.5547 33.8499 29.6111 0.0000 0.0000 0.0000
# 3 -7.0486 29.6111 144.6391 0.0000 0.0000 0.0000
# 4 0.0000 0.0000 0.0000 185.7201 0.0000 0.0000
# 5 0.0000 0.0000 0.0000 0.0000 28.6603 0.0000
# 6 0.0000 0.0000 0.0000 0.0000 0.0000 20.7905
#
#
#
# Elastic Compliance Matrix: (Units=1/GPa)
#
#
# Indices 1 2 3 4 5 6 
#
# 1 0.014937 -0.002149 0.001168 0.000000 0.000000 0.000000
# 2 -0.002149 0.036296 -0.007535 0.000000 0.000000 0.000000
# 3 0.001168 -0.007535 0.008513 0.000000 0.000000 0.000000
# 4 0.000000 0.000000 0.000000 0.005384 0.000000 0.000000
# 5 0.000000 0.000000 0.000000 0.000000 0.034891 0.000000
# 6 0.000000 0.000000 0.000000 0.000000 0.000000 0.048099
#
#
# Mechanical properties :
#
#
# Convention : Reuss Voigt Hill
#
# Bulk Modulus (GPa) = 23.41162 32.95429 28.18295
# Shear Modulus (GPa) = 27.87183 61.78333 44.82758
#
# Velocity S-wave (km/s) = 3.62397 5.39558 4.59595
# Velocity P-wave (km/s) = 5.34251 7.37186 6.43765
#
# Compressibility (1/GPa) = 0.04271384
#
# Stress axis : x y z
#
# Youngs Moduli (GPa) = 66.94665 27.55107 117.46256
#
# Poissons Ratio (x) = 0.05921 -0.13718
# Poissons Ratio (y) = 0.14386 0.88513
# Poissons Ratio (z) = -0.07818 0.20761
#
# Static dielectric constant tensor:
#      x y z
#    x 1.749560 0.000000 0.000000 
#    y 0.000000 1.754030 0.000000 
#    z 0.000000 0.000000 1.780490 
# 
# From -- ./inp_files/10130.got.cif
#   From: 2010.05.17/outbox.cif.g08.bks.cpg/sg45_6_cif.got.tgz:10130.got - 2010.06.03 19:51:22.
