data_PCOD9376333
_publ_section_title
;
Structure prediction by ZEFSAII (Michael W. Deem and Ramdas Pophale) SiO2 
 PCOD9376333
Probable space group: I B A 2
;
_chemical_formula_sum "Si O2"
_cell_formula_units_Z 64
_cell_length_a 14.347150
_cell_length_b 11.515283
_cell_length_c 18.680141
_cell_angle_alpha 90.000000
_cell_angle_beta 90.000000
_cell_angle_gamma 90.000000
_cell_volume 3086.173975
_symmetry_space_group_name_H-M "I B A 2"
_symmetry_group_IT_number 45
_symmetry_cell_setting 'orthorhombic'
loop_
_space_group_symop_operation_xyz
x,y,z
-x,-y,z
-x,y,1/2+z
x,-y,1/2+z
1/2+x,1/2+y,1/2+z
1/2-x,1/2-y,1/2+z
1/2-x,1/2+y,z
1/2+x,1/2-y,z
loop_
_atom_site_type_symbol
_atom_site_label
_atom_site_fract_x
_atom_site_fract_y
_atom_site_fract_z
Si Si1 0.373998 0.104951 0.102020
Si Si2 0.119395 0.269727 0.748704
Si Si3 0.795460 0.843038 0.003688
Si Si4 0.579985 0.836930 0.581506
Si Si5 0.890069 0.016144 0.912987
Si Si6 0.900996 0.758579 0.239826
Si Si7 0.390098 0.521119 0.751514
Si Si8 0.777665 0.760478 0.360188
O O1 0.372317 0.134880 0.186381
O O2 0.468275 0.165187 0.072779
O O3 0.386421 0.969700 0.083059
O O4 0.281121 0.148937 0.064775
O O5 0.145030 0.140426 0.716470
O O6 0.184420 0.298768 0.816599
O O7 0.009017 0.251043 0.765035
O O8 0.844369 0.964096 0.984073
O O9 0.748594 0.812930 0.928521
O O10 0.869041 0.744205 0.024711
O O11 0.601557 0.789734 0.660682
O O12 0.875260 0.953040 0.835829
O O13 0.844536 0.139214 0.893024
O O14 0.000000 0.000000 0.923335
O O15 0.838655 0.696669 0.299443
O O16 0.857508 0.889939 0.236427
O O17 0.500000 0.500000 0.736932
#
# Coordination Sequence:
#
# PCOD9376333 Si02
#       8
#     8   8   8   8   8   8   8   8
#     4  10  24  44  66  91 133 172 215 268 323 392
#     4  10  19  40  66  94 128 166 208 273 327 380
#     4  12  24  41  63  95 133 175 216 265 321 390
#     4  10  23  46  65  90 130 177 215 264 329 386
#     4  10  22  40  61  92 133 167 209 273 321 383
#     4   9  20  39  65  94 125 170 217 267 318 383
#     4   8  15  34  62  93 122 152 204 261 316 364
#     4  11  23  36  64 100 126 166 217 265 330 379
#
# _framework density 20.737652000000001
#
# number of rings (size 3 to 8) (size 9 to 14) (size 15 to 20)
#    0.000    2.000    1.250    2.250    1.750    1.000 
#   11.250    0.625    0.000    2.250    0.000    0.000 
#    0.000    0.000    0.000    0.000    0.000    0.000 
#
# Total GULP energy -178285.836377 kJ/mol
# GULP energy per Si atom -5571.432387 kJ/mol
# Density = 2.069045 g / cm^3
# Si number density = 20.737652 Si / 1000 Ang^3
#
#
#
# Elastic Constant Matrix: (Units=GPa)
#
#
# Indices 1 2 3 4 5 6 
#
# 1 86.3252 16.9147 18.2736 0.0000 0.0000 0.0000
# 2 16.9147 34.3167 1.5503 0.0000 0.0000 0.0000
# 3 18.2736 1.5503 36.6649 0.0000 0.0000 0.0000
# 4 0.0000 0.0000 0.0000 29.4158 0.0000 0.0000
# 5 0.0000 0.0000 0.0000 0.0000 14.1416 0.0000
# 6 0.0000 0.0000 0.0000 0.0000 0.0000 17.1410
#
#
#
# Elastic Compliance Matrix: (Units=1/GPa)
#
#
# Indices 1 2 3 4 5 6 
#
# 1 0.014366 -0.006770 -0.006874 0.000000 0.000000 0.000000
# 2 -0.006770 0.032387 0.002005 0.000000 0.000000 0.000000
# 3 -0.006874 0.002005 0.030615 0.000000 0.000000 0.000000
# 4 0.000000 0.000000 0.000000 0.033995 0.000000 0.000000
# 5 0.000000 0.000000 0.000000 0.000000 0.070713 0.000000
# 6 0.000000 0.000000 0.000000 0.000000 0.000000 0.058340
#
#
# Mechanical properties :
#
#
# Convention : Reuss Voigt Hill
#
# Bulk Modulus (GPa) = 18.48781 25.64264 22.06523
# Shear Modulus (GPa) = 17.74789 20.17757 18.96273
#
# Velocity S-wave (km/s) = 2.92863 3.12267 3.02720
# Velocity P-wave (km/s) = 4.51334 5.03920 4.78350
#
# Compressibility (1/GPa) = 0.05408969
#
# Stress axis : x y z
#
# Youngs Moduli (GPa) = 69.61027 30.87672 32.66372
#
# Poissons Ratio (x) = 0.20905 0.22451
# Poissons Ratio (y) = 0.47128 -0.06549
# Poissons Ratio (z) = 0.47847 -0.06191
#
# Static dielectric constant tensor:
#      x y z
#    x 1.798620 0.000000 0.000000 
#    y 0.000000 1.835110 0.000000 
#    z 0.000000 0.000000 1.730120 
# 
# From -- ./inp_files/8232.got.cif
#   From: 2010.05.17/outbox.cif.g08.bks.cpg/sg45_5_cif.got.tgz:8232.got - 2010.06.03 19:51:22.
