data_PCOD9376972
_publ_section_title
;
Structure prediction by ZEFSAII (Michael W. Deem and Ramdas Pophale) SiO2 
 PCOD9376972
Probable space group: I B A 2
;
_chemical_formula_sum "Si O2"
_cell_formula_units_Z 60
_cell_length_a 18.792558
_cell_length_b 8.587709
_cell_length_c 14.610111
_cell_angle_alpha 90.000000
_cell_angle_beta 90.000000
_cell_angle_gamma 90.000000
_cell_volume 2357.853048
_symmetry_space_group_name_H-M "I B A 2"
_symmetry_group_IT_number 45
_symmetry_cell_setting 'orthorhombic'
loop_
_space_group_symop_operation_xyz
x,y,z
-x,-y,z
-x,y,1/2+z
x,-y,1/2+z
1/2+x,1/2+y,1/2+z
1/2-x,1/2-y,1/2+z
1/2-x,1/2+y,z
1/2+x,1/2-y,z
loop_
_atom_site_type_symbol
_atom_site_label
_atom_site_fract_x
_atom_site_fract_y
_atom_site_fract_z
Si Si1 0.386110 0.526295 0.136310
Si Si2 0.903953 0.547593 0.395537
Si Si3 0.648748 0.526751 0.329347
Si Si4 0.280703 0.201778 0.800571
Si Si5 0.588998 0.185336 0.585664
Si Si6 0.218299 0.547841 0.607003
Si Si7 0.873784 0.761145 0.988943
Si Si8 0.000000 0.500000 0.232654
O O1 0.402090 0.513407 0.244575
O O2 0.414029 0.368250 0.094110
O O3 0.299672 0.508676 0.118585
O O4 0.409513 0.681392 0.083427
O O5 0.823331 0.598600 0.373877
O O6 0.932203 0.638147 0.483429
O O7 0.909106 0.367842 0.424702
O O8 0.946210 0.582220 0.303209
O O9 0.699050 0.376360 0.325133
O O10 0.696716 0.675728 0.302631
O O11 0.627736 0.579940 0.429953
O O12 0.300856 0.140807 0.699994
O O13 0.543102 0.111537 0.666139
O O14 0.666828 0.102247 0.597610
O O15 0.196938 0.667202 0.524891
#
# Coordination Sequence:
#
# PCOD9376972 Si02
#       8
#     8   8   8   8   8   8   8   4
#     4  11  23  40  65 105 148 181 231 293 369 438
#     4  11  25  43  71  97 133 183 243 301 348 423
#     4  11  24  35  63  96 142 189 221 282 354 437
#     4  11  22  41  58  95 140 183 232 282 351 416
#     4  11  24  42  72 103 135 191 241 294 358 429
#     4  10  22  39  65  99 146 188 226 292 357 445
#     4  11  23  40  63 104 141 182 237 283 364 438
#     4  12  24  48  74  98 134 182 256 306 340 420
#
# _framework density 25.446877000000001
#
# number of rings (size 3 to 8) (size 9 to 14) (size 15 to 20)
#    0.000    1.067    2.667    3.600   13.067    0.000 
#    0.000    0.000    0.000   28.000    0.000    0.000 
#    0.000    0.000    0.000    0.000    0.000    0.000 
#
# Total GULP energy -167772.263659 kJ/mol
# GULP energy per Si atom -5592.408789 kJ/mol
# Density = 2.538896 g / cm^3
# Si number density = 25.446877 Si / 1000 Ang^3
#
#
#
# Elastic Constant Matrix: (Units=GPa)
#
#
# Indices 1 2 3 4 5 6 
#
# 1 53.4186 -8.1626 19.4618 0.0000 0.0000 0.0000
# 2 -8.1626 87.1938 18.7481 0.0000 0.0000 0.0000
# 3 19.4618 18.7481 169.5464 0.0000 0.0000 0.0000
# 4 0.0000 0.0000 0.0000 40.0531 0.0000 0.0000
# 5 0.0000 0.0000 0.0000 0.0000 25.4619 0.0000
# 6 0.0000 0.0000 0.0000 0.0000 0.0000 3.0728
#
#
#
# Elastic Compliance Matrix: (Units=1/GPa)
#
#
# Indices 1 2 3 4 5 6 
#
# 1 0.020026 0.002427 -0.002567 0.000000 0.000000 0.000000
# 2 0.002427 0.012042 -0.001610 0.000000 0.000000 0.000000
# 3 -0.002567 -0.001610 0.006371 0.000000 0.000000 0.000000
# 4 0.000000 0.000000 0.000000 0.024967 0.000000 0.000000
# 5 0.000000 0.000000 0.000000 0.000000 0.039274 0.000000
# 6 0.000000 0.000000 0.000000 0.000000 0.000000 0.325441
#
#
# Mechanical properties :
#
#
# Convention : Reuss Voigt Hill
#
# Bulk Modulus (GPa) = 28.62214 41.13926 34.88070
# Shear Modulus (GPa) = 11.27984 32.39164 21.83574
#
# Velocity S-wave (km/s) = 2.10768 3.57166 2.93250
# Velocity P-wave (km/s) = 4.14672 5.76288 5.02027
#
# Compressibility (1/GPa) = 0.03493799
#
# Stress axis : x y z
#
# Youngs Moduli (GPa) = 49.93470 83.04208 156.96596
#
# Poissons Ratio (x) = -0.20152 0.40295
# Poissons Ratio (y) = -0.12118 0.25274
# Poissons Ratio (z) = 0.12819 0.13371
#
# Static dielectric constant tensor:
#      x y z
#    x 2.087820 0.000000 0.000000 
#    y 0.000000 1.982000 0.000000 
#    z 0.000000 0.000000 2.040000 
# 
# From -- ./inp_files/7039.got.cif
#   From: 2010.05.17/outbox.cif.g08.bks.cpg/sg45_4_cif.got.tgz:7039.got - 2010.06.03 19:51:22.
