data_PCOD9376923
_publ_section_title
;
Structure prediction by ZEFSAII (Michael W. Deem and Ramdas Pophale) SiO2 
 PCOD9376923
Probable space group: I B A 2
;
_chemical_formula_sum "Si O2"
_cell_formula_units_Z 64
_cell_length_a 31.026142
_cell_length_b 11.035734
_cell_length_c 8.953592
_cell_angle_alpha 90.000000
_cell_angle_beta 90.000000
_cell_angle_gamma 90.000000
_cell_volume 3065.676326
_symmetry_space_group_name_H-M "I B A 2"
_symmetry_group_IT_number 45
_symmetry_cell_setting 'orthorhombic'
loop_
_space_group_symop_operation_xyz
x,y,z
-x,-y,z
-x,y,1/2+z
x,-y,1/2+z
1/2+x,1/2+y,1/2+z
1/2-x,1/2-y,1/2+z
1/2-x,1/2+y,z
1/2+x,1/2-y,z
loop_
_atom_site_type_symbol
_atom_site_label
_atom_site_fract_x
_atom_site_fract_y
_atom_site_fract_z
Si Si1 0.849795 0.520948 0.378540
Si Si2 0.795326 0.157964 0.122775
Si Si3 0.460722 0.634893 0.017542
Si Si4 0.836272 0.969632 0.347897
Si Si5 0.875845 0.325456 0.149404
Si Si6 0.127871 0.157884 0.072516
Si Si7 0.952598 0.869918 0.666413
Si Si8 0.304106 0.854799 0.101190
O O1 0.876893 0.419326 0.287773
O O2 0.877625 0.599690 0.494741
O O3 0.812422 0.459312 0.479590
O O4 0.826562 0.601712 0.253690
O O5 0.828002 0.266856 0.155318
O O6 0.744861 0.182354 0.126722
O O7 0.807256 0.052794 0.240685
O O8 0.807707 0.109842 0.958444
O O9 0.463344 0.617785 0.840872
O O10 0.418816 0.715328 0.052705
O O11 0.449724 0.504887 0.095674
O O12 0.505329 0.682716 0.083317
O O13 0.865576 0.891039 0.238721
O O14 0.866368 0.051770 0.451810
O O15 0.910653 0.216247 0.151953
O O16 0.167797 0.244098 0.042313
#
# Coordination Sequence:
#
# PCOD9376923 Si02
#       8
#     8   8   8   8   8   8   8   8
#     4  10  24  42  60  83 119 167 220 257 291 356
#     4  11  22  37  59  89 123 159 202 255 316 373
#     4  11  22  38  64 100 129 155 193 246 318 396
#     4  10  22  36  57  88 123 156 195 244 306 383
#     4  11  24  43  64  88 122 166 213 259 304 358
#     4  11  22  38  59  85 119 156 195 246 307 367
#     4  11  23  40  66  97 131 162 192 247 322 387
#     4  11  23  38  59  85 118 163 208 256 308 357
#
# _framework density 20.876307000000001
#
# number of rings (size 3 to 8) (size 9 to 14) (size 15 to 20)
#    0.000    1.250    0.000    7.500    0.000   11.000 
#    0.000    0.000    0.000   12.750    0.000    0.000 
#    0.000    0.000    0.000    0.000    0.000    0.000 
#
# Total GULP energy -178934.787429 kJ/mol
# GULP energy per Si atom -5591.712107 kJ/mol
# Density = 2.082879 g / cm^3
# Si number density = 20.876307 Si / 1000 Ang^3
#
#
#
# Elastic Constant Matrix: (Units=GPa)
#
#
# Indices 1 2 3 4 5 6 
#
# 1 125.2010 15.8558 23.3335 0.0000 0.0000 0.0000
# 2 15.8558 52.0096 28.6779 0.0000 0.0000 0.0000
# 3 23.3335 28.6779 145.2347 0.0000 0.0000 0.0000
# 4 0.0000 0.0000 0.0000 15.4977 0.0000 0.0000
# 5 0.0000 0.0000 0.0000 0.0000 15.7032 0.0000
# 6 0.0000 0.0000 0.0000 0.0000 0.0000 22.8618
#
#
#
# Elastic Compliance Matrix: (Units=1/GPa)
#
#
# Indices 1 2 3 4 5 6 
#
# 1 0.008423 -0.002044 -0.000950 0.000000 0.000000 0.000000
# 2 -0.002044 0.022073 -0.004030 0.000000 0.000000 0.000000
# 3 -0.000950 -0.004030 0.007834 0.000000 0.000000 0.000000
# 4 0.000000 0.000000 0.000000 0.064526 0.000000 0.000000
# 5 0.000000 0.000000 0.000000 0.000000 0.063681 0.000000
# 6 0.000000 0.000000 0.000000 0.000000 0.000000 0.043741
#
#
# Mechanical properties :
#
#
# Convention : Reuss Voigt Hill
#
# Bulk Modulus (GPa) = 41.18343 50.90887 46.04615
# Shear Modulus (GPa) = 21.51288 27.78442 24.64865
#
# Velocity S-wave (km/s) = 3.21361 3.65212 3.43986
# Velocity P-wave (km/s) = 5.79137 6.49791 6.15478
#
# Compressibility (1/GPa) = 0.02428161
#
# Stress axis : x y z
#
# Youngs Moduli (GPa) = 118.72225 45.30513 127.65311
#
# Poissons Ratio (x) = 0.09262 0.12122
# Poissons Ratio (y) = 0.24270 0.51444
# Poissons Ratio (z) = 0.11274 0.18258
#
# Static dielectric constant tensor:
#      x y z
#    x 1.791690 0.000000 0.000000 
#    y 0.000000 1.807440 0.000000 
#    z 0.000000 0.000000 1.756760 
# 
# From -- ./inp_files/2787.got.cif
#   From: 2010.05.17/outbox.cif.g08.bks.cpg/sg45_2_cif.got.tgz:2787.got - 2010.06.03 19:51:22.
