data_PCOD9376200
_publ_section_title
;
Structure prediction by ZEFSAII (Michael W. Deem and Ramdas Pophale) SiO2 
 PCOD9376200
Probable space group: I B A 2
;
_chemical_formula_sum "Si O2"
_cell_formula_units_Z 64
_cell_length_a 17.987434
_cell_length_b 27.633526
_cell_length_c 8.482759
_cell_angle_alpha 90.000000
_cell_angle_beta 90.000000
_cell_angle_gamma 90.000000
_cell_volume 4216.408167
_symmetry_space_group_name_H-M "I B A 2"
_symmetry_group_IT_number 45
_symmetry_cell_setting 'orthorhombic'
loop_
_space_group_symop_operation_xyz
x,y,z
-x,-y,z
-x,y,1/2+z
x,-y,1/2+z
1/2+x,1/2+y,1/2+z
1/2-x,1/2-y,1/2+z
1/2-x,1/2+y,z
1/2+x,1/2-y,z
loop_
_atom_site_type_symbol
_atom_site_label
_atom_site_fract_x
_atom_site_fract_y
_atom_site_fract_z
Si Si1 0.451293 0.245845 0.488610
Si Si2 0.258125 0.284721 0.726980
Si Si3 0.147426 0.654305 0.408226
Si Si4 0.679290 0.697669 0.377995
Si Si5 0.093924 0.452634 0.279957
Si Si6 0.104712 0.263778 0.344206
Si Si7 0.308577 0.860284 0.273867
Si Si8 0.571776 0.055013 0.906375
O O1 0.413262 0.197424 0.416429
O O2 0.407833 0.291455 0.409016
O O3 0.432719 0.242102 0.672602
O O4 0.539066 0.244952 0.465126
O O5 0.211103 0.329325 0.789053
O O6 0.286029 0.289044 0.549322
O O7 0.207316 0.237400 0.752113
O O8 0.328533 0.274545 0.839733
O O9 0.180064 0.647836 0.585576
O O10 0.110213 0.604618 0.357426
O O11 0.723023 0.649380 0.324501
O O12 0.155558 0.411966 0.316964
O O13 0.109008 0.507966 0.327865
O O14 0.015095 0.441966 0.363218
O O15 0.079553 0.450270 0.093622
O O16 0.142384 0.316886 0.352045
#
# Coordination Sequence:
#
# PCOD9376200 Si02
#       8
#     8   8   8   8   8   8   8   8
#     4   9  17  27  39  58  81 105 134 165 197 235
#     4   9  17  28  41  58  80 105 135 168 201 239
#     4   9  18  30  42  58  80 107 140 172 202 239
#     4   9  17  28  41  58  80 105 135 168 201 239
#     4  10  19  30  43  60  83 109 140 175 208 243
#     4   9  17  27  39  58  81 105 134 165 197 235
#     4   9  18  30  42  58  80 107 140 172 202 239
#     4  10  19  30  43  60  83 109 140 175 208 243
#
# _framework density 15.178796
#
# number of rings (size 3 to 8) (size 9 to 14) (size 15 to 20)
#    0.000    2.750    0.000    4.500    0.000    7.000 
#    0.000    0.000    0.000    0.000    0.000    0.000 
#    0.000    1.000    0.000   11.000    0.000    8.000 
#
# Total GULP energy -178227.523259 kJ/mol
# GULP energy per Si atom -5569.610102 kJ/mol
# Density = 1.514425 g / cm^3
# Si number density = 15.178796 Si / 1000 Ang^3
#
#
#
# Elastic Constant Matrix: (Units=GPa)
#
#
# Indices 1 2 3 4 5 6 
#
# 1 25.8048 18.7414 3.0805 0.0000 0.0000 0.0000
# 2 18.7414 80.5137 11.2838 0.0000 0.0000 0.0000
# 3 3.0805 11.2838 18.4847 0.0000 0.0000 0.0003
# 4 0.0000 0.0000 0.0000 19.1959 0.0000 0.0000
# 5 0.0000 0.0000 0.0000 0.0000 23.1668 0.0000
# 6 0.0000 0.0000 0.0003 0.0000 0.0000 33.6761
#
#
#
# Elastic Compliance Matrix: (Units=1/GPa)
#
#
# Indices 1 2 3 4 5 6 
#
# 1 0.046663 -0.010686 -0.001253 0.000000 0.000000 0.000000
# 2 -0.010686 0.016030 -0.008004 0.000000 0.000000 0.000000
# 3 -0.001253 -0.008004 0.059194 0.000000 0.000000 0.000000
# 4 0.000000 0.000000 0.000000 0.052094 0.000000 0.000000
# 5 0.000000 0.000000 0.000000 0.000000 0.043165 0.000000
# 6 0.000000 0.000000 0.000000 0.000000 0.000000 0.029695
#
#
# Mechanical properties :
#
#
# Convention : Reuss Voigt Hill
#
# Bulk Modulus (GPa) = 12.19522 21.22383 16.70952
# Shear Modulus (GPa) = 15.92045 21.32093 18.62069
#
# Velocity S-wave (km/s) = 3.24213 3.75193 3.50631
# Velocity P-wave (km/s) = 4.69755 5.72558 5.23685
#
# Compressibility (1/GPa) = 0.08199936
#
# Stress axis : x y z
#
# Youngs Moduli (GPa) = 21.43008 62.38496 16.89366
#
# Poissons Ratio (x) = 0.66667 0.02117
# Poissons Ratio (y) = 0.22901 0.13522
# Poissons Ratio (z) = 0.02686 0.49934
#
# Static dielectric constant tensor:
#      x y z
#    x 1.523510 0.000000 0.000000 
#    y 0.000000 1.504060 0.000000 
#    z 0.000000 0.000000 1.531780 
# 
# From -- ./inp_files/2241.got.cif
#   From: 2010.05.17/outbox.cif.g08.bks.cpg/sg45_2_cif.got.tgz:2241.got - 2010.06.03 19:51:22.
