data_PCOD9376257
_publ_section_title
;
Structure prediction by ZEFSAII (Michael W. Deem and Ramdas Pophale) SiO2 
 PCOD9376257
Probable space group: I B A 2
;
_chemical_formula_sum "Si O2"
_cell_formula_units_Z 64
_cell_length_a 12.148317
_cell_length_b 11.976008
_cell_length_c 20.477249
_cell_angle_alpha 90.000000
_cell_angle_beta 90.000000
_cell_angle_gamma 90.000000
_cell_volume 2979.200997
_symmetry_space_group_name_H-M "I B A 2"
_symmetry_group_IT_number 45
_symmetry_cell_setting 'orthorhombic'
loop_
_space_group_symop_operation_xyz
x,y,z
-x,-y,z
-x,y,1/2+z
x,-y,1/2+z
1/2+x,1/2+y,1/2+z
1/2-x,1/2-y,1/2+z
1/2-x,1/2+y,z
1/2+x,1/2-y,z
loop_
_atom_site_type_symbol
_atom_site_label
_atom_site_fract_x
_atom_site_fract_y
_atom_site_fract_z
Si Si1 0.146936 0.035610 0.857160
Si Si2 0.389351 0.925170 0.060120
Si Si3 0.136969 0.632310 0.818800
Si Si4 0.452578 0.688333 0.023723
Si Si5 0.425073 0.765462 0.875248
Si Si6 0.658498 0.542605 0.000525
Si Si7 0.242403 0.849667 0.778593
Si Si8 0.627056 0.982792 0.192774
O O1 0.264604 0.097845 0.866418
O O2 0.067995 0.140411 0.844201
O O3 0.126361 0.970690 0.923928
O O4 0.164775 0.953490 0.796940
O O5 0.327031 0.965271 0.126658
O O6 0.500000 0.000000 0.043828
O O7 0.428621 0.796566 0.067725
O O8 0.288248 0.935227 0.008834
O O9 0.169375 0.740563 0.777314
O O10 0.130985 0.539905 0.763518
O O11 0.028297 0.658738 0.857772
O O12 0.425265 0.737649 0.951545
O O13 0.577737 0.640926 0.026167
O O14 0.377735 0.577111 0.031406
O O15 0.322463 0.826859 0.841011
O O16 0.314129 0.868173 0.713355
O O17 0.500000 0.000000 0.176569
#
# Coordination Sequence:
#
# PCOD9376257 Si02
#       8
#     8   8   8   8   8   8   8   8
#     4   9  20  34  56  90 118 154 193 235 309 366
#     4  11  26  41  64  88 120 172 217 255 309 364
#     4  10  20  33  60  86 114 153 195 240 303 358
#     4  10  23  40  65  96 124 167 203 253 324 364
#     4  10  19  34  60  87 122 156 186 245 301 370
#     4  10  22  43  63  91 134 159 203 265 305 376
#     4  10  19  35  57  87 118 151 195 241 301 361
#     4  10  21  42  57  80 113 158 202 251 289 343
#
# _framework density 21.482271000000001
#
# number of rings (size 3 to 8) (size 9 to 14) (size 15 to 20)
#    0.000    2.000    1.250    1.500    3.500    3.500 
#    2.250    0.000    0.000    0.000    0.000    0.000 
#    0.000    0.000    0.000    0.000    0.000    0.000 
#
# Total GULP energy -178192.254136 kJ/mol
# GULP energy per Si atom -5568.507942 kJ/mol
# Density = 2.143338 g / cm^3
# Si number density = 21.482271 Si / 1000 Ang^3
#
#
#
# Elastic Constant Matrix: (Units=GPa)
#
#
# Indices 1 2 3 4 5 6 
#
# 1 72.3939 13.1924 -2.0356 0.0000 0.0000 0.0000
# 2 13.1924 73.7174 3.8863 0.0000 0.0000 0.0000
# 3 -2.0356 3.8863 43.1708 0.0000 0.0000 0.0000
# 4 0.0000 0.0000 0.0000 -28.5051 0.0000 0.0000
# 5 0.0000 0.0000 0.0000 0.0000 -16.3734 0.0000
# 6 0.0000 0.0000 0.0000 0.0000 0.0000 25.3596
#
#
#
# Elastic Compliance Matrix: (Units=1/GPa)
#
#
# Indices 1 2 3 4 5 6 
#
# 1 0.014314 -0.002610 0.000910 0.000000 0.000000 0.000000
# 2 -0.002610 0.014106 -0.001393 0.000000 0.000000 0.000000
# 3 0.000910 -0.001393 0.023332 0.000000 0.000000 0.000000
# 4 0.000000 0.000000 0.000000 -0.035081 0.000000 0.000000
# 5 0.000000 0.000000 0.000000 0.000000 -0.061075 0.000000
# 6 0.000000 0.000000 0.000000 0.000000 0.000000 0.039433
#
#
# Mechanical properties :
#
#
# Convention : Reuss Voigt Hill
#
# Bulk Modulus (GPa) = 21.94569 24.37425 23.15997
# Shear Modulus (GPa) = 304.81379 7.71215 156.26297
#
# Velocity S-wave (km/s) = 11.92472 1.89679 8.53805
# Velocity P-wave (km/s) = 14.13635 4.02093 10.39241
#
# Compressibility (1/GPa) = 0.04556703
#
# Stress axis : x y z
#
# Youngs Moduli (GPa) = 69.85938 70.89301 42.85937
#
# Poissons Ratio (x) = 0.18501 -0.03900
# Poissons Ratio (y) = 0.18231 0.05970
# Poissons Ratio (z) = -0.06356 0.09875
#
# Static dielectric constant tensor:
#      x y z
#    x 2.224880 0.000000 0.000000 
#    y 0.000000 2.061480 0.000000 
#    z 0.000000 0.000000 1.846100 
# 
# From -- ./inp_files/9713.got.cif
#   From: 2010.05.17/outbox.cif.g08.bks.cpg/sg45_5_cif.got.tgz:9713.got - 2010.06.03 19:51:22.
