data_PCOD9376320
_publ_section_title
;
Structure prediction by ZEFSAII (Michael W. Deem and Ramdas Pophale) SiO2 
 PCOD9376320
Probable space group: I B A 2
;
_chemical_formula_sum "Si O2"
_cell_formula_units_Z 60
_cell_length_a 8.451496
_cell_length_b 14.767989
_cell_length_c 25.468929
_cell_angle_alpha 90.000000
_cell_angle_beta 90.000000
_cell_angle_gamma 90.000000
_cell_volume 3178.817778
_symmetry_space_group_name_H-M "I B A 2"
_symmetry_group_IT_number 45
_symmetry_cell_setting 'orthorhombic'
loop_
_space_group_symop_operation_xyz
x,y,z
-x,-y,z
-x,y,1/2+z
x,-y,1/2+z
1/2+x,1/2+y,1/2+z
1/2-x,1/2-y,1/2+z
1/2-x,1/2+y,z
1/2+x,1/2-y,z
loop_
_atom_site_type_symbol
_atom_site_label
_atom_site_fract_x
_atom_site_fract_y
_atom_site_fract_z
Si Si1 0.391449 0.171292 0.713190
Si Si2 0.708478 0.157283 0.535070
Si Si3 0.500000 0.000000 0.491106
Si Si4 0.910133 0.405499 0.302734
Si Si5 0.221076 0.336199 0.656391
Si Si6 0.318859 0.507119 0.218688
Si Si7 0.691769 0.860505 0.418491
Si Si8 0.501196 0.300222 0.469898
O O1 0.473434 0.163185 0.771033
O O2 0.304343 0.261662 0.693819
O O3 0.537904 0.156468 0.673519
O O4 0.267844 0.088524 0.711704
O O5 0.604926 0.067158 0.526477
O O6 0.733910 0.184475 0.595201
O O7 0.609864 0.237759 0.507408
O O8 0.875096 0.146272 0.505044
O O9 0.390708 0.061004 0.452994
O O10 0.775125 0.435110 0.262021
O O11 0.839602 0.372086 0.357031
O O12 0.000000 0.500000 0.313502
O O13 0.302437 0.432668 0.666680
O O14 0.500000 0.500000 0.233707
O O15 0.603830 0.767931 0.435128
O O16 0.875500 0.855055 0.434433
#
# Coordination Sequence:
#
# PCOD9376320 Si02
#       8
#     8   8   4   8   8   8   8   8
#     4  10  22  37  61  90 121 158 205 255 300 382
#     4  10  21  39  58  88 119 164 200 257 307 368
#     4  10  22  36  60  84 120 160 216 250 306 372
#     4   9  19  38  62  85 120 160 198 254 316 365
#     4  11  21  38  63  86 122 162 203 248 318 359
#     4  10  22  40  55  90 124 152 207 255 298 381
#     4  10  19  39  60  84 119 163 200 260 313 362
#     4   9  21  38  57  86 125 150 210 256 298 377
#
# _framework density 18.874941
#
# number of rings (size 3 to 8) (size 9 to 14) (size 15 to 20)
#    0.000    2.133    0.667    2.800    1.867    2.667 
#    4.800    1.333    0.000    0.000    0.000    0.000 
#    0.000    0.000    0.000    0.000    0.000    0.000 
#
# Total GULP energy -167363.384128 kJ/mol
# GULP energy per Si atom -5578.779471 kJ/mol
# Density = 1.883198 g / cm^3
# Si number density = 18.874941 Si / 1000 Ang^3
#
#
#
# Elastic Constant Matrix: (Units=GPa)
#
#
# Indices 1 2 3 4 5 6 
#
# 1 133.6289 40.9745 37.2382 0.0000 0.0000 0.0000
# 2 40.9745 59.2553 16.0686 0.0000 0.0000 0.0000
# 3 37.2382 16.0686 89.8446 0.0000 0.0000 0.0000
# 4 0.0000 0.0000 0.0000 5.5368 0.0000 0.0000
# 5 0.0000 0.0000 0.0000 0.0000 15.7374 0.0000
# 6 0.0000 0.0000 0.0000 0.0000 0.0000 24.3193
#
#
#
# Elastic Compliance Matrix: (Units=1/GPa)
#
#
# Indices 1 2 3 4 5 6 
#
# 1 0.010276 -0.006254 -0.003141 0.000000 0.000000 0.000000
# 2 -0.006254 0.021543 -0.001261 0.000000 0.000000 0.000000
# 3 -0.003141 -0.001261 0.012658 0.000000 0.000000 0.000000
# 4 0.000000 0.000000 0.000000 0.180610 0.000000 0.000000
# 5 0.000000 0.000000 0.000000 0.000000 0.063543 0.000000
# 6 0.000000 0.000000 0.000000 0.000000 0.000000 0.041120
#
#
# Mechanical properties :
#
#
# Convention : Reuss Voigt Hill
#
# Bulk Modulus (GPa) = 43.16794 52.36570 47.76682
# Shear Modulus (GPa) = 13.93602 21.68188 17.80895
#
# Velocity S-wave (km/s) = 2.72018 3.39294 3.07501
# Velocity P-wave (km/s) = 5.72590 6.56911 6.16194
#
# Compressibility (1/GPa) = 0.02316534
#
# Stress axis : x y z
#
# Youngs Moduli (GPa) = 97.31046 46.41924 79.00431
#
# Poissons Ratio (x) = 0.29032 0.24813
# Poissons Ratio (y) = 0.60861 0.09960
# Poissons Ratio (z) = 0.30562 0.05852
#
# Static dielectric constant tensor:
#      x y z
#    x 1.658700 0.000000 0.000000 
#    y 0.000000 1.664520 0.000000 
#    z 0.000000 0.000000 1.640030 
# 
# From -- ./inp_files/9582.got.cif
#   From: 2010.05.17/outbox.cif.g08.bks.cpg/sg45_5_cif.got.tgz:9582.got - 2010.06.03 19:51:22.
