data_PCOD9376594
_publ_section_title
;
Structure prediction by ZEFSAII (Michael W. Deem and Ramdas Pophale) SiO2 
 PCOD9376594
Probable space group: I B A 2
;
_chemical_formula_sum "Si O2"
_cell_formula_units_Z 64
_cell_length_a 13.205670
_cell_length_b 12.178178
_cell_length_c 15.055843
_cell_angle_alpha 90.000000
_cell_angle_beta 90.000000
_cell_angle_gamma 90.000000
_cell_volume 2421.295725
_symmetry_space_group_name_H-M "I B A 2"
_symmetry_group_IT_number 45
_symmetry_cell_setting 'orthorhombic'
loop_
_space_group_symop_operation_xyz
x,y,z
-x,-y,z
-x,y,1/2+z
x,-y,1/2+z
1/2+x,1/2+y,1/2+z
1/2-x,1/2-y,1/2+z
1/2-x,1/2+y,z
1/2+x,1/2-y,z
loop_
_atom_site_type_symbol
_atom_site_label
_atom_site_fract_x
_atom_site_fract_y
_atom_site_fract_z
Si Si1 0.292246 0.992183 0.446510
Si Si2 0.935789 0.702667 0.492965
Si Si3 0.059980 0.388289 0.687320
Si Si4 0.495288 0.348844 0.222392
Si Si5 0.343401 0.762875 0.977474
Si Si6 0.718314 0.695125 0.677674
Si Si7 0.301143 0.622649 0.808948
Si Si8 0.404203 0.567570 0.531825
O O1 0.377436 0.898872 0.452274
O O2 0.659426 0.892785 0.467514
O O3 0.194447 0.992068 0.513553
O O4 0.252808 0.985130 0.345810
O O5 0.966629 0.652167 0.588271
O O6 0.869300 0.813902 0.494214
O O7 0.038075 0.757317 0.460753
O O8 0.023889 0.281473 0.741413
O O9 0.182606 0.382601 0.684305
O O10 0.000000 0.500000 0.708543
O O11 0.615591 0.357486 0.216161
O O12 0.417809 0.404014 0.289648
O O13 0.446052 0.392401 0.128784
O O14 0.293326 0.700869 0.895162
O O15 0.750297 0.807923 0.729327
O O16 0.691093 0.727552 0.576170
O O17 0.500000 0.500000 0.495126
#
# Coordination Sequence:
#
# PCOD9376594 Si02
#       8
#     8   8   8   8   8   8   8   8
#     4  12  25  44  76 117 158 212 267 341 415 494
#     4  11  24  44  76 117 158 200 275 339 401 500
#     4  10  20  41  74 118 151 202 265 332 405 489
#     4  10  24  51  72 112 163 209 268 346 400 504
#     4  12  24  50  81 115 161 223 271 339 429 505
#     4  11  24  50  82 115 167 216 275 347 429 495
#     4  11  27  49  74 121 163 212 272 346 417 498
#     4  11  24  47  77 111 149 215 271 324 410 500
#
# _framework density 26.432127999999999
#
# number of rings (size 3 to 8) (size 9 to 14) (size 15 to 20)
#    0.000    1.000    2.500    5.625    3.500    0.000 
#    9.000    0.000    0.000    0.000    0.000    0.000 
#    0.000    0.000    0.000    0.000    0.000    0.000 
#
# Total GULP energy -178825.638075 kJ/mol
# GULP energy per Si atom -5588.301190 kJ/mol
# Density = 2.637197 g / cm^3
# Si number density = 26.432128 Si / 1000 Ang^3
#
#
#
# Elastic Constant Matrix: (Units=GPa)
#
#
# Indices 1 2 3 4 5 6 
#
# 1 132.7120 43.4267 43.5490 0.0000 0.0000 0.0000
# 2 43.4267 157.4908 48.2131 0.0000 0.0000 0.0000
# 3 43.5490 48.2131 92.7275 0.0000 0.0000 0.0000
# 4 0.0000 0.0000 0.0000 36.0499 0.0000 0.0000
# 5 0.0000 0.0000 0.0000 0.0000 24.6303 0.0000
# 6 0.0000 0.0000 0.0000 0.0000 0.0000 39.2416
#
#
#
# Elastic Compliance Matrix: (Units=1/GPa)
#
#
# Indices 1 2 3 4 5 6 
#
# 1 0.009175 -0.001440 -0.003560 0.000000 0.000000 0.000000
# 2 -0.001440 0.007778 -0.003368 0.000000 0.000000 0.000000
# 3 -0.003560 -0.003368 0.014207 0.000000 0.000000 0.000000
# 4 0.000000 0.000000 0.000000 0.027739 0.000000 0.000000
# 5 0.000000 0.000000 0.000000 0.000000 0.040600 0.000000
# 6 0.000000 0.000000 0.000000 0.000000 0.000000 0.025483
#
#
# Mechanical properties :
#
#
# Convention : Reuss Voigt Hill
#
# Bulk Modulus (GPa) = 69.32879 72.58977 70.95928
# Shear Modulus (GPa) = 34.12373 36.50046 35.31209
#
# Velocity S-wave (km/s) = 3.59694 3.72009 3.65903
# Velocity P-wave (km/s) = 6.59822 6.78045 6.68996
#
# Compressibility (1/GPa) = 0.01442402
#
# Stress axis : x y z
#
# Youngs Moduli (GPa) = 108.99749 128.57483 70.38655
#
# Poissons Ratio (x) = 0.18514 0.25058
# Poissons Ratio (y) = 0.15695 0.23704
# Poissons Ratio (z) = 0.38804 0.43299
#
# Static dielectric constant tensor:
#      x y z
#    x 2.262930 0.000000 0.000000 
#    y 0.000000 2.191070 0.000000 
#    z 0.000000 0.000000 2.125290 
# 
# From -- ./inp_files/9703.got.cif
#   From: 2010.05.17/outbox.cif.g08.bks.cpg/sg45_5_cif.got.tgz:9703.got - 2010.06.03 19:51:22.
