data_PCOD9376516
_publ_section_title
;
Structure prediction by ZEFSAII (Michael W. Deem and Ramdas Pophale) SiO2 
 PCOD9376516
Probable space group: I B A 2
;
_chemical_formula_sum "Si O2"
_cell_formula_units_Z 64
_cell_length_a 11.257833
_cell_length_b 13.508363
_cell_length_c 18.485447
_cell_angle_alpha 90.000000
_cell_angle_beta 90.000000
_cell_angle_gamma 90.000000
_cell_volume 2811.172407
_symmetry_space_group_name_H-M "I B A 2"
_symmetry_group_IT_number 45
_symmetry_cell_setting 'orthorhombic'
loop_
_space_group_symop_operation_xyz
x,y,z
-x,-y,z
-x,y,1/2+z
x,-y,1/2+z
1/2+x,1/2+y,1/2+z
1/2-x,1/2-y,1/2+z
1/2-x,1/2+y,z
1/2+x,1/2-y,z
loop_
_atom_site_type_symbol
_atom_site_label
_atom_site_fract_x
_atom_site_fract_y
_atom_site_fract_z
Si Si1 0.823505 0.481333 0.192460
Si Si2 0.867480 0.150478 0.628740
Si Si3 0.417826 0.325109 0.038600
Si Si4 0.061143 0.693579 0.278789
Si Si5 0.800888 0.301802 0.732487
Si Si6 0.096108 0.740489 0.437897
Si Si7 0.287574 0.862114 0.493354
Si Si8 0.173471 0.437340 0.032952
O O1 0.697224 0.423947 0.183476
O O2 0.913160 0.404549 0.230651
O O3 0.804351 0.580728 0.236939
O O4 0.860114 0.519620 0.112014
O O5 0.817451 0.257956 0.651370
O O6 0.815466 0.118728 0.551714
O O7 0.006177 0.154596 0.611001
O O8 0.369390 0.213295 0.037359
O O9 0.310530 0.401257 0.034025
O O10 0.497396 0.318538 0.965307
O O11 0.175029 0.761910 0.259857
O O12 0.066673 0.683622 0.365043
O O13 0.928372 0.734087 0.264121
O O14 0.221564 0.799396 0.431690
O O15 0.109384 0.658874 0.501112
O O16 0.341968 0.968584 0.479264
#
# Coordination Sequence:
#
# PCOD9376516 Si02
#       8
#     8   8   8   8   8   8   8   8
#     4  10  22  44  66 103 132 181 236 290 357 430
#     4   9  21  37  65  97 130 173 231 287 362 414
#     4  10  20  38  67  94 138 173 220 305 356 419
#     4  11  27  45  69  97 142 193 243 286 366 438
#     4  11  24  44  68  94 137 191 234 298 348 438
#     4  10  23  42  63  97 133 184 229 290 359 432
#     4   9  20  38  62  96 129 172 225 287 362 414
#     4  10  22  40  68 101 135 172 241 297 359 429
#
# _framework density 22.766303000000001
#
# number of rings (size 3 to 8) (size 9 to 14) (size 15 to 20)
#    0.000    2.000    0.000    2.625   10.500    6.000 
#    9.000    0.000    5.500    0.000    0.000    0.000 
#    0.000    0.000    0.000    0.000    0.000    0.000 
#
# Total GULP energy -178378.313117 kJ/mol
# GULP energy per Si atom -5574.322285 kJ/mol
# Density = 2.271449 g / cm^3
# Si number density = 22.766303 Si / 1000 Ang^3
#
#
#
# Elastic Constant Matrix: (Units=GPa)
#
#
# Indices 1 2 3 4 5 6 
#
# 1 133.6815 38.7624 22.3868 0.0000 0.0000 0.0000
# 2 38.7624 84.9204 -1.0734 0.0000 0.0000 0.0000
# 3 22.3868 -1.0734 73.6849 0.0000 0.0000 0.0000
# 4 0.0000 0.0000 0.0000 16.7520 0.0000 0.0000
# 5 0.0000 0.0000 0.0000 0.0000 14.3187 0.0000
# 6 0.0000 0.0000 0.0000 0.0000 0.0000 26.7380
#
#
#
# Elastic Compliance Matrix: (Units=1/GPa)
#
#
# Indices 1 2 3 4 5 6 
#
# 1 0.009184 -0.004228 -0.002852 0.000000 0.000000 0.000000
# 2 -0.004228 0.013724 0.001485 0.000000 0.000000 0.000000
# 3 -0.002852 0.001485 0.014459 0.000000 0.000000 0.000000
# 4 0.000000 0.000000 0.000000 0.059695 0.000000 0.000000
# 5 0.000000 0.000000 0.000000 0.000000 0.069839 0.000000
# 6 0.000000 0.000000 0.000000 0.000000 0.000000 0.037400
#
#
# Mechanical properties :
#
#
# Convention : Reuss Voigt Hill
#
# Bulk Modulus (GPa) = 38.20166 45.82649 42.01407
# Shear Modulus (GPa) = 22.29975 27.04247 24.67111
#
# Velocity S-wave (km/s) = 3.13310 3.45023 3.29548
# Velocity P-wave (km/s) = 5.46853 6.00374 5.74237
#
# Compressibility (1/GPa) = 0.02617687
#
# Stress axis : x y z
#
# Youngs Moduli (GPa) = 108.88428 72.86254 69.15929
#
# Poissons Ratio (x) = 0.30808 0.19723
# Poissons Ratio (y) = 0.46038 -0.10267
# Poissons Ratio (z) = 0.31052 -0.10817
#
# Static dielectric constant tensor:
#      x y z
#    x 1.997750 0.000000 0.000000 
#    y 0.000000 1.882360 0.000000 
#    z 0.000000 0.000000 1.897910 
# 
# From -- ./inp_files/7994.got.cif
#   From: 2010.05.17/outbox.cif.g08.bks.cpg/sg45_4_cif.got.tgz:7994.got - 2010.06.03 19:51:22.
