data_PCOD9376199
_publ_section_title
;
Structure prediction by ZEFSAII (Michael W. Deem and Ramdas Pophale) SiO2 
 PCOD9376199
Probable space group: I B A 2
;
_chemical_formula_sum "Si O2"
_cell_formula_units_Z 56
_cell_length_a 19.757878
_cell_length_b 24.510308
_cell_length_c 5.574436
_cell_angle_alpha 90.000000
_cell_angle_beta 90.000000
_cell_angle_gamma 90.000000
_cell_volume 2699.541460
_symmetry_space_group_name_H-M "I B A 2"
_symmetry_group_IT_number 45
_symmetry_cell_setting 'orthorhombic'
loop_
_space_group_symop_operation_xyz
x,y,z
-x,-y,z
-x,y,1/2+z
x,-y,1/2+z
1/2+x,1/2+y,1/2+z
1/2-x,1/2-y,1/2+z
1/2-x,1/2+y,z
1/2+x,1/2-y,z
loop_
_atom_site_type_symbol
_atom_site_label
_atom_site_fract_x
_atom_site_fract_y
_atom_site_fract_z
Si Si1 0.004501 0.190705 0.358350
Si Si2 0.186852 0.055565 0.940479
Si Si3 0.188682 0.479027 0.957626
Si Si4 0.539822 0.571835 0.318357
Si Si5 0.849231 0.149949 0.768689
Si Si6 0.711913 0.246864 0.053192
Si Si7 0.272468 0.867445 0.107958
O O1 0.076608 0.160887 0.359554
O O2 0.998785 0.221715 0.607492
O O3 0.954693 0.138180 0.344250
O O4 0.160076 0.089340 0.168160
O O5 0.233845 0.003025 0.981070
O O6 0.115937 0.047662 0.800825
O O7 0.241774 0.098637 0.829659
O O8 0.158186 0.497845 0.212163
O O9 0.192259 0.413996 0.950569
O O10 0.501432 0.558601 0.572310
O O11 0.833219 0.199335 0.586086
O O12 0.794614 0.154151 0.977754
O O13 0.766497 0.254670 0.272756
O O14 0.683494 0.187235 0.129808
#
# Coordination Sequence:
#
# PCOD9376199 Si02
#       7
#     8   8   8   8   8   8   8
#     4  10  19  29  45  66  86 119 151 188 237 277
#     4  11  19  31  50  65  89 119 158 193 231 279
#     4  10  21  32  48  67  83 119 153 187 232 274
#     4  10  19  29  45  64  84 116 150 193 236 268
#     4  11  19  31  50  67  92 119 157 199 233 285
#     4  10  21  32  48  72  91 119 150 198 245 283
#     4  10  20  34  48  67  95 117 157 202 236 289
#
# _framework density 20.744263
#
# number of rings (size 3 to 8) (size 9 to 14) (size 15 to 20)
#    0.000    1.714    5.714    1.714    0.000    0.000 
#    0.000    0.000    0.000   19.714    0.000    0.000 
#    0.000    0.000    0.000    0.000    0.000   17.143 
#
# Total GULP energy -155883.509981 kJ/mol
# GULP energy per Si atom -5567.268214 kJ/mol
# Density = 2.069705 g / cm^3
# Si number density = 20.744263 Si / 1000 Ang^3
#
#
#
# Elastic Constant Matrix: (Units=GPa)
#
#
# Indices 1 2 3 4 5 6 
#
# 1 5.8047 0.3320 0.3076 0.0000 0.0000 0.0000
# 2 0.3320 103.8849 3.0096 0.0000 0.0000 0.0000
# 3 0.3076 3.0096 138.3115 0.0000 0.0000 0.0000
# 4 0.0000 0.0000 0.0000 15.7389 0.0000 0.0000
# 5 0.0000 0.0000 0.0000 0.0000 13.4957 0.0000
# 6 0.0000 0.0000 0.0000 0.0000 0.0000 9.4343
#
#
#
# Elastic Compliance Matrix: (Units=1/GPa)
#
#
# Indices 1 2 3 4 5 6 
#
# 1 0.172326 -0.000540 -0.000372 0.000000 0.000000 0.000000
# 2 -0.000540 0.009634 -0.000208 0.000000 0.000000 0.000000
# 3 -0.000372 -0.000208 0.007235 0.000000 0.000000 0.000000
# 4 0.000000 0.000000 0.000000 0.063537 0.000000 0.000000
# 5 0.000000 0.000000 0.000000 0.000000 0.074098 0.000000
# 6 0.000000 0.000000 0.000000 0.000000 0.000000 0.105996
#
#
# Mechanical properties :
#
#
# Convention : Reuss Voigt Hill
#
# Bulk Modulus (GPa) = 5.34888 28.36661 16.85774
# Shear Modulus (GPa) = 10.05261 24.02392 17.03827
#
# Velocity S-wave (km/s) = 2.20374 3.40678 2.86903
# Velocity P-wave (km/s) = 3.00988 5.40176 4.37255
#
# Compressibility (1/GPa) = 0.18695514
#
# Stress axis : x y z
#
# Youngs Moduli (GPa) = 5.80297 103.80122 138.20904
#
# Poissons Ratio (x) = 0.05604 0.05135
# Poissons Ratio (y) = 0.00313 0.02881
# Poissons Ratio (z) = 0.00216 0.02163
#
# Static dielectric constant tensor:
#      x y z
#    x 1.760100 0.000000 0.000000 
#    y 0.000000 1.855580 0.000000 
#    z 0.000000 0.000000 1.936350 
# 
# From -- ./inp_files/460.got.cif
#   From: 2010.05.17/outbox.cif.g08.bks.cpg/sg45_1_cif.got.tgz:460.got - 2010.06.03 19:51:22.
