data_PCOD9376220
_publ_section_title
;
Structure prediction by ZEFSAII (Michael W. Deem and Ramdas Pophale) SiO2 
 PCOD9376220
Probable space group: I B A 2
;
_chemical_formula_sum "Si O2"
_cell_formula_units_Z 40
_cell_length_a 25.010437
_cell_length_b 5.117531
_cell_length_c 14.220461
_cell_angle_alpha 90.000000
_cell_angle_beta 90.000000
_cell_angle_gamma 90.000000
_cell_volume 1820.100789
_symmetry_space_group_name_H-M "I B A 2"
_symmetry_group_IT_number 45
_symmetry_cell_setting 'orthorhombic'
loop_
_space_group_symop_operation_xyz
x,y,z
-x,-y,z
-x,y,1/2+z
x,-y,1/2+z
1/2+x,1/2+y,1/2+z
1/2-x,1/2-y,1/2+z
1/2-x,1/2+y,z
1/2+x,1/2-y,z
loop_
_atom_site_type_symbol
_atom_site_label
_atom_site_fract_x
_atom_site_fract_y
_atom_site_fract_z
Si Si1 0.724058 0.304792 0.354890
Si Si2 0.224058 0.695205 0.075150
Si Si3 0.000000 0.500000 0.646951
Si Si4 0.000000 0.000000 0.783090
Si Si5 0.384387 0.985428 0.149782
Si Si6 0.115613 0.985428 0.280258
O O1 0.766670 0.514440 0.315135
O O2 0.732727 0.249998 0.465020
O O3 0.666617 0.436604 0.341301
O O4 0.266669 0.485556 0.114906
O O5 0.166617 0.563393 0.088738
O O6 0.000000 0.750000 0.715020
O O7 0.057931 0.493034 0.597982
O O8 0.057931 0.993034 0.832058
O O9 0.382610 0.198931 0.234243
O O10 0.382610 0.698931 0.195797
#
# Coordination Sequence:
#
# PCOD9376220 Si02
#       6
#     8   8   4   4   8   8
#     4  10  21  35  50  71 103 137 165 203 255 300
#     4  10  21  35  50  71 103 137 165 203 255 300
#     4   8  16  30  48  72  98 124 154 198 252 288
#     4   8  16  30  48  72  98 124 154 198 252 288
#     4  10  19  32  53  76  99 129 168 209 247 298
#     4  10  19  32  53  76  99 129 168 209 247 298
#
# _framework density 21.976803
#
# number of rings (size 3 to 8) (size 9 to 14) (size 15 to 20)
#    0.000    2.400    0.000    2.400    0.000    4.800 
#    0.000    0.000    0.000   21.600    0.000    0.000 
#    0.000    0.000    0.000    0.000    0.000    0.000 
#
# Total GULP energy -111428.217462 kJ/mol
# GULP energy per Si atom -5571.410873 kJ/mol
# Density = 2.192678 g / cm^3
# Si number density = 21.976803 Si / 1000 Ang^3
#
#
#
# Elastic Constant Matrix: (Units=GPa)
#
#
# Indices 1 2 3 4 5 6 
#
# 1 159.2063 46.0221 -12.1933 0.0000 0.0000 0.0000
# 2 46.0221 93.6527 5.8011 0.0000 0.0000 0.0000
# 3 -12.1933 5.8011 26.7736 0.0000 0.0000 0.0000
# 4 0.0000 0.0000 0.0000 16.6831 0.0000 0.0000
# 5 0.0000 0.0000 0.0000 0.0000 6.2724 0.0000
# 6 0.0000 0.0000 0.0000 0.0000 0.0000 29.7725
#
#
#
# Elastic Compliance Matrix: (Units=1/GPa)
#
#
# Indices 1 2 3 4 5 6 
#
# 1 0.007811 -0.004114 0.004449 0.000000 0.000000 0.000000
# 2 -0.004114 0.012990 -0.004688 0.000000 0.000000 0.000000
# 3 0.004449 -0.004688 0.040392 0.000000 0.000000 0.000000
# 4 0.000000 0.000000 0.000000 0.059941 0.000000 0.000000
# 5 0.000000 0.000000 0.000000 0.000000 0.159429 0.000000
# 6 0.000000 0.000000 0.000000 0.000000 0.000000 0.033588
#
#
# Mechanical properties :
#
#
# Convention : Reuss Voigt Hill
#
# Bulk Modulus (GPa) = 19.05266 39.87694 29.46480
# Shear Modulus (GPa) = 14.69063 26.54578 20.61820
#
# Velocity S-wave (km/s) = 2.58827 3.47926 3.06630
# Velocity P-wave (km/s) = 4.19767 5.85873 5.09633
#
# Compressibility (1/GPa) = 0.05248611
#
# Stress axis : x y z
#
# Youngs Moduli (GPa) = 128.02218 76.98311 24.75733
#
# Poissons Ratio (x) = 0.31671 -0.11014
# Poissons Ratio (y) = 0.52669 0.11607
# Poissons Ratio (z) = -0.56954 0.36091
#
# Static dielectric constant tensor:
#      x y z
#    x 1.906640 0.000000 0.000000 
#    y 0.000000 1.821070 0.000000 
#    z 0.000000 0.000000 1.782330 
# 
# From -- ./inp_files/4834.got.cif
#   From: 2010.05.17/outbox.cif.g08.bks.cpg/sg45_3_cif.got.tgz:4834.got - 2010.06.03 19:51:22.
