data_PCOD9376062
_publ_section_title
;
Structure prediction by ZEFSAII (Michael W. Deem and Ramdas Pophale) SiO2 
 PCOD9376062
Probable space group: I B A 2
;
_chemical_formula_sum "Si O2"
_cell_formula_units_Z 44
_cell_length_a 8.011700
_cell_length_b 17.681079
_cell_length_c 13.299331
_cell_angle_alpha 90.000000
_cell_angle_beta 90.000000
_cell_angle_gamma 90.000000
_cell_volume 1883.923391
_symmetry_space_group_name_H-M "I B A 2"
_symmetry_group_IT_number 45
_symmetry_cell_setting 'orthorhombic'
loop_
_space_group_symop_operation_xyz
x,y,z
-x,-y,z
-x,y,1/2+z
x,-y,1/2+z
1/2+x,1/2+y,1/2+z
1/2-x,1/2-y,1/2+z
1/2-x,1/2+y,z
1/2+x,1/2-y,z
loop_
_atom_site_type_symbol
_atom_site_label
_atom_site_fract_x
_atom_site_fract_y
_atom_site_fract_z
Si Si1 0.281039 0.908059 0.975290
Si Si2 0.769664 0.225420 0.723357
Si Si3 0.249436 0.974842 0.294908
Si Si4 0.477111 0.830000 0.339749
Si Si5 0.500000 0.000000 0.129801
Si Si6 0.073516 0.866512 0.150150
O O1 0.390271 0.839963 0.928845
O O2 0.233776 0.966570 0.886039
O O3 0.113746 0.893890 0.038625
O O4 0.411544 0.941900 0.055563
O O5 0.599936 0.181675 0.745360
O O6 0.714551 0.302406 0.669234
O O7 0.859504 0.256784 0.825759
O O8 0.897832 0.173341 0.664978
O O9 0.367800 0.905967 0.334417
O O10 0.102129 0.929990 0.236527
O O11 0.349575 0.017559 0.206432
#
# Coordination Sequence:
#
# PCOD9376062 Si02
#       6
#     8   8   8   8   4   8
#     4  11  19  32  62  92 118 153 208 244 311 373
#     4   9  20  39  58  84 115 162 197 249 309 339
#     4  10  18  34  59  89 115 155 195 249 302 361
#     4  10  18  35  60  83 115 153 199 249 294 361
#     4  10  16  30  56  88 112 148 202 230 294 366
#     4   9  21  36  64  84 121 156 203 254 296 378
#
# _framework density 23.355515
#
# number of rings (size 3 to 8) (size 9 to 14) (size 15 to 20)
#    0.000    2.182    3.636    0.000    0.000    1.455 
#    0.000    0.909    8.000    0.000    0.000    0.000 
#    0.000    0.000    0.000    0.000    0.000    0.000 
#
# Total GULP energy -122724.611006 kJ/mol
# GULP energy per Si atom -5578.391409 kJ/mol
# Density = 2.330236 g / cm^3
# Si number density = 23.355515 Si / 1000 Ang^3
#
#
#
# Elastic Constant Matrix: (Units=GPa)
#
#
# Indices 1 2 3 4 5 6 
#
# 1 76.5083 35.2422 23.0511 0.0000 0.0000 0.0000
# 2 35.2422 68.7778 40.3874 0.0000 0.0000 0.0000
# 3 23.0511 40.3874 123.1073 0.0001 0.0000 0.0000
# 4 0.0000 0.0000 0.0001 37.7451 0.0000 0.0000
# 5 0.0000 0.0000 0.0000 0.0000 5.2074 0.0000
# 6 0.0000 0.0000 0.0000 0.0000 0.0000 42.2226
#
#
#
# Elastic Compliance Matrix: (Units=1/GPa)
#
#
# Indices 1 2 3 4 5 6 
#
# 1 0.017125 -0.008537 -0.000406 0.000000 0.000000 0.000000
# 2 -0.008537 0.022264 -0.005706 0.000000 0.000000 0.000000
# 3 -0.000406 -0.005706 0.010071 0.000000 0.000000 0.000000
# 4 0.000000 0.000000 0.000000 0.026493 0.000000 0.000000
# 5 0.000000 0.000000 0.000000 0.000000 0.192036 0.000000
# 6 0.000000 0.000000 0.000000 0.000000 0.000000 0.023684
#
#
# Mechanical properties :
#
#
# Convention : Reuss Voigt Hill
#
# Bulk Modulus (GPa) = 49.59441 51.75052 50.67246
# Shear Modulus (GPa) = 15.25824 28.34920 21.80372
#
# Velocity S-wave (km/s) = 2.55875 3.48776 3.05873
# Velocity P-wave (km/s) = 5.47816 6.19880 5.84959
#
# Compressibility (1/GPa) = 0.02016356
#
# Stress axis : x y z
#
# Youngs Moduli (GPa) = 58.39411 44.91500 99.29618
#
# Poissons Ratio (x) = 0.38342 0.04031
# Poissons Ratio (y) = 0.49849 0.56656
# Poissons Ratio (z) = 0.02371 0.25627
#
# Static dielectric constant tensor:
#      x y z
#    x 1.930410 0.000000 0.000000 
#    y 0.000000 1.944280 0.000000 
#    z 0.000000 0.000000 1.905210 
# 
# From -- ./inp_files/5550.got.cif
#   From: 2010.05.17/outbox.cif.g08.bks.cpg/sg45_3_cif.got.tgz:5550.got - 2010.06.03 19:51:22.
