data_PCOD9376033
_publ_section_title
;
Structure prediction by ZEFSAII (Michael W. Deem and Ramdas Pophale) SiO2 
 PCOD9376033
Probable space group: I M M 2
;
_chemical_formula_sum "Si O2"
_cell_formula_units_Z 32
_cell_length_a 30.000000
_cell_length_b 9.000000
_cell_length_c 12.000000
_cell_angle_alpha 90.000000
_cell_angle_beta 90.000000
_cell_angle_gamma 90.000000
_cell_volume 3240.000000
_symmetry_space_group_name_H-M "I M M 2"
_symmetry_group_IT_number 44
_symmetry_cell_setting 'orthorhombic'
loop_
_space_group_symop_operation_xyz
x,y,z
-x,-y,z
-x,y,z
x,-y,z
1/2+x,1/2+y,1/2+z
1/2-x,1/2-y,1/2+z
1/2-x,1/2+y,1/2+z
1/2+x,1/2-y,1/2+z
loop_
_atom_site_type_symbol
_atom_site_label
_atom_site_fract_x
_atom_site_fract_y
_atom_site_fract_z
Si Si1 0.369747 0.320049 0.266590
Si Si2 0.081235 0.176479 0.171187
Si Si3 0.876569 0.173522 0.514055
Si Si4 0.450005 0.319368 0.421355
Si Si5 0.325487 0.825007 0.673836
Si Si6 0.548167 0.828585 0.876519
Si Si7 0.200405 0.175068 0.949452
Si Si8 0.714678 0.671273 0.876650
O O1 0.372088 0.500000 0.265195
O O2 0.368082 0.273189 0.139403
O O3 0.412868 0.265949 0.334778
O O4 0.326027 0.284555 0.337317
O O5 0.124963 0.270300 0.199825
O O6 0.048359 0.224471 0.268116
O O7 0.090761 0.000000 0.174432
O O8 0.064093 0.214884 0.048049
O O9 0.913650 0.272236 0.456850
O O10 0.831788 0.177863 0.442028
O O11 0.891158 0.000000 0.516318
O O12 0.500000 0.266351 0.398589
O O13 0.450492 0.500000 0.415494
O O14 0.318119 0.774854 0.548049
O O15 0.293178 0.730724 0.752637
O O16 0.319584 0.000000 0.690420
O O17 0.500000 0.817828 0.932584
O O18 0.555037 0.000000 0.843100
O O19 0.251239 0.217908 0.934344
O O20 0.193273 0.000000 0.972637
O O21 0.730241 0.500000 0.878359
#
# Coordination Sequence:
#
# PCOD9376033 Si02
#       8
#     8   8   8   8   8   8   8   8
#     4   9  19  37  59  88 122 156 199 251 303 357
#     4  11  20  36  61  91 123 157 203 257 309 365
#     4  10  22  40  63  87 118 160 205 255 305 363
#     4   9  17  31  56  89 121 153 193 246 304 360
#     4  12  24  40  64  92 125 165 207 253 308 367
#     4  11  24  40  59  87 124 163 203 250 307 370
#     4  11  23  41  65  93 126 163 203 253 313 370
#     4  11  24  41  62  93 126 159 208 259 308 369
#
# _framework density 9.8765429999999999
#
# number of rings (size 3 to 8) (size 9 to 14) (size 15 to 20)
#    0.000    1.500    2.500    3.000    1.750    2.500 
#    0.000    2.500    0.000    0.000    0.000    0.000 
#    0.000    0.000    0.000    0.000    0.000    0.000 
#
# Total GULP energy -178599.475192 kJ/mol
# GULP energy per Si atom -5581.233600 kJ/mol
# Density = 0.985406 g / cm^3
# Si number density = 9.876543 Si / 1000 Ang^3
#
#
#
# Elastic Constant Matrix: (Units=GPa)
#
#
# Indices 1 2 3 4 5 6 
#
# 1 49.2067 5.7166 7.0012 0.0000 0.0000 0.0000
# 2 5.7166 29.0089 19.7613 0.0000 0.0000 0.0000
# 3 7.0012 19.7613 97.4088 0.0000 0.0000 0.0000
# 4 0.0000 0.0000 0.0000 22.5169 0.0000 0.0000
# 5 0.0000 0.0000 0.0000 0.0000 19.7679 0.0000
# 6 0.0000 0.0000 0.0000 0.0000 0.0000 9.8670
#
#
#
# Elastic Compliance Matrix: (Units=1/GPa)
#
#
# Indices 1 2 3 4 5 6 
#
# 1 0.020848 -0.003583 -0.000772 0.000000 0.000000 0.000000
# 2 -0.003583 0.040616 -0.007982 0.000000 0.000000 0.000000
# 3 -0.000772 -0.007982 0.011941 0.000000 0.000000 0.000000
# 4 0.000000 0.000000 0.000000 0.044411 0.000000 0.000000
# 5 0.000000 0.000000 0.000000 0.000000 0.050587 0.000000
# 6 0.000000 0.000000 0.000000 0.000000 0.000000 0.101348
#
#
# Mechanical properties :
#
#
# Convention : Reuss Voigt Hill
#
# Bulk Modulus (GPa) = 20.52046 26.73139 23.62593
# Shear Modulus (GPa) = 16.09433 19.97339 18.03386
#
# Velocity S-wave (km/s) = 2.85752 3.18331 3.02481
# Velocity P-wave (km/s) = 4.61501 5.20322 4.91791
#
# Compressibility (1/GPa) = 0.04873184
#
# Stress axis : x y z
#
# Youngs Moduli (GPa) = 47.96517 24.62092 83.74633
#
# Poissons Ratio (x) = 0.08821 0.06462
# Poissons Ratio (y) = 0.17185 0.66848
# Poissons Ratio (z) = 0.03701 0.19653
#
# Static dielectric constant tensor:
#      x y z
#    x 1.660270 0.000000 0.000000 
#    y 0.000000 1.649670 0.000000 
#    z 0.000000 0.000000 1.714560 
# 
# From -- ./inp_files/15043.got.cif
#   From: 2010.05.17/outbox.ucp.g08.bks.cvg/sg44_8_cif.got.tgz:15043.got - 2010.06.11 16:32:36.
