data_PCOD9376462
_publ_section_title
;
Structure prediction by ZEFSAII (Michael W. Deem and Ramdas Pophale) SiO2 
 PCOD9376462
Probable space group: I B A 2
;
_chemical_formula_sum "Si O2"
_cell_formula_units_Z 60
_cell_length_a 25.072637
_cell_length_b 9.190551
_cell_length_c 12.642066
_cell_angle_alpha 90.000000
_cell_angle_beta 90.000000
_cell_angle_gamma 90.000000
_cell_volume 2913.128323
_symmetry_space_group_name_H-M "I B A 2"
_symmetry_group_IT_number 45
_symmetry_cell_setting 'orthorhombic'
loop_
_space_group_symop_operation_xyz
x,y,z
-x,-y,z
-x,y,1/2+z
x,-y,1/2+z
1/2+x,1/2+y,1/2+z
1/2-x,1/2-y,1/2+z
1/2-x,1/2+y,z
1/2+x,1/2-y,z
loop_
_atom_site_type_symbol
_atom_site_label
_atom_site_fract_x
_atom_site_fract_y
_atom_site_fract_z
Si Si1 0.074960 0.820569 0.987470
Si Si2 0.849928 0.754685 0.070375
Si Si3 0.767433 0.578560 0.327638
Si Si4 0.764633 0.676470 0.673376
Si Si5 0.341558 0.530298 0.885351
Si Si6 0.095688 0.997723 0.695738
Si Si7 0.850017 0.582822 0.512506
Si Si8 0.500000 0.500000 0.358982
O O1 0.123359 0.892910 0.919842
O O2 0.079708 0.903958 0.097769
O O3 0.091896 0.654932 0.000883
O O4 0.019496 0.866860 0.932991
O O5 0.790502 0.798119 0.110126
O O6 0.853992 0.582377 0.054691
O O7 0.890396 0.836348 0.151664
O O8 0.858786 0.835287 0.958078
O O9 0.772979 0.481624 0.223793
O O10 0.743846 0.727011 0.279326
O O11 0.721026 0.509884 0.400324
O O12 0.819438 0.585344 0.399721
O O13 0.813978 0.683855 0.591446
O O14 0.352515 0.549484 0.760818
O O15 0.049474 0.019322 0.781296
#
# Coordination Sequence:
#
# PCOD9376462 Si02
#       8
#     8   8   8   8   8   8   8   4
#     4  10  23  40  68  97 129 168 232 293 351 420
#     4  11  23  40  59  95 139 181 231 293 346 408
#     4  12  23  36  58  89 138 194 237 268 337 413
#     4  12  24  36  56  90 137 192 239 271 332 419
#     4  10  20  37  61  90 131 184 234 280 324 415
#     4  10  21  42  72  93 128 169 234 292 355 422
#     4  12  26  39  61  96 147 187 232 293 350 415
#     4  10  22  42  74 102 118 162 232 302 364 402
#
# _framework density 20.596416000000001
#
# number of rings (size 3 to 8) (size 9 to 14) (size 15 to 20)
#    0.000    1.067    4.000    2.800    5.600    0.000 
#    0.000    0.000    0.000   17.600    0.000    0.000 
#    0.000    0.000    0.000    0.000    0.000    0.000 
#
# Total GULP energy -167280.968740 kJ/mol
# GULP energy per Si atom -5576.032291 kJ/mol
# Density = 2.054954 g / cm^3
# Si number density = 20.596416 Si / 1000 Ang^3
#
#
#
# Elastic Constant Matrix: (Units=GPa)
#
#
# Indices 1 2 3 4 5 6 
#
# 1 69.5640 42.9179 30.8254 0.0000 0.0000 0.0000
# 2 42.9179 115.4050 48.0144 0.0000 0.0000 0.0000
# 3 30.8254 48.0144 99.2666 0.0000 0.0000 0.0000
# 4 0.0000 0.0000 0.0000 26.8539 0.0000 0.0000
# 5 0.0000 0.0000 0.0000 0.0000 35.6795 0.0000
# 6 0.0000 0.0000 0.0000 0.0000 0.0000 20.1537
#
#
#
# Elastic Compliance Matrix: (Units=1/GPa)
#
#
# Indices 1 2 3 4 5 6 
#
# 1 0.019424 -0.005902 -0.003177 0.000000 0.000000 0.000000
# 2 -0.005902 0.012641 -0.004282 0.000000 0.000000 0.000000
# 3 -0.003177 -0.004282 0.013132 0.000000 0.000000 0.000000
# 4 0.000000 0.000000 0.000000 0.037238 0.000000 0.000000
# 5 0.000000 0.000000 0.000000 0.000000 0.028027 0.000000
# 6 0.000000 0.000000 0.000000 0.000000 0.000000 0.049619
#
#
# Mechanical properties :
#
#
# Convention : Reuss Voigt Hill
#
# Bulk Modulus (GPa) = 54.12548 58.63902 56.38225
# Shear Modulus (GPa) = 25.91182 27.36927 26.64055
#
# Velocity S-wave (km/s) = 3.55078 3.64928 3.60037
# Velocity P-wave (km/s) = 6.56863 6.80357 6.68713
#
# Compressibility (1/GPa) = 0.01847559
#
# Stress axis : x y z
#
# Youngs Moduli (GPa) = 51.48191 79.10499 76.15212
#
# Poissons Ratio (x) = 0.46686 0.24195
# Poissons Ratio (y) = 0.30384 0.32607
# Poissons Ratio (z) = 0.16357 0.33872
#
# Static dielectric constant tensor:
#      x y z
#    x 1.816070 0.000000 0.000000 
#    y 0.000000 1.759000 0.000000 
#    z 0.000000 0.000000 1.797950 
# 
# From -- ./inp_files/4884.got.cif
#   From: 2010.05.17/outbox.cif.g08.bks.cpg/sg45_3_cif.got.tgz:4884.got - 2010.06.03 19:51:22.
