data_PCOD9376234
_publ_section_title
;
Structure prediction by ZEFSAII (Michael W. Deem and Ramdas Pophale) SiO2 
 PCOD9376234
Probable space group: I B A 2
;
_chemical_formula_sum "Si O2"
_cell_formula_units_Z 64
_cell_length_a 19.052636
_cell_length_b 19.193351
_cell_length_c 8.847646
_cell_angle_alpha 90.000000
_cell_angle_beta 90.000000
_cell_angle_gamma 90.000000
_cell_volume 3235.441963
_symmetry_space_group_name_H-M "I B A 2"
_symmetry_group_IT_number 45
_symmetry_cell_setting 'orthorhombic'
loop_
_space_group_symop_operation_xyz
x,y,z
-x,-y,z
-x,y,1/2+z
x,-y,1/2+z
1/2+x,1/2+y,1/2+z
1/2-x,1/2-y,1/2+z
1/2-x,1/2+y,z
1/2+x,1/2-y,z
loop_
_atom_site_type_symbol
_atom_site_label
_atom_site_fract_x
_atom_site_fract_y
_atom_site_fract_z
Si Si1 0.184465 0.670030 0.992080
Si Si2 0.592244 0.596451 0.400850
Si Si3 0.741965 0.778821 0.312792
Si Si4 0.950759 0.101376 0.057781
Si Si5 0.269212 0.537473 0.049561
Si Si6 0.186816 0.081113 0.381106
Si Si7 0.093236 0.736605 0.418355
Si Si8 0.541778 0.230566 0.583139
O O1 0.223992 0.704614 0.850231
O O2 0.204984 0.589373 0.014582
O O3 0.217645 0.709237 0.140271
O O4 0.102333 0.688850 0.994081
O O5 0.527884 0.576761 0.510274
O O6 0.570936 0.582042 0.227890
O O7 0.665425 0.563874 0.448598
O O8 0.600317 0.679697 0.421267
O O9 0.796945 0.837736 0.359119
O O10 0.672030 0.790572 0.412332
O O11 0.950392 0.186334 0.051384
O O12 0.892672 0.075417 0.939408
O O13 0.263519 0.457149 0.003197
O O14 0.293920 0.547522 0.220787
O O15 0.057427 0.719264 0.258489
O O16 0.038121 0.712644 0.542906
#
# Coordination Sequence:
#
# PCOD9376234 Si02
#       8
#     8   8   8   8   8   8   8   8
#     4  10  20  35  56  81 107 138 177 221 266 315
#     4  10  19  33  53  77 109 143 179 218 262 315
#     4  10  20  35  56  81 107 138 177 221 266 315
#     4  10  19  33  53  77 109 143 179 218 262 315
#     4  11  23  37  54  77 108 144 182 221 267 318
#     4  11  23  37  54  77 108 144 182 221 267 318
#     4   9  18  32  52  80 109 136 170 216 263 313
#     4   9  18  32  52  80 109 136 170 216 263 313
#
# _framework density 19.780913999999999
#
# number of rings (size 3 to 8) (size 9 to 14) (size 15 to 20)
#    0.000    2.000    2.500    1.500    0.000    3.500 
#    0.000    2.500    0.000    0.750    0.000    5.250 
#    0.000    0.000    0.000    0.000    0.000    0.000 
#
# Total GULP energy -178692.321855 kJ/mol
# GULP energy per Si atom -5584.135058 kJ/mol
# Density = 1.973589 g / cm^3
# Si number density = 19.780914 Si / 1000 Ang^3
#
#
#
# Elastic Constant Matrix: (Units=GPa)
#
#
# Indices 1 2 3 4 5 6 
#
# 1 41.4971 -10.9072 -0.3074 0.0000 0.0000 0.0000
# 2 -10.9072 17.1247 4.9256 0.0000 0.0000 0.0000
# 3 -0.3074 4.9256 30.0755 0.0000 0.0000 0.0000
# 4 0.0000 0.0000 0.0000 15.5245 0.0000 0.0000
# 5 0.0000 0.0000 0.0000 0.0000 24.5800 0.0000
# 6 0.0000 0.0000 0.0000 0.0000 0.0000 23.2177
#
#
#
# Elastic Compliance Matrix: (Units=1/GPa)
#
#
# Indices 1 2 3 4 5 6 
#
# 1 0.029180 0.019414 -0.002881 0.000000 0.000000 0.000000
# 2 0.019414 0.074199 -0.011953 0.000000 0.000000 0.000000
# 3 -0.002881 -0.011953 0.035178 0.000000 0.000000 0.000000
# 4 0.000000 0.000000 0.000000 0.064414 0.000000 0.000000
# 5 0.000000 0.000000 0.000000 0.000000 0.040683 0.000000
# 6 0.000000 0.000000 0.000000 0.000000 0.000000 0.043071
#
#
# Mechanical properties :
#
#
# Convention : Reuss Voigt Hill
#
# Bulk Modulus (GPa) = 6.76979 8.45769 7.61374
# Shear Modulus (GPa) = 15.29969 18.99686 17.14828
#
# Velocity S-wave (km/s) = 2.78413 3.10233 2.94753
# Velocity P-wave (km/s) = 3.71012 4.13734 3.92954
#
# Compressibility (1/GPa) = 0.14771504
#
# Stress axis : x y z
#
# Youngs Moduli (GPa) = 34.27053 13.47731 28.42699
#
# Poissons Ratio (x) = -0.26165 0.08191
# Poissons Ratio (y) = -0.66533 0.33980
# Poissons Ratio (z) = 0.09874 0.16110
#
# Static dielectric constant tensor:
#      x y z
#    x 1.681390 0.000000 0.000000 
#    y 0.000000 1.749360 0.000000 
#    z 0.000000 0.000000 1.715230 
# 
# From -- ./inp_files/2203.got.cif
#   From: 2010.05.17/outbox.cif.g08.bks.cpg/sg45_2_cif.got.tgz:2203.got - 2010.06.03 19:51:22.
