data_PCOD9376397
_publ_section_title
;
Structure prediction by ZEFSAII (Michael W. Deem and Ramdas Pophale) SiO2 
 PCOD9376397
Probable space group: I B A 2
;
_chemical_formula_sum "Si O2"
_cell_formula_units_Z 60
_cell_length_a 13.835456
_cell_length_b 17.483270
_cell_length_c 9.712405
_cell_angle_alpha 90.000000
_cell_angle_beta 90.000000
_cell_angle_gamma 90.000000
_cell_volume 2349.324058
_symmetry_space_group_name_H-M "I B A 2"
_symmetry_group_IT_number 45
_symmetry_cell_setting 'orthorhombic'
loop_
_space_group_symop_operation_xyz
x,y,z
-x,-y,z
-x,y,1/2+z
x,-y,1/2+z
1/2+x,1/2+y,1/2+z
1/2-x,1/2-y,1/2+z
1/2-x,1/2+y,z
1/2+x,1/2-y,z
loop_
_atom_site_type_symbol
_atom_site_label
_atom_site_fract_x
_atom_site_fract_y
_atom_site_fract_z
Si Si1 0.710814 0.653707 0.411140
Si Si2 0.618480 0.796040 0.524641
Si Si3 0.500000 0.000000 0.476038
Si Si4 0.732416 0.580347 0.928641
Si Si5 0.606922 0.796778 0.054143
Si Si6 0.888724 0.562783 0.735741
Si Si7 0.382967 0.650612 0.184910
Si Si8 0.892695 0.878959 0.645889
O O1 0.654102 0.734951 0.411857
O O2 0.821911 0.672316 0.436475
O O3 0.673187 0.616923 0.553195
O O4 0.670581 0.611136 0.281405
O O5 0.688000 0.868446 0.511786
O O6 0.504691 0.808337 0.518134
O O7 0.701814 0.969254 0.323676
O O8 0.627271 0.742202 0.660265
O O9 0.530751 0.939193 0.357161
O O10 0.418474 0.977303 0.590728
O O11 0.669287 0.629312 0.822623
O O12 0.650405 0.559910 0.038764
O O13 0.627039 0.850582 0.186421
O O14 0.624806 0.707643 0.086609
O O15 0.493465 0.622549 0.178286
#
# Coordination Sequence:
#
# PCOD9376397 Si02
#       8
#     8   8   4   8   8   8   8   8
#     4  10  20  35  48  79 126 176 217 256 300 394
#     4   9  21  32  52  80 123 178 217 255 295 395
#     4  10  26  50  72  94 130 160 256 306 340 382
#     4  12  21  39  59  92 129 174 221 261 337 407
#     4  11  21  38  59  89 133 179 221 263 338 407
#     4  11  23  47  68  94 125 173 221 302 344 392
#     4   9  21  36  53  77 133 179 214 258 306 387
#     4  11  22  35  55  92 139 179 216 255 310 419
#
# _framework density 25.539262000000001
#
# number of rings (size 3 to 8) (size 9 to 14) (size 15 to 20)
#    0.800    0.800    2.667    2.400    1.867    0.000 
#   16.800    0.000    0.000    0.000    0.000    2.800 
#    0.000    0.000    0.000    0.000    0.000    0.000 
#
# Total GULP energy -167342.762960 kJ/mol
# GULP energy per Si atom -5578.092099 kJ/mol
# Density = 2.548113 g / cm^3
# Si number density = 25.539262 Si / 1000 Ang^3
#
#
#
# Elastic Constant Matrix: (Units=GPa)
#
#
# Indices 1 2 3 4 5 6 
#
# 1 150.0044 5.2185 51.4631 0.0000 0.0000 0.0000
# 2 5.2185 52.4718 18.0769 0.0000 0.0000 0.0000
# 3 51.4631 18.0769 159.3427 0.0000 0.0000 0.0000
# 4 0.0000 0.0000 0.0000 11.9747 0.0000 0.0000
# 5 0.0000 0.0000 0.0000 0.0000 -300.5028 0.0000
# 6 0.0000 0.0000 0.0000 0.0000 0.0000 18.6151
#
#
#
# Elastic Compliance Matrix: (Units=1/GPa)
#
#
# Indices 1 2 3 4 5 6 
#
# 1 0.007498 0.000092 -0.002432 0.000000 0.000000 0.000000
# 2 0.000092 0.019834 -0.002280 0.000000 0.000000 0.000000
# 3 -0.002432 -0.002280 0.007320 0.000000 0.000000 0.000000
# 4 0.000000 0.000000 0.000000 0.083509 0.000000 0.000000
# 5 0.000000 0.000000 0.000000 0.000000 -0.003328 0.000000
# 6 0.000000 0.000000 0.000000 0.000000 0.000000 0.053720
#
#
# Mechanical properties :
#
#
# Convention : Reuss Voigt Hill
#
# Bulk Modulus (GPa) = 39.35112 56.81512 48.08312
# Shear Modulus (GPa) = 26.84372 -34.84525 -4.00077
#
# Velocity S-wave (km/s) = 3.24555 -3.69776 -1.25296
# Velocity P-wave (km/s) = 5.43013 2.01575 4.09570
#
# Compressibility (1/GPa) = 0.02541224
#
# Stress axis : x y z
#
# Youngs Moduli (GPa) = 133.37562 50.41818 136.61417
#
# Poissons Ratio (x) = -0.00465 0.33224
# Poissons Ratio (y) = -0.01229 0.31146
# Poissons Ratio (z) = 0.32437 0.11495
#
# Static dielectric constant tensor:
#      x y z
#    x 4.065830 0.000000 0.000000 
#    y 0.000000 2.138760 0.000000 
#    z 0.000000 0.000000 2.007590 
# 
# From -- ./inp_files/1978.got.cif
#   From: 2010.05.17/outbox.cif.g08.bks.cpg/sg45_1_cif.got.tgz:1978.got - 2010.06.03 19:51:22.
