data_PCOD9376486
_publ_section_title
;
Structure prediction by ZEFSAII (Michael W. Deem and Ramdas Pophale) SiO2 
 PCOD9376486
Probable space group: I B A 2
;
_chemical_formula_sum "Si O2"
_cell_formula_units_Z 64
_cell_length_a 8.372290
_cell_length_b 23.836473
_cell_length_c 14.660094
_cell_angle_alpha 90.000000
_cell_angle_beta 90.000000
_cell_angle_gamma 90.000000
_cell_volume 2925.654333
_symmetry_space_group_name_H-M "I B A 2"
_symmetry_group_IT_number 45
_symmetry_cell_setting 'orthorhombic'
loop_
_space_group_symop_operation_xyz
x,y,z
-x,-y,z
-x,y,1/2+z
x,-y,1/2+z
1/2+x,1/2+y,1/2+z
1/2-x,1/2-y,1/2+z
1/2-x,1/2+y,z
1/2+x,1/2-y,z
loop_
_atom_site_type_symbol
_atom_site_label
_atom_site_fract_x
_atom_site_fract_y
_atom_site_fract_z
Si Si1 0.151431 0.068768 0.618820
Si Si2 0.173283 0.706685 0.425498
Si Si3 0.661554 0.214427 0.704202
Si Si4 0.167443 0.531039 0.078133
Si Si5 0.578517 0.448296 0.943759
Si Si6 0.028202 0.821462 0.412812
Si Si7 0.493640 0.675366 0.700510
Si Si8 0.526297 0.138642 0.081068
O O1 0.312678 0.103088 0.596400
O O2 0.039395 0.059934 0.530963
O O3 0.054376 0.111285 0.682709
O O4 0.215570 0.006013 0.643147
O O5 0.156022 0.703602 0.314532
O O6 0.350672 0.686252 0.453676
O O7 0.048734 0.669209 0.483396
O O8 0.142170 0.772151 0.448065
O O9 0.638743 0.278910 0.672389
O O10 0.829453 0.190641 0.666893
O O11 0.511583 0.183442 0.658862
O O12 0.000000 0.500000 0.076826
O O13 0.121171 0.595227 0.092765
O O14 0.252548 0.530294 0.980200
O O15 0.500000 0.500000 0.888090
O O16 0.592937 0.384565 0.912959
O O17 0.999035 0.811293 0.306859
#
# Coordination Sequence:
#
# PCOD9376486 Si02
#       8
#     8   8   8   8   8   8   8   8
#     4  10  20  38  63  84 120 159 213 256 317 379
#     4  10  23  39  59  93 131 166 210 270 322 393
#     4  10  22  38  59  92 131 164 211 264 323 390
#     4   9  21  38  61  89 120 159 209 263 311 381
#     4  10  20  38  60  86 120 161 207 262 310 378
#     4  10  22  40  60  91 126 165 210 266 327 389
#     4  10  21  39  59  87 126 164 204 268 324 382
#     4  11  21  38  64  91 124 171 209 259 326 385
#
# _framework density 21.875447000000001
#
# number of rings (size 3 to 8) (size 9 to 14) (size 15 to 20)
#    0.000    2.000    1.250    1.500    3.500    2.000 
#    0.000    4.375    0.000    0.000    0.000    0.000 
#    0.000    0.000    0.000    0.000    0.000    0.000 
#
# Total GULP energy -178178.159154 kJ/mol
# GULP energy per Si atom -5568.067474 kJ/mol
# Density = 2.182566 g / cm^3
# Si number density = 21.875447 Si / 1000 Ang^3
#
#
#
# Elastic Constant Matrix: (Units=GPa)
#
#
# Indices 1 2 3 4 5 6 
#
# 1 63.6231 22.1032 10.8603 0.0000 0.0000 0.0000
# 2 22.1032 133.3535 9.4991 0.0000 0.0000 0.0000
# 3 10.8603 9.4991 39.7302 0.0002 0.0000 0.0000
# 4 0.0000 0.0000 0.0002 22.6157 0.0000 0.0000
# 5 0.0000 0.0000 0.0000 0.0000 16.0686 0.0000
# 6 0.0000 0.0000 0.0000 0.0000 0.0000 32.2429
#
#
#
# Elastic Compliance Matrix: (Units=1/GPa)
#
#
# Indices 1 2 3 4 5 6 
#
# 1 0.017316 -0.002577 -0.004117 0.000000 0.000000 0.000000
# 2 -0.002577 0.008012 -0.001211 0.000000 0.000000 0.000000
# 3 -0.004117 -0.001211 0.026585 0.000000 0.000000 0.000000
# 4 0.000000 0.000000 0.000000 0.044217 0.000000 0.000000
# 5 0.000000 0.000000 0.000000 0.000000 0.062233 0.000000
# 6 0.000000 0.000000 0.000000 0.000000 0.000000 0.031015
#
#
# Mechanical properties :
#
#
# Convention : Reuss Voigt Hill
#
# Bulk Modulus (GPa) = 27.69915 35.73689 31.71802
# Shear Modulus (GPa) = 23.01793 27.13504 25.07648
#
# Velocity S-wave (km/s) = 3.24732 3.52580 3.38942
# Velocity P-wave (km/s) = 5.17202 5.73995 5.46337
#
# Compressibility (1/GPa) = 0.03610219
#
# Stress axis : x y z
#
# Youngs Moduli (GPa) = 57.75166 124.80898 37.61554
#
# Poissons Ratio (x) = 0.32160 0.15487
# Poissons Ratio (y) = 0.14881 0.04556
# Poissons Ratio (z) = 0.23777 0.15118
#
# Static dielectric constant tensor:
#      x y z
#    x 1.830630 0.000000 0.000000 
#    y 0.000000 1.918120 0.000000 
#    z 0.000000 0.000000 1.809150 
# 
# From -- ./inp_files/7801.got.cif
#   From: 2010.05.17/outbox.cif.g08.bks.cpg/sg45_4_cif.got.tgz:7801.got - 2010.06.03 19:51:22.
