data_PCOD9376355
_publ_section_title
;
Structure prediction by ZEFSAII (Michael W. Deem and Ramdas Pophale) SiO2 
 PCOD9376355
Probable space group: I B A 2
;
_chemical_formula_sum "Si O2"
_cell_formula_units_Z 40
_cell_length_a 15.882643
_cell_length_b 18.406889
_cell_length_c 5.289665
_cell_angle_alpha 90.000000
_cell_angle_beta 90.000000
_cell_angle_gamma 90.000000
_cell_volume 1546.433810
_symmetry_space_group_name_H-M "I B A 2"
_symmetry_group_IT_number 45
_symmetry_cell_setting 'orthorhombic'
loop_
_space_group_symop_operation_xyz
x,y,z
-x,-y,z
-x,y,1/2+z
x,-y,1/2+z
1/2+x,1/2+y,1/2+z
1/2-x,1/2-y,1/2+z
1/2-x,1/2+y,z
1/2+x,1/2-y,z
loop_
_atom_site_type_symbol
_atom_site_label
_atom_site_fract_x
_atom_site_fract_y
_atom_site_fract_z
Si Si1 0.154552 0.812220 0.011760
Si Si2 0.876152 0.528428 0.871763
Si Si3 0.325078 0.823026 0.768063
Si Si4 0.216742 0.929058 0.412173
Si Si5 0.943415 0.910450 0.189655
O O1 0.120696 0.743050 0.162420
O O2 0.170532 0.883044 0.188677
O O3 0.248570 0.791006 0.929532
O O4 0.099249 0.833297 0.768047
O O5 0.914972 0.515697 0.599474
O O6 0.870529 0.613691 0.925431
O O7 0.782833 0.491188 0.832733
O O8 0.277490 0.870252 0.551623
O O9 0.141033 0.952652 0.602115
O O10 0.996409 0.920977 0.447561
#
# Coordination Sequence:
#
# PCOD9376355 Si02
#       5
#     8   8   8   8   8
#     4  11  19  34  58  88 119 155 196 257 311 380
#     4  10  20  34  53  80 115 156 185 235 304 374
#     4  10  20  32  55  89 120 150 194 247 326 382
#     4  10  20  35  58  81 119 157 197 248 307 365
#     4  11  23  39  58  83 113 163 214 256 289 354
#
# _framework density 25.865964000000002
#
# number of rings (size 3 to 8) (size 9 to 14) (size 15 to 20)
#    0.000    1.600    6.000    0.000    0.000    0.000 
#    0.000    0.000    0.000   32.400    0.000    0.000 
#    0.000   19.200    0.000    0.000    0.000    0.000 
#
# Total GULP energy -111617.119408 kJ/mol
# GULP energy per Si atom -5580.855970 kJ/mol
# Density = 2.580709 g / cm^3
# Si number density = 25.865964 Si / 1000 Ang^3
#
#
#
# Elastic Constant Matrix: (Units=GPa)
#
#
# Indices 1 2 3 4 5 6 
#
# 1 103.3015 13.9493 13.5840 0.0000 0.0000 0.0000
# 2 13.9493 142.8104 11.0121 0.0000 0.0000 0.0000
# 3 13.5840 11.0121 131.5428 0.0000 0.0000 0.0000
# 4 0.0000 0.0000 0.0000 38.9963 0.0000 0.0000
# 5 0.0000 0.0000 0.0000 0.0000 -39.2560 0.0000
# 6 0.0000 0.0000 0.0000 0.0000 0.0000 11.3447
#
#
#
# Elastic Compliance Matrix: (Units=1/GPa)
#
#
# Indices 1 2 3 4 5 6 
#
# 1 0.009926 -0.000896 -0.000950 0.000000 0.000000 0.000000
# 2 -0.000896 0.007129 -0.000504 0.000000 0.000000 0.000000
# 3 -0.000950 -0.000504 0.007742 0.000000 0.000000 0.000000
# 4 0.000000 0.000000 0.000000 0.025643 0.000000 0.000000
# 5 0.000000 0.000000 0.000000 0.000000 -0.025474 0.000000
# 6 0.000000 0.000000 0.000000 0.000000 0.000000 0.088147
#
#
# Mechanical properties :
#
#
# Convention : Reuss Voigt Hill
#
# Bulk Modulus (GPa) = 49.76027 50.52728 50.14378
# Shear Modulus (GPa) = 40.15606 24.82428 32.49017
#
# Velocity S-wave (km/s) = 3.94441 3.10131 3.54799
# Velocity P-wave (km/s) = 6.32645 5.69217 6.01768
#
# Compressibility (1/GPa) = 0.02009635
#
# Stress axis : x y z
#
# Youngs Moduli (GPa) = 100.74183 140.27762 129.15883
#
# Poissons Ratio (x) = 0.12573 0.12270
# Poissons Ratio (y) = 0.09030 0.06512
# Poissons Ratio (z) = 0.09571 0.07073
#
# Static dielectric constant tensor:
#      x y z
#    x 2.086240 0.000000 0.000000 
#    y 0.000000 2.075860 0.000000 
#    z 0.000000 0.000000 2.205070 
# 
# From -- ./inp_files/382.got.cif
#   From: 2010.05.17/outbox.cif.g08.bks.cpg/sg45_1_cif.got.tgz:382.got - 2010.06.03 19:51:22.
