data_PCOD9376807
_publ_section_title
;
Structure prediction by ZEFSAII (Michael W. Deem and Ramdas Pophale) SiO2 
 PCOD9376807
Probable space group: I B A 2
;
_chemical_formula_sum "Si O2"
_cell_formula_units_Z 64
_cell_length_a 9.048929
_cell_length_b 18.120606
_cell_length_c 18.433315
_cell_angle_alpha 90.000000
_cell_angle_beta 90.000000
_cell_angle_gamma 90.000000
_cell_volume 3022.548949
_symmetry_space_group_name_H-M "I B A 2"
_symmetry_group_IT_number 45
_symmetry_cell_setting 'orthorhombic'
loop_
_space_group_symop_operation_xyz
x,y,z
-x,-y,z
-x,y,1/2+z
x,-y,1/2+z
1/2+x,1/2+y,1/2+z
1/2-x,1/2-y,1/2+z
1/2-x,1/2+y,z
1/2+x,1/2-y,z
loop_
_atom_site_type_symbol
_atom_site_label
_atom_site_fract_x
_atom_site_fract_y
_atom_site_fract_z
Si Si1 0.607864 0.938960 0.077030
Si Si2 0.906790 0.663276 0.171039
Si Si3 0.139261 0.953903 0.688170
Si Si4 0.974580 0.632616 0.337100
Si Si5 0.066165 0.183087 0.695101
Si Si6 0.712510 0.581621 0.436383
Si Si7 0.788824 0.062387 0.852374
Si Si8 0.012906 0.806470 0.360313
O O1 0.491744 0.881869 0.109962
O O2 0.711845 0.965664 0.143418
O O3 0.500000 0.000000 0.043896
O O4 0.722174 0.913946 0.016369
O O5 0.940664 0.631634 0.251358
O O6 0.728702 0.668376 0.161823
O O7 0.993792 0.740384 0.172557
O O8 0.168325 0.969582 0.773062
O O9 0.069214 0.872875 0.681894
O O10 0.000000 0.000000 0.660737
O O11 0.842713 0.596796 0.380200
O O12 0.989937 0.718466 0.363944
O O13 0.118491 0.584347 0.353022
O O14 0.092075 0.182980 0.782176
O O15 0.665793 0.498184 0.412731
O O16 0.602310 0.649617 0.421685
O O17 0.867086 0.142751 0.856810
#
# Coordination Sequence:
#
# PCOD9376807 Si02
#       8
#     8   8   8   8   8   8   8   8
#     4  12  27  44  64  98 140 183 229 286 356 417
#     4  11  22  41  69  98 136 176 223 290 337 407
#     4  11  23  40  65 100 132 176 234 282 339 414
#     4  11  22  39  70  99 130 176 228 281 341 406
#     4  10  21  40  70 103 131 176 232 280 339 409
#     4  12  25  45  64  98 139 179 223 286 349 417
#     4  11  22  39  68 100 129 178 229 279 338 404
#     4  10  22  40  68 100 135 170 228 285 334 404
#
# _framework density 21.174181999999998
#
# number of rings (size 3 to 8) (size 9 to 14) (size 15 to 20)
#    0.000    1.000    2.500    5.250    8.750    1.000 
#    4.500    1.250    0.000    0.000    0.000    0.000 
#    0.000    0.000    0.000    0.000    0.000    0.000 
#
# Total GULP energy -178641.970378 kJ/mol
# GULP energy per Si atom -5582.561574 kJ/mol
# Density = 2.112599 g / cm^3
# Si number density = 21.174182 Si / 1000 Ang^3
#
#
#
# Elastic Constant Matrix: (Units=GPa)
#
#
# Indices 1 2 3 4 5 6 
#
# 1 71.7845 -3.3662 -16.3773 0.0000 0.0000 0.0000
# 2 -3.3662 65.6307 14.1480 0.0000 0.0000 0.0000
# 3 -16.3773 14.1480 32.9070 0.0000 0.0000 0.0000
# 4 0.0000 0.0000 0.0000 7.1559 0.0000 0.0000
# 5 0.0000 0.0000 0.0000 0.0000 29.6882 0.0000
# 6 0.0000 0.0000 0.0000 0.0000 0.0000 32.0245
#
#
#
# Elastic Compliance Matrix: (Units=1/GPa)
#
#
# Indices 1 2 3 4 5 6 
#
# 1 0.015771 -0.000973 0.008268 0.000000 0.000000 0.000000
# 2 -0.000973 0.016853 -0.007730 0.000000 0.000000 0.000000
# 3 0.008268 -0.007730 0.037827 0.000000 0.000000 0.000000
# 4 0.000000 0.000000 0.000000 0.139744 0.000000 0.000000
# 5 0.000000 0.000000 0.000000 0.000000 0.033683 0.000000
# 6 0.000000 0.000000 0.000000 0.000000 0.000000 0.031226
#
#
# Mechanical properties :
#
#
# Convention : Reuss Voigt Hill
#
# Bulk Modulus (GPa) = 14.37215 17.68127 16.02671
# Shear Modulus (GPa) = 16.71289 25.50157 21.10723
#
# Velocity S-wave (km/s) = 2.81251 3.47417 3.16070
# Velocity P-wave (km/s) = 4.16524 4.94587 4.57225
#
# Compressibility (1/GPa) = 0.06957901
#
# Stress axis : x y z
#
# Youngs Moduli (GPa) = 63.40698 59.33564 26.43621
#
# Poissons Ratio (x) = 0.05775 -0.21856
# Poissons Ratio (y) = 0.06172 0.20436
# Poissons Ratio (z) = -0.52422 0.45868
#
# Static dielectric constant tensor:
#      x y z
#    x 1.745740 0.000000 0.000000 
#    y 0.000000 0.755990 0.000000 
#    z 0.000000 0.000000 1.764990 
# 
# From -- ./inp_files/8969.got.cif
#   From: 2010.05.17/outbox.cif.g08.bks.cpg/sg45_5_cif.got.tgz:8969.got - 2010.06.03 19:51:22.
