data_PCOD9376232
_publ_section_title
;
Structure prediction by ZEFSAII (Michael W. Deem and Ramdas Pophale) SiO2 
 PCOD9376232
Probable space group: I B A 2
;
_chemical_formula_sum "Si O2"
_cell_formula_units_Z 48
_cell_length_a 5.003345
_cell_length_b 13.957858
_cell_length_c 30.329616
_cell_angle_alpha 90.000000
_cell_angle_beta 90.000000
_cell_angle_gamma 90.000000
_cell_volume 2118.098427
_symmetry_space_group_name_H-M "I B A 2"
_symmetry_group_IT_number 45
_symmetry_cell_setting 'orthorhombic'
loop_
_space_group_symop_operation_xyz
x,y,z
-x,-y,z
-x,y,1/2+z
x,-y,1/2+z
1/2+x,1/2+y,1/2+z
1/2-x,1/2-y,1/2+z
1/2-x,1/2+y,z
1/2+x,1/2-y,z
loop_
_atom_site_type_symbol
_atom_site_label
_atom_site_fract_x
_atom_site_fract_y
_atom_site_fract_z
Si Si1 0.255857 0.064841 0.291940
Si Si2 0.513304 0.114137 0.156714
Si Si3 0.485505 0.617149 0.206993
Si Si4 0.809662 0.686266 0.062656
Si Si5 0.949926 0.683802 0.874422
Si Si6 0.451771 0.817215 0.971158
O O1 0.143422 0.136853 0.254519
O O2 0.375611 0.115753 0.334460
O O3 0.500000 0.000000 0.273277
O O4 0.000000 0.000000 0.304187
O O5 0.216910 0.147898 0.168497
O O6 0.618491 0.137095 0.108339
O O7 0.720564 0.149538 0.193924
O O8 0.500000 0.000000 0.159849
O O9 0.500000 0.500000 0.207279
O O10 0.504932 0.720738 0.061749
O O11 0.883008 0.631403 0.017181
O O12 0.747614 0.774124 0.871528
O O13 0.911341 0.637462 0.923033
O O14 0.748404 0.773687 0.971991
#
# Coordination Sequence:
#
# PCOD9376232 Si02
#       6
#     8   8   8   8   8   8
#     4  11  21  36  57  80 105 140 180 219 261 314
#     4  10  19  33  52  73  98 132 171 208 246 298
#     4   9  18  33  52  71  98 137 171 197 248 317
#     4  10  19  33  52  76 102 133 170 210 253 303
#     4  10  20  36  56  80 107 139 176 218 264 315
#     4   8  16  31  52  72  99 137 170 198 251 321
#
# _framework density 22.661836000000001
#
# number of rings (size 3 to 8) (size 9 to 14) (size 15 to 20)
#    0.000    2.333    0.000    4.500    0.000    0.000 
#    0.000    5.833    0.000    3.000    0.000    0.000 
#    0.000    0.000    0.000    0.000    0.000    0.000 
#
# Total GULP energy -133968.816694 kJ/mol
# GULP energy per Si atom -5582.034029 kJ/mol
# Density = 2.261026 g / cm^3
# Si number density = 22.661836 Si / 1000 Ang^3
#
#
#
# Elastic Constant Matrix: (Units=GPa)
#
#
# Indices 1 2 3 4 5 6 
#
# 1 91.8067 -4.3463 15.6842 0.0000 0.0000 0.0000
# 2 -4.3463 33.5289 13.7499 0.0000 0.0000 0.0000
# 3 15.6842 13.7499 178.7933 0.0000 0.0000 0.0000
# 4 0.0000 0.0000 0.0000 -6.2905 0.0000 0.0000
# 5 0.0000 0.0000 0.0000 0.0000 35.5037 0.0000
# 6 0.0000 0.0000 0.0000 0.0000 0.0000 14.6485
#
#
#
# Elastic Compliance Matrix: (Units=1/GPa)
#
#
# Indices 1 2 3 4 5 6 
#
# 1 0.011176 0.001911 -0.001127 0.000000 0.000000 0.000000
# 2 0.001911 0.031123 -0.002561 0.000000 0.000000 0.000000
# 3 -0.001127 -0.002561 0.005889 0.000000 0.000000 0.000000
# 4 0.000000 0.000000 0.000000 -0.158970 0.000000 0.000000
# 5 0.000000 0.000000 0.000000 0.000000 0.028166 0.000000
# 6 0.000000 0.000000 0.000000 0.000000 0.000000 0.068266
#
#
# Mechanical properties :
#
#
# Convention : Reuss Voigt Hill
#
# Bulk Modulus (GPa) = 22.40518 39.36718 30.88618
# Shear Modulus (GPa) = 1224.92442 27.37509 626.14976
#
# Velocity S-wave (km/s) = 23.27437 3.47937 16.64035
# Velocity P-wave (km/s) = 27.05864 5.79229 19.56682
#
# Compressibility (1/GPa) = 0.04463253
#
# Stress axis : x y z
#
# Youngs Moduli (GPa) = 89.48143 32.13051 169.81098
#
# Poissons Ratio (x) = -0.06140 0.19143
# Poissons Ratio (y) = -0.17100 0.43491
# Poissons Ratio (z) = 0.10087 0.08229
#
# Static dielectric constant tensor:
#      x y z
#    x 1.811050 0.000000 0.000000 
#    y 0.000000 1.857220 0.000000 
#    z 0.000000 0.000000 1.919190 
# 
# From -- ./inp_files/9426.got.cif
#   From: 2010.05.17/outbox.cif.g08.bks.cpg/sg45_5_cif.got.tgz:9426.got - 2010.06.03 19:51:22.
