data_PCOD9376838
_publ_section_title
;
Structure prediction by ZEFSAII (Michael W. Deem and Ramdas Pophale) SiO2 
 PCOD9376838
Probable space group: I B A 2
;
_chemical_formula_sum "Si O2"
_cell_formula_units_Z 64
_cell_length_a 11.625463
_cell_length_b 17.900986
_cell_length_c 14.397656
_cell_angle_alpha 90.000000
_cell_angle_beta 90.000000
_cell_angle_gamma 90.000000
_cell_volume 2996.256602
_symmetry_space_group_name_H-M "I B A 2"
_symmetry_group_IT_number 45
_symmetry_cell_setting 'orthorhombic'
loop_
_space_group_symop_operation_xyz
x,y,z
-x,-y,z
-x,y,1/2+z
x,-y,1/2+z
1/2+x,1/2+y,1/2+z
1/2-x,1/2-y,1/2+z
1/2-x,1/2+y,z
1/2+x,1/2-y,z
loop_
_atom_site_type_symbol
_atom_site_label
_atom_site_fract_x
_atom_site_fract_y
_atom_site_fract_z
Si Si1 0.055506 0.678809 0.849450
Si Si2 0.267850 0.150571 0.559404
Si Si3 0.125023 0.962891 0.174687
Si Si4 0.614624 0.219492 0.538086
Si Si5 0.897532 0.443519 0.405212
Si Si6 0.224004 0.927596 0.367848
Si Si7 0.425167 0.260204 0.670831
Si Si8 0.293413 0.602050 0.078681
O O1 0.179725 0.637250 0.853323
O O2 0.061737 0.747164 0.779413
O O3 0.957581 0.615742 0.835120
O O4 0.030944 0.709090 0.952214
O O5 0.166272 0.102599 0.606221
O O6 0.211419 0.221506 0.507966
O O7 0.342001 0.099379 0.491780
O O8 0.348157 0.190006 0.636066
O O9 0.139853 0.933689 0.279889
O O10 0.209169 0.030237 0.143731
O O11 0.000000 0.000000 0.159837
O O12 0.548959 0.250446 0.625741
O O13 0.670718 0.141026 0.564276
O O14 0.797024 0.495659 0.366239
O O15 0.000000 0.500000 0.434252
O O16 0.170770 0.917452 0.471645
O O17 0.370026 0.335374 0.630457
#
# Coordination Sequence:
#
# PCOD9376838 Si02
#       8
#     8   8   8   8   8   8   8   8
#     4  10  21  41  68 101 130 168 226 277 342 413
#     4  11  22  43  67  92 135 177 223 276 341 407
#     4  12  25  43  66  95 129 181 231 273 339 416
#     4  10  23  42  64  96 134 173 214 279 345 405
#     4  10  21  41  70 101 130 172 222 289 349 402
#     4  10  22  43  65  98 136 169 222 286 338 408
#     4  11  22  43  65  95 134 176 223 279 341 411
#     4  10  24  44  64  92 137 173 220 281 341 409
#
# _framework density 21.359987
#
# number of rings (size 3 to 8) (size 9 to 14) (size 15 to 20)
#    0.000    1.500    3.750    0.750    1.750    1.500 
#    9.000    0.000    0.000    0.000    0.000    0.000 
#    0.000    0.000    0.000    0.000    0.000    0.000 
#
# Total GULP energy -178554.040254 kJ/mol
# GULP energy per Si atom -5579.813758 kJ/mol
# Density = 2.131137 g / cm^3
# Si number density = 21.359987 Si / 1000 Ang^3
#
#
#
# Elastic Constant Matrix: (Units=GPa)
#
#
# Indices 1 2 3 4 5 6 
#
# 1 45.2073 10.3007 8.7025 0.0000 0.0000 0.0000
# 2 10.3007 71.6476 24.7638 -0.0001 0.0000 0.0000
# 3 8.7025 24.7638 89.5247 -0.0001 0.0000 0.0000
# 4 0.0000 -0.0001 -0.0001 29.5367 0.0000 0.0000
# 5 0.0000 0.0000 0.0000 0.0000 23.5110 0.0000
# 6 0.0000 0.0000 0.0000 0.0000 0.0000 30.4847
#
#
#
# Elastic Compliance Matrix: (Units=1/GPa)
#
#
# Indices 1 2 3 4 5 6 
#
# 1 0.023042 -0.002807 -0.001463 0.000000 0.000000 0.000000
# 2 -0.002807 0.015775 -0.004091 0.000000 0.000000 0.000000
# 3 -0.001463 -0.004091 0.012444 0.000000 0.000000 0.000000
# 4 0.000000 0.000000 0.000000 0.033856 0.000000 0.000000
# 5 0.000000 0.000000 0.000000 0.000000 0.042533 0.000000
# 6 0.000000 0.000000 0.000000 0.000000 0.000000 0.032803
#
#
# Mechanical properties :
#
#
# Convention : Reuss Voigt Hill
#
# Bulk Modulus (GPa) = 28.95338 32.65707 30.80522
# Shear Modulus (GPa) = 26.49885 27.54732 27.02309
#
# Velocity S-wave (km/s) = 3.52601 3.59509 3.56072
# Velocity P-wave (km/s) = 5.49194 5.70570 5.59984
#
# Compressibility (1/GPa) = 0.03453828
#
# Stress axis : x y z
#
# Youngs Moduli (GPa) = 43.39979 63.39305 80.36076
#
# Poissons Ratio (x) = 0.17794 0.11760
# Poissons Ratio (y) = 0.12182 0.32873
# Poissons Ratio (z) = 0.06351 0.25932
#
# Static dielectric constant tensor:
#      x y z
#    x 1.795260 0.000000 0.000000 
#    y 0.000000 1.813240 0.000000 
#    z 0.000000 0.000000 1.759080 
# 
# From -- ./inp_files/6286.got.cif
#   From: 2010.05.17/outbox.cif.g08.bks.cpg/sg45_4_cif.got.tgz:6286.got - 2010.06.03 19:51:22.
