data_PCOD9376385
_publ_section_title
;
Structure prediction by ZEFSAII (Michael W. Deem and Ramdas Pophale) SiO2 
 PCOD9376385
Probable space group: I B A 2
;
_chemical_formula_sum "Si O2"
_cell_formula_units_Z 48
_cell_length_a 17.780551
_cell_length_b 8.773181
_cell_length_c 13.857685
_cell_angle_alpha 90.000000
_cell_angle_beta 90.000000
_cell_angle_gamma 90.000000
_cell_volume 2161.687890
_symmetry_space_group_name_H-M "I B A 2"
_symmetry_group_IT_number 45
_symmetry_cell_setting 'orthorhombic'
loop_
_space_group_symop_operation_xyz
x,y,z
-x,-y,z
-x,y,1/2+z
x,-y,1/2+z
1/2+x,1/2+y,1/2+z
1/2-x,1/2-y,1/2+z
1/2-x,1/2+y,z
1/2+x,1/2-y,z
loop_
_atom_site_type_symbol
_atom_site_label
_atom_site_fract_x
_atom_site_fract_y
_atom_site_fract_z
Si Si1 0.634676 0.441945 0.877790
Si Si2 0.742339 0.164505 0.908659
Si Si3 0.843830 0.571159 0.738076
Si Si4 0.595667 0.424740 0.090228
Si Si5 0.270846 0.788025 0.131679
Si Si6 0.951413 0.804696 0.696106
O O1 0.708412 0.332495 0.888479
O O2 0.676159 0.606628 0.870380
O O3 0.580193 0.393520 0.790830
O O4 0.587956 0.411860 0.975487
O O5 0.678099 0.069516 0.850716
O O6 0.745592 0.150068 0.024109
O O7 0.795599 0.712374 0.692888
O O8 0.815050 0.419141 0.688475
O O9 0.927230 0.630908 0.713806
O O10 0.674635 0.355087 0.116805
O O11 0.535576 0.337799 0.158809
O O12 0.591063 0.603194 0.111735
#
# Coordination Sequence:
#
# PCOD9376385 Si02
#       6
#     8   8   8   8   8   8
#     4  10  20  37  59  87 119 150 198 248 296 350
#     4  10  20  34  57  87 113 145 192 250 296 340
#     4  11  21  36  59  85 115 149 194 250 299 348
#     4  10  22  38  56  82 117 157 194 234 290 354
#     4  11  21  36  59  85 115 149 194 250 299 348
#     4  10  22  38  56  82 117 157 194 234 290 354
#
# _framework density 22.20487
#
# number of rings (size 3 to 8) (size 9 to 14) (size 15 to 20)
#    0.000    1.667    0.000    7.000    0.000    3.333 
#    0.000    3.333    0.000    6.000    0.000    0.000 
#    0.000    0.000    0.000    0.000    0.000    0.000 
#
# Total GULP energy -133707.452762 kJ/mol
# GULP energy per Si atom -5571.143865 kJ/mol
# Density = 2.215433 g / cm^3
# Si number density = 22.204870 Si / 1000 Ang^3
#
#
#
# Elastic Constant Matrix: (Units=GPa)
#
#
# Indices 1 2 3 4 5 6 
#
# 1 83.9371 10.5083 27.4866 0.0000 0.0000 0.0000
# 2 10.5083 43.7650 -8.3065 0.0000 0.0000 0.0000
# 3 27.4866 -8.3065 107.7508 0.0000 0.0000 0.0000
# 4 0.0000 0.0000 0.0000 19.5161 0.0000 0.0000
# 5 0.0000 0.0000 0.0000 0.0000 35.2191 0.0000
# 6 0.0000 0.0000 0.0000 0.0000 0.0000 39.6418
#
#
#
# Elastic Compliance Matrix: (Units=1/GPa)
#
#
# Indices 1 2 3 4 5 6 
#
# 1 0.013656 -0.003999 -0.003792 0.000000 0.000000 0.000000
# 2 -0.003999 0.024359 0.002898 0.000000 0.000000 0.000000
# 3 -0.003792 0.002898 0.010471 0.000000 0.000000 0.000000
# 4 0.000000 0.000000 0.000000 0.051240 0.000000 0.000000
# 5 0.000000 0.000000 0.000000 0.000000 0.028394 0.000000
# 6 0.000000 0.000000 0.000000 0.000000 0.000000 0.025226
#
#
# Mechanical properties :
#
#
# Convention : Reuss Voigt Hill
#
# Bulk Modulus (GPa) = 25.83866 32.75884 29.29875
# Shear Modulus (GPa) = 28.40400 32.59304 30.49852
#
# Velocity S-wave (km/s) = 3.58044 3.83539 3.71010
# Velocity P-wave (km/s) = 5.36232 5.86503 5.61930
#
# Compressibility (1/GPa) = 0.03870170
#
# Stress axis : x y z
#
# Youngs Moduli (GPa) = 73.22808 41.05194 95.49877
#
# Poissons Ratio (x) = 0.16415 0.36211
# Poissons Ratio (y) = 0.29281 -0.27674
# Poissons Ratio (z) = 0.27767 -0.11896
#
# Static dielectric constant tensor:
#      x y z
#    x 1.944950 0.000000 0.000000 
#    y 0.000000 1.873780 0.000000 
#    z 0.000000 0.000000 1.837780 
# 
# From -- ./inp_files/6898.got.cif
#   From: 2010.05.17/outbox.cif.g08.bks.cpg/sg45_4_cif.got.tgz:6898.got - 2010.06.03 19:51:22.
