data_PCOD9376961
_publ_section_title
;
Structure prediction by ZEFSAII (Michael W. Deem and Ramdas Pophale) SiO2 
 PCOD9376961
Probable space group: I B A 2
;
_chemical_formula_sum "Si O2"
_cell_formula_units_Z 60
_cell_length_a 28.654461
_cell_length_b 8.818571
_cell_length_c 12.200400
_cell_angle_alpha 90.000000
_cell_angle_beta 90.000000
_cell_angle_gamma 90.000000
_cell_volume 3082.936142
_symmetry_space_group_name_H-M "I B A 2"
_symmetry_group_IT_number 45
_symmetry_cell_setting 'orthorhombic'
loop_
_space_group_symop_operation_xyz
x,y,z
-x,-y,z
-x,y,1/2+z
x,-y,1/2+z
1/2+x,1/2+y,1/2+z
1/2-x,1/2-y,1/2+z
1/2-x,1/2+y,z
1/2+x,1/2-y,z
loop_
_atom_site_type_symbol
_atom_site_label
_atom_site_fract_x
_atom_site_fract_y
_atom_site_fract_z
Si Si1 0.745342 0.659554 0.248920
Si Si2 0.305200 0.932669 0.835267
Si Si3 0.677755 0.802957 0.569121
Si Si4 0.500000 0.500000 0.710124
Si Si5 0.603736 0.013648 0.200285
Si Si6 0.577820 0.303267 0.330060
Si Si7 0.151884 0.988580 0.692798
Si Si8 0.426011 0.291419 0.092889
O O1 0.729615 0.831958 0.262618
O O2 0.778972 0.594019 0.344426
O O3 0.778452 0.647226 0.143345
O O4 0.697305 0.568643 0.240642
O O5 0.355200 0.951723 0.779210
O O6 0.311156 0.841523 0.945899
O O7 0.632399 0.898184 0.605993
O O8 0.666882 0.629728 0.598683
O O9 0.464609 0.405518 0.786031
O O10 0.529051 0.384499 0.634146
O O11 0.576325 0.139882 0.269999
O O12 0.575792 0.875266 0.147127
O O13 0.624118 0.389203 0.283739
O O14 0.577343 0.286618 0.461075
O O15 0.117658 0.114010 0.641844
#
# Coordination Sequence:
#
# PCOD9376961 Si02
#       8
#     8   8   8   4   8   8   8   8
#     4  11  22  38  51  86 121 158 214 257 290 361
#     4  11  23  36  58  82 124 167 206 254 305 344
#     4  10  23  38  55  83 125 164 206 256 306 347
#     4  10  24  44  66 102 126 146 204 248 304 400
#     4  10  22  42  60  93 124 155 213 246 296 376
#     4  10  23  43  66  93 125 159 198 254 314 372
#     4  10  22  39  58  88 121 158 213 258 295 375
#     4  11  22  41  71  90 124 163 195 254 319 367
#
# _framework density 19.461964999999999
#
# number of rings (size 3 to 8) (size 9 to 14) (size 15 to 20)
#    0.000    1.600    2.667    1.200    3.733    0.533 
#    0.000    5.333    0.000    0.000    0.000    0.000 
#    0.000    0.000    0.000    0.000    0.000    0.000 
#
# Total GULP energy -167516.511672 kJ/mol
# GULP energy per Si atom -5583.883722 kJ/mol
# Density = 1.941767 g / cm^3
# Si number density = 19.461965 Si / 1000 Ang^3
#
#
#
# Elastic Constant Matrix: (Units=GPa)
#
#
# Indices 1 2 3 4 5 6 
#
# 1 73.6756 37.2109 18.9582 0.0000 0.0000 0.0000
# 2 37.2109 112.5643 36.0258 0.0000 0.0000 0.0000
# 3 18.9582 36.0258 81.8797 0.0000 0.0000 0.0000
# 4 0.0000 0.0000 0.0000 13.1990 0.0000 0.0000
# 5 0.0000 0.0000 0.0000 0.0000 12.4954 0.0000
# 6 0.0000 0.0000 0.0000 0.0000 0.0000 28.7831
#
#
#
# Elastic Compliance Matrix: (Units=1/GPa)
#
#
# Indices 1 2 3 4 5 6 
#
# 1 0.016483 -0.004920 -0.001652 0.000000 0.000000 0.000000
# 2 -0.004920 0.011809 -0.004056 0.000000 0.000000 0.000000
# 3 -0.001652 -0.004056 0.014380 0.000000 0.000000 0.000000
# 4 0.000000 0.000000 0.000000 0.075764 0.000000 0.000000
# 5 0.000000 0.000000 0.000000 0.000000 0.080029 0.000000
# 6 0.000000 0.000000 0.000000 0.000000 0.000000 0.034743
#
#
# Mechanical properties :
#
#
# Convention : Reuss Voigt Hill
#
# Bulk Modulus (GPa) = 46.69553 50.27883 48.48718
# Shear Modulus (GPa) = 19.11298 22.62381 20.86840
#
# Velocity S-wave (km/s) = 3.13720 3.41319 3.27810
# Velocity P-wave (km/s) = 6.09656 6.43612 6.26864
#
# Compressibility (1/GPa) = 0.02141533
#
# Stress axis : x y z
#
# Youngs Moduli (GPa) = 60.66832 84.68436 69.54018
#
# Poissons Ratio (x) = 0.41667 0.11485
# Poissons Ratio (y) = 0.29851 0.28208
# Poissons Ratio (z) = 0.10020 0.34351
#
# Static dielectric constant tensor:
#      x y z
#    x 1.659670 0.000000 0.000000 
#    y 0.000000 1.713420 0.000000 
#    z 0.000000 0.000000 1.653270 
# 
# From -- ./inp_files/3336.got.cif
#   From: 2010.05.17/outbox.cif.g08.bks.cpg/sg45_2_cif.got.tgz:3336.got - 2010.06.03 19:51:22.
