data_PCOD9376191
_publ_section_title
;
Structure prediction by ZEFSAII (Michael W. Deem and Ramdas Pophale) SiO2 
 PCOD9376191
Probable space group: I B A 2
;
_chemical_formula_sum "Si O2"
_cell_formula_units_Z 40
_cell_length_a 17.823419
_cell_length_b 9.006569
_cell_length_c 9.428771
_cell_angle_alpha 90.000000
_cell_angle_beta 90.000000
_cell_angle_gamma 90.000000
_cell_volume 1513.580365
_symmetry_space_group_name_H-M "I B A 2"
_symmetry_group_IT_number 45
_symmetry_cell_setting 'orthorhombic'
loop_
_space_group_symop_operation_xyz
x,y,z
-x,-y,z
-x,y,1/2+z
x,-y,1/2+z
1/2+x,1/2+y,1/2+z
1/2-x,1/2-y,1/2+z
1/2-x,1/2+y,z
1/2+x,1/2-y,z
loop_
_atom_site_type_symbol
_atom_site_label
_atom_site_fract_x
_atom_site_fract_y
_atom_site_fract_z
Si Si1 0.153599 0.138074 0.417020
Si Si2 0.217121 0.974169 0.661750
Si Si3 0.500000 0.000000 0.628186
Si Si4 0.640357 0.954805 0.975763
Si Si5 0.000000 0.000000 0.942833
Si Si6 0.902667 0.259516 0.572551
O O1 0.211453 0.034284 0.330594
O O2 0.167425 0.310973 0.392739
O O3 0.071707 0.078771 0.369421
O O4 0.170392 0.102522 0.581861
O O5 0.300284 0.974173 0.603233
O O6 0.172207 0.824609 0.618043
O O7 0.558963 0.094581 0.535842
O O8 0.381129 0.126921 0.442421
O O9 0.555591 0.872548 0.683407
O O10 0.040437 0.130737 0.029257
#
# Coordination Sequence:
#
# PCOD9376191 Si02
#       6
#     8   8   4   8   4   8
#     4  11  24  43  70 102 144 187 236 308 363 453
#     4  11  25  41  70 102 143 189 244 297 375 441
#     4   8  18  40  70  94 146 184 242 306 386 434
#     4  10  20  43  68  99 141 186 243 303 373 445
#     4  10  18  42  70 108 138 184 244 290 376 442
#     4   9  19  39  69 100 137 191 236 304 369 446
#
# _framework density 26.427403999999999
#
# number of rings (size 3 to 8) (size 9 to 14) (size 15 to 20)
#    1.200    0.800    2.000    1.200    0.000    6.400 
#    0.000    7.000    0.000    0.000    0.000    0.000 
#    0.000    0.000    0.000    0.000    0.000    0.000 
#
# Total GULP energy -111398.509313 kJ/mol
# GULP energy per Si atom -5569.925466 kJ/mol
# Density = 2.636725 g / cm^3
# Si number density = 26.427404 Si / 1000 Ang^3
#
#
#
# Elastic Constant Matrix: (Units=GPa)
#
#
# Indices 1 2 3 4 5 6 
#
# 1 137.3168 39.3593 1.0876 0.0000 0.0000 0.0000
# 2 39.3593 192.2162 29.7339 0.0000 0.0000 0.0000
# 3 1.0876 29.7339 52.9919 0.0000 0.0000 0.0000
# 4 0.0000 0.0000 0.0000 24.0488 0.0000 0.0000
# 5 0.0000 0.0000 0.0000 0.0000 18.7355 0.0000
# 6 0.0000 0.0000 0.0000 0.0000 0.0000 56.6936
#
#
#
# Elastic Compliance Matrix: (Units=1/GPa)
#
#
# Indices 1 2 3 4 5 6 
#
# 1 0.007768 -0.001715 0.000803 0.000000 0.000000 0.000000
# 2 -0.001715 0.006075 -0.003374 0.000000 0.000000 0.000000
# 3 0.000803 -0.003374 0.020747 0.000000 0.000000 0.000000
# 4 0.000000 0.000000 0.000000 0.041582 0.000000 0.000000
# 5 0.000000 0.000000 0.000000 0.000000 0.053375 0.000000
# 6 0.000000 0.000000 0.000000 0.000000 0.000000 0.017639
#
#
# Mechanical properties :
#
#
# Convention : Reuss Voigt Hill
#
# Bulk Modulus (GPa) = 38.43369 58.09852 48.26610
# Shear Modulus (GPa) = 30.40800 40.71850 35.56325
#
# Velocity S-wave (km/s) = 3.39576 3.92952 3.67235
# Velocity P-wave (km/s) = 5.47263 6.52841 6.02369
#
# Compressibility (1/GPa) = 0.02601884
#
# Stress axis : x y z
#
# Youngs Moduli (GPa) = 128.74060 164.59615 48.19890
#
# Poissons Ratio (x) = 0.28223 -0.03869
# Poissons Ratio (y) = 0.22075 0.16261
# Poissons Ratio (z) = -0.10334 0.55531
#
# Static dielectric constant tensor:
#      x y z
#    x 2.006060 0.000000 0.000000 
#    y 0.000000 2.052460 0.000000 
#    z 0.000000 0.000000 2.230200 
# 
# From -- ./inp_files/2037.got.cif
#   From: 2010.05.17/outbox.cif.g08.bks.cpg/sg45_2_cif.got.tgz:2037.got - 2010.06.03 19:51:22.
