data_PCOD9376017
_publ_section_title
;
Structure prediction by ZEFSAII (Michael W. Deem and Ramdas Pophale) SiO2 
 PCOD9376017
Probable space group: I M M 2
;
_chemical_formula_sum "Si O2"
_cell_formula_units_Z 24
_cell_length_a 9.000000
_cell_length_b 18.000000
_cell_length_c 15.000000
_cell_angle_alpha 90.000000
_cell_angle_beta 90.000000
_cell_angle_gamma 90.000000
_cell_volume 2430.000000
_symmetry_space_group_name_H-M "I M M 2"
_symmetry_group_IT_number 44
_symmetry_cell_setting 'orthorhombic'
loop_
_space_group_symop_operation_xyz
x,y,z
-x,-y,z
-x,y,z
x,-y,z
1/2+x,1/2+y,1/2+z
1/2-x,1/2-y,1/2+z
1/2-x,1/2+y,1/2+z
1/2+x,1/2-y,1/2+z
loop_
_atom_site_type_symbol
_atom_site_label
_atom_site_fract_x
_atom_site_fract_y
_atom_site_fract_z
Si Si1 0.824242 0.190264 0.369510
Si Si2 0.178450 0.653394 0.679335
Si Si3 0.169538 0.413327 0.001736
Si Si4 0.679410 0.338652 0.347795
Si Si5 0.172205 0.000000 0.120532
Si Si6 0.326240 0.200626 0.661064
Si Si7 0.670998 0.500000 0.407614
O O1 0.739869 0.168627 0.278597
O O2 0.785208 0.124731 0.436496
O O3 0.754114 0.269348 0.399023
O O4 0.000000 0.197257 0.357422
O O5 0.243244 0.574285 0.650338
O O6 0.250626 0.723211 0.626905
O O7 0.000000 0.654999 0.675756
O O8 0.196936 0.500000 0.016333
O O9 0.176737 0.365572 0.091077
O O10 0.000000 0.405427 0.965664
O O11 0.500000 0.334057 0.355848
O O12 0.734056 0.325466 0.247021
O O13 0.733271 0.420553 0.376688
O O14 0.169592 0.000000 0.013823
O O15 0.000000 0.000000 0.152408
O O16 0.500000 0.215273 0.682580
O O17 0.500000 0.500000 0.374624
#
# Coordination Sequence:
#
# PCOD9376017 Si02
#       7
#     8   8   8   8   4   8   4
#     4  11  23  40  62  90 120 157 201 249 301 355
#     4  11  23  41  63  89 121 160 200 246 302 359
#     4  10  23  41  62  88 121 159 200 245 300 359
#     4  10  20  39  63  89 120 159 200 243 297 358
#     4  11  23  41  63  90 121 158 203 249 298 357
#     4  10  21  39  63  90 120 159 200 246 299 355
#     4   9  22  39  61  90 121 158 197 241 298 355
#
# _framework density 9.8765429999999999
#
# number of rings (size 3 to 8) (size 9 to 14) (size 15 to 20)
#    0.000    1.667    0.000    6.250    4.667    1.667 
#    0.000    3.750    0.000    0.000    0.000    0.000 
#    0.000    0.000    0.000    0.000    0.000    0.000 
#
# Total GULP energy -133948.533307 kJ/mol
# GULP energy per Si atom -5581.188888 kJ/mol
# Density = 0.985406 g / cm^3
# Si number density = 9.876543 Si / 1000 Ang^3
#
#
#
# Elastic Constant Matrix: (Units=GPa)
#
#
# Indices 1 2 3 4 5 6 
#
# 1 137.1891 75.7607 28.4208 0.0000 0.0000 0.0000
# 2 75.7607 209.7074 46.0747 0.0000 0.0000 0.0000
# 3 28.4208 46.0747 49.2105 0.0000 0.0000 0.0000
# 4 0.0000 0.0000 0.0000 33.6730 0.0000 0.0000
# 5 0.0000 0.0000 0.0000 0.0000 23.9344 0.0000
# 6 0.0000 0.0000 0.0000 0.0000 0.0000 17.9739
#
#
#
# Elastic Compliance Matrix: (Units=1/GPa)
#
#
# Indices 1 2 3 4 5 6 
#
# 1 0.009410 -0.002777 -0.002835 0.000000 0.000000 0.000000
# 2 -0.002777 0.006823 -0.004784 0.000000 0.000000 0.000000
# 3 -0.002835 -0.004784 0.026438 0.000000 0.000000 0.000000
# 4 0.000000 0.000000 0.000000 0.029697 0.000000 0.000000
# 5 0.000000 0.000000 0.000000 0.000000 0.041781 0.000000
# 6 0.000000 0.000000 0.000000 0.000000 0.000000 0.055636
#
#
# Mechanical properties :
#
#
# Convention : Reuss Voigt Hill
#
# Bulk Modulus (GPa) = 45.70697 77.40214 61.55455
# Shear Modulus (GPa) = 25.26920 31.50633 28.38777
#
# Velocity S-wave (km/s) = 3.58055 3.99809 3.79506
# Velocity P-wave (km/s) = 6.34690 7.78350 7.10162
#
# Compressibility (1/GPa) = 0.02187850
#
# Stress axis : x y z
#
# Youngs Moduli (GPa) = 106.27174 146.56610 37.82486
#
# Poissons Ratio (x) = 0.40696 0.10723
# Poissons Ratio (y) = 0.29508 0.18097
# Poissons Ratio (z) = 0.30126 0.70124
#
# Static dielectric constant tensor:
#      x y z
#    x 1.673710 0.000000 0.000000 
#    y 0.000000 1.719560 0.000000 
#    z 0.000000 0.000000 1.729060 
# 
# From -- ./inp_files/16115.got.cif
#   From: 2010.05.17/outbox.ucp.g08.bks.cvg/sg44_9_cif.got.tgz:16115.got - 2010.06.11 16:32:36.
