data_PCOD9376833
_publ_section_title
;
Structure prediction by ZEFSAII (Michael W. Deem and Ramdas Pophale) SiO2 
 PCOD9376833
Probable space group: I B A 2
;
_chemical_formula_sum "Si O2"
_cell_formula_units_Z 48
_cell_length_a 16.636963
_cell_length_b 14.985195
_cell_length_c 8.289711
_cell_angle_alpha 90.000000
_cell_angle_beta 90.000000
_cell_angle_gamma 90.000000
_cell_volume 2066.692387
_symmetry_space_group_name_H-M "I B A 2"
_symmetry_group_IT_number 45
_symmetry_cell_setting 'orthorhombic'
loop_
_space_group_symop_operation_xyz
x,y,z
-x,-y,z
-x,y,1/2+z
x,-y,1/2+z
1/2+x,1/2+y,1/2+z
1/2-x,1/2-y,1/2+z
1/2-x,1/2+y,z
1/2+x,1/2-y,z
loop_
_atom_site_type_symbol
_atom_site_label
_atom_site_fract_x
_atom_site_fract_y
_atom_site_fract_z
Si Si1 0.153022 0.613442 0.785230
Si Si2 0.910320 0.530762 0.976276
Si Si3 0.910641 0.037917 0.867558
Si Si4 0.158768 0.198811 0.203513
Si Si5 0.666553 0.207660 0.851932
Si Si6 0.663149 0.380559 0.689193
O O1 0.149773 0.551908 0.941601
O O2 0.097767 0.561228 0.660046
O O3 0.125271 0.715152 0.801286
O O4 0.240135 0.620172 0.699937
O O5 0.884110 0.618758 0.877972
O O6 0.000000 0.500000 0.944741
O O7 0.896931 0.112692 0.728326
O O8 0.859577 0.951287 0.825102
O O9 0.876356 0.083730 0.027229
O O10 0.000000 0.000000 0.881977
O O11 0.245258 0.180224 0.286644
O O12 0.169645 0.235097 0.020321
O O13 0.634185 0.280737 0.726707
#
# Coordination Sequence:
#
# PCOD9376833 Si02
#       6
#     8   8   8   8   8   8
#     4  10  22  40  66  93 125 172 218 268 320 391
#     4  11  23  40  62  95 133 167 209 266 333 394
#     4  12  25  42  65  97 137 175 218 282 351 414
#     4  10  21  41  66  99 134 174 229 278 332 402
#     4  10  22  41  70 100 132 177 228 282 333 400
#     4  11  23  42  67  96 129 175 228 276 335 409
#
# _framework density 23.225517
#
# number of rings (size 3 to 8) (size 9 to 14) (size 15 to 20)
#    0.000    1.333    0.000    7.000    0.000    6.667 
#    0.000    4.167    0.000    0.000    0.000    0.000 
#    0.000    0.000    0.000    0.000    0.000    0.000 
#
# Total GULP energy -134227.426227 kJ/mol
# GULP energy per Si atom -5592.809426 kJ/mol
# Density = 2.317265 g / cm^3
# Si number density = 23.225517 Si / 1000 Ang^3
#
#
#
# Elastic Constant Matrix: (Units=GPa)
#
#
# Indices 1 2 3 4 5 6 
#
# 1 85.4897 41.5230 25.2205 0.0000 0.0000 0.0000
# 2 41.5230 114.9306 9.6182 0.0000 0.0000 0.0000
# 3 25.2205 9.6182 51.7956 0.0000 0.0000 0.0000
# 4 0.0000 0.0000 0.0000 50.2907 0.0000 0.0000
# 5 0.0000 0.0000 0.0000 0.0000 19.3033 0.0000
# 6 0.0000 0.0000 0.0000 0.0000 0.0000 20.4291
#
#
#
# Elastic Compliance Matrix: (Units=1/GPa)
#
#
# Indices 1 2 3 4 5 6 
#
# 1 0.016336 -0.005319 -0.006967 0.000000 0.000000 0.000000
# 2 -0.005319 0.010570 0.000627 0.000000 0.000000 0.000000
# 3 -0.006967 0.000627 0.022582 0.000000 0.000000 0.000000
# 4 0.000000 0.000000 0.000000 0.019884 0.000000 0.000000
# 5 0.000000 0.000000 0.000000 0.000000 0.051805 0.000000
# 6 0.000000 0.000000 0.000000 0.000000 0.000000 0.048950
#
#
# Mechanical properties :
#
#
# Convention : Reuss Voigt Hill
#
# Bulk Modulus (GPa) = 38.20951 44.99324 41.60137
# Shear Modulus (GPa) = 24.73187 29.72824 27.23006
#
# Velocity S-wave (km/s) = 3.26676 3.58156 3.42778
# Velocity P-wave (km/s) = 5.54222 6.04300 5.79802
#
# Compressibility (1/GPa) = 0.02617150
#
# Stress axis : x y z
#
# Youngs Moduli (GPa) = 61.21434 94.60647 44.28214
#
# Poissons Ratio (x) = 0.50321 0.30850
# Poissons Ratio (y) = 0.32560 -0.02777
# Poissons Ratio (z) = 0.42646 -0.05933
#
# Static dielectric constant tensor:
#      x y z
#    x 1.906270 0.000000 0.000000 
#    y 0.000000 1.866820 0.000000 
#    z 0.000000 0.000000 1.959030 
# 
# From -- ./inp_files/2073.got.cif
#   From: 2010.05.17/outbox.cif.g08.bks.cpg/sg45_2_cif.got.tgz:2073.got - 2010.06.03 19:51:22.
