data_PCOD9376660
_publ_section_title
;
Structure prediction by ZEFSAII (Michael W. Deem and Ramdas Pophale) SiO2 
 PCOD9376660
Probable space group: I B A 2
;
_chemical_formula_sum "Si O2"
_cell_formula_units_Z 64
_cell_length_a 5.218268
_cell_length_b 33.643814
_cell_length_c 14.603293
_cell_angle_alpha 90.000000
_cell_angle_beta 90.000000
_cell_angle_gamma 90.000000
_cell_volume 2563.789722
_symmetry_space_group_name_H-M "I B A 2"
_symmetry_group_IT_number 45
_symmetry_cell_setting 'orthorhombic'
loop_
_space_group_symop_operation_xyz
x,y,z
-x,-y,z
-x,y,1/2+z
x,-y,1/2+z
1/2+x,1/2+y,1/2+z
1/2-x,1/2-y,1/2+z
1/2-x,1/2+y,z
1/2+x,1/2-y,z
loop_
_atom_site_type_symbol
_atom_site_label
_atom_site_fract_x
_atom_site_fract_y
_atom_site_fract_z
Si Si1 0.308454 0.271223 0.616300
Si Si2 0.746619 0.024964 0.895401
Si Si3 0.570488 0.143078 0.650022
Si Si4 0.570489 0.856922 0.861005
Si Si5 0.691546 0.728777 0.394727
Si Si6 0.571709 0.611552 0.152710
Si Si7 0.253381 0.975036 0.115625
Si Si8 0.071709 0.111552 0.358317
O O1 0.093799 0.239512 0.648453
O O2 0.315840 0.270015 0.505513
O O3 0.198351 0.314004 0.642361
O O4 0.725671 0.029949 0.005513
O O5 0.500000 0.000000 0.864476
O O6 0.797117 0.068541 0.855966
O O7 0.000000 0.000000 0.875283
O O8 0.500000 0.134112 0.755513
O O9 0.286602 0.139502 0.607832
O O10 0.786311 0.113175 0.610646
O O11 0.698351 0.814004 0.868666
O O12 0.286602 0.860498 0.903195
O O13 0.786312 0.886825 0.900380
O O14 0.906200 0.760488 0.362573
O O15 0.702882 0.568541 0.155061
O O16 0.500000 0.624621 0.255513
O O17 0.500000 0.000000 0.146551
O O18 0.000000 0.000000 0.135744
#
# Coordination Sequence:
#
# PCOD9376660 Si02
#       8
#     8   8   8   8   8   8   8   8
#     4  10  21  36  54  79 109 140 179 225 271 324
#     4  10  21  37  57  82 111 143 182 227 274 328
#     4  10  21  36  55  79 108 142 181 224 270 324
#     4  10  21  36  55  79 108 142 181 224 270 324
#     4  10  21  36  54  79 109 140 179 225 271 324
#     4  10  21  37  55  80 111 142 181 226 271 325
#     4  10  21  37  57  82 111 143 182 227 274 328
#     4  10  21  37  55  80 111 142 181 226 271 325
#
# _framework density 24.963045999999999
#
# number of rings (size 3 to 8) (size 9 to 14) (size 15 to 20)
#    0.000    2.000    0.000    3.000    0.000    3.500 
#    0.000    1.250    0.000    0.000    0.000    0.000 
#    0.000    0.000    0.000    0.000    0.000    0.000 
#
# Total GULP energy -178838.016270 kJ/mol
# GULP energy per Si atom -5588.688008 kJ/mol
# Density = 2.490623 g / cm^3
# Si number density = 24.963046 Si / 1000 Ang^3
#
#
#
# Elastic Constant Matrix: (Units=GPa)
#
#
# Indices 1 2 3 4 5 6 
#
# 1 198.0058 25.3712 3.2782 0.0000 0.0000 0.0000
# 2 25.3712 84.7519 -21.1003 0.0000 0.0000 0.0000
# 3 3.2782 -21.1003 74.7015 -0.0001 0.0000 -0.0001
# 4 0.0000 0.0000 -0.0001 35.6660 0.0000 0.0000
# 5 0.0000 0.0000 0.0000 0.0000 -43.5259 0.0000
# 6 0.0000 0.0000 -0.0001 0.0000 0.0000 116.9937
#
#
#
# Elastic Compliance Matrix: (Units=1/GPa)
#
#
# Indices 1 2 3 4 5 6 
#
# 1 0.005289 -0.001765 -0.000731 0.000000 0.000000 0.000000
# 2 -0.001765 0.013281 0.003829 0.000000 0.000000 0.000000
# 3 -0.000731 0.003829 0.014500 0.000000 0.000000 0.000000
# 4 0.000000 0.000000 0.000000 0.028038 0.000000 0.000000
# 5 0.000000 0.000000 0.000000 0.000000 -0.022975 0.000000
# 6 0.000000 0.000000 0.000000 0.000000 0.000000 0.008547
#
#
# Mechanical properties :
#
#
# Convention : Reuss Voigt Hill
#
# Bulk Modulus (GPa) = 27.98333 41.39528 34.68931
# Shear Modulus (GPa) = 89.40385 45.15409 67.27897
#
# Velocity S-wave (km/s) = 5.99101 4.25766 5.19711
# Velocity P-wave (km/s) = 7.68704 6.38661 7.06680
#
# Compressibility (1/GPa) = 0.03573556
#
# Stress axis : x y z
#
# Youngs Moduli (GPa) = 189.08509 75.29678 68.96480
#
# Poissons Ratio (x) = 0.13291 0.05039
# Poissons Ratio (y) = 0.33376 -0.26405
# Poissons Ratio (z) = 0.13816 -0.28829
#
# Static dielectric constant tensor:
#      x y z
#    x 2.089460 0.000000 0.000000 
#    y 0.000000 1.933590 0.000000 
#    z 0.000000 0.000000 2.011950 
# 
# From -- ./inp_files/7377.got.cif
#   From: 2010.05.17/outbox.cif.g08.bks.cpg/sg45_4_cif.got.tgz:7377.got - 2010.06.03 19:51:22.
