data_PCOD9376261
_publ_section_title
;
Structure prediction by ZEFSAII (Michael W. Deem and Ramdas Pophale) SiO2 
 PCOD9376261
Probable space group: I B A 2
;
_chemical_formula_sum "Si O2"
_cell_formula_units_Z 56
_cell_length_a 12.743107
_cell_length_b 14.532848
_cell_length_c 13.839709
_cell_angle_alpha 90.000000
_cell_angle_beta 90.000000
_cell_angle_gamma 90.000000
_cell_volume 2563.026046
_symmetry_space_group_name_H-M "I B A 2"
_symmetry_group_IT_number 45
_symmetry_cell_setting 'orthorhombic'
loop_
_space_group_symop_operation_xyz
x,y,z
-x,-y,z
-x,y,1/2+z
x,-y,1/2+z
1/2+x,1/2+y,1/2+z
1/2-x,1/2-y,1/2+z
1/2-x,1/2+y,z
1/2+x,1/2-y,z
loop_
_atom_site_type_symbol
_atom_site_label
_atom_site_fract_x
_atom_site_fract_y
_atom_site_fract_z
Si Si1 0.624164 0.130194 0.094310
Si Si2 0.715111 0.675835 0.261274
Si Si3 0.118272 0.997141 0.868893
Si Si4 0.279953 0.251033 0.961671
Si Si5 0.728096 0.958876 0.033513
Si Si6 0.409971 0.576907 0.176688
Si Si7 0.551043 0.264038 0.601907
O O1 0.687214 0.142281 0.195609
O O2 0.506629 0.166855 0.099925
O O3 0.633973 0.025592 0.059828
O O4 0.688191 0.194134 0.017334
O O5 0.651046 0.590158 0.309291
O O6 0.754273 0.739264 0.349198
O O7 0.636978 0.726025 0.186542
O O8 0.114641 0.916911 0.789751
O O9 0.000000 0.000000 0.909654
O O10 0.204731 0.990597 0.950230
O O11 0.288164 0.145225 0.999828
O O12 0.390382 0.289981 0.002164
O O13 0.805512 0.953926 0.124185
O O14 0.500000 0.500000 0.167346
O O15 0.457653 0.666252 0.127840
#
# Coordination Sequence:
#
# PCOD9376261 Si02
#       7
#     8   8   8   8   8   8   8
#     4  11  23  41  64  95 131 182 220 277 339 400
#     4  10  21  41  63  94 136 169 221 284 331 406
#     4  10  19  34  64 102 125 168 225 284 347 385
#     4  10  24  42  61  96 135 173 228 274 337 405
#     4  11  22  39  62  92 138 175 218 281 336 401
#     4  11  18  37  65  95 126 161 224 284 336 378
#     4  11  22  40  67  95 132 176 222 272 339 405
#
# _framework density 21.849173
#
# number of rings (size 3 to 8) (size 9 to 14) (size 15 to 20)
#    0.000    1.429    5.714    1.286    0.000    2.857 
#    0.000    0.000    0.000    1.714    0.000    0.000 
#    0.000    0.000    0.000    0.000    0.000    0.000 
#
# Total GULP energy -156494.474363 kJ/mol
# GULP energy per Si atom -5589.088370 kJ/mol
# Density = 2.179944 g / cm^3
# Si number density = 21.849173 Si / 1000 Ang^3
#
#
#
# Elastic Constant Matrix: (Units=GPa)
#
#
# Indices 1 2 3 4 5 6 
#
# 1 73.4242 19.4309 16.5609 0.0000 0.0000 0.0000
# 2 19.4309 89.2182 13.8449 0.0000 0.0000 0.0000
# 3 16.5609 13.8449 80.9037 0.0000 0.0000 0.0000
# 4 0.0000 0.0000 0.0000 29.4335 0.0000 0.0000
# 5 0.0000 0.0000 0.0000 0.0000 29.4833 0.0000
# 6 0.0000 0.0000 0.0000 0.0000 0.0000 43.4459
#
#
#
# Elastic Compliance Matrix: (Units=1/GPa)
#
#
# Indices 1 2 3 4 5 6 
#
# 1 0.014956 -0.002858 -0.002572 0.000000 0.000000 0.000000
# 2 -0.002858 0.012060 -0.001479 0.000000 0.000000 0.000000
# 3 -0.002572 -0.001479 0.013140 0.000000 0.000000 0.000000
# 4 0.000000 0.000000 0.000000 0.033975 0.000000 0.000000
# 5 0.000000 0.000000 0.000000 0.000000 0.033917 0.000000
# 6 0.000000 0.000000 0.000000 0.000000 0.000000 0.023017
#
#
# Mechanical properties :
#
#
# Convention : Reuss Voigt Hill
#
# Bulk Modulus (GPa) = 37.96817 38.13550 38.05183
# Shear Modulus (GPa) = 32.53854 33.38650 32.96252
#
# Velocity S-wave (km/s) = 3.86325 3.91326 3.88833
# Velocity P-wave (km/s) = 6.10857 6.15711 6.13289
#
# Compressibility (1/GPa) = 0.02633785
#
# Stress axis : x y z
#
# Youngs Moduli (GPa) = 66.86256 82.91576 76.10344
#
# Poissons Ratio (x) = 0.23698 0.19577
# Poissons Ratio (y) = 0.19110 0.11254
# Poissons Ratio (z) = 0.17200 0.12262
#
# Static dielectric constant tensor:
#      x y z
#    x 1.747690 0.000000 0.000000 
#    y 0.000000 1.889020 0.000000 
#    z 0.000000 0.000000 1.797340 
# 
# From -- ./inp_files/6152.got.cif
#   From: 2010.05.17/outbox.cif.g08.bks.cpg/sg45_4_cif.got.tgz:6152.got - 2010.06.03 19:51:22.
