data_PCOD9376407
_publ_section_title
;
Structure prediction by ZEFSAII (Michael W. Deem and Ramdas Pophale) SiO2 
 PCOD9376407
Probable space group: I B A 2
;
_chemical_formula_sum "Si O2"
_cell_formula_units_Z 64
_cell_length_a 23.285452
_cell_length_b 8.511861
_cell_length_c 17.401298
_cell_angle_alpha 90.000000
_cell_angle_beta 90.000000
_cell_angle_gamma 90.000000
_cell_volume 3448.981302
_symmetry_space_group_name_H-M "I B A 2"
_symmetry_group_IT_number 45
_symmetry_cell_setting 'orthorhombic'
loop_
_space_group_symop_operation_xyz
x,y,z
-x,-y,z
-x,y,1/2+z
x,-y,1/2+z
1/2+x,1/2+y,1/2+z
1/2-x,1/2-y,1/2+z
1/2-x,1/2+y,z
1/2+x,1/2-y,z
loop_
_atom_site_type_symbol
_atom_site_label
_atom_site_fract_x
_atom_site_fract_y
_atom_site_fract_z
Si Si1 0.812786 0.316401 0.083390
Si Si2 0.591892 0.386528 0.496165
Si Si3 0.870974 0.179507 0.404170
Si Si4 0.999339 0.683029 0.725640
Si Si5 0.870974 0.820493 0.727317
Si Si6 0.187214 0.683599 0.548097
Si Si7 0.999339 0.683029 0.905848
Si Si8 0.591892 0.386528 0.135322
O O1 0.829511 0.274119 0.170747
O O2 0.814663 0.500000 0.065744
O O3 0.750000 0.250000 0.065744
O O4 0.860548 0.227957 0.032238
O O5 0.621653 0.502193 0.434760
O O6 0.541154 0.288303 0.457332
O O7 0.571881 0.500000 0.565744
O O8 0.853233 0.184720 0.315744
O O9 0.829511 0.274119 0.460740
O O10 0.934589 0.254104 0.411037
O O11 0.017035 0.693392 0.815744
O O12 0.041154 0.788303 0.674155
O O13 0.000000 0.500000 0.702874
O O14 0.934589 0.745896 0.720450
O O15 0.878347 0.997806 0.696728
O O16 0.139452 0.772043 0.599249
O O17 0.000000 0.500000 0.928613
#
# Coordination Sequence:
#
# PCOD9376407 Si02
#       8
#     8   8   8   8   8   8   8   8
#     4  11  23  42  62  83 113 149 192 239 284 335
#     4  10  21  36  57  84 116 152 191 232 282 336
#     4  10  21  38  60  86 117 151 189 233 284 340
#     4  10  20  35  56  85 119 151 187 233 283 336
#     4  10  21  38  60  86 117 151 189 233 284 340
#     4  11  23  42  62  83 113 149 192 239 284 335
#     4  10  20  35  56  85 119 151 187 233 283 336
#     4  10  21  36  57  84 116 152 191 232 282 336
#
# _framework density 18.556204000000001
#
# number of rings (size 3 to 8) (size 9 to 14) (size 15 to 20)
#    0.000    1.750    0.000    5.250    0.000    9.000 
#    0.000   13.750    0.000    0.000    0.000    0.000 
#    0.000    0.000    0.000    0.000    0.000    0.000 
#
# Total GULP energy -178881.125152 kJ/mol
# GULP energy per Si atom -5590.035161 kJ/mol
# Density = 1.851397 g / cm^3
# Si number density = 18.556204 Si / 1000 Ang^3
#
#
#
# Elastic Constant Matrix: (Units=GPa)
#
#
# Indices 1 2 3 4 5 6 
#
# 1 94.9917 60.4998 81.8560 0.0000 0.0000 0.0000
# 2 60.4998 173.4393 89.6110 0.0000 0.0000 0.0000
# 3 81.8560 89.6110 164.3821 0.0000 0.0000 0.0000
# 4 0.0000 0.0000 0.0000 21.6673 0.0000 0.0000
# 5 0.0000 0.0000 0.0000 0.0000 23.1857 0.0000
# 6 0.0000 0.0000 0.0000 0.0000 0.0000 28.2010
#
#
#
# Elastic Compliance Matrix: (Units=1/GPa)
#
#
# Indices 1 2 3 4 5 6 
#
# 1 0.019154 -0.002441 -0.008208 0.000000 0.000000 0.000000
# 2 -0.002441 0.008337 -0.003330 0.000000 0.000000 0.000000
# 3 -0.008208 -0.003330 0.011985 0.000000 0.000000 0.000000
# 4 0.000000 0.000000 0.000000 0.046153 0.000000 0.000000
# 5 0.000000 0.000000 0.000000 0.000000 0.043130 0.000000
# 6 0.000000 0.000000 0.000000 0.000000 0.000000 0.035460
#
#
# Mechanical properties :
#
#
# Convention : Reuss Voigt Hill
#
# Bulk Modulus (GPa) = 86.79569 99.63852 93.21710
# Shear Modulus (GPa) = 25.50813 28.00058 26.75435
#
# Velocity S-wave (km/s) = 3.71164 3.88875 3.80122
# Velocity P-wave (km/s) = 8.07740 8.60089 8.34325
#
# Compressibility (1/GPa) = 0.01152131
#
# Stress axis : x y z
#
# Youngs Moduli (GPa) = 52.20735 119.94070 83.43426
#
# Poissons Ratio (x) = 0.29277 0.68479
# Poissons Ratio (y) = 0.12743 0.27780
# Poissons Ratio (z) = 0.42849 0.39935
#
# Static dielectric constant tensor:
#      x y z
#    x 1.601180 0.000000 0.000000 
#    y 0.000000 1.629660 0.000000 
#    z 0.000000 0.000000 1.653290 
# 
# From -- ./inp_files/8444.got.cif
#   From: 2010.05.17/outbox.cif.g08.bks.cpg/sg45_5_cif.got.tgz:8444.got - 2010.06.03 19:51:22.
