data_PCOD9376093
_publ_section_title
;
Structure prediction by ZEFSAII (Michael W. Deem and Ramdas Pophale) SiO2 
 PCOD9376093
Probable space group: I B A 2
;
_chemical_formula_sum "Si O2"
_cell_formula_units_Z 60
_cell_length_a 8.525796
_cell_length_b 21.579867
_cell_length_c 13.500526
_cell_angle_alpha 90.000000
_cell_angle_beta 90.000000
_cell_angle_gamma 90.000000
_cell_volume 2483.901617
_symmetry_space_group_name_H-M "I B A 2"
_symmetry_group_IT_number 45
_symmetry_cell_setting 'orthorhombic'
loop_
_space_group_symop_operation_xyz
x,y,z
-x,-y,z
-x,y,1/2+z
x,-y,1/2+z
1/2+x,1/2+y,1/2+z
1/2-x,1/2-y,1/2+z
1/2-x,1/2+y,z
1/2+x,1/2-y,z
loop_
_atom_site_type_symbol
_atom_site_label
_atom_site_fract_x
_atom_site_fract_y
_atom_site_fract_z
Si Si1 0.606812 0.165206 0.682000
Si Si2 0.117612 0.878143 0.052395
Si Si3 0.876192 0.662755 0.440011
Si Si4 0.298420 0.220346 0.452119
Si Si5 0.900488 0.445435 0.654910
Si Si6 0.000000 0.000000 0.967588
Si Si7 0.584106 0.280884 0.162026
Si Si8 0.176344 0.526113 0.863170
O O1 0.624406 0.160401 0.560942
O O2 0.522770 0.101542 0.706301
O O3 0.498624 0.222805 0.710420
O O4 0.778084 0.183731 0.718076
O O5 0.158847 0.829254 0.965862
O O6 0.282988 0.907208 0.086918
O O7 0.004374 0.935414 0.027999
O O8 0.040726 0.833244 0.133158
O O9 0.761308 0.716955 0.402723
O O10 0.827889 0.596826 0.399771
O O11 0.051932 0.683654 0.414113
O O12 0.347519 0.247346 0.561868
O O13 0.804147 0.475203 0.744526
O O14 0.000000 0.500000 0.604403
O O15 0.833276 0.003128 0.910175
O O16 0.000000 0.500000 0.882909
#
# Coordination Sequence:
#
# PCOD9376093 Si02
#       8
#     8   8   8   8   8   4   8   8
#     4  10  18  35  64  95 125 174 220 272 335 402
#     4  12  22  39  67 108 125 173 239 285 335 413
#     4  10  19  35  66  92 130 173 221 276 337 402
#     4  10  17  33  63  97 132 163 222 285 338 387
#     4  11  26  44  65  96 143 184 223 283 354 408
#     4  12  28  42  76 100 132 186 244 286 338 414
#     4  10  17  33  60  98 133 157 211 296 330 382
#     4  11  27  50  66  96 151 187 225 289 355 411
#
# _framework density 24.155546999999999
#
# number of rings (size 3 to 8) (size 9 to 14) (size 15 to 20)
#    0.000    1.333    6.667    2.400    3.733    0.533 
#    2.400    2.667    0.000    0.000    0.000    0.000 
#    0.000    0.000    0.000    0.000    0.000    0.000 
#
# Total GULP energy -167698.732374 kJ/mol
# GULP energy per Si atom -5589.957746 kJ/mol
# Density = 2.410057 g / cm^3
# Si number density = 24.155547 Si / 1000 Ang^3
#
#
#
# Elastic Constant Matrix: (Units=GPa)
#
#
# Indices 1 2 3 4 5 6 
#
# 1 101.4630 32.9179 -7.0068 0.0000 0.0000 0.0000
# 2 32.9179 136.8914 6.9131 0.0001 0.0000 0.0000
# 3 -7.0068 6.9131 56.2991 0.0001 0.0000 0.0000
# 4 0.0000 0.0001 0.0001 17.9481 0.0000 0.0000
# 5 0.0000 0.0000 0.0000 0.0000 21.4571 0.0000
# 6 0.0000 0.0000 0.0000 0.0000 0.0000 57.8107
#
#
#
# Elastic Compliance Matrix: (Units=1/GPa)
#
#
# Indices 1 2 3 4 5 6 
#
# 1 0.010846 -0.002693 0.001680 0.000000 0.000000 0.000000
# 2 -0.002693 0.008019 -0.001320 0.000000 0.000000 0.000000
# 3 0.001680 -0.001320 0.018133 0.000000 0.000000 0.000000
# 4 0.000000 0.000000 0.000000 0.055716 0.000000 0.000000
# 5 0.000000 0.000000 0.000000 0.000000 0.046605 0.000000
# 6 0.000000 0.000000 0.000000 0.000000 0.000000 0.017298
#
#
# Mechanical properties :
#
#
# Convention : Reuss Voigt Hill
#
# Bulk Modulus (GPa) = 30.92740 40.03352 35.48046
# Shear Modulus (GPa) = 29.05972 36.89846 32.97909
#
# Velocity S-wave (km/s) = 3.47223 3.91261 3.69898
# Velocity P-wave (km/s) = 5.37647 6.08445 5.74138
#
# Compressibility (1/GPa) = 0.03233378
#
# Stress axis : x y z
#
# Youngs Moduli (GPa) = 92.20406 124.69984 55.14658
#
# Poissons Ratio (x) = 0.33580 -0.09267
# Poissons Ratio (y) = 0.24829 0.07279
# Poissons Ratio (z) = -0.15495 0.16459
#
# Static dielectric constant tensor:
#      x y z
#    x 1.962240 0.000000 0.000000 
#    y 0.000000 1.877340 0.000000 
#    z 0.000000 0.000000 2.020870 
# 
# From -- ./inp_files/7690.got.cif
#   From: 2010.05.17/outbox.cif.g08.bks.cpg/sg45_4_cif.got.tgz:7690.got - 2010.06.03 19:51:22.
