data_PCOD9376655
_publ_section_title
;
Structure prediction by ZEFSAII (Michael W. Deem and Ramdas Pophale) SiO2 
 PCOD9376655
Probable space group: I B A 2
;
_chemical_formula_sum "Si O2"
_cell_formula_units_Z 64
_cell_length_a 9.748390
_cell_length_b 21.494312
_cell_length_c 14.576364
_cell_angle_alpha 90.000000
_cell_angle_beta 90.000000
_cell_angle_gamma 90.000000
_cell_volume 3054.257500
_symmetry_space_group_name_H-M "I B A 2"
_symmetry_group_IT_number 45
_symmetry_cell_setting 'orthorhombic'
loop_
_space_group_symop_operation_xyz
x,y,z
-x,-y,z
-x,y,1/2+z
x,-y,1/2+z
1/2+x,1/2+y,1/2+z
1/2-x,1/2-y,1/2+z
1/2-x,1/2+y,z
1/2+x,1/2-y,z
loop_
_atom_site_type_symbol
_atom_site_label
_atom_site_fract_x
_atom_site_fract_y
_atom_site_fract_z
Si Si1 0.426389 0.059268 0.788680
Si Si2 0.391397 0.552716 0.748531
Si Si3 0.410176 0.691751 0.524855
Si Si4 0.089823 0.191751 0.749317
Si Si5 0.573610 0.059268 0.985494
Si Si6 0.891396 0.052716 0.025639
Si Si7 0.896038 0.699403 0.244269
Si Si8 0.603962 0.800597 0.529904
O O1 0.262318 0.047266 0.789118
O O2 0.499997 0.063100 0.887088
O O3 0.446817 0.128300 0.748815
O O4 0.500000 0.000000 0.742310
O O5 0.500000 0.500000 0.774795
O O6 0.450004 0.621036 0.772177
O O7 0.373659 0.550193 0.637085
O O8 0.406480 0.693613 0.637086
O O9 0.450002 0.621036 0.501994
O O10 0.505615 0.747457 0.492469
O O11 0.255940 0.700913 0.489255
O O12 0.994384 0.247456 0.781704
O O13 0.244059 0.200912 0.784918
O O14 0.500000 0.000000 0.031865
O O15 0.737681 0.047265 0.985054
O O16 0.553185 0.128300 0.025359
O O17 0.000000 0.000000 0.999376
O O18 0.880638 0.714308 0.137087
#
# Coordination Sequence:
#
# PCOD9376655 Si02
#       8
#     8   8   8   8   8   8   8   8
#     4  10  21  36  51  73 107 144 179 221 269 319
#     4   9  18  34  57  83 109 138 178 225 268 316
#     4   8  15  28  48  77 107 132 165 216 269 310
#     4   8  15  28  48  77 107 132 165 216 269 310
#     4  10  21  36  51  73 107 144 179 221 269 319
#     4   9  18  34  57  83 109 138 178 225 268 316
#     4   9  17  31  51  73 101 136 175 219 264 313
#     4   9  17  31  51  73 101 136 175 219 264 313
#
# _framework density 20.954356000000001
#
# number of rings (size 3 to 8) (size 9 to 14) (size 15 to 20)
#    0.000    3.000    0.000    2.250    0.000    4.000 
#    0.000   12.500    0.000    0.000    0.000    0.000 
#    0.000    0.000    0.000    0.000    0.000    0.000 
#
# Total GULP energy -178350.630934 kJ/mol
# GULP energy per Si atom -5573.457217 kJ/mol
# Density = 2.090666 g / cm^3
# Si number density = 20.954356 Si / 1000 Ang^3
#
#
#
# Elastic Constant Matrix: (Units=GPa)
#
#
# Indices 1 2 3 4 5 6 
#
# 1 116.2906 127.3244 18.5442 0.0000 0.0000 0.0000
# 2 127.3244 230.6956 2.3540 0.0000 0.0001 0.0000
# 3 18.5442 2.3540 58.4204 0.0001 0.0002 0.0000
# 4 0.0000 0.0000 0.0001 -64.9713 -0.0001 0.0000
# 5 0.0000 0.0001 0.0002 -0.0001 -2.8646 0.0000
# 6 0.0000 0.0000 0.0000 0.0000 0.0000 47.8976
#
#
#
# Elastic Compliance Matrix: (Units=1/GPa)
#
#
# Indices 1 2 3 4 5 6 
#
# 1 0.024435 -0.013412 -0.007216 0.000000 -0.000001 0.000000
# 2 -0.013412 0.011698 0.003786 0.000000 0.000001 0.000000
# 3 -0.007216 0.003786 0.019255 0.000000 0.000002 0.000000
# 4 0.000000 0.000000 0.000000 -0.015391 0.000000 0.000000
# 5 -0.000001 0.000001 0.000002 0.000000 -0.349089 0.000000
# 6 0.000000 0.000000 0.000000 0.000000 0.000000 0.020878
#
#
# Mechanical properties :
#
#
# Convention : Reuss Voigt Hill
#
# Bulk Modulus (GPa) = 46.07362 77.98353 62.02858
# Shear Modulus (GPa) = -20.21870 13.15794 -3.53038
#
# Velocity S-wave (km/s) = -3.10964 2.50858 -1.29940
# Velocity P-wave (km/s) = 3.02360 6.75924 5.23591
#
# Compressibility (1/GPa) = 0.02170439
#
# Stress axis : x y z
#
# Youngs Moduli (GPa) = 40.92569 85.48135 51.93396
#
# Poissons Ratio (x) = 1.14649 0.37474
# Poissons Ratio (y) = 0.54890 -0.19662
# Poissons Ratio (z) = 0.29531 -0.32363
#
# Static dielectric constant tensor:
#      x y z
#    x 1.716570 0.000000 0.000000 
#    y 0.000000 1.772160 0.000000 
#    z 0.000000 0.000000 1.828670 
# 
# From -- ./inp_files/8990.got.cif
#   From: 2010.05.17/outbox.cif.g08.bks.cpg/sg45_5_cif.got.tgz:8990.got - 2010.06.03 19:51:22.
