data_PCOD9376584
_publ_section_title
;
Structure prediction by ZEFSAII (Michael W. Deem and Ramdas Pophale) SiO2 
 PCOD9376584
Probable space group: I B A 2
;
_chemical_formula_sum "Si O2"
_cell_formula_units_Z 60
_cell_length_a 8.108165
_cell_length_b 18.785072
_cell_length_c 14.361213
_cell_angle_alpha 90.000000
_cell_angle_beta 90.000000
_cell_angle_gamma 90.000000
_cell_volume 2187.391728
_symmetry_space_group_name_H-M "I B A 2"
_symmetry_group_IT_number 45
_symmetry_cell_setting 'orthorhombic'
loop_
_space_group_symop_operation_xyz
x,y,z
-x,-y,z
-x,y,1/2+z
x,-y,1/2+z
1/2+x,1/2+y,1/2+z
1/2-x,1/2-y,1/2+z
1/2-x,1/2+y,z
1/2+x,1/2-y,z
loop_
_atom_site_type_symbol
_atom_site_label
_atom_site_fract_x
_atom_site_fract_y
_atom_site_fract_z
Si Si1 0.235799 0.122218 0.038340
Si Si2 0.287040 0.640415 0.246111
Si Si3 0.500000 0.500000 0.364326
Si Si4 0.408192 0.834515 0.232018
Si Si5 0.923734 0.312860 0.520590
Si Si6 0.752531 0.462726 0.517933
Si Si7 0.901647 0.811283 0.868817
Si Si8 0.771466 0.027569 0.220653
O O1 0.158405 0.140819 0.137455
O O2 0.380766 0.178140 0.025155
O O3 0.320592 0.043491 0.033748
O O4 0.114561 0.130164 0.952269
O O5 0.426994 0.677417 0.310669
O O6 0.102523 0.675248 0.254299
O O7 0.251264 0.554389 0.250612
O O8 0.637814 0.470491 0.430803
O O9 0.590888 0.552709 0.292469
O O10 0.372563 0.801587 0.129394
O O11 0.263316 0.814494 0.304281
O O12 0.384535 0.920807 0.224863
O O13 0.852586 0.391358 0.499938
O O14 0.894417 0.258156 0.437310
O O15 0.662581 0.457544 0.617316
#
# Coordination Sequence:
#
# PCOD9376584 Si02
#       8
#     8   8   4   8   8   8   8   8
#     4  10  23  51  82 122 160 213 289 350 427 521
#     4  10  23  48  84 120 167 224 281 358 433 514
#     4  12  22  36  68 122 170 204 272 360 434 514
#     4  10  23  50  82 120 168 222 283 356 431 518
#     4  10  25  53  80 118 168 221 286 357 435 520
#     4  10  22  44  80 113 159 218 281 360 433 511
#     4  12  26  53  79 124 170 223 284 350 441 533
#     4  10  20  40  75 122 162 212 284 357 434 507
#
# _framework density 27.429929999999999
#
# number of rings (size 3 to 8) (size 9 to 14) (size 15 to 20)
#    0.000    1.600    0.000    3.600    0.000    7.467 
#   14.400    6.667    5.867    0.000    0.000    0.000 
#    0.000    2.133    0.000    0.000    0.000    0.000 
#
# Total GULP energy -167666.456312 kJ/mol
# GULP energy per Si atom -5588.881877 kJ/mol
# Density = 2.736750 g / cm^3
# Si number density = 27.429930 Si / 1000 Ang^3
#
#
#
# Elastic Constant Matrix: (Units=GPa)
#
#
# Indices 1 2 3 4 5 6 
#
# 1 154.1903 67.7274 108.0208 0.0000 0.0000 0.0000
# 2 67.7274 176.5988 73.8885 0.0000 0.0000 0.0000
# 3 108.0208 73.8885 277.2262 0.0000 0.0000 0.0000
# 4 0.0000 0.0000 0.0000 31.4910 0.0000 0.0000
# 5 0.0000 0.0000 0.0000 0.0000 49.0796 0.0000
# 6 0.0000 0.0000 0.0000 0.0000 0.0000 55.1645
#
#
#
# Elastic Compliance Matrix: (Units=1/GPa)
#
#
# Indices 1 2 3 4 5 6 
#
# 1 0.009762 -0.002422 -0.003158 0.000000 0.000000 0.000000
# 2 -0.002422 0.006974 -0.000915 0.000000 0.000000 0.000000
# 3 -0.003158 -0.000915 0.005082 0.000000 0.000000 0.000000
# 4 0.000000 0.000000 0.000000 0.031755 0.000000 0.000000
# 5 0.000000 0.000000 0.000000 0.000000 0.020375 0.000000
# 6 0.000000 0.000000 0.000000 0.000000 0.000000 0.018128
#
#
# Mechanical properties :
#
#
# Convention : Reuss Voigt Hill
#
# Bulk Modulus (GPa) = 113.28980 123.03210 118.16095
# Shear Modulus (GPa) = 46.29235 51.03892 48.66564
#
# Velocity S-wave (km/s) = 4.11257 4.31827 4.21667
# Velocity P-wave (km/s) = 7.99638 8.35547 8.17790
#
# Compressibility (1/GPa) = 0.00882692
#
# Stress axis : x y z
#
# Youngs Moduli (GPa) = 102.43776 143.38115 196.78941
#
# Poissons Ratio (x) = 0.34734 0.62148
# Poissons Ratio (y) = 0.24815 0.18005
# Poissons Ratio (z) = 0.32351 0.13119
#
# Static dielectric constant tensor:
#      x y z
#    x 2.105380 0.000000 0.000000 
#    y 0.000000 2.463680 0.000000 
#    z 0.000000 0.000000 2.127820 
# 
# From -- ./inp_files/6251.got.cif
#   From: 2010.05.17/outbox.cif.g08.bks.cpg/sg45_4_cif.got.tgz:6251.got - 2010.06.03 19:51:22.
