data_PCOD9376843
_publ_section_title
;
Structure prediction by ZEFSAII (Michael W. Deem and Ramdas Pophale) SiO2 
 PCOD9376843
Probable space group: I B A 2
;
_chemical_formula_sum "Si O2"
_cell_formula_units_Z 64
_cell_length_a 26.567816
_cell_length_b 10.925224
_cell_length_c 9.240381
_cell_angle_alpha 90.000000
_cell_angle_beta 90.000000
_cell_angle_gamma 90.000000
_cell_volume 2682.106900
_symmetry_space_group_name_H-M "I B A 2"
_symmetry_group_IT_number 45
_symmetry_cell_setting 'orthorhombic'
loop_
_space_group_symop_operation_xyz
x,y,z
-x,-y,z
-x,y,1/2+z
x,-y,1/2+z
1/2+x,1/2+y,1/2+z
1/2-x,1/2-y,1/2+z
1/2-x,1/2+y,z
1/2+x,1/2-y,z
loop_
_atom_site_type_symbol
_atom_site_label
_atom_site_fract_x
_atom_site_fract_y
_atom_site_fract_z
Si Si1 0.249788 0.143044 0.468610
Si Si2 0.926738 0.644342 0.606355
Si Si3 0.030853 0.882414 0.397141
Si Si4 0.632274 0.648382 0.943333
Si Si5 0.119562 0.011536 0.708313
Si Si6 0.963825 0.732503 0.173870
Si Si7 0.230305 0.891666 0.300160
Si Si8 0.439093 0.007899 0.846231
O O1 0.190671 0.174202 0.451280
O O2 0.257541 0.130072 0.643161
O O3 0.273431 0.263789 0.390878
O O4 0.254471 0.008511 0.388910
O O5 0.897332 0.752886 0.534346
O O6 0.917502 0.529979 0.502528
O O7 0.915277 0.608580 0.769324
O O8 0.986269 0.666736 0.605846
O O9 0.072645 0.918662 0.279252
O O10 0.052076 0.810434 0.534902
O O11 0.989235 0.808694 0.304592
O O12 0.000000 0.000000 0.454019
O O13 0.617169 0.622561 0.779296
O O14 0.620748 0.525795 0.036556
O O15 0.173379 0.065620 0.760108
O O16 0.930445 0.628810 0.249151
O O17 0.500000 0.000000 0.851334
#
# Coordination Sequence:
#
# PCOD9376843 Si02
#       8
#     8   8   8   8   8   8   8   8
#     4  10  21  41  70  99 132 171 217 269 334 409
#     4  11  21  39  56  82 117 156 208 256 312 368
#     4  12  24  36  57  91 124 166 214 262 319 378
#     4  10  22  40  62  93 127 161 204 263 322 391
#     4  10  23  39  62  91 130 169 206 263 326 389
#     4  11  22  37  56  80 119 160 210 264 311 371
#     4  10  21  42  69 100 133 176 220 271 339 410
#     4  10  22  36  58  77 107 161 208 255 310 368
#
# _framework density 23.861837000000001
#
# number of rings (size 3 to 8) (size 9 to 14) (size 15 to 20)
#    0.000    1.500    2.500    3.000    3.500    1.000 
#    0.000    5.000    0.000    0.000    0.000    0.000 
#    0.000    0.000    0.000    0.000    0.000    0.000 
#
# Total GULP energy -178722.998641 kJ/mol
# GULP energy per Si atom -5585.093708 kJ/mol
# Density = 2.380753 g / cm^3
# Si number density = 23.861837 Si / 1000 Ang^3
#
#
#
# Elastic Constant Matrix: (Units=GPa)
#
#
# Indices 1 2 3 4 5 6 
#
# 1 21.5313 -2.0336 -2.8455 0.0000 0.0000 0.0000
# 2 -2.0336 107.8069 42.3528 0.0000 0.0000 0.0000
# 3 -2.8455 42.3528 128.3165 0.0000 0.0000 0.0000
# 4 0.0000 0.0000 0.0000 68.1900 0.0000 0.0000
# 5 0.0000 0.0000 0.0000 0.0000 20.6325 0.0000
# 6 0.0000 0.0000 0.0000 0.0000 0.0000 21.2611
#
#
#
# Elastic Compliance Matrix: (Units=1/GPa)
#
#
# Indices 1 2 3 4 5 6 
#
# 1 0.046608 0.000544 0.000854 0.000000 0.000000 0.000000
# 2 0.000544 0.010664 -0.003508 0.000000 0.000000 0.000000
# 3 0.000854 -0.003508 0.008970 0.000000 0.000000 0.000000
# 4 0.000000 0.000000 0.000000 0.014665 0.000000 0.000000
# 5 0.000000 0.000000 0.000000 0.000000 0.048467 0.000000
# 6 0.000000 0.000000 0.000000 0.000000 0.000000 0.047034
#
#
# Mechanical properties :
#
#
# Convention : Reuss Voigt Hill
#
# Bulk Modulus (GPa) = 16.12324 36.95580 26.53952
# Shear Modulus (GPa) = 24.83818 36.69545 30.76681
#
# Velocity S-wave (km/s) = 3.22982 3.92577 3.59468
# Velocity P-wave (km/s) = 4.54759 6.00583 5.32684
#
# Compressibility (1/GPa) = 0.06202228
#
# Stress axis : x y z
#
# Youngs Moduli (GPa) = 21.45542 93.77188 111.48298
#
# Poissons Ratio (x) = -0.05098 -0.09522
# Poissons Ratio (y) = -0.01166 0.39106
# Poissons Ratio (z) = -0.01833 0.32893
#
# Static dielectric constant tensor:
#      x y z
#    x 1.897360 0.000000 0.000000 
#    y 0.000000 2.075840 0.000000 
#    z 0.000000 0.000000 1.932160 
# 
# From -- ./inp_files/2776.got.cif
#   From: 2010.05.17/outbox.cif.g08.bks.cpg/sg45_2_cif.got.tgz:2776.got - 2010.06.03 19:51:22.
