data_PCOD9376715
_publ_section_title
;
Structure prediction by ZEFSAII (Michael W. Deem and Ramdas Pophale) SiO2 
 PCOD9376715
Probable space group: I B A 2
;
_chemical_formula_sum "Si O2"
_cell_formula_units_Z 48
_cell_length_a 23.787587
_cell_length_b 8.822647
_cell_length_c 8.808731
_cell_angle_alpha 90.000000
_cell_angle_beta 90.000000
_cell_angle_gamma 90.000000
_cell_volume 1848.683822
_symmetry_space_group_name_H-M "I B A 2"
_symmetry_group_IT_number 45
_symmetry_cell_setting 'orthorhombic'
loop_
_space_group_symop_operation_xyz
x,y,z
-x,-y,z
-x,y,1/2+z
x,-y,1/2+z
1/2+x,1/2+y,1/2+z
1/2-x,1/2-y,1/2+z
1/2-x,1/2+y,z
1/2+x,1/2-y,z
loop_
_atom_site_type_symbol
_atom_site_label
_atom_site_fract_x
_atom_site_fract_y
_atom_site_fract_z
Si Si1 0.425673 0.417614 0.637560
Si Si2 0.897932 0.436257 0.874396
Si Si3 0.794168 0.213023 0.949081
Si Si4 0.259828 0.536575 0.143373
Si Si5 0.144896 0.649828 0.588787
Si Si6 0.965899 0.186918 0.970144
O O1 0.367647 0.326804 0.611489
O O2 0.430174 0.593631 0.595568
O O3 0.470603 0.343462 0.520590
O O4 0.447915 0.384127 0.807024
O O5 0.902535 0.427766 0.694920
O O6 0.951483 0.362749 0.953021
O O7 0.849470 0.309188 0.912104
O O8 0.871523 0.593980 0.923401
O O9 0.750024 0.335849 0.013940
O O10 0.801794 0.092523 0.084014
O O11 0.771337 0.119203 0.803421
O O12 0.201522 0.436427 0.141467
#
# Coordination Sequence:
#
# PCOD9376715 Si02
#       6
#     8   8   8   8   8   8
#     4  10  21  39  61  88 122 159 202 261 317 378
#     4  10  23  39  59  88 117 158 206 255 313 383
#     4  11  23  39  62  89 123 161 207 260 320 382
#     4  11  22  41  63  90 124 167 211 262 320 386
#     4  10  22  40  60  85 121 159 206 256 314 377
#     4  10  21  38  61  90 119 156 206 255 316 380
#
# _framework density 25.964417000000001
#
# number of rings (size 3 to 8) (size 9 to 14) (size 15 to 20)
#    0.000    1.667    0.000    6.000    0.000    7.333 
#    0.000    5.000    0.000    0.000    0.000    0.000 
#    0.000    0.000    0.000    0.000    0.000    0.000 
#
# Total GULP energy -134075.651946 kJ/mol
# GULP energy per Si atom -5586.485498 kJ/mol
# Density = 2.590532 g / cm^3
# Si number density = 25.964417 Si / 1000 Ang^3
#
#
#
# Elastic Constant Matrix: (Units=GPa)
#
#
# Indices 1 2 3 4 5 6 
#
# 1 74.8733 16.6451 11.8892 0.0000 0.0000 0.0000
# 2 16.6451 86.0672 22.0047 0.0000 0.0000 0.0000
# 3 11.8892 22.0047 82.2505 0.0000 0.0000 0.0000
# 4 0.0000 0.0000 0.0000 45.0716 0.0000 0.0000
# 5 0.0000 0.0000 0.0000 0.0000 29.5052 0.0000
# 6 0.0000 0.0000 0.0000 0.0000 0.0000 46.8557
#
#
#
# Elastic Compliance Matrix: (Units=1/GPa)
#
#
# Indices 1 2 3 4 5 6 
#
# 1 0.014106 -0.002369 -0.001405 0.000000 0.000000 0.000000
# 2 -0.002369 0.012870 -0.003101 0.000000 0.000000 0.000000
# 3 -0.001405 -0.003101 0.013191 0.000000 0.000000 0.000000
# 4 0.000000 0.000000 0.000000 0.022187 0.000000 0.000000
# 5 0.000000 0.000000 0.000000 0.000000 0.033892 0.000000
# 6 0.000000 0.000000 0.000000 0.000000 0.000000 0.021342
#
#
# Mechanical properties :
#
#
# Convention : Reuss Voigt Hill
#
# Bulk Modulus (GPa) = 37.85483 38.25211 38.05347
# Shear Modulus (GPa) = 35.67808 37.12998 36.40403
#
# Velocity S-wave (km/s) = 3.71093 3.78568 3.74849
# Velocity P-wave (km/s) = 5.74216 5.82005 5.78124
#
# Compressibility (1/GPa) = 0.02641671
#
# Stress axis : x y z
#
# Youngs Moduli (GPa) = 70.89370 77.70205 75.81136
#
# Poissons Ratio (x) = 0.18405 0.10653
# Poissons Ratio (y) = 0.16793 0.23507
# Poissons Ratio (z) = 0.09962 0.24093
#
# Static dielectric constant tensor:
#      x y z
#    x 2.164160 0.000000 0.000000 
#    y 0.000000 2.073350 0.000000 
#    z 0.000000 0.000000 2.042840 
# 
# From -- ./inp_files/2738.got.cif
#   From: 2010.05.17/outbox.cif.g08.bks.cpg/sg45_2_cif.got.tgz:2738.got - 2010.06.03 19:51:22.
