data_PCOD9376190
_publ_section_title
;
Structure prediction by ZEFSAII (Michael W. Deem and Ramdas Pophale) SiO2 
 PCOD9376190
Probable space group: I B A 2
;
_chemical_formula_sum "Si O2"
_cell_formula_units_Z 40
_cell_length_a 15.612093
_cell_length_b 12.925720
_cell_length_c 8.714830
_cell_angle_alpha 90.000000
_cell_angle_beta 90.000000
_cell_angle_gamma 90.000000
_cell_volume 1758.631279
_symmetry_space_group_name_H-M "I B A 2"
_symmetry_group_IT_number 45
_symmetry_cell_setting 'orthorhombic'
loop_
_space_group_symop_operation_xyz
x,y,z
-x,-y,z
-x,y,1/2+z
x,-y,1/2+z
1/2+x,1/2+y,1/2+z
1/2-x,1/2-y,1/2+z
1/2-x,1/2+y,z
1/2+x,1/2-y,z
loop_
_atom_site_type_symbol
_atom_site_label
_atom_site_fract_x
_atom_site_fract_y
_atom_site_fract_z
Si Si1 0.616253 0.420430 0.188010
Si Si2 0.500000 0.000000 0.629774
Si Si3 0.110914 0.398933 0.890033
Si Si4 0.259276 0.739676 0.331981
Si Si5 0.500000 0.500000 0.953750
Si Si6 0.762449 0.896118 0.600214
O O1 0.684737 0.331790 0.217667
O O2 0.568406 0.446254 0.344481
O O3 0.666580 0.521972 0.136192
O O4 0.543906 0.412073 0.058741
O O5 0.536179 0.909672 0.517624
O O6 0.426182 0.956392 0.741983
O O7 0.158087 0.292443 0.839311
O O8 0.191713 0.444968 0.986139
O O9 0.270629 0.852489 0.262433
O O10 0.290835 0.704733 0.500579
#
# Coordination Sequence:
#
# PCOD9376190 Si02
#       6
#     8   4   8   8   4   8
#     4  11  21  42  65  91 122 166 204 261 307 364
#     4  10  18  42  66  94 128 150 212 242 338 370
#     4   9  21  37  61  94 121 164 193 261 299 373
#     4  10  23  41  62  93 121 165 212 251 302 366
#     4  10  22  36  66  92 122 162 210 252 318 362
#     4  10  23  41  62  93 121 165 212 251 302 366
#
# _framework density 22.744959999999999
#
# number of rings (size 3 to 8) (size 9 to 14) (size 15 to 20)
#    1.200    0.800    2.000    1.200    2.800    0.000 
#    7.200    8.000    0.000    0.000    0.000    0.000 
#    0.000    0.000    0.000    0.000    0.000    0.000 
#
# Total GULP energy -111346.938910 kJ/mol
# GULP energy per Si atom -5567.346945 kJ/mol
# Density = 2.269319 g / cm^3
# Si number density = 22.744960 Si / 1000 Ang^3
#
#
#
# Elastic Constant Matrix: (Units=GPa)
#
#
# Indices 1 2 3 4 5 6 
#
# 1 85.8642 28.9052 56.0302 0.0000 0.0000 0.0000
# 2 28.9052 31.2545 28.0201 0.0000 0.0000 0.0000
# 3 56.0302 28.0201 117.5477 0.0000 0.0000 0.0000
# 4 0.0000 0.0000 0.0000 24.5015 0.0000 0.0000
# 5 0.0000 0.0000 0.0000 0.0000 46.5751 0.0000
# 6 0.0000 0.0000 0.0000 0.0000 0.0000 5.1889
#
#
#
# Elastic Compliance Matrix: (Units=1/GPa)
#
#
# Indices 1 2 3 4 5 6 
#
# 1 0.020276 -0.012829 -0.006607 0.000000 0.000000 0.000000
# 2 -0.012829 0.048809 -0.005519 0.000000 0.000000 0.000000
# 3 -0.006607 -0.005519 0.012972 0.000000 0.000000 0.000000
# 4 0.000000 0.000000 0.000000 0.040814 0.000000 0.000000
# 5 0.000000 0.000000 0.000000 0.000000 0.021471 0.000000
# 6 0.000000 0.000000 0.000000 0.000000 0.000000 0.192720
#
#
# Mechanical properties :
#
#
# Convention : Reuss Voigt Hill
#
# Bulk Modulus (GPa) = 31.10796 51.17527 41.14161
# Shear Modulus (GPa) = 12.57269 23.36715 17.96992
#
# Velocity S-wave (km/s) = 2.35365 3.20872 2.81385
# Velocity P-wave (km/s) = 4.59269 6.02298 5.35579
#
# Compressibility (1/GPa) = 0.03214612
#
# Stress axis : x y z
#
# Youngs Moduli (GPa) = 49.31869 20.48820 77.08881
#
# Poissons Ratio (x) = 0.26285 0.50931
# Poissons Ratio (y) = 0.63272 0.42549
# Poissons Ratio (z) = 0.32584 0.11308
#
# Static dielectric constant tensor:
#      x y z
#    x 1.931510 0.000000 0.000000 
#    y 0.000000 1.747450 0.000000 
#    z 0.000000 0.000000 1.887360 
# 
# From -- ./inp_files/1631.got.cif
#   From: 2010.05.17/outbox.cif.g08.bks.cpg/sg45_1_cif.got.tgz:1631.got - 2010.06.03 19:51:22.
