data_PCOD9376990
_publ_section_title
;
Structure prediction by ZEFSAII (Michael W. Deem and Ramdas Pophale) SiO2 
 PCOD9376990
Probable space group: I B A 2
;
_chemical_formula_sum "Si O2"
_cell_formula_units_Z 52
_cell_length_a 18.337009
_cell_length_b 14.421472
_cell_length_c 9.070326
_cell_angle_alpha 90.000000
_cell_angle_beta 90.000000
_cell_angle_gamma 90.000000
_cell_volume 2398.617433
_symmetry_space_group_name_H-M "I B A 2"
_symmetry_group_IT_number 45
_symmetry_cell_setting 'orthorhombic'
loop_
_space_group_symop_operation_xyz
x,y,z
-x,-y,z
-x,y,1/2+z
x,-y,1/2+z
1/2+x,1/2+y,1/2+z
1/2-x,1/2-y,1/2+z
1/2-x,1/2+y,z
1/2+x,1/2-y,z
loop_
_atom_site_type_symbol
_atom_site_label
_atom_site_fract_x
_atom_site_fract_y
_atom_site_fract_z
Si Si1 0.451633 0.249747 0.560320
Si Si2 0.870935 0.624821 0.303484
Si Si3 0.716623 0.433806 0.695973
Si Si4 0.660972 0.391075 0.016255
Si Si5 0.000000 0.500000 0.799639
Si Si6 0.794830 0.263305 0.059846
Si Si7 0.922200 0.679498 0.731663
O O1 0.408473 0.181730 0.671822
O O2 0.417822 0.352163 0.558856
O O3 0.441813 0.210157 0.396516
O O4 0.533896 0.245026 0.618667
O O5 0.801714 0.566189 0.245471
O O6 0.837831 0.698120 0.418298
O O7 0.934626 0.559984 0.372479
O O8 0.690354 0.525016 0.613785
O O9 0.707207 0.345527 0.588558
O O10 0.670349 0.416678 0.844756
O O11 0.714575 0.304316 0.045486
O O12 0.953349 0.576337 0.712021
O O13 0.837489 0.309025 0.197753
#
# Coordination Sequence:
#
# PCOD9376990 Si02
#       7
#     8   8   8   8   4   8   8
#     4  11  23  43  65  95 135 185 217 284 352 411
#     4  10  23  40  67 102 144 181 222 290 353 433
#     4  11  24  42  70 104 133 187 235 290 347 419
#     4  11  25  43  70  99 136 178 237 285 346 416
#     4  10  22  40  64 106 136 178 230 274 368 418
#     4  11  23  44  68 102 139 180 226 287 354 419
#     4  11  23  40  69  96 140 178 227 285 349 420
#
# _framework density 21.679155000000002
#
# number of rings (size 3 to 8) (size 9 to 14) (size 15 to 20)
#    0.000    1.231    3.077    2.769    2.154    9.231 
#    0.000    0.769    0.000    0.000    0.000    0.000 
#    0.000    0.000    0.000    0.000    0.000    0.000 
#
# Total GULP energy -145315.025925 kJ/mol
# GULP energy per Si atom -5589.039459 kJ/mol
# Density = 2.162981 g / cm^3
# Si number density = 21.679155 Si / 1000 Ang^3
#
#
#
# Elastic Constant Matrix: (Units=GPa)
#
#
# Indices 1 2 3 4 5 6 
#
# 1 53.8211 17.9542 7.5335 0.0000 0.0000 0.0000
# 2 17.9542 86.9906 28.6950 0.0000 0.0000 0.0000
# 3 7.5335 28.6950 100.5607 0.0000 0.0000 0.0000
# 4 0.0000 0.0000 0.0000 13.1700 0.0000 0.0000
# 5 0.0000 0.0000 0.0000 0.0000 29.5910 0.0000
# 6 0.0000 0.0000 0.0000 0.0000 0.0000 34.4333
#
#
#
# Elastic Compliance Matrix: (Units=1/GPa)
#
#
# Indices 1 2 3 4 5 6 
#
# 1 0.019965 -0.004004 -0.000353 0.000000 0.000000 0.000000
# 2 -0.004004 0.013493 -0.003550 0.000000 0.000000 0.000000
# 3 -0.000353 -0.003550 0.010984 0.000000 0.000000 0.000000
# 4 0.000000 0.000000 0.000000 0.075930 0.000000 0.000000
# 5 0.000000 0.000000 0.000000 0.000000 0.033794 0.000000
# 6 0.000000 0.000000 0.000000 0.000000 0.000000 0.029042
#
#
# Mechanical properties :
#
#
# Convention : Reuss Voigt Hill
#
# Bulk Modulus (GPa) = 34.93213 38.85975 36.89594
# Shear Modulus (GPa) = 23.97327 27.91815 25.94571
#
# Velocity S-wave (km/s) = 3.32900 3.59247 3.46324
# Velocity P-wave (km/s) = 5.56098 5.93057 5.74875
#
# Compressibility (1/GPa) = 0.02862694
#
# Stress axis : x y z
#
# Youngs Moduli (GPa) = 50.08693 74.11226 91.04350
#
# Poissons Ratio (x) = 0.29676 0.03215
# Poissons Ratio (y) = 0.20056 0.32323
# Poissons Ratio (z) = 0.01768 0.26312
#
# Static dielectric constant tensor:
#      x y z
#    x 1.819630 0.000000 0.000000 
#    y 0.000000 1.807020 0.000000 
#    z 0.000000 0.000000 1.802670 
# 
# From -- ./inp_files/2317.got.cif
#   From: 2010.05.17/outbox.cif.g08.bks.cpg/sg45_2_cif.got.tgz:2317.got - 2010.06.03 19:51:22.
