data_PCOD9376070
_publ_section_title
;
Structure prediction by ZEFSAII (Michael W. Deem and Ramdas Pophale) SiO2 
 PCOD9376070
Probable space group: I B A 2
;
_chemical_formula_sum "Si O2"
_cell_formula_units_Z 44
_cell_length_a 8.936127
_cell_length_b 12.914951
_cell_length_c 18.616104
_cell_angle_alpha 90.000000
_cell_angle_beta 90.000000
_cell_angle_gamma 90.000000
_cell_volume 2148.477904
_symmetry_space_group_name_H-M "I B A 2"
_symmetry_group_IT_number 45
_symmetry_cell_setting 'orthorhombic'
loop_
_space_group_symop_operation_xyz
x,y,z
-x,-y,z
-x,y,1/2+z
x,-y,1/2+z
1/2+x,1/2+y,1/2+z
1/2-x,1/2-y,1/2+z
1/2-x,1/2+y,z
1/2+x,1/2-y,z
loop_
_atom_site_type_symbol
_atom_site_label
_atom_site_fract_x
_atom_site_fract_y
_atom_site_fract_z
Si Si1 0.229361 0.170831 0.546660
Si Si2 0.493601 0.851798 0.752718
Si Si3 0.500000 0.000000 0.884093
Si Si4 0.824132 0.814874 0.182390
Si Si5 0.500000 0.000000 0.639038
Si Si6 0.563062 0.869956 0.006298
Si Si7 0.000000 0.000000 0.605481
O O1 0.285370 0.234478 0.617617
O O2 0.382975 0.143346 0.506408
O O3 0.136619 0.258408 0.504995
O O4 0.121988 0.072607 0.563318
O O5 0.330307 0.843314 0.719261
O O6 0.574601 0.743232 0.741925
O O7 0.582816 0.927586 0.696770
O O8 0.474030 0.905354 0.829210
O O9 0.389474 0.056451 0.941012
O O10 0.911075 0.913976 0.151505
O O11 0.411052 0.927839 0.582709
#
# Coordination Sequence:
#
# PCOD9376070 Si02
#       7
#     8   8   4   8   4   8   4
#     4  12  22  40  67 105 133 171 230 300 339 409
#     4  11  23  41  64  97 136 179 229 279 343 412
#     4  10  28  42  64  94 140 202 216 266 348 426
#     4  12  22  40  67 105 133 171 230 300 339 409
#     4  10  16  34  64  86 122 170 222 276 322 396
#     4  11  23  41  64  97 136 179 229 279 343 412
#     4  12  24  36  70 116 134 168 224 314 370 382
#
# _framework density 20.479616
#
# number of rings (size 3 to 8) (size 9 to 14) (size 15 to 20)
#    0.000    0.727    7.273    1.091    5.091    1.455 
#    0.000    0.000    0.000    4.364    0.000    0.000 
#    0.000    0.000    0.000    0.000    0.000    0.000 
#
# Total GULP energy -122487.520322 kJ/mol
# GULP energy per Si atom -5567.614560 kJ/mol
# Density = 2.043300 g / cm^3
# Si number density = 20.479616 Si / 1000 Ang^3
#
#
#
# Elastic Constant Matrix: (Units=GPa)
#
#
# Indices 1 2 3 4 5 6 
#
# 1 107.8084 51.4380 20.4870 0.0000 0.0000 0.0000
# 2 51.4380 145.8422 40.3507 0.0000 0.0000 0.0000
# 3 20.4870 40.3507 107.1886 0.0000 0.0000 0.0000
# 4 0.0000 0.0000 0.0000 31.0584 0.0000 0.0000
# 5 0.0000 0.0000 0.0000 0.0000 7.4002 0.0000
# 6 0.0000 0.0000 0.0000 0.0000 0.0000 46.4765
#
#
#
# Elastic Compliance Matrix: (Units=1/GPa)
#
#
# Indices 1 2 3 4 5 6 
#
# 1 0.011203 -0.003749 -0.000730 0.000000 0.000000 0.000000
# 2 -0.003749 0.008909 -0.002637 0.000000 0.000000 0.000000
# 3 -0.000730 -0.002637 0.010462 0.000000 0.000000 0.000000
# 4 0.000000 0.000000 0.000000 0.032197 0.000000 0.000000
# 5 0.000000 0.000000 0.000000 0.000000 0.135132 0.000000
# 6 0.000000 0.000000 0.000000 0.000000 0.000000 0.021516
#
#
# Mechanical properties :
#
#
# Convention : Reuss Voigt Hill
#
# Bulk Modulus (GPa) = 61.19570 65.04338 63.11954
# Shear Modulus (GPa) = 20.91181 33.55790 27.23486
#
# Velocity S-wave (km/s) = 3.19894 4.05235 3.65067
# Velocity P-wave (km/s) = 6.60230 7.32970 6.97549
#
# Compressibility (1/GPa) = 0.01634102
#
# Stress axis : x y z
#
# Youngs Moduli (GPa) = 89.25894 112.24929 95.58815
#
# Poissons Ratio (x) = 0.42087 0.06976
# Poissons Ratio (y) = 0.33467 0.25207
# Poissons Ratio (z) = 0.06514 0.29600
#
# Static dielectric constant tensor:
#      x y z
#    x 1.772100 0.000000 0.000000 
#    y 0.000000 1.942560 0.000000 
#    z 0.000000 0.000000 1.754210 
# 
# From -- ./inp_files/7531.got.cif
#   From: 2010.05.17/outbox.cif.g08.bks.cpg/sg45_4_cif.got.tgz:7531.got - 2010.06.03 19:51:22.
