data_PCOD9376576
_publ_section_title
;
Structure prediction by ZEFSAII (Michael W. Deem and Ramdas Pophale) SiO2 
 PCOD9376576
Probable space group: I B A 2
;
_chemical_formula_sum "Si O2"
_cell_formula_units_Z 44
_cell_length_a 26.047061
_cell_length_b 8.202515
_cell_length_c 8.920053
_cell_angle_alpha 90.000000
_cell_angle_beta 90.000000
_cell_angle_gamma 90.000000
_cell_volume 1905.781888
_symmetry_space_group_name_H-M "I B A 2"
_symmetry_group_IT_number 45
_symmetry_cell_setting 'orthorhombic'
loop_
_space_group_symop_operation_xyz
x,y,z
-x,-y,z
-x,y,1/2+z
x,-y,1/2+z
1/2+x,1/2+y,1/2+z
1/2-x,1/2-y,1/2+z
1/2-x,1/2+y,z
1/2+x,1/2-y,z
loop_
_atom_site_type_symbol
_atom_site_label
_atom_site_fract_x
_atom_site_fract_y
_atom_site_fract_z
Si Si1 0.500000 0.000000 0.029230
Si Si2 0.419656 0.408043 0.277838
Si Si3 0.648045 0.450930 0.496475
Si Si4 0.205651 0.280509 0.305972
Si Si5 0.238543 0.545937 0.108434
Si Si6 0.027272 0.265336 0.281132
O O1 0.532532 0.120899 0.135599
O O2 0.465596 0.117181 0.923881
O O3 0.381485 0.399109 0.419543
O O4 0.387882 0.382323 0.126144
O O5 0.443424 0.592807 0.278671
O O6 0.467262 0.287295 0.287250
O O7 0.659170 0.332946 0.355074
O O8 0.703749 0.487056 0.566876
O O9 0.201412 0.406023 0.169756
O O10 0.219165 0.370644 0.459148
O O11 0.252241 0.167609 0.247535
#
# Coordination Sequence:
#
# PCOD9376576 Si02
#       6
#     4   8   8   8   8   8
#     4  10  20  40  68  92 124 168 218 266 338 390
#     4  11  23  42  67  98 130 178 231 264 323 412
#     4  12  23  39  68  97 131 167 227 283 316 387
#     4  12  23  43  67  94 127 180 218 281 341 404
#     4  12  23  43  70  92 132 177 224 275 348 404
#     4  10  22  42  70  94 132 180 214 267 337 406
#
# _framework density 23.087637000000001
#
# number of rings (size 3 to 8) (size 9 to 14) (size 15 to 20)
#    0.000    0.727    5.455    2.182    0.000    2.909 
#    0.000    7.273    0.000    0.000    0.000    0.000 
#    0.000    0.000    0.000    0.000    0.000    0.000 
#
# Total GULP energy -122928.786602 kJ/mol
# GULP energy per Si atom -5587.672118 kJ/mol
# Density = 2.303509 g / cm^3
# Si number density = 23.087637 Si / 1000 Ang^3
#
#
#
# Elastic Constant Matrix: (Units=GPa)
#
#
# Indices 1 2 3 4 5 6 
#
# 1 64.1979 -3.2863 11.4971 0.0000 0.0000 0.0000
# 2 -3.2863 77.0463 17.1593 0.0000 0.0000 0.0000
# 3 11.4971 17.1593 101.7247 0.0000 0.0000 0.0000
# 4 0.0000 0.0000 0.0000 51.1404 0.0000 0.0000
# 5 0.0000 0.0000 0.0000 0.0000 29.8961 0.0000
# 6 0.0000 0.0000 0.0000 0.0000 0.0000 21.9361
#
#
#
# Elastic Compliance Matrix: (Units=1/GPa)
#
#
# Indices 1 2 3 4 5 6 
#
# 1 0.015992 0.001127 -0.001998 0.000000 0.000000 0.000000
# 2 0.001127 0.013565 -0.002416 0.000000 0.000000 0.000000
# 3 -0.001998 -0.002416 0.010464 0.000000 0.000000 0.000000
# 4 0.000000 0.000000 0.000000 0.019554 0.000000 0.000000
# 5 0.000000 0.000000 0.000000 0.000000 0.033449 0.000000
# 6 0.000000 0.000000 0.000000 0.000000 0.000000 0.045587
#
#
# Mechanical properties :
#
#
# Convention : Reuss Voigt Hill
#
# Bulk Modulus (GPa) = 29.89636 32.63433 31.26534
# Shear Modulus (GPa) = 31.98292 35.10110 33.54201
#
# Velocity S-wave (km/s) = 3.72598 3.90339 3.81571
# Velocity P-wave (km/s) = 5.61139 5.87204 5.74320
#
# Compressibility (1/GPa) = 0.03344889
#
# Stress axis : x y z
#
# Youngs Moduli (GPa) = 62.53022 73.71761 95.56849
#
# Poissons Ratio (x) = -0.08308 0.19091
# Poissons Ratio (y) = -0.07047 0.23086
# Poissons Ratio (z) = 0.12491 0.17807
#
# Static dielectric constant tensor:
#      x y z
#    x 1.826890 0.000000 0.000000 
#    y 0.000000 1.965170 0.000000 
#    z 0.000000 0.000000 1.883660 
# 
# From -- ./inp_files/1027.got.cif
#   From: 2010.05.17/outbox.cif.g08.bks.cpg/sg45_1_cif.got.tgz:1027.got - 2010.06.03 19:51:22.
