data_PCOD9376832
_publ_section_title
;
Structure prediction by ZEFSAII (Michael W. Deem and Ramdas Pophale) SiO2 
 PCOD9376832
Probable space group: I B A 2
;
_chemical_formula_sum "Si O2"
_cell_formula_units_Z 48
_cell_length_a 9.772500
_cell_length_b 13.899186
_cell_length_c 18.017339
_cell_angle_alpha 90.000000
_cell_angle_beta 90.000000
_cell_angle_gamma 90.000000
_cell_volume 2447.291466
_symmetry_space_group_name_H-M "I B A 2"
_symmetry_group_IT_number 45
_symmetry_cell_setting 'orthorhombic'
loop_
_space_group_symop_operation_xyz
x,y,z
-x,-y,z
-x,y,1/2+z
x,-y,1/2+z
1/2+x,1/2+y,1/2+z
1/2-x,1/2-y,1/2+z
1/2-x,1/2+y,z
1/2+x,1/2-y,z
loop_
_atom_site_type_symbol
_atom_site_label
_atom_site_fract_x
_atom_site_fract_y
_atom_site_fract_z
Si Si1 0.318409 0.716542 0.518730
Si Si2 0.135632 0.565422 0.977518
Si Si3 0.876331 0.432828 0.145421
Si Si4 0.389985 0.417779 0.736108
Si Si5 0.548104 0.260027 0.119066
Si Si6 0.141728 0.951063 0.907911
O O1 0.368052 0.818113 0.481902
O O2 0.447193 0.679405 0.566646
O O3 0.184502 0.733042 0.571379
O O4 0.299273 0.636409 0.456587
O O5 0.178753 0.541254 0.062917
O O6 0.000000 0.500000 0.966335
O O7 0.244800 0.533650 0.916802
O O8 0.757547 0.443388 0.203773
O O9 0.000000 0.500000 0.165741
O O10 0.950598 0.329951 0.138040
O O11 0.500000 0.500000 0.716731
O O12 0.421235 0.318903 0.693091
O O13 0.383286 0.413979 0.824755
O O14 0.000000 0.000000 0.934002
#
# Coordination Sequence:
#
# PCOD9376832 Si02
#       6
#     8   8   8   8   8   8
#     4  11  22  41  70  97 128 174 226 281 325 394
#     4  10  21  41  66  96 125 168 229 271 330 396
#     4  10  22  41  67  95 124 171 222 271 320 393
#     4  11  26  44  62  99 137 175 215 271 342 396
#     4  11  22  42  66 100 125 170 226 261 333 394
#     4  11  25  43  64  98 136 173 219 274 343 398
#
# _framework density 19.613517999999999
#
# number of rings (size 3 to 8) (size 9 to 14) (size 15 to 20)
#    0.000    1.333    3.333    4.000    4.667    0.667 
#   15.000    0.000    0.000    0.000    0.000    0.000 
#    0.000    0.000    0.000    0.000    0.000    0.000 
#
# Total GULP energy -133790.518382 kJ/mol
# GULP energy per Si atom -5574.604933 kJ/mol
# Density = 1.956888 g / cm^3
# Si number density = 19.613518 Si / 1000 Ang^3
#
#
#
# Elastic Constant Matrix: (Units=GPa)
#
#
# Indices 1 2 3 4 5 6 
#
# 1 67.5914 17.0913 47.6063 0.0000 0.0000 0.0000
# 2 17.0913 73.5354 49.4851 0.0000 0.0000 0.0000
# 3 47.6063 49.4851 74.6489 0.0000 0.0000 0.0000
# 4 0.0000 0.0000 0.0000 34.6459 0.0000 0.0000
# 5 0.0000 0.0000 0.0000 0.0000 19.6079 0.0000
# 6 0.0000 0.0000 0.0000 0.0000 0.0000 23.5475
#
#
#
# Elastic Compliance Matrix: (Units=1/GPa)
#
#
# Indices 1 2 3 4 5 6 
#
# 1 0.031160 0.011067 -0.027208 0.000000 0.000000 0.000000
# 2 0.011067 0.028482 -0.025939 0.000000 0.000000 0.000000
# 3 -0.027208 -0.025939 0.047943 0.000000 0.000000 0.000000
# 4 0.000000 0.000000 0.000000 0.028863 0.000000 0.000000
# 5 0.000000 0.000000 0.000000 0.000000 0.051000 0.000000
# 6 0.000000 0.000000 0.000000 0.000000 0.000000 0.042467
#
#
# Mechanical properties :
#
#
# Convention : Reuss Voigt Hill
#
# Bulk Modulus (GPa) = 42.68972 49.34899 46.01935
# Shear Modulus (GPa) = 15.53361 22.33313 18.93337
#
# Velocity S-wave (km/s) = 2.81728 3.37806 3.11033
# Velocity P-wave (km/s) = 5.69170 6.35849 6.03431
#
# Compressibility (1/GPa) = 0.02342485
#
# Stress axis : x y z
#
# Youngs Moduli (GPa) = 32.09272 35.11004 20.85825
#
# Poissons Ratio (x) = -0.38858 0.56752
# Poissons Ratio (y) = -0.35518 0.54104
# Poissons Ratio (z) = 0.87319 0.91071
#
# Static dielectric constant tensor:
#      x y z
#    x 1.700820 0.000000 0.000000 
#    y 0.000000 1.776800 0.000000 
#    z 0.000000 0.000000 1.694930 
# 
# From -- ./inp_files/7543.got.cif
#   From: 2010.05.17/outbox.cif.g08.bks.cpg/sg45_4_cif.got.tgz:7543.got - 2010.06.03 19:51:22.
