data_PCOD9376649
_publ_section_title
;
Structure prediction by ZEFSAII (Michael W. Deem and Ramdas Pophale) SiO2 
 PCOD9376649
Probable space group: I B A 2
;
_chemical_formula_sum "Si O2"
_cell_formula_units_Z 48
_cell_length_a 25.425163
_cell_length_b 16.366103
_cell_length_c 5.043164
_cell_angle_alpha 90.000000
_cell_angle_beta 90.000000
_cell_angle_gamma 90.000000
_cell_volume 2098.515190
_symmetry_space_group_name_H-M "I B A 2"
_symmetry_group_IT_number 45
_symmetry_cell_setting 'orthorhombic'
loop_
_space_group_symop_operation_xyz
x,y,z
-x,-y,z
-x,y,1/2+z
x,-y,1/2+z
1/2+x,1/2+y,1/2+z
1/2-x,1/2-y,1/2+z
1/2-x,1/2+y,z
1/2+x,1/2-y,z
loop_
_atom_site_type_symbol
_atom_site_label
_atom_site_fract_x
_atom_site_fract_y
_atom_site_fract_z
Si Si1 0.037497 0.107927 0.876380
Si Si2 0.031772 0.293377 0.961337
Si Si3 0.240494 0.804868 0.434579
Si Si4 0.343567 0.445901 0.420473
Si Si5 0.795730 0.545046 0.702250
Si Si6 0.078778 0.455017 0.734754
O O1 0.052623 0.203810 0.895486
O O2 0.004824 0.092708 0.608960
O O3 0.093240 0.064319 0.901206
O O4 0.065251 0.368088 0.856501
O O5 0.979937 0.297900 0.773126
O O6 0.262309 0.765769 0.161462
O O7 0.187644 0.859833 0.389019
O O8 0.279130 0.870722 0.570215
O O9 0.329940 0.513678 0.201079
O O10 0.777619 0.474155 0.498858
O O11 0.858558 0.541408 0.714184
O O12 0.058854 0.477074 0.443239
#
# Coordination Sequence:
#
# PCOD9376649 Si02
#       6
#     8   8   8   8   8   8
#     4  10  23  43  66  99 136 178 226 278 346 408
#     4  10  21  37  56  85 125 167 207 270 327 386
#     4  12  26  44  68 104 132 176 224 276 337 404
#     4  12  26  46  73 104 140 181 229 287 345 410
#     4  10  21  41  63  87 127 168 207 264 324 389
#     4  10  21  35  56  87 116 165 215 258 321 386
#
# _framework density 22.873317
#
# number of rings (size 3 to 8) (size 9 to 14) (size 15 to 20)
#    0.000    1.333    0.000    5.000    2.333    4.000 
#    6.000    0.000    0.000    0.000    0.000    0.000 
#    0.000    0.000    0.000    0.000    0.000    0.000 
#
# Total GULP energy -134178.284025 kJ/mol
# GULP energy per Si atom -5590.761834 kJ/mol
# Density = 2.282126 g / cm^3
# Si number density = 22.873317 Si / 1000 Ang^3
#
#
#
# Elastic Constant Matrix: (Units=GPa)
#
#
# Indices 1 2 3 4 5 6 
#
# 1 91.2632 15.5296 1.7043 0.0000 0.0000 0.0000
# 2 15.5296 110.0935 14.0569 0.0000 0.0000 0.0000
# 3 1.7043 14.0569 67.3910 0.0000 0.0000 0.0000
# 4 0.0000 0.0000 0.0000 26.2556 0.0000 0.0000
# 5 0.0000 0.0000 0.0000 0.0000 24.2972 0.0000
# 6 0.0000 0.0000 0.0000 0.0000 0.0000 45.3085
#
#
#
# Elastic Compliance Matrix: (Units=1/GPa)
#
#
# Indices 1 2 3 4 5 6 
#
# 1 0.011227 -0.001590 0.000048 0.000000 0.000000 0.000000
# 2 -0.001590 0.009557 -0.001953 0.000000 0.000000 0.000000
# 3 0.000048 -0.001953 0.015245 0.000000 0.000000 0.000000
# 4 0.000000 0.000000 0.000000 0.038087 0.000000 0.000000
# 5 0.000000 0.000000 0.000000 0.000000 0.041157 0.000000
# 6 0.000000 0.000000 0.000000 0.000000 0.000000 0.022071
#
#
# Mechanical properties :
#
#
# Convention : Reuss Voigt Hill
#
# Bulk Modulus (GPa) = 34.43743 36.81436 35.62590
# Shear Modulus (GPa) = 32.46462 35.00272 33.73367
#
# Velocity S-wave (km/s) = 3.77148 3.91613 3.84448
# Velocity P-wave (km/s) = 5.83556 6.04797 5.94272
#
# Compressibility (1/GPa) = 0.02903817
#
# Stress axis : x y z
#
# Youngs Moduli (GPa) = 89.07142 104.63725 65.59537
#
# Poissons Ratio (x) = 0.16635 -0.00313
# Poissons Ratio (y) = 0.14160 0.12812
# Poissons Ratio (z) = -0.00425 0.20438
#
# Static dielectric constant tensor:
#      x y z
#    x 1.845930 0.000000 0.000000 
#    y 0.000000 1.880360 0.000000 
#    z 0.000000 0.000000 1.834690 
# 
# From -- ./inp_files/603.got.cif
#   From: 2010.05.17/outbox.cif.g08.bks.cpg/sg45_1_cif.got.tgz:603.got - 2010.06.03 19:51:22.
