data_PCOD9376348
_publ_section_title
;
Structure prediction by ZEFSAII (Michael W. Deem and Ramdas Pophale) SiO2 
 PCOD9376348
Probable space group: I B A 2
;
_chemical_formula_sum "Si O2"
_cell_formula_units_Z 64
_cell_length_a 17.260591
_cell_length_b 27.126181
_cell_length_c 8.000870
_cell_angle_alpha 90.000000
_cell_angle_beta 90.000000
_cell_angle_gamma 90.000000
_cell_volume 3746.118671
_symmetry_space_group_name_H-M "I B A 2"
_symmetry_group_IT_number 45
_symmetry_cell_setting 'orthorhombic'
loop_
_space_group_symop_operation_xyz
x,y,z
-x,-y,z
-x,y,1/2+z
x,-y,1/2+z
1/2+x,1/2+y,1/2+z
1/2-x,1/2-y,1/2+z
1/2-x,1/2+y,z
1/2+x,1/2-y,z
loop_
_atom_site_type_symbol
_atom_site_label
_atom_site_fract_x
_atom_site_fract_y
_atom_site_fract_z
Si Si1 0.090733 0.792930 0.013960
Si Si2 0.794500 0.111274 0.379359
Si Si3 0.077314 0.066986 0.326853
Si Si4 0.218844 0.862952 0.728449
Si Si5 0.068855 0.194003 0.888222
Si Si6 0.590180 0.455395 0.717755
Si Si7 0.350561 0.744366 0.184697
Si Si8 0.241656 0.659968 0.566407
O O1 0.070442 0.780784 0.205751
O O2 0.168448 0.824675 0.036045
O O3 0.111795 0.752858 0.870440
O O4 0.018136 0.822512 0.935149
O O5 0.752423 0.114015 0.555692
O O6 0.864554 0.152280 0.389048
O O7 0.838036 0.062084 0.328171
O O8 0.740363 0.125137 0.225354
O O9 0.137433 0.107610 0.259256
O O10 0.093347 0.059624 0.523747
O O11 0.985625 0.072379 0.292422
O O12 0.087975 0.014222 0.234418
O O13 0.203257 0.804605 0.698063
O O14 0.274875 0.865210 0.888622
O O15 0.089840 0.231084 0.037831
O O16 0.303449 0.791139 0.120645
#
# Coordination Sequence:
#
# PCOD9376348 Si02
#       8
#     8   8   8   8   8   8   8   8
#     4  10  20  31  48  66  93 124 161 214 249 303
#     4  10  21  32  50  71  94 127 167 217 256 304
#     4  11  21  35  47  73  95 135 171 220 276 307
#     4  10  21  33  49  66  94 125 165 211 255 307
#     4  10  20  32  47  70  93 126 165 208 258 295
#     4  11  21  33  51  69 102 127 175 222 267 317
#     4  10  22  34  48  69  98 128 170 215 255 311
#     4  10  22  34  48  71  94 130 172 211 262 308
#
# _framework density 17.084350000000001
#
# number of rings (size 3 to 8) (size 9 to 14) (size 15 to 20)
#    0.000    1.750    2.500    3.000   14.000    1.000 
#    0.000    0.000    0.000    0.000    0.000    0.000 
#    0.000    0.000    0.000    0.000    0.000   10.000 
#
# Total GULP energy -178227.950120 kJ/mol
# GULP energy per Si atom -5569.623441 kJ/mol
# Density = 1.704547 g / cm^3
# Si number density = 17.084350 Si / 1000 Ang^3
#
#
#
# Elastic Constant Matrix: (Units=GPa)
#
#
# Indices 1 2 3 4 5 6 
#
# 1 11.2240 5.9920 2.4961 0.0000 0.0000 0.0000
# 2 5.9920 42.8597 7.2813 0.0000 0.0000 0.0000
# 3 2.4961 7.2813 153.0341 0.0000 0.0000 0.0000
# 4 0.0000 0.0000 0.0000 20.6526 0.0000 0.0000
# 5 0.0000 0.0000 0.0000 0.0000 12.1939 0.0000
# 6 0.0000 0.0000 0.0000 0.0000 0.0000 21.9207
#
#
#
# Elastic Compliance Matrix: (Units=1/GPa)
#
#
# Indices 1 2 3 4 5 6 
#
# 1 0.096414 -0.013320 -0.000939 0.000000 0.000000 0.000000
# 2 -0.013320 0.025362 -0.000989 0.000000 0.000000 0.000000
# 3 -0.000939 -0.000989 0.006597 0.000000 0.000000 0.000000
# 4 0.000000 0.000000 0.000000 0.048420 0.000000 0.000000
# 5 0.000000 0.000000 0.000000 0.000000 0.082008 0.000000
# 6 0.000000 0.000000 0.000000 0.000000 0.000000 0.045619
#
#
# Mechanical properties :
#
#
# Convention : Reuss Voigt Hill
#
# Bulk Modulus (GPa) = 10.21686 26.51740 18.36713
# Shear Modulus (GPa) = 13.60386 23.70999 18.65693
#
# Velocity S-wave (km/s) = 2.82490 3.72939 3.30820
# Velocity P-wave (km/s) = 4.07839 5.83948 5.03651
#
# Compressibility (1/GPa) = 0.09787740
#
# Stress axis : x y z
#
# Youngs Moduli (GPa) = 10.37191 39.42876 151.58677
#
# Poissons Ratio (x) = 0.52518 0.14232
# Poissons Ratio (y) = 0.13815 0.14999
# Poissons Ratio (z) = 0.00974 0.03901
#
# Static dielectric constant tensor:
#      x y z
#    x 1.591530 0.000000 0.000000 
#    y 0.000000 1.589590 0.000000 
#    z 0.000000 0.000000 1.689450 
# 
# From -- ./inp_files/2236.got.cif
#   From: 2010.05.17/outbox.cif.g08.bks.cpg/sg45_2_cif.got.tgz:2236.got - 2010.06.03 19:51:22.
