data_PCOD9376053
_publ_section_title
;
Structure prediction by ZEFSAII (Michael W. Deem and Ramdas Pophale) SiO2 
 PCOD9376053
Probable space group: I B A 2
;
_chemical_formula_sum "Si O2"
_cell_formula_units_Z 64
_cell_length_a 28.967455
_cell_length_b 19.555256
_cell_length_c 5.448558
_cell_angle_alpha 90.000000
_cell_angle_beta 90.000000
_cell_angle_gamma 90.000000
_cell_volume 3086.422846
_symmetry_space_group_name_H-M "I B A 2"
_symmetry_group_IT_number 45
_symmetry_cell_setting 'orthorhombic'
loop_
_space_group_symop_operation_xyz
x,y,z
-x,-y,z
-x,y,1/2+z
x,-y,1/2+z
1/2+x,1/2+y,1/2+z
1/2-x,1/2-y,1/2+z
1/2-x,1/2+y,z
1/2+x,1/2-y,z
loop_
_atom_site_type_symbol
_atom_site_label
_atom_site_fract_x
_atom_site_fract_y
_atom_site_fract_z
Si Si1 0.871731 0.042483 0.668180
Si Si2 0.019952 0.922058 0.659410
Si Si3 0.851004 0.185760 0.591648
Si Si4 0.526419 0.179452 0.729043
Si Si5 0.446737 0.973198 0.622308
Si Si6 0.272479 0.195653 0.596008
Si Si7 0.799086 0.686229 0.596444
Si Si8 0.611153 0.264311 0.593496
O O1 0.924870 0.070536 0.657407
O O2 0.838280 0.107759 0.644927
O O3 0.866313 0.994882 0.428951
O O4 0.999639 0.889834 0.410256
O O5 0.000000 0.000000 0.660675
O O6 0.810992 0.243169 0.595284
O O7 0.872881 0.188426 0.320164
O O8 0.883752 0.206048 0.820987
O O9 0.487752 0.181944 0.514637
O O10 0.550386 0.106164 0.684646
O O11 0.561048 0.238953 0.659226
O O12 0.500000 0.000000 0.598278
O O13 0.425618 0.012040 0.855982
O O14 0.224630 0.237079 0.594445
O O15 0.280898 0.155058 0.347595
O O16 0.280884 0.155173 0.844853
O O17 0.853258 0.699903 0.599446
#
# Coordination Sequence:
#
# PCOD9376053 Si02
#       8
#     8   8   8   8   8   8   8   8
#     4  12  21  33  53  70  88 119 168 214 262 300
#     4  10  16  30  46  61  76 101 143 207 245 273
#     4  10  21  36  50  73 105 126 159 215 262 314
#     4  12  21  33  53  70 106 141 173 203 243 295
#     4  10  16  30  49  75  91 121 170 219 233 254
#     4   8  14  27  49  72  93 120 148 194 243 294
#     4   8  14  27  49  71  93 122 160 188 232 291
#     4  10  21  36  49  72 106 137 164 205 257 298
#
# _framework density 20.735979
#
# number of rings (size 3 to 8) (size 9 to 14) (size 15 to 20)
#    0.000    2.000    5.000    1.500    0.000    0.000 
#    0.000    3.750    0.000    0.000    0.000    1.750 
#    0.000    0.000    0.000    0.000    0.000    0.000 
#
# Total GULP energy -178383.469842 kJ/mol
# GULP energy per Si atom -5574.483433 kJ/mol
# Density = 2.068878 g / cm^3
# Si number density = 20.735979 Si / 1000 Ang^3
#
#
#
# Elastic Constant Matrix: (Units=GPa)
#
#
# Indices 1 2 3 4 5 6 
#
# 1 16.1413 10.3925 -9.9658 0.0000 0.0000 0.0000
# 2 10.3925 23.8451 -10.3867 0.0000 0.0000 0.0000
# 3 -9.9658 -10.3867 144.3232 0.0000 0.0000 0.0000
# 4 0.0000 0.0000 0.0000 18.4779 0.0000 0.0000
# 5 0.0000 0.0000 0.0000 0.0000 10.1324 0.0000
# 6 0.0000 0.0000 0.0000 0.0000 0.0000 2.9730
#
#
#
# Elastic Compliance Matrix: (Units=1/GPa)
#
#
# Indices 1 2 3 4 5 6 
#
# 1 0.087717 -0.036744 0.003413 0.000000 0.000000 0.000000
# 2 -0.036744 0.058686 0.001686 0.000000 0.000000 0.000000
# 3 0.003413 0.001686 0.007286 0.000000 0.000000 0.000000
# 4 0.000000 0.000000 0.000000 0.054119 0.000000 0.000000
# 5 0.000000 0.000000 0.000000 0.000000 0.098694 0.000000
# 6 0.000000 0.000000 0.000000 0.000000 0.000000 0.336362
#
#
# Mechanical properties :
#
#
# Convention : Reuss Voigt Hill
#
# Bulk Modulus (GPa) = 11.06199 18.26554 14.66376
# Shear Modulus (GPa) = 6.79083 19.26795 13.02939
#
# Velocity S-wave (km/s) = 1.81163 3.05159 2.50940
# Velocity P-wave (km/s) = 3.11806 4.60912 3.93486
#
# Compressibility (1/GPa) = 0.09039964
#
# Stress axis : x y z
#
# Youngs Moduli (GPa) = 11.40024 17.03980 137.25137
#
# Poissons Ratio (x) = 0.62611 -0.46839
# Poissons Ratio (y) = 0.41889 -0.23145
# Poissons Ratio (z) = -0.03891 -0.02873
#
# Static dielectric constant tensor:
#      x y z
#    x 1.777570 0.000000 0.000000 
#    y 0.000000 1.720610 0.000000 
#    z 0.000000 0.000000 1.874180 
# 
# From -- ./inp_files/712.got.cif
#   From: 2010.05.17/outbox.cif.g08.bks.cpg/sg45_1_cif.got.tgz:712.got - 2010.06.03 19:51:22.
