data_PCOD9376575
_publ_section_title
;
Structure prediction by ZEFSAII (Michael W. Deem and Ramdas Pophale) SiO2 
 PCOD9376575
Probable space group: I B A 2
;
_chemical_formula_sum "Si O2"
_cell_formula_units_Z 40
_cell_length_a 7.557767
_cell_length_b 23.893759
_cell_length_c 8.792608
_cell_angle_alpha 90.000000
_cell_angle_beta 90.000000
_cell_angle_gamma 90.000000
_cell_volume 1587.799604
_symmetry_space_group_name_H-M "I B A 2"
_symmetry_group_IT_number 45
_symmetry_cell_setting 'orthorhombic'
loop_
_space_group_symop_operation_xyz
x,y,z
-x,-y,z
-x,y,1/2+z
x,-y,1/2+z
1/2+x,1/2+y,1/2+z
1/2-x,1/2-y,1/2+z
1/2-x,1/2+y,z
1/2+x,1/2-y,z
loop_
_atom_site_type_symbol
_atom_site_label
_atom_site_fract_x
_atom_site_fract_y
_atom_site_fract_z
Si Si1 0.577381 0.118458 0.185240
Si Si2 0.130752 0.190366 0.525915
Si Si3 0.500000 0.000000 0.222365
Si Si4 0.500000 0.500000 0.169901
Si Si5 0.233286 0.195410 0.178972
Si Si6 0.221889 0.949181 0.403622
O O1 0.729378 0.144099 0.081114
O O2 0.403409 0.155597 0.191174
O O3 0.521153 0.056645 0.130817
O O4 0.334961 0.000899 0.335590
O O5 0.151735 0.201187 0.347237
O O6 0.191758 0.246231 0.614722
O O7 0.929298 0.176429 0.571591
O O8 0.338632 0.895489 0.353072
O O9 0.436017 0.450417 0.280419
O O10 0.641563 0.469613 0.060218
#
# Coordination Sequence:
#
# PCOD9376575 Si02
#       6
#     8   8   4   4   8   8
#     4  10  25  49  77 110 156 204 253 315 389 462
#     4  12  27  48  80 113 153 206 261 325 393 454
#     4   8  22  48  66 110 148 206 242 306 380 462
#     4  10  20  40  68 104 146 194 264 302 370 466
#     4  12  27  49  80 115 154 203 264 326 387 470
#     4   9  22  41  69 102 148 200 246 316 373 459
#
# _framework density 25.192097
#
# number of rings (size 3 to 8) (size 9 to 14) (size 15 to 20)
#    1.200    0.400    2.000    1.200    0.000   10.400 
#    0.000    0.000    0.000    0.000    0.000    0.000 
#    0.000    0.000    0.000    0.000    0.000    0.000 
#
# Total GULP energy -111882.651234 kJ/mol
# GULP energy per Si atom -5594.132562 kJ/mol
# Density = 2.513476 g / cm^3
# Si number density = 25.192097 Si / 1000 Ang^3
#
#
#
# Elastic Constant Matrix: (Units=GPa)
#
#
# Indices 1 2 3 4 5 6 
#
# 1 146.9638 30.1875 24.7218 0.0000 0.0000 0.0001
# 2 30.1875 107.9510 2.6358 0.0000 0.0000 0.0000
# 3 24.7218 2.6358 126.9464 -0.0002 -0.0001 0.0001
# 4 0.0000 0.0000 -0.0002 17.0976 0.0000 0.0000
# 5 0.0000 0.0000 -0.0001 0.0000 37.0012 0.0000
# 6 0.0001 0.0000 0.0001 0.0000 0.0000 52.6974
#
#
#
# Elastic Compliance Matrix: (Units=1/GPa)
#
#
# Indices 1 2 3 4 5 6 
#
# 1 0.007463 -0.002053 -0.001411 0.000000 0.000000 0.000000
# 2 -0.002053 0.009833 0.000196 0.000000 0.000000 0.000000
# 3 -0.001411 0.000196 0.008148 0.000000 0.000000 0.000000
# 4 0.000000 0.000000 0.000000 0.058488 0.000000 0.000000
# 5 0.000000 0.000000 0.000000 0.000000 0.027026 0.000000
# 6 0.000000 0.000000 0.000000 0.000000 0.000000 0.018976
#
#
# Mechanical properties :
#
#
# Convention : Reuss Voigt Hill
#
# Bulk Modulus (GPa) = 52.88667 55.21682 54.05174
# Shear Modulus (GPa) = 35.02071 42.98031 39.00051
#
# Velocity S-wave (km/s) = 3.73251 4.13498 3.93889
# Velocity P-wave (km/s) = 6.29400 6.69054 6.49530
#
# Compressibility (1/GPa) = 0.01890836
#
# Stress axis : x y z
#
# Youngs Moduli (GPa) = 133.98832 101.70168 122.72916
#
# Poissons Ratio (x) = 0.20875 0.17315
# Poissons Ratio (y) = 0.27502 -0.02400
# Poissons Ratio (z) = 0.18903 -0.01989
#
# Static dielectric constant tensor:
#      x y z
#    x 2.156210 0.000000 0.000000 
#    y 0.000000 1.991610 0.000000 
#    z 0.000000 0.000000 2.018210 
# 
# From -- ./inp_files/991.got.cif
#   From: 2010.05.17/outbox.cif.g08.bks.cpg/sg45_1_cif.got.tgz:991.got - 2010.06.03 19:51:22.
