data_PCOD9376358
_publ_section_title
;
Structure prediction by ZEFSAII (Michael W. Deem and Ramdas Pophale) SiO2 
 PCOD9376358
Probable space group: I B A 2
;
_chemical_formula_sum "Si O2"
_cell_formula_units_Z 56
_cell_length_a 13.541004
_cell_length_b 20.405819
_cell_length_c 9.031877
_cell_angle_alpha 90.000000
_cell_angle_beta 90.000000
_cell_angle_gamma 90.000000
_cell_volume 2495.645592
_symmetry_space_group_name_H-M "I B A 2"
_symmetry_group_IT_number 45
_symmetry_cell_setting 'orthorhombic'
loop_
_space_group_symop_operation_xyz
x,y,z
-x,-y,z
-x,y,1/2+z
x,-y,1/2+z
1/2+x,1/2+y,1/2+z
1/2-x,1/2-y,1/2+z
1/2-x,1/2+y,z
1/2+x,1/2-y,z
loop_
_atom_site_type_symbol
_atom_site_label
_atom_site_fract_x
_atom_site_fract_y
_atom_site_fract_z
Si Si1 0.782826 0.033092 0.728810
Si Si2 0.892461 0.416198 0.369896
Si Si3 0.220243 0.583240 0.911180
Si Si4 0.500000 0.500000 0.346712
Si Si5 0.524367 0.271949 0.177995
Si Si6 0.083162 0.860392 0.418679
Si Si7 0.500000 0.000000 0.617408
Si Si8 0.449424 0.182502 0.928611
O O1 0.723858 0.085764 0.830546
O O2 0.763152 0.049890 0.559582
O O3 0.721848 0.969122 0.780931
O O4 0.898128 0.019682 0.761513
O O5 0.948984 0.447145 0.226787
O O6 0.923113 0.463151 0.507435
O O7 0.940549 0.345967 0.402956
O O8 0.304747 0.633664 0.868206
O O9 0.119507 0.619498 0.943289
O O10 0.468195 0.432409 0.428807
O O11 0.471238 0.317909 0.296173
O O12 0.582355 0.221012 0.281180
O O13 0.581840 0.321060 0.071324
O O14 0.453650 0.229495 0.070146
#
# Coordination Sequence:
#
# PCOD9376358 Si02
#       8
#     8   8   8   4   8   8   4   8
#     4  11  23  39  63  97 131 167 216 271 327 388
#     4  11  20  36  58  89 131 171 211 263 322 386
#     4  11  24  40  63  95 129 168 214 266 330 391
#     4  10  24  44  70  94 124 166 212 276 338 386
#     4  10  23  43  64  88 126 171 218 266 313 386
#     4  10  23  44  66  92 123 161 213 271 329 386
#     4  10  20  32  56  88 126 170 212 260 316 378
#     4  11  23  40  63  93 131 175 214 256 320 394
#
# _framework density 22.439084000000001
#
# number of rings (size 3 to 8) (size 9 to 14) (size 15 to 20)
#    0.000    1.429    0.000    6.000    0.000    9.714 
#    0.000    5.714    0.000    0.000    0.000    0.000 
#    0.000    0.000    0.000    0.000    0.000    0.000 
#
# Total GULP energy -156445.966888 kJ/mol
# GULP energy per Si atom -5587.355960 kJ/mol
# Density = 2.238801 g / cm^3
# Si number density = 22.439084 Si / 1000 Ang^3
#
#
#
# Elastic Constant Matrix: (Units=GPa)
#
#
# Indices 1 2 3 4 5 6 
#
# 1 92.1235 25.8712 12.4781 0.0000 0.0000 0.0000
# 2 25.8712 96.9373 42.7126 0.0000 0.0000 0.0000
# 3 12.4781 42.7126 109.5013 -0.0002 -0.0001 0.0000
# 4 0.0000 0.0000 -0.0002 32.4111 0.0000 0.0000
# 5 0.0000 0.0000 -0.0001 0.0000 23.4548 0.0000
# 6 0.0000 0.0000 0.0000 0.0000 0.0000 17.2243
#
#
#
# Elastic Compliance Matrix: (Units=1/GPa)
#
#
# Indices 1 2 3 4 5 6 
#
# 1 0.011736 -0.003071 -0.000140 0.000000 0.000000 0.000000
# 2 -0.003071 0.013260 -0.004822 0.000000 0.000000 0.000000
# 3 -0.000140 -0.004822 0.011029 0.000000 0.000000 0.000000
# 4 0.000000 0.000000 0.000000 0.030854 0.000000 0.000000
# 5 0.000000 0.000000 0.000000 0.000000 0.042635 0.000000
# 6 0.000000 0.000000 0.000000 0.000000 0.000000 0.058057
#
#
# Mechanical properties :
#
#
# Convention : Reuss Voigt Hill
#
# Bulk Modulus (GPa) = 50.09947 51.18732 50.64339
# Shear Modulus (GPa) = 26.27550 29.11805 27.69678
#
# Velocity S-wave (km/s) = 3.42566 3.60620 3.51709
# Velocity P-wave (km/s) = 6.16621 6.34041 6.25392
#
# Compressibility (1/GPa) = 0.01996029
#
# Stress axis : x y z
#
# Youngs Moduli (GPa) = 85.20601 75.41265 90.66757
#
# Poissons Ratio (x) = 0.23157 0.01266
# Poissons Ratio (y) = 0.26164 0.43724
# Poissons Ratio (z) = 0.01190 0.36368
#
# Static dielectric constant tensor:
#      x y z
#    x 1.873820 0.000000 0.000000 
#    y 0.000000 1.925180 0.000000 
#    z 0.000000 0.000000 1.826160 
# 
# From -- ./inp_files/1859.got.cif
#   From: 2010.05.17/outbox.cif.g08.bks.cpg/sg45_1_cif.got.tgz:1859.got - 2010.06.03 19:51:22.
