data_PCOD9376147
_publ_section_title
;
Structure prediction by ZEFSAII (Michael W. Deem and Ramdas Pophale) SiO2 
 PCOD9376147
Probable space group: I B A 2
;
_chemical_formula_sum "Si O2"
_cell_formula_units_Z 60
_cell_length_a 8.073507
_cell_length_b 21.624567
_cell_length_c 16.545613
_cell_angle_alpha 90.000000
_cell_angle_beta 90.000000
_cell_angle_gamma 90.000000
_cell_volume 2888.633931
_symmetry_space_group_name_H-M "I B A 2"
_symmetry_group_IT_number 45
_symmetry_cell_setting 'orthorhombic'
loop_
_space_group_symop_operation_xyz
x,y,z
-x,-y,z
-x,y,1/2+z
x,-y,1/2+z
1/2+x,1/2+y,1/2+z
1/2-x,1/2-y,1/2+z
1/2-x,1/2+y,z
1/2+x,1/2-y,z
loop_
_atom_site_type_symbol
_atom_site_label
_atom_site_fract_x
_atom_site_fract_y
_atom_site_fract_z
Si Si1 0.340496 0.386773 0.230670
Si Si2 0.224253 0.320449 0.902873
Si Si3 0.346592 0.040593 0.372677
Si Si4 0.476879 0.270379 0.311319
Si Si5 0.470836 0.063495 0.196690
Si Si6 0.558485 0.809351 0.149976
Si Si7 0.000000 0.000000 0.825344
Si Si8 0.297752 0.688745 0.580226
O O1 0.354016 0.326113 0.287214
O O2 0.451034 0.441177 0.269026
O O3 0.386088 0.359252 0.141728
O O4 0.151499 0.410519 0.223109
O O5 0.148894 0.388591 0.899641
O O6 0.350961 0.304370 0.830356
O O7 0.084828 0.268669 0.888254
O O8 0.325374 0.317832 0.985904
O O9 0.373160 0.043439 0.276143
O O10 0.161476 0.013981 0.380229
O O11 0.500000 0.000000 0.405225
O O12 0.486881 0.222601 0.236194
O O13 0.373866 0.121753 0.160926
O O14 0.500000 0.000000 0.147635
O O15 0.668319 0.758483 0.107422
O O16 0.396343 0.819784 0.096327
#
# Coordination Sequence:
#
# PCOD9376147 Si02
#       8
#     8   8   8   8   8   8   4   8
#     4  10  21  38  60  91 120 164 217 266 316 385
#     4  12  23  39  60  95 129 167 208 272 339 390
#     4  11  23  38  65  96 128 163 218 271 316 383
#     4  11  22  36  65  90 119 164 222 263 316 390
#     4  10  18  34  60  90 120 154 211 269 305 368
#     4  10  20  39  59  88 119 166 209 264 309 390
#     4  12  20  40  66  96 118 172 224 272 308 380
#     4  10  23  38  58  88 134 158 204 264 337 385
#
# _framework density 20.771063999999999
#
# number of rings (size 3 to 8) (size 9 to 14) (size 15 to 20)
#    0.000    1.333    5.333    3.200    0.000    0.000 
#    0.000    3.333    0.000    0.000    0.000    0.000 
#    0.000    0.000    0.000    0.000    0.000    0.000 
#
# Total GULP energy -167283.502745 kJ/mol
# GULP energy per Si atom -5576.116758 kJ/mol
# Density = 2.072379 g / cm^3
# Si number density = 20.771064 Si / 1000 Ang^3
#
#
#
# Elastic Constant Matrix: (Units=GPa)
#
#
# Indices 1 2 3 4 5 6 
#
# 1 75.2339 25.9681 -7.8139 0.0000 0.0000 0.0000
# 2 25.9681 172.2450 27.3730 0.0000 0.0000 0.0000
# 3 -7.8139 27.3730 47.1260 0.0000 0.0000 0.0000
# 4 0.0000 0.0000 0.0000 11.6635 0.0000 0.0000
# 5 0.0000 0.0000 0.0000 0.0000 16.3484 0.0000
# 6 0.0000 0.0000 0.0000 0.0000 0.0000 37.9483
#
#
#
# Elastic Compliance Matrix: (Units=1/GPa)
#
#
# Indices 1 2 3 4 5 6 
#
# 1 0.014709 -0.002870 0.004106 0.000000 0.000000 0.000000
# 2 -0.002870 0.006956 -0.004516 0.000000 0.000000 0.000000
# 3 0.004106 -0.004516 0.024524 0.000000 0.000000 0.000000
# 4 0.000000 0.000000 0.000000 0.085737 0.000000 0.000000
# 5 0.000000 0.000000 0.000000 0.000000 0.061168 0.000000
# 6 0.000000 0.000000 0.000000 0.000000 0.000000 0.026352
#
#
# Mechanical properties :
#
#
# Convention : Reuss Voigt Hill
#
# Bulk Modulus (GPa) = 25.23467 42.85103 34.04285
# Shear Modulus (GPa) = 20.90160 29.79722 25.34941
#
# Velocity S-wave (km/s) = 3.17564 3.79166 3.49724
# Velocity P-wave (km/s) = 5.06178 6.31220 5.72125
#
# Compressibility (1/GPa) = 0.03962801
#
# Stress axis : x y z
#
# Youngs Moduli (GPa) = 67.98570 143.75844 40.77669
#
# Poissons Ratio (x) = 0.41260 -0.16743
# Poissons Ratio (y) = 0.19512 0.18416
# Poissons Ratio (z) = -0.27915 0.64926
#
# Static dielectric constant tensor:
#      x y z
#    x 1.808360 0.000000 0.000000 
#    y 0.000000 1.820140 0.000000 
#    z 0.000000 0.000000 1.753120 
# 
# From -- ./inp_files/7703.got.cif
#   From: 2010.05.17/outbox.cif.g08.bks.cpg/sg45_4_cif.got.tgz:7703.got - 2010.06.03 19:51:22.
