data_PCOD9376945
_publ_section_title
;
Structure prediction by ZEFSAII (Michael W. Deem and Ramdas Pophale) SiO2 
 PCOD9376945
Probable space group: I B A 2
;
_chemical_formula_sum "Si O2"
_cell_formula_units_Z 60
_cell_length_a 8.686673
_cell_length_b 11.204008
_cell_length_c 28.229819
_cell_angle_alpha 90.000000
_cell_angle_beta 90.000000
_cell_angle_gamma 90.000000
_cell_volume 2747.482767
_symmetry_space_group_name_H-M "I B A 2"
_symmetry_group_IT_number 45
_symmetry_cell_setting 'orthorhombic'
loop_
_space_group_symop_operation_xyz
x,y,z
-x,-y,z
-x,y,1/2+z
x,-y,1/2+z
1/2+x,1/2+y,1/2+z
1/2-x,1/2-y,1/2+z
1/2-x,1/2+y,z
1/2+x,1/2-y,z
loop_
_atom_site_type_symbol
_atom_site_label
_atom_site_fract_x
_atom_site_fract_y
_atom_site_fract_z
Si Si1 0.500000 0.000000 0.526700
Si Si2 0.437584 0.372994 0.326584
Si Si3 0.411285 0.826389 0.096436
Si Si4 0.996856 0.862194 0.516642
Si Si5 0.906097 0.372793 0.859285
Si Si6 0.665016 0.204200 0.663650
Si Si7 0.193457 0.685409 0.965777
Si Si8 0.057572 0.124687 0.219496
O O1 0.378000 0.069047 0.559714
O O2 0.586689 0.096167 0.495628
O O3 0.500000 0.500000 0.348627
O O4 0.250508 0.379349 0.327316
O O5 0.489958 0.244293 0.347485
O O6 0.517796 0.371062 0.274792
O O7 0.466011 0.714997 0.063652
O O8 0.559071 0.866477 0.127044
O O9 0.275838 0.785591 0.130904
O O10 0.132235 0.838979 0.478907
O O11 0.849360 0.814164 0.487748
O O12 0.000000 0.000000 0.528824
O O13 0.842840 0.342529 0.911661
O O14 0.000000 0.500000 0.857544
O O15 0.768902 0.137948 0.702077
O O16 0.543377 0.277547 0.693710
O O17 0.000000 0.000000 0.200225
#
# Coordination Sequence:
#
# PCOD9376945 Si02
#       8
#     4   8   8   8   8   8   8   8
#     4  10  22  38  62  86 138 164 220 276 320 396
#     4  11  25  46  71 105 141 184 235 300 366 444
#     4  10  22  38  61  94 127 174 223 269 337 389
#     4  11  26  42  65  90 135 183 230 287 343 401
#     4  12  25  44  73 104 140 187 240 298 364 439
#     4  10  22  40  62  97 125 167 223 271 329 417
#     4  11  25  43  64  96 130 182 232 282 344 403
#     4  10  23  44  68  94 134 171 216 283 351 410
#
# _framework density 21.838172
#
# number of rings (size 3 to 8) (size 9 to 14) (size 15 to 20)
#    0.000    1.333    0.667    4.000    7.467    6.400 
#    0.000    0.000    0.000    0.000    0.000    0.000 
#    0.000    0.000    0.000    0.000    0.000    0.000 
#
# Total GULP energy -167505.548561 kJ/mol
# GULP energy per Si atom -5583.518285 kJ/mol
# Density = 2.178847 g / cm^3
# Si number density = 21.838172 Si / 1000 Ang^3
#
#
#
# Elastic Constant Matrix: (Units=GPa)
#
#
# Indices 1 2 3 4 5 6 
#
# 1 93.3074 22.9845 14.0571 0.0000 0.0000 0.0000
# 2 22.9845 123.6695 21.8050 0.0000 0.0000 0.0000
# 3 14.0571 21.8050 83.0742 0.0000 0.0000 0.0000
# 4 0.0000 0.0000 0.0000 23.1491 0.0000 0.0000
# 5 0.0000 0.0000 0.0000 0.0000 35.6923 0.0000
# 6 0.0000 0.0000 0.0000 0.0000 0.0000 -221.2630
#
#
#
# Elastic Compliance Matrix: (Units=1/GPa)
#
#
# Indices 1 2 3 4 5 6 
#
# 1 0.011393 -0.001864 -0.001439 0.000000 0.000000 0.000000
# 2 -0.001864 0.008783 -0.001990 0.000000 0.000000 0.000000
# 3 -0.001439 -0.001990 0.012803 0.000000 0.000000 0.000000
# 4 0.000000 0.000000 0.000000 0.043198 0.000000 0.000000
# 5 0.000000 0.000000 0.000000 0.000000 0.028017 0.000000
# 6 0.000000 0.000000 0.000000 0.000000 0.000000 -0.004520
#
#
# Mechanical properties :
#
#
# Convention : Reuss Voigt Hill
#
# Bulk Modulus (GPa) = 44.65344 46.41603 45.53474
# Shear Modulus (GPa) = 42.47171 -16.40401 13.03385
#
# Velocity S-wave (km/s) = 4.41482 -2.74371 2.44568
# Velocity P-wave (km/s) = 6.81757 3.35611 5.37321
#
# Compressibility (1/GPa) = 0.02239469
#
# Stress axis : x y z
#
# Youngs Moduli (GPa) = 87.77233 113.85187 78.10545
#
# Poissons Ratio (x) = 0.21220 0.11237
# Poissons Ratio (y) = 0.16359 0.15543
# Poissons Ratio (z) = 0.12627 0.22657
#
# Static dielectric constant tensor:
#      x y z
#    x 1.751220 0.000000 0.000000 
#    y 0.000000 1.822310 0.000000 
#    z 0.000000 0.000000 1.804830 
# 
# From -- ./inp_files/9956.got.cif
#   From: 2010.05.17/outbox.cif.g08.bks.cpg/sg45_5_cif.got.tgz:9956.got - 2010.06.03 19:51:22.
