data_PCOD9376943
_publ_section_title
;
Structure prediction by ZEFSAII (Michael W. Deem and Ramdas Pophale) SiO2 
 PCOD9376943
Probable space group: I B A 2
;
_chemical_formula_sum "Si O2"
_cell_formula_units_Z 64
_cell_length_a 25.352721
_cell_length_b 13.148175
_cell_length_c 10.202210
_cell_angle_alpha 90.000000
_cell_angle_beta 90.000000
_cell_angle_gamma 90.000000
_cell_volume 3400.825213
_symmetry_space_group_name_H-M "I B A 2"
_symmetry_group_IT_number 45
_symmetry_cell_setting 'orthorhombic'
loop_
_space_group_symop_operation_xyz
x,y,z
-x,-y,z
-x,y,1/2+z
x,-y,1/2+z
1/2+x,1/2+y,1/2+z
1/2-x,1/2-y,1/2+z
1/2-x,1/2+y,z
1/2+x,1/2-y,z
loop_
_atom_site_type_symbol
_atom_site_label
_atom_site_fract_x
_atom_site_fract_y
_atom_site_fract_z
Si Si1 0.846259 0.412522 0.049260
Si Si2 0.766891 0.836437 0.052240
Si Si3 0.621394 0.688595 0.946411
Si Si4 0.153746 0.587527 0.352968
Si Si5 0.121391 0.811442 0.455844
Si Si6 0.431218 0.597152 0.701116
Si Si7 0.551130 0.355112 0.201125
Si Si8 0.266892 0.663643 0.349895
O O1 0.781975 0.413637 0.050561
O O2 0.863183 0.424047 0.201118
O O3 0.863839 0.302485 0.994337
O O4 0.865006 0.500035 0.951127
O O5 0.769772 0.795916 0.201050
O O6 0.825701 0.865841 0.010559
O O7 0.750000 0.750070 0.951024
O O8 0.578731 0.689782 0.830248
O O9 0.674304 0.634239 0.891633
O O10 0.599478 0.629731 0.071352
O O11 0.136168 0.697575 0.407855
O O12 0.218030 0.586432 0.351658
O O13 0.099437 0.870320 0.330959
O O14 0.078754 0.810176 0.572060
O O15 0.438635 0.476326 0.701082
O O16 0.488038 0.652870 0.701090
#
# Coordination Sequence:
#
# PCOD9376943 Si02
#       8
#     8   8   8   8   8   8   8   8
#     4  10  22  38  60  91 126 163 202 244 293 358
#     4   9  19  35  56  87 120 157 199 239 287 348
#     4  11  21  41  63  89 126 160 200 249 305 360
#     4  10  22  38  60  91 126 163 202 244 293 358
#     4  11  21  41  63  89 126 160 200 249 305 360
#     4  11  24  42  62  91 121 153 202 260 308 363
#     4  11  24  40  66  91 115 157 206 252 312 365
#     4   9  19  35  56  87 120 157 199 239 287 348
#
# _framework density 18.818961999999999
#
# number of rings (size 3 to 8) (size 9 to 14) (size 15 to 20)
#    0.000    1.750    2.500    1.500    3.500    5.000 
#    0.000    0.000    0.000    4.500    0.000    0.000 
#    0.000    0.000    0.000    0.000    0.000    0.000 
#
# Total GULP energy -178522.269999 kJ/mol
# GULP energy per Si atom -5578.820937 kJ/mol
# Density = 1.877613 g / cm^3
# Si number density = 18.818962 Si / 1000 Ang^3
#
#
#
# Elastic Constant Matrix: (Units=GPa)
#
#
# Indices 1 2 3 4 5 6 
#
# 1 84.6843 9.7848 47.6269 0.0000 0.0000 0.0000
# 2 9.7848 56.7042 37.0438 0.0000 0.0000 0.0000
# 3 47.6269 37.0438 183.4617 0.0000 0.0000 0.0000
# 4 0.0000 0.0000 0.0000 29.6206 0.0000 0.0000
# 5 0.0000 0.0000 0.0000 0.0000 47.8411 0.0000
# 6 0.0000 0.0000 0.0000 0.0000 0.0000 17.4533
#
#
#
# Elastic Compliance Matrix: (Units=1/GPa)
#
#
# Indices 1 2 3 4 5 6 
#
# 1 0.013827 -0.000047 -0.003580 0.000000 0.000000 0.000000
# 2 -0.000047 0.020315 -0.004090 0.000000 0.000000 0.000000
# 3 -0.003580 -0.004090 0.007206 0.000000 0.000000 0.000000
# 4 0.000000 0.000000 0.000000 0.033760 0.000000 0.000000
# 5 0.000000 0.000000 0.000000 0.000000 0.020903 0.000000
# 6 0.000000 0.000000 0.000000 0.000000 0.000000 0.057296
#
#
# Mechanical properties :
#
#
# Convention : Reuss Voigt Hill
#
# Bulk Modulus (GPa) = 38.58834 57.08456 47.83645
# Shear Modulus (GPa) = 28.18813 34.34264 31.26538
#
# Velocity S-wave (km/s) = 3.87442 4.27651 4.08042
# Velocity P-wave (km/s) = 6.36901 7.40163 6.90465
#
# Compressibility (1/GPa) = 0.02591456
#
# Stress axis : x y z
#
# Youngs Moduli (GPa) = 72.31977 49.22409 138.77525
#
# Poissons Ratio (x) = 0.00233 0.49683
# Poissons Ratio (y) = 0.00342 0.56755
# Poissons Ratio (z) = 0.25891 0.20131
#
# Static dielectric constant tensor:
#      x y z
#    x 1.680250 0.000000 0.000000 
#    y 0.000000 1.631150 0.000000 
#    z 0.000000 0.000000 1.634140 
# 
# From -- ./inp_files/1915.got.cif
#   From: 2010.05.17/outbox.cif.g08.bks.cpg/sg45_1_cif.got.tgz:1915.got - 2010.06.03 19:51:22.
