data_PCOD9376926
_publ_section_title
;
Structure prediction by ZEFSAII (Michael W. Deem and Ramdas Pophale) SiO2 
 PCOD9376926
Probable space group: I B A 2
;
_chemical_formula_sum "Si O2"
_cell_formula_units_Z 64
_cell_length_a 11.323019
_cell_length_b 31.586633
_cell_length_c 9.025002
_cell_angle_alpha 90.000000
_cell_angle_beta 90.000000
_cell_angle_gamma 90.000000
_cell_volume 3227.846527
_symmetry_space_group_name_H-M "I B A 2"
_symmetry_group_IT_number 45
_symmetry_cell_setting 'orthorhombic'
loop_
_space_group_symop_operation_xyz
x,y,z
-x,-y,z
-x,y,1/2+z
x,-y,1/2+z
1/2+x,1/2+y,1/2+z
1/2-x,1/2-y,1/2+z
1/2-x,1/2+y,z
1/2+x,1/2-y,z
loop_
_atom_site_type_symbol
_atom_site_label
_atom_site_fract_x
_atom_site_fract_y
_atom_site_fract_z
Si Si1 0.484028 0.319383 0.990660
Si Si2 0.656855 0.997070 0.931324
Si Si3 0.616305 0.838399 0.651375
Si Si4 0.840434 0.216558 0.243170
Si Si5 0.227020 0.444057 0.680628
Si Si6 0.127164 0.312302 0.804933
Si Si7 0.351516 0.361537 0.733869
Si Si8 0.445859 0.936945 0.177947
O O1 0.572190 0.299482 0.871586
O O2 0.399245 0.349715 0.896157
O O3 0.407270 0.285975 0.084522
O O4 0.559386 0.343728 0.112993
O O5 0.583650 0.963833 0.826937
O O6 0.728047 0.024789 0.817380
O O7 0.741847 0.968774 0.029551
O O8 0.594624 0.030654 0.046392
O O9 0.728341 0.814527 0.725616
O O10 0.617533 0.826586 0.476632
O O11 0.499389 0.819108 0.728275
O O12 0.612410 0.890006 0.669421
O O13 0.820824 0.265102 0.286315
O O14 0.324924 0.409724 0.706016
O O15 0.087566 0.429867 0.673203
O O16 0.223159 0.340569 0.721735
#
# Coordination Sequence:
#
# PCOD9376926 Si02
#       8
#     8   8   8   8   8   8   8   8
#     4  10  25  47  66  94 121 187 224 283 330 405
#     4  10  22  36  62  97 141 181 206 272 347 435
#     4  12  28  42  70 107 140 181 227 296 334 423
#     4  11  26  45  70  93 136 180 233 278 346 399
#     4  11  20  38  62  96 133 172 214 273 340 412
#     4  12  27  43  66 104 139 177 225 286 352 401
#     4  11  24  44  69  93 133 173 233 283 339 408
#     4  11  21  37  61 101 143 173 223 262 360 408
#
# _framework density 19.827459999999999
#
# number of rings (size 3 to 8) (size 9 to 14) (size 15 to 20)
#    0.000    1.000    2.500    4.500   10.500    0.000 
#    0.000    0.000    0.000    2.250    0.000    0.000 
#    0.000    0.000    0.000    0.000    0.000    0.000 
#
# Total GULP energy -178611.133071 kJ/mol
# GULP energy per Si atom -5581.597908 kJ/mol
# Density = 1.978233 g / cm^3
# Si number density = 19.827460 Si / 1000 Ang^3
#
#
#
# Elastic Constant Matrix: (Units=GPa)
#
#
# Indices 1 2 3 4 5 6 
#
# 1 48.7950 8.8088 7.0272 -0.0063 -0.0007 -2.6486
# 2 8.8088 109.5251 39.9264 -0.0044 0.0003 -0.3378
# 3 7.0272 39.9264 106.8667 -0.0129 0.0004 -7.5463
# 4 -0.0063 -0.0044 -0.0129 6.6849 0.0005 6.0494
# 5 -0.0007 0.0003 0.0004 0.0005 30.1149 3.7098
# 6 -2.6486 -0.3378 -7.5463 6.0494 3.7098**********
#
#
#
# Elastic Compliance Matrix: (Units=1/GPa)
#
#
# Indices 1 2 3 4 5 6 
#
# 1 0.020864 -0.001364 -0.000863 0.000021 0.000001 -0.000004
# 2 -0.001364 0.010659 -0.003892 -0.000004 0.000000 0.000002
# 3 -0.000863 -0.003892 0.010868 0.000023 0.000001 -0.000006
# 4 0.000021 -0.000004 0.000023 0.149525 -0.000012 0.000072
# 5 0.000001 0.000000 0.000001 -0.000012 0.033205 0.000010
# 6 -0.000004 0.000002 -0.000006 0.000072 0.000010 -0.000080
#
#
# Mechanical properties :
#
#
# Convention : Reuss Voigt Hill
#
# Bulk Modulus (GPa) = 33.16364 41.85684 37.51024
# Shear Modulus (GPa) = 20.21594 -2474.74381 -1227.26393
#
# Velocity S-wave (km/s) = 3.19657 -35.36735 -24.90613
# Velocity P-wave (km/s) = 5.51240 40.57884 28.42759
#
# Compressibility (1/GPa) = 0.03015350
#
# Stress axis : x y z
#
# Youngs Moduli (GPa) = 47.92918 93.81775 92.01321
#
# Poissons Ratio (x) = 0.12792 0.07939
# Poissons Ratio (y) = 0.06535 0.35816
# Poissons Ratio (z) = 0.04135 0.36518
#
# Static dielectric constant tensor:
#      x y z
#    x 1.699050 0.000000 0.000000 
#    y 0.000000 1.758160 0.000000 
#    z 0.000000 0.000000 1.694090 
# 
# From -- ./inp_files/1504.got.cif
#   From: 2010.05.17/outbox.cif.g08.bks.cpg/sg45_1_cif.got.tgz:1504.got - 2010.06.03 19:51:22.
