data_PCOD9376268
_publ_section_title
;
Structure prediction by ZEFSAII (Michael W. Deem and Ramdas Pophale) SiO2 
 PCOD9376268
Probable space group: I B A 2
;
_chemical_formula_sum "Si O2"
_cell_formula_units_Z 60
_cell_length_a 8.433163
_cell_length_b 25.680540
_cell_length_c 12.996622
_cell_angle_alpha 90.000000
_cell_angle_beta 90.000000
_cell_angle_gamma 90.000000
_cell_volume 2814.654769
_symmetry_space_group_name_H-M "I B A 2"
_symmetry_group_IT_number 45
_symmetry_cell_setting 'orthorhombic'
loop_
_space_group_symop_operation_xyz
x,y,z
-x,-y,z
-x,y,1/2+z
x,-y,1/2+z
1/2+x,1/2+y,1/2+z
1/2-x,1/2-y,1/2+z
1/2-x,1/2+y,z
1/2+x,1/2-y,z
loop_
_atom_site_type_symbol
_atom_site_label
_atom_site_fract_x
_atom_site_fract_y
_atom_site_fract_z
Si Si1 0.206588 0.678650 0.510100
Si Si2 0.500000 0.500000 0.663795
Si Si3 0.639707 0.781428 0.065781
Si Si4 0.223645 0.536136 0.031762
Si Si5 0.091963 0.574613 0.605148
Si Si6 0.603017 0.793895 0.295614
Si Si7 0.229405 0.930040 0.300832
Si Si8 0.737767 0.314584 0.853449
O O1 0.334526 0.719349 0.552108
O O2 0.194212 0.622462 0.561632
O O3 0.199896 0.676952 0.385942
O O4 0.041279 0.705963 0.540438
O O5 0.610789 0.535975 0.591938
O O6 0.606075 0.463635 0.736014
O O7 0.667192 0.801276 0.180866
O O8 0.741123 0.808789 0.976301
O O9 0.157819 0.478341 0.055497
O O10 0.092110 0.576368 0.074311
O O11 0.240365 0.545052 0.911191
O O12 0.115625 0.571597 0.727553
O O13 0.628439 0.732655 0.317824
O O14 0.416388 0.807100 0.306989
O O15 0.178114 0.870789 0.320599
#
# Coordination Sequence:
#
# PCOD9376268 Si02
#       8
#     8   4   8   8   8   8   8   8
#     4  10  21  37  58  88 121 158 202 242 294 366
#     4  10  24  44  64  90 122 160 210 258 314 374
#     4  10  19  35  57  83 120 158 198 244 290 355
#     4  10  22  41  65  94 123 157 210 260 309 374
#     4  10  22  40  65  93 122 162 208 253 309 370
#     4  10  19  36  57  85 124 159 195 243 293 354
#     4  11  22  44  67  88 128 166 201 262 314 359
#     4  10  22  37  59  88 119 159 200 243 302 363
#
# _framework density 21.317001999999999
#
# number of rings (size 3 to 8) (size 9 to 14) (size 15 to 20)
#    0.000    1.867    0.000    4.400    0.000    4.267 
#    0.000   30.667    0.000    0.000    0.000    0.000 
#    0.000    0.000    0.000    0.000    0.000    0.000 
#
# Total GULP energy -167651.143943 kJ/mol
# GULP energy per Si atom -5588.371465 kJ/mol
# Density = 2.126848 g / cm^3
# Si number density = 21.317002 Si / 1000 Ang^3
#
#
#
# Elastic Constant Matrix: (Units=GPa)
#
#
# Indices 1 2 3 4 5 6 
#
# 1 36.4168 4.9301 41.0707 0.0000 0.0000 0.0000
# 2 4.9301 90.0360 39.3393 0.0000 0.0000 0.0000
# 3 41.0707 39.3393 204.2921 -0.0001 0.0000 0.0000
# 4 0.0000 0.0000 -0.0001 23.0681 0.0000 0.0000
# 5 0.0000 0.0000 0.0000 0.0000 17.4949 0.0000
# 6 0.0000 0.0000 0.0000 0.0000 0.0000 20.7554
#
#
#
# Elastic Compliance Matrix: (Units=1/GPa)
#
#
# Indices 1 2 3 4 5 6 
#
# 1 0.035648 0.001288 -0.007415 0.000000 0.000000 0.000000
# 2 0.001288 0.012174 -0.002603 0.000000 0.000000 0.000000
# 3 -0.007415 -0.002603 0.006887 0.000000 0.000000 0.000000
# 4 0.000000 0.000000 0.000000 0.043350 0.000000 0.000000
# 5 0.000000 0.000000 0.000000 0.000000 0.057159 0.000000
# 6 0.000000 0.000000 0.000000 0.000000 0.000000 0.048180
#
#
# Mechanical properties :
#
#
# Convention : Reuss Voigt Hill
#
# Bulk Modulus (GPa) = 26.84698 55.71388 41.28043
# Shear Modulus (GPa) = 21.43409 28.62401 25.02905
#
# Velocity S-wave (km/s) = 3.17439 3.66837 3.43028
# Velocity P-wave (km/s) = 5.10462 6.64343 5.92420
#
# Compressibility (1/GPa) = 0.03724814
#
# Stress axis : x y z
#
# Youngs Moduli (GPa) = 28.05235 82.14558 145.20509
#
# Poissons Ratio (x) = -0.10578 1.07663
# Poissons Ratio (y) = -0.03612 0.37798
# Poissons Ratio (z) = 0.20799 0.21383
#
# Static dielectric constant tensor:
#      x y z
#    x 1.849090 0.000000 0.000000 
#    y 0.000000 1.762280 0.000000 
#    z 0.000000 0.000000 1.796580 
# 
# From -- ./inp_files/3355.got.cif
#   From: 2010.05.17/outbox.cif.g08.bks.cpg/sg45_2_cif.got.tgz:3355.got - 2010.06.03 19:51:22.
