data_PCOD9376454
_publ_section_title
;
Structure prediction by ZEFSAII (Michael W. Deem and Ramdas Pophale) SiO2 
 PCOD9376454
Probable space group: I B A 2
;
_chemical_formula_sum "Si O2"
_cell_formula_units_Z 60
_cell_length_a 9.021570
_cell_length_b 24.479160
_cell_length_c 10.837307
_cell_angle_alpha 90.000000
_cell_angle_beta 90.000000
_cell_angle_gamma 90.000000
_cell_volume 2393.315814
_symmetry_space_group_name_H-M "I B A 2"
_symmetry_group_IT_number 45
_symmetry_cell_setting 'orthorhombic'
loop_
_space_group_symop_operation_xyz
x,y,z
-x,-y,z
-x,y,1/2+z
x,-y,1/2+z
1/2+x,1/2+y,1/2+z
1/2-x,1/2-y,1/2+z
1/2-x,1/2+y,z
1/2+x,1/2-y,z
loop_
_atom_site_type_symbol
_atom_site_label
_atom_site_fract_x
_atom_site_fract_y
_atom_site_fract_z
Si Si1 0.657414 0.855540 0.734170
Si Si2 0.586648 0.176383 0.566098
Si Si3 0.060227 0.819222 0.856470
Si Si4 0.783755 0.237145 0.409757
Si Si5 0.457762 0.619599 0.612372
Si Si6 0.000000 0.500000 0.079340
Si Si7 0.744469 0.427081 0.175704
Si Si8 0.070878 0.596352 0.393645
O O1 0.533453 0.816500 0.673123
O O2 0.736031 0.817530 0.834705
O O3 0.561731 0.904635 0.792117
O O4 0.783693 0.880814 0.646613
O O5 0.699058 0.225635 0.538511
O O6 0.690539 0.124346 0.598328
O O7 0.474641 0.152020 0.462391
O O8 0.957697 0.768561 0.902430
O O9 0.220639 0.791895 0.853523
O O10 0.018591 0.839427 0.720150
O O11 0.033637 0.860636 0.970900
O O12 0.572114 0.569629 0.637537
O O13 0.145922 0.522588 0.149092
O O14 0.053212 0.451318 0.990853
O O15 0.777712 0.410529 0.317662
#
# Coordination Sequence:
#
# PCOD9376454 Si02
#       8
#     8   8   8   8   8   4   8   8
#     4   9  21  38  60  91 129 179 230 276 353 413
#     4   9  18  36  61  86 124 175 224 275 336 414
#     4  11  26  40  62  94 137 188 241 293 342 401
#     4  10  22  38  56  90 135 178 238 299 331 395
#     4  11  25  42  63  98 136 186 231 283 358 414
#     4  10  20  36  70  96 128 162 224 292 342 426
#     4  10  20  39  66  95 132 167 223 282 349 423
#     4   9  19  36  63  96 120 166 219 275 342 424
#
# _framework density 25.069823
#
# number of rings (size 3 to 8) (size 9 to 14) (size 15 to 20)
#    0.000    2.133    1.333    0.400    7.467    3.200 
#    0.000    0.000    0.000   17.600    0.000    0.000 
#    0.000    0.000    0.000    0.000    0.000    0.000 
#
# Total GULP energy -167533.331524 kJ/mol
# GULP energy per Si atom -5584.444384 kJ/mol
# Density = 2.501276 g / cm^3
# Si number density = 25.069823 Si / 1000 Ang^3
#
#
#
# Elastic Constant Matrix: (Units=GPa)
#
#
# Indices 1 2 3 4 5 6 
#
# 1 115.9680 14.0734 26.8568 0.0000 0.0000 0.0000
# 2 14.0734 72.8562 19.1797 0.0000 0.0000 0.0000
# 3 26.8568 19.1797 98.2692 -0.0002 0.0001 0.0000
# 4 0.0000 0.0000 -0.0002 30.6141 0.0000 0.0000
# 5 0.0000 0.0000 0.0001 0.0000 37.6295 0.0000
# 6 0.0000 0.0000 0.0000 0.0000 0.0000 41.6269
#
#
#
# Elastic Compliance Matrix: (Units=1/GPa)
#
#
# Indices 1 2 3 4 5 6 
#
# 1 0.009302 -0.001189 -0.002310 0.000000 0.000000 0.000000
# 2 -0.001189 0.014621 -0.002529 0.000000 0.000000 0.000000
# 3 -0.002310 -0.002529 0.011301 0.000000 0.000000 0.000000
# 4 0.000000 0.000000 0.000000 0.032665 0.000000 0.000000
# 5 0.000000 0.000000 0.000000 0.000000 0.026575 0.000000
# 6 0.000000 0.000000 0.000000 0.000000 0.000000 0.024023
#
#
# Mechanical properties :
#
#
# Convention : Reuss Voigt Hill
#
# Bulk Modulus (GPa) = 43.16141 45.25701 44.20921
# Shear Modulus (GPa) = 36.16229 37.10632 36.63431
#
# Velocity S-wave (km/s) = 3.80210 3.85141 3.82683
# Velocity P-wave (km/s) = 6.04388 6.15381 6.09909
#
# Compressibility (1/GPa) = 0.02316884
#
# Stress axis : x y z
#
# Youngs Moduli (GPa) = 107.49956 68.39480 88.48704
#
# Poissons Ratio (x) = 0.08130 0.20443
# Poissons Ratio (y) = 0.12779 0.22376
# Poissons Ratio (z) = 0.24836 0.17296
#
# Static dielectric constant tensor:
#      x y z
#    x 2.080120 0.000000 0.000000 
#    y 0.000000 1.952490 0.000000 
#    z 0.000000 0.000000 2.092450 
# 
# From -- ./inp_files/3358.got.cif
#   From: 2010.05.17/outbox.cif.g08.bks.cpg/sg45_2_cif.got.tgz:3358.got - 2010.06.03 19:51:22.
