data_PCOD9376511
_publ_section_title
;
Structure prediction by ZEFSAII (Michael W. Deem and Ramdas Pophale) SiO2 
 PCOD9376511
Probable space group: I B A 2
;
_chemical_formula_sum "Si O2"
_cell_formula_units_Z 52
_cell_length_a 14.392417
_cell_length_b 9.092608
_cell_length_c 18.970065
_cell_angle_alpha 90.000000
_cell_angle_beta 90.000000
_cell_angle_gamma 90.000000
_cell_volume 2482.510081
_symmetry_space_group_name_H-M "I B A 2"
_symmetry_group_IT_number 45
_symmetry_cell_setting 'orthorhombic'
loop_
_space_group_symop_operation_xyz
x,y,z
-x,-y,z
-x,y,1/2+z
x,-y,1/2+z
1/2+x,1/2+y,1/2+z
1/2-x,1/2-y,1/2+z
1/2-x,1/2+y,z
1/2+x,1/2-y,z
loop_
_atom_site_type_symbol
_atom_site_label
_atom_site_fract_x
_atom_site_fract_y
_atom_site_fract_z
Si Si1 0.500000 0.500000 0.216241
Si Si2 0.261069 0.855295 0.770617
Si Si3 0.638876 0.598248 0.491606
Si Si4 0.690797 0.281496 0.549865
Si Si5 0.995820 0.257564 0.603139
Si Si6 0.357071 0.419042 0.332561
Si Si7 0.174215 0.617401 0.675152
O O1 0.510526 0.637961 0.164815
O O2 0.416131 0.493831 0.270968
O O3 0.332501 0.740798 0.803449
O O4 0.186248 0.745292 0.734145
O O5 0.228416 0.966333 0.832070
O O6 0.302101 0.962547 0.710765
O O7 0.656312 0.429517 0.512140
O O8 0.736518 0.684746 0.504906
O O9 0.563787 0.674857 0.542399
O O10 0.606433 0.599857 0.410904
O O11 0.596534 0.198639 0.573420
O O12 0.747850 0.339487 0.617765
O O13 0.925162 0.373452 0.637760
#
# Coordination Sequence:
#
# PCOD9376511 Si02
#       7
#     4   8   8   8   8   8   8
#     4  12  22  38  64  98 122 166 222 270 320 396
#     4  10  20  39  64  88 135 171 213 269 327 398
#     4  11  24  41  63  94 128 175 214 273 331 402
#     4  11  22  39  67  90 129 165 224 268 330 395
#     4  11  21  40  67  96 125 169 223 271 325 388
#     4  11  24  40  64  94 131 172 219 264 337 401
#     4  10  20  38  64  98 125 170 218 274 327 379
#
# _framework density 20.946542000000001
#
# number of rings (size 3 to 8) (size 9 to 14) (size 15 to 20)
#    0.000    1.231    3.077    4.615    2.154    0.000 
#    0.000   12.308    0.000    1.846    0.000    0.000 
#    0.000    0.000    0.000    0.000    0.000    0.000 
#
# Total GULP energy -145204.513165 kJ/mol
# GULP energy per Si atom -5584.788968 kJ/mol
# Density = 2.089887 g / cm^3
# Si number density = 20.946542 Si / 1000 Ang^3
#
#
#
# Elastic Constant Matrix: (Units=GPa)
#
#
# Indices 1 2 3 4 5 6 
#
# 1 82.2610 4.6244 11.2111 0.0000 0.0000 0.0000
# 2 4.6244 93.6363 12.5211 0.0000 0.0000 0.0000
# 3 11.2111 12.5211 110.3188 0.0000 0.0000 0.0000
# 4 0.0000 0.0000 0.0000 0.7041 0.0000 0.0000
# 5 0.0000 0.0000 0.0000 0.0000 31.7654 0.0000
# 6 0.0000 0.0000 0.0000 0.0000 0.0000 18.3951
#
#
#
# Elastic Compliance Matrix: (Units=1/GPa)
#
#
# Indices 1 2 3 4 5 6 
#
# 1 0.012346 -0.000449 -0.001204 0.000000 0.000000 0.000000
# 2 -0.000449 0.010861 -0.001187 0.000000 0.000000 0.000000
# 3 -0.001204 -0.001187 0.009322 0.000000 0.000000 0.000000
# 4 0.000000 0.000000 0.000000 1.420277 0.000000 0.000000
# 5 0.000000 0.000000 0.000000 0.000000 0.031481 0.000000
# 6 0.000000 0.000000 0.000000 0.000000 0.000000 0.054362
#
#
# Mechanical properties :
#
#
# Convention : Reuss Voigt Hill
#
# Bulk Modulus (GPa) = 37.24548 38.10326 37.67437
# Shear Modulus (GPa) = 3.21900 27.36356 15.29128
#
# Velocity S-wave (km/s) = 1.24101 3.61827 2.70481
# Velocity P-wave (km/s) = 4.45795 5.97378 5.27064
#
# Compressibility (1/GPa) = 0.02684890
#
# Stress axis : x y z
#
# Youngs Moduli (GPa) = 80.99989 92.07665 107.27668
#
# Poissons Ratio (x) = 0.04132 0.12913
# Poissons Ratio (y) = 0.03635 0.12734
# Poissons Ratio (z) = 0.09750 0.10930
#
# Static dielectric constant tensor:
#      x y z
#    x 1.627700 0.000000 0.000000 
#    y 0.000000 1.755740 0.000000 
#    z 0.000000 0.000000 1.744620 
# 
# From -- ./inp_files/9157.got.cif
#   From: 2010.05.17/outbox.cif.g08.bks.cpg/sg45_5_cif.got.tgz:9157.got - 2010.06.03 19:51:22.
