data_PCOD9376086
_publ_section_title
;
Structure prediction by ZEFSAII (Michael W. Deem and Ramdas Pophale) SiO2 
 PCOD9376086
Probable space group: I B A 2
;
_chemical_formula_sum "Si O2"
_cell_formula_units_Z 48
_cell_length_a 16.344776
_cell_length_b 26.526022
_cell_length_c 5.169569
_cell_angle_alpha 90.000000
_cell_angle_beta 90.000000
_cell_angle_gamma 90.000000
_cell_volume 2241.328095
_symmetry_space_group_name_H-M "I B A 2"
_symmetry_group_IT_number 45
_symmetry_cell_setting 'orthorhombic'
loop_
_space_group_symop_operation_xyz
x,y,z
-x,-y,z
-x,y,1/2+z
x,-y,1/2+z
1/2+x,1/2+y,1/2+z
1/2-x,1/2-y,1/2+z
1/2-x,1/2+y,z
1/2+x,1/2-y,z
loop_
_atom_site_type_symbol
_atom_site_label
_atom_site_fract_x
_atom_site_fract_y
_atom_site_fract_z
Si Si1 0.551415 0.183599 0.450720
Si Si2 0.726595 0.220735 0.254752
Si Si3 0.550321 0.937337 0.950577
Si Si4 0.271380 0.608909 0.661890
Si Si5 0.281715 0.945540 0.675935
Si Si6 0.127087 0.980382 0.165352
O O1 0.517405 0.195906 0.735161
O O2 0.635769 0.208591 0.360995
O O3 0.565429 0.123118 0.453757
O O4 0.773266 0.243742 0.502641
O O5 0.767559 0.168518 0.158749
O O6 0.519513 0.947755 0.663005
O O7 0.632606 0.962658 0.056736
O O8 0.210672 0.585503 0.443829
O O9 0.354154 0.577499 0.600693
O O10 0.251851 0.591754 0.953769
O O11 0.215125 0.989864 0.711681
O O12 0.086665 0.988164 0.439713
#
# Coordination Sequence:
#
# PCOD9376086 Si02
#       6
#     8   8   8   8   8   8
#     4  10  21  36  54  73  99 139 179 217 269 326
#     4  12  24  36  54  80 105 132 179 232 277 315
#     4  10  19  28  46  69  91 126 170 218 256 292
#     4  10  19  32  49  66  96 125 163 213 260 308
#     4  10  17  30  49  65  90 122 168 202 251 306
#     4   8  16  28  46  65  83 124 164 198 245 319
#
# _framework density 21.415875
#
# number of rings (size 3 to 8) (size 9 to 14) (size 15 to 20)
#    0.000    2.000    1.667    3.000    4.667    0.000 
#    0.000    0.000    0.000   29.000    0.000    0.000 
#    0.000    0.000    0.000    0.000    0.000  525.000 
#
# Total GULP energy -133952.159546 kJ/mol
# GULP energy per Si atom -5581.339981 kJ/mol
# Density = 2.136713 g / cm^3
# Si number density = 21.415875 Si / 1000 Ang^3
#
#
#
# Elastic Constant Matrix: (Units=GPa)
#
#
# Indices 1 2 3 4 5 6 
#
# 1 64.3023 29.2517 1.5139 -0.0002 0.0005 0.0001
# 2 29.2517 98.8624 29.6981 0.0000 0.0004 0.0002
# 3 1.5139 29.6981 124.9951 0.0028 -0.0011 0.0004
# 4 -0.0002 0.0000 0.0028 27.3936 -0.0001 0.0004
# 5 0.0005 0.0004 -0.0011 -0.0001 5.5910 0.0000
# 6 0.0001 0.0002 0.0004 0.0004 0.0000 16.5444
#
#
#
# Elastic Compliance Matrix: (Units=1/GPa)
#
#
# Indices 1 2 3 4 5 6 
#
# 1 0.018119 -0.005702 0.001135 0.000000 -0.000001 0.000000
# 2 -0.005702 0.012687 -0.002945 0.000000 -0.000001 0.000000
# 3 0.001135 -0.002945 0.008686 -0.000001 0.000002 0.000000
# 4 0.000000 0.000000 -0.000001 0.036505 0.000001 -0.000001
# 5 -0.000001 -0.000001 0.000002 0.000001 0.178859 0.000000
# 6 0.000000 0.000000 0.000000 -0.000001 0.000000 0.060443
#
#
# Mechanical properties :
#
#
# Convention : Reuss Voigt Hill
#
# Bulk Modulus (GPa) = 40.86975 45.45415 43.16195
# Shear Modulus (GPa) = 14.77195 25.08554 19.92875
#
# Velocity S-wave (km/s) = 2.62919 3.42622 3.05382
# Velocity P-wave (km/s) = 5.32373 6.07639 5.71247
#
# Compressibility (1/GPa) = 0.02446797
#
# Stress axis : x y z
#
# Youngs Moduli (GPa) = 55.19151 78.82102 115.12328
#
# Poissons Ratio (x) = 0.44944 -0.13070
# Poissons Ratio (y) = 0.31471 0.33907
# Poissons Ratio (z) = -0.06266 0.23215
#
# Static dielectric constant tensor:
#      x y z
#    x 1.832590 0.000000 0.000000 
#    y 0.000000 1.792230 0.000000 
#    z 0.000000 0.000000 1.831930 
# 
# From -- ./inp_files/308.got.cif
#   From: 2010.05.17/outbox.cif.g08.bks.cpg/sg45_1_cif.got.tgz:308.got - 2010.06.03 19:51:22.
