data_PCOD9376032
_publ_section_title
;
Structure prediction by ZEFSAII (Michael W. Deem and Ramdas Pophale) SiO2 
 PCOD9376032
Probable space group: I M M 2
;
_chemical_formula_sum "Si O2"
_cell_formula_units_Z 20
_cell_length_a 9.000000
_cell_length_b 12.000000
_cell_length_c 21.000000
_cell_angle_alpha 90.000000
_cell_angle_beta 90.000000
_cell_angle_gamma 90.000000
_cell_volume 2268.000000
_symmetry_space_group_name_H-M "I M M 2"
_symmetry_group_IT_number 44
_symmetry_cell_setting 'orthorhombic'
loop_
_space_group_symop_operation_xyz
x,y,z
-x,-y,z
-x,y,z
x,-y,z
1/2+x,1/2+y,1/2+z
1/2-x,1/2-y,1/2+z
1/2-x,1/2+y,1/2+z
1/2+x,1/2-y,1/2+z
loop_
_atom_site_type_symbol
_atom_site_label
_atom_site_fract_x
_atom_site_fract_y
_atom_site_fract_z
Si Si1 0.822779 0.500000 0.516090
Si Si2 0.821988 0.500000 0.667645
Si Si3 0.179442 0.633848 0.868023
Si Si4 0.180962 0.752479 0.493745
Si Si5 0.821028 0.788744 0.236959
Si Si6 0.678450 0.867988 0.619054
O O1 0.797594 0.500000 0.592019
O O2 0.771507 0.378852 0.490749
O O3 0.000000 0.500000 0.505761
O O4 0.745435 0.606604 0.698739
O O5 0.000000 0.500000 0.679744
O O6 0.211083 0.500000 0.861556
O O7 0.250263 0.681032 0.933602
O O8 0.247454 0.700166 0.807116
O O9 0.000000 0.646015 0.869202
O O10 0.238956 0.805010 0.560728
O O11 0.000000 0.758190 0.492480
O O12 0.787855 0.685401 0.188810
O O13 0.000000 0.795711 0.243729
O O14 0.500000 0.855057 0.609405
O O15 0.712928 0.000000 0.617618
#
# Coordination Sequence:
#
# PCOD9376032 Si02
#       6
#     4   4   8   8   8   8
#     4   9  20  37  59  87 119 152 187 236 295 345
#     4  11  19  35  61  89 121 150 183 238 299 347
#     4  11  24  41  60  84 119 157 192 240 300 349
#     4  11  22  39  62  88 117 153 197 241 288 348
#     4  11  22  37  61  90 117 151 198 243 285 348
#     4  10  22  40  60  86 121 156 191 237 295 348
#
# _framework density 8.8183419999999995
#
# number of rings (size 3 to 8) (size 9 to 14) (size 15 to 20)
#    0.000    1.400    3.000    2.700    0.000    4.800 
#    1.800    2.000    0.000    0.000    0.000    0.000 
#    0.000    0.000    0.000    0.000    0.000    0.000 
#
# Total GULP energy -111635.709158 kJ/mol
# GULP energy per Si atom -5581.785458 kJ/mol
# Density = 0.879827 g / cm^3
# Si number density = 8.818342 Si / 1000 Ang^3
#
#
#
# Elastic Constant Matrix: (Units=GPa)
#
#
# Indices 1 2 3 4 5 6 
#
# 1 83.8606 39.7151 54.0820 0.0000 0.0000 0.0000
# 2 39.7151 125.5904 67.2067 0.0000 0.0000 0.0000
# 3 54.0820 67.2067 138.7187 0.0000 0.0000 0.0000
# 4 0.0000 0.0000 0.0000 39.3835 0.0000 0.0000
# 5 0.0000 0.0000 0.0000 0.0000 39.5268 0.0000
# 6 0.0000 0.0000 0.0000 0.0000 0.0000 25.7432
#
#
#
# Elastic Compliance Matrix: (Units=1/GPa)
#
#
# Indices 1 2 3 4 5 6 
#
# 1 0.016444 -0.002389 -0.005254 0.000000 0.000000 0.000000
# 2 -0.002389 0.011096 -0.004445 0.000000 0.000000 0.000000
# 3 -0.005254 -0.004445 0.011410 0.000000 0.000000 0.000000
# 4 0.000000 0.000000 0.000000 0.025391 0.000000 0.000000
# 5 0.000000 0.000000 0.000000 0.000000 0.025299 0.000000
# 6 0.000000 0.000000 0.000000 0.000000 0.000000 0.038845
#
#
# Mechanical properties :
#
#
# Convention : Reuss Voigt Hill
#
# Bulk Modulus (GPa) = 67.67472 74.46416 71.06944
# Shear Modulus (GPa) = 31.72873 33.40843 32.56858
#
# Velocity S-wave (km/s) = 4.24609 4.35703 4.30192
# Velocity P-wave (km/s) = 7.90531 8.22341 8.06593
#
# Compressibility (1/GPa) = 0.01477657
#
# Stress axis : x y z
#
# Youngs Moduli (GPa) = 60.81278 90.12098 87.63894
#
# Poissons Ratio (x) = 0.21526 0.46043
# Poissons Ratio (y) = 0.14526 0.38953
# Poissons Ratio (z) = 0.31949 0.40056
#
# Static dielectric constant tensor:
#      x y z
#    x 1.594130 0.000000 0.000000 
#    y 0.000000 1.612280 0.000000 
#    z 0.000000 0.000000 1.592630 
# 
# From -- ./inp_files/22796.got.cif
#   From: 2010.05.17/outbox.ucp.g08.bks.cvg/sg44_12_cif.got.tgz:22796.got - 2010.06.11 16:32:36.
