data_PCOD9376700
_publ_section_title
;
Structure prediction by ZEFSAII (Michael W. Deem and Ramdas Pophale) SiO2 
 PCOD9376700
Probable space group: I B A 2
;
_chemical_formula_sum "Si O2"
_cell_formula_units_Z 64
_cell_length_a 34.259856
_cell_length_b 5.374112
_cell_length_c 14.225152
_cell_angle_alpha 90.000000
_cell_angle_beta 90.000000
_cell_angle_gamma 90.000000
_cell_volume 2619.082399
_symmetry_space_group_name_H-M "I B A 2"
_symmetry_group_IT_number 45
_symmetry_cell_setting 'orthorhombic'
loop_
_space_group_symop_operation_xyz
x,y,z
-x,-y,z
-x,y,1/2+z
x,-y,1/2+z
1/2+x,1/2+y,1/2+z
1/2-x,1/2-y,1/2+z
1/2-x,1/2+y,z
1/2+x,1/2-y,z
loop_
_atom_site_type_symbol
_atom_site_label
_atom_site_fract_x
_atom_site_fract_y
_atom_site_fract_z
Si Si1 0.607603 0.178699 0.347010
Si Si2 0.765969 0.136255 0.620317
Si Si3 0.010351 0.749612 0.060850
Si Si4 0.399919 0.182886 0.074687
Si Si5 0.348276 0.322945 0.358468
Si Si6 0.237588 0.983551 0.834634
Si Si7 0.144149 0.816409 0.584949
Si Si8 0.022083 0.251200 0.265281
O O1 0.602122 0.174833 0.460533
O O2 0.631476 0.425906 0.323429
O O3 0.565722 0.216427 0.300408
O O4 0.630888 0.926606 0.321858
O O5 0.743179 0.368007 0.575222
O O6 0.811714 0.196657 0.621679
O O7 0.752121 0.080961 0.726610
O O8 0.054707 0.732171 0.095570
O O9 0.000000 0.500000 0.006610
O O10 0.981923 0.754513 0.151440
O O11 0.000000 0.000000 0.007293
O O12 0.375258 0.419529 0.108981
O O13 0.382118 0.922593 0.110252
O O14 0.303038 0.367007 0.337927
O O15 0.352377 0.313403 0.471473
O O16 0.265886 0.200901 0.874768
O O17 0.000000 0.500000 0.294236
O O18 0.000000 0.000000 0.295582
#
# Coordination Sequence:
#
# PCOD9376700 Si02
#       8
#     8   8   8   8   8   8   8   8
#     4  10  21  38  59  83 117 152 190 239 293 345
#     4  10  21  38  58  84 120 155 194 236 284 338
#     4  10  21  38  56  81 115 147 187 245 282 347
#     4  10  21  38  59  83 117 152 190 239 293 345
#     4  10  21  38  59  88 117 150 195 239 286 345
#     4  10  21  38  58  84 120 155 194 236 284 338
#     4  10  21  38  59  88 117 150 195 239 286 345
#     4  10  21  38  56  81 115 147 187 245 282 347
#
# _framework density 24.436039000000001
#
# number of rings (size 3 to 8) (size 9 to 14) (size 15 to 20)
#    0.000    2.000    0.000    3.000    0.000    2.000 
#   13.500    0.000    0.000    0.000    0.000    0.000 
#    0.000    0.000    0.000    0.000    0.000    0.000 
#
# Total GULP energy -178980.062492 kJ/mol
# GULP energy per Si atom -5593.126953 kJ/mol
# Density = 2.438042 g / cm^3
# Si number density = 24.436039 Si / 1000 Ang^3
#
#
#
# Elastic Constant Matrix: (Units=GPa)
#
#
# Indices 1 2 3 4 5 6 
#
# 1 122.8897 72.4823 -13.8962 0.0000 0.0000 0.0000
# 2 72.4823 257.9641 23.2779 0.0000 0.0000 0.0000
# 3 -13.8962 23.2779 47.9107 0.0000 0.0000 0.0000
# 4 0.0000 0.0000 0.0000 -39.4892 0.0000 0.0000
# 5 0.0000 0.0000 0.0000 0.0000 41.9325 0.0000
# 6 0.0000 0.0000 0.0000 0.0000 0.0000 55.1144
#
#
#
# Elastic Compliance Matrix: (Units=1/GPa)
#
#
# Indices 1 2 3 4 5 6 
#
# 1 0.010706 -0.003439 0.004776 0.000000 0.000000 0.000000
# 2 -0.003439 0.005159 -0.003504 0.000000 0.000000 0.000000
# 3 0.004776 -0.003504 0.023960 0.000000 0.000000 0.000000
# 4 0.000000 0.000000 0.000000 -0.025323 0.000000 0.000000
# 5 0.000000 0.000000 0.000000 0.000000 0.023848 0.000000
# 6 0.000000 0.000000 0.000000 0.000000 0.000000 0.018144
#
#
# Mechanical properties :
#
#
# Convention : Reuss Voigt Hill
#
# Bulk Modulus (GPa) = 28.17636 65.83249 47.00442
# Shear Modulus (GPa) = 68.81576 34.63823 51.72700
#
# Velocity S-wave (km/s) = 5.31251 3.76906 4.60590
# Velocity P-wave (km/s) = 7.01327 6.77793 6.89660
#
# Compressibility (1/GPa) = 0.03549074
#
# Stress axis : x y z
#
# Youngs Moduli (GPa) = 93.40654 193.83542 41.73633
#
# Poissons Ratio (x) = 0.66662 -0.19934
# Poissons Ratio (y) = 0.32123 0.14625
# Poissons Ratio (z) = -0.44612 0.67921
#
# Static dielectric constant tensor:
#      x y z
#    x 1.908370 0.000000 0.000000 
#    y 0.000000 2.097770 0.000000 
#    z 0.000000 0.000000 1.958170 
# 
# From -- ./inp_files/7378.got.cif
#   From: 2010.05.17/outbox.cif.g08.bks.cpg/sg45_4_cif.got.tgz:7378.got - 2010.06.03 19:51:22.
