data_PCOD9376909
_publ_section_title
;
Structure prediction by ZEFSAII (Michael W. Deem and Ramdas Pophale) SiO2 
 PCOD9376909
Probable space group: I B A 2
;
_chemical_formula_sum "Si O2"
_cell_formula_units_Z 44
_cell_length_a 22.265489
_cell_length_b 4.943351
_cell_length_c 16.214525
_cell_angle_alpha 90.000000
_cell_angle_beta 90.000000
_cell_angle_gamma 90.000000
_cell_volume 1784.669973
_symmetry_space_group_name_H-M "I B A 2"
_symmetry_group_IT_number 45
_symmetry_cell_setting 'orthorhombic'
loop_
_space_group_symop_operation_xyz
x,y,z
-x,-y,z
-x,y,1/2+z
x,-y,1/2+z
1/2+x,1/2+y,1/2+z
1/2-x,1/2-y,1/2+z
1/2-x,1/2+y,z
1/2+x,1/2-y,z
loop_
_atom_site_type_symbol
_atom_site_label
_atom_site_fract_x
_atom_site_fract_y
_atom_site_fract_z
Si Si1 0.285687 0.029565 0.191670
Si Si2 0.000000 0.000000 0.694046
Si Si3 0.165769 0.332916 0.347519
Si Si4 0.388299 0.367364 0.991263
Si Si5 0.410190 0.352942 0.330518
Si Si6 0.904373 0.634638 0.100795
O O1 0.286480 0.981178 0.290910
O O2 0.262543 0.313695 0.161662
O O3 0.353214 0.969830 0.163057
O O4 0.956441 0.843410 0.756777
O O5 0.960628 0.214268 0.642780
O O6 0.170677 0.243935 0.442574
O O7 0.112736 0.556460 0.351136
O O8 0.427664 0.490773 0.915165
O O9 0.375505 0.624461 0.047152
O O10 0.417514 0.125072 0.043094
O O11 0.356445 0.557165 0.303055
#
# Coordination Sequence:
#
# PCOD9376909 Si02
#       6
#     8   4   8   8   8   8
#     4  12  26  46  74 105 141 189 248 304 360 435
#     4  12  28  44  76 108 146 196 240 306 356 464
#     4  10  21  47  70  98 133 191 235 299 338 436
#     4  10  22  46  70  98 152 182 237 297 359 450
#     4  10  22  44  71  99 138 191 234 290 350 430
#     4  12  25  46  70 108 148 185 238 299 385 421
#
# _framework density 24.654418
#
# number of rings (size 3 to 8) (size 9 to 14) (size 15 to 20)
#    1.091    0.000    3.636    2.182    2.545    3.636 
#    3.273    5.455    0.000    0.000    0.000    0.000 
#    0.000    0.000    0.000    0.000    0.000    0.000 
#
# Total GULP energy -122824.982179 kJ/mol
# GULP energy per Si atom -5582.953735 kJ/mol
# Density = 2.459830 g / cm^3
# Si number density = 24.654418 Si / 1000 Ang^3
#
#
#
# Elastic Constant Matrix: (Units=GPa)
#
#
# Indices 1 2 3 4 5 6 
#
# 1 78.5788 23.4958 35.9359 0.0000 0.0000 0.0000
# 2 23.4958 128.2837 34.4085 0.0000 0.0000 0.0000
# 3 35.9359 34.4085 101.5003 0.0000 0.0000 0.0000
# 4 0.0000 0.0000 0.0000 29.1067 0.0000 0.0000
# 5 0.0000 0.0000 0.0000 0.0000 19.4800 0.0000
# 6 0.0000 0.0000 0.0000 0.0000 0.0000 29.7802
#
#
#
# Elastic Compliance Matrix: (Units=1/GPa)
#
#
# Indices 1 2 3 4 5 6 
#
# 1 0.015442 -0.001498 -0.004959 0.000000 0.000000 0.000000
# 2 -0.001498 0.008720 -0.002426 0.000000 0.000000 0.000000
# 3 -0.004959 -0.002426 0.012430 0.000000 0.000000 0.000000
# 4 0.000000 0.000000 0.000000 0.034356 0.000000 0.000000
# 5 0.000000 0.000000 0.000000 0.000000 0.051335 0.000000
# 6 0.000000 0.000000 0.000000 0.000000 0.000000 0.033579
#
#
# Mechanical properties :
#
#
# Convention : Reuss Voigt Hill
#
# Bulk Modulus (GPa) = 53.11732 55.11590 54.11661
# Shear Modulus (GPa) = 27.79246 29.97489 28.88367
#
# Velocity S-wave (km/s) = 3.36114 3.49062 3.42649
# Velocity P-wave (km/s) = 6.05430 6.21690 6.13614
#
# Compressibility (1/GPa) = 0.01882625
#
# Stress axis : x y z
#
# Youngs Moduli (GPa) = 64.75821 114.67570 80.44819
#
# Poissons Ratio (x) = 0.17179 0.39897
# Poissons Ratio (y) = 0.09701 0.19515
# Poissons Ratio (z) = 0.32116 0.27818
#
# Static dielectric constant tensor:
#      x y z
#    x 1.971150 0.000000 0.000000 
#    y 0.000000 1.924610 0.000000 
#    z 0.000000 0.000000 2.025040 
# 
# From -- ./inp_files/7102.got.cif
#   From: 2010.05.17/outbox.cif.g08.bks.cpg/sg45_4_cif.got.tgz:7102.got - 2010.06.03 19:51:22.
