data_PCOD9376651
_publ_section_title
;
Structure prediction by ZEFSAII (Michael W. Deem and Ramdas Pophale) SiO2 
 PCOD9376651
Probable space group: I B A 2
;
_chemical_formula_sum "Si O2"
_cell_formula_units_Z 44
_cell_length_a 18.962274
_cell_length_b 4.856315
_cell_length_c 21.797896
_cell_angle_alpha 90.000000
_cell_angle_beta 90.000000
_cell_angle_gamma 90.000000
_cell_volume 2007.297959
_symmetry_space_group_name_H-M "I B A 2"
_symmetry_group_IT_number 45
_symmetry_cell_setting 'orthorhombic'
loop_
_space_group_symop_operation_xyz
x,y,z
-x,-y,z
-x,y,1/2+z
x,-y,1/2+z
1/2+x,1/2+y,1/2+z
1/2-x,1/2-y,1/2+z
1/2-x,1/2+y,z
1/2+x,1/2-y,z
loop_
_atom_site_type_symbol
_atom_site_label
_atom_site_fract_x
_atom_site_fract_y
_atom_site_fract_z
Si Si1 0.291932 0.213839 0.883650
Si Si2 0.924778 0.652985 0.888480
Si Si3 0.500000 0.500000 0.120995
Si Si4 0.291932 0.786161 0.531945
Si Si5 0.500000 0.000000 0.207798
Si Si6 0.500000 0.500000 0.794601
Si Si7 0.924778 0.347015 0.527116
O O1 0.227452 0.017761 0.862597
O O2 0.364161 0.059125 0.869625
O O3 0.290812 0.225013 0.957798
O O4 0.000000 0.500000 0.892491
O O5 0.908886 0.760352 0.957798
O O6 0.938657 0.885264 0.838405
O O7 0.471880 0.236345 0.160253
O O8 0.438657 0.614736 0.077191
O O9 0.227452 0.982239 0.552998
O O10 0.364161 0.940875 0.545970
O O11 0.528120 0.236345 0.255343
O O12 0.000000 0.500000 0.523104
#
# Coordination Sequence:
#
# PCOD9376651 Si02
#       7
#     8   8   4   8   4   4   8
#     4   9  19  33  49  76 119 162 188 212 270 356
#     4  10  21  35  59  92 125 150 184 240 298 345
#     4  11  21  40  56  86 113 151 192 246 290 343
#     4   9  19  33  49  76 119 162 188 212 270 356
#     4  10  24  38  58  78 116 150 200 240 294 334
#     4  11  21  40  56  86 113 151 192 246 290 343
#     4  10  21  35  59  92 125 150 184 240 298 345
#
# _framework density 21.920013000000001
#
# number of rings (size 3 to 8) (size 9 to 14) (size 15 to 20)
#    0.000    2.182    1.818    0.545    5.091    0.000 
#    0.000    0.000    0.000    0.000    0.000   25.455 
#    0.000    0.000    0.000    0.000    0.000    0.000 
#
# Total GULP energy -122560.941338 kJ/mol
# GULP energy per Si atom -5570.951879 kJ/mol
# Density = 2.187012 g / cm^3
# Si number density = 21.920013 Si / 1000 Ang^3
#
#
#
# Elastic Constant Matrix: (Units=GPa)
#
#
# Indices 1 2 3 4 5 6 
#
# 1 89.5396 18.0733 2.7499 0.0000 0.0000 0.0000
# 2 18.0733 146.6724 37.0030 0.0000 0.0000 0.0000
# 3 2.7499 37.0030 87.2457 0.0000 0.0000 0.0000
# 4 0.0000 0.0000 0.0000 15.4606 0.0000 0.0000
# 5 0.0000 0.0000 0.0000 0.0000 -0.8191 0.0000
# 6 0.0000 0.0000 0.0000 0.0000 0.0000 38.2251
#
#
#
# Elastic Compliance Matrix: (Units=1/GPa)
#
#
# Indices 1 2 3 4 5 6 
#
# 1 0.011459 -0.001479 0.000266 0.000000 0.000000 0.000000
# 2 -0.001479 0.007826 -0.003272 0.000000 0.000000 0.000000
# 3 0.000266 -0.003272 0.012841 0.000000 0.000000 0.000000
# 4 0.000000 0.000000 0.000000 0.064681 0.000000 0.000000
# 5 0.000000 0.000000 0.000000 0.000000 -1.220812 0.000000
# 6 0.000000 0.000000 0.000000 0.000000 0.000000 0.026161
#
#
# Mechanical properties :
#
#
# Convention : Reuss Voigt Hill
#
# Bulk Modulus (GPa) = 43.18727 48.79001 45.98864
# Shear Modulus (GPa) = -4.62468 28.28206 11.82869
#
# Velocity S-wave (km/s) = -1.45409 3.59589 2.32551
# Velocity P-wave (km/s) = 4.11410 6.28865 5.31380
#
# Compressibility (1/GPa) = 0.02315497
#
# Stress axis : x y z
#
# Youngs Moduli (GPa) = 87.27049 127.78304 77.87299
#
# Poissons Ratio (x) = 0.18900 -0.02073
# Poissons Ratio (y) = 0.12908 0.25484
# Poissons Ratio (z) = -0.02323 0.41817
#
# Static dielectric constant tensor:
#      x y z
#    x 1.857110 0.000000 0.000000 
#    y 0.000000 1.874170 0.000000 
#    z 0.000000 0.000000 1.854590 
# 
# From -- ./inp_files/9808.got.cif
#   From: 2010.05.17/outbox.cif.g08.bks.cpg/sg45_5_cif.got.tgz:9808.got - 2010.06.03 19:51:22.
