data_PCOD9376590
_publ_section_title
;
Structure prediction by ZEFSAII (Michael W. Deem and Ramdas Pophale) SiO2 
 PCOD9376590
Probable space group: I B A 2
;
_chemical_formula_sum "Si O2"
_cell_formula_units_Z 60
_cell_length_a 17.683598
_cell_length_b 5.607448
_cell_length_c 27.970544
_cell_angle_alpha 90.000000
_cell_angle_beta 90.000000
_cell_angle_gamma 90.000000
_cell_volume 2773.555122
_symmetry_space_group_name_H-M "I B A 2"
_symmetry_group_IT_number 45
_symmetry_cell_setting 'orthorhombic'
loop_
_space_group_symop_operation_xyz
x,y,z
-x,-y,z
-x,y,1/2+z
x,-y,1/2+z
1/2+x,1/2+y,1/2+z
1/2-x,1/2-y,1/2+z
1/2-x,1/2+y,z
1/2+x,1/2-y,z
loop_
_atom_site_type_symbol
_atom_site_label
_atom_site_fract_x
_atom_site_fract_y
_atom_site_fract_z
Si Si1 0.832939 0.960384 0.152200
Si Si2 0.078341 0.127170 0.364794
Si Si3 0.130882 0.182022 0.951482
Si Si4 0.792566 0.358981 0.369181
Si Si5 0.500000 0.000000 0.430626
Si Si6 0.658464 0.959053 0.189375
Si Si7 0.907594 0.483120 0.794018
Si Si8 0.707043 0.517625 0.041904
O O1 0.748722 0.953591 0.176807
O O2 0.869093 0.705165 0.164847
O O3 0.824053 0.985476 0.095386
O O4 0.870889 0.204082 0.170384
O O5 0.108698 0.218114 0.314638
O O6 0.054807 0.359668 0.395236
O O7 0.122501 0.985240 0.405088
O O8 0.000000 0.000000 0.355070
O O9 0.190740 0.361976 0.926859
O O10 0.051985 0.318180 0.959242
O O11 0.152204 0.039566 0.998055
O O12 0.756145 0.620180 0.359129
O O13 0.865278 0.349603 0.333194
O O14 0.633909 0.976511 0.244219
O O15 0.000000 0.500000 0.791307
O O16 0.735020 0.791302 0.037853
#
# Coordination Sequence:
#
# PCOD9376590 Si02
#       8
#     8   8   8   8   4   8   8   8
#     4  10  20  45  66 102 127 179 221 307 362 419
#     4  10  20  41  65  93 142 192 241 286 343 431
#     4  11  24  39  68  99 147 187 245 293 355 430
#     4  12  27  43  62 102 146 184 233 302 343 418
#     4  10  20  42  62  94 140 196 238 284 350 424
#     4  10  22  39  70  95 133 167 243 283 355 412
#     4  12  25  44  72 103 141 200 242 288 362 444
#     4  12  23  41  73 103 133 184 236 295 371 434
#
# _framework density 21.632884000000001
#
# number of rings (size 3 to 8) (size 9 to 14) (size 15 to 20)
#    0.000    1.067    4.667    2.400    5.600    2.133 
#    0.000    0.000    1.467    0.000    0.000    0.000 
#    0.000    0.000    0.000    0.000    0.000    0.000 
#
# Total GULP energy -167198.844153 kJ/mol
# GULP energy per Si atom -5573.294805 kJ/mol
# Density = 2.158365 g / cm^3
# Si number density = 21.632884 Si / 1000 Ang^3
#
#
#
# Elastic Constant Matrix: (Units=GPa)
#
#
# Indices 1 2 3 4 5 6 
#
# 1 51.2851 9.2890 42.3229 0.0000 0.0000 0.0000
# 2 9.2890 116.0445 19.8300 0.0000 0.0000 0.0000
# 3 42.3229 19.8300 142.0918 0.0000 0.0000 0.0000
# 4 0.0000 0.0000 0.0000 -607.9873 0.0000 0.0000
# 5 0.0000 0.0000 0.0000 0.0000 22.8737 0.0000
# 6 0.0000 0.0000 0.0000 0.0000 0.0000 29.8325
#
#
#
# Elastic Compliance Matrix: (Units=1/GPa)
#
#
# Indices 1 2 3 4 5 6 
#
# 1 0.025922 -0.000774 -0.007613 0.000000 0.000000 0.000000
# 2 -0.000774 0.008851 -0.001005 0.000000 0.000000 0.000000
# 3 -0.007613 -0.001005 0.009445 0.000000 0.000000 0.000000
# 4 0.000000 0.000000 0.000000 -0.001645 0.000000 0.000000
# 5 0.000000 0.000000 0.000000 0.000000 0.043718 0.000000
# 6 0.000000 0.000000 0.000000 0.000000 0.000000 0.033520
#
#
# Mechanical properties :
#
#
# Convention : Reuss Voigt Hill
#
# Bulk Modulus (GPa) = 39.31608 50.25610 44.78609
# Shear Modulus (GPa) = 33.99662 -95.19091 -30.59715
#
# Velocity S-wave (km/s) = 3.96855 -6.64066 -3.76491
# Velocity P-wave (km/s) = 6.26201 5.95954 1.35955
#
# Compressibility (1/GPa) = 0.02543489
#
# Stress axis : x y z
#
# Youngs Moduli (GPa) = 38.57794 112.98126 105.87104
#
# Poissons Ratio (x) = 0.08745 0.80598
# Poissons Ratio (y) = 0.02986 0.10637
# Poissons Ratio (z) = 0.29369 0.11351
#
# Static dielectric constant tensor:
#      x y z
#    x 2.022960 0.000000 0.000000 
#    y 0.000000 2.419490 0.000000 
#    z 0.000000 0.000000 1.746170 
# 
# From -- ./inp_files/9842.got.cif
#   From: 2010.05.17/outbox.cif.g08.bks.cpg/sg45_5_cif.got.tgz:9842.got - 2010.06.03 19:51:22.
