data_PCOD9376405
_publ_section_title
;
Structure prediction by ZEFSAII (Michael W. Deem and Ramdas Pophale) SiO2 
 PCOD9376405
Probable space group: I B A 2
;
_chemical_formula_sum "Si O2"
_cell_formula_units_Z 48
_cell_length_a 28.578974
_cell_length_b 16.283139
_cell_length_c 4.949149
_cell_angle_alpha 90.000000
_cell_angle_beta 90.000000
_cell_angle_gamma 90.000000
_cell_volume 2303.113243
_symmetry_space_group_name_H-M "I B A 2"
_symmetry_group_IT_number 45
_symmetry_cell_setting 'orthorhombic'
loop_
_space_group_symop_operation_xyz
x,y,z
-x,-y,z
-x,y,1/2+z
x,-y,1/2+z
1/2+x,1/2+y,1/2+z
1/2-x,1/2-y,1/2+z
1/2-x,1/2+y,z
1/2+x,1/2-y,z
loop_
_atom_site_type_symbol
_atom_site_label
_atom_site_fract_x
_atom_site_fract_y
_atom_site_fract_z
Si Si1 0.124246 0.729214 0.254630
Si Si2 0.472468 0.712411 0.494196
Si Si3 0.847475 0.446824 0.427348
Si Si4 0.763713 0.053937 0.878261
Si Si5 0.840544 0.820608 0.288019
Si Si6 0.081774 0.055017 0.520259
O O1 0.073690 0.749336 0.127136
O O2 0.126873 0.636535 0.353809
O O3 0.139047 0.788006 0.504937
O O4 0.159319 0.747044 0.005130
O O5 0.484471 0.734757 0.188615
O O6 0.462582 0.614700 0.491297
O O7 0.858235 0.478374 0.725507
O O8 0.791884 0.431756 0.385446
O O9 0.791151 0.133823 0.779924
O O10 0.776098 0.979548 0.674613
O O11 0.875028 0.888887 0.420813
O O12 0.082857 0.976661 0.325152
#
# Coordination Sequence:
#
# PCOD9376405 Si02
#       6
#     8   8   8   8   8   8
#     4  11  23  39  60  85 113 149 191 238 293 347
#     4  11  23  39  57  80 111 148 188 235 290 337
#     4  10  22  40  62  86 113 148 188 235 293 350
#     4  10  20  35  56  84 120 159 194 229 272 325
#     4  11  21  35  56  85 120 156 193 231 274 328
#     4  11  21  34  53  79 113 153 192 226 262 313
#
# _framework density 20.841356000000001
#
# number of rings (size 3 to 8) (size 9 to 14) (size 15 to 20)
#    0.000    1.333    0.000    8.000    0.000    3.333 
#    0.000    0.000    0.000    3.000    0.000    0.000 
#    0.000    0.000    0.000    0.000    0.000    0.000 
#
# Total GULP energy -134101.382394 kJ/mol
# GULP energy per Si atom -5587.557600 kJ/mol
# Density = 2.079392 g / cm^3
# Si number density = 20.841356 Si / 1000 Ang^3
#
#
#
# Elastic Constant Matrix: (Units=GPa)
#
#
# Indices 1 2 3 4 5 6 
#
# 1 20.4228 11.3594 1.8112 0.0000 0.0000 0.0000
# 2 11.3594 47.6392 -9.5859 0.0000 0.0000 0.0000
# 3 1.8112 -9.5859 66.0829 -0.0001 0.0000 -0.0001
# 4 0.0000 0.0000 -0.0001 24.5555 0.0000 0.0000
# 5 0.0000 0.0000 0.0000 0.0000 24.6314 0.0000
# 6 0.0000 0.0000 -0.0001 0.0000 0.0000 21.5044
#
#
#
# Elastic Compliance Matrix: (Units=1/GPa)
#
#
# Indices 1 2 3 4 5 6 
#
# 1 0.057298 -0.014399 -0.003659 0.000000 0.000000 0.000000
# 2 -0.014399 0.025241 0.004056 0.000000 0.000000 0.000000
# 3 -0.003659 0.004056 0.015821 0.000000 0.000000 0.000000
# 4 0.000000 0.000000 0.000000 0.040724 0.000000 0.000000
# 5 0.000000 0.000000 0.000000 0.000000 0.040599 0.000000
# 6 0.000000 0.000000 0.000000 0.000000 0.000000 0.046502
#
#
# Mechanical properties :
#
#
# Convention : Reuss Voigt Hill
#
# Bulk Modulus (GPa) = 14.21338 15.70156 14.95747
# Shear Modulus (GPa) = 18.00892 22.84230 20.42561
#
# Velocity S-wave (km/s) = 2.94274 3.31419 3.13397
# Velocity P-wave (km/s) = 4.28729 4.71120 4.50423
#
# Compressibility (1/GPa) = 0.07035624
#
# Stress axis : x y z
#
# Youngs Moduli (GPa) = 17.45257 39.61874 63.20651
#
# Poissons Ratio (x) = 0.57046 0.23128
# Poissons Ratio (y) = 0.25130 -0.25637
# Poissons Ratio (z) = 0.06386 -0.16069
#
# Static dielectric constant tensor:
#      x y z
#    x 1.777760 0.000000 0.000000 
#    y 0.000000 1.738580 0.000000 
#    z 0.000000 0.000000 1.738700 
# 
# From -- ./inp_files/195.got.cif
#   From: 2010.05.17/outbox.cif.g08.bks.cpg/sg45_1_cif.got.tgz:195.got - 2010.06.03 19:51:22.
