data_PCOD9376061
_publ_section_title
;
Structure prediction by ZEFSAII (Michael W. Deem and Ramdas Pophale) SiO2 
 PCOD9376061
Probable space group: I B A 2
;
_chemical_formula_sum "Si O2"
_cell_formula_units_Z 40
_cell_length_a 17.349103
_cell_length_b 16.925038
_cell_length_c 5.312047
_cell_angle_alpha 90.000000
_cell_angle_beta 90.000000
_cell_angle_gamma 90.000000
_cell_volume 1559.798818
_symmetry_space_group_name_H-M "I B A 2"
_symmetry_group_IT_number 45
_symmetry_cell_setting 'orthorhombic'
loop_
_space_group_symop_operation_xyz
x,y,z
-x,-y,z
-x,y,1/2+z
x,-y,1/2+z
1/2+x,1/2+y,1/2+z
1/2-x,1/2-y,1/2+z
1/2-x,1/2+y,z
1/2+x,1/2-y,z
loop_
_atom_site_type_symbol
_atom_site_label
_atom_site_fract_x
_atom_site_fract_y
_atom_site_fract_z
Si Si1 0.713613 0.780442 0.714040
Si Si2 0.966355 0.910228 0.682360
Si Si3 0.788271 0.947607 0.736750
Si Si4 0.085986 0.467618 0.464249
Si Si5 0.952374 0.285095 0.884487
O O1 0.730341 0.756232 0.427013
O O2 0.730396 0.874025 0.731389
O O3 0.870465 0.749905 0.298037
O O4 0.875996 0.913588 0.727895
O O5 0.989068 0.873186 0.416843
O O6 0.000000 0.000000 0.661694
O O7 0.782329 0.003079 0.493098
O O8 0.123287 0.481885 0.737970
O O9 0.071860 0.378232 0.386906
O O10 0.000000 0.500000 0.511818
O O11 0.016163 0.273682 0.667097
#
# Coordination Sequence:
#
# PCOD9376061 Si02
#       5
#     8   8   8   8   8
#     4  12  30  54  71 105 167 206 238 308 392 464
#     4  10  16  32  61  99 146 171 225 328 358 420
#     4  12  23  43  75 109 140 194 254 301 381 439
#     4  10  16  30  54  99 139 163 217 310 370 385
#     4  12  23  43  75  97 135 192 256 301 343 452
#
# _framework density 25.644331999999999
#
# number of rings (size 3 to 8) (size 9 to 14) (size 15 to 20)
#    0.000    0.800    8.000    2.400    0.000    1.600 
#    0.000    6.000    0.000    0.000    0.000    0.000 
#    0.000    0.000    0.000    0.000    0.000    0.000 
#
# Total GULP energy -112075.217789 kJ/mol
# GULP energy per Si atom -5603.760889 kJ/mol
# Density = 2.558596 g / cm^3
# Si number density = 25.644332 Si / 1000 Ang^3
#
#
#
# Elastic Constant Matrix: (Units=GPa)
#
#
# Indices 1 2 3 4 5 6 
#
# 1 138.0560 3.8934 24.1464 0.0000 0.0000 0.0000
# 2 3.8934 71.7394 10.3060 0.0000 0.0000 0.0000
# 3 24.1464 10.3060 160.5586 0.0000 0.0000 0.0000
# 4 0.0000 0.0000 0.0000 60.1097 0.0000 0.0000
# 5 0.0000 0.0000 0.0000 0.0000 27.8041 0.0000
# 6 0.0000 0.0000 0.0000 0.0000 0.0000 27.4941
#
#
#
# Elastic Compliance Matrix: (Units=1/GPa)
#
#
# Indices 1 2 3 4 5 6 
#
# 1 0.007443 -0.000245 -0.001104 0.000000 0.000000 0.000000
# 2 -0.000245 0.014077 -0.000867 0.000000 0.000000 0.000000
# 3 -0.001104 -0.000867 0.006450 0.000000 0.000000 0.000000
# 4 0.000000 0.000000 0.000000 0.016636 0.000000 0.000000
# 5 0.000000 0.000000 0.000000 0.000000 0.035966 0.000000
# 6 0.000000 0.000000 0.000000 0.000000 0.000000 0.036371
#
#
# Mechanical properties :
#
#
# Convention : Reuss Voigt Hill
#
# Bulk Modulus (GPa) = 42.48284 49.67174 46.07729
# Shear Modulus (GPa) = 38.69315 45.21547 41.95431
#
# Velocity S-wave (km/s) = 3.88859 4.20357 4.04915
# Velocity P-wave (km/s) = 6.06330 6.55527 6.31408
#
# Compressibility (1/GPa) = 0.02353891
#
# Stress axis : x y z
#
# Youngs Moduli (GPa) = 134.34738 71.03703 155.04203
#
# Poissons Ratio (x) = 0.01743 0.17111
# Poissons Ratio (y) = 0.03297 0.13437
# Poissons Ratio (z) = 0.14827 0.06157
#
# Static dielectric constant tensor:
#      x y z
#    x 2.014770 0.000000 0.000000 
#    y 0.000000 -0.302430 0.000000 
#    z 0.000000 0.000000 2.017840 
# 
# From -- ./inp_files/263.got.cif
#   From: 2010.05.17/outbox.cif.g08.bks.cpg/sg45_1_cif.got.tgz:263.got - 2010.06.03 19:51:22.
