data_PCOD9376719
_publ_section_title
;
Structure prediction by ZEFSAII (Michael W. Deem and Ramdas Pophale) SiO2 
 PCOD9376719
Probable space group: I B A 2
;
_chemical_formula_sum "Si O2"
_cell_formula_units_Z 32
_cell_length_a 5.209862
_cell_length_b 19.084062
_cell_length_c 13.146609
_cell_angle_alpha 90.000000
_cell_angle_beta 90.000000
_cell_angle_gamma 90.000000
_cell_volume 1307.105931
_symmetry_space_group_name_H-M "I B A 2"
_symmetry_group_IT_number 45
_symmetry_cell_setting 'orthorhombic'
loop_
_space_group_symop_operation_xyz
x,y,z
-x,-y,z
-x,y,1/2+z
x,-y,1/2+z
1/2+x,1/2+y,1/2+z
1/2-x,1/2-y,1/2+z
1/2-x,1/2+y,z
1/2+x,1/2-y,z
loop_
_atom_site_type_symbol
_atom_site_label
_atom_site_fract_x
_atom_site_fract_y
_atom_site_fract_z
Si Si1 0.753317 0.048450 0.606610
Si Si2 0.743445 0.547229 0.841604
Si Si3 0.088071 0.347306 0.438895
Si Si4 0.942275 0.776554 0.815970
O O1 0.780039 0.069288 0.724288
O O2 0.711387 0.115922 0.535474
O O3 0.500000 0.000000 0.595804
O O4 0.000000 0.000000 0.583640
O O5 0.500000 0.500000 0.868202
O O6 0.000000 0.500000 0.847983
O O7 0.828633 0.611264 0.912047
O O8 0.303193 0.348459 0.347142
O O9 0.008550 0.266416 0.421283
O O10 0.714491 0.732382 0.761859
#
# Coordination Sequence:
#
# PCOD9376719 Si02
#       4
#     8   8   8   8
#     4  10  23  38  57  88 119 153 200 249 304 371
#     4  10  23  38  57  88 119 153 200 249 304 371
#     4  10  21  38  62  80 121 156 196 250 308 356
#     4   8  20  34  56  84 112 150 204 242 288 376
#
# _framework density 24.481567999999999
#
# number of rings (size 3 to 8) (size 9 to 14) (size 15 to 20)
#    1.500    1.000    0.000    0.750    7.000    2.000 
#    0.000    2.500    0.000    0.000    0.000    0.000 
#    0.000    0.000    0.000    0.000    0.000    0.000 
#
# Total GULP energy -89084.599256 kJ/mol
# GULP energy per Si atom -5567.787454 kJ/mol
# Density = 2.442585 g / cm^3
# Si number density = 24.481568 Si / 1000 Ang^3
#
#
#
# Elastic Constant Matrix: (Units=GPa)
#
#
# Indices 1 2 3 4 5 6 
#
# 1 210.1540 14.1450 7.1666 0.0000 0.0000 0.0000
# 2 14.1450 84.2323 6.1006 0.0000 0.0000 0.0000
# 3 7.1666 6.1006 71.5601 0.0001 0.0000 0.0000
# 4 0.0000 0.0000 0.0001 22.2408 0.0000 0.0000
# 5 0.0000 0.0000 0.0000 0.0000 9.9743 0.0000
# 6 0.0000 0.0000 0.0000 0.0000 0.0000 41.5139
#
#
#
# Elastic Compliance Matrix: (Units=1/GPa)
#
#
# Indices 1 2 3 4 5 6 
#
# 1 0.004825 -0.000780 -0.000417 0.000000 0.000000 0.000000
# 2 -0.000780 0.012072 -0.000951 0.000000 0.000000 0.000000
# 3 -0.000417 -0.000951 0.014097 0.000000 0.000000 0.000000
# 4 0.000000 0.000000 0.000000 0.044962 0.000000 0.000000
# 5 0.000000 0.000000 0.000000 0.000000 0.100258 0.000000
# 6 0.000000 0.000000 0.000000 0.000000 0.000000 0.024088
#
#
# Mechanical properties :
#
#
# Convention : Reuss Voigt Hill
#
# Bulk Modulus (GPa) = 37.45548 46.75231 42.10389
# Shear Modulus (GPa) = 23.41943 37.31473 30.36708
#
# Velocity S-wave (km/s) = 3.09627 3.90833 3.52576
# Velocity P-wave (km/s) = 5.30238 6.28531 5.81465
#
# Compressibility (1/GPa) = 0.02669836
#
# Stress axis : x y z
#
# Youngs Moduli (GPa) = 207.24813 82.83762 70.93665
#
# Poissons Ratio (x) = 0.06462 0.02956
# Poissons Ratio (y) = 0.16167 0.06746
# Poissons Ratio (z) = 0.08637 0.07878
#
# Static dielectric constant tensor:
#      x y z
#    x 2.218920 0.000000 0.000000 
#    y 0.000000 2.109000 0.000000 
#    z 0.000000 0.000000 1.926800 
# 
# From -- ./inp_files/5049.got.cif
#   From: 2010.05.17/outbox.cif.g08.bks.cpg/sg45_3_cif.got.tgz:5049.got - 2010.06.03 19:51:22.
