data_PCOD9376523
_publ_section_title
;
Structure prediction by ZEFSAII (Michael W. Deem and Ramdas Pophale) SiO2 
 PCOD9376523
Probable space group: I B A 2
;
_chemical_formula_sum "Si O2"
_cell_formula_units_Z 40
_cell_length_a 20.473050
_cell_length_b 5.676802
_cell_length_c 13.255337
_cell_angle_alpha 90.000000
_cell_angle_beta 90.000000
_cell_angle_gamma 90.000000
_cell_volume 1540.554502
_symmetry_space_group_name_H-M "I B A 2"
_symmetry_group_IT_number 45
_symmetry_cell_setting 'orthorhombic'
loop_
_space_group_symop_operation_xyz
x,y,z
-x,-y,z
-x,y,1/2+z
x,-y,1/2+z
1/2+x,1/2+y,1/2+z
1/2-x,1/2-y,1/2+z
1/2-x,1/2+y,z
1/2+x,1/2-y,z
loop_
_atom_site_type_symbol
_atom_site_label
_atom_site_fract_x
_atom_site_fract_y
_atom_site_fract_z
Si Si1 0.500000 0.500000 0.313051
Si Si2 0.411338 0.391072 0.465928
Si Si3 0.266882 0.684339 0.733562
Si Si4 0.278820 0.852827 0.004316
Si Si5 0.000000 0.500000 0.024595
Si Si6 0.413161 0.272722 0.157695
O O1 0.431594 0.555505 0.372620
O O2 0.471695 0.306359 0.236053
O O3 0.345594 0.245786 0.458445
O O4 0.473765 0.218618 0.462137
O O5 0.410977 0.522603 0.572625
O O6 0.258658 0.426142 0.783245
O O7 0.226862 0.657024 0.627339
O O8 0.342813 0.727002 0.708083
O O9 0.230625 0.629979 0.979605
O O10 0.936445 0.446935 0.091911
#
# Coordination Sequence:
#
# PCOD9376523 Si02
#       6
#     4   8   8   8   4   8
#     4  12  26  46  60 110 146 188 234 310 372 440
#     4  12  24  44  69  99 145 185 242 302 367 448
#     4  10  20  38  70  99 128 183 241 296 364 433
#     4  10  20  38  70  99 128 183 241 296 364 433
#     4  12  22  42  72  98 134 208 238 296 370 456
#     4  12  24  44  69  99 145 185 242 302 367 448
#
# _framework density 25.964677999999999
#
# number of rings (size 3 to 8) (size 9 to 14) (size 15 to 20)
#    0.000    0.800    8.000    2.400    0.000    0.800 
#    0.000    2.000    0.000    0.000    0.000    0.000 
#    0.000    0.000    0.000    0.000    0.000    0.000 
#
# Total GULP energy -111638.434810 kJ/mol
# GULP energy per Si atom -5581.921740 kJ/mol
# Density = 2.590558 g / cm^3
# Si number density = 25.964678 Si / 1000 Ang^3
#
#
#
# Elastic Constant Matrix: (Units=GPa)
#
#
# Indices 1 2 3 4 5 6 
#
# 1 97.8964 29.0518 0.5281 0.0000 0.0000 0.0000
# 2 29.0518 132.7446 1.1909 0.0000 0.0000 0.0000
# 3 0.5281 1.1909 63.0663 0.0000 0.0000 0.0000
# 4 0.0000 0.0000 0.0000 12.8041 0.0000 0.0000
# 5 0.0000 0.0000 0.0000 0.0000 22.8319 0.0000
# 6 0.0000 0.0000 0.0000 0.0000 0.0000 43.3273
#
#
#
# Elastic Compliance Matrix: (Units=1/GPa)
#
#
# Indices 1 2 3 4 5 6 
#
# 1 0.010925 -0.002390 -0.000046 0.000000 0.000000 0.000000
# 2 -0.002390 0.008058 -0.000132 0.000000 0.000000 0.000000
# 3 -0.000046 -0.000132 0.015859 0.000000 0.000000 0.000000
# 4 0.000000 0.000000 0.000000 0.078100 0.000000 0.000000
# 5 0.000000 0.000000 0.000000 0.000000 0.043798 0.000000
# 6 0.000000 0.000000 0.000000 0.000000 0.000000 0.023080
#
#
# Mechanical properties :
#
#
# Convention : Reuss Voigt Hill
#
# Bulk Modulus (GPa) = 33.66614 39.47212 36.56913
# Shear Modulus (GPa) = 25.65961 33.32176 29.49068
#
# Velocity S-wave (km/s) = 3.14706 3.58627 3.37382
# Velocity P-wave (km/s) = 5.11855 5.69067 5.41217
#
# Compressibility (1/GPa) = 0.02970344
#
# Stress axis : x y z
#
# Youngs Moduli (GPa) = 91.53716 124.10616 63.05488
#
# Poissons Ratio (x) = 0.29667 0.00292
# Poissons Ratio (y) = 0.21882 0.00833
# Poissons Ratio (z) = 0.00424 0.01640
#
# Static dielectric constant tensor:
#      x y z
#    x 2.003920 0.000000 0.000000 
#    y 0.000000 2.059240 0.000000 
#    z 0.000000 0.000000 2.112840 
# 
# From -- ./inp_files/5123.got.cif
#   From: 2010.05.17/outbox.cif.g08.bks.cpg/sg45_3_cif.got.tgz:5123.got - 2010.06.03 19:51:22.
