data_PCOD9376242
_publ_section_title
;
Structure prediction by ZEFSAII (Michael W. Deem and Ramdas Pophale) SiO2 
 PCOD9376242
Probable space group: I B A 2
;
_chemical_formula_sum "Si O2"
_cell_formula_units_Z 48
_cell_length_a 13.286538
_cell_length_b 11.299630
_cell_length_c 13.808491
_cell_angle_alpha 90.000000
_cell_angle_beta 90.000000
_cell_angle_gamma 90.000000
_cell_volume 2073.109674
_symmetry_space_group_name_H-M "I B A 2"
_symmetry_group_IT_number 45
_symmetry_cell_setting 'orthorhombic'
loop_
_space_group_symop_operation_xyz
x,y,z
-x,-y,z
-x,y,1/2+z
x,-y,1/2+z
1/2+x,1/2+y,1/2+z
1/2-x,1/2-y,1/2+z
1/2-x,1/2+y,z
1/2+x,1/2-y,z
loop_
_atom_site_type_symbol
_atom_site_label
_atom_site_fract_x
_atom_site_fract_y
_atom_site_fract_z
Si Si1 0.590633 0.416573 0.774320
Si Si2 0.020711 0.866375 0.486420
Si Si3 0.763417 0.133584 0.802312
Si Si4 0.402568 0.830955 0.667376
Si Si5 0.704481 0.720740 0.011940
Si Si6 0.128003 0.708913 0.640655
O O1 0.500000 0.500000 0.739584
O O2 0.557861 0.361401 0.876722
O O3 0.679168 0.508196 0.800392
O O4 0.602215 0.308349 0.700824
O O5 0.096719 0.806238 0.559934
O O6 0.910392 0.813687 0.491678
O O7 0.000000 0.000000 0.512837
O O8 0.655540 0.107292 0.754396
O O9 0.828533 0.224619 0.734935
O O10 0.750866 0.198670 0.905218
O O11 0.326095 0.838309 0.575152
O O12 0.521220 0.857179 0.655958
O O13 0.778532 0.648495 0.084770
#
# Coordination Sequence:
#
# PCOD9376242 Si02
#       6
#     8   8   8   8   8   8
#     4  11  19  35  62  90 125 161 207 263 301 366
#     4  10  19  33  57  90 121 150 202 262 296 354
#     4  11  21  35  56  89 121 165 210 254 322 363
#     4  10  22  35  55  89 123 161 208 261 307 375
#     4  10  20  34  52  84 121 154 202 254 314 363
#     4  10  21  34  56  83 122 163 197 259 311 371
#
# _framework density 23.153621000000001
#
# number of rings (size 3 to 8) (size 9 to 14) (size 15 to 20)
#    0.000    1.667    5.000    1.000    4.667    1.333 
#    0.000    0.000    0.000    4.000    0.000    4.667 
#    0.000    0.000    0.000    0.000    0.000    0.000 
#
# Total GULP energy -133721.452404 kJ/mol
# GULP energy per Si atom -5571.727184 kJ/mol
# Density = 2.310092 g / cm^3
# Si number density = 23.153621 Si / 1000 Ang^3
#
#
#
# Elastic Constant Matrix: (Units=GPa)
#
#
# Indices 1 2 3 4 5 6 
#
# 1 151.5364 -1.0103 42.5509 0.0000 0.0000 0.0000
# 2 -1.0103 32.7672 3.0440 0.0000 0.0000 0.0000
# 3 42.5509 3.0440 151.2052 0.0000 0.0000 0.0000
# 4 0.0000 0.0000 0.0000 16.3653 0.0000 0.0000
# 5 0.0000 0.0000 0.0000 0.0000 52.2884 0.0000
# 6 0.0000 0.0000 0.0000 0.0000 0.0000 12.3519
#
#
#
# Elastic Compliance Matrix: (Units=1/GPa)
#
#
# Indices 1 2 3 4 5 6 
#
# 1 0.007171 0.000409 -0.002026 0.000000 0.000000 0.000000
# 2 0.000409 0.030599 -0.000731 0.000000 0.000000 0.000000
# 3 -0.002026 -0.000731 0.007198 0.000000 0.000000 0.000000
# 4 0.000000 0.000000 0.000000 0.061105 0.000000 0.000000
# 5 0.000000 0.000000 0.000000 0.000000 0.019125 0.000000
# 6 0.000000 0.000000 0.000000 0.000000 0.000000 0.080959
#
#
# Mechanical properties :
#
#
# Convention : Reuss Voigt Hill
#
# Bulk Modulus (GPa) = 24.83115 47.18643 36.00879
# Shear Modulus (GPa) = 22.29387 35.59607 28.94497
#
# Velocity S-wave (km/s) = 3.10638 3.92521 3.53955
# Velocity P-wave (km/s) = 4.85941 6.40054 5.68247
#
# Compressibility (1/GPa) = 0.04027199
#
# Stress axis : x y z
#
# Youngs Moduli (GPa) = 139.45555 32.68093 138.91912
#
# Poissons Ratio (x) = -0.01338 0.28147
# Poissons Ratio (y) = -0.05708 0.10158
# Poissons Ratio (z) = 0.28256 0.02390
#
# Static dielectric constant tensor:
#      x y z
#    x 1.944970 0.000000 0.000000 
#    y 0.000000 1.918380 0.000000 
#    z 0.000000 0.000000 1.943380 
# 
# From -- ./inp_files/6095.got.cif
#   From: 2010.05.17/outbox.cif.g08.bks.cpg/sg45_4_cif.got.tgz:6095.got - 2010.06.03 19:51:22.
