data_PCOD9376830
_publ_section_title
;
Structure prediction by ZEFSAII (Michael W. Deem and Ramdas Pophale) SiO2 
 PCOD9376830
Probable space group: I B A 2
;
_chemical_formula_sum "Si O2"
_cell_formula_units_Z 56
_cell_length_a 17.279764
_cell_length_b 7.983569
_cell_length_c 15.940453
_cell_angle_alpha 90.000000
_cell_angle_beta 90.000000
_cell_angle_gamma 90.000000
_cell_volume 2199.052253
_symmetry_space_group_name_H-M "I B A 2"
_symmetry_group_IT_number 45
_symmetry_cell_setting 'orthorhombic'
loop_
_space_group_symop_operation_xyz
x,y,z
-x,-y,z
-x,y,1/2+z
x,-y,1/2+z
1/2+x,1/2+y,1/2+z
1/2-x,1/2-y,1/2+z
1/2-x,1/2+y,z
1/2+x,1/2-y,z
loop_
_atom_site_type_symbol
_atom_site_label
_atom_site_fract_x
_atom_site_fract_y
_atom_site_fract_z
Si Si1 0.500000 0.000000 0.876670
Si Si2 0.779582 0.280423 0.565849
Si Si3 0.789963 0.763728 0.750075
Si Si4 0.850253 0.039948 0.988014
Si Si5 0.436927 0.141818 0.639122
Si Si6 0.643092 0.917937 0.814535
Si Si7 0.500000 0.500000 0.087401
Si Si8 0.930139 0.872822 0.829633
O O1 0.412974 0.074402 0.894858
O O2 0.536796 0.186243 0.849073
O O3 0.737643 0.272692 0.655239
O O4 0.810480 0.097949 0.546606
O O5 0.718361 0.326028 0.493447
O O6 0.859423 0.382402 0.582858
O O7 0.715847 0.799116 0.808180
O O8 0.818370 0.589151 0.785497
O O9 0.868464 0.872048 0.754499
O O10 0.932035 0.080612 0.030507
O O11 0.876134 0.945513 0.904053
O O12 0.414559 0.118084 0.736431
O O13 0.466567 0.333033 0.631229
O O14 0.500000 0.000000 0.616972
O O15 0.000000 0.000000 0.817591
#
# Coordination Sequence:
#
# PCOD9376830 Si02
#       8
#     4   8   8   8   8   8   4   8
#     4  10  24  46  70 102 148 182 252 306 366 456
#     4  10  23  43  69 107 142 191 247 311 369 448
#     4  10  23  42  73 107 149 190 252 307 382 448
#     4  11  24  47  69 108 146 192 252 303 374 455
#     4  10  21  41  68 101 144 187 234 299 369 438
#     4  10  21  41  66 110 142 185 243 302 374 447
#     4  10  24  40  66 100 144 184 244 300 362 444
#     4  11  26  51  73 108 145 200 248 311 382 459
#
# _framework density 25.465517999999999
#
# number of rings (size 3 to 8) (size 9 to 14) (size 15 to 20)
#    0.000    1.714    1.429    1.714    6.000    2.286 
#   10.286    0.000    0.000    0.000    0.000    0.000 
#    0.000    0.000    0.000    0.000    0.000    0.000 
#
# Total GULP energy -156145.817442 kJ/mol
# GULP energy per Si atom -5576.636337 kJ/mol
# Density = 2.540756 g / cm^3
# Si number density = 25.465518 Si / 1000 Ang^3
#
#
#
# Elastic Constant Matrix: (Units=GPa)
#
#
# Indices 1 2 3 4 5 6 
#
# 1 160.9733 59.0509 59.9167 0.0000 0.0000 0.0000
# 2 59.0509 76.2769 26.3713 0.0000 0.0000 0.0000
# 3 59.9167 26.3713 65.8369 0.0000 0.0000 0.0000
# 4 0.0000 0.0000 0.0000 15.7811 0.0000 0.0000
# 5 0.0000 0.0000 0.0000 0.0000 58.1134 0.0000
# 6 0.0000 0.0000 0.0000 0.0000 0.0000 37.0027
#
#
#
# Elastic Compliance Matrix: (Units=1/GPa)
#
#
# Indices 1 2 3 4 5 6 
#
# 1 0.011396 -0.006079 -0.007937 0.000000 0.000000 0.000000
# 2 -0.006079 0.018460 -0.001862 0.000000 0.000000 0.000000
# 3 -0.007937 -0.001862 0.023158 0.000000 0.000000 0.000000
# 4 0.000000 0.000000 0.000000 0.063367 0.000000 0.000000
# 5 0.000000 0.000000 0.000000 0.000000 0.017208 0.000000
# 6 0.000000 0.000000 0.000000 0.000000 0.000000 0.027025
#
#
# Mechanical properties :
#
#
# Convention : Reuss Voigt Hill
#
# Bulk Modulus (GPa) = 47.03864 65.97388 56.50626
# Shear Modulus (GPa) = 25.06834 32.69598 28.88216
#
# Velocity S-wave (km/s) = 3.14092 3.58709 3.37139
# Velocity P-wave (km/s) = 5.62721 6.56655 6.11495
#
# Compressibility (1/GPa) = 0.02125912
#
# Stress axis : x y z
#
# Youngs Moduli (GPa) = 87.74866 54.17190 43.18180
#
# Poissons Ratio (x) = 0.32929 0.34272
# Poissons Ratio (y) = 0.53339 0.08041
# Poissons Ratio (z) = 0.69643 0.10088
#
# Static dielectric constant tensor:
#      x y z
#    x 1.990890 0.000000 0.000000 
#    y 0.000000 2.099640 0.000000 
#    z 0.000000 0.000000 2.155760 
# 
# From -- ./inp_files/9199.got.cif
#   From: 2010.05.17/outbox.cif.g08.bks.cpg/sg45_5_cif.got.tgz:9199.got - 2010.06.03 19:51:22.
