data_PCOD9376915
_publ_section_title
;
Structure prediction by ZEFSAII (Michael W. Deem and Ramdas Pophale) SiO2 
 PCOD9376915
Probable space group: I B A 2
;
_chemical_formula_sum "Si O2"
_cell_formula_units_Z 52
_cell_length_a 12.646478
_cell_length_b 19.937668
_cell_length_c 8.293014
_cell_angle_alpha 90.000000
_cell_angle_beta 90.000000
_cell_angle_gamma 90.000000
_cell_volume 2091.011163
_symmetry_space_group_name_H-M "I B A 2"
_symmetry_group_IT_number 45
_symmetry_cell_setting 'orthorhombic'
loop_
_space_group_symop_operation_xyz
x,y,z
-x,-y,z
-x,y,1/2+z
x,-y,1/2+z
1/2+x,1/2+y,1/2+z
1/2-x,1/2-y,1/2+z
1/2-x,1/2+y,z
1/2+x,1/2-y,z
loop_
_atom_site_type_symbol
_atom_site_label
_atom_site_fract_x
_atom_site_fract_y
_atom_site_fract_z
Si Si1 0.962142 0.211244 0.540300
Si Si2 0.779159 0.155464 0.329472
Si Si3 0.774810 0.048747 0.074133
Si Si4 0.147120 0.154160 0.357523
Si Si5 0.645917 0.927392 0.038252
Si Si6 0.000000 0.500000 0.281344
Si Si7 0.651875 0.833630 0.526229
O O1 0.882534 0.189312 0.397779
O O2 0.912123 0.174270 0.695463
O O3 0.953601 0.292065 0.535171
O O4 0.078309 0.188538 0.497885
O O5 0.809675 0.084811 0.239274
O O6 0.696424 0.140985 0.473776
O O7 0.715355 0.190882 0.185579
O O8 0.659658 0.086237 0.044706
O O9 0.843317 0.077498 0.925244
O O10 0.750003 0.971755 0.080313
O O11 0.268923 0.178021 0.376177
O O12 0.585081 0.959712 0.886654
O O13 0.565310 0.943310 0.181987
#
# Coordination Sequence:
#
# PCOD9376915 Si02
#       7
#     8   8   8   8   8   4   8
#     4  12  19  39  61  85 121 161 200 250 314 354
#     4   9  21  35  61  84 119 162 199 250 306 361
#     4   8  20  39  56  84 122 153 200 247 307 354
#     4   9  22  34  61  87 114 159 197 253 298 364
#     4  11  19  40  57  89 122 160 198 258 299 364
#     4  10  22  32  64  82 122 160 200 244 300 352
#     4   8  20  40  57  87 119 158 203 251 298 364
#
# _framework density 24.868352000000002
#
# number of rings (size 3 to 8) (size 9 to 14) (size 15 to 20)
#    1.846    0.308    1.538    2.769    2.154    0.000 
#    0.000   11.538    0.000    5.538    0.000    0.000 
#    0.000    0.000    0.000    0.000    0.000    0.000 
#
# Total GULP energy -144847.927847 kJ/mol
# GULP energy per Si atom -5571.074148 kJ/mol
# Density = 2.481175 g / cm^3
# Si number density = 24.868352 Si / 1000 Ang^3
#
#
#
# Elastic Constant Matrix: (Units=GPa)
#
#
# Indices 1 2 3 4 5 6 
#
# 1 44.9970 -0.9964 -10.4510 -0.0001 0.0000 0.0000
# 2 -0.9964 6.7909 -11.0670 0.0000 0.0000 0.0000
# 3 -10.4510 -11.0670 85.2449 -0.0004 -0.0002 0.0000
# 4 -0.0001 0.0000 -0.0004 -2.5073 -0.0001 0.0000
# 5 0.0000 0.0000 -0.0002 -0.0001 21.2940 0.0000
# 6 0.0000 0.0000 0.0000 0.0000 0.0000 24.3073
#
#
#
# Elastic Compliance Matrix: (Units=1/GPa)
#
#
# Indices 1 2 3 4 5 6 
#
# 1 0.023429 0.010298 0.004209 -0.000001 0.000000 0.000000
# 2 0.010298 0.191297 0.026098 -0.000005 0.000000 0.000000
# 3 0.004209 0.026098 0.015635 -0.000003 0.000000 0.000000
# 4 -0.000001 -0.000005 -0.000003 -0.398831 -0.000001 0.000000
# 5 0.000000 0.000000 0.000000 -0.000001 0.046962 0.000000
# 6 0.000000 0.000000 0.000000 0.000000 0.000000 0.041140
#
#
# Mechanical properties :
#
#
# Convention : Reuss Voigt Hill
#
# Bulk Modulus (GPa) = 3.20955 10.22267 6.71611
# Shear Modulus (GPa) = -86.62428 19.25528 -33.68450
#
# Velocity S-wave (km/s) = -5.90836 2.78562 -3.68436
# Velocity P-wave (km/s) = 6.72693 3.80341 3.92337
#
# Compressibility (1/GPa) = 0.31157054
#
# Stress axis : x y z
#
# Youngs Moduli (GPa) = 42.68145 5.22748 63.95851
#
# Poissons Ratio (x) = -0.05383 -0.26922
# Poissons Ratio (y) = -0.43952 -1.66917
# Poissons Ratio (z) = -0.17966 -0.13643
#
# Static dielectric constant tensor:
#      x y z
#    x 1.953830 0.000000 0.000000 
#    y 0.000000 2.143930 0.000000 
#    z 0.000000 0.000000 2.062130 
# 
# From -- ./inp_files/1869.got.cif
#   From: 2010.05.17/outbox.cif.g08.bks.cpg/sg45_1_cif.got.tgz:1869.got - 2010.06.03 19:51:22.
