data_PCOD9376431
_publ_section_title
;
Structure prediction by ZEFSAII (Michael W. Deem and Ramdas Pophale) SiO2 
 PCOD9376431
Probable space group: I B A 2
;
_chemical_formula_sum "Si O2"
_cell_formula_units_Z 40
_cell_length_a 8.862078
_cell_length_b 14.336252
_cell_length_c 11.948815
_cell_angle_alpha 90.000000
_cell_angle_beta 90.000000
_cell_angle_gamma 90.000000
_cell_volume 1518.084799
_symmetry_space_group_name_H-M "I B A 2"
_symmetry_group_IT_number 45
_symmetry_cell_setting 'orthorhombic'
loop_
_space_group_symop_operation_xyz
x,y,z
-x,-y,z
-x,y,1/2+z
x,-y,1/2+z
1/2+x,1/2+y,1/2+z
1/2-x,1/2-y,1/2+z
1/2-x,1/2+y,z
1/2+x,1/2-y,z
loop_
_atom_site_type_symbol
_atom_site_label
_atom_site_fract_x
_atom_site_fract_y
_atom_site_fract_z
Si Si1 0.557120 0.601773 0.343120
Si Si2 0.492078 0.183602 0.031528
Si Si3 0.744352 0.537036 0.522070
Si Si4 0.638572 0.065302 0.226664
Si Si5 0.292969 0.328765 0.938280
O O1 0.500000 0.500000 0.304325
O O2 0.597991 0.589882 0.476670
O O3 0.723352 0.614474 0.292039
O O4 0.412130 0.669194 0.336389
O O5 0.390047 0.097454 0.990496
O O6 0.565387 0.143849 0.145060
O O7 0.376519 0.269225 0.034965
O O8 0.622740 0.207090 0.941637
O O9 0.771480 0.509818 0.649292
O O10 0.735163 0.437479 0.462197
O O11 0.500000 0.000000 0.272501
#
# Coordination Sequence:
#
# PCOD9376431 Si02
#       5
#     8   8   8   8   8
#     4  10  21  36  61  95 125 167 220 266 316 382
#     4  10  20  39  63  88 125 169 211 262 322 380
#     4   9  20  40  63  86 120 167 215 267 320 372
#     4   9  20  37  61  92 122 167 221 266 318 380
#     4  10  20  36  59  89 123 164 208 255 316 376
#
# _framework density 26.348989
#
# number of rings (size 3 to 8) (size 9 to 14) (size 15 to 20)
#    0.000    2.400    0.000    3.000    0.000    9.600 
#    0.000    8.000    0.000   16.800    0.000   33.600 
#    0.000    0.000    0.000    0.000    0.000    0.000 
#
# Total GULP energy -111410.095600 kJ/mol
# GULP energy per Si atom -5570.504780 kJ/mol
# Density = 2.628902 g / cm^3
# Si number density = 26.348989 Si / 1000 Ang^3
#
#
#
# Elastic Constant Matrix: (Units=GPa)
#
#
# Indices 1 2 3 4 5 6 
#
# 1 192.1900 59.4407 48.4638 0.0000 0.0000 0.0000
# 2 59.4407 122.6756 10.8145 0.0000 0.0000 0.0000
# 3 48.4638 10.8145 42.5112 0.0000 0.0000 0.0000
# 4 0.0000 0.0000 0.0000 14.0526 0.0000 0.0000
# 5 0.0000 0.0000 0.0000 0.0000 -13.8855 0.0001
# 6 0.0000 0.0000 0.0000 0.0000 0.0001 58.3006
#
#
#
# Elastic Compliance Matrix: (Units=1/GPa)
#
#
# Indices 1 2 3 4 5 6 
#
# 1 0.008444 -0.003317 -0.008782 0.000000 0.000000 0.000000
# 2 -0.003317 0.009642 0.001329 0.000000 0.000000 0.000000
# 3 -0.008782 0.001329 0.033197 0.000000 0.000000 0.000000
# 4 0.000000 0.000000 0.000000 0.071161 0.000000 0.000000
# 5 0.000000 0.000000 0.000000 0.000000 -0.072017 0.000000
# 6 0.000000 0.000000 0.000000 0.000000 0.000000 0.017152
#
#
# Mechanical properties :
#
#
# Convention : Reuss Voigt Hill
#
# Bulk Modulus (GPa) = 33.62303 66.09054 49.85678
# Shear Modulus (GPa) = 50.48804 27.60406 39.04605
#
# Velocity S-wave (km/s) = 4.38211 3.24023 3.85370
# Velocity P-wave (km/s) = 6.19614 6.25588 6.22608
#
# Compressibility (1/GPa) = 0.02974152
#
# Stress axis : x y z
#
# Youngs Moduli (GPa) = 118.43229 103.71650 30.12315
#
# Poissons Ratio (x) = 0.34403 0.26455
# Poissons Ratio (y) = 0.39285 -0.04003
# Poissons Ratio (z) = 1.04009 -0.13781
#
# Static dielectric constant tensor:
#      x y z
#    x 2.139440 0.000000 0.000000 
#    y 0.000000 2.050220 0.000000 
#    z 0.000000 0.000000 2.210100 
# 
# From -- ./inp_files/5462.got.cif
#   From: 2010.05.17/outbox.cif.g08.bks.cpg/sg45_3_cif.got.tgz:5462.got - 2010.06.03 19:51:22.
