data_PCOD9376244
_publ_section_title
;
Structure prediction by ZEFSAII (Michael W. Deem and Ramdas Pophale) SiO2 
 PCOD9376244
Probable space group: I B A 2
;
_chemical_formula_sum "Si O2"
_cell_formula_units_Z 60
_cell_length_a 25.149902
_cell_length_b 8.244863
_cell_length_c 16.988971
_cell_angle_alpha 90.000000
_cell_angle_beta 90.000000
_cell_angle_gamma 90.000000
_cell_volume 3522.790494
_symmetry_space_group_name_H-M "I B A 2"
_symmetry_group_IT_number 45
_symmetry_cell_setting 'orthorhombic'
loop_
_space_group_symop_operation_xyz
x,y,z
-x,-y,z
-x,y,1/2+z
x,-y,1/2+z
1/2+x,1/2+y,1/2+z
1/2-x,1/2-y,1/2+z
1/2-x,1/2+y,z
1/2+x,1/2-y,z
loop_
_atom_site_type_symbol
_atom_site_label
_atom_site_fract_x
_atom_site_fract_y
_atom_site_fract_z
Si Si1 0.500000 0.500000 0.195890
Si Si2 0.181008 0.198484 0.875618
Si Si3 0.404533 0.546409 0.310328
Si Si4 0.678068 0.279044 0.208011
Si Si5 0.876387 0.177020 0.540957
Si Si6 0.446443 0.392273 0.980217
Si Si7 0.768091 0.491692 0.290135
Si Si8 0.488369 0.183165 0.584178
O O1 0.449778 0.485407 0.252459
O O2 0.506035 0.334725 0.145163
O O3 0.193805 0.370071 0.836661
O O4 0.133872 0.101917 0.832466
O O5 0.234171 0.094380 0.854716
O O6 0.160978 0.209733 0.965421
O O7 0.371143 0.679427 0.264057
O O8 0.426553 0.619003 0.391373
O O9 0.658270 0.307430 0.119710
O O10 0.725438 0.396369 0.236775
O O11 0.699082 0.103190 0.230845
O O12 0.928517 0.293458 0.549343
O O13 0.902777 0.997593 0.528381
O O14 0.500000 0.500000 0.978657
O O15 0.466148 0.227276 0.019947
O O16 0.500000 0.000000 0.612937
#
# Coordination Sequence:
#
# PCOD9376244 Si02
#       8
#     4   8   8   8   8   8   8   8
#     4  12  20  38  58  82 124 150 190 240 282 348
#     4   9  20  36  58  81 110 149 189 233 294 347
#     4  10  19  33  60  82 108 156 185 223 294 339
#     4  10  19  35  55  79 107 142 185 235 287 330
#     4  10  19  35  57  79 110 149 187 235 288 345
#     4   9  17  35  55  77 111 151 187 224 276 341
#     4   9  20  37  54  78 111 142 187 242 283 342
#     4  11  22  36  55  82 118 154 192 237 285 335
#
# _framework density 17.031953000000001
#
# number of rings (size 3 to 8) (size 9 to 14) (size 15 to 20)
#    0.000    2.133    4.000    0.000    0.000    3.200 
#    0.000    2.000    0.000    0.000    0.000    0.000 
#    0.000    0.000    0.000    0.000    0.000    0.000 
#
# Total GULP energy -167076.997599 kJ/mol
# GULP energy per Si atom -5569.233253 kJ/mol
# Density = 1.699319 g / cm^3
# Si number density = 17.031953 Si / 1000 Ang^3
#
#
#
# Elastic Constant Matrix: (Units=GPa)
#
#
# Indices 1 2 3 4 5 6 
#
# 1 74.9280 24.2364 59.9306 0.0000 0.0000 0.0000
# 2 24.2364 77.7595 49.1547 0.0000 0.0000 0.0000
# 3 59.9306 49.1547 132.4505 0.0000 0.0000 0.0000
# 4 0.0000 0.0000 0.0000 -4.9082 0.0000 0.0000
# 5 0.0000 0.0000 0.0000 0.0000 31.4714 0.0000
# 6 0.0000 0.0000 0.0000 0.0000 0.0000 3.1843
#
#
#
# Elastic Compliance Matrix: (Units=1/GPa)
#
#
# Indices 1 2 3 4 5 6 
#
# 1 0.020945 -0.000702 -0.009217 0.000000 0.000000 0.000000
# 2 -0.000702 0.016825 -0.005926 0.000000 0.000000 0.000000
# 3 -0.009217 -0.005926 0.013920 0.000000 0.000000 0.000000
# 4 0.000000 0.000000 0.000000 -0.203740 0.000000 0.000000
# 5 0.000000 0.000000 0.000000 0.000000 0.031775 0.000000
# 6 0.000000 0.000000 0.000000 0.000000 0.000000 0.314040
#
#
# Mechanical properties :
#
#
# Convention : Reuss Voigt Hill
#
# Bulk Modulus (GPa) = 50.00059 61.30905 55.65482
# Shear Modulus (GPa) = 21.54043 16.07060 18.80551
#
# Velocity S-wave (km/s) = 3.56013 3.07507 3.32645
# Velocity P-wave (km/s) = 6.80588 6.97730 6.89212
#
# Compressibility (1/GPa) = 0.01999976
#
# Stress axis : x y z
#
# Youngs Moduli (GPa) = 47.74401 59.43412 71.84070
#
# Poissons Ratio (x) = 0.04173 0.66212
# Poissons Ratio (y) = 0.03352 0.42576
# Poissons Ratio (z) = 0.44004 0.35224
#
# Static dielectric constant tensor:
#      x y z
#    x 1.600500 0.000000 0.000000 
#    y 0.000000 1.582600 0.000000 
#    z 0.000000 0.000000 1.577700 
# 
# From -- ./inp_files/7134.got.cif
#   From: 2010.05.17/outbox.cif.g08.bks.cpg/sg45_4_cif.got.tgz:7134.got - 2010.06.03 19:51:22.
