data_PCOD9376154
_publ_section_title
;
Structure prediction by ZEFSAII (Michael W. Deem and Ramdas Pophale) SiO2 
 PCOD9376154
Probable space group: I B A 2
;
_chemical_formula_sum "Si O2"
_cell_formula_units_Z 52
_cell_length_a 8.978800
_cell_length_b 13.622971
_cell_length_c 18.475782
_cell_angle_alpha 90.000000
_cell_angle_beta 90.000000
_cell_angle_gamma 90.000000
_cell_volume 2259.919447
_symmetry_space_group_name_H-M "I B A 2"
_symmetry_group_IT_number 45
_symmetry_cell_setting 'orthorhombic'
loop_
_space_group_symop_operation_xyz
x,y,z
-x,-y,z
-x,y,1/2+z
x,-y,1/2+z
1/2+x,1/2+y,1/2+z
1/2-x,1/2-y,1/2+z
1/2-x,1/2+y,z
1/2+x,1/2-y,z
loop_
_atom_site_type_symbol
_atom_site_label
_atom_site_fract_x
_atom_site_fract_y
_atom_site_fract_z
Si Si1 0.981848 0.809885 0.615820
Si Si2 0.695439 0.310371 0.753937
Si Si3 0.291513 0.860220 0.656299
Si Si4 0.074307 0.323363 0.876169
Si Si5 0.618155 0.318114 0.456700
Si Si6 0.692211 0.998526 0.283299
Si Si7 0.000000 0.000000 0.870415
O O1 0.905406 0.853951 0.688548
O O2 0.942489 0.693126 0.629012
O O3 0.148907 0.850842 0.604372
O O4 0.894250 0.829549 0.542316
O O5 0.768850 0.215208 0.718064
O O6 0.600250 0.264108 0.818109
O O7 0.822003 0.384238 0.779010
O O8 0.316973 0.958211 0.701217
O O9 0.214212 0.327002 0.930250
O O10 0.938706 0.286972 0.925736
O O11 0.096130 0.424977 0.832405
O O12 0.519124 0.404637 0.420920
O O13 0.856880 0.996079 0.318464
#
# Coordination Sequence:
#
# PCOD9376154 Si02
#       7
#     8   8   8   8   8   8   4
#     4  10  21  38  58  84 119 153 192 250 296 355
#     4   9  20  35  60  86 112 146 209 239 287 355
#     4   9  21  34  59  83 113 151 194 243 300 338
#     4  10  22  36  62  86 119 159 192 255 299 366
#     4  11  22  39  59  87 124 157 199 245 315 358
#     4  10  18  35  59  88 115 149 200 251 289 345
#     4  10  20  32  62  88 116 152 204 250 286 358
#
# _framework density 23.00967
#
# number of rings (size 3 to 8) (size 9 to 14) (size 15 to 20)
#    0.923    1.231    1.538    1.846    4.308    1.231 
#    0.000    3.077    0.000    1.846    0.000    0.000 
#    0.000    0.000    0.000    0.000    0.000    0.000 
#
# Total GULP energy -144825.898789 kJ/mol
# GULP energy per Si atom -5570.226877 kJ/mol
# Density = 2.295730 g / cm^3
# Si number density = 23.009670 Si / 1000 Ang^3
#
#
#
# Elastic Constant Matrix: (Units=GPa)
#
#
# Indices 1 2 3 4 5 6 
#
# 1 52.2876 -6.9180 -4.1986 0.0000 0.0000 0.0000
# 2 -6.9180 76.5774 -1.2498 0.0000 0.0000 0.0000
# 3 -4.1986 -1.2498 91.5802 0.0000 0.0000 0.0000
# 4 0.0000 0.0000 0.0000 12.1481 0.0000 0.0000
# 5 0.0000 0.0000 0.0000 0.0000 15.2748 0.0000
# 6 0.0000 0.0000 0.0000 0.0000 0.0000 28.8667
#
#
#
# Elastic Compliance Matrix: (Units=1/GPa)
#
#
# Indices 1 2 3 4 5 6 
#
# 1 0.019433 0.001770 0.000915 0.000000 0.000000 0.000000
# 2 0.001770 0.013223 0.000262 0.000000 0.000000 0.000000
# 3 0.000915 0.000262 0.010965 0.000000 0.000000 0.000000
# 4 0.000000 0.000000 0.000000 0.082317 0.000000 0.000000
# 5 0.000000 0.000000 0.000000 0.000000 0.065467 0.000000
# 6 0.000000 0.000000 0.000000 0.000000 0.000000 0.034642
#
#
# Mechanical properties :
#
#
# Convention : Reuss Voigt Hill
#
# Bulk Modulus (GPa) = 20.19595 21.74583 20.97089
# Shear Modulus (GPa) = 21.12760 26.77871 23.95315
#
# Velocity S-wave (km/s) = 3.03348 3.41516 3.22996
# Velocity P-wave (km/s) = 4.58972 5.00223 4.80041
#
# Compressibility (1/GPa) = 0.04951489
#
# Stress axis : x y z
#
# Youngs Moduli (GPa) = 51.45959 75.62637 91.20000
#
# Poissons Ratio (x) = -0.13390 -0.08345
# Poissons Ratio (y) = -0.09111 -0.02386
# Poissons Ratio (z) = -0.04709 -0.01979
#
# Static dielectric constant tensor:
#      x y z
#    x 1.955880 0.000000 0.000000 
#    y 0.000000 1.950480 0.000000 
#    z 0.000000 0.000000 1.897090 
# 
# From -- ./inp_files/7948.got.cif
#   From: 2010.05.17/outbox.cif.g08.bks.cpg/sg45_4_cif.got.tgz:7948.got - 2010.06.03 19:51:22.
