data_PCOD9376857
_publ_section_title
;
Structure prediction by ZEFSAII (Michael W. Deem and Ramdas Pophale) SiO2 
 PCOD9376857
Probable space group: I B A 2
;
_chemical_formula_sum "Si O2"
_cell_formula_units_Z 56
_cell_length_a 14.570168
_cell_length_b 11.463702
_cell_length_c 15.442009
_cell_angle_alpha 90.000000
_cell_angle_beta 90.000000
_cell_angle_gamma 90.000000
_cell_volume 2579.248868
_symmetry_space_group_name_H-M "I B A 2"
_symmetry_group_IT_number 45
_symmetry_cell_setting 'orthorhombic'
loop_
_space_group_symop_operation_xyz
x,y,z
-x,-y,z
-x,y,1/2+z
x,-y,1/2+z
1/2+x,1/2+y,1/2+z
1/2-x,1/2-y,1/2+z
1/2-x,1/2+y,z
1/2+x,1/2-y,z
loop_
_atom_site_type_symbol
_atom_site_label
_atom_site_fract_x
_atom_site_fract_y
_atom_site_fract_z
Si Si1 0.935864 0.162359 0.150730
Si Si2 0.175405 0.721073 0.402953
Si Si3 0.895246 0.467991 0.881225
Si Si4 0.007489 0.139873 0.848814
Si Si5 0.805089 0.319454 0.034891
Si Si6 0.160614 0.261270 0.292016
Si Si7 0.634893 0.404014 0.129293
O O1 0.963846 0.181114 0.251240
O O2 0.872839 0.258185 0.103659
O O3 0.033695 0.143502 0.101380
O O4 0.885420 0.037357 0.153626
O O5 0.156981 0.589251 0.377090
O O6 0.082915 0.797625 0.408479
O O7 0.239217 0.725211 0.487448
O O8 0.237751 0.776551 0.327929
O O9 0.882295 0.389908 0.795121
O O10 0.000000 0.500000 0.893934
O O11 0.859567 0.392187 0.962300
O O12 0.904870 0.189081 0.858338
O O13 0.000000 0.000000 0.854657
O O14 0.725642 0.402850 0.072051
O O15 0.160563 0.184550 0.206742
#
# Coordination Sequence:
#
# PCOD9376857 Si02
#       7
#     8   8   8   8   8   8   8
#     4  10  21  42  65  91 131 163 219 276 323 385
#     4  11  25  40  65  96 134 170 218 271 329 396
#     4  11  24  44  61  94 140 172 215 269 334 408
#     4  11  21  42  69  96 125 171 224 281 320 387
#     4  11  25  39  65  96 131 180 210 266 338 396
#     4  10  22  40  69  94 123 173 219 274 331 380
#     4  10  21  42  66  94 124 167 223 271 323 393
#
# _framework density 21.711748
#
# number of rings (size 3 to 8) (size 9 to 14) (size 15 to 20)
#    0.000    1.429    4.286    1.714    6.000    1.143 
#    2.571    1.429    0.000    0.000    0.000    0.000 
#    0.000    0.000    0.000    0.000    0.000    0.000 
#
# Total GULP energy -156198.012640 kJ/mol
# GULP energy per Si atom -5578.500451 kJ/mol
# Density = 2.166233 g / cm^3
# Si number density = 21.711748 Si / 1000 Ang^3
#
#
#
# Elastic Constant Matrix: (Units=GPa)
#
#
# Indices 1 2 3 4 5 6 
#
# 1 43.5403 0.6569 6.7716 0.0000 0.0000 0.0000
# 2 0.6569 84.8353 12.5554 0.0000 0.0000 0.0000
# 3 6.7716 12.5554 48.4320 0.0000 0.0000 0.0000
# 4 0.0000 0.0000 0.0000 37.6345 0.0000 0.0000
# 5 0.0000 0.0000 0.0000 0.0000 11.3032 0.0000
# 6 0.0000 0.0000 0.0000 0.0000 0.0000 31.3082
#
#
#
# Elastic Compliance Matrix: (Units=1/GPa)
#
#
# Indices 1 2 3 4 5 6 
#
# 1 0.023486 0.000316 -0.003366 0.000000 0.000000 0.000000
# 2 0.000316 0.012262 -0.003223 0.000000 0.000000 0.000000
# 3 -0.003366 -0.003223 0.021954 0.000000 0.000000 0.000000
# 4 0.000000 0.000000 0.000000 0.026571 0.000000 0.000000
# 5 0.000000 0.000000 0.000000 0.000000 0.088470 0.000000
# 6 0.000000 0.000000 0.000000 0.000000 0.000000 0.031941
#
#
# Mechanical properties :
#
#
# Convention : Reuss Voigt Hill
#
# Bulk Modulus (GPa) = 22.14510 24.08614 23.11562
# Shear Modulus (GPa) = 21.52565 26.50410 24.01488
#
# Velocity S-wave (km/s) = 3.15211 3.49768 3.32938
# Velocity P-wave (km/s) = 4.84453 5.23731 5.04474
#
# Compressibility (1/GPa) = 0.04515671
#
# Stress axis : x y z
#
# Youngs Moduli (GPa) = 42.57877 81.55211 45.55059
#
# Poissons Ratio (x) = -0.02579 0.15331
# Poissons Ratio (y) = -0.01347 0.14681
# Poissons Ratio (z) = 0.14331 0.26284
#
# Static dielectric constant tensor:
#      x y z
#    x 2.185450 0.000000 0.000000 
#    y 0.000000 1.663330 0.000000 
#    z 0.000000 0.000000 1.883240 
# 
# From -- ./inp_files/6517.got.cif
#   From: 2010.05.17/outbox.cif.g08.bks.cpg/sg45_4_cif.got.tgz:6517.got - 2010.06.03 19:51:22.
