data_PCOD9376808
_publ_section_title
;
Structure prediction by ZEFSAII (Michael W. Deem and Ramdas Pophale) SiO2 
 PCOD9376808
Probable space group: I B A 2
;
_chemical_formula_sum "Si O2"
_cell_formula_units_Z 48
_cell_length_a 9.666300
_cell_length_b 17.670733
_cell_length_c 11.051459
_cell_angle_alpha 90.000000
_cell_angle_beta 90.000000
_cell_angle_gamma 90.000000
_cell_volume 1887.706413
_symmetry_space_group_name_H-M "I B A 2"
_symmetry_group_IT_number 45
_symmetry_cell_setting 'orthorhombic'
loop_
_space_group_symop_operation_xyz
x,y,z
-x,-y,z
-x,y,1/2+z
x,-y,1/2+z
1/2+x,1/2+y,1/2+z
1/2-x,1/2-y,1/2+z
1/2-x,1/2+y,z
1/2+x,1/2-y,z
loop_
_atom_site_type_symbol
_atom_site_label
_atom_site_fract_x
_atom_site_fract_y
_atom_site_fract_z
Si Si1 0.267048 0.036673 0.619400
Si Si2 0.996246 0.186496 0.500997
Si Si3 0.453452 0.891189 0.663944
Si Si4 0.325726 0.443268 0.397917
Si Si5 0.232638 0.243885 0.641063
Si Si6 0.606982 0.172880 0.360272
O O1 0.356944 0.961715 0.648606
O O2 0.190294 0.012046 0.494347
O O3 0.394641 0.097271 0.602661
O O4 0.186129 0.044892 0.750985
O O5 0.954712 0.110169 0.432402
O O6 0.866858 0.218295 0.578900
O O7 0.785193 0.288831 0.766880
O O8 0.139523 0.178947 0.576241
O O9 0.379083 0.811282 0.644956
O O10 0.496218 0.883037 0.803075
O O11 0.199619 0.386349 0.431437
O O12 0.030504 0.255473 0.412808
#
# Coordination Sequence:
#
# PCOD9376808 Si02
#       6
#     8   8   8   8   8   8
#     4  10  23  43  73 110 154 212 276 314 370 485
#     4  12  24  44  77 116 158 198 253 328 417 473
#     4  10  21  40  71 105 151 208 264 320 384 471
#     4  11  24  47  75 116 153 209 269 321 387 460
#     4  12  24  43  76 118 158 194 257 336 420 468
#     4  11  24  44  75 119 152 197 258 342 409 474
#
# _framework density 25.427683999999999
#
# number of rings (size 3 to 8) (size 9 to 14) (size 15 to 20)
#    0.000    1.000    5.000    1.000    0.000    6.667 
#    0.000    0.000    0.000   19.000    0.000    0.000 
#    0.000    0.000    0.000    0.000    0.000    0.000 
#
# Total GULP energy -133907.408610 kJ/mol
# GULP energy per Si atom -5579.475359 kJ/mol
# Density = 2.536981 g / cm^3
# Si number density = 25.427684 Si / 1000 Ang^3
#
#
#
# Elastic Constant Matrix: (Units=GPa)
#
#
# Indices 1 2 3 4 5 6 
#
# 1 132.4760 49.5071 37.1793 0.0000 0.0000 0.0000
# 2 49.5071 92.8214 41.3546 0.0000 0.0000 0.0000
# 3 37.1793 41.3546 101.7222 0.0000 0.0000 0.0001
# 4 0.0000 0.0000 0.0000 59.6949 0.0000 0.0000
# 5 0.0000 0.0000 0.0000 0.0000 47.0802 0.0000
# 6 0.0000 0.0000 0.0001 0.0000 0.0000 57.4346
#
#
#
# Elastic Compliance Matrix: (Units=1/GPa)
#
#
# Indices 1 2 3 4 5 6 
#
# 1 0.009678 -0.004379 -0.001757 0.000000 0.000000 0.000000
# 2 -0.004379 0.015138 -0.004554 0.000000 0.000000 0.000000
# 3 -0.001757 -0.004554 0.012324 0.000000 0.000000 0.000000
# 4 0.000000 0.000000 0.000000 0.016752 0.000000 0.000000
# 5 0.000000 0.000000 0.000000 0.000000 0.021240 0.000000
# 6 0.000000 0.000000 0.000000 0.000000 0.000000 0.017411
#
#
# Mechanical properties :
#
#
# Convention : Reuss Voigt Hill
#
# Bulk Modulus (GPa) = 63.44971 64.78908 64.11939
# Shear Modulus (GPa) = 41.95460 46.10720 44.03090
#
# Velocity S-wave (km/s) = 4.06637 4.26287 4.16578
# Velocity P-wave (km/s) = 6.85962 7.05439 6.95769
#
# Compressibility (1/GPa) = 0.01576051
#
# Stress axis : x y z
#
# Youngs Moduli (GPa) = 103.32547 66.05984 81.14149
#
# Poissons Ratio (x) = 0.28928 0.14257
# Poissons Ratio (y) = 0.45247 0.36949
# Poissons Ratio (z) = 0.18155 0.30081
#
# Static dielectric constant tensor:
#      x y z
#    x 2.036670 0.000000 0.000000 
#    y 0.000000 2.017150 0.000000 
#    z 0.000000 0.000000 2.203470 
# 
# From -- ./inp_files/3681.got.cif
#   From: 2010.05.17/outbox.cif.g08.bks.cpg/sg45_2_cif.got.tgz:3681.got - 2010.06.03 19:51:22.
