data_PCOD9376609
_publ_section_title
;
Structure prediction by ZEFSAII (Michael W. Deem and Ramdas Pophale) SiO2 
 PCOD9376609
Probable space group: I B A 2
;
_chemical_formula_sum "Si O2"
_cell_formula_units_Z 56
_cell_length_a 32.168940
_cell_length_b 5.573998
_cell_length_c 13.162311
_cell_angle_alpha 90.000000
_cell_angle_beta 90.000000
_cell_angle_gamma 90.000000
_cell_volume 2360.128816
_symmetry_space_group_name_H-M "I B A 2"
_symmetry_group_IT_number 45
_symmetry_cell_setting 'orthorhombic'
loop_
_space_group_symop_operation_xyz
x,y,z
-x,-y,z
-x,y,1/2+z
x,-y,1/2+z
1/2+x,1/2+y,1/2+z
1/2-x,1/2-y,1/2+z
1/2-x,1/2+y,z
1/2+x,1/2-y,z
loop_
_atom_site_type_symbol
_atom_site_label
_atom_site_fract_x
_atom_site_fract_y
_atom_site_fract_z
Si Si1 0.267120 0.627260 0.998440
Si Si2 0.500000 0.500000 0.820237
Si Si3 0.088171 0.012887 0.340391
Si Si4 0.085666 0.308104 0.137469
Si Si5 0.355771 0.187923 0.217807
Si Si6 0.263323 0.673542 0.763660
Si Si7 0.861789 0.003677 0.012903
Si Si8 0.500000 0.000000 0.691803
O O1 0.248909 0.378863 0.042708
O O2 0.251425 0.636081 0.881706
O O3 0.316792 0.608417 0.995261
O O4 0.542092 0.509294 0.885398
O O5 0.494995 0.752367 0.757025
O O6 0.078195 0.125994 0.230136
O O7 0.113105 0.776491 0.305846
O O8 0.120881 0.143865 0.414632
O O9 0.126794 0.439346 0.178969
O O10 0.101357 0.185394 0.035198
O O11 0.043525 0.463368 0.131123
O O12 0.309015 0.211452 0.254731
O O13 0.358543 0.347002 0.115759
O O14 0.264972 0.396372 0.725002
#
# Coordination Sequence:
#
# PCOD9376609 Si02
#       8
#     8   4   8   8   8   8   8   4
#     4  10  23  42  65  95 134 180 225 284 345 409
#     4  10  20  42  72  98 128 188 226 270 342 404
#     4  10  22  44  66  95 138 178 229 278 339 414
#     4  10  24  42  70  99 134 187 223 287 348 409
#     4  11  23  42  67  96 133 178 225 277 348 401
#     4  10  23  41  68  94 127 177 228 277 337 408
#     4  11  25  42  65 104 135 178 230 285 346 417
#     4  10  20  44  70  96 138 176 230 274 340 402
#
# _framework density 23.727516000000001
#
# number of rings (size 3 to 8) (size 9 to 14) (size 15 to 20)
#    0.000    1.714    2.857    0.000    6.000    3.429 
#    2.571    0.000    0.000    0.000    0.000    0.000 
#    0.000    0.000    0.000    0.000    0.000    0.000 
#
# Total GULP energy -156087.599603 kJ/mol
# GULP energy per Si atom -5574.557129 kJ/mol
# Density = 2.367351 g / cm^3
# Si number density = 23.727516 Si / 1000 Ang^3
#
#
#
# Elastic Constant Matrix: (Units=GPa)
#
#
# Indices 1 2 3 4 5 6 
#
# 1 144.8954 27.4603 -3.4663 0.0000 0.0000 0.0000
# 2 27.4603 108.7269 5.2763 0.0000 0.0000 0.0000
# 3 -3.4663 5.2763 53.2509 0.0000 0.0000 0.0000
# 4 0.0000 0.0000 0.0000 -0.8631 0.0000 0.0000
# 5 0.0000 0.0000 0.0000 0.0000 30.7845 0.0000
# 6 0.0000 0.0000 0.0000 0.0000 0.0000 33.5692
#
#
#
# Elastic Compliance Matrix: (Units=1/GPa)
#
#
# Indices 1 2 3 4 5 6 
#
# 1 0.007271 -0.001868 0.000658 0.000000 0.000000 0.000000
# 2 -0.001868 0.009722 -0.001085 0.000000 0.000000 0.000000
# 3 0.000658 -0.001085 0.018929 0.000000 0.000000 0.000000
# 4 0.000000 0.000000 0.000000 -1.158673 0.000000 0.000000
# 5 0.000000 0.000000 0.000000 0.000000 0.032484 0.000000
# 6 0.000000 0.000000 0.000000 0.000000 0.000000 0.029789
#
#
# Mechanical properties :
#
#
# Convention : Reuss Voigt Hill
#
# Bulk Modulus (GPa) = 31.91535 40.60155 36.25845
# Shear Modulus (GPa) = -4.78266 31.20499 13.21116
#
# Velocity S-wave (km/s) = -1.42128 3.63042 2.36219
# Velocity P-wave (km/s) = 3.28430 5.89254 4.77015
#
# Compressibility (1/GPa) = 0.03133288
#
# Stress axis : x y z
#
# Youngs Moduli (GPa) = 137.52539 102.86050 52.82794
#
# Poissons Ratio (x) = 0.19219 -0.03478
# Poissons Ratio (y) = 0.25696 0.05731
# Poissons Ratio (z) = -0.09055 0.11159
#
# Static dielectric constant tensor:
#      x y z
#    x 1.924860 0.000000 0.000000 
#    y 0.000000 1.976920 0.000000 
#    z 0.000000 0.000000 2.016710 
# 
# From -- ./inp_files/5288.got.cif
#   From: 2010.05.17/outbox.cif.g08.bks.cpg/sg45_3_cif.got.tgz:5288.got - 2010.06.03 19:51:22.
