data_PCOD9376683
_publ_section_title
;
Structure prediction by ZEFSAII (Michael W. Deem and Ramdas Pophale) SiO2 
 PCOD9376683
Probable space group: I B A 2
;
_chemical_formula_sum "Si O2"
_cell_formula_units_Z 48
_cell_length_a 4.974002
_cell_length_b 20.916782
_cell_length_c 21.510864
_cell_angle_alpha 90.000000
_cell_angle_beta 90.000000
_cell_angle_gamma 90.000000
_cell_volume 2237.992775
_symmetry_space_group_name_H-M "I B A 2"
_symmetry_group_IT_number 45
_symmetry_cell_setting 'orthorhombic'
loop_
_space_group_symop_operation_xyz
x,y,z
-x,-y,z
-x,y,1/2+z
x,-y,1/2+z
1/2+x,1/2+y,1/2+z
1/2-x,1/2-y,1/2+z
1/2-x,1/2+y,z
1/2+x,1/2-y,z
loop_
_atom_site_type_symbol
_atom_site_label
_atom_site_fract_x
_atom_site_fract_y
_atom_site_fract_z
Si Si1 0.500000 0.500000 0.323061
Si Si2 0.150008 0.095219 0.216694
Si Si3 0.513535 0.286349 0.663137
Si Si4 0.000000 0.500000 0.905812
Si Si5 0.586251 0.703073 0.520591
Si Si6 0.349759 0.429721 0.002696
Si Si7 0.356925 0.066869 0.634417
O O1 0.379282 0.554653 0.278526
O O2 0.250569 0.476189 0.364441
O O3 0.440031 0.094588 0.185336
O O4 0.068165 0.168703 0.219448
O O5 0.931395 0.067405 0.167635
O O6 0.829207 0.275961 0.665409
O O7 0.425790 0.311620 0.595153
O O8 0.862676 0.553714 0.949017
O O9 0.855496 0.743567 0.508015
O O10 0.533787 0.633129 0.489957
O O11 0.500000 0.500000 0.013236
O O12 0.187554 0.408982 0.064751
O O13 0.500000 0.000000 0.623206
#
# Coordination Sequence:
#
# PCOD9376683 Si02
#       7
#     4   8   8   4   8   8   8
#     4  12  26  46  62  96 128 184 226 288 328 388
#     4  12  23  40  65  92 138 165 210 276 329 409
#     4  10  21  37  59  94 132 173 206 254 337 419
#     4  12  28  44  68  92 134 178 238 278 342 386
#     4  10  24  39  64  99 144 178 211 263 347 434
#     4  12  26  44  71 101 146 175 228 290 346 416
#     4  12  22  35  62 103 128 162 205 265 355 404
#
# _framework density 21.447790999999999
#
# number of rings (size 3 to 8) (size 9 to 14) (size 15 to 20)
#    0.000    0.667    5.000    3.000    7.000    0.000 
#    0.000    0.000    0.000    6.000    0.000    0.000 
#    0.000    0.000    0.000    0.000    0.000    0.000 
#
# Total GULP energy -133826.128232 kJ/mol
# GULP energy per Si atom -5576.088676 kJ/mol
# Density = 2.139897 g / cm^3
# Si number density = 21.447791 Si / 1000 Ang^3
#
#
#
# Elastic Constant Matrix: (Units=GPa)
#
#
# Indices 1 2 3 4 5 6 
#
# 1 98.6369 18.9785 31.1787 0.0000 0.0000 0.0000
# 2 18.9785 40.0892 21.0777 0.0000 0.0000 0.0000
# 3 31.1787 21.0777 91.3770 0.0000 0.0000 0.0000
# 4 0.0000 0.0000 0.0000 7.2296 0.0000 0.0000
# 5 0.0000 0.0000 0.0000 0.0000 24.5572 0.0000
# 6 0.0000 0.0000 0.0000 0.0000 0.0000 35.9126
#
#
#
# Elastic Compliance Matrix: (Units=1/GPa)
#
#
# Indices 1 2 3 4 5 6 
#
# 1 0.011897 -0.003981 -0.003141 0.000000 0.000000 0.000000
# 2 -0.003981 0.029719 -0.005497 0.000000 0.000000 0.000000
# 3 -0.003141 -0.005497 0.013283 0.000000 0.000000 0.000000
# 4 0.000000 0.000000 0.000000 0.138320 0.000000 0.000000
# 5 0.000000 0.000000 0.000000 0.000000 0.040721 0.000000
# 6 0.000000 0.000000 0.000000 0.000000 0.000000 0.027845
#
#
# Mechanical properties :
#
#
# Convention : Reuss Voigt Hill
#
# Bulk Modulus (GPa) = 33.71327 41.39699 37.55513
# Shear Modulus (GPa) = 16.84005 24.13108 20.48557
#
# Velocity S-wave (km/s) = 2.80512 3.35790 3.09388
# Velocity P-wave (km/s) = 5.12294 5.86321 5.50553
#
# Compressibility (1/GPa) = 0.02966191
#
# Stress axis : x y z
#
# Youngs Moduli (GPa) = 84.05475 33.64853 75.28164
#
# Poissons Ratio (x) = 0.13394 0.23647
# Poissons Ratio (y) = 0.33459 0.41382
# Poissons Ratio (z) = 0.26403 0.18497
#
# Static dielectric constant tensor:
#      x y z
#    x 1.933990 0.000000 0.000000 
#    y 0.000000 1.912130 0.000000 
#    z 0.000000 0.000000 1.765350 
# 
# From -- ./inp_files/8670.got.cif
#   From: 2010.05.17/outbox.cif.g08.bks.cpg/sg45_5_cif.got.tgz:8670.got - 2010.06.03 19:51:22.
