data_PCOD9376197
_publ_section_title
;
Structure prediction by ZEFSAII (Michael W. Deem and Ramdas Pophale) SiO2 
 PCOD9376197
Probable space group: I B A 2
;
_chemical_formula_sum "Si O2"
_cell_formula_units_Z 52
_cell_length_a 15.186367
_cell_length_b 14.057223
_cell_length_c 9.967029
_cell_angle_alpha 90.000000
_cell_angle_beta 90.000000
_cell_angle_gamma 90.000000
_cell_volume 2127.742887
_symmetry_space_group_name_H-M "I B A 2"
_symmetry_group_IT_number 45
_symmetry_cell_setting 'orthorhombic'
loop_
_space_group_symop_operation_xyz
x,y,z
-x,-y,z
-x,y,1/2+z
x,-y,1/2+z
1/2+x,1/2+y,1/2+z
1/2-x,1/2-y,1/2+z
1/2-x,1/2+y,z
1/2+x,1/2-y,z
loop_
_atom_site_type_symbol
_atom_site_label
_atom_site_fract_x
_atom_site_fract_y
_atom_site_fract_z
Si Si1 0.787987 0.642566 0.703640
Si Si2 0.787982 0.642572 0.254685
Si Si3 0.568999 0.831483 0.979162
Si Si4 0.637389 0.138907 0.979165
Si Si5 0.956882 0.891777 0.479172
Si Si6 0.838189 0.868535 0.979167
Si Si7 0.500000 0.500000 0.229173
O O1 0.750008 0.750000 0.729159
O O2 0.875386 0.642632 0.611033
O O3 0.816397 0.600798 0.845776
O O4 0.713624 0.598430 0.609879
O O5 0.875385 0.642649 0.347285
O O6 0.713627 0.598431 0.348458
O O7 0.816395 0.600799 0.112552
O O8 0.468808 0.869404 0.979161
O O9 0.569504 0.716919 0.979176
O O10 0.656364 0.253022 0.979166
O O11 0.062501 0.898614 0.479169
O O12 0.940685 0.935663 0.627388
O O13 0.940685 0.935660 0.330956
#
# Coordination Sequence:
#
# PCOD9376197 Si02
#       7
#     8   8   8   8   8   8   4
#     4   9  17  28  40  71  91 119 165 194 228 315
#     4   9  17  28  40  71  91 119 165 194 228 315
#     4  10  19  28  48  64  97 137 160 191 252 284
#     4   9  16  25  41  66  92 122 160 183 221 296
#     4  10  22  37  51  68  93 137 173 212 242 267
#     4   8  17  30  46  61  96 121 157 194 249 278
#     4  10  24  38  48  70  92 122 202 214 224 268
#
# _framework density 24.439042000000001
#
# number of rings (size 3 to 8) (size 9 to 14) (size 15 to 20)
#    0.000    2.769    0.000    1.846   12.923    0.000 
#    0.000    0.000    0.000    0.000    0.000    0.000 
#    0.000    0.000    0.000   66.462   61.538    0.000 
#
# Total GULP energy -145168.377445 kJ/mol
# GULP energy per Si atom -5583.399132 kJ/mol
# Density = 2.438342 g / cm^3
# Si number density = 24.439042 Si / 1000 Ang^3
#
#
#
# Elastic Constant Matrix: (Units=GPa)
#
#
# Indices 1 2 3 4 5 6 
#
# 1 148.3070 11.3329 94.5804 0.0000 0.0000 0.0000
# 2 11.3329 41.4120 15.6385 0.0000 0.0000 0.0000
# 3 94.5804 15.6385 247.3008 0.0000 0.0000 0.0000
# 4 0.0000 0.0000 0.0000 -1.3364 0.0000 0.0000
# 5 0.0000 0.0000 0.0000 0.0000 38.2255 0.0000
# 6 0.0000 0.0000 0.0000 0.0000 0.0000 23.0034
#
#
#
# Elastic Compliance Matrix: (Units=1/GPa)
#
#
# Indices 1 2 3 4 5 6 
#
# 1 0.008975 -0.001188 -0.003357 0.000000 0.000000 0.000000
# 2 -0.001188 0.024896 -0.001120 0.000000 0.000000 0.000000
# 3 -0.003357 -0.001120 0.005398 0.000000 0.000000 0.000000
# 4 0.000000 0.000000 0.000000 -0.748303 0.000000 0.000000
# 5 0.000000 0.000000 0.000000 0.000000 0.026161 0.000000
# 6 0.000000 0.000000 0.000000 0.000000 0.000000 0.043472
#
#
# Mechanical properties :
#
#
# Convention : Reuss Voigt Hill
#
# Bulk Modulus (GPa) = 35.79341 75.56927 55.68134
# Shear Modulus (GPa) = -8.08069 33.00970 12.46450
#
# Velocity S-wave (km/s) = -1.82034 3.67917 2.26082
# Velocity P-wave (km/s) = 3.20306 7.00264 5.44503
#
# Compressibility (1/GPa) = 0.02793810
#
# Stress axis : x y z
#
# Youngs Moduli (GPa) = 111.42605 40.16759 185.23872
#
# Poissons Ratio (x) = 0.04773 0.62188
# Poissons Ratio (y) = 0.13240 0.20745
# Poissons Ratio (z) = 0.37408 0.04498
#
# Static dielectric constant tensor:
#      x y z
#    x 1.885820 0.000000 0.000000 
#    y 0.000000 2.141760 0.000000 
#    z 0.000000 0.000000 1.969340 
# 
# From -- ./inp_files/1797.got.cif
#   From: 2010.05.17/outbox.cif.g08.bks.cpg/sg45_1_cif.got.tgz:1797.got - 2010.06.03 19:51:22.
