data_PCOD9376352
_publ_section_title
;
Structure prediction by ZEFSAII (Michael W. Deem and Ramdas Pophale) SiO2 
 PCOD9376352
Probable space group: I B A 2
;
_chemical_formula_sum "Si O2"
_cell_formula_units_Z 44
_cell_length_a 12.311792
_cell_length_b 23.297877
_cell_length_c 8.740389
_cell_angle_alpha 90.000000
_cell_angle_beta 90.000000
_cell_angle_gamma 90.000000
_cell_volume 2507.081081
_symmetry_space_group_name_H-M "I B A 2"
_symmetry_group_IT_number 45
_symmetry_cell_setting 'orthorhombic'
loop_
_space_group_symop_operation_xyz
x,y,z
-x,-y,z
-x,y,1/2+z
x,-y,1/2+z
1/2+x,1/2+y,1/2+z
1/2-x,1/2-y,1/2+z
1/2-x,1/2+y,z
1/2+x,1/2-y,z
loop_
_atom_site_type_symbol
_atom_site_label
_atom_site_fract_x
_atom_site_fract_y
_atom_site_fract_z
Si Si1 0.428601 0.416806 0.897780
Si Si2 0.932258 0.702740 0.924706
Si Si3 0.500000 0.500000 0.649197
Si Si4 0.651552 0.194676 0.267236
Si Si5 0.135833 0.164295 0.921948
Si Si6 0.277015 0.326542 0.763538
O O1 0.426712 0.460150 0.755710
O O2 0.430252 0.457132 0.045073
O O3 0.542982 0.382411 0.894964
O O4 0.335792 0.369937 0.878757
O O5 0.891472 0.687321 0.094709
O O6 0.919020 0.772248 0.911338
O O7 0.849920 0.675959 0.800795
O O8 0.053562 0.683698 0.884737
O O9 0.763091 0.162082 0.305435
O O10 0.681094 0.261827 0.289213
O O11 0.813123 0.158536 0.591474
#
# Coordination Sequence:
#
# PCOD9376352 Si02
#       6
#     8   8   4   8   8   8
#     4  11  20  38  54  82 106 144 174 235 266 320
#     4  10  20  32  50  80 110 146 179 208 256 340
#     4  10  24  34  56  78 106 134 196 222 280 306
#     4  10  20  32  50  80 110 146 179 208 256 340
#     4  10  20  33  53  75 111 146 175 216 270 316
#     4  10  20  33  53  75 111 146 175 216 270 316
#
# _framework density 17.550291000000001
#
# number of rings (size 3 to 8) (size 9 to 14) (size 15 to 20)
#    0.000    1.818    3.636    1.091    2.545    1.455 
#    0.000    0.000    0.000    0.000    0.000    7.636 
#    0.000    0.000    0.000    0.000    0.000    0.000 
#
# Total GULP energy -122754.643505 kJ/mol
# GULP energy per Si atom -5579.756523 kJ/mol
# Density = 1.751035 g / cm^3
# Si number density = 17.550291 Si / 1000 Ang^3
#
#
#
# Elastic Constant Matrix: (Units=GPa)
#
#
# Indices 1 2 3 4 5 6 
#
# 1 72.9486 21.2745 14.1832 0.0006 0.0001 0.0002
# 2 21.2745 53.8531 19.6949 -0.0008 -0.0001 0.0001
# 3 14.1832 19.6949 46.8175 -0.0041 0.0004 -0.0002
# 4 0.0006 -0.0008 -0.0041 24.0034 0.0000 -0.0002
# 5 0.0001 -0.0001 0.0004 0.0000 21.0104 0.0000
# 6 0.0002 0.0001 -0.0002 -0.0002 0.0000 12.6278
#
#
#
# Elastic Compliance Matrix: (Units=1/GPa)
#
#
# Indices 1 2 3 4 5 6 
#
# 1 0.015746 -0.005290 -0.002545 -0.000001 0.000000 0.000000
# 2 -0.005290 0.023722 -0.008377 -0.000001 0.000000 0.000000
# 3 -0.002545 -0.008377 0.025654 0.000004 -0.000001 0.000000
# 4 -0.000001 -0.000001 0.000004 0.041661 0.000000 0.000001
# 5 0.000000 0.000000 -0.000001 0.000000 0.047596 0.000000
# 6 0.000000 0.000000 0.000000 0.000001 0.000000 0.079190
#
#
# Mechanical properties :
#
#
# Convention : Reuss Voigt Hill
#
# Bulk Modulus (GPa) = 30.58136 31.54715 31.06426
# Shear Modulus (GPa) = 18.05762 19.42610 18.74186
#
# Velocity S-wave (km/s) = 3.21114 3.33059 3.27141
# Velocity P-wave (km/s) = 5.58671 5.72755 5.65757
#
# Compressibility (1/GPa) = 0.03269966
#
# Stress axis : x y z
#
# Youngs Moduli (GPa) = 63.50935 42.15453 38.97961
#
# Poissons Ratio (x) = 0.22298 0.09920
# Poissons Ratio (y) = 0.33594 0.32653
# Poissons Ratio (z) = 0.16163 0.35312
#
# Static dielectric constant tensor:
#      x y z
#    x 1.576280 0.000000 0.000000 
#    y 0.000000 1.579820 0.000000 
#    z 0.000000 0.000000 1.644190 
# 
# From -- ./inp_files/1329.got.cif
#   From: 2010.05.17/outbox.cif.g08.bks.cpg/sg45_1_cif.got.tgz:1329.got - 2010.06.03 19:51:22.
