data_PCOD9376483
_publ_section_title
;
Structure prediction by ZEFSAII (Michael W. Deem and Ramdas Pophale) SiO2 
 PCOD9376483
Probable space group: I B A 2
;
_chemical_formula_sum "Si O2"
_cell_formula_units_Z 56
_cell_length_a 11.319377
_cell_length_b 19.313501
_cell_length_c 11.660324
_cell_angle_alpha 90.000000
_cell_angle_beta 90.000000
_cell_angle_gamma 90.000000
_cell_volume 2549.142708
_symmetry_space_group_name_H-M "I B A 2"
_symmetry_group_IT_number 45
_symmetry_cell_setting 'orthorhombic'
loop_
_space_group_symop_operation_xyz
x,y,z
-x,-y,z
-x,y,1/2+z
x,-y,1/2+z
1/2+x,1/2+y,1/2+z
1/2-x,1/2-y,1/2+z
1/2-x,1/2+y,z
1/2+x,1/2-y,z
loop_
_atom_site_type_symbol
_atom_site_label
_atom_site_fract_x
_atom_site_fract_y
_atom_site_fract_z
Si Si1 0.181844 0.365918 0.373040
Si Si2 0.293866 0.640310 0.450266
Si Si3 0.513231 0.266707 0.377870
Si Si4 0.192981 0.552133 0.641279
Si Si5 0.173039 0.306114 0.740813
Si Si6 0.177287 0.224662 0.046259
Si Si7 0.419773 0.918667 0.586630
O O1 0.100005 0.298151 0.352392
O O2 0.219117 0.405484 0.257717
O O3 0.281367 0.337641 0.461575
O O4 0.105820 0.417969 0.451669
O O5 0.417892 0.660926 0.391927
O O6 0.276625 0.577644 0.537588
O O7 0.198059 0.643783 0.348214
O O8 0.260288 0.709433 0.521606
O O9 0.403913 0.257312 0.289465
O O10 0.451547 0.256450 0.502288
O O11 0.176894 0.469416 0.646206
O O12 0.056765 0.568049 0.608194
O O13 0.297123 0.290627 0.678064
O O14 0.102546 0.344798 0.643046
#
# Coordination Sequence:
#
# PCOD9376483 Si02
#       7
#     8   8   8   8   8   8   8
#     4  10  21  39  56  89 122 156 205 255 319 389
#     4  10  23  34  57  90 122 159 205 258 323 398
#     4  10  20  39  61  90 125 160 197 269 324 391
#     4  11  23  35  59  90 123 163 207 255 325 387
#     4  10  20  38  59  86 119 154 211 258 317 382
#     4   9  21  36  58  87 119 159 201 259 328 385
#     4  10  22  36  61  84 123 166 204 266 310 385
#
# _framework density 21.968169
#
# number of rings (size 3 to 8) (size 9 to 14) (size 15 to 20)
#    0.000    2.000    1.429    1.714    8.000    4.571 
#    0.000    0.000    0.000    3.429    0.000    0.000 
#    0.000    0.000    0.000    0.000    0.000    0.000 
#
# Total GULP energy -156017.339748 kJ/mol
# GULP energy per Si atom -5572.047848 kJ/mol
# Density = 2.191817 g / cm^3
# Si number density = 21.968169 Si / 1000 Ang^3
#
#
#
# Elastic Constant Matrix: (Units=GPa)
#
#
# Indices 1 2 3 4 5 6 
#
# 1 54.9415 19.1356 30.0754 0.0000 0.0000 0.0000
# 2 19.1356 59.6934 30.6435 0.0002 0.0000 0.0000
# 3 30.0754 30.6435 125.1062 0.0003 0.0000 0.0000
# 4 0.0000 0.0002 0.0003 28.9898 0.0000 0.0000
# 5 0.0000 0.0000 0.0000 0.0000 29.7980 0.0000
# 6 0.0000 0.0000 0.0000 0.0000 0.0000 22.1455
#
#
#
# Elastic Compliance Matrix: (Units=1/GPa)
#
#
# Indices 1 2 3 4 5 6 
#
# 1 0.022194 -0.005005 -0.004109 0.000000 0.000000 0.000000
# 2 -0.005005 0.020290 -0.003767 0.000000 0.000000 0.000000
# 3 -0.004109 -0.003767 0.009904 0.000000 0.000000 0.000000
# 4 0.000000 0.000000 0.000000 0.034495 0.000000 0.000000
# 5 0.000000 0.000000 0.000000 0.000000 0.033559 0.000000
# 6 0.000000 0.000000 0.000000 0.000000 0.000000 0.045156
#
#
# Mechanical properties :
#
#
# Convention : Reuss Voigt Hill
#
# Bulk Modulus (GPa) = 37.55779 44.38333 40.97056
# Shear Modulus (GPa) = 24.97059 26.84578 25.90819
#
# Velocity S-wave (km/s) = 3.37511 3.49955 3.43789
# Velocity P-wave (km/s) = 5.68525 6.04785 5.86935
#
# Compressibility (1/GPa) = 0.02662564
#
# Stress axis : x y z
#
# Youngs Moduli (GPa) = 45.05742 49.28460 100.97203
#
# Poissons Ratio (x) = 0.24667 0.41494
# Poissons Ratio (y) = 0.22551 0.38033
# Poissons Ratio (z) = 0.18516 0.18564
#
# Static dielectric constant tensor:
#      x y z
#    x 1.890560 0.000000 0.000000 
#    y 0.000000 1.887590 0.000000 
#    z 0.000000 0.000000 1.847790 
# 
# From -- ./inp_files/3763.got.cif
#   From: 2010.05.17/outbox.cif.g08.bks.cpg/sg45_2_cif.got.tgz:3763.got - 2010.06.03 19:51:22.
