data_PCOD9376007
_publ_section_title
;
Structure prediction by ZEFSAII (Michael W. Deem and Ramdas Pophale) SiO2 
 PCOD9376007
Probable space group: I M M 2
;
_chemical_formula_sum "Si O2"
_cell_formula_units_Z 32
_cell_length_a 15.000000
_cell_length_b 9.000000
_cell_length_c 24.000000
_cell_angle_alpha 90.000000
_cell_angle_beta 90.000000
_cell_angle_gamma 90.000000
_cell_volume 3240.000000
_symmetry_space_group_name_H-M "I M M 2"
_symmetry_group_IT_number 44
_symmetry_cell_setting 'orthorhombic'
loop_
_space_group_symop_operation_xyz
x,y,z
-x,-y,z
-x,y,z
x,-y,z
1/2+x,1/2+y,1/2+z
1/2-x,1/2-y,1/2+z
1/2-x,1/2+y,1/2+z
1/2+x,1/2-y,1/2+z
loop_
_atom_site_type_symbol
_atom_site_label
_atom_site_fract_x
_atom_site_fract_y
_atom_site_fract_z
Si Si1 0.305336 0.327992 0.001350
Si Si2 0.897405 0.322150 0.263990
Si Si3 0.871623 0.827732 0.870302
Si Si4 0.901277 0.675774 0.985371
Si Si5 0.401801 0.831718 0.262969
Si Si6 0.602483 0.176717 0.099992
Si Si7 0.685985 0.324664 0.869878
Si Si8 0.231712 0.826434 0.689235
O O1 0.318617 0.500000 0.018125
O O2 0.366004 0.223071 0.038586
O O3 0.198433 0.296163 0.010232
O O4 0.333418 0.316777 0.936177
O O5 0.883620 0.500000 0.274269
O O6 0.879502 0.230470 0.321005
O O7 0.827177 0.278797 0.215128
O O8 0.000000 0.301321 0.246898
O O9 0.901202 0.780385 0.931561
O O10 0.910632 0.710535 0.826979
O O11 0.767522 0.790037 0.865177
O O12 0.891224 0.000000 0.858767
O O13 0.897201 0.500000 0.969619
O O14 0.000000 0.695299 0.013603
O O15 0.500000 0.824441 0.236856
O O16 0.336572 0.708642 0.239123
O O17 0.367982 0.000000 0.255196
O O18 0.500000 0.230203 0.109680
O O19 0.680180 0.242956 0.139604
O O20 0.602009 0.000000 0.107235
O O21 0.708859 0.500000 0.859780
O O22 0.237479 0.000000 0.675598
#
# Coordination Sequence:
#
# PCOD9376007 Si02
#       8
#     8   8   8   8   8   8   8   8
#     4   9  20  38  61  90 121 158 204 252 301 357
#     4  10  22  40  62  91 126 161 198 244 301 367
#     4  11  20  30  48  78 116 157 199 243 291 347
#     4   9  18  34  55  81 117 159 199 241 295 357
#     4  11  22  34  51  78 114 154 193 239 295 352
#     4  11  25  44  65  89 118 156 201 252 312 369
#     4  10  20  36  59  87 122 163 205 249 302 358
#     4  11  23  40  63  88 116 154 198 247 300 359
#
# _framework density 9.8765429999999999
#
# number of rings (size 3 to 8) (size 9 to 14) (size 15 to 20)
#    0.000    1.750    1.250    4.125    0.000    9.000 
#    0.000    3.125    0.000    3.750    0.000    0.000 
#    0.000    0.000    0.000    0.000    0.000    0.000 
#
# Total GULP energy -178242.229401 kJ/mol
# GULP energy per Si atom -5570.069669 kJ/mol
# Density = 0.985406 g / cm^3
# Si number density = 9.876543 Si / 1000 Ang^3
#
#
#
# Elastic Constant Matrix: (Units=GPa)
#
#
# Indices 1 2 3 4 5 6 
#
# 1 124.3583 30.8371 40.3556 0.0000 0.0000 0.0000
# 2 30.8371 54.9445 25.0320 0.0000 0.0000 0.0000
# 3 40.3556 25.0320 66.4815 0.0000 0.0000 0.0000
# 4 0.0000 0.0000 0.0000 32.3880 0.0000 0.0000
# 5 0.0000 0.0000 0.0000 0.0000 12.2557 0.0000
# 6 0.0000 0.0000 0.0000 0.0000 0.0000 24.9265
#
#
#
# Elastic Compliance Matrix: (Units=1/GPa)
#
#
# Indices 1 2 3 4 5 6 
#
# 1 0.010584 -0.003637 -0.005055 0.000000 0.000000 0.000000
# 2 -0.003637 0.023218 -0.006535 0.000000 0.000000 0.000000
# 3 -0.005055 -0.006535 0.020571 0.000000 0.000000 0.000000
# 4 0.000000 0.000000 0.000000 0.030876 0.000000 0.000000
# 5 0.000000 0.000000 0.000000 0.000000 0.081595 0.000000
# 6 0.000000 0.000000 0.000000 0.000000 0.000000 0.040118
#
#
# Mechanical properties :
#
#
# Convention : Reuss Voigt Hill
#
# Bulk Modulus (GPa) = 41.80682 48.69262 45.24972
# Shear Modulus (GPa) = 20.37591 23.88466 22.13029
#
# Velocity S-wave (km/s) = 3.21523 3.48107 3.35079
# Velocity P-wave (km/s) = 5.91559 6.39228 6.15855
#
# Compressibility (1/GPa) = 0.02391954
#
# Stress axis : x y z
#
# Youngs Moduli (GPa) = 94.48637 43.06915 48.61265
#
# Poissons Ratio (x) = 0.15664 0.24574
# Poissons Ratio (y) = 0.34364 0.31767
# Poissons Ratio (z) = 0.47763 0.28144
#
# Static dielectric constant tensor:
#      x y z
#    x 1.775020 0.000000 0.000000 
#    y 0.000000 1.652720 0.000000 
#    z 0.000000 0.000000 1.756460 
# 
# From -- ./inp_files/25173.got.cif
#   From: 2010.05.17/outbox.ucp.g08.bks.cvg/sg44_13_cif.got.tgz:25173.got - 2010.06.11 16:32:36.
