data_PCOD9376321
_publ_section_title
;
Structure prediction by ZEFSAII (Michael W. Deem and Ramdas Pophale) SiO2 
 PCOD9376321
Probable space group: I B A 2
;
_chemical_formula_sum "Si O2"
_cell_formula_units_Z 44
_cell_length_a 10.388188
_cell_length_b 15.177938
_cell_length_c 11.247384
_cell_angle_alpha 90.000000
_cell_angle_beta 90.000000
_cell_angle_gamma 90.000000
_cell_volume 1773.389358
_symmetry_space_group_name_H-M "I B A 2"
_symmetry_group_IT_number 45
_symmetry_cell_setting 'orthorhombic'
loop_
_space_group_symop_operation_xyz
x,y,z
-x,-y,z
-x,y,1/2+z
x,-y,1/2+z
1/2+x,1/2+y,1/2+z
1/2-x,1/2-y,1/2+z
1/2-x,1/2+y,z
1/2+x,1/2-y,z
loop_
_atom_site_type_symbol
_atom_site_label
_atom_site_fract_x
_atom_site_fract_y
_atom_site_fract_z
Si Si1 0.789035 0.762006 0.931380
Si Si2 0.781694 0.593857 0.267187
Si Si3 0.975041 0.825873 0.742296
Si Si4 0.733369 0.410124 0.330928
Si Si5 0.000000 0.500000 0.109891
Si Si6 0.385354 0.836383 0.613587
O O1 0.695656 0.813715 0.835323
O O2 0.923933 0.786992 0.870468
O O3 0.760461 0.659060 0.934328
O O4 0.744395 0.801565 0.054177
O O5 0.646313 0.614068 0.201673
O O6 0.744764 0.512947 0.354983
O O7 0.894584 0.555313 0.186704
O O8 0.976679 0.744916 0.648929
O O9 0.098801 0.883475 0.769942
O O10 0.842139 0.381845 0.235958
O O11 0.059365 0.581958 0.038649
#
# Coordination Sequence:
#
# PCOD9376321 Si02
#       6
#     8   8   8   8   4   8
#     4   9  21  37  55  92 116 154 203 244 303 354
#     4   9  20  38  60  82 118 161 202 239 304 355
#     4   9  20  38  60  83 119 156 198 251 295 355
#     4  10  19  39  61  83 121 161 198 251 301 359
#     4  10  20  38  60  86 122 166 200 248 298 368
#     4  10  21  37  60  92 120 157 204 248 304 359
#
# _framework density 24.811247999999999
#
# number of rings (size 3 to 8) (size 9 to 14) (size 15 to 20)
#    1.091    1.455    0.000    1.636    0.000    2.182 
#    6.545    0.000    8.000    0.000    0.000    0.000 
#    0.000    0.000    0.000    0.000    0.000    0.000 
#
# Total GULP energy -122593.952201 kJ/mol
# GULP energy per Si atom -5572.452373 kJ/mol
# Density = 2.475478 g / cm^3
# Si number density = 24.811248 Si / 1000 Ang^3
#
#
#
# Elastic Constant Matrix: (Units=GPa)
#
#
# Indices 1 2 3 4 5 6 
#
# 1 116.1227 30.7986 -4.8949 0.0000 0.0000 0.0000
# 2 30.7986 141.1068 12.1164 0.0003 0.0000 -0.0001
# 3 -4.8949 12.1164 24.5507 0.0003 0.0000 -0.0001
# 4 0.0000 0.0003 0.0003 22.6152 0.0000 -0.0001
# 5 0.0000 0.0000 0.0000 0.0000 23.6737 0.0000
# 6 0.0000 -0.0001 -0.0001 -0.0001 0.0000 32.0734
#
#
#
# Elastic Compliance Matrix: (Units=1/GPa)
#
#
# Indices 1 2 3 4 5 6 
#
# 1 0.009347 -0.002298 0.002998 0.000000 0.000000 0.000000
# 2 -0.002298 0.007965 -0.004389 0.000000 0.000000 0.000000
# 3 0.002998 -0.004389 0.043496 -0.000001 0.000000 0.000000
# 4 0.000000 0.000000 -0.000001 0.044218 0.000000 0.000000
# 5 0.000000 0.000000 0.000000 0.000000 0.042241 0.000000
# 6 0.000000 0.000000 0.000000 0.000000 0.000000 0.031179
#
#
# Mechanical properties :
#
#
# Convention : Reuss Voigt Hill
#
# Bulk Modulus (GPa) = 18.71601 39.75782 29.23692
# Shear Modulus (GPa) = 24.55382 31.92312 28.23847
#
# Velocity S-wave (km/s) = 3.14924 3.59087 3.37728
# Velocity P-wave (km/s) = 4.55888 5.76640 5.19782
#
# Compressibility (1/GPa) = 0.05343019
#
# Stress axis : x y z
#
# Youngs Moduli (GPa) = 106.98255 125.54621 22.99066
#
# Poissons Ratio (x) = 0.28845 -0.06892
# Poissons Ratio (y) = 0.24580 0.10091
# Poissons Ratio (z) = -0.32069 0.55104
#
# Static dielectric constant tensor:
#      x y z
#    x 2.014980 0.000000 0.000000 
#    y 0.000000 2.032930 0.000000 
#    z 0.000000 0.000000 2.010010 
# 
# From -- ./inp_files/3647.got.cif
#   From: 2010.05.17/outbox.cif.g08.bks.cpg/sg45_2_cif.got.tgz:3647.got - 2010.06.03 19:51:22.
