data_PCOD9376631
_publ_section_title
;
Structure prediction by ZEFSAII (Michael W. Deem and Ramdas Pophale) SiO2 
 PCOD9376631
Probable space group: I B A 2
;
_chemical_formula_sum "Si O2"
_cell_formula_units_Z 60
_cell_length_a 14.959097
_cell_length_b 19.727835
_cell_length_c 8.651172
_cell_angle_alpha 90.000000
_cell_angle_beta 90.000000
_cell_angle_gamma 90.000000
_cell_volume 2553.052537
_symmetry_space_group_name_H-M "I B A 2"
_symmetry_group_IT_number 45
_symmetry_cell_setting 'orthorhombic'
loop_
_space_group_symop_operation_xyz
x,y,z
-x,-y,z
-x,y,1/2+z
x,-y,1/2+z
1/2+x,1/2+y,1/2+z
1/2-x,1/2-y,1/2+z
1/2-x,1/2+y,z
1/2+x,1/2-y,z
loop_
_atom_site_type_symbol
_atom_site_label
_atom_site_fract_x
_atom_site_fract_y
_atom_site_fract_z
Si Si1 0.500000 0.500000 0.863180
Si Si2 0.842188 0.104732 0.943405
Si Si3 0.459873 0.811099 0.987301
Si Si4 0.760534 0.901454 0.990632
Si Si5 0.928849 0.221295 0.766910
Si Si6 0.601612 0.371304 0.763694
Si Si7 0.781636 0.485763 0.263690
Si Si8 0.596789 0.881663 0.181384
O O1 0.571616 0.553108 0.937965
O O2 0.563279 0.447613 0.774584
O O3 0.858815 0.165257 0.821980
O O4 0.754868 0.064474 0.895581
O O5 0.837703 0.134554 0.113752
O O6 0.409921 0.765475 0.115017
O O7 0.507295 0.869898 0.086183
O O8 0.541036 0.768315 0.909951
O O9 0.407701 0.839298 0.839433
O O10 0.845891 0.862456 0.925171
O O11 0.725021 0.941113 0.838255
O O12 0.779787 0.960548 0.118753
O O13 0.681899 0.861155 0.074676
O O14 0.019770 0.178719 0.738609
O O15 0.879210 0.459828 0.217101
#
# Coordination Sequence:
#
# PCOD9376631 Si02
#       8
#     4   8   8   8   8   8   8   8
#     4  10  22  30  60  98 138 192 218 248 312 412
#     4  11  21  36  58 100 138 186 220 257 327 404
#     4  10  20  49  66  86 123 169 238 301 338 373
#     4  10  22  41  64  97 142 173 209 274 349 425
#     4  10  22  37  69  94 131 176 233 287 315 391
#     4  11  21  36  60 100 143 182 222 259 329 407
#     4  10  22  41  62  97 139 174 206 272 345 418
#     4   9  24  44  71  94 121 178 224 287 360 410
#
# _framework density 23.501279
#
# number of rings (size 3 to 8) (size 9 to 14) (size 15 to 20)
#    0.800    1.067    2.667    1.200    1.867    1.067 
#    9.600    6.000    0.000    0.000    0.000    0.000 
#    0.000    0.000    0.000    0.000    0.000    0.000 
#
# Total GULP energy -167254.250173 kJ/mol
# GULP energy per Si atom -5575.141672 kJ/mol
# Density = 2.344779 g / cm^3
# Si number density = 23.501279 Si / 1000 Ang^3
#
#
#
# Elastic Constant Matrix: (Units=GPa)
#
#
# Indices 1 2 3 4 5 6 
#
# 1 53.9974 19.7103 23.4305 0.0000 0.0000 0.0000
# 2 19.7103 27.0430 3.6628 0.0000 0.0000 0.0000
# 3 23.4305 3.6628 107.7462 0.0000 0.0000 0.0000
# 4 0.0000 0.0000 0.0000 15.7175 0.0000 0.0000
# 5 0.0000 0.0000 0.0000 0.0000 12.2114 0.0000
# 6 0.0000 0.0000 0.0000 0.0000 0.0000 20.1696
#
#
#
# Elastic Compliance Matrix: (Units=1/GPa)
#
#
# Indices 1 2 3 4 5 6 
#
# 1 0.028080 -0.019730 -0.005436 0.000000 0.000000 0.000000
# 2 -0.019730 0.051012 0.002556 0.000000 0.000000 0.000000
# 3 -0.005436 0.002556 0.010376 0.000000 0.000000 0.000000
# 4 0.000000 0.000000 0.000000 0.063623 0.000000 0.000000
# 5 0.000000 0.000000 0.000000 0.000000 0.081891 0.000000
# 6 0.000000 0.000000 0.000000 0.000000 0.000000 0.049580
#
#
# Mechanical properties :
#
#
# Convention : Reuss Voigt Hill
#
# Bulk Modulus (GPa) = 22.59888 31.37710 26.98799
# Shear Modulus (GPa) = 14.51253 19.08523 16.79888
#
# Velocity S-wave (km/s) = 2.48769 2.85282 2.67649
# Velocity P-wave (km/s) = 4.22947 4.92256 4.58912
#
# Compressibility (1/GPa) = 0.04424998
#
# Stress axis : x y z
#
# Youngs Moduli (GPa) = 35.61273 19.60318 96.37452
#
# Poissons Ratio (x) = 0.38677 0.52385
# Poissons Ratio (y) = 0.70263 -0.24636
# Poissons Ratio (z) = 0.19357 -0.05011
#
# Static dielectric constant tensor:
#      x y z
#    x 1.892150 0.000000 0.000000 
#    y 0.000000 1.936970 0.000000 
#    z 0.000000 0.000000 1.941700 
# 
# From -- ./inp_files/1894.got.cif
#   From: 2010.05.17/outbox.cif.g08.bks.cpg/sg45_1_cif.got.tgz:1894.got - 2010.06.03 19:51:22.
