data_PCOD9376203
_publ_section_title
;
Structure prediction by ZEFSAII (Michael W. Deem and Ramdas Pophale) SiO2 
 PCOD9376203
Probable space group: I B A 2
;
_chemical_formula_sum "Si O2"
_cell_formula_units_Z 52
_cell_length_a 13.468161
_cell_length_b 18.177213
_cell_length_c 8.293735
_cell_angle_alpha 90.000000
_cell_angle_beta 90.000000
_cell_angle_gamma 90.000000
_cell_volume 2030.419382
_symmetry_space_group_name_H-M "I B A 2"
_symmetry_group_IT_number 45
_symmetry_cell_setting 'orthorhombic'
loop_
_space_group_symop_operation_xyz
x,y,z
-x,-y,z
-x,y,1/2+z
x,-y,1/2+z
1/2+x,1/2+y,1/2+z
1/2-x,1/2-y,1/2+z
1/2-x,1/2+y,z
1/2+x,1/2-y,z
loop_
_atom_site_type_symbol
_atom_site_label
_atom_site_fract_x
_atom_site_fract_y
_atom_site_fract_z
Si Si1 0.136655 0.877395 0.937240
Si Si2 0.367286 0.098501 0.811429
Si Si3 0.000000 0.000000 0.497160
Si Si4 0.642010 0.148065 0.640361
Si Si5 0.862687 0.567970 0.945665
Si Si6 0.660430 0.687668 0.263856
Si Si7 0.369175 0.365681 0.604086
O O1 0.252358 0.896611 0.947494
O O2 0.113880 0.828847 0.779319
O O3 0.104968 0.850528 0.113628
O O4 0.079587 0.952335 0.903219
O O5 0.401807 0.081998 0.626682
O O6 0.264269 0.143900 0.780304
O O7 0.359217 0.017417 0.894048
O O8 0.409356 0.144832 0.965581
O O9 0.068210 0.939156 0.580239
O O10 0.589510 0.107277 0.789148
O O11 0.666876 0.229658 0.701876
O O12 0.752086 0.113373 0.611917
O O13 0.615158 0.682037 0.442831
#
# Coordination Sequence:
#
# PCOD9376203 Si02
#       7
#     8   8   4   8   8   8   8
#     4  10  23  34  53  76 111 152 204 254 294 357
#     4  10  19  30  50  72 103 136 187 239 295 359
#     4  12  24  40  58  88 124 168 218 256 300 372
#     4  10  21  36  52  77 109 149 204 254 309 368
#     4  10  19  33  50  77 105 146 194 240 301 352
#     4  10  23  35  54  77 106 158 204 256 313 364
#     4  10  24  35  55  77 110 154 208 259 301 358
#
# _framework density 25.610469999999999
#
# number of rings (size 3 to 8) (size 9 to 14) (size 15 to 20)
#    0.000    1.846    1.538    2.308   23.692    0.000 
#    0.000    0.000    0.000    0.000    0.000    0.000 
#    0.000    0.000    0.000   11.077    0.000    0.000 
#
# Total GULP energy -144966.652159 kJ/mol
# GULP energy per Si atom -5575.640468 kJ/mol
# Density = 2.555218 g / cm^3
# Si number density = 25.610470 Si / 1000 Ang^3
#
#
#
# Elastic Constant Matrix: (Units=GPa)
#
#
# Indices 1 2 3 4 5 6 
#
# 1 78.2560 21.3467 52.6505 0.0000 0.0000 0.0000
# 2 21.3467 103.2501 62.7919 0.0000 0.0000 0.0000
# 3 52.6505 62.7919 308.8570 0.0000 0.0000 0.0000
# 4 0.0000 0.0000 0.0000 -21.8300 0.0000 0.0000
# 5 0.0000 0.0000 0.0000 0.0000 73.6894 0.0000
# 6 0.0000 0.0000 0.0000 0.0000 0.0000 9.2639
#
#
#
# Elastic Compliance Matrix: (Units=1/GPa)
#
#
# Indices 1 2 3 4 5 6 
#
# 1 0.014700 -0.001729 -0.002154 0.000000 0.000000 0.000000
# 2 -0.001729 0.011255 -0.001993 0.000000 0.000000 0.000000
# 3 -0.002154 -0.001993 0.004010 0.000000 0.000000 0.000000
# 4 0.000000 0.000000 0.000000 -0.045809 0.000000 0.000000
# 5 0.000000 0.000000 0.000000 0.000000 0.013570 0.000000
# 6 0.000000 0.000000 0.000000 0.000000 0.000000 0.107946
#
#
# Mechanical properties :
#
#
# Convention : Reuss Voigt Hill
#
# Bulk Modulus (GPa) = 54.91056 84.88237 69.89647
# Shear Modulus (GPa) = 40.48678 35.79625 38.14151
#
# Velocity S-wave (km/s) = 3.98033 3.74266 3.86332
# Velocity P-wave (km/s) = 6.52773 7.20363 6.87399
#
# Compressibility (1/GPa) = 0.01821143
#
# Stress axis : x y z
#
# Youngs Moduli (GPa) = 68.02898 88.84940 249.35982
#
# Poissons Ratio (x) = 0.15362 0.53720
# Poissons Ratio (y) = 0.11762 0.49709
# Poissons Ratio (z) = 0.14656 0.17712
#
# Static dielectric constant tensor:
#      x y z
#    x 2.000720 0.000000 0.000000 
#    y 0.000000 1.974110 0.000000 
#    z 0.000000 0.000000 2.136820 
# 
# From -- ./inp_files/2313.got.cif
#   From: 2010.05.17/outbox.cif.g08.bks.cpg/sg45_2_cif.got.tgz:2313.got - 2010.06.03 19:51:22.
