data_PCOD9376452
_publ_section_title
;
Structure prediction by ZEFSAII (Michael W. Deem and Ramdas Pophale) SiO2 
 PCOD9376452
Probable space group: I B A 2
;
_chemical_formula_sum "Si O2"
_cell_formula_units_Z 56
_cell_length_a 13.736773
_cell_length_b 10.104402
_cell_length_c 16.215724
_cell_angle_alpha 90.000000
_cell_angle_beta 90.000000
_cell_angle_gamma 90.000000
_cell_volume 2250.772921
_symmetry_space_group_name_H-M "I B A 2"
_symmetry_group_IT_number 45
_symmetry_cell_setting 'orthorhombic'
loop_
_space_group_symop_operation_xyz
x,y,z
-x,-y,z
-x,y,1/2+z
x,-y,1/2+z
1/2+x,1/2+y,1/2+z
1/2-x,1/2-y,1/2+z
1/2-x,1/2+y,z
1/2+x,1/2-y,z
loop_
_atom_site_type_symbol
_atom_site_label
_atom_site_fract_x
_atom_site_fract_y
_atom_site_fract_z
Si Si1 0.168010 0.538737 0.245180
Si Si2 0.173034 0.711776 0.638942
Si Si3 0.500000 0.500000 0.819984
Si Si4 0.533381 0.714625 0.190107
Si Si5 0.305880 0.388138 0.891646
Si Si6 0.878634 0.441195 0.484972
Si Si7 0.000000 0.500000 0.848227
Si Si8 0.854792 0.284141 0.045326
O O1 0.206543 0.425563 0.183178
O O2 0.087858 0.647738 0.215030
O O3 0.247718 0.612244 0.303132
O O4 0.093459 0.449406 0.300706
O O5 0.127505 0.668734 0.552451
O O6 0.263400 0.799083 0.608907
O O7 0.083330 0.776049 0.685681
O O8 0.448979 0.607373 0.760085
O O9 0.412269 0.442614 0.873738
O O10 0.576244 0.687213 0.098769
O O11 0.228384 0.469574 0.947167
O O12 0.322533 0.266973 0.955431
O O13 0.947849 0.398583 0.410314
O O14 0.906239 0.576280 0.530764
#
# Coordination Sequence:
#
# PCOD9376452 Si02
#       8
#     8   8   4   8   8   8   4   8
#     4  11  22  44  71 103 131 180 241 297 343 404
#     4  11  23  44  71 104 132 183 239 296 343 415
#     4  12  30  46  66 108 150 194 228 286 364 432
#     4  12  26  43  73 100 141 187 237 293 353 421
#     4  10  27  45  66  99 145 187 231 284 354 426
#     4  10  22  42  68 103 137 180 237 289 350 417
#     4  10  20  36  68  98 134 164 236 296 342 394
#     4  11  25  42  72 101 140 187 225 294 350 425
#
# _framework density 24.880341999999999
#
# number of rings (size 3 to 8) (size 9 to 14) (size 15 to 20)
#    0.000    1.143    2.857    1.714    6.000    4.000 
#    0.000    0.000    0.000    0.000    0.000    0.000 
#    0.000    0.000    0.000    0.000    0.000    0.000 
#
# Total GULP energy -156148.368341 kJ/mol
# GULP energy per Si atom -5576.727441 kJ/mol
# Density = 2.482371 g / cm^3
# Si number density = 24.880342 Si / 1000 Ang^3
#
#
#
# Elastic Constant Matrix: (Units=GPa)
#
#
# Indices 1 2 3 4 5 6 
#
# 1 124.1760 12.0786 18.2523 0.0000 0.0000 0.0000
# 2 12.0786 44.2713 6.6949 0.0000 0.0000 0.0000
# 3 18.2523 6.6949 66.9850 0.0000 0.0000 0.0000
# 4 0.0000 0.0000 0.0000 18.3435 0.0000 0.0000
# 5 0.0000 0.0000 0.0000 0.0000 13.9608 0.0000
# 6 0.0000 0.0000 0.0000 0.0000 0.0000 31.0058
#
#
#
# Elastic Compliance Matrix: (Units=1/GPa)
#
#
# Indices 1 2 3 4 5 6 
#
# 1 0.008562 -0.002014 -0.002132 0.000000 0.000000 0.000000
# 2 -0.002014 0.023408 -0.001791 0.000000 0.000000 0.000000
# 3 -0.002132 -0.001791 0.015689 0.000000 0.000000 0.000000
# 4 0.000000 0.000000 0.000000 0.054515 0.000000 0.000000
# 5 0.000000 0.000000 0.000000 0.000000 0.071629 0.000000
# 6 0.000000 0.000000 0.000000 0.000000 0.000000 0.032252
#
#
# Mechanical properties :
#
#
# Convention : Reuss Voigt Hill
#
# Bulk Modulus (GPa) = 27.94360 34.38710 31.16535
# Shear Modulus (GPa) = 21.75262 25.88910 23.82086
#
# Velocity S-wave (km/s) = 2.96005 3.22925 3.09757
# Velocity P-wave (km/s) = 4.78937 5.26831 5.03454
#
# Compressibility (1/GPa) = 0.03578637
#
# Stress axis : x y z
#
# Youngs Moduli (GPa) = 116.79089 42.72002 63.74058
#
# Poissons Ratio (x) = 0.08602 0.13588
# Poissons Ratio (y) = 0.23518 0.11415
# Poissons Ratio (z) = 0.24898 0.07651
#
# Static dielectric constant tensor:
#      x y z
#    x 2.060090 0.000000 0.000000 
#    y 0.000000 1.930250 0.000000 
#    z 0.000000 0.000000 2.085550 
# 
# From -- ./inp_files/6201.got.cif
#   From: 2010.05.17/outbox.cif.g08.bks.cpg/sg45_4_cif.got.tgz:6201.got - 2010.06.03 19:51:22.
