data_PCOD9376599
_publ_section_title
;
Structure prediction by ZEFSAII (Michael W. Deem and Ramdas Pophale) SiO2 
 PCOD9376599
Probable space group: I B A 2
;
_chemical_formula_sum "Si O2"
_cell_formula_units_Z 64
_cell_length_a 8.839701
_cell_length_b 27.670082
_cell_length_c 10.900432
_cell_angle_alpha 90.000000
_cell_angle_beta 90.000000
_cell_angle_gamma 90.000000
_cell_volume 2666.193907
_symmetry_space_group_name_H-M "I B A 2"
_symmetry_group_IT_number 45
_symmetry_cell_setting 'orthorhombic'
loop_
_space_group_symop_operation_xyz
x,y,z
-x,-y,z
-x,y,1/2+z
x,-y,1/2+z
1/2+x,1/2+y,1/2+z
1/2-x,1/2-y,1/2+z
1/2-x,1/2+y,z
1/2+x,1/2-y,z
loop_
_atom_site_type_symbol
_atom_site_label
_atom_site_fract_x
_atom_site_fract_y
_atom_site_fract_z
Si Si1 0.988118 0.744734 0.043610
Si Si2 0.643951 0.976315 0.578336
Si Si3 0.556516 0.911556 0.248513
Si Si4 0.885348 0.044205 0.693583
Si Si5 0.616419 0.656992 0.411618
Si Si6 0.572846 0.140878 0.491285
Si Si7 0.726271 0.690553 0.158570
Si Si8 0.121666 0.900062 0.019139
O O1 0.874113 0.719849 0.135824
O O2 0.105409 0.768547 0.133666
O O3 0.930241 0.789944 0.962321
O O4 0.045825 0.698214 0.969198
O O5 0.562079 0.953335 0.700192
O O6 0.740618 0.936248 0.510304
O O7 0.500000 0.000000 0.510582
O O8 0.776466 0.014501 0.601646
O O9 0.736119 0.927772 0.254449
O O10 0.498787 0.888102 0.376163
O O11 0.532750 0.875947 0.129869
O O12 0.005101 0.078750 0.622485
O O13 0.000000 0.000000 0.748725
O O14 0.746666 0.634843 0.494731
O O15 0.695758 0.664524 0.283615
O O16 0.483550 0.617439 0.407590
O O17 0.699144 0.649950 0.057495
#
# Coordination Sequence:
#
# PCOD9376599 Si02
#       8
#     8   8   8   8   8   8   8   8
#     4  11  25  44  65 101 137 191 248 310 379 441
#     4   9  19  40  73 103 145 191 241 311 378 453
#     4  11  24  44  73 110 148 201 250 312 386 454
#     4   9  19  42  75 102 149 191 250 313 384 462
#     4  11  24  41  67  99 143 195 253 311 380 456
#     4  12  24  44  72 106 151 197 257 313 377 466
#     4  11  25  43  67  97 144 186 252 308 376 452
#     4  10  20  42  65 101 139 190 247 298 380 453
#
# _framework density 24.004256999999999
#
# number of rings (size 3 to 8) (size 9 to 14) (size 15 to 20)
#    0.000    1.500    2.500    2.250    3.500    0.000 
#    6.750    5.625    5.500    0.000    0.000    0.000 
#    0.000    0.000    0.000    0.000    0.000    0.000 
#
# Total GULP energy -178216.360216 kJ/mol
# GULP energy per Si atom -5569.261257 kJ/mol
# Density = 2.394962 g / cm^3
# Si number density = 24.004257 Si / 1000 Ang^3
#
#
#
# Elastic Constant Matrix: (Units=GPa)
#
#
# Indices 1 2 3 4 5 6 
#
# 1 145.0692 60.4955 15.7623 0.0003 0.0000 0.0000
# 2 60.4955 133.7069 29.6448 0.0005 0.0000 0.0000
# 3 15.7623 29.6448 79.8584 0.0020 -0.0005 0.0003
# 4 0.0003 0.0005 0.0020 0.7596 -0.0002 -0.0001
# 5 0.0000 0.0000 -0.0005 -0.0002 24.7716 0.0000
# 6 0.0000 0.0000 0.0003 -0.0001 0.0000 73.7160
#
#
#
# Elastic Compliance Matrix: (Units=1/GPa)
#
#
# Indices 1 2 3 4 5 6 
#
# 1 0.008502 -0.003786 -0.000273 0.000000 0.000000 0.000000
# 2 -0.003786 0.009836 -0.002904 0.000003 0.000000 0.000000
# 3 -0.000273 -0.002904 0.013654 -0.000035 0.000000 0.000000
# 4 0.000000 0.000003 -0.000035 1.316543 0.000010 0.000002
# 5 0.000000 0.000000 0.000000 0.000010 0.040369 0.000000
# 6 0.000000 0.000000 0.000000 0.000002 0.000000 0.013566
#
#
# Mechanical properties :
#
#
# Convention : Reuss Voigt Hill
#
# Bulk Modulus (GPa) = 55.35180 63.38218 59.36699
# Shear Modulus (GPa) = 3.51514 36.69823 20.10668
#
# Velocity S-wave (km/s) = 1.21143 3.91426 2.89732
# Velocity P-wave (km/s) = 5.00659 6.84766 5.99818
#
# Compressibility (1/GPa) = 0.01806626
#
# Stress axis : x y z
#
# Youngs Moduli (GPa) = 117.62280 101.66792 73.23879
#
# Poissons Ratio (x) = 0.38493 0.01996
# Poissons Ratio (y) = 0.44534 0.21268
# Poissons Ratio (z) = 0.03206 0.29524
#
# Static dielectric constant tensor:
#      x y z
#    x 1.961000 0.000000 0.000000 
#    y 0.000000 1.959590 0.000000 
#    z 0.000000 0.000000 1.932100 
# 
# From -- ./inp_files/3408.got.cif
#   From: 2010.05.17/outbox.cif.g08.bks.cpg/sg45_2_cif.got.tgz:3408.got - 2010.06.03 19:51:22.
