data_PCOD9376201
_publ_section_title
;
Structure prediction by ZEFSAII (Michael W. Deem and Ramdas Pophale) SiO2 
 PCOD9376201
Probable space group: I B A 2
;
_chemical_formula_sum "Si O2"
_cell_formula_units_Z 40
_cell_length_a 19.693012
_cell_length_b 8.470568
_cell_length_c 9.023803
_cell_angle_alpha 90.000000
_cell_angle_beta 90.000000
_cell_angle_gamma 90.000000
_cell_volume 1505.269578
_symmetry_space_group_name_H-M "I B A 2"
_symmetry_group_IT_number 45
_symmetry_cell_setting 'orthorhombic'
loop_
_space_group_symop_operation_xyz
x,y,z
-x,-y,z
-x,y,1/2+z
x,-y,1/2+z
1/2+x,1/2+y,1/2+z
1/2-x,1/2-y,1/2+z
1/2-x,1/2+y,z
1/2+x,1/2-y,z
loop_
_atom_site_type_symbol
_atom_site_label
_atom_site_fract_x
_atom_site_fract_y
_atom_site_fract_z
Si Si1 0.302531 0.760147 0.895570
Si Si2 0.395171 0.007034 0.795989
Si Si3 0.821293 0.807880 0.212838
Si Si4 0.544776 0.328130 0.361655
Si Si5 0.411737 0.680474 0.688825
O O1 0.360319 0.894142 0.917997
O O2 0.233879 0.838710 0.838700
O O3 0.335843 0.665787 0.756311
O O4 0.296309 0.665224 0.046924
O O5 0.418066 0.874073 0.680572
O O6 0.448423 0.136415 0.849887
O O7 0.335583 0.120162 0.734966
O O8 0.896068 0.877493 0.245210
O O9 0.567865 0.375459 0.525832
O O10 0.468757 0.363488 0.310702
#
# Coordination Sequence:
#
# PCOD9376201 Si02
#       5
#     8   8   8   8   8
#     4  10  20  32  47  68  97 129 163 197 237 285
#     4   8  21  30  50  66 103 126 162 190 245 280
#     4  10  20  32  47  68  97 129 163 197 237 285
#     4  10  19  30  47  70  98 127 157 194 240 288
#     4  10  19  30  47  70  98 127 157 194 240 288
#
# _framework density 26.573312999999999
#
# number of rings (size 3 to 8) (size 9 to 14) (size 15 to 20)
#    2.400    0.000    0.000    4.200    0.000    1.600 
#    0.000    0.000    0.000    0.000    0.000    1.400 
#    0.000    9.600    0.000    0.000    0.000    0.000 
#
# Total GULP energy -111588.079796 kJ/mol
# GULP energy per Si atom -5579.403990 kJ/mol
# Density = 2.651283 g / cm^3
# Si number density = 26.573313 Si / 1000 Ang^3
#
#
#
# Elastic Constant Matrix: (Units=GPa)
#
#
# Indices 1 2 3 4 5 6 
#
# 1 135.4975 4.5706 51.5553 0.0000 0.0000 0.0000
# 2 4.5706 55.1710 -7.2484 0.0000 0.0000 0.0000
# 3 51.5553 -7.2484 163.4728 0.0000 0.0000 0.0000
# 4 0.0000 0.0000 0.0000 36.4036 0.0000 0.0000
# 5 0.0000 0.0000 0.0000 0.0000 33.1474 0.0000
# 6 0.0000 0.0000 0.0000 0.0000 0.0000 59.1239
#
#
#
# Elastic Compliance Matrix: (Units=1/GPa)
#
#
# Indices 1 2 3 4 5 6 
#
# 1 0.008447 -0.001056 -0.002711 0.000000 0.000000 0.000000
# 2 -0.001056 0.018364 0.001147 0.000000 0.000000 0.000000
# 3 -0.002711 0.001147 0.007023 0.000000 0.000000 0.000000
# 4 0.000000 0.000000 0.000000 0.027470 0.000000 0.000000
# 5 0.000000 0.000000 0.000000 0.000000 0.030168 0.000000
# 6 0.000000 0.000000 0.000000 0.000000 0.000000 0.016914
#
#
# Mechanical properties :
#
#
# Convention : Reuss Voigt Hill
#
# Bulk Modulus (GPa) = 34.97135 50.21071 42.59103
# Shear Modulus (GPa) = 40.59873 46.08588 43.34231
#
# Velocity S-wave (km/s) = 3.91295 4.16900 4.04300
# Velocity P-wave (km/s) = 5.79688 6.48924 6.15281
#
# Compressibility (1/GPa) = 0.02859484
#
# Stress axis : x y z
#
# Youngs Moduli (GPa) = 118.38104 54.45532 142.38840
#
# Poissons Ratio (x) = 0.05750 0.38600
# Poissons Ratio (y) = 0.12501 -0.16336
# Poissons Ratio (z) = 0.32092 -0.06248
#
# Static dielectric constant tensor:
#      x y z
#    x 2.009090 0.000000 0.000000 
#    y 0.000000 2.441030 0.000000 
#    z 0.000000 0.000000 2.014780 
# 
# From -- ./inp_files/1759.got.cif
#   From: 2010.05.17/outbox.cif.g08.bks.cpg/sg45_1_cif.got.tgz:1759.got - 2010.06.03 19:51:22.
