data_PCOD9376006
_publ_section_title
;
Structure prediction by ZEFSAII (Michael W. Deem and Ramdas Pophale) SiO2 
 PCOD9376006
Probable space group: I M M 2
;
_chemical_formula_sum "Si O2"
_cell_formula_units_Z 32
_cell_length_a 15.000000
_cell_length_b 9.000000
_cell_length_c 24.000000
_cell_angle_alpha 90.000000
_cell_angle_beta 90.000000
_cell_angle_gamma 90.000000
_cell_volume 3240.000000
_symmetry_space_group_name_H-M "I M M 2"
_symmetry_group_IT_number 44
_symmetry_cell_setting 'orthorhombic'
loop_
_space_group_symop_operation_xyz
x,y,z
-x,-y,z
-x,y,z
x,-y,z
1/2+x,1/2+y,1/2+z
1/2-x,1/2-y,1/2+z
1/2-x,1/2+y,1/2+z
1/2+x,1/2-y,1/2+z
loop_
_atom_site_type_symbol
_atom_site_label
_atom_site_fract_x
_atom_site_fract_y
_atom_site_fract_z
Si Si1 0.158698 0.176141 0.376350
Si Si2 0.265713 0.318949 0.558703
Si Si3 0.598005 0.170115 0.771128
Si Si4 0.097312 0.673081 0.736508
Si Si5 0.398578 0.821075 0.992267
Si Si6 0.780592 0.176492 0.180909
Si Si7 0.405308 0.319953 0.469290
Si Si8 0.654467 0.322767 0.348134
O O1 0.096419 0.235713 0.327394
O O2 0.134523 0.248504 0.435116
O O3 0.253633 0.236279 0.355639
O O4 0.157234 0.000000 0.380311
O O5 0.269013 0.500000 0.560389
O O6 0.165529 0.278069 0.542842
O O7 0.299074 0.269403 0.618646
O O8 0.325892 0.265435 0.507611
O O9 0.500000 0.172894 0.745307
O O10 0.666594 0.237950 0.728015
O O11 0.620882 0.000000 0.785202
O O12 0.103898 0.500000 0.754257
O O13 0.176430 0.697809 0.693591
O O14 0.109687 0.771781 0.791278
O O15 0.000000 0.697172 0.711798
O O16 0.500000 0.780096 0.002361
O O17 0.392655 0.000000 0.985328
O O18 0.800259 0.000000 0.185292
O O19 0.500000 0.269843 0.492015
O O20 0.402301 0.500000 0.471633
O O21 0.397767 0.283269 0.404482
O O22 0.668461 0.500000 0.347718
#
# Coordination Sequence:
#
# PCOD9376006 Si02
#       8
#     8   8   8   8   8   8   8   8
#     4  12  23  36  58  87 118 150 186 234 295 353
#     4   9  18  34  55  83 115 148 191 235 277 327
#     4  11  24  41  61  85 115 152 192 237 291 350
#     4  10  21  36  54  82 120 154 188 234 287 340
#     4  10  20  36  59  86 116 152 193 235 281 337
#     4  10  21  37  59  85 115 154 196 239 285 334
#     4   9  17  30  52  82 112 141 178 228 278 325
#     4  11  20  34  58  84 113 147 189 235 283 347
#
# _framework density 9.8765429999999999
#
# number of rings (size 3 to 8) (size 9 to 14) (size 15 to 20)
#    0.000    1.750    2.500    2.625    0.000    4.500 
#    0.000    4.375    0.000    0.000    0.000    1.750 
#    0.000    0.000    0.000    0.000    0.000    0.000 
#
# Total GULP energy -178463.568547 kJ/mol
# GULP energy per Si atom -5576.986517 kJ/mol
# Density = 0.985406 g / cm^3
# Si number density = 9.876543 Si / 1000 Ang^3
#
#
#
# Elastic Constant Matrix: (Units=GPa)
#
#
# Indices 1 2 3 4 5 6 
#
# 1 80.3963 12.6372 -3.9725 0.0000 0.0000 0.0000
# 2 12.6372 8.9473 -5.6339 0.0000 0.0000 0.0000
# 3 -3.9725 -5.6339 40.3565 0.0000 0.0000 0.0000
# 4 0.0000 0.0000 0.0000 14.8384 0.0000 0.0000
# 5 0.0000 0.0000 0.0000 0.0000 -27.7135 0.0000
# 6 0.0000 0.0000 0.0000 0.0000 0.0000 5.7589
#
#
#
# Elastic Compliance Matrix: (Units=1/GPa)
#
#
# Indices 1 2 3 4 5 6 
#
# 1 0.016099 -0.023836 -0.001743 0.000000 0.000000 0.000000
# 2 -0.023836 0.157827 0.019687 0.000000 0.000000 0.000000
# 3 -0.001743 0.019687 0.027356 0.000000 0.000000 0.000000
# 4 0.000000 0.000000 0.000000 0.067393 0.000000 0.000000
# 5 0.000000 0.000000 0.000000 0.000000 -0.036083 0.000000
# 6 0.000000 0.000000 0.000000 0.000000 0.000000 0.173645
#
#
# Mechanical properties :
#
#
# Convention : Reuss Voigt Hill
#
# Bulk Modulus (GPa) = 5.27708 15.08465 10.18087
# Shear Modulus (GPa) = 10.39101 7.02137 8.70619
#
# Velocity S-wave (km/s) = 2.29605 1.88740 2.10168
# Velocity P-wave (km/s) = 3.11552 3.52177 3.32486
#
# Compressibility (1/GPa) = 0.18949874
#
# Stress axis : x y z
#
# Youngs Moduli (GPa) = 62.11607 6.33606 36.55510
#
# Poissons Ratio (x) = 0.15102 0.06371
# Poissons Ratio (y) = 1.48057 -0.71966
# Poissons Ratio (z) = 0.10826 -0.12474
#
# Static dielectric constant tensor:
#      x y z
#    x 1.773680 0.000000 0.000000 
#    y 0.000000 1.671190 0.000000 
#    z 0.000000 0.000000 1.677420 
# 
# From -- ./inp_files/25084.got.cif
#   From: 2010.05.17/outbox.ucp.g08.bks.cvg/sg44_13_cif.got.tgz:25084.got - 2010.06.11 16:32:36.
