data_PCOD9376217
_publ_section_title
;
Structure prediction by ZEFSAII (Michael W. Deem and Ramdas Pophale) SiO2 
 PCOD9376217
Probable space group: I B A 2
;
_chemical_formula_sum "Si O2"
_cell_formula_units_Z 60
_cell_length_a 8.018509
_cell_length_b 23.221773
_cell_length_c 13.587303
_cell_angle_alpha 90.000000
_cell_angle_beta 90.000000
_cell_angle_gamma 90.000000
_cell_volume 2530.010111
_symmetry_space_group_name_H-M "I B A 2"
_symmetry_group_IT_number 45
_symmetry_cell_setting 'orthorhombic'
loop_
_space_group_symop_operation_xyz
x,y,z
-x,-y,z
-x,y,1/2+z
x,-y,1/2+z
1/2+x,1/2+y,1/2+z
1/2-x,1/2-y,1/2+z
1/2-x,1/2+y,z
1/2+x,1/2-y,z
loop_
_atom_site_type_symbol
_atom_site_label
_atom_site_fract_x
_atom_site_fract_y
_atom_site_fract_z
Si Si1 0.736804 0.415752 0.053260
Si Si2 0.238730 0.224870 0.533789
Si Si3 0.575425 0.674409 0.436712
Si Si4 0.078460 0.380451 0.751322
Si Si5 0.786996 0.953232 0.598501
Si Si6 0.920619 0.624573 0.961546
Si Si7 0.500000 0.000000 0.739774
Si Si8 0.695457 0.344350 0.716171
O O1 0.800764 0.387645 0.157260
O O2 0.671870 0.480857 0.070586
O O3 0.591653 0.385878 0.991988
O O4 0.901245 0.405840 0.983673
O O5 0.293368 0.286934 0.498504
O O6 0.398707 0.182537 0.525925
O O7 0.170333 0.209670 0.642563
O O8 0.100334 0.202649 0.458290
O O9 0.620327 0.667814 0.322858
O O10 0.120529 0.350725 0.853427
O O11 0.073292 0.446315 0.795613
O O12 0.894276 0.356421 0.727535
O O13 0.715601 0.919179 0.505137
O O14 0.875766 0.903564 0.665576
O O15 0.630106 0.969400 0.668690
#
# Coordination Sequence:
#
# PCOD9376217 Si02
#       8
#     8   8   8   8   8   8   4   8
#     4  11  20  37  64 104 132 179 230 270 343 405
#     4  11  27  47  65  99 136 173 236 296 337 411
#     4  12  27  45  73  96 133 190 234 282 362 411
#     4  10  19  31  63  94 134 168 215 270 327 390
#     4   9  17  34  61 101 138 171 216 282 318 403
#     4  11  19  36  63  95 135 172 220 275 336 399
#     4   8  14  26  48  96 126 162 208 264 306 376
#     4  10  22  43  69  97 142 169 225 293 344 407
#
# _framework density 23.715320999999999
#
# number of rings (size 3 to 8) (size 9 to 14) (size 15 to 20)
#    0.000    1.600    6.667    0.800    1.867    4.267 
#    0.000    2.667    0.000    4.800    0.000    0.000 
#    0.000    0.000    0.000    0.000    0.000    0.000 
#
# Total GULP energy -167170.241081 kJ/mol
# GULP energy per Si atom -5572.341369 kJ/mol
# Density = 2.366134 g / cm^3
# Si number density = 23.715321 Si / 1000 Ang^3
#
#
#
# Elastic Constant Matrix: (Units=GPa)
#
#
# Indices 1 2 3 4 5 6 
#
# 1 77.8291 13.2997 21.7534 0.0000 0.0000 0.0000
# 2 13.2997 87.1783 47.1070 -0.0001 0.0000 0.0000
# 3 21.7534 47.1070 153.2477 -0.0003 0.0001 -0.0001
# 4 0.0000 -0.0001 -0.0003 17.5505 0.0001 0.0000
# 5 0.0000 0.0000 0.0001 0.0001 31.6441 0.0000
# 6 0.0000 0.0000 -0.0001 0.0000 0.0000 18.9078
#
#
#
# Elastic Compliance Matrix: (Units=1/GPa)
#
#
# Indices 1 2 3 4 5 6 
#
# 1 0.013488 -0.001227 -0.001537 0.000000 0.000000 0.000000
# 2 -0.001227 0.013867 -0.004088 0.000000 0.000000 0.000000
# 3 -0.001537 -0.004088 0.008000 0.000000 0.000000 0.000000
# 4 0.000000 0.000000 0.000000 0.056978 0.000000 0.000000
# 5 0.000000 0.000000 0.000000 0.000000 0.031601 0.000000
# 6 0.000000 0.000000 0.000000 0.000000 0.000000 0.052888
#
#
# Mechanical properties :
#
#
# Convention : Reuss Voigt Hill
#
# Bulk Modulus (GPa) = 46.18973 53.61947 49.90460
# Shear Modulus (GPa) = 25.28496 29.36015 27.32256
#
# Velocity S-wave (km/s) = 3.26879 3.52237 3.39795
# Velocity P-wave (km/s) = 5.81083 6.26111 6.04017
#
# Compressibility (1/GPa) = 0.02164984
#
# Stress axis : x y z
#
# Youngs Moduli (GPa) = 74.13971 72.11289 124.99392
#
# Poissons Ratio (x) = 0.08848 0.19218
# Poissons Ratio (y) = 0.09096 0.51103
# Poissons Ratio (z) = 0.11399 0.29483
#
# Static dielectric constant tensor:
#      x y z
#    x 2.005680 0.000000 0.000000 
#    y 0.000000 1.924050 0.000000 
#    z 0.000000 0.000000 1.903050 
# 
# From -- ./inp_files/5835.got.cif
#   From: 2010.05.17/outbox.cif.g08.bks.cpg/sg45_3_cif.got.tgz:5835.got - 2010.06.03 19:51:22.
