data_PCOD9376587
_publ_section_title
;
Structure prediction by ZEFSAII (Michael W. Deem and Ramdas Pophale) SiO2 
 PCOD9376587
Probable space group: I B A 2
;
_chemical_formula_sum "Si O2"
_cell_formula_units_Z 36
_cell_length_a 12.016809
_cell_length_b 9.507907
_cell_length_c 12.618803
_cell_angle_alpha 90.000000
_cell_angle_beta 90.000000
_cell_angle_gamma 90.000000
_cell_volume 1441.757582
_symmetry_space_group_name_H-M "I B A 2"
_symmetry_group_IT_number 45
_symmetry_cell_setting 'orthorhombic'
loop_
_space_group_symop_operation_xyz
x,y,z
-x,-y,z
-x,y,1/2+z
x,-y,1/2+z
1/2+x,1/2+y,1/2+z
1/2-x,1/2-y,1/2+z
1/2-x,1/2+y,z
1/2+x,1/2-y,z
loop_
_atom_site_type_symbol
_atom_site_label
_atom_site_fract_x
_atom_site_fract_y
_atom_site_fract_z
Si Si1 0.886269 0.060778 0.076940
Si Si2 0.616772 0.253887 0.280528
Si Si3 0.021229 0.647966 0.097451
Si Si4 0.797280 0.476140 0.248410
Si Si5 0.500000 0.500000 0.884282
O O1 0.910881 0.223333 0.048374
O O2 0.785382 0.038075 0.156136
O O3 0.894412 0.982295 0.964250
O O4 0.000000 0.000000 0.129813
O O5 0.585603 0.215434 0.157297
O O6 0.722588 0.353734 0.295512
O O7 0.654560 0.100831 0.320407
O O8 0.518315 0.352123 0.325359
O O9 0.098391 0.596415 0.193664
O O10 0.000000 0.500000 0.037699
#
# Coordination Sequence:
#
# PCOD9376587 Si02
#       5
#     8   8   8   8   4
#     4  10  20  41  62  90 131 177 215 280 352 407
#     4  11  21  40  63  95 132 170 226 280 343 405
#     4  10  21  38  65  94 123 171 235 285 323 410
#     4  11  21  37  69  94 119 180 242 270 322 433
#     4  10  24  40  62  94 146 174 196 300 380 384
#
# _framework density 24.969524
#
# number of rings (size 3 to 8) (size 9 to 14) (size 15 to 20)
#    0.667    0.889    4.444    1.333    0.000    0.000 
#    4.000    3.333    0.000    0.000    0.000    0.000 
#    0.000    0.000    0.000    0.000    0.000    0.000 
#
# Total GULP energy -100217.199493 kJ/mol
# GULP energy per Si atom -5567.622194 kJ/mol
# Density = 2.491269 g / cm^3
# Si number density = 24.969524 Si / 1000 Ang^3
#
#
#
# Elastic Constant Matrix: (Units=GPa)
#
#
# Indices 1 2 3 4 5 6 
#
# 1 89.6966 31.1864 7.9312 0.0000 0.0000 0.0000
# 2 31.1864 185.9238 27.1229 0.0000 0.0000 0.0000
# 3 7.9312 27.1229 35.4129 0.0000 0.0000 0.0000
# 4 0.0000 0.0000 0.0000 22.6771 0.0000 0.0000
# 5 0.0000 0.0000 0.0000 0.0000 25.6536 0.0000
# 6 0.0000 0.0000 0.0000 0.0000 0.0000 50.0545
#
#
#
# Elastic Compliance Matrix: (Units=1/GPa)
#
#
# Indices 1 2 3 4 5 6 
#
# 1 0.011890 -0.001808 -0.001278 0.000000 0.000000 0.000000
# 2 -0.001808 0.006330 -0.004443 0.000000 0.000000 0.000000
# 3 -0.001278 -0.004443 0.031928 0.000000 0.000000 0.000000
# 4 0.000000 0.000000 0.000000 0.044097 0.000000 0.000000
# 5 0.000000 0.000000 0.000000 0.000000 0.038981 0.000000
# 6 0.000000 0.000000 0.000000 0.000000 0.000000 0.019978
#
#
# Mechanical properties :
#
#
# Convention : Reuss Voigt Hill
#
# Bulk Modulus (GPa) = 28.49892 49.27936 38.88914
# Shear Modulus (GPa) = 27.78398 35.99657 31.89028
#
# Velocity S-wave (km/s) = 3.33936 3.80099 3.57763
# Velocity P-wave (km/s) = 5.12900 6.24836 5.71615
#
# Compressibility (1/GPa) = 0.03508905
#
# Stress axis : x y z
#
# Youngs Moduli (GPa) = 84.10190 157.97775 31.32077
#
# Poissons Ratio (x) = 0.28562 0.04004
# Poissons Ratio (y) = 0.15205 0.13917
# Poissons Ratio (z) = 0.10750 0.70194
#
# Static dielectric constant tensor:
#      x y z
#    x 2.008560 0.000000 0.000000 
#    y 0.000000 2.052310 0.000000 
#    z 0.000000 0.000000 2.105540 
# 
# From -- ./inp_files/5438.got.cif
#   From: 2010.05.17/outbox.cif.g08.bks.cpg/sg45_3_cif.got.tgz:5438.got - 2010.06.03 19:51:22.
