data_PCOD9376897
_publ_section_title
;
Structure prediction by ZEFSAII (Michael W. Deem and Ramdas Pophale) SiO2 
 PCOD9376897
Probable space group: I B A 2
;
_chemical_formula_sum "Si O2"
_cell_formula_units_Z 60
_cell_length_a 11.431188
_cell_length_b 8.877275
_cell_length_c 24.456288
_cell_angle_alpha 90.000000
_cell_angle_beta 90.000000
_cell_angle_gamma 90.000000
_cell_volume 2481.770289
_symmetry_space_group_name_H-M "I B A 2"
_symmetry_group_IT_number 45
_symmetry_cell_setting 'orthorhombic'
loop_
_space_group_symop_operation_xyz
x,y,z
-x,-y,z
-x,y,1/2+z
x,-y,1/2+z
1/2+x,1/2+y,1/2+z
1/2-x,1/2-y,1/2+z
1/2-x,1/2+y,z
1/2+x,1/2-y,z
loop_
_atom_site_type_symbol
_atom_site_label
_atom_site_fract_x
_atom_site_fract_y
_atom_site_fract_z
Si Si1 0.346061 0.727549 0.067030
Si Si2 0.631942 0.931669 0.725635
Si Si3 0.807988 0.643603 0.470872
Si Si4 0.480630 0.330263 0.226486
Si Si5 0.695435 0.401003 0.394606
Si Si6 0.811946 0.151977 0.317311
Si Si7 0.315938 0.431824 0.133268
Si Si8 0.500000 0.000000 0.048808
O O1 0.363819 0.574708 0.100467
O O2 0.233151 0.813006 0.090488
O O3 0.445854 0.852278 0.076841
O O4 0.310220 0.689064 0.004360
O O5 0.600274 0.755429 0.717650
O O6 0.711515 0.928194 0.780029
O O7 0.500000 0.000000 0.726352
O O8 0.711334 0.982939 0.674809
O O9 0.780896 0.512818 0.427445
O O10 0.859949 0.791198 0.440495
O O11 0.895850 0.568589 0.513062
O O12 0.500000 0.500000 0.244227
O O13 0.400613 0.268555 0.275299
O O14 0.406799 0.346839 0.171814
O O15 0.758601 0.280271 0.355660
O O16 0.632883 0.521325 0.355214
#
# Coordination Sequence:
#
# PCOD9376897 Si02
#       8
#     8   8   8   8   8   8   8   4
#     4  12  24  47  73 103 141 183 238 296 354 423
#     4  11  23  41  68 102 141 186 237 287 347 418
#     4  11  23  47  69 101 141 180 235 303 342 428
#     4  11  23  42  64 102 141 184 235 284 342 418
#     4  10  21  44  70  94 145 183 226 299 357 394
#     4  10  22  42  65 100 140 183 231 293 344 417
#     4  11  25  43  71 101 146 185 232 293 349 415
#     4  12  26  46  78 100 140 182 238 286 368 424
#
# _framework density 24.176293000000001
#
# number of rings (size 3 to 8) (size 9 to 14) (size 15 to 20)
#    0.000    1.067    2.667    3.200    0.933    6.400 
#   12.000    4.667    0.000    0.000    0.000    0.000 
#    0.000    0.000    0.000    0.000    0.000    0.000 
#
# Total GULP energy -167722.383635 kJ/mol
# GULP energy per Si atom -5590.746121 kJ/mol
# Density = 2.412127 g / cm^3
# Si number density = 24.176293 Si / 1000 Ang^3
#
#
#
# Elastic Constant Matrix: (Units=GPa)
#
#
# Indices 1 2 3 4 5 6 
#
# 1 58.4657 6.3404 14.8202 0.0000 0.0000 0.0000
# 2 6.3404 111.1739 32.7078 0.0000 0.0000 0.0000
# 3 14.8202 32.7078 95.6982 0.0000 0.0000 0.0000
# 4 0.0000 0.0000 0.0000 41.0891 0.0000 0.0000
# 5 0.0000 0.0000 0.0000 0.0000 96.5427 0.0000
# 6 0.0000 0.0000 0.0000 0.0000 0.0000 41.7020
#
#
#
# Elastic Compliance Matrix: (Units=1/GPa)
#
#
# Indices 1 2 3 4 5 6 
#
# 1 0.017808 -0.000227 -0.002680 0.000000 0.000000 0.000000
# 2 -0.000227 0.010003 -0.003384 0.000000 0.000000 0.000000
# 3 -0.002680 -0.003384 0.012021 0.000000 0.000000 0.000000
# 4 0.000000 0.000000 0.000000 0.024337 0.000000 0.000000
# 5 0.000000 0.000000 0.000000 0.000000 0.010358 0.000000
# 6 0.000000 0.000000 0.000000 0.000000 0.000000 0.023980
#
#
# Mechanical properties :
#
#
# Convention : Reuss Voigt Hill
#
# Bulk Modulus (GPa) = 36.69675 41.45273 39.07474
# Shear Modulus (GPa) = 41.60657 49.96472 45.78564
#
# Velocity S-wave (km/s) = 4.15295 4.55101 4.35653
# Velocity P-wave (km/s) = 6.18125 6.69319 6.44231
#
# Compressibility (1/GPa) = 0.02725037
#
# Stress axis : x y z
#
# Youngs Moduli (GPa) = 56.15434 99.96601 83.18706
#
# Poissons Ratio (x) = 0.02270 0.22296
# Poissons Ratio (y) = 0.01275 0.28149
# Poissons Ratio (z) = 0.15051 0.33827
#
# Static dielectric constant tensor:
#      x y z
#    x 1.850720 0.000000 0.000000 
#    y 0.000000 2.009390 0.000000 
#    z 0.000000 0.000000 1.960170 
# 
# From -- ./inp_files/10019.got.cif
#   From: 2010.05.17/outbox.cif.g08.bks.cpg/sg45_6_cif.got.tgz:10019.got - 2010.06.03 19:51:22.
