data_PCOD9376821
_publ_section_title
;
Structure prediction by ZEFSAII (Michael W. Deem and Ramdas Pophale) SiO2 
 PCOD9376821
Probable space group: I B A 2
;
_chemical_formula_sum "Si O2"
_cell_formula_units_Z 60
_cell_length_a 31.658284
_cell_length_b 10.105673
_cell_length_c 8.820335
_cell_angle_alpha 90.000000
_cell_angle_beta 90.000000
_cell_angle_gamma 90.000000
_cell_volume 2821.874481
_symmetry_space_group_name_H-M "I B A 2"
_symmetry_group_IT_number 45
_symmetry_cell_setting 'orthorhombic'
loop_
_space_group_symop_operation_xyz
x,y,z
-x,-y,z
-x,y,1/2+z
x,-y,1/2+z
1/2+x,1/2+y,1/2+z
1/2-x,1/2-y,1/2+z
1/2-x,1/2+y,z
1/2+x,1/2-y,z
loop_
_atom_site_type_symbol
_atom_site_label
_atom_site_fract_x
_atom_site_fract_y
_atom_site_fract_z
Si Si1 0.295576 0.472517 0.529990
Si Si2 0.283954 0.760611 0.790672
Si Si3 0.060976 0.595228 0.174865
Si Si4 0.000000 0.500000 0.928254
Si Si5 0.145291 0.092895 0.306446
Si Si6 0.719282 0.116047 0.098415
Si Si7 0.123049 0.341674 0.144196
Si Si8 0.877021 0.789148 0.805780
O O1 0.286160 0.368037 0.400476
O O2 0.328786 0.419204 0.650268
O O3 0.320221 0.592208 0.442716
O O4 0.252697 0.500970 0.618725
O O5 0.245555 0.733176 0.679059
O O6 0.332077 0.757772 0.733833
O O7 0.280385 0.873257 0.916063
O O8 0.031459 0.580076 0.321513
O O9 0.091513 0.465287 0.164518
O O10 0.087918 0.726869 0.197909
O O11 0.029392 0.590381 0.033741
O O12 0.118861 0.226323 0.272890
O O13 0.122429 0.949115 0.321515
O O14 0.671788 0.108235 0.154480
O O15 0.118938 0.278160 0.974003
#
# Coordination Sequence:
#
# PCOD9376821 Si02
#       8
#     8   8   8   4   8   8   8   8
#     4  11  20  36  54  81 123 189 227 263 329 365
#     4  10  22  36  52  81 128 173 226 273 322 364
#     4  11  23  46  74 103 128 168 212 282 340 420
#     4  10  24  46  76 100 132 166 204 268 376 420
#     4  11  20  41  63  88 137 181 221 275 331 386
#     4  11  21  35  54  81 127 180 227 277 304 377
#     4  11  23  41  63 101 132 172 235 278 329 398
#     4  10  21  41  64  96 133 169 227 266 328 407
#
# _framework density 21.262463
#
# number of rings (size 3 to 8) (size 9 to 14) (size 15 to 20)
#    0.000    1.333    8.000    0.800    0.000    4.267 
#    2.400    0.000    0.000    4.800    0.000    0.000 
#    0.000    0.000    0.000    0.000    0.000    0.000 
#
# Total GULP energy -167334.775665 kJ/mol
# GULP energy per Si atom -5577.825856 kJ/mol
# Density = 2.121407 g / cm^3
# Si number density = 21.262463 Si / 1000 Ang^3
#
#
#
# Elastic Constant Matrix: (Units=GPa)
#
#
# Indices 1 2 3 4 5 6 
#
# 1 119.4377 36.6659 36.7574 0.0000 0.0000 0.0000
# 2 36.6659 92.0830 5.6735 0.0000 0.0000 0.0000
# 3 36.7574 5.6735 75.3536 0.0000 0.0000 0.0000
# 4 0.0000 0.0000 0.0000 20.4136 0.0000 0.0000
# 5 0.0000 0.0000 0.0000 0.0000 20.2728 0.0000
# 6 0.0000 0.0000 0.0000 0.0000 0.0000 24.9796
#
#
#
# Elastic Compliance Matrix: (Units=1/GPa)
#
#
# Indices 1 2 3 4 5 6 
#
# 1 0.011240 -0.004157 -0.005170 0.000000 0.000000 0.000000
# 2 -0.004157 0.012448 0.001091 0.000000 0.000000 0.000000
# 3 -0.005170 0.001091 0.015710 0.000000 0.000000 0.000000
# 4 0.000000 0.000000 0.000000 0.048987 0.000000 0.000000
# 5 0.000000 0.000000 0.000000 0.000000 0.049327 0.000000
# 6 0.000000 0.000000 0.000000 0.000000 0.000000 0.040033
#
#
# Mechanical properties :
#
#
# Convention : Reuss Voigt Hill
#
# Bulk Modulus (GPa) = 43.61919 49.45199 46.53559
# Shear Modulus (GPa) = 24.76980 26.98505 25.87742
#
# Velocity S-wave (km/s) = 3.41685 3.56636 3.49241
# Velocity P-wave (km/s) = 6.01046 6.34563 6.18032
#
# Compressibility (1/GPa) = 0.02292569
#
# Stress axis : x y z
#
# Youngs Moduli (GPa) = 88.97032 80.33550 63.65186
#
# Poissons Ratio (x) = 0.33395 0.32906
# Poissons Ratio (y) = 0.36984 -0.06942
# Poissons Ratio (z) = 0.45995 -0.08761
#
# Static dielectric constant tensor:
#      x y z
#    x 1.764390 0.000000 0.000000 
#    y 0.000000 1.915060 0.000000 
#    z 0.000000 0.000000 1.805580 
# 
# From -- ./inp_files/2620.got.cif
#   From: 2010.05.17/outbox.cif.g08.bks.cpg/sg45_2_cif.got.tgz:2620.got - 2010.06.03 19:51:22.
