data_PCOD9376060
_publ_section_title
;
Structure prediction by ZEFSAII (Michael W. Deem and Ramdas Pophale) SiO2 
 PCOD9376060
Probable space group: I B A 2
;
_chemical_formula_sum "Si O2"
_cell_formula_units_Z 44
_cell_length_a 31.551348
_cell_length_b 9.122325
_cell_length_c 8.368048
_cell_angle_alpha 90.000000
_cell_angle_beta 90.000000
_cell_angle_gamma 90.000000
_cell_volume 2408.505388
_symmetry_space_group_name_H-M "I B A 2"
_symmetry_group_IT_number 45
_symmetry_cell_setting 'orthorhombic'
loop_
_space_group_symop_operation_xyz
x,y,z
-x,-y,z
-x,y,1/2+z
x,-y,1/2+z
1/2+x,1/2+y,1/2+z
1/2-x,1/2-y,1/2+z
1/2-x,1/2+y,z
1/2+x,1/2-y,z
loop_
_atom_site_type_symbol
_atom_site_label
_atom_site_fract_x
_atom_site_fract_y
_atom_site_fract_z
Si Si1 0.000000 0.500000 0.286470
Si Si2 0.140634 0.402544 0.596144
Si Si3 0.936775 0.602052 0.041413
Si Si4 0.207852 0.212094 0.453867
Si Si5 0.648081 0.799157 0.462317
Si Si6 0.217929 0.902854 0.592919
O O1 0.030162 0.394686 0.184186
O O2 0.033132 0.590500 0.390307
O O3 0.092334 0.453331 0.558742
O O4 0.161450 0.282766 0.480516
O O5 0.146055 0.349029 0.777567
O O6 0.163888 0.558453 0.562931
O O7 0.900191 0.721818 0.022513
O O8 0.240904 0.336891 0.506242
O O9 0.215443 0.076667 0.573809
O O10 0.215692 0.152672 0.275590
O O11 0.678069 0.665484 0.498470
#
# Coordination Sequence:
#
# PCOD9376060 Si02
#       6
#     4   8   8   8   8   8
#     4  10  16  30  52  90 118 150 192 234 298 342
#     4  10  19  35  55  84 119 153 189 237 288 333
#     4   9  18  30  54  86 124 150 188 240 288 343
#     4  12  25  41  60  83 113 154 196 240 286 343
#     4  10  19  35  55  84 119 153 189 237 288 333
#     4  12  25  41  60  83 113 154 196 240 286 343
#
# _framework density 18.26859
#
# number of rings (size 3 to 8) (size 9 to 14) (size 15 to 20)
#    1.091    0.364    1.818    5.455    2.545    0.000 
#    0.000    0.000    0.000    0.000    0.000    7.636 
#    0.000    0.000    0.000    0.000    0.000    0.000 
#
# Total GULP energy -122568.727035 kJ/mol
# GULP energy per Si atom -5571.305774 kJ/mol
# Density = 1.822701 g / cm^3
# Si number density = 18.268590 Si / 1000 Ang^3
#
#
#
# Elastic Constant Matrix: (Units=GPa)
#
#
# Indices 1 2 3 4 5 6 
#
# 1 110.1495 21.1033 24.0822 0.0000 0.0000 0.0000
# 2 21.1033 48.2160 -12.6991 0.0000 0.0000 0.0000
# 3 24.0822 -12.6991 69.7383 0.0000 0.0000 0.0000
# 4 0.0000 0.0000 0.0000 13.8798 0.0000 0.0000
# 5 0.0000 0.0000 0.0000 0.0000 -4.3055 0.0000
# 6 0.0000 0.0000 0.0000 0.0000 0.0000 14.5218
#
#
#
# Elastic Compliance Matrix: (Units=1/GPa)
#
#
# Indices 1 2 3 4 5 6 
#
# 1 0.011405 -0.006333 -0.005092 0.000000 0.000000 0.000000
# 2 -0.006333 0.025301 0.006794 0.000000 0.000000 0.000000
# 3 -0.005092 0.006794 0.017335 0.000000 0.000000 0.000000
# 4 0.000000 0.000000 0.000000 0.072047 0.000000 0.000000
# 5 0.000000 0.000000 0.000000 0.000000 -0.232259 0.000000
# 6 0.000000 0.000000 0.000000 0.000000 0.000000 0.068862
#
#
# Mechanical properties :
#
#
# Convention : Reuss Voigt Hill
#
# Bulk Modulus (GPa) = 22.33120 32.56408 27.44764
# Shear Modulus (GPa) = -381.07439 17.86037 -181.60701
#
# Velocity S-wave (km/s) = -14.45850 3.13014 -9.98124
# Velocity P-wave (km/s) = 16.32423 5.56126 10.85249
#
# Compressibility (1/GPa) = 0.04478040
#
# Stress axis : x y z
#
# Youngs Moduli (GPa) = 87.68047 39.52382 57.68757
#
# Poissons Ratio (x) = 0.25030 0.29372
# Poissons Ratio (y) = 0.55526 -0.39194
# Poissons Ratio (z) = 0.44643 -0.26853
#
# Static dielectric constant tensor:
#      x y z
#    x 1.706980 0.000000 0.000000 
#    y 0.000000 1.604410 0.000000 
#    z 0.000000 0.000000 1.685320 
# 
# From -- ./inp_files/2726.got.cif
#   From: 2010.05.17/outbox.cif.g08.bks.cpg/sg45_2_cif.got.tgz:2726.got - 2010.06.03 19:51:22.
