data_PCOD9376287
_publ_section_title
;
Structure prediction by ZEFSAII (Michael W. Deem and Ramdas Pophale) SiO2 
 PCOD9376287
Probable space group: I B A 2
;
_chemical_formula_sum "Si O2"
_cell_formula_units_Z 60
_cell_length_a 26.450604
_cell_length_b 7.879071
_cell_length_c 12.147720
_cell_angle_alpha 90.000000
_cell_angle_beta 90.000000
_cell_angle_gamma 90.000000
_cell_volume 2531.660005
_symmetry_space_group_name_H-M "I B A 2"
_symmetry_group_IT_number 45
_symmetry_cell_setting 'orthorhombic'
loop_
_space_group_symop_operation_xyz
x,y,z
-x,-y,z
-x,y,1/2+z
x,-y,1/2+z
1/2+x,1/2+y,1/2+z
1/2-x,1/2-y,1/2+z
1/2-x,1/2+y,z
1/2+x,1/2-y,z
loop_
_atom_site_type_symbol
_atom_site_label
_atom_site_fract_x
_atom_site_fract_y
_atom_site_fract_z
Si Si1 0.439317 0.217635 0.156750
Si Si2 0.681329 0.238179 0.029609
Si Si3 0.547346 0.753025 0.399350
Si Si4 0.190203 0.335894 0.773792
Si Si5 0.500000 0.500000 0.546687
Si Si6 0.070493 0.352495 0.421067
Si Si7 0.271248 0.467232 0.147750
Si Si8 0.893089 0.396357 0.697399
O O1 0.428757 0.283981 0.279733
O O2 0.485025 0.340036 0.121770
O O3 0.442523 0.012427 0.174726
O O4 0.410020 0.216021 0.038607
O O5 0.699426 0.425855 0.057202
O O6 0.629765 0.207591 0.097328
O O7 0.725233 0.125110 0.085776
O O8 0.680595 0.193796 0.901901
O O9 0.545312 0.582119 0.473085
O O10 0.486833 0.792268 0.398124
O O11 0.568919 0.940983 0.428569
O O12 0.244509 0.419896 0.743165
O O13 0.148349 0.459366 0.724149
O O14 0.191796 0.162417 0.706889
O O15 0.100607 0.300000 0.312223
#
# Coordination Sequence:
#
# PCOD9376287 Si02
#       8
#     8   8   8   8   4   8   8   8
#     4  10  20  38  57  78 110 144 179 232 281 324
#     4  10  19  36  60  83 115 151 182 230 280 320
#     4   9  19  34  55  80 101 134 186 225 267 331
#     4  10  19  36  56  82 114 144 183 228 272 327
#     4  10  20  34  56  80 106 140 180 226 276 324
#     4   9  19  35  55  77 104 140 182 224 270 327
#     4   9  20  35  58  86 108 144 194 226 265 333
#     4  10  21  35  55  84 113 144 185 225 279 343
#
# _framework density 23.699863000000001
#
# number of rings (size 3 to 8) (size 9 to 14) (size 15 to 20)
#    0.000    2.400    0.000    2.000    0.000    8.533 
#    0.000   14.667    0.000    0.000    0.000    0.000 
#    0.000    0.000    0.000    0.000    0.000    0.000 
#
# Total GULP energy -167187.111735 kJ/mol
# GULP energy per Si atom -5572.903724 kJ/mol
# Density = 2.364592 g / cm^3
# Si number density = 23.699863 Si / 1000 Ang^3
#
#
#
# Elastic Constant Matrix: (Units=GPa)
#
#
# Indices 1 2 3 4 5 6 
#
# 1 62.2029 13.9569 25.7885 0.0000 0.0000 0.0000
# 2 13.9569 61.0398 24.9457 0.0000 0.0000 0.0000
# 3 25.7885 24.9457 147.5018 0.0000 0.0000 0.0000
# 4 0.0000 0.0000 0.0000 26.4227 0.0000 0.0000
# 5 0.0000 0.0000 0.0000 0.0000 32.1638 0.0000
# 6 0.0000 0.0000 0.0000 0.0000 0.0000 36.3642
#
#
#
# Elastic Compliance Matrix: (Units=1/GPa)
#
#
# Indices 1 2 3 4 5 6 
#
# 1 0.017834 -0.003012 -0.002609 0.000000 0.000000 0.000000
# 2 -0.003012 0.018108 -0.002536 0.000000 0.000000 0.000000
# 3 -0.002609 -0.002536 0.007665 0.000000 0.000000 0.000000
# 4 0.000000 0.000000 0.000000 0.037846 0.000000 0.000000
# 5 0.000000 0.000000 0.000000 0.000000 0.031091 0.000000
# 6 0.000000 0.000000 0.000000 0.000000 0.000000 0.027500
#
#
# Mechanical properties :
#
#
# Convention : Reuss Voigt Hill
#
# Bulk Modulus (GPa) = 36.63850 44.45852 40.54851
# Shear Modulus (GPa) = 30.22014 32.72705 31.47359
#
# Velocity S-wave (km/s) = 3.57475 3.72007 3.64814
# Velocity P-wave (km/s) = 5.70363 6.10341 5.90690
#
# Compressibility (1/GPa) = 0.02729369
#
# Stress axis : x y z
#
# Youngs Moduli (GPa) = 56.07377 55.22508 130.47119
#
# Poissons Ratio (x) = 0.16632 0.34035
# Poissons Ratio (y) = 0.16887 0.33086
# Poissons Ratio (z) = 0.14628 0.14004
#
# Static dielectric constant tensor:
#      x y z
#    x 1.991600 0.000000 0.000000 
#    y 0.000000 1.941180 0.000000 
#    z 0.000000 0.000000 1.911850 
# 
# From -- ./inp_files/4937.got.cif
#   From: 2010.05.17/outbox.cif.g08.bks.cpg/sg45_3_cif.got.tgz:4937.got - 2010.06.03 19:51:22.
