data_PCOD9376138
_publ_section_title
;
Structure prediction by ZEFSAII (Michael W. Deem and Ramdas Pophale) SiO2 
 PCOD9376138
Probable space group: I B A 2
;
_chemical_formula_sum "Si O2"
_cell_formula_units_Z 56
_cell_length_a 20.402171
_cell_length_b 7.789393
_cell_length_c 15.104620
_cell_angle_alpha 90.000000
_cell_angle_beta 90.000000
_cell_angle_gamma 90.000000
_cell_volume 2400.434185
_symmetry_space_group_name_H-M "I B A 2"
_symmetry_group_IT_number 45
_symmetry_cell_setting 'orthorhombic'
loop_
_space_group_symop_operation_xyz
x,y,z
-x,-y,z
-x,y,1/2+z
x,-y,1/2+z
1/2+x,1/2+y,1/2+z
1/2-x,1/2-y,1/2+z
1/2-x,1/2+y,z
1/2+x,1/2-y,z
loop_
_atom_site_type_symbol
_atom_site_label
_atom_site_fract_x
_atom_site_fract_y
_atom_site_fract_z
Si Si1 0.244319 0.058073 0.464290
Si Si2 0.641907 0.142042 0.513823
Si Si3 0.069529 0.937927 0.079954
Si Si4 0.834085 0.999455 0.724962
Si Si5 0.696868 0.892767 0.266775
Si Si6 0.617387 0.584954 0.402862
Si Si7 0.924514 0.468975 0.347137
O O1 0.194872 0.208037 0.492483
O O2 0.275694 0.086023 0.367099
O O3 0.305526 0.012125 0.528031
O O4 0.190552 0.906064 0.446008
O O5 0.591153 0.236761 0.579797
O O6 0.598141 0.082195 0.430897
O O7 0.122596 0.031907 0.140463
O O8 0.000000 0.000000 0.114830
O O9 0.074579 0.999091 0.978814
O O10 0.822375 0.797505 0.740467
O O11 0.872014 0.037957 0.817080
O O12 0.761647 0.069195 0.712374
O O13 0.629717 0.000799 0.269900
O O14 0.587494 0.768773 0.375619
O O15 0.000000 0.500000 0.324497
#
# Coordination Sequence:
#
# PCOD9376138 Si02
#       7
#     8   8   8   8   8   8   8
#     4   9  16  32  59  89 112 151 204 257 311 364
#     4  10  19  32  57  86 120 155 204 261 310 369
#     4  11  24  40  58  88 125 166 210 254 315 387
#     4  10  21  39  62  87 119 156 202 259 307 363
#     4   9  18  36  58  86 118 151 202 257 305 365
#     4   9  20  38  62  90 123 160 203 256 314 374
#     4  10  18  33  61  92 124 167 207 252 318 386
#
# _framework density 23.329111999999999
#
# number of rings (size 3 to 8) (size 9 to 14) (size 15 to 20)
#    0.000    2.286    0.000    5.143    0.000    2.857 
#    0.000    8.571    0.000    6.857    0.000    0.000 
#    0.000    0.000    0.000    0.000    0.000    0.000 
#
# Total GULP energy -156007.845198 kJ/mol
# GULP energy per Si atom -5571.708757 kJ/mol
# Density = 2.327601 g / cm^3
# Si number density = 23.329112 Si / 1000 Ang^3
#
#
#
# Elastic Constant Matrix: (Units=GPa)
#
#
# Indices 1 2 3 4 5 6 
#
# 1 140.3794 9.3846 16.1542 0.0000 0.0000 0.0000
# 2 9.3846 40.2488 -7.5776 0.0000 0.0000 0.0000
# 3 16.1542 -7.5776 62.1049 0.0000 0.0000 0.0000
# 4 0.0000 0.0000 0.0000 7.3703 0.0000 0.0000
# 5 0.0000 0.0000 0.0000 0.0000 29.0226 0.0000
# 6 0.0000 0.0000 0.0000 0.0000 0.0000 25.3824
#
#
#
# Elastic Compliance Matrix: (Units=1/GPa)
#
#
# Indices 1 2 3 4 5 6 
#
# 1 0.007525 -0.002173 -0.002222 0.000000 0.000000 0.000000
# 2 -0.002173 0.026057 0.003745 0.000000 0.000000 0.000000
# 3 -0.002222 0.003745 0.017137 0.000000 0.000000 0.000000
# 4 0.000000 0.000000 0.000000 0.135679 0.000000 0.000000
# 5 0.000000 0.000000 0.000000 0.000000 0.034456 0.000000
# 6 0.000000 0.000000 0.000000 0.000000 0.000000 0.039397
#
#
# Mechanical properties :
#
#
# Convention : Reuss Voigt Hill
#
# Bulk Modulus (GPa) = 20.23597 30.96171 25.59884
# Shear Modulus (GPa) = 17.98402 27.33987 22.66195
#
# Velocity S-wave (km/s) = 2.77949 3.42705 3.12011
# Velocity P-wave (km/s) = 4.35818 5.38145 4.89662
#
# Compressibility (1/GPa) = 0.04941696
#
# Stress axis : x y z
#
# Youngs Moduli (GPa) = 132.89834 38.37730 58.35418
#
# Poissons Ratio (x) = 0.08339 0.12968
# Poissons Ratio (y) = 0.28877 -0.21851
# Poissons Ratio (z) = 0.29535 -0.14370
#
# Static dielectric constant tensor:
#      x y z
#    x 1.923790 0.000000 0.000000 
#    y 0.000000 1.997150 0.000000 
#    z 0.000000 0.000000 1.959300 
# 
# From -- ./inp_files/8428.got.cif
#   From: 2010.05.17/outbox.cif.g08.bks.cpg/sg45_5_cif.got.tgz:8428.got - 2010.06.03 19:51:22.
