data_PCOD9376779
_publ_section_title
;
Structure prediction by ZEFSAII (Michael W. Deem and Ramdas Pophale) SiO2 
 PCOD9376779
Probable space group: I B A 2
;
_chemical_formula_sum "Si O2"
_cell_formula_units_Z 48
_cell_length_a 5.114377
_cell_length_b 27.781588
_cell_length_c 15.885999
_cell_angle_alpha 90.000000
_cell_angle_beta 90.000000
_cell_angle_gamma 90.000000
_cell_volume 2257.170344
_symmetry_space_group_name_H-M "I B A 2"
_symmetry_group_IT_number 45
_symmetry_cell_setting 'orthorhombic'
loop_
_space_group_symop_operation_xyz
x,y,z
-x,-y,z
-x,y,1/2+z
x,-y,1/2+z
1/2+x,1/2+y,1/2+z
1/2-x,1/2-y,1/2+z
1/2-x,1/2+y,z
1/2+x,1/2-y,z
loop_
_atom_site_type_symbol
_atom_site_label
_atom_site_fract_x
_atom_site_fract_y
_atom_site_fract_z
Si Si1 0.099892 0.391741 0.163650
Si Si2 0.479774 0.445075 0.431886
Si Si3 0.155230 0.636092 0.485837
Si Si4 0.621126 0.551694 0.623782
Si Si5 0.260773 0.857679 0.336920
Si Si6 0.473671 0.715863 0.423633
O O1 0.393608 0.410900 0.148171
O O2 0.101642 0.361140 0.247837
O O3 0.889286 0.434589 0.169039
O O4 0.029740 0.364385 0.077461
O O5 0.500000 0.500000 0.402650
O O6 0.745486 0.417138 0.458673
O O7 0.332884 0.447112 0.522407
O O8 0.354477 0.409875 0.362984
O O9 0.404681 0.671899 0.487050
O O10 0.963481 0.652848 0.412153
O O11 0.500000 0.500000 0.643807
O O12 0.038480 0.816647 0.341031
O O13 0.724655 0.749701 0.430990
#
# Coordination Sequence:
#
# PCOD9376779 Si02
#       6
#     8   8   8   8   8   8
#     4  11  24  39  64  92 135 174 219 279 330 395
#     4   9  20  38  63  93 132 178 226 273 325 397
#     4  10  22  43  65  95 131 174 221 270 344 398
#     4  10  21  40  60  89 130 180 227 275 326 380
#     4  11  23  41  66  97 134 174 224 271 342 397
#     4  11  23  43  73  94 123 164 211 276 339 403
#
# _framework density 21.265564999999999
#
# number of rings (size 3 to 8) (size 9 to 14) (size 15 to 20)
#    0.000    1.667    3.333    0.500    4.667    1.333 
#    3.000    1.667    0.000    0.000    0.000    0.000 
#    0.000    0.000    0.000    0.000    0.000    0.000 
#
# Total GULP energy -133826.633530 kJ/mol
# GULP energy per Si atom -5576.109730 kJ/mol
# Density = 2.121716 g / cm^3
# Si number density = 21.265565 Si / 1000 Ang^3
#
#
#
# Elastic Constant Matrix: (Units=GPa)
#
#
# Indices 1 2 3 4 5 6 
#
# 1 102.5017 34.4641 27.0939 0.0000 0.0000 0.0000
# 2 34.4641 97.0485 9.0084 0.0000 0.0000 0.0000
# 3 27.0939 9.0084 99.9401 0.0000 0.0000 0.0000
# 4 0.0000 0.0000 0.0000 6.6687 0.0000 0.0000
# 5 0.0000 0.0000 0.0000 0.0000 10.1391 0.0000
# 6 0.0000 0.0000 0.0000 0.0000 0.0000 37.3882
#
#
#
# Elastic Compliance Matrix: (Units=1/GPa)
#
#
# Indices 1 2 3 4 5 6 
#
# 1 0.011834 -0.003938 -0.002853 0.000000 0.000000 0.000000
# 2 -0.003938 0.011701 0.000013 0.000000 0.000000 0.000000
# 3 -0.002853 0.000013 0.010778 0.000000 0.000000 0.000000
# 4 0.000000 0.000000 0.000000 0.149955 0.000000 0.000000
# 5 0.000000 0.000000 0.000000 0.000000 0.098628 0.000000
# 6 0.000000 0.000000 0.000000 0.000000 0.000000 0.026746
#
#
# Mechanical properties :
#
#
# Convention : Reuss Voigt Hill
#
# Bulk Modulus (GPa) = 48.17570 48.95810 48.56690
# Shear Modulus (GPa) = 15.14606 26.10080 20.62343
#
# Velocity S-wave (km/s) = 2.67167 3.50719 3.11755
# Velocity P-wave (km/s) = 5.67632 6.28273 5.98721
#
# Compressibility (1/GPa) = 0.02075735
#
# Stress axis : x y z
#
# Youngs Moduli (GPa) = 84.50150 85.46055 92.77837
#
# Poissons Ratio (x) = 0.33652 0.26473
# Poissons Ratio (y) = 0.33274 -0.00119
# Poissons Ratio (z) = 0.24111 -0.00109
#
# Static dielectric constant tensor:
#      x y z
#    x 1.867130 0.000000 0.000000 
#    y 0.000000 1.803740 0.000000 
#    z 0.000000 0.000000 1.782190 
# 
# From -- ./inp_files/5177.got.cif
#   From: 2010.05.17/outbox.cif.g08.bks.cpg/sg45_3_cif.got.tgz:5177.got - 2010.06.03 19:51:22.
