data_PCOD9376411
_publ_section_title
;
Structure prediction by ZEFSAII (Michael W. Deem and Ramdas Pophale) SiO2 
 PCOD9376411
Probable space group: I B A 2
;
_chemical_formula_sum "Si O2"
_cell_formula_units_Z 56
_cell_length_a 32.623839
_cell_length_b 16.515862
_cell_length_c 4.883841
_cell_angle_alpha 90.000000
_cell_angle_beta 90.000000
_cell_angle_gamma 90.000000
_cell_volume 2631.466388
_symmetry_space_group_name_H-M "I B A 2"
_symmetry_group_IT_number 45
_symmetry_cell_setting 'orthorhombic'
loop_
_space_group_symop_operation_xyz
x,y,z
-x,-y,z
-x,y,1/2+z
x,-y,1/2+z
1/2+x,1/2+y,1/2+z
1/2-x,1/2-y,1/2+z
1/2-x,1/2+y,z
1/2+x,1/2-y,z
loop_
_atom_site_type_symbol
_atom_site_label
_atom_site_fract_x
_atom_site_fract_y
_atom_site_fract_z
Si Si1 0.734313 0.204234 0.077800
Si Si2 0.212708 0.054262 0.619804
Si Si3 0.902738 0.778785 0.503819
Si Si4 0.619177 0.556068 0.215874
Si Si5 0.859995 0.293464 0.530917
Si Si6 0.599770 0.052334 0.319064
Si Si7 0.972893 0.333239 0.768197
O O1 0.737674 0.265933 0.328705
O O2 0.753016 0.120011 0.181022
O O3 0.687936 0.200320 0.975419
O O4 0.166565 0.084534 0.679435
O O5 0.216774 0.024663 0.309570
O O6 0.907903 0.868260 0.624205
O O7 0.870501 0.776598 0.252051
O O8 0.942982 0.738015 0.372667
O O9 0.885202 0.724883 0.755142
O O10 0.613350 0.520883 0.516942
O O11 0.874378 0.374187 0.691116
O O12 0.553192 0.084829 0.305570
O O13 0.607627 0.025065 0.627325
O O14 0.986877 0.329240 0.455554
#
# Coordination Sequence:
#
# PCOD9376411 Si02
#       7
#     8   8   8   8   8   8   8
#     4  12  24  38  59  86 118 160 210 257 306 358
#     4  10  21  36  54  81 114 149 193 247 299 345
#     4  11  22  41  63  87 120 155 199 247 300 371
#     4  10  20  35  59  86 113 149 195 244 294 349
#     4  11  23  39  60  85 119 165 206 250 304 361
#     4  11  23  39  60  89 122 158 204 249 294 358
#     4  11  23  40  63  91 120 155 193 237 299 358
#
# _framework density 21.280909000000001
#
# number of rings (size 3 to 8) (size 9 to 14) (size 15 to 20)
#    0.000    1.143    0.000    8.571    0.000    5.143 
#    0.000    0.000    0.000    2.571    0.000    0.000 
#    0.000    0.000    0.000    0.000    0.000    0.000 
#
# Total GULP energy -156549.336219 kJ/mol
# GULP energy per Si atom -5591.047722 kJ/mol
# Density = 2.123247 g / cm^3
# Si number density = 21.280909 Si / 1000 Ang^3
#
#
#
# Elastic Constant Matrix: (Units=GPa)
#
#
# Indices 1 2 3 4 5 6 
#
# 1 26.3093 -0.2852 4.1216 -0.0016 0.0025 0.0013
# 2 -0.2852 54.8957 -2.8597 -0.0003 0.0009 0.0005
# 3 4.1216 -2.8597 67.5502 -0.0027 0.0028 0.0016
# 4 -0.0016 -0.0003 -0.0027 24.0094 0.0008 0.0003
# 5 0.0025 0.0009 0.0028 0.0008 25.4221 -0.0008
# 6 0.0013 0.0005 0.0016 0.0003 -0.0008 20.3260
#
#
#
# Elastic Compliance Matrix: (Units=1/GPa)
#
#
# Indices 1 2 3 4 5 6 
#
# 1 0.038377 0.000078 -0.002338 0.000002 -0.000004 -0.000002
# 2 0.000078 0.018257 0.000768 0.000000 -0.000001 0.000000
# 3 -0.002338 0.000768 0.014979 0.000002 -0.000001 -0.000001
# 4 0.000002 0.000000 0.000002 0.041650 -0.000001 -0.000001
# 5 -0.000004 -0.000001 -0.000001 -0.000001 0.039336 0.000002
# 6 -0.000002 0.000000 -0.000001 -0.000001 0.000002 0.049198
#
#
# Mechanical properties :
#
#
# Convention : Reuss Voigt Hill
#
# Bulk Modulus (GPa) = 14.57146 16.74538 15.65842
# Shear Modulus (GPa) = 21.96282 23.80340 22.88311
#
# Velocity S-wave (km/s) = 3.21603 3.34808 3.28272
# Velocity P-wave (km/s) = 4.54450 4.77828 4.66286
#
# Compressibility (1/GPa) = 0.06862731
#
# Stress axis : x y z
#
# Youngs Moduli (GPa) = 26.05758 54.77421 66.76015
#
# Poissons Ratio (x) = -0.00425 0.15610
# Poissons Ratio (y) = -0.00202 -0.05128
# Poissons Ratio (z) = 0.06093 -0.04208
#
# Static dielectric constant tensor:
#      x y z
#    x 1.761270 0.000000 0.000000 
#    y 0.000000 1.785980 0.000000 
#    z 0.000000 0.000000 1.742940 
# 
# From -- ./inp_files/221.got.cif
#   From: 2010.05.17/outbox.cif.g08.bks.cpg/sg45_1_cif.got.tgz:221.got - 2010.06.03 19:51:22.
