data_PCOD9376420
_publ_section_title
;
Structure prediction by ZEFSAII (Michael W. Deem and Ramdas Pophale) SiO2 
 PCOD9376420
Probable space group: I B A 2
;
_chemical_formula_sum "Si O2"
_cell_formula_units_Z 48
_cell_length_a 11.101641
_cell_length_b 13.623569
_cell_length_c 14.099631
_cell_angle_alpha 90.000000
_cell_angle_beta 90.000000
_cell_angle_gamma 90.000000
_cell_volume 2132.484199
_symmetry_space_group_name_H-M "I B A 2"
_symmetry_group_IT_number 45
_symmetry_cell_setting 'orthorhombic'
loop_
_space_group_symop_operation_xyz
x,y,z
-x,-y,z
-x,y,1/2+z
x,-y,1/2+z
1/2+x,1/2+y,1/2+z
1/2-x,1/2-y,1/2+z
1/2-x,1/2+y,z
1/2+x,1/2-y,z
loop_
_atom_site_type_symbol
_atom_site_label
_atom_site_fract_x
_atom_site_fract_y
_atom_site_fract_z
Si Si1 0.070456 0.867608 0.571190
Si Si2 0.665959 0.649743 0.969998
Si Si3 0.867246 0.493096 0.224492
Si Si4 0.587525 0.131226 0.045509
Si Si5 0.329189 0.132116 0.048764
Si Si6 0.613887 0.563429 0.784299
O O1 0.075352 0.748519 0.562212
O O2 0.195637 0.905705 0.524928
O O3 0.079588 0.897643 0.680518
O O4 0.944431 0.899876 0.526108
O O5 0.800381 0.608564 0.978563
O O6 0.676005 0.755038 0.019616
O O7 0.631874 0.649785 0.860084
O O8 0.877095 0.577107 0.143449
O O9 0.851156 0.393288 0.160488
O O10 0.740223 0.496833 0.278629
O O11 0.000000 0.500000 0.271683
O O12 0.456885 0.097905 0.007801
O O13 0.500000 0.500000 0.816975
#
# Coordination Sequence:
#
# PCOD9376420 Si02
#       6
#     8   8   8   8   8   8
#     4   9  19  38  59  81 117 159 196 241 292 348
#     4  10  20  36  55  83 118 152 194 241 293 348
#     4   9  18  37  61  84 111 151 198 241 294 351
#     4   9  17  35  60  81 109 149 192 243 296 345
#     4   8  17  35  58  79 106 146 190 236 287 341
#     4  11  23  37  57  88 120 157 201 242 292 351
#
# _framework density 22.508958
#
# number of rings (size 3 to 8) (size 9 to 14) (size 15 to 20)
#    0.000    2.667    0.000    1.000    0.000    3.333 
#    0.000   40.833    0.000    0.000    0.000    0.000 
#    0.000    0.000    0.000    0.000    0.000    0.000 
#
# Total GULP energy -133632.210109 kJ/mol
# GULP energy per Si atom -5568.008755 kJ/mol
# Density = 2.245773 g / cm^3
# Si number density = 22.508958 Si / 1000 Ang^3
#
#
#
# Elastic Constant Matrix: (Units=GPa)
#
#
# Indices 1 2 3 4 5 6 
#
# 1 246.2362 27.8313 49.7562 0.0000 0.0000 0.0000
# 2 27.8313 66.2108 -3.9167 0.0000 0.0000 0.0000
# 3 49.7562 -3.9167 49.7613 0.0000 0.0000 0.0000
# 4 0.0000 0.0000 0.0000 0.0492 0.0000 0.0000
# 5 0.0000 0.0000 0.0000 0.0000 -5.9729 0.0000
# 6 0.0000 0.0000 0.0000 0.0000 0.0000 27.8694
#
#
#
# Elastic Compliance Matrix: (Units=1/GPa)
#
#
# Indices 1 2 3 4 5 6 
#
# 1 0.005519 -0.002659 -0.005728 -0.000001 0.000000 0.000000
# 2 -0.002659 0.016455 0.003954 0.000003 0.000000 0.000000
# 3 -0.005728 0.003954 0.026134 0.000003 0.000000 0.000000
# 4 -0.000001 0.000003 0.000003 20.321149 -0.000002 0.000002
# 5 0.000000 0.000000 0.000000 -0.000002 -0.167424 0.000000
# 6 0.000000 0.000000 0.000000 0.000002 0.000000 0.035882
#
#
# Mechanical properties :
#
#
# Convention : Reuss Voigt Hill
#
# Bulk Modulus (GPa) = 25.48272 56.61666 41.04969
# Shear Modulus (GPa) = 0.24680 23.62498 11.93589
#
# Velocity S-wave (km/s) = 0.33148 3.24324 2.30526
# Velocity P-wave (km/s) = 3.39002 6.26357 5.03610
#
# Compressibility (1/GPa) = 0.03924228
#
# Stress axis : x y z
#
# Youngs Moduli (GPa) = 181.19129 60.77281 38.26396
#
# Poissons Ratio (x) = 0.16158 0.21917
# Poissons Ratio (y) = 0.48174 -0.15128
# Poissons Ratio (z) = 1.03781 -0.24027
#
# Static dielectric constant tensor:
#      x y z
#    x 1.963550 0.000000 0.000000 
#    y 0.000000 1.895670 0.000000 
#    z 0.000000 0.000000 1.774450 
# 
# From -- ./inp_files/4437.got.cif
#   From: 2010.05.17/outbox.cif.g08.bks.cpg/sg45_3_cif.got.tgz:4437.got - 2010.06.03 19:51:22.
