data_PCOD9376455
_publ_section_title
;
Structure prediction by ZEFSAII (Michael W. Deem and Ramdas Pophale) SiO2 
 PCOD9376455
Probable space group: I B A 2
;
_chemical_formula_sum "Si O2"
_cell_formula_units_Z 56
_cell_length_a 11.093351
_cell_length_b 22.483212
_cell_length_c 9.030804
_cell_angle_alpha 90.000000
_cell_angle_beta 90.000000
_cell_angle_gamma 90.000000
_cell_volume 2252.410415
_symmetry_space_group_name_H-M "I B A 2"
_symmetry_group_IT_number 45
_symmetry_cell_setting 'orthorhombic'
loop_
_space_group_symop_operation_xyz
x,y,z
-x,-y,z
-x,y,1/2+z
x,-y,1/2+z
1/2+x,1/2+y,1/2+z
1/2-x,1/2-y,1/2+z
1/2-x,1/2+y,z
1/2+x,1/2-y,z
loop_
_atom_site_type_symbol
_atom_site_label
_atom_site_fract_x
_atom_site_fract_y
_atom_site_fract_z
Si Si1 0.319138 0.002797 0.975180
Si Si2 0.817751 0.929328 0.728170
Si Si3 0.635931 0.792973 0.359207
Si Si4 0.357388 0.081001 0.219171
Si Si5 0.083632 0.888719 0.698455
Si Si6 0.023254 0.193253 0.464129
Si Si7 0.254267 0.702988 0.666896
O O1 0.217990 0.037228 0.877986
O O2 0.385334 0.962266 0.854619
O O3 0.397795 0.050912 0.066552
O O4 0.255638 0.959049 0.093567
O O5 0.774785 0.860756 0.742187
O O6 0.960452 0.926942 0.692658
O O7 0.610590 0.852239 0.266529
O O8 0.529382 0.745629 0.366423
O O9 0.747254 0.756558 0.283888
O O10 0.660015 0.804209 0.533703
O O11 0.211656 0.080151 0.197844
O O12 0.076887 0.856340 0.856575
O O13 0.074952 0.840671 0.566045
O O14 0.123428 0.215622 0.575813
#
# Coordination Sequence:
#
# PCOD9376455 Si02
#       7
#     8   8   8   8   8   8   8
#     4  10  22  36  55  82 127 159 214 244 290 367
#     4  10  20  37  53  84 122 170 197 248 297 357
#     4  12  23  39  65  89 124 166 204 253 323 369
#     4  11  22  37  57  87 118 163 204 248 303 367
#     4  11  20  36  57  82 132 158 199 252 293 374
#     4  11  21  38  55  90 128 161 195 258 305 364
#     4  11  24  39  60  93 123 161 209 255 313 374
#
# _framework density 24.862252000000002
#
# number of rings (size 3 to 8) (size 9 to 14) (size 15 to 20)
#    0.000    1.143    5.714    2.571    2.000    3.429 
#    0.000    0.000    0.000    0.000    0.000    3.000 
#    0.000    0.000    0.000    0.000    0.000    0.000 
#
# Total GULP energy -156733.570573 kJ/mol
# GULP energy per Si atom -5597.627520 kJ/mol
# Density = 2.480566 g / cm^3
# Si number density = 24.862252 Si / 1000 Ang^3
#
#
#
# Elastic Constant Matrix: (Units=GPa)
#
#
# Indices 1 2 3 4 5 6 
#
# 1 39.0676 8.5403 10.7338 0.0001 0.0001 0.0000
# 2 8.5403 134.5502 52.4482 -0.0004 -0.0003 0.0001
# 3 10.7338 52.4482 124.5555 -0.0007 -0.0006 0.0001
# 4 0.0001 -0.0004 -0.0007 51.1007 -0.0002 0.0001
# 5 0.0001 -0.0003 -0.0006 -0.0002 26.5595 0.0000
# 6 0.0000 0.0001 0.0001 0.0001 0.0000 33.4868
#
#
#
# Elastic Compliance Matrix: (Units=1/GPa)
#
#
# Indices 1 2 3 4 5 6 
#
# 1 0.026317 -0.000941 -0.001872 0.000000 0.000000 0.000000
# 2 -0.000941 0.008925 -0.003677 0.000000 0.000000 0.000000
# 3 -0.001872 -0.003677 0.009738 0.000000 0.000000 0.000000
# 4 0.000000 0.000000 0.000000 0.019569 0.000000 0.000000
# 5 0.000000 0.000000 0.000000 0.000000 0.037651 0.000000
# 6 0.000000 0.000000 0.000000 0.000000 0.000000 0.029863
#
#
# Mechanical properties :
#
#
# Convention : Reuss Voigt Hill
#
# Bulk Modulus (GPa) = 31.24934 49.06865 40.15899
# Shear Modulus (GPa) = 32.11109 37.32614 34.71862
#
# Velocity S-wave (km/s) = 3.59773 3.87889 3.74095
# Velocity P-wave (km/s) = 5.46392 6.31190 5.90316
#
# Compressibility (1/GPa) = 0.03200067
#
# Stress axis : x y z
#
# Youngs Moduli (GPa) = 37.99887 112.04141 102.68785
#
# Poissons Ratio (x) = 0.10541 0.19220
# Poissons Ratio (y) = 0.03575 0.37760
# Poissons Ratio (z) = 0.07112 0.41200
#
# Static dielectric constant tensor:
#      x y z
#    x 2.052450 0.000000 0.000000 
#    y 0.000000 1.980230 0.000000 
#    z 0.000000 0.000000 1.963050 
# 
# From -- ./inp_files/1810.got.cif
#   From: 2010.05.17/outbox.cif.g08.bks.cpg/sg45_1_cif.got.tgz:1810.got - 2010.06.03 19:51:22.
