data_PCOD9376181
_publ_section_title
;
Structure prediction by ZEFSAII (Michael W. Deem and Ramdas Pophale) SiO2 
 PCOD9376181
Probable space group: I B A 2
;
_chemical_formula_sum "Si O2"
_cell_formula_units_Z 44
_cell_length_a 13.659931
_cell_length_b 9.503944
_cell_length_c 15.362430
_cell_angle_alpha 90.000000
_cell_angle_beta 90.000000
_cell_angle_gamma 90.000000
_cell_volume 1994.400118
_symmetry_space_group_name_H-M "I B A 2"
_symmetry_group_IT_number 45
_symmetry_cell_setting 'orthorhombic'
loop_
_space_group_symop_operation_xyz
x,y,z
-x,-y,z
-x,y,1/2+z
x,-y,1/2+z
1/2+x,1/2+y,1/2+z
1/2-x,1/2-y,1/2+z
1/2-x,1/2+y,z
1/2+x,1/2-y,z
loop_
_atom_site_type_symbol
_atom_site_label
_atom_site_fract_x
_atom_site_fract_y
_atom_site_fract_z
Si Si1 0.372754 0.685708 0.524070
Si Si2 0.000000 0.500000 0.736274
Si Si3 0.205303 0.540889 0.781076
Si Si4 0.957652 0.797936 0.156923
Si Si5 0.369668 0.656613 0.331354
Si Si6 0.739191 0.568192 0.589434
O O1 0.453637 0.652877 0.597019
O O2 0.412866 0.685674 0.426120
O O3 0.293778 0.561285 0.530515
O O4 0.321371 0.832595 0.548373
O O5 0.903261 0.523496 0.794259
O O6 0.975963 0.366387 0.676474
O O7 0.293979 0.471610 0.832521
O O8 0.193037 0.705499 0.801448
O O9 0.228618 0.501268 0.680908
O O10 0.947650 0.860535 0.254116
O O11 0.855740 0.835317 0.110355
#
# Coordination Sequence:
#
# PCOD9376181 Si02
#       6
#     8   4   8   8   8   8
#     4  12  23  44  67  98 137 171 226 280 327 412
#     4  10  18  38  68  92 130 176 222 266 328 394
#     4  10  20  41  66  95 131 176 221 271 336 396
#     4  10  23  42  65  98 134 178 220 271 334 397
#     4  10  23  42  67 100 130 177 220 274 339 385
#     4  11  23  41  70  95 135 180 219 275 341 387
#
# _framework density 22.061771
#
# number of rings (size 3 to 8) (size 9 to 14) (size 15 to 20)
#    0.000    1.455    1.818    4.909    0.000    0.000 
#    6.545    8.182    0.000    0.000    0.000    0.000 
#    0.000    0.000    0.000    0.000    0.000    0.000 
#
# Total GULP energy -122939.782454 kJ/mol
# GULP energy per Si atom -5588.171930 kJ/mol
# Density = 2.201156 g / cm^3
# Si number density = 22.061771 Si / 1000 Ang^3
#
#
#
# Elastic Constant Matrix: (Units=GPa)
#
#
# Indices 1 2 3 4 5 6 
#
# 1 72.3466 17.2007 36.3281 0.0000 0.0000 0.0000
# 2 17.2007 96.2170 10.2454 0.0000 0.0000 0.0000
# 3 36.3281 10.2454 150.8162 0.0000 0.0000 0.0000
# 4 0.0000 0.0000 0.0000 3.9498 0.0000 0.0000
# 5 0.0000 0.0000 0.0000 0.0000 7.5075 0.0000
# 6 0.0000 0.0000 0.0000 0.0000 0.0000 38.4454
#
#
#
# Elastic Compliance Matrix: (Units=1/GPa)
#
#
# Indices 1 2 3 4 5 6 
#
# 1 0.016307 -0.002515 -0.003757 0.000000 0.000000 0.000000
# 2 -0.002515 0.010857 -0.000132 0.000000 0.000000 0.000000
# 3 -0.003757 -0.000132 0.007545 0.000000 0.000000 0.000000
# 4 0.000000 0.000000 0.000000 0.253180 0.000000 0.000000
# 5 0.000000 0.000000 0.000000 0.000000 0.133201 0.000000
# 6 0.000000 0.000000 0.000000 0.000000 0.000000 0.026011
#
#
# Mechanical properties :
#
#
# Convention : Reuss Voigt Hill
#
# Bulk Modulus (GPa) = 45.66119 49.65868 47.65993
# Shear Modulus (GPa) = 10.70187 27.02091 18.86139
#
# Velocity S-wave (km/s) = 2.20486 3.50349 2.92710
# Velocity P-wave (km/s) = 5.21764 6.23889 5.75098
#
# Compressibility (1/GPa) = 0.02190044
#
# Stress axis : x y z
#
# Youngs Moduli (GPa) = 61.32366 92.10800 132.54643
#
# Poissons Ratio (x) = 0.23166 0.49799
# Poissons Ratio (y) = 0.15424 0.01746
# Poissons Ratio (z) = 0.23040 0.01213
#
# Static dielectric constant tensor:
#      x y z
#    x 1.836840 0.000000 0.000000 
#    y 0.000000 1.811140 0.000000 
#    z 0.000000 0.000000 1.832660 
# 
# From -- ./inp_files/8125.got.cif
#   From: 2010.05.17/outbox.cif.g08.bks.cpg/sg45_5_cif.got.tgz:8125.got - 2010.06.03 19:51:22.
