data_PCOD9376308
_publ_section_title
;
Structure prediction by ZEFSAII (Michael W. Deem and Ramdas Pophale) SiO2 
 PCOD9376308
Probable space group: I B A 2
;
_chemical_formula_sum "Si O2"
_cell_formula_units_Z 60
_cell_length_a 13.695191
_cell_length_b 13.459562
_cell_length_c 13.034965
_cell_angle_alpha 90.000000
_cell_angle_beta 90.000000
_cell_angle_gamma 90.000000
_cell_volume 2402.751684
_symmetry_space_group_name_H-M "I B A 2"
_symmetry_group_IT_number 45
_symmetry_cell_setting 'orthorhombic'
loop_
_space_group_symop_operation_xyz
x,y,z
-x,-y,z
-x,y,1/2+z
x,-y,1/2+z
1/2+x,1/2+y,1/2+z
1/2-x,1/2-y,1/2+z
1/2-x,1/2+y,z
1/2+x,1/2-y,z
loop_
_atom_site_type_symbol
_atom_site_label
_atom_site_fract_x
_atom_site_fract_y
_atom_site_fract_z
Si Si1 0.500000 0.500000 0.178620
Si Si2 0.114926 0.079092 0.863684
Si Si3 0.430145 0.910540 0.392860
Si Si4 0.275732 0.972866 0.985713
Si Si5 0.593591 0.701219 0.641055
Si Si6 0.283861 0.760186 0.948259
Si Si7 0.924055 0.803113 0.381060
Si Si8 0.586974 0.077040 0.157382
O O1 0.590884 0.532931 0.252395
O O2 0.468010 0.600958 0.121703
O O3 0.170850 0.002586 0.939070
O O4 0.993249 0.884434 0.896436
O O5 0.179125 0.180651 0.864527
O O6 0.476855 0.802983 0.394385
O O7 0.393019 0.926646 0.277607
O O8 0.500000 0.000000 0.417876
O O9 0.337989 0.928581 0.464100
O O10 0.317190 0.874559 0.928040
O O11 0.310580 0.944515 0.099973
O O12 0.677308 0.713604 0.555494
O O13 0.615674 0.691717 0.763280
O O14 0.547443 0.811724 0.633188
O O15 0.169180 0.786565 0.951876
O O16 0.500000 0.000000 0.135999
#
# Coordination Sequence:
#
# PCOD9376308 Si02
#       8
#     4   8   8   8   8   8   8   8
#     4  10  22  46  72 100 150 192 244 304 372 452
#     4  11  23  42  69 103 143 190 236 303 370 438
#     4  10  19  37  66  99 132 186 238 293 362 424
#     4  11  21  39  65 101 138 187 234 302 358 433
#     4   9  21  42  71 103 146 189 240 304 361 445
#     4  11  23  43  67 104 143 185 246 296 364 440
#     4  10  21  44  69  99 145 185 239 299 367 443
#     4   9  20  38  66 101 145 184 243 299 358 436
#
# _framework density 24.97137
#
# number of rings (size 3 to 8) (size 9 to 14) (size 15 to 20)
#    0.000    1.867    1.333    2.800    0.000    2.667 
#    4.800    2.667    0.000    0.000    0.000    1.867 
#    0.000    0.000    0.000    0.000    0.000    0.000 
#
# Total GULP energy -167241.922481 kJ/mol
# GULP energy per Si atom -5574.730749 kJ/mol
# Density = 2.491453 g / cm^3
# Si number density = 24.971370 Si / 1000 Ang^3
#
#
#
# Elastic Constant Matrix: (Units=GPa)
#
#
# Indices 1 2 3 4 5 6 
#
# 1 122.6647 61.5890 19.5845 0.0000 0.0000 0.0000
# 2 61.5890 198.8241 33.7369 0.0000 0.0000 0.0000
# 3 19.5845 33.7369 85.3192 0.0000 0.0000 0.0000
# 4 0.0000 0.0000 0.0000 22.6153 0.0000 0.0000
# 5 0.0000 0.0000 0.0000 0.0000 34.5581 0.0000
# 6 0.0000 0.0000 0.0000 0.0000 0.0000 57.0395
#
#
#
# Elastic Compliance Matrix: (Units=1/GPa)
#
#
# Indices 1 2 3 4 5 6 
#
# 1 0.009752 -0.002831 -0.001119 0.000000 0.000000 0.000000
# 2 -0.002831 0.006213 -0.001807 0.000000 0.000000 0.000000
# 3 -0.001119 -0.001807 0.012692 0.000000 0.000000 0.000000
# 4 0.000000 0.000000 0.000000 0.044218 0.000000 0.000000
# 5 0.000000 0.000000 0.000000 0.000000 0.028937 0.000000
# 6 0.000000 0.000000 0.000000 0.000000 0.000000 0.017532
#
#
# Mechanical properties :
#
#
# Convention : Reuss Voigt Hill
#
# Bulk Modulus (GPa) = 58.33171 70.73655 64.53413
# Shear Modulus (GPa) = 36.61050 42.30243 39.45646
#
# Velocity S-wave (km/s) = 3.83312 4.12033 3.97932
# Velocity P-wave (km/s) = 6.55748 7.14316 6.85658
#
# Compressibility (1/GPa) = 0.01714333
#
# Stress axis : x y z
#
# Youngs Moduli (GPa) = 102.53836 160.94897 78.78925
#
# Poissons Ratio (x) = 0.45566 0.08818
# Poissons Ratio (y) = 0.29029 0.14237
# Poissons Ratio (z) = 0.11476 0.29083
#
# Static dielectric constant tensor:
#      x y z
#    x 2.100480 0.000000 0.000000 
#    y 0.000000 2.047780 0.000000 
#    z 0.000000 0.000000 2.024260 
# 
# From -- ./inp_files/6798.got.cif
#   From: 2010.05.17/outbox.cif.g08.bks.cpg/sg45_4_cif.got.tgz:6798.got - 2010.06.03 19:51:22.
