data_PCOD9376247
_publ_section_title
;
Structure prediction by ZEFSAII (Michael W. Deem and Ramdas Pophale) SiO2 
 PCOD9376247
Probable space group: I B A 2
;
_chemical_formula_sum "Si O2"
_cell_formula_units_Z 56
_cell_length_a 5.541625
_cell_length_b 24.653564
_cell_length_c 16.858276
_cell_angle_alpha 90.000000
_cell_angle_beta 90.000000
_cell_angle_gamma 90.000000
_cell_volume 2303.191265
_symmetry_space_group_name_H-M "I B A 2"
_symmetry_group_IT_number 45
_symmetry_cell_setting 'orthorhombic'
loop_
_space_group_symop_operation_xyz
x,y,z
-x,-y,z
-x,y,1/2+z
x,-y,1/2+z
1/2+x,1/2+y,1/2+z
1/2-x,1/2-y,1/2+z
1/2-x,1/2+y,z
1/2+x,1/2-y,z
loop_
_atom_site_type_symbol
_atom_site_label
_atom_site_fract_x
_atom_site_fract_y
_atom_site_fract_z
Si Si1 0.500000 0.500000 0.770680
Si Si2 0.164529 0.124515 0.492538
Si Si3 0.000000 0.500000 0.176368
Si Si4 0.048182 0.233031 0.768059
Si Si5 0.165421 0.947144 0.564061
Si Si6 0.951474 0.275015 0.451973
Si Si7 0.472843 0.057741 0.909491
Si Si8 0.398861 0.382257 0.334770
O O1 0.751108 0.490361 0.723376
O O2 0.480437 0.440632 0.813541
O O3 0.380841 0.167141 0.489448
O O4 0.295146 0.070830 0.460456
O O5 0.003041 0.106376 0.566501
O O6 0.999481 0.141392 0.417895
O O7 0.098112 0.548313 0.119039
O O8 0.296533 0.251409 0.728662
O O9 0.045772 0.265149 0.855145
O O10 0.059735 0.168056 0.777875
O O11 0.261600 0.947930 0.474222
O O12 0.000000 0.000000 0.577839
O O13 0.717716 0.240815 0.478931
O O14 0.382709 0.103220 0.849020
O O15 0.500000 0.000000 0.869671
#
# Coordination Sequence:
#
# PCOD9376247 Si02
#       8
#     4   8   4   8   8   8   8   8
#     4  12  30  42  64  90 130 190 216 294 316 402
#     4  11  21  33  62  92 131 165 206 259 335 417
#     4  12  26  50  62  82 130 168 250 266 324 378
#     4  10  19  35  57  84 126 170 203 252 313 409
#     4  11  21  41  62  90 117 170 211 276 316 386
#     4  10  19  34  50  86 128 166 196 241 316 398
#     4  11  20  32  58  90 132 162 200 259 329 411
#     4  11  24  37  56  95 138 168 215 258 347 409
#
# _framework density 24.314091000000001
#
# number of rings (size 3 to 8) (size 9 to 14) (size 15 to 20)
#    0.000    1.143    5.714    2.571    7.000    0.000 
#    0.000    0.000    0.000    0.000    0.000    6.000 
#    0.000    0.000    0.000    0.000    0.000    0.000 
#
# Total GULP energy -156055.215843 kJ/mol
# GULP energy per Si atom -5573.400566 kJ/mol
# Density = 2.425875 g / cm^3
# Si number density = 24.314091 Si / 1000 Ang^3
#
#
#
# Elastic Constant Matrix: (Units=GPa)
#
#
# Indices 1 2 3 4 5 6 
#
# 1 153.3271 29.1851 24.6944 0.0000 0.0000 0.0000
# 2 29.1851 101.3974 8.5187 0.0000 0.0000 0.0000
# 3 24.6944 8.5187 36.9612 0.0000 0.0000 0.0000
# 4 0.0000 0.0000 0.0000 0.3364 0.0000 0.0000
# 5 0.0000 0.0000 0.0000 0.0000 35.3052 0.0000
# 6 0.0000 0.0000 0.0000 0.0000 0.0000 52.8755
#
#
#
# Elastic Compliance Matrix: (Units=1/GPa)
#
#
# Indices 1 2 3 4 5 6 
#
# 1 0.007617 -0.001800 -0.004675 0.000000 0.000000 0.000000
# 2 -0.001800 0.010482 -0.001213 0.000000 0.000000 0.000000
# 3 -0.004675 -0.001213 0.030458 -0.000001 0.000000 0.000000
# 4 0.000000 0.000000 -0.000001 2.972959 0.000000 0.000000
# 5 0.000000 0.000000 0.000000 0.000000 0.028324 0.000000
# 6 0.000000 0.000000 0.000000 0.000000 0.000000 0.018912
#
#
# Mechanical properties :
#
#
# Convention : Reuss Voigt Hill
#
# Bulk Modulus (GPa) = 30.13653 46.27578 38.20615
# Shear Modulus (GPa) = 1.61541 32.98925 17.30233
#
# Velocity S-wave (km/s) = 0.81599 3.68747 2.67051
# Velocity P-wave (km/s) = 3.64820 6.09948 5.02559
#
# Compressibility (1/GPa) = 0.03318232
#
# Stress axis : x y z
#
# Youngs Moduli (GPa) = 131.27742 95.40012 32.83186
#
# Poissons Ratio (x) = 0.17170 0.15347
# Poissons Ratio (y) = 0.23627 0.03984
# Poissons Ratio (z) = 0.61366 0.11576
#
# Static dielectric constant tensor:
#      x y z
#    x 2.014370 0.000000 0.000000 
#    y 0.000000 2.071850 0.000000 
#    z 0.000000 0.000000 1.987910 
# 
# From -- ./inp_files/8712.got.cif
#   From: 2010.05.17/outbox.cif.g08.bks.cpg/sg45_5_cif.got.tgz:8712.got - 2010.06.03 19:51:22.
