data_PCOD9376141
_publ_section_title
;
Structure prediction by ZEFSAII (Michael W. Deem and Ramdas Pophale) SiO2 
 PCOD9376141
Probable space group: I B A 2
;
_chemical_formula_sum "Si O2"
_cell_formula_units_Z 48
_cell_length_a 15.770415
_cell_length_b 26.340724
_cell_length_c 5.018884
_cell_angle_alpha 90.000000
_cell_angle_beta 90.000000
_cell_angle_gamma 90.000000
_cell_volume 2084.865236
_symmetry_space_group_name_H-M "I B A 2"
_symmetry_group_IT_number 45
_symmetry_cell_setting 'orthorhombic'
loop_
_space_group_symop_operation_xyz
x,y,z
-x,-y,z
-x,y,1/2+z
x,-y,1/2+z
1/2+x,1/2+y,1/2+z
1/2-x,1/2-y,1/2+z
1/2-x,1/2+y,z
1/2+x,1/2-y,z
loop_
_atom_site_type_symbol
_atom_site_label
_atom_site_fract_x
_atom_site_fract_y
_atom_site_fract_z
Si Si1 0.183629 0.611620 0.489710
Si Si2 0.053794 0.813201 0.643711
Si Si3 0.442489 0.429707 0.610531
Si Si4 0.896115 0.523083 0.271686
Si Si5 0.736162 0.436246 0.959931
Si Si6 0.936478 0.294170 0.498088
O O1 0.108372 0.574668 0.605620
O O2 0.257965 0.602583 0.707577
O O3 0.139978 0.666093 0.487099
O O4 0.218389 0.592632 0.206393
O O5 0.085151 0.870018 0.594533
O O6 0.100501 0.762803 0.544991
O O7 0.030327 0.810209 0.955007
O O8 0.484280 0.439010 0.894790
O O9 0.355412 0.456254 0.537313
O O10 0.928496 0.520711 0.574044
O O11 0.796342 0.518896 0.350640
O O12 0.004169 0.300262 0.738699
#
# Coordination Sequence:
#
# PCOD9376141 Si02
#       6
#     8   8   8   8   8   8
#     4  10  20  33  53  80 103 129 176 211 255 304
#     4   8  16  30  48  72 100 140 176 198 240 310
#     4  10  19  33  54  76 105 139 174 210 251 299
#     4  10  18  34  56  76  94 134 174 204 250 324
#     4  10  20  33  53  80 103 129 176 211 255 304
#     4  10  19  33  54  76 105 139 174 210 251 299
#
# _framework density 23.023071999999999
#
# number of rings (size 3 to 8) (size 9 to 14) (size 15 to 20)
#    1.000    1.333    1.667    2.000    0.000    0.000 
#    0.000    1.667    0.000    6.000    0.000    0.000 
#    0.000    0.000    0.000    0.000    0.000    0.000 
#
# Total GULP energy -133611.813037 kJ/mol
# GULP energy per Si atom -5567.158877 kJ/mol
# Density = 2.297067 g / cm^3
# Si number density = 23.023072 Si / 1000 Ang^3
#
#
#
# Elastic Constant Matrix: (Units=GPa)
#
#
# Indices 1 2 3 4 5 6 
#
# 1 56.5040 4.6588 -16.5515 0.0014 -0.0059 0.0005
# 2 4.6588 63.0564 14.4701 0.0007 -0.0015 0.0002
# 3 -16.5515 14.4701 138.4900 0.0210 -0.0134 -0.0015
# 4 0.0014 0.0007 0.0210 20.1855 -0.0046 0.0004
# 5 -0.0059 -0.0015 -0.0134 -0.0046 52.1459 -0.0001
# 6 0.0005 0.0002 -0.0015 0.0004 -0.0001 19.6155
#
#
#
# Elastic Compliance Matrix: (Units=1/GPa)
#
#
# Indices 1 2 3 4 5 6 
#
# 1 0.018566 -0.001927 0.002420 -0.000004 0.000003 0.000000
# 2 -0.001927 0.016448 -0.001949 0.000002 0.000000 0.000000
# 3 0.002420 -0.001949 0.007714 -0.000008 0.000002 0.000001
# 4 -0.000004 0.000002 -0.000008 0.049540 0.000004 -0.000001
# 5 0.000003 0.000000 0.000002 0.000004 0.019177 0.000000
# 6 0.000000 0.000000 0.000001 -0.000001 0.000000 0.050980
#
#
# Mechanical properties :
#
#
# Convention : Reuss Voigt Hill
#
# Bulk Modulus (GPa) = 25.11544 29.24504 27.18024
# Shear Modulus (GPa) = 27.99411 35.42090 31.70751
#
# Velocity S-wave (km/s) = 3.49078 3.92662 3.71510
# Velocity P-wave (km/s) = 5.21343 5.76957 5.49854
#
# Compressibility (1/GPa) = 0.03981614
#
# Stress axis : x y z
#
# Youngs Moduli (GPa) = 53.86281 60.79608 129.64079
#
# Poissons Ratio (x) = 0.11716 -0.31376
# Poissons Ratio (y) = 0.10380 0.25266
# Poissons Ratio (z) = -0.13036 0.11849
#
# Static dielectric constant tensor:
#      x y z
#    x 1.916850 0.000000 0.000010 
#    y 0.000000 1.971680 0.000000 
#    z 0.000010 0.000000 1.875580 
# 
# From -- ./inp_files/209.got.cif
#   From: 2010.05.17/outbox.cif.g08.bks.cpg/sg45_1_cif.got.tgz:209.got - 2010.06.03 19:51:22.
