data_PCOD9376215
_publ_section_title
;
Structure prediction by ZEFSAII (Michael W. Deem and Ramdas Pophale) SiO2 
 PCOD9376215
Probable space group: I B A 2
;
_chemical_formula_sum "Si O2"
_cell_formula_units_Z 48
_cell_length_a 5.295399
_cell_length_b 25.982492
_cell_length_c 14.078498
_cell_angle_alpha 90.000000
_cell_angle_beta 90.000000
_cell_angle_gamma 90.000000
_cell_volume 1937.027626
_symmetry_space_group_name_H-M "I B A 2"
_symmetry_group_IT_number 45
_symmetry_cell_setting 'orthorhombic'
loop_
_space_group_symop_operation_xyz
x,y,z
-x,-y,z
-x,y,1/2+z
x,-y,1/2+z
1/2+x,1/2+y,1/2+z
1/2-x,1/2-y,1/2+z
1/2-x,1/2+y,z
1/2+x,1/2-y,z
loop_
_atom_site_type_symbol
_atom_site_label
_atom_site_fract_x
_atom_site_fract_y
_atom_site_fract_z
Si Si1 0.589776 0.882943 0.242160
Si Si2 0.908486 0.386278 0.012690
Si Si3 0.413635 0.442609 0.245281
Si Si4 0.907604 0.056547 0.014190
Si Si5 0.107899 0.268129 0.490505
Si Si6 0.769663 0.770243 0.278535
O O1 0.583913 0.885598 0.127505
O O2 0.349074 0.916155 0.276566
O O3 0.618071 0.823371 0.268046
O O4 0.851881 0.907720 0.273931
O O5 0.630734 0.405026 0.985053
O O6 0.951024 0.328050 0.981101
O O7 0.133539 0.424247 0.981829
O O8 0.500000 0.500000 0.273494
O O9 0.397864 0.443962 0.129751
O O10 0.000000 0.000000 0.985756
O O11 0.377563 0.260700 0.540651
O O12 0.174411 0.242189 0.389361
O O13 0.558210 0.729908 0.240862
#
# Coordination Sequence:
#
# PCOD9376215 Si02
#       6
#     8   8   8   8   8   8
#     4  10  19  31  51  79 108 139 178 220 260 313
#     4  10  19  31  51  79 108 139 178 220 260 313
#     4   9  17  30  49  77 112 142 168 208 265 323
#     4   9  17  30  49  77 112 142 168 208 265 323
#     4  10  21  36  52  73 101 141 183 221 269 318
#     4  10  21  36  52  73 101 141 183 221 269 318
#
# _framework density 24.780235999999999
#
# number of rings (size 3 to 8) (size 9 to 14) (size 15 to 20)
#    0.000    2.333    0.000    3.000    0.000    5.333 
#    0.000    0.000    0.000    0.000    0.000   70.000 
#    0.000    0.000    0.000    0.000    0.000    2.000 
#
# Total GULP energy -134163.517630 kJ/mol
# GULP energy per Si atom -5590.146568 kJ/mol
# Density = 2.472383 g / cm^3
# Si number density = 24.780236 Si / 1000 Ang^3
#
#
#
# Elastic Constant Matrix: (Units=GPa)
#
#
# Indices 1 2 3 4 5 6 
#
# 1 213.2508 47.4972 4.2951 0.0000 0.0000 0.0000
# 2 47.4972 118.1155 -27.2631 0.0000 0.0000 0.0000
# 3 4.2951 -27.2631 71.7079 0.0000 0.0000 0.0000
# 4 0.0000 0.0000 0.0000 40.5641 0.0000 0.0000
# 5 0.0000 0.0000 0.0000 0.0000 12.4922 0.0000
# 6 0.0000 0.0000 0.0000 0.0000 0.0000 49.5267
#
#
#
# Elastic Compliance Matrix: (Units=1/GPa)
#
#
# Indices 1 2 3 4 5 6 
#
# 1 0.005247 -0.002392 -0.001224 0.000000 0.000000 0.000000
# 2 -0.002392 0.010372 0.004087 0.000000 0.000000 0.000000
# 3 -0.001224 0.004087 0.015572 0.000000 0.000000 0.000000
# 4 0.000000 0.000000 0.000000 0.024652 0.000000 0.000000
# 5 0.000000 0.000000 0.000000 0.000000 0.080050 0.000000
# 6 0.000000 0.000000 0.000000 0.000000 0.000000 0.020191
#
#
# Mechanical properties :
#
#
# Convention : Reuss Voigt Hill
#
# Bulk Modulus (GPa) = 31.12211 50.23694 40.67953
# Shear Modulus (GPa) = 30.14703 45.75296 37.94999
#
# Velocity S-wave (km/s) = 3.49173 4.30158 3.91764
# Velocity P-wave (km/s) = 5.37054 6.70734 6.07582
#
# Compressibility (1/GPa) = 0.03213150
#
# Stress axis : x y z
#
# Youngs Moduli (GPa) = 190.59193 96.41756 64.21595
#
# Poissons Ratio (x) = 0.23067 0.07859
# Poissons Ratio (y) = 0.45596 -0.26242
# Poissons Ratio (z) = 0.23325 -0.39401
#
# Static dielectric constant tensor:
#      x y z
#    x 2.023530 0.000000 0.000000 
#    y 0.000000 1.973890 0.000000 
#    z 0.000000 0.000000 2.064210 
# 
# From -- ./inp_files/7300.got.cif
#   From: 2010.05.17/outbox.cif.g08.bks.cpg/sg45_4_cif.got.tgz:7300.got - 2010.06.03 19:51:22.
