data_PCOD9376384
_publ_section_title
;
Structure prediction by ZEFSAII (Michael W. Deem and Ramdas Pophale) SiO2 
 PCOD9376384
Probable space group: I B A 2
;
_chemical_formula_sum "Si O2"
_cell_formula_units_Z 52
_cell_length_a 21.336890
_cell_length_b 8.928833
_cell_length_c 15.264671
_cell_angle_alpha 90.000000
_cell_angle_beta 90.000000
_cell_angle_gamma 90.000000
_cell_volume 2908.126319
_symmetry_space_group_name_H-M "I B A 2"
_symmetry_group_IT_number 45
_symmetry_cell_setting 'orthorhombic'
loop_
_space_group_symop_operation_xyz
x,y,z
-x,-y,z
-x,y,1/2+z
x,-y,1/2+z
1/2+x,1/2+y,1/2+z
1/2-x,1/2-y,1/2+z
1/2-x,1/2+y,z
1/2+x,1/2-y,z
loop_
_atom_site_type_symbol
_atom_site_label
_atom_site_fract_x
_atom_site_fract_y
_atom_site_fract_z
Si Si1 0.832886 0.295040 0.196840
Si Si2 0.618656 0.660637 0.363189
Si Si3 0.000000 0.000000 0.345540
Si Si4 0.800571 0.357589 0.493926
Si Si5 0.381344 0.339363 0.827891
Si Si6 0.300571 0.857589 0.197154
Si Si7 0.332886 0.204960 0.994240
O O1 0.882377 0.244557 0.269803
O O2 0.771183 0.192704 0.209616
O O3 0.811716 0.466399 0.211661
O O4 0.853445 0.279793 0.095540
O O5 0.549462 0.608421 0.394110
O O6 0.656051 0.760851 0.430608
O O7 0.651304 0.500000 0.345540
O O8 0.950538 0.891579 0.296970
O O9 0.815738 0.325046 0.595540
O O10 0.728817 0.307296 0.481465
O O11 0.811716 0.533601 0.479419
O O12 0.343949 0.239149 0.760472
O O13 0.382377 0.255443 0.921277
#
# Coordination Sequence:
#
# PCOD9376384 Si02
#       7
#     8   8   4   8   8   8   8
#     4  10  20  34  56  87 116 143 178 227 287 342
#     4  10  20  38  56  76 107 150 192 231 268 321
#     4   8  24  40  56  80 104 158 210 218 270 328
#     4  10  20  34  56  87 116 143 178 227 287 342
#     4  10  20  38  56  76 107 150 192 231 268 321
#     4  10  20  34  56  87 116 143 178 227 287 342
#     4  10  20  34  56  87 116 143 178 227 287 342
#
# _framework density 17.880928000000001
#
# number of rings (size 3 to 8) (size 9 to 14) (size 15 to 20)
#    0.923    1.231    0.000    3.692    0.000    3.692 
#    0.000    6.154    0.000    3.692    0.000    0.000 
#    0.000    0.000    0.000    0.000    0.000    0.000 
#
# Total GULP energy -144736.514196 kJ/mol
# GULP energy per Si atom -5566.789008 kJ/mol
# Density = 1.784023 g / cm^3
# Si number density = 17.880928 Si / 1000 Ang^3
#
#
#
# Elastic Constant Matrix: (Units=GPa)
#
#
# Indices 1 2 3 4 5 6 
#
# 1 43.6725 15.4897 39.7087 0.0000 0.0000 0.0000
# 2 15.4897 89.9831 52.2251 0.0000 0.0000 0.0000
# 3 39.7087 52.2251 75.7948 0.0000 0.0000 0.0000
# 4 0.0000 0.0000 0.0000 26.6650 0.0000 0.0000
# 5 0.0000 0.0000 0.0000 0.0000 2.7198 0.0000
# 6 0.0000 0.0000 0.0000 0.0000 0.0000 15.7655
#
#
#
# Elastic Compliance Matrix: (Units=1/GPa)
#
#
# Indices 1 2 3 4 5 6 
#
# 1 0.049359 0.010851 -0.033336 0.000000 0.000000 0.000000
# 2 0.010851 0.020905 -0.020089 0.000000 0.000000 0.000000
# 3 -0.033336 -0.020089 0.044500 0.000000 0.000000 0.000000
# 4 0.000000 0.000000 0.000000 0.037502 0.000000 0.000000
# 5 0.000000 0.000000 0.000000 0.000000 0.367678 0.000000
# 6 0.000000 0.000000 0.000000 0.000000 0.000000 0.063430
#
#
# Mechanical properties :
#
#
# Convention : Reuss Voigt Hill
#
# Bulk Modulus (GPa) = 33.76492 47.14418 40.45455
# Shear Modulus (GPa) = 7.37036 15.83186 11.60111
#
# Velocity S-wave (km/s) = 2.03245 2.97880 2.54991
# Velocity P-wave (km/s) = 4.94287 6.18497 5.59848
#
# Compressibility (1/GPa) = 0.02961654
#
# Stress axis : x y z
#
# Youngs Moduli (GPa) = 20.25954 47.83648 22.47193
#
# Poissons Ratio (x) = -0.51908 0.74912
# Poissons Ratio (y) = -0.21984 0.45143
# Poissons Ratio (z) = 0.67537 0.96097
#
# Static dielectric constant tensor:
#      x y z
#    x 1.616470 0.000000 0.000000 
#    y 0.000000 1.619370 0.000000 
#    z 0.000000 0.000000 1.632980 
# 
# From -- ./inp_files/5789.got.cif
#   From: 2010.05.17/outbox.cif.g08.bks.cpg/sg45_3_cif.got.tgz:5789.got - 2010.06.03 19:51:22.
