data_PCOD9376555
_publ_section_title
;
Structure prediction by ZEFSAII (Michael W. Deem and Ramdas Pophale) SiO2 
 PCOD9376555
Probable space group: I B A 2
;
_chemical_formula_sum "Si O2"
_cell_formula_units_Z 48
_cell_length_a 8.519387
_cell_length_b 19.005119
_cell_length_c 12.620951
_cell_angle_alpha 90.000000
_cell_angle_beta 90.000000
_cell_angle_gamma 90.000000
_cell_volume 2043.482961
_symmetry_space_group_name_H-M "I B A 2"
_symmetry_group_IT_number 45
_symmetry_cell_setting 'orthorhombic'
loop_
_space_group_symop_operation_xyz
x,y,z
-x,-y,z
-x,y,1/2+z
x,-y,1/2+z
1/2+x,1/2+y,1/2+z
1/2-x,1/2-y,1/2+z
1/2-x,1/2+y,z
1/2+x,1/2-y,z
loop_
_atom_site_type_symbol
_atom_site_label
_atom_site_fract_x
_atom_site_fract_y
_atom_site_fract_z
Si Si1 0.251325 0.948950 0.845800
Si Si2 0.202873 0.722764 0.814375
Si Si3 0.504350 0.650364 0.359364
Si Si4 0.596370 0.165440 0.698321
Si Si5 0.074082 0.572597 0.553763
Si Si6 0.375125 0.559218 0.691199
O O1 0.090665 0.917686 0.897540
O O2 0.305568 0.897553 0.751375
O O3 0.211294 0.023166 0.793224
O O4 0.385701 0.940870 0.932141
O O5 0.323923 0.679260 0.886883
O O6 0.114395 0.785417 0.875061
O O7 0.302552 0.764684 0.723119
O O8 0.065686 0.677098 0.762887
O O9 0.534793 0.626750 0.236673
O O10 0.538684 0.137355 0.584346
O O11 0.241636 0.579910 0.610497
O O12 0.000000 0.500000 0.596316
O O13 0.500000 0.500000 0.654849
#
# Coordination Sequence:
#
# PCOD9376555 Si02
#       6
#     8   8   8   8   8   8
#     4  10  23  39  60  91 125 161 205 257 316 369
#     4   9  18  35  68  85 115 170 200 239 309 361
#     4   9  18  36  62  84 119 160 200 243 300 364
#     4  10  20  40  60  89 123 162 202 250 306 366
#     4  12  24  37  63  95 122 162 209 260 313 377
#     4  10  21  39  61  88 128 163 198 254 315 374
#
# _framework density 23.489305999999999
#
# number of rings (size 3 to 8) (size 9 to 14) (size 15 to 20)
#    0.000    2.000    3.333    0.000    2.333    2.000 
#    0.000    6.667    0.000    0.000    0.000    0.000 
#    0.000    0.000    0.000    0.000    0.000    0.000 
#
# Total GULP energy -133772.989485 kJ/mol
# GULP energy per Si atom -5573.874562 kJ/mol
# Density = 2.343584 g / cm^3
# Si number density = 23.489306 Si / 1000 Ang^3
#
#
#
# Elastic Constant Matrix: (Units=GPa)
#
#
# Indices 1 2 3 4 5 6 
#
# 1 120.1170 19.3765 21.4285 0.0000 0.0000 0.0000
# 2 19.3765 66.3297 2.5888 0.0000 0.0000 0.0000
# 3 21.4285 2.5888 39.8296 0.0000 0.0000 0.0000
# 4 0.0000 0.0000 0.0000 5.4618 0.0000 0.0000
# 5 0.0000 0.0000 0.0000 0.0000 16.6549 0.0000
# 6 0.0000 0.0000 0.0000 0.0000 0.0000 56.6061
#
#
#
# Elastic Compliance Matrix: (Units=1/GPa)
#
#
# Indices 1 2 3 4 5 6 
#
# 1 0.009643 -0.002621 -0.005018 0.000000 0.000000 0.000000
# 2 -0.002621 0.015827 0.000381 0.000000 0.000000 0.000000
# 3 -0.005018 0.000381 0.027782 0.000000 0.000000 0.000000
# 4 0.000000 0.000000 0.000000 0.183090 0.000000 0.000000
# 5 0.000000 0.000000 0.000000 0.000000 0.060042 0.000000
# 6 0.000000 0.000000 0.000000 0.000000 0.000000 0.017666
#
#
# Mechanical properties :
#
#
# Convention : Reuss Voigt Hill
#
# Bulk Modulus (GPa) = 25.81503 34.78488 30.29996
# Shear Modulus (GPa) = 14.64227 27.93673 21.28950
#
# Velocity S-wave (km/s) = 2.49942 3.45242 3.01383
# Velocity P-wave (km/s) = 4.39812 5.54376 5.00383
#
# Compressibility (1/GPa) = 0.03873712
#
# Stress axis : x y z
#
# Youngs Moduli (GPa) = 103.70012 63.18310 35.99494
#
# Poissons Ratio (x) = 0.16561 0.18061
# Poissons Ratio (y) = 0.27182 -0.01373
# Poissons Ratio (z) = 0.52034 -0.02410
#
# Static dielectric constant tensor:
#      x y z
#    x 1.960740 0.000000 0.000000 
#    y 0.000000 1.917480 0.000000 
#    z 0.000000 0.000000 1.916890 
# 
# From -- ./inp_files/3274.got.cif
#   From: 2010.05.17/outbox.cif.g08.bks.cpg/sg45_2_cif.got.tgz:3274.got - 2010.06.03 19:51:22.
