data_PCOD9376644
_publ_section_title
;
Structure prediction by ZEFSAII (Michael W. Deem and Ramdas Pophale) SiO2 
 PCOD9376644
Probable space group: I B A 2
;
_chemical_formula_sum "Si O2"
_cell_formula_units_Z 60
_cell_length_a 15.066542
_cell_length_b 22.482451
_cell_length_c 8.723746
_cell_angle_alpha 90.000000
_cell_angle_beta 90.000000
_cell_angle_gamma 90.000000
_cell_volume 2955.018841
_symmetry_space_group_name_H-M "I B A 2"
_symmetry_group_IT_number 45
_symmetry_cell_setting 'orthorhombic'
loop_
_space_group_symop_operation_xyz
x,y,z
-x,-y,z
-x,y,1/2+z
x,-y,1/2+z
1/2+x,1/2+y,1/2+z
1/2-x,1/2-y,1/2+z
1/2-x,1/2+y,z
1/2+x,1/2-y,z
loop_
_atom_site_type_symbol
_atom_site_label
_atom_site_fract_x
_atom_site_fract_y
_atom_site_fract_z
Si Si1 0.000000 0.000000 0.833720
Si Si2 0.628023 0.479375 0.582655
Si Si3 0.880592 0.343390 0.055441
Si Si4 0.567571 0.703614 0.444855
Si Si5 0.061159 0.656598 0.407905
Si Si6 0.881195 0.204749 0.088149
Si Si7 0.744621 0.887551 0.474333
Si Si8 0.305303 0.612674 0.117295
O O1 0.068527 0.036046 0.729323
O O2 0.936486 0.037233 0.942767
O O3 0.718584 0.445620 0.558315
O O4 0.646721 0.549808 0.586327
O O5 0.919413 0.348003 0.227564
O O6 0.860329 0.273004 0.045117
O O7 0.790301 0.379863 0.035504
O O8 0.960687 0.360411 0.944409
O O9 0.573210 0.775240 0.466920
O O10 0.466397 0.686764 0.486124
O O11 0.591305 0.696367 0.265728
O O12 0.632145 0.665471 0.554180
O O13 0.139524 0.618603 0.482693
O O14 0.794998 0.166553 0.054475
O O15 0.778713 0.885281 0.297351
#
# Coordination Sequence:
#
# PCOD9376644 Si02
#       8
#     4   8   8   8   8   8   8   8
#     4  10  24  42  60  78 118 154 184 230 276 336
#     4  11  24  40  59  84 116 148 191 226 283 332
#     4   9  20  40  59  84 114 150 189 236 283 332
#     4  10  21  34  57  86 118 151 188 228 283 341
#     4   9  20  40  59  84 114 150 189 236 283 332
#     4  10  21  34  57  86 118 151 188 228 283 341
#     4  11  23  38  59  84 116 149 192 237 281 336
#     4  11  23  38  59  84 116 149 192 237 281 336
#
# _framework density 20.304441000000001
#
# number of rings (size 3 to 8) (size 9 to 14) (size 15 to 20)
#    0.000    1.867    1.333    1.600    5.600    2.133 
#    0.000    0.667    0.000    3.200    0.000    0.000 
#    0.000    0.000    0.000    0.000    0.000    0.000 
#
# Total GULP energy -167482.961661 kJ/mol
# GULP energy per Si atom -5582.765389 kJ/mol
# Density = 2.025823 g / cm^3
# Si number density = 20.304441 Si / 1000 Ang^3
#
#
#
# Elastic Constant Matrix: (Units=GPa)
#
#
# Indices 1 2 3 4 5 6 
#
# 1 67.5447 16.7565 -2.7727 0.0000 0.0000 0.0000
# 2 16.7565 35.5481 6.4340 0.0000 0.0000 0.0000
# 3 -2.7727 6.4340 35.6584 0.0000 0.0000 0.0000
# 4 0.0000 0.0000 0.0000 11.2308 0.0000 0.0000
# 5 0.0000 0.0000 0.0000 0.0000 30.6148 0.0000
# 6 0.0000 0.0000 0.0000 0.0000 0.0000 16.7177
#
#
#
# Elastic Compliance Matrix: (Units=1/GPa)
#
#
# Indices 1 2 3 4 5 6 
#
# 1 0.017045 -0.008554 0.002869 0.000000 0.000000 0.000000
# 2 -0.008554 0.033373 -0.006687 0.000000 0.000000 0.000000
# 3 0.002869 -0.006687 0.029473 0.000000 0.000000 0.000000
# 4 0.000000 0.000000 0.000000 0.089041 0.000000 0.000000
# 5 0.000000 0.000000 0.000000 0.000000 0.032664 0.000000
# 6 0.000000 0.000000 0.000000 0.000000 0.000000 0.059817
#
#
# Mechanical properties :
#
#
# Convention : Reuss Voigt Hill
#
# Bulk Modulus (GPa) = 18.13304 19.95408 19.04356
# Shear Modulus (GPa) = 16.41824 19.60155 18.00989
#
# Velocity S-wave (km/s) = 2.84668 3.11043 2.98147
# Velocity P-wave (km/s) = 4.44463 4.76954 4.60995
#
# Compressibility (1/GPa) = 0.05514795
#
# Stress axis : x y z
#
# Youngs Moduli (GPa) = 58.66897 29.96414 33.92882
#
# Poissons Ratio (x) = 0.25631 -0.09733
# Poissons Ratio (y) = 0.50184 0.22687
# Poissons Ratio (z) = -0.16831 0.20036
#
# Static dielectric constant tensor:
#      x y z
#    x 1.713920 0.000000 0.000000 
#    y 0.000000 1.735400 0.000000 
#    z 0.000000 0.000000 1.759130 
# 
# From -- ./inp_files/1898.got.cif
#   From: 2010.05.17/outbox.cif.g08.bks.cpg/sg45_1_cif.got.tgz:1898.got - 2010.06.03 19:51:22.
