data_PCOD9376087
_publ_section_title
;
Structure prediction by ZEFSAII (Michael W. Deem and Ramdas Pophale) SiO2 
 PCOD9376087
Probable space group: I B A 2
;
_chemical_formula_sum "Si O2"
_cell_formula_units_Z 48
_cell_length_a 24.328900
_cell_length_b 14.508931
_cell_length_c 5.500018
_cell_angle_alpha 90.000000
_cell_angle_beta 90.000000
_cell_angle_gamma 90.000000
_cell_volume 1941.431176
_symmetry_space_group_name_H-M "I B A 2"
_symmetry_group_IT_number 45
_symmetry_cell_setting 'orthorhombic'
loop_
_space_group_symop_operation_xyz
x,y,z
-x,-y,z
-x,y,1/2+z
x,-y,1/2+z
1/2+x,1/2+y,1/2+z
1/2-x,1/2-y,1/2+z
1/2-x,1/2+y,z
1/2+x,1/2-y,z
loop_
_atom_site_type_symbol
_atom_site_label
_atom_site_fract_x
_atom_site_fract_y
_atom_site_fract_z
Si Si1 0.199259 0.443526 0.419910
Si Si2 0.844522 0.809275 0.474074
Si Si3 0.072309 0.557542 0.941353
Si Si4 0.528945 0.257597 0.432568
Si Si5 0.888896 0.005815 0.482114
Si Si6 0.306796 0.676388 0.973226
O O1 0.204406 0.513277 0.649755
O O2 0.136165 0.409498 0.438221
O O3 0.249611 0.375047 0.455226
O O4 0.909023 0.791725 0.459424
O O5 0.843513 0.922509 0.481751
O O6 0.814413 0.775107 0.231606
O O7 0.819271 0.771161 0.723441
O O8 0.064970 0.498104 0.694249
O O9 0.033795 0.646408 0.934833
O O10 0.504464 0.286280 0.172571
O O11 0.921064 0.999613 0.732008
O O12 0.855858 0.100810 0.481188
#
# Coordination Sequence:
#
# PCOD9376087 Si02
#       6
#     8   8   8   8   8   8
#     4  10  18  32  57  92 126 154 188 233 291 350
#     4  10  20  34  54  84 118 153 196 239 281 343
#     4  10  23  42  65  92 118 144 190 253 302 360
#     4  12  26  44  64  83 112 156 202 253 314 354
#     4   8  14  25  47  74 104 142 185 218 251 313
#     4  10  17  31  57  87 120 160 193 220 271 347
#
# _framework density 24.724029999999999
#
# number of rings (size 3 to 8) (size 9 to 14) (size 15 to 20)
#    0.000    2.000    0.000    6.000    0.000    2.000 
#    0.000    1.667    0.000   27.000    0.000    0.000 
#    0.000    0.000    0.000    0.000    0.000    0.000 
#
# Total GULP energy -134237.482112 kJ/mol
# GULP energy per Si atom -5593.228421 kJ/mol
# Density = 2.466776 g / cm^3
# Si number density = 24.724030 Si / 1000 Ang^3
#
#
#
# Elastic Constant Matrix: (Units=GPa)
#
#
# Indices 1 2 3 4 5 6 
#
# 1 76.6152 -2.2792 -14.0736 0.0000 0.0000 0.0000
# 2 -2.2792 39.8130 -1.1290 0.0000 0.0000 0.0000
# 3 -14.0736 -1.1290 184.8385 0.0000 0.0000 0.0000
# 4 0.0000 0.0000 0.0000 13.5823 0.0000 0.0000
# 5 0.0000 0.0000 0.0000 0.0000 25.8020 0.0000
# 6 0.0000 0.0000 0.0000 0.0000 0.0000 39.7429
#
#
#
# Elastic Compliance Matrix: (Units=1/GPa)
#
#
# Indices 1 2 3 4 5 6 
#
# 1 0.013262 0.000788 0.001015 0.000000 0.000000 0.000000
# 2 0.000788 0.025169 0.000214 0.000000 0.000000 0.000000
# 3 0.001015 0.000214 0.005489 0.000000 0.000000 0.000000
# 4 0.000000 0.000000 0.000000 0.073625 0.000000 0.000000
# 5 0.000000 0.000000 0.000000 0.000000 0.038757 0.000000
# 6 0.000000 0.000000 0.000000 0.000000 0.000000 0.025162
#
#
# Mechanical properties :
#
#
# Convention : Reuss Voigt Hill
#
# Bulk Modulus (GPa) = 20.85422 29.58923 25.22173
# Shear Modulus (GPa) = 25.85125 37.07533 31.46329
#
# Velocity S-wave (km/s) = 3.23707 3.87662 3.57119
# Velocity P-wave (km/s) = 4.73546 5.65963 5.21805
#
# Compressibility (1/GPa) = 0.04795191
#
# Stress axis : x y z
#
# Youngs Moduli (GPa) = 75.40306 39.73207 182.19297
#
# Poissons Ratio (x) = -0.03131 -0.18485
# Poissons Ratio (y) = -0.05942 -0.03894
# Poissons Ratio (z) = -0.07650 -0.00849
#
# Static dielectric constant tensor:
#      x y z
#    x 1.861450 0.000000 0.000000 
#    y 0.000000 2.006970 0.000000 
#    z 0.000000 0.000000 2.105450 
# 
# From -- ./inp_files/188.got.cif
#   From: 2010.05.17/outbox.cif.g08.bks.cpg/sg45_1_cif.got.tgz:188.got - 2010.06.03 19:51:22.
