data_PCOD9376235
_publ_section_title
;
Structure prediction by ZEFSAII (Michael W. Deem and Ramdas Pophale) SiO2 
 PCOD9376235
Probable space group: I B A 2
;
_chemical_formula_sum "Si O2"
_cell_formula_units_Z 52
_cell_length_a 24.694620
_cell_length_b 5.920773
_cell_length_c 13.829147
_cell_angle_alpha 90.000000
_cell_angle_beta 90.000000
_cell_angle_gamma 90.000000
_cell_volume 2021.976722
_symmetry_space_group_name_H-M "I B A 2"
_symmetry_group_IT_number 45
_symmetry_cell_setting 'orthorhombic'
loop_
_space_group_symop_operation_xyz
x,y,z
-x,-y,z
-x,y,1/2+z
x,-y,1/2+z
1/2+x,1/2+y,1/2+z
1/2-x,1/2-y,1/2+z
1/2-x,1/2+y,z
1/2+x,1/2-y,z
loop_
_atom_site_type_symbol
_atom_site_label
_atom_site_fract_x
_atom_site_fract_y
_atom_site_fract_z
Si Si1 0.625651 0.882308 0.804750
Si Si2 0.059554 0.016053 0.391111
Si Si3 0.228736 0.866855 0.841610
Si Si4 0.119881 0.330041 0.984548
Si Si5 0.500000 0.000000 0.542952
Si Si6 0.454064 0.165694 0.219789
Si Si7 0.735393 0.135643 0.066632
O O1 0.575870 0.757398 0.855246
O O2 0.669973 0.690493 0.797382
O O3 0.643598 0.061667 0.885509
O O4 0.600939 0.019403 0.715991
O O5 0.105827 0.928801 0.462199
O O6 0.056099 0.865091 0.293521
O O7 0.000000 0.000000 0.433695
O O8 0.257323 0.625622 0.813247
O O9 0.235270 0.866661 0.959710
O O10 0.170209 0.355770 0.054939
O O11 0.058056 0.422428 0.999905
O O12 0.479211 0.798113 0.614778
O O13 0.500000 0.000000 0.261966
O O14 0.751565 0.384198 0.109323
#
# Coordination Sequence:
#
# PCOD9376235 Si02
#       7
#     8   8   8   8   4   8   8
#     4  11  20  34  61  85 117 153 199 260 312 364
#     4  11  19  33  57  85 113 153 201 250 310 367
#     4  10  19  33  54  94 125 147 193 255 321 373
#     4  11  22  34  61  91 123 157 200 268 315 381
#     4  10  22  42  54  82 128 164 212 246 314 396
#     4   9  21  39  54  77 117 164 201 243 305 374
#     4  10  19  36  59  91 127 158 199 255 330 375
#
# _framework density 25.717409
#
# number of rings (size 3 to 8) (size 9 to 14) (size 15 to 20)
#    0.462    1.231    4.615    2.769    4.308    0.000 
#    0.000    6.923    0.000    1.846    0.000    0.000 
#    0.000    0.000    0.000    0.000    0.000    0.000 
#
# Total GULP energy -144778.684031 kJ/mol
# GULP energy per Si atom -5568.410924 kJ/mol
# Density = 2.565887 g / cm^3
# Si number density = 25.717409 Si / 1000 Ang^3
#
#
#
# Elastic Constant Matrix: (Units=GPa)
#
#
# Indices 1 2 3 4 5 6 
#
# 1 120.1686 39.3787 31.1614 0.0000 0.0000 0.0000
# 2 39.3787 142.8208 35.0758 0.0000 0.0000 0.0000
# 3 31.1614 35.0758 48.2726 0.0000 0.0000 0.0000
# 4 0.0000 0.0000 0.0000 12.0177 0.0000 0.0000
# 5 0.0000 0.0000 0.0000 0.0000 20.7900 0.0000
# 6 0.0000 0.0000 0.0000 0.0000 0.0000 56.7808
#
#
#
# Elastic Compliance Matrix: (Units=1/GPa)
#
#
# Indices 1 2 3 4 5 6 
#
# 1 0.010239 -0.001460 -0.005548 0.000000 0.000000 0.000000
# 2 -0.001460 0.008731 -0.005401 0.000000 0.000000 0.000000
# 3 -0.005548 -0.005401 0.028222 0.000000 0.000000 0.000000
# 4 0.000000 0.000000 0.000000 0.083211 0.000000 0.000000
# 5 0.000000 0.000000 0.000000 0.000000 0.048100 0.000000
# 6 0.000000 0.000000 0.000000 0.000000 0.000000 0.017612
#
#
# Mechanical properties :
#
#
# Convention : Reuss Voigt Hill
#
# Bulk Modulus (GPa) = 44.69937 58.05487 51.37712
# Shear Modulus (GPa) = 21.89218 31.62743 26.75980
#
# Velocity S-wave (km/s) = 2.92080 3.51066 3.22923
# Velocity P-wave (km/s) = 5.36596 6.24949 5.82450
#
# Compressibility (1/GPa) = 0.02237168
#
# Stress axis : x y z
#
# Youngs Moduli (GPa) = 97.66577 114.53456 35.43332
#
# Poissons Ratio (x) = 0.16727 0.19660
# Poissons Ratio (y) = 0.14264 0.19139
# Poissons Ratio (z) = 0.54189 0.61864
#
# Static dielectric constant tensor:
#      x y z
#    x 2.074010 0.000000 0.000000 
#    y 0.000000 2.033580 0.000000 
#    z 0.000000 0.000000 2.085410 
# 
# From -- ./inp_files/7329.got.cif
#   From: 2010.05.17/outbox.cif.g08.bks.cpg/sg45_4_cif.got.tgz:7329.got - 2010.06.03 19:51:22.
