data_PCOD9376085
_publ_section_title
;
Structure prediction by ZEFSAII (Michael W. Deem and Ramdas Pophale) SiO2 
 PCOD9376085
Probable space group: I B A 2
;
_chemical_formula_sum "Si O2"
_cell_formula_units_Z 48
_cell_length_a 27.159620
_cell_length_b 23.638683
_cell_length_c 5.002129
_cell_angle_alpha 90.000000
_cell_angle_beta 90.000000
_cell_angle_gamma 90.000000
_cell_volume 3211.455093
_symmetry_space_group_name_H-M "I B A 2"
_symmetry_group_IT_number 45
_symmetry_cell_setting 'orthorhombic'
loop_
_space_group_symop_operation_xyz
x,y,z
-x,-y,z
-x,y,1/2+z
x,-y,1/2+z
1/2+x,1/2+y,1/2+z
1/2-x,1/2-y,1/2+z
1/2-x,1/2+y,z
1/2+x,1/2-y,z
loop_
_atom_site_type_symbol
_atom_site_label
_atom_site_fract_x
_atom_site_fract_y
_atom_site_fract_z
Si Si1 0.323166 0.652936 0.233120
Si Si2 0.267199 0.782224 0.623228
Si Si3 0.860530 0.222007 0.231800
Si Si4 0.638575 0.464816 0.008849
Si Si5 0.030630 0.075279 0.877551
Si Si6 0.530640 0.288385 0.862796
O O1 0.264369 0.664127 0.218269
O O2 0.346382 0.673349 0.513974
O O3 0.337161 0.591143 0.131387
O O4 0.345648 0.696662 0.018074
O O5 0.254882 0.767169 0.317052
O O6 0.325296 0.775108 0.665572
O O7 0.918049 0.234705 0.251389
O O8 0.651107 0.516052 0.209240
O O9 0.580293 0.451727 0.987787
O O10 0.037403 0.143311 0.872911
O O11 0.014064 0.061279 0.577923
O O12 0.486836 0.273343 0.659015
#
# Coordination Sequence:
#
# PCOD9376085 Si02
#       6
#     8   8   8   8   8   8
#     4  10  19  32  46  61  83 101 133 181 209 254
#     4   8  16  28  46  67  78  98 127 164 216 250
#     4  10  17  30  49  63  82 104 132 170 209 253
#     4  12  24  33  44  58  76 108 141 176 220 246
#     4  10  21  33  44  54  73 104 142 181 215 241
#     4  10  19  28  43  63  81 108 134 164 210 250
#
# _framework density 14.946497000000001
#
# number of rings (size 3 to 8) (size 9 to 14) (size 15 to 20)
#    0.000    2.000    1.667    3.000    4.667    2.000 
#    0.000    0.000    0.000    0.000    0.000    0.000 
#    0.000    0.000    0.000    0.000    0.000    5.000 
#
# Total GULP energy -133753.187563 kJ/mol
# GULP energy per Si atom -5573.049482 kJ/mol
# Density = 1.491248 g / cm^3
# Si number density = 14.946497 Si / 1000 Ang^3
#
#
#
# Elastic Constant Matrix: (Units=GPa)
#
#
# Indices 1 2 3 4 5 6 
#
# 1 82.0956 29.3271 7.2502 0.0000 0.0000 0.0000
# 2 29.3271 24.5592 -1.3992 0.0000 0.0000 0.0000
# 3 7.2502 -1.3992 74.3150 0.0000 0.0000 0.0000
# 4 0.0000 0.0000 0.0000 13.2465 0.0000 0.0000
# 5 0.0000 0.0000 0.0000 0.0000 18.9580 0.0000
# 6 0.0000 0.0000 0.0000 0.0000 0.0000 21.7891
#
#
#
# Elastic Compliance Matrix: (Units=1/GPa)
#
#
# Indices 1 2 3 4 5 6 
#
# 1 0.021738 -0.026107 -0.002612 0.000000 0.000000 0.000000
# 2 -0.026107 0.072116 0.003905 0.000000 0.000000 0.000000
# 3 -0.002612 0.003905 0.013785 0.000000 0.000000 0.000000
# 4 0.000000 0.000000 0.000000 0.075492 0.000000 0.000000
# 5 0.000000 0.000000 0.000000 0.000000 0.052748 0.000000
# 6 0.000000 0.000000 0.000000 0.000000 0.000000 0.045894
#
#
# Mechanical properties :
#
#
# Convention : Reuss Voigt Hill
#
# Bulk Modulus (GPa) = 17.23856 27.92511 22.58183
# Shear Modulus (GPa) = 14.25568 20.51817 17.38693
#
# Velocity S-wave (km/s) = 3.09168 3.70912 3.41439
# Velocity P-wave (km/s) = 4.92983 6.08830 5.53943
#
# Compressibility (1/GPa) = 0.05800948
#
# Stress axis : x y z
#
# Youngs Moduli (GPa) = 46.00288 13.86663 72.54461
#
# Poissons Ratio (x) = 0.36201 0.18951
# Poissons Ratio (y) = 1.20099 -0.28327
# Poissons Ratio (z) = 0.12017 -0.05415
#
# Static dielectric constant tensor:
#      x y z
#    x 1.542070 0.000000 0.000000 
#    y 0.000000 1.496080 0.000000 
#    z 0.000000 0.000000 1.515440 
# 
# From -- ./inp_files/310.got.cif
#   From: 2010.05.17/outbox.cif.g08.bks.cpg/sg45_1_cif.got.tgz:310.got - 2010.06.03 19:51:22.
