data_PCOD9376987
_publ_section_title
;
Structure prediction by ZEFSAII (Michael W. Deem and Ramdas Pophale) SiO2 
 PCOD9376987
Probable space group: I B A 2
;
_chemical_formula_sum "Si O2"
_cell_formula_units_Z 64
_cell_length_a 14.565827
_cell_length_b 20.204415
_cell_length_c 8.993633
_cell_angle_alpha 90.000000
_cell_angle_beta 90.000000
_cell_angle_gamma 90.000000
_cell_volume 2646.772352
_symmetry_space_group_name_H-M "I B A 2"
_symmetry_group_IT_number 45
_symmetry_cell_setting 'orthorhombic'
loop_
_space_group_symop_operation_xyz
x,y,z
-x,-y,z
-x,y,1/2+z
x,-y,1/2+z
1/2+x,1/2+y,1/2+z
1/2-x,1/2-y,1/2+z
1/2-x,1/2+y,z
1/2+x,1/2-y,z
loop_
_atom_site_type_symbol
_atom_site_label
_atom_site_fract_x
_atom_site_fract_y
_atom_site_fract_z
Si Si1 0.510696 0.930351 0.168940
Si Si2 0.117270 0.878717 0.137546
Si Si3 0.959736 0.929203 0.924651
Si Si4 0.209057 0.739388 0.068581
Si Si5 0.357318 0.799706 0.891833
Si Si6 0.063207 0.339113 0.397845
Si Si7 0.821325 0.446350 0.383852
Si Si8 0.711902 0.482358 0.108744
O O1 0.432750 0.891307 0.262119
O O2 0.585719 0.951191 0.291372
O O3 0.500000 0.000000 0.088113
O O4 0.546765 0.878983 0.049658
O O5 0.069949 0.878986 0.297649
O O6 0.166136 0.811763 0.094117
O O7 0.182393 0.942763 0.144837
O O8 0.039539 0.897353 0.020159
O O9 0.871986 0.947290 0.025885
O O10 0.000000 0.000000 0.863383
O O11 0.191087 0.705959 0.229292
O O12 0.312192 0.748411 0.007026
O O13 0.151751 0.704007 0.936276
O O14 0.467741 0.798245 0.873649
O O15 0.332329 0.873320 0.950702
O O16 0.796386 0.504891 0.496364
O O17 0.741222 0.447462 0.259852
#
# Coordination Sequence:
#
# PCOD9376987 Si02
#       8
#     8   8   8   8   8   8   8   8
#     4  11  26  44  75 100 134 182 231 297 363 409
#     4  11  24  39  65  99 132 185 231 271 352 422
#     4  10  22  40  62  97 140 178 223 286 351 413
#     4  12  27  49  73 101 143 195 236 295 355 428
#     4  11  28  49  71 104 141 189 245 294 358 430
#     4  11  25  51  68 107 144 181 242 295 359 433
#     4  11  24  44  66 103 137 177 233 289 359 416
#     4  11  22  42  67  98 143 173 228 300 347 419
#
# _framework density 24.180395000000001
#
# number of rings (size 3 to 8) (size 9 to 14) (size 15 to 20)
#    0.000    1.000    5.000    1.500   10.500    1.000 
#    0.000    0.000    0.000    0.000    0.000    0.000 
#    0.000    0.000    0.000    0.000    0.000    0.000 
#
# Total GULP energy -179059.474866 kJ/mol
# GULP energy per Si atom -5595.608590 kJ/mol
# Density = 2.412536 g / cm^3
# Si number density = 24.180395 Si / 1000 Ang^3
#
#
#
# Elastic Constant Matrix: (Units=GPa)
#
#
# Indices 1 2 3 4 5 6 
#
# 1 63.9883 7.4277 9.4900 0.0000 0.0000 0.0000
# 2 7.4277 64.6180 3.6123 0.0000 0.0000 0.0000
# 3 9.4900 3.6123 70.0039 0.0000 0.0000 0.0000
# 4 0.0000 0.0000 0.0000 17.6977 0.0000 0.0000
# 5 0.0000 0.0000 0.0000 0.0000 24.3175 0.0000
# 6 0.0000 0.0000 0.0000 0.0000 0.0000 23.6149
#
#
#
# Elastic Compliance Matrix: (Units=1/GPa)
#
#
# Indices 1 2 3 4 5 6 
#
# 1 0.016141 -0.001738 -0.002098 0.000000 0.000000 0.000000
# 2 -0.001738 0.015707 -0.000575 0.000000 0.000000 0.000000
# 3 -0.002098 -0.000575 0.014599 0.000000 0.000000 0.000000
# 4 0.000000 0.000000 0.000000 0.056504 0.000000 0.000000
# 5 0.000000 0.000000 0.000000 0.000000 0.041123 0.000000
# 6 0.000000 0.000000 0.000000 0.000000 0.000000 0.042346
#
#
# Mechanical properties :
#
#
# Convention : Reuss Voigt Hill
#
# Bulk Modulus (GPa) = 26.57837 26.63004 26.60420
# Shear Modulus (GPa) = 24.06336 24.99805 24.53071
#
# Velocity S-wave (km/s) = 3.15804 3.21879 3.18856
# Velocity P-wave (km/s) = 4.93084 4.98509 4.95804
#
# Compressibility (1/GPa) = 0.03762458
#
# Stress axis : x y z
#
# Youngs Moduli (GPa) = 61.95475 63.66395 68.49756
#
# Poissons Ratio (x) = 0.11065 0.14374
# Poissons Ratio (y) = 0.10768 0.03938
# Poissons Ratio (z) = 0.13001 0.03660
#
# Static dielectric constant tensor:
#      x y z
#    x 2.049560 0.000000 0.000000 
#    y 0.000000 1.966640 0.000000 
#    z 0.000000 0.000000 1.957130 
# 
# From -- ./inp_files/1940.got.cif
#   From: 2010.05.17/outbox.cif.g08.bks.cpg/sg45_1_cif.got.tgz:1940.got - 2010.06.03 19:51:22.
