data_PCOD9376502
_publ_section_title
;
Structure prediction by ZEFSAII (Michael W. Deem and Ramdas Pophale) SiO2 
 PCOD9376502
Probable space group: I B A 2
;
_chemical_formula_sum "Si O2"
_cell_formula_units_Z 48
_cell_length_a 18.955644
_cell_length_b 5.183946
_cell_length_c 23.604395
_cell_angle_alpha 90.000000
_cell_angle_beta 90.000000
_cell_angle_gamma 90.000000
_cell_volume 2319.486698
_symmetry_space_group_name_H-M "I B A 2"
_symmetry_group_IT_number 45
_symmetry_cell_setting 'orthorhombic'
loop_
_space_group_symop_operation_xyz
x,y,z
-x,-y,z
-x,y,1/2+z
x,-y,1/2+z
1/2+x,1/2+y,1/2+z
1/2-x,1/2-y,1/2+z
1/2-x,1/2+y,z
1/2+x,1/2-y,z
loop_
_atom_site_type_symbol
_atom_site_label
_atom_site_fract_x
_atom_site_fract_y
_atom_site_fract_z
Si Si1 0.800494 0.796030 0.010200
Si Si2 0.921087 0.906358 0.921958
Si Si3 0.635515 0.672350 0.757997
Si Si4 0.568239 0.166955 0.801236
Si Si5 0.701546 0.316498 0.140550
Si Si6 0.792042 0.893378 0.366251
O O1 0.749894 0.547371 0.002291
O O2 0.824924 0.805562 0.076023
O O3 0.870938 0.800603 0.971757
O O4 0.929922 0.714073 0.868619
O O5 0.869892 0.124423 0.893655
O O6 0.000000 0.000000 0.937689
O O7 0.578635 0.449203 0.773863
O O8 0.646268 0.678175 0.691360
O O9 0.699358 0.584099 0.798584
O O10 0.626088 0.964959 0.779976
O O11 0.500000 0.000000 0.785993
O O12 0.748998 0.569131 0.147704
O O13 0.743668 0.659283 0.383998
#
# Coordination Sequence:
#
# PCOD9376502 Si02
#       6
#     8   8   8   8   8   8
#     4  10  23  43  66  91 123 164 210 259 309 363
#     4  11  24  41  62  89 125 166 209 255 307 366
#     4  11  21  36  61  90 121 156 202 251 307 371
#     4  11  23  39  57  86 124 165 202 248 310 369
#     4  10  20  38  63  90 121 156 200 256 312 361
#     4  11  21  35  56  86 119 151 193 245 300 360
#
# _framework density 20.694233000000001
#
# number of rings (size 3 to 8) (size 9 to 14) (size 15 to 20)
#    0.000    1.333    0.000    7.500    0.000    4.000 
#    0.000    1.667    0.000    1.000    0.000    0.000 
#    0.000    0.000    0.000    0.000    0.000    0.000 
#
# Total GULP energy -133941.198875 kJ/mol
# GULP energy per Si atom -5580.883286 kJ/mol
# Density = 2.064713 g / cm^3
# Si number density = 20.694233 Si / 1000 Ang^3
#
#
#
# Elastic Constant Matrix: (Units=GPa)
#
#
# Indices 1 2 3 4 5 6 
#
# 1 112.7896 29.7256 35.1258 0.0000 0.0000 0.0000
# 2 29.7256 122.2191 16.9785 0.0000 0.0000 0.0000
# 3 35.1258 16.9785 122.1399 0.0000 0.0000 0.0000
# 4 0.0000 0.0000 0.0000 29.1733 0.0000 0.0000
# 5 0.0000 0.0000 0.0000 0.0000 13.1056 0.0000
# 6 0.0000 0.0000 0.0000 0.0000 0.0000 26.8073
#
#
#
# Elastic Compliance Matrix: (Units=1/GPa)
#
#
# Indices 1 2 3 4 5 6 
#
# 1 0.010252 -0.002125 -0.002653 0.000000 0.000000 0.000000
# 2 -0.002125 0.008784 -0.000610 0.000000 0.000000 0.000000
# 3 -0.002653 -0.000610 0.009035 0.000000 0.000000 0.000000
# 4 0.000000 0.000000 0.000000 0.034278 0.000000 0.000000
# 5 0.000000 0.000000 0.000000 0.000000 0.076304 0.000000
# 6 0.000000 0.000000 0.000000 0.000000 0.000000 0.037303
#
#
# Mechanical properties :
#
#
# Convention : Reuss Voigt Hill
#
# Bulk Modulus (GPa) = 57.81948 57.86761 57.84354
# Shear Modulus (GPa) = 25.97449 32.17182 29.07316
#
# Velocity S-wave (km/s) = 3.54666 3.94715 3.75225
# Velocity P-wave (km/s) = 6.69121 6.98550 6.83994
#
# Compressibility (1/GPa) = 0.01729521
#
# Stress axis : x y z
#
# Youngs Moduli (GPa) = 97.53880 113.84886 110.67959
#
# Poissons Ratio (x) = 0.24193 0.29364
# Poissons Ratio (y) = 0.20727 0.06750
# Poissons Ratio (z) = 0.25877 0.06943
#
# Static dielectric constant tensor:
#      x y z
#    x 1.827860 0.000000 0.000000 
#    y 0.000000 1.779640 0.000000 
#    z 0.000000 0.000000 1.787640 
# 
# From -- ./inp_files/9813.got.cif
#   From: 2010.05.17/outbox.cif.g08.bks.cpg/sg45_5_cif.got.tgz:9813.got - 2010.06.03 19:51:22.
