data_PCOD9376686
_publ_section_title
;
Structure prediction by ZEFSAII (Michael W. Deem and Ramdas Pophale) SiO2 
 PCOD9376686
Probable space group: I B A 2
;
_chemical_formula_sum "Si O2"
_cell_formula_units_Z 48
_cell_length_a 15.857655
_cell_length_b 5.265852
_cell_length_c 26.070943
_cell_angle_alpha 90.000000
_cell_angle_beta 90.000000
_cell_angle_gamma 90.000000
_cell_volume 2177.029701
_symmetry_space_group_name_H-M "I B A 2"
_symmetry_group_IT_number 45
_symmetry_cell_setting 'orthorhombic'
loop_
_space_group_symop_operation_xyz
x,y,z
-x,-y,z
-x,y,1/2+z
x,-y,1/2+z
1/2+x,1/2+y,1/2+z
1/2-x,1/2-y,1/2+z
1/2-x,1/2+y,z
1/2+x,1/2-y,z
loop_
_atom_site_type_symbol
_atom_site_label
_atom_site_fract_x
_atom_site_fract_y
_atom_site_fract_z
Si Si1 0.785706 0.685031 0.327900
Si Si2 0.397256 0.510555 0.186013
Si Si3 0.780981 0.747117 0.942611
Si Si4 0.307564 0.562165 0.076183
Si Si5 0.944720 0.753309 0.992213
Si Si6 0.599813 0.007895 0.749328
O O1 0.717362 0.475161 0.309621
O O2 0.767039 0.711228 0.388496
O O3 0.866573 0.538925 0.306927
O O4 0.500000 0.500000 0.179466
O O5 0.351401 0.537927 0.132000
O O6 0.373796 0.258740 0.218429
O O7 0.373002 0.761328 0.217593
O O8 0.736616 0.513181 0.969458
O O9 0.880085 0.700373 0.945053
O O10 0.262622 0.285504 0.071809
O O11 0.384217 0.659867 0.039142
O O12 0.000000 0.500000 0.002359
O O13 0.000000 0.000000 0.979825
O O14 0.500000 0.000000 0.751259
#
# Coordination Sequence:
#
# PCOD9376686 Si02
#       6
#     8   8   8   8   8   8
#     4  10  21  37  60  87 120 161 206 262 321 380
#     4  10  22  39  60  89 129 170 213 264 317 383
#     4  10  21  42  65  92 125 163 210 270 330 385
#     4  12  25  41  64  97 131 168 217 269 324 388
#     4  12  25  43  68  95 129 173 218 268 333 401
#     4  10  21  38  60  88 125 169 214 261 317 385
#
# _framework density 22.048387999999999
#
# number of rings (size 3 to 8) (size 9 to 14) (size 15 to 20)
#    0.000    1.333    0.000    5.500    0.000    6.000 
#    0.000   10.000    0.000    0.000    0.000    0.000 
#    0.000    0.000    0.000    0.000    0.000    0.000 
#
# Total GULP energy -133734.900238 kJ/mol
# GULP energy per Si atom -5572.287510 kJ/mol
# Density = 2.199820 g / cm^3
# Si number density = 22.048388 Si / 1000 Ang^3
#
#
#
# Elastic Constant Matrix: (Units=GPa)
#
#
# Indices 1 2 3 4 5 6 
#
# 1 65.4081 44.3454 49.2392 0.0000 0.0000 0.0000
# 2 44.3454 205.4385 40.7035 0.0000 0.0000 0.0000
# 3 49.2392 40.7035 105.3010 0.0000 0.0000 0.0000
# 4 0.0000 0.0000 0.0000 10.9772 0.0000 0.0000
# 5 0.0000 0.0000 0.0000 0.0000 35.9259 0.0000
# 6 0.0000 0.0000 0.0000 0.0000 0.0000 47.3603
#
#
#
# Elastic Compliance Matrix: (Units=1/GPa)
#
#
# Indices 1 2 3 4 5 6 
#
# 1 0.025637 -0.003421 -0.010666 0.000000 0.000000 0.000000
# 2 -0.003421 0.005728 -0.000614 0.000000 0.000000 0.000000
# 3 -0.010666 -0.000614 0.014721 0.000000 0.000000 0.000000
# 4 0.000000 0.000000 0.000000 0.091098 0.000000 0.000000
# 5 0.000000 0.000000 0.000000 0.000000 0.027835 0.000000
# 6 0.000000 0.000000 0.000000 0.000000 0.000000 0.021115
#
#
# Mechanical properties :
#
#
# Convention : Reuss Voigt Hill
#
# Bulk Modulus (GPa) = 59.93642 71.63598 65.78620
# Shear Modulus (GPa) = 22.61448 34.97664 28.79556
#
# Velocity S-wave (km/s) = 3.20609 3.98723 3.61781
# Velocity P-wave (km/s) = 6.39909 7.33200 6.88138
#
# Compressibility (1/GPa) = 0.01668435
#
# Stress axis : x y z
#
# Youngs Moduli (GPa) = 39.00618 174.58783 67.92817
#
# Poissons Ratio (x) = 0.59722 0.72450
# Poissons Ratio (y) = 0.13343 0.04174
# Poissons Ratio (z) = 0.41603 0.10728
#
# Static dielectric constant tensor:
#      x y z
#    x 1.833520 0.000000 0.000000 
#    y 0.000000 1.879060 0.000000 
#    z 0.000000 0.000000 1.913930 
# 
# From -- ./inp_files/10060.got.cif
#   From: 2010.05.17/outbox.cif.g08.bks.cpg/sg45_6_cif.got.tgz:10060.got - 2010.06.03 19:51:22.
