data_PCOD9376959
_publ_section_title
;
Structure prediction by ZEFSAII (Michael W. Deem and Ramdas Pophale) SiO2 
 PCOD9376959
Probable space group: I B A 2
;
_chemical_formula_sum "Si O2"
_cell_formula_units_Z 56
_cell_length_a 18.776289
_cell_length_b 13.087054
_cell_length_c 9.277640
_cell_angle_alpha 90.000000
_cell_angle_beta 90.000000
_cell_angle_gamma 90.000000
_cell_volume 2279.760225
_symmetry_space_group_name_H-M "I B A 2"
_symmetry_group_IT_number 45
_symmetry_cell_setting 'orthorhombic'
loop_
_space_group_symop_operation_xyz
x,y,z
-x,-y,z
-x,y,1/2+z
x,-y,1/2+z
1/2+x,1/2+y,1/2+z
1/2-x,1/2-y,1/2+z
1/2-x,1/2+y,z
1/2+x,1/2-y,z
loop_
_atom_site_type_symbol
_atom_site_label
_atom_site_fract_x
_atom_site_fract_y
_atom_site_fract_z
Si Si1 0.856897 0.598026 0.468830
Si Si2 0.134275 0.110726 0.678075
Si Si3 0.500000 0.500000 0.642821
Si Si4 0.668220 0.328600 0.371775
Si Si5 0.439395 0.794859 0.814410
Si Si6 0.000000 0.500000 0.398060
Si Si7 0.772007 0.475262 0.245839
Si Si8 0.564020 0.297339 0.121232
O O1 0.839559 0.714727 0.431516
O O2 0.940228 0.567255 0.483189
O O3 0.830263 0.537493 0.330729
O O4 0.807278 0.563469 0.599872
O O5 0.132477 0.109357 0.503469
O O6 0.121676 0.226571 0.735495
O O7 0.205849 0.053277 0.723422
O O8 0.066833 0.044642 0.730456
O O9 0.470048 0.401786 0.561974
O O10 0.743943 0.380896 0.342669
O O11 0.632786 0.326018 0.213786
O O12 0.510169 0.748261 0.739918
O O13 0.455596 0.915184 0.809102
O O14 0.427626 0.773760 0.983948
#
# Coordination Sequence:
#
# PCOD9376959 Si02
#       8
#     8   8   4   8   8   4   8   8
#     4  12  32  52  86 116 164 221 276 350 419 508
#     4  11  26  49  79 120 166 213 273 346 413 510
#     4  10  22  38  78 110 158 196 262 322 416 464
#     4  12  27  52  77 116 162 209 282 338 419 508
#     4  11  27  44  81 114 166 214 271 344 411 494
#     4  12  30  56  82 120 164 218 292 342 422 502
#     4  12  29  55  82 121 164 224 274 350 430 510
#     4  11  23  44  71 120 155 212 262 341 411 488
#
# _framework density 24.563987999999998
#
# number of rings (size 3 to 8) (size 9 to 14) (size 15 to 20)
#    0.000    0.571    4.286    1.714   10.000    4.000 
#    0.000    0.000    0.000    0.000    0.000    0.000 
#    0.000    0.000    0.000    0.000    0.000    0.000 
#
# Total GULP energy -156512.080575 kJ/mol
# GULP energy per Si atom -5589.717163 kJ/mol
# Density = 2.450808 g / cm^3
# Si number density = 24.563988 Si / 1000 Ang^3
#
#
#
# Elastic Constant Matrix: (Units=GPa)
#
#
# Indices 1 2 3 4 5 6 
#
# 1 75.7648 31.1588 -5.3155 0.0000 0.0000 0.0000
# 2 31.1588 137.8566 6.9343 0.0000 0.0000 0.0000
# 3 -5.3155 6.9343 89.7526 0.0000 0.0000 0.0000
# 4 0.0000 0.0000 0.0000 12.8022 0.0000 0.0000
# 5 0.0000 0.0000 0.0000 0.0000 37.8701 0.0000
# 6 0.0000 0.0000 0.0000 0.0000 0.0000 39.5070
#
#
#
# Elastic Compliance Matrix: (Units=1/GPa)
#
#
# Indices 1 2 3 4 5 6 
#
# 1 0.014664 -0.003371 0.001129 0.000000 0.000000 0.000000
# 2 -0.003371 0.008057 -0.000822 0.000000 0.000000 0.000000
# 3 0.001129 -0.000822 0.011272 0.000000 0.000000 0.000000
# 4 0.000000 0.000000 0.000000 0.078111 0.000000 0.000000
# 5 0.000000 0.000000 0.000000 0.000000 0.026406 0.000000
# 6 0.000000 0.000000 0.000000 0.000000 0.000000 0.025312
#
#
# Mechanical properties :
#
#
# Convention : Reuss Voigt Hill
#
# Bulk Modulus (GPa) = 35.88760 40.99215 38.43987
# Shear Modulus (GPa) = 27.89547 36.07562 31.98554
#
# Velocity S-wave (km/s) = 3.37356 3.83644 3.61242
# Velocity P-wave (km/s) = 5.46041 6.02897 5.75172
#
# Compressibility (1/GPa) = 0.02786478
#
# Stress axis : x y z
#
# Youngs Moduli (GPa) = 68.19233 124.11166 88.71444
#
# Poissons Ratio (x) = 0.41842 -0.10015
# Poissons Ratio (y) = 0.22990 0.07294
# Poissons Ratio (z) = -0.07699 0.10204
#
# Static dielectric constant tensor:
#      x y z
#    x 1.886080 0.000000 0.000000 
#    y 0.000000 1.995280 0.000000 
#    z 0.000000 0.000000 1.912680 
# 
# From -- ./inp_files/2358.got.cif
#   From: 2010.05.17/outbox.cif.g08.bks.cpg/sg45_2_cif.got.tgz:2358.got - 2010.06.03 19:51:22.
