data_PCOD9376763
_publ_section_title
;
Structure prediction by ZEFSAII (Michael W. Deem and Ramdas Pophale) SiO2 
 PCOD9376763
Probable space group: I B A 2
;
_chemical_formula_sum "Si O2"
_cell_formula_units_Z 48
_cell_length_a 15.228572
_cell_length_b 16.673076
_cell_length_c 8.960961
_cell_angle_alpha 90.000000
_cell_angle_beta 90.000000
_cell_angle_gamma 90.000000
_cell_volume 2275.251964
_symmetry_space_group_name_H-M "I B A 2"
_symmetry_group_IT_number 45
_symmetry_cell_setting 'orthorhombic'
loop_
_space_group_symop_operation_xyz
x,y,z
-x,-y,z
-x,y,1/2+z
x,-y,1/2+z
1/2+x,1/2+y,1/2+z
1/2-x,1/2-y,1/2+z
1/2-x,1/2+y,z
1/2+x,1/2-y,z
loop_
_atom_site_type_symbol
_atom_site_label
_atom_site_fract_x
_atom_site_fract_y
_atom_site_fract_z
Si Si1 0.345660 0.582754 0.122080
Si Si2 0.088050 0.447854 0.117642
Si Si3 0.669978 0.909292 0.299557
Si Si4 0.505331 0.305440 0.042897
Si Si5 0.006082 0.694034 0.288141
Si Si6 0.589046 0.546112 0.935602
O O1 0.261989 0.610860 0.219214
O O2 0.404047 0.549627 0.258458
O O3 0.399896 0.650472 0.031128
O O4 0.334396 0.507687 0.009218
O O5 0.141236 0.508288 0.221588
O O6 0.000000 0.500000 0.069939
O O7 0.058750 0.372769 0.221324
O O8 0.146482 0.421622 0.975392
O O9 0.601951 0.839973 0.257627
O O10 0.496659 0.219762 0.959869
O O11 0.427247 0.365512 0.000167
O O12 0.502375 0.280768 0.214320
O O13 0.500000 0.500000 0.974260
#
# Coordination Sequence:
#
# PCOD9376763 Si02
#       6
#     8   8   8   8   8   8
#     4  11  23  40  61  95 127 163 214 275 323 375
#     4  10  21  39  66  92 123 172 215 265 316 402
#     4  11  23  40  62  95 128 161 215 269 331 375
#     4  11  22  41  66  91 123 171 219 260 322 396
#     4  11  22  41  66  91 125 171 216 263 321 402
#     4  10  21  39  65  86 118 168 217 257 308 391
#
# _framework density 21.096564000000001
#
# number of rings (size 3 to 8) (size 9 to 14) (size 15 to 20)
#    0.000    1.333    3.333    4.000    4.667    0.000 
#    3.000    0.000    0.000    0.000    0.000    0.000 
#    0.000    0.000    0.000    0.000    0.000    0.000 
#
# Total GULP energy -133648.920388 kJ/mol
# GULP energy per Si atom -5568.705016 kJ/mol
# Density = 2.104855 g / cm^3
# Si number density = 21.096564 Si / 1000 Ang^3
#
#
#
# Elastic Constant Matrix: (Units=GPa)
#
#
# Indices 1 2 3 4 5 6 
#
# 1 61.3895 16.5499 15.1461 0.0000 0.0000 0.0000
# 2 16.5499 80.5948 15.7661 0.0000 0.0000 0.0000
# 3 15.1461 15.7661 56.7357 0.0000 0.0000 0.0000
# 4 0.0000 0.0000 0.0000 41.8691 0.0000 0.0000
# 5 0.0000 0.0000 0.0000 0.0000 25.3344 0.0000
# 6 0.0000 0.0000 0.0000 0.0000 0.0000 15.0138
#
#
#
# Elastic Compliance Matrix: (Units=1/GPa)
#
#
# Indices 1 2 3 4 5 6 
#
# 1 0.018068 -0.002926 -0.004010 0.000000 0.000000 0.000000
# 2 -0.002926 0.013595 -0.002997 0.000000 0.000000 0.000000
# 3 -0.004010 -0.002997 0.019529 0.000000 0.000000 0.000000
# 4 0.000000 0.000000 0.000000 0.023884 0.000000 0.000000
# 5 0.000000 0.000000 0.000000 0.000000 0.039472 0.000000
# 6 0.000000 0.000000 0.000000 0.000000 0.000000 0.066605
#
#
# Mechanical properties :
#
#
# Convention : Reuss Voigt Hill
#
# Bulk Modulus (GPa) = 31.92252 32.62714 32.27483
# Shear Modulus (GPa) = 23.64515 26.52733 25.08624
#
# Velocity S-wave (km/s) = 3.35148 3.54986 3.45210
# Velocity P-wave (km/s) = 5.49008 5.68342 5.58759
#
# Compressibility (1/GPa) = 0.03132584
#
# Stress axis : x y z
#
# Youngs Moduli (GPa) = 55.34780 73.55774 51.20605
#
# Poissons Ratio (x) = 0.21520 0.20535
# Poissons Ratio (y) = 0.16193 0.15345
# Poissons Ratio (z) = 0.22196 0.22044
#
# Static dielectric constant tensor:
#      x y z
#    x 1.814820 0.000000 0.000000 
#    y 0.000000 1.780720 0.000000 
#    z 0.000000 0.000000 1.736770 
# 
# From -- ./inp_files/1719.got.cif
#   From: 2010.05.17/outbox.cif.g08.bks.cpg/sg45_1_cif.got.tgz:1719.got - 2010.06.03 19:51:22.
