data_PCOD9376933
_publ_section_title
;
Structure prediction by ZEFSAII (Michael W. Deem and Ramdas Pophale) SiO2 
 PCOD9376933
Probable space group: I B A 2
;
_chemical_formula_sum "Si O2"
_cell_formula_units_Z 48
_cell_length_a 5.278281
_cell_length_b 23.209806
_cell_length_c 17.739519
_cell_angle_alpha 90.000000
_cell_angle_beta 90.000000
_cell_angle_gamma 90.000000
_cell_volume 2173.230830
_symmetry_space_group_name_H-M "I B A 2"
_symmetry_group_IT_number 45
_symmetry_cell_setting 'orthorhombic'
loop_
_space_group_symop_operation_xyz
x,y,z
-x,-y,z
-x,y,1/2+z
x,-y,1/2+z
1/2+x,1/2+y,1/2+z
1/2-x,1/2-y,1/2+z
1/2-x,1/2+y,z
1/2+x,1/2-y,z
loop_
_atom_site_type_symbol
_atom_site_label
_atom_site_fract_x
_atom_site_fract_y
_atom_site_fract_z
Si Si1 0.883178 0.783016 0.022410
Si Si2 0.479094 0.588173 0.477272
Si Si3 0.030589 0.563548 0.886589
Si Si4 0.171885 0.822254 0.691789
Si Si5 0.671455 0.853222 0.753113
Si Si6 0.553433 0.435995 0.649120
O O1 0.103221 0.738094 0.001364
O O2 0.883156 0.790142 0.113698
O O3 0.955327 0.844495 0.988240
O O4 0.734726 0.559478 0.445038
O O5 0.410856 0.564388 0.559763
O O6 0.236268 0.579613 0.424529
O O7 0.108155 0.613475 0.828928
O O8 0.000000 0.500000 0.850972
O O9 0.443746 0.812712 0.727404
O O10 0.938140 0.819732 0.749781
O O11 0.168390 0.890481 0.668167
O O12 0.719286 0.903580 0.691142
O O13 0.500000 0.500000 0.676691
#
# Coordination Sequence:
#
# PCOD9376933 Si02
#       6
#     8   8   8   8   8   8
#     4  11  22  41  72  94 120 162 218 278 341 378
#     4  11  25  42  60  98 127 171 219 274 312 378
#     4  12  25  40  63  92 142 183 210 242 322 391
#     4   9  21  36  59  92 121 149 212 269 308 367
#     4  10  22  37  60  88 130 166 210 245 307 382
#     4   9  21  35  61  88 127 161 213 256 307 365
#
# _framework density 22.086931
#
# number of rings (size 3 to 8) (size 9 to 14) (size 15 to 20)
#    1.000    0.667    0.000    4.500    7.000    0.000 
#    0.000    0.000    0.000   20.000    0.000    0.000 
#    0.000    0.000    0.000    0.000    0.000    0.000 
#
# Total GULP energy -134005.343518 kJ/mol
# GULP energy per Si atom -5583.555980 kJ/mol
# Density = 2.203666 g / cm^3
# Si number density = 22.086931 Si / 1000 Ang^3
#
#
#
# Elastic Constant Matrix: (Units=GPa)
#
#
# Indices 1 2 3 4 5 6 
#
# 1 133.4678 18.9300 8.0517 0.0000 0.0000 0.0000
# 2 18.9300 78.5350 26.3210 0.0000 0.0000 0.0000
# 3 8.0517 26.3210 14.7282 0.0000 0.0000 0.0000
# 4 0.0000 0.0000 0.0000 26.3676 0.0000 0.0000
# 5 0.0000 0.0000 0.0000 0.0000 16.3482 0.0000
# 6 0.0000 0.0000 0.0000 0.0000 0.0000 -7.2768
#
#
#
# Elastic Compliance Matrix: (Units=1/GPa)
#
#
# Indices 1 2 3 4 5 6 
#
# 1 0.007787 -0.001123 -0.002251 0.000000 0.000000 0.000000
# 2 -0.001123 0.031912 -0.056416 0.000000 0.000000 0.000000
# 3 -0.002251 -0.056416 0.169949 0.000000 0.000000 0.000000
# 4 0.000000 0.000000 0.000000 0.037925 0.000000 0.000000
# 5 0.000000 0.000000 0.000000 0.000000 0.061169 0.000000
# 6 0.000000 0.000000 0.000000 0.000000 0.000000 -0.137422
#
#
# Mechanical properties :
#
#
# Convention : Reuss Voigt Hill
#
# Bulk Modulus (GPa) = 11.10259 37.03739 24.06999
# Shear Modulus (GPa) = 15.58009 18.64967 17.11488
#
# Velocity S-wave (km/s) = 2.65882 2.90897 2.78670
# Velocity P-wave (km/s) = 3.80308 5.29982 4.61257
#
# Compressibility (1/GPa) = 0.09006908
#
# Stress axis : x y z
#
# Youngs Moduli (GPa) = 128.41139 31.33655 5.88411
#
# Poissons Ratio (x) = 0.03518 0.01324
# Poissons Ratio (y) = 0.14416 0.33196
# Poissons Ratio (z) = 0.28905 1.76788
#
# Static dielectric constant tensor:
#      x y z
#    x 1.807110 0.000000 0.000000 
#    y 0.000000 1.776260 0.000000 
#    z 0.000000 0.000000 1.803570 
# 
# From -- ./inp_files/7297.got.cif
#   From: 2010.05.17/outbox.cif.g08.bks.cpg/sg45_4_cif.got.tgz:7297.got - 2010.06.03 19:51:22.
