data_PCOD9376892
_publ_section_title
;
Structure prediction by ZEFSAII (Michael W. Deem and Ramdas Pophale) SiO2 
 PCOD9376892
Probable space group: I B A 2
;
_chemical_formula_sum "Si O2"
_cell_formula_units_Z 64
_cell_length_a 8.454261
_cell_length_b 26.197581
_cell_length_c 12.922045
_cell_angle_alpha 90.000000
_cell_angle_beta 90.000000
_cell_angle_gamma 90.000000
_cell_volume 2861.989869
_symmetry_space_group_name_H-M "I B A 2"
_symmetry_group_IT_number 45
_symmetry_cell_setting 'orthorhombic'
loop_
_space_group_symop_operation_xyz
x,y,z
-x,-y,z
-x,y,1/2+z
x,-y,1/2+z
1/2+x,1/2+y,1/2+z
1/2-x,1/2-y,1/2+z
1/2-x,1/2+y,z
1/2+x,1/2-y,z
loop_
_atom_site_type_symbol
_atom_site_label
_atom_site_fract_x
_atom_site_fract_y
_atom_site_fract_z
Si Si1 0.850715 0.068439 0.975080
Si Si2 0.387874 0.200518 0.842603
Si Si3 0.358785 0.458690 0.202953
Si Si4 0.155517 0.885593 0.386149
Si Si5 0.148550 0.770608 0.023781
Si Si6 0.289378 0.846987 0.851882
Si Si7 0.327547 0.019701 0.888064
Si Si8 0.875649 0.211787 0.672924
O O1 0.735947 0.097275 0.896061
O O2 0.821212 0.010177 0.939123
O O3 0.013039 0.100610 0.962731
O O4 0.811154 0.065565 0.094998
O O5 0.438789 0.235294 0.939677
O O6 0.224067 0.170532 0.865957
O O7 0.530025 0.162079 0.822894
O O8 0.382296 0.238358 0.746214
O O9 0.500000 0.500000 0.190803
O O10 0.404374 0.412729 0.280626
O O11 0.212029 0.483197 0.265550
O O12 0.302522 0.921327 0.419091
O O13 0.253343 0.729588 0.085506
O O14 0.037177 0.796507 0.109895
O O15 0.236849 0.810885 0.949168
O O16 0.185136 0.831484 0.751714
O O17 0.500000 0.000000 0.915242
#
# Coordination Sequence:
#
# PCOD9376892 Si02
#       8
#     8   8   8   8   8   8   8   8
#     4  12  24  42  69 100 133 174 226 282 334 413
#     4  11  24  43  65  99 137 175 224 288 334 407
#     4  10  22  43  67  91 130 176 217 268 339 395
#     4  10  23  42  67  97 129 171 223 277 331 403
#     4  11  24  43  67  94 136 181 225 274 348 402
#     4  11  26  41  66 103 133 176 233 279 340 411
#     4  10  21  44  67  95 133 170 219 275 339 403
#     4  11  24  44  68  93 137 181 223 283 341 404
#
# _framework density 22.362064
#
# number of rings (size 3 to 8) (size 9 to 14) (size 15 to 20)
#    0.750    0.500    3.750    1.875    5.250    0.500 
#    0.000    1.250    0.000    0.000    0.000    0.000 
#    0.000    0.000    0.000    0.000    0.000    0.000 
#
# Total GULP energy -178409.939793 kJ/mol
# GULP energy per Si atom -5575.310619 kJ/mol
# Density = 2.231117 g / cm^3
# Si number density = 22.362064 Si / 1000 Ang^3
#
#
#
# Elastic Constant Matrix: (Units=GPa)
#
#
# Indices 1 2 3 4 5 6 
#
# 1 69.8804 -0.7074 1.1672 0.0000 0.0000 0.0000
# 2 -0.7074 55.0244 7.2047 0.0000 0.0000 0.0000
# 3 1.1672 7.2047 99.1142 0.0001 0.0000 0.0000
# 4 0.0000 0.0000 0.0001 23.2204 0.0000 0.0000
# 5 0.0000 0.0000 0.0000 0.0000 19.1902 0.0000
# 6 0.0000 0.0000 0.0000 0.0000 0.0000 32.2874
#
#
#
# Elastic Compliance Matrix: (Units=1/GPa)
#
#
# Indices 1 2 3 4 5 6 
#
# 1 0.014315 0.000208 -0.000184 0.000000 0.000000 0.000000
# 2 0.000208 0.018351 -0.001336 0.000000 0.000000 0.000000
# 3 -0.000184 -0.001336 0.010189 0.000000 0.000000 0.000000
# 4 0.000000 0.000000 0.000000 0.043066 0.000000 0.000000
# 5 0.000000 0.000000 0.000000 0.000000 0.052110 0.000000
# 6 0.000000 0.000000 0.000000 0.000000 0.000000 0.030972
#
#
# Mechanical properties :
#
#
# Convention : Reuss Voigt Hill
#
# Bulk Modulus (GPa) = 24.85624 26.59422 25.72523
# Shear Modulus (GPa) = 27.02158 29.36323 28.19240
#
# Velocity S-wave (km/s) = 3.47993 3.62758 3.55452
# Velocity P-wave (km/s) = 5.22360 5.42809 5.32683
#
# Compressibility (1/GPa) = 0.04023134
#
# Stress axis : x y z
#
# Youngs Moduli (GPa) = 69.85516 54.49167 98.14812
#
# Poissons Ratio (x) = -0.01134 0.01803
# Poissons Ratio (y) = -0.01454 0.13117
# Poissons Ratio (z) = 0.01283 0.07282
#
# Static dielectric constant tensor:
#      x y z
#    x 1.876310 0.000000 0.000000 
#    y 0.000000 1.926160 0.000000 
#    z 0.000000 0.000000 1.835160 
# 
# From -- ./inp_files/3424.got.cif
#   From: 2010.05.17/outbox.cif.g08.bks.cpg/sg45_2_cif.got.tgz:3424.got - 2010.06.03 19:51:22.
