data_PCOD9376260
_publ_section_title
;
Structure prediction by ZEFSAII (Michael W. Deem and Ramdas Pophale) SiO2 
 PCOD9376260
Probable space group: I B A 2
;
_chemical_formula_sum "Si O2"
_cell_formula_units_Z 64
_cell_length_a 9.747541
_cell_length_b 12.098235
_cell_length_c 24.046233
_cell_angle_alpha 90.000000
_cell_angle_beta 90.000000
_cell_angle_gamma 90.000000
_cell_volume 2835.725168
_symmetry_space_group_name_H-M "I B A 2"
_symmetry_group_IT_number 45
_symmetry_cell_setting 'orthorhombic'
loop_
_space_group_symop_operation_xyz
x,y,z
-x,-y,z
-x,y,1/2+z
x,-y,1/2+z
1/2+x,1/2+y,1/2+z
1/2-x,1/2-y,1/2+z
1/2-x,1/2+y,z
1/2+x,1/2-y,z
loop_
_atom_site_type_symbol
_atom_site_label
_atom_site_fract_x
_atom_site_fract_y
_atom_site_fract_z
Si Si1 0.315381 0.508020 0.236570
Si Si2 0.726380 0.998557 0.117582
Si Si3 0.197260 0.903600 0.498509
Si Si4 0.095130 0.604543 0.316194
Si Si5 0.031466 0.806788 0.248442
Si Si6 0.011254 0.683733 0.631748
Si Si7 0.028135 0.744077 0.010162
Si Si8 0.134791 0.424599 0.937044
O O1 0.324790 0.512385 0.170024
O O2 0.183080 0.562096 0.263850
O O3 0.327467 0.377721 0.250374
O O4 0.427283 0.594020 0.258091
O O5 0.788121 0.963016 0.058768
O O6 0.605170 0.910473 0.129604
O O7 0.654816 0.118950 0.122147
O O8 0.045410 0.855358 0.488481
O O9 0.320997 0.808319 0.497128
O O10 0.242653 0.996436 0.455114
O O11 0.023953 0.715037 0.295267
O O12 0.163028 0.626985 0.376441
O O13 0.000000 0.500000 0.325116
O O14 0.001643 0.750257 0.188902
O O15 0.984038 0.754431 0.576644
O O16 0.917435 0.655892 0.985959
O O17 0.000000 0.500000 0.932602
#
# Coordination Sequence:
#
# PCOD9376260 Si02
#       8
#     8   8   8   8   8   8   8   8
#     4  11  25  41  60  96 135 167 212 283 329 383
#     4  10  19  34  63  90 124 167 208 256 317 396
#     4  10  20  38  63  94 126 160 217 267 314 396
#     4  11  24  42  69  90 123 177 222 263 326 402
#     4  11  25  41  61  96 133 167 219 273 333 389
#     4  10  19  35  62  91 123 167 211 252 322 398
#     4  10  20  37  63  92 120 166 207 260 327 373
#     4   9  20  42  62  89 120 163 216 258 307 394
#
# _framework density 22.569182999999999
#
# number of rings (size 3 to 8) (size 9 to 14) (size 15 to 20)
#    0.000    1.750    2.500    1.500    3.500    3.000 
#    4.500    0.625    0.000    0.000    0.000    0.000 
#    0.000    0.000    0.000    0.000    0.000    0.000 
#
# Total GULP energy -178408.367113 kJ/mol
# GULP energy per Si atom -5575.261472 kJ/mol
# Density = 2.251781 g / cm^3
# Si number density = 22.569183 Si / 1000 Ang^3
#
#
#
# Elastic Constant Matrix: (Units=GPa)
#
#
# Indices 1 2 3 4 5 6 
#
# 1 36.4850 20.5390 10.3378 0.0000 0.0000 0.0000
# 2 20.5390 85.4590 32.2429 0.0000 0.0000 0.0000
# 3 10.3378 32.2429 107.4950 0.0000 0.0000 0.0000
# 4 0.0000 0.0000 0.0000 -2.7091 0.0000 0.0000
# 5 0.0000 0.0000 0.0000 0.0000 68.2465 0.0000
# 6 0.0000 0.0000 0.0000 0.0000 0.0000 33.3513
#
#
#
# Elastic Compliance Matrix: (Units=1/GPa)
#
#
# Indices 1 2 3 4 5 6 
#
# 1 0.031768 -0.007310 -0.000863 0.000000 0.000000 0.000000
# 2 -0.007310 0.014877 -0.003759 0.000000 0.000000 0.000000
# 3 -0.000863 -0.003759 0.010513 0.000000 0.000000 0.000000
# 4 0.000000 0.000000 0.000000 -0.369122 0.000000 0.000000
# 5 0.000000 0.000000 0.000000 0.000000 0.014653 0.000000
# 6 0.000000 0.000000 0.000000 0.000000 0.000000 0.029984
#
#
# Mechanical properties :
#
#
# Convention : Reuss Voigt Hill
#
# Bulk Modulus (GPa) = 30.03466 39.51983 34.77724
# Shear Modulus (GPa) = -21.51774 30.86568 4.67397
#
# Velocity S-wave (km/s) = -3.09109 3.70212 1.44064
# Velocity P-wave (km/s) = 0.77262 5.98522 4.26730
#
# Compressibility (1/GPa) = 0.03329487
#
# Stress axis : x y z
#
# Youngs Moduli (GPa) = 31.47844 67.21963 95.11764
#
# Poissons Ratio (x) = 0.49134 0.08205
# Poissons Ratio (y) = 0.23009 0.35757
# Poissons Ratio (z) = 0.02715 0.25270
#
# Static dielectric constant tensor:
#      x y z
#    x 0.740220 0.000000 0.000000 
#    y 0.000000 1.887550 0.000000 
#    z 0.000000 0.000000 1.860100 
# 
# From -- ./inp_files/9708.got.cif
#   From: 2010.05.17/outbox.cif.g08.bks.cpg/sg45_5_cif.got.tgz:9708.got - 2010.06.03 19:51:22.
