data_PCOD9376999
_publ_section_title
;
Structure prediction by ZEFSAII (Michael W. Deem and Ramdas Pophale) SiO2 
 PCOD9376999
Probable space group: I B A 2
;
_chemical_formula_sum "Si O2"
_cell_formula_units_Z 52
_cell_length_a 5.137254
_cell_length_b 16.420273
_cell_length_c 29.230480
_cell_angle_alpha 90.000000
_cell_angle_beta 90.000000
_cell_angle_gamma 90.000000
_cell_volume 2465.740448
_symmetry_space_group_name_H-M "I B A 2"
_symmetry_group_IT_number 45
_symmetry_cell_setting 'orthorhombic'
loop_
_space_group_symop_operation_xyz
x,y,z
-x,-y,z
-x,y,1/2+z
x,-y,1/2+z
1/2+x,1/2+y,1/2+z
1/2-x,1/2-y,1/2+z
1/2-x,1/2+y,z
1/2+x,1/2-y,z
loop_
_atom_site_type_symbol
_atom_site_label
_atom_site_fract_x
_atom_site_fract_y
_atom_site_fract_z
Si Si1 0.500000 0.000000 0.622571
Si Si2 0.107204 0.693100 0.974282
Si Si3 0.274370 0.197038 0.875386
Si Si4 0.355526 0.576814 0.045750
Si Si5 0.653109 0.584395 0.193747
Si Si6 0.355107 0.193488 0.774433
Si Si7 0.031710 0.196775 0.117220
O O1 0.293742 0.960618 0.588979
O O2 0.629925 0.936261 0.656233
O O3 0.326453 0.764505 0.978324
O O4 0.152592 0.656136 0.923377
O O5 0.170257 0.625272 0.011649
O O6 0.474422 0.274350 0.875953
O O7 0.328677 0.158561 0.826061
O O8 0.500000 0.500000 0.023368
O O9 0.532018 0.641944 0.072570
O O10 0.500000 0.500000 0.203320
O O11 0.782374 0.625959 0.237410
O O12 0.483493 0.649130 0.165325
O O13 0.638383 0.234594 0.769681
O O14 0.819468 0.267424 0.114902
#
# Coordination Sequence:
#
# PCOD9376999 Si02
#       7
#     4   8   8   8   8   8   8
#     4  12  24  44  60  78 136 170 210 242 322 364
#     4  10  22  40  66  96 121 159 208 256 305 368
#     4   8  16  36  63  91 124 152 194 256 312 358
#     4  12  25  41  60  88 124 171 203 255 316 369
#     4  12  25  41  60  88 124 171 203 255 316 369
#     4  10  22  40  66  96 121 159 208 256 305 368
#     4  12  24  40  61  85 114 154 212 262 294 356
#
# _framework density 21.088999000000001
#
# number of rings (size 3 to 8) (size 9 to 14) (size 15 to 20)
#    0.000    1.231    3.077    2.769    4.308    0.000 
#    0.000    0.769    0.000    0.923    0.000    0.000 
#    0.000    0.000    0.000    0.000    0.000    0.000 
#
# Total GULP energy -145272.672400 kJ/mol
# GULP energy per Si atom -5587.410477 kJ/mol
# Density = 2.104100 g / cm^3
# Si number density = 21.088999 Si / 1000 Ang^3
#
#
#
# Elastic Constant Matrix: (Units=GPa)
#
#
# Indices 1 2 3 4 5 6 
#
# 1 65.7390 0.6137 -5.1770 0.0000 0.0000 0.0000
# 2 0.6137 51.1513 23.7837 0.0000 0.0000 0.0000
# 3 -5.1770 23.7837 122.7412 0.0000 0.0000 0.0000
# 4 0.0000 0.0000 0.0000 23.8357 0.0000 0.0000
# 5 0.0000 0.0000 0.0000 0.0000 -43.3462 0.0000
# 6 0.0000 0.0000 0.0000 0.0000 0.0000 8.1692
#
#
#
# Elastic Compliance Matrix: (Units=1/GPa)
#
#
# Indices 1 2 3 4 5 6 
#
# 1 0.015275 -0.000531 0.000747 0.000000 0.000000 0.000000
# 2 -0.000531 0.021504 -0.004189 0.000000 0.000000 0.000000
# 3 0.000747 -0.004189 0.008990 0.000000 0.000000 0.000000
# 4 0.000000 0.000000 0.000000 0.041954 0.000000 0.000000
# 5 0.000000 0.000000 0.000000 0.000000 -0.023070 0.000000
# 6 0.000000 0.000000 0.000000 0.000000 0.000000 0.122411
#
#
# Mechanical properties :
#
#
# Convention : Reuss Voigt Hill
#
# Bulk Modulus (GPa) = 26.43793 30.89692 28.66743
# Shear Modulus (GPa) = 24.08261 12.42582 18.25421
#
# Velocity S-wave (km/s) = 3.38294 2.42999 2.94527
# Velocity P-wave (km/s) = 5.27472 4.74928 5.01888
#
# Compressibility (1/GPa) = 0.03782444
#
# Stress axis : x y z
#
# Youngs Moduli (GPa) = 65.46450 46.50274 111.22852
#
# Poissons Ratio (x) = 0.02468 -0.08310
# Poissons Ratio (y) = 0.03474 0.46597
# Poissons Ratio (z) = -0.04891 0.19481
#
# Static dielectric constant tensor:
#      x y z
#    x 1.842840 0.000000 0.000000 
#    y 0.000000 1.946570 0.000000 
#    z 0.000000 0.000000 1.786430 
# 
# From -- ./inp_files/9913.got.cif
#   From: 2010.05.17/outbox.cif.g08.bks.cpg/sg45_5_cif.got.tgz:9913.got - 2010.06.03 19:51:22.
