data_PCOD9376163
_publ_section_title
;
Structure prediction by ZEFSAII (Michael W. Deem and Ramdas Pophale) SiO2 
 PCOD9376163
Probable space group: I B A 2
;
_chemical_formula_sum "Si O2"
_cell_formula_units_Z 44
_cell_length_a 7.497595
_cell_length_b 17.390017
_cell_length_c 16.176225
_cell_angle_alpha 90.000000
_cell_angle_beta 90.000000
_cell_angle_gamma 90.000000
_cell_volume 2109.109670
_symmetry_space_group_name_H-M "I B A 2"
_symmetry_group_IT_number 45
_symmetry_cell_setting 'orthorhombic'
loop_
_space_group_symop_operation_xyz
x,y,z
-x,-y,z
-x,y,1/2+z
x,-y,1/2+z
1/2+x,1/2+y,1/2+z
1/2-x,1/2-y,1/2+z
1/2-x,1/2+y,z
1/2+x,1/2-y,z
loop_
_atom_site_type_symbol
_atom_site_label
_atom_site_fract_x
_atom_site_fract_y
_atom_site_fract_z
Si Si1 0.338288 0.748513 0.144230
Si Si2 0.738683 0.106128 0.045372
Si Si3 0.383679 0.152918 0.236967
Si Si4 0.573316 0.337902 0.978352
Si Si5 0.000000 0.500000 0.151573
Si Si6 0.454177 0.824988 0.416722
O O1 0.230772 0.823758 0.110543
O O2 0.518006 0.793882 0.168689
O O3 0.304251 0.695010 0.224946
O O4 0.350852 0.692760 0.065780
O O5 0.655907 0.035586 0.094918
O O6 0.584720 0.133724 0.982140
O O7 0.924917 0.098027 0.996993
O O8 0.411534 0.066714 0.206505
O O9 0.468584 0.162131 0.326001
O O10 0.466860 0.265631 0.938645
O O11 0.750816 0.353761 0.925756
#
# Coordination Sequence:
#
# PCOD9376163 Si02
#       6
#     8   8   8   8   4   8
#     4  10  18  36  62  88 122 169 222 266 322 401
#     4  10  21  40  63  88 127 173 223 271 325 412
#     4  11  22  38  61  95 131 164 217 283 340 393
#     4  11  18  36  62  96 122 167 226 274 317 403
#     4  10  24  42  62  88 130 182 212 268 354 402
#     4  11  21  34  62  96 127 158 221 280 334 379
#
# _framework density 20.861884
#
# number of rings (size 3 to 8) (size 9 to 14) (size 15 to 20)
#    0.000    1.455    5.455    3.273    0.000    0.727 
#    0.000    3.636    0.000    0.000    0.000    0.000 
#    0.000    0.000    0.000    0.000    0.000    0.000 
#
# Total GULP energy -122652.771087 kJ/mol
# GULP energy per Si atom -5575.125958 kJ/mol
# Density = 2.081440 g / cm^3
# Si number density = 20.861884 Si / 1000 Ang^3
#
#
#
# Elastic Constant Matrix: (Units=GPa)
#
#
# Indices 1 2 3 4 5 6 
#
# 1 89.4847 37.8451 22.0077 0.0000 0.0000 0.0000
# 2 37.8451 85.3282 42.1223 0.0000 0.0000 0.0000
# 3 22.0077 42.1223 97.1174 0.0000 0.0000 0.0000
# 4 0.0000 0.0000 0.0000 19.5261 0.0000 0.0000
# 5 0.0000 0.0000 0.0000 0.0000 15.9759 0.0000
# 6 0.0000 0.0000 0.0000 0.0000 0.0000 25.6457
#
#
#
# Elastic Compliance Matrix: (Units=1/GPa)
#
#
# Indices 1 2 3 4 5 6 
#
# 1 0.013783 -0.005817 -0.000601 0.000000 0.000000 0.000000
# 2 -0.005817 0.017367 -0.006214 0.000000 0.000000 0.000000
# 3 -0.000601 -0.006214 0.013128 0.000000 0.000000 0.000000
# 4 0.000000 0.000000 0.000000 0.051213 0.000000 0.000000
# 5 0.000000 0.000000 0.000000 0.000000 0.062594 0.000000
# 6 0.000000 0.000000 0.000000 0.000000 0.000000 0.038993
#
#
# Mechanical properties :
#
#
# Convention : Reuss Voigt Hill
#
# Bulk Modulus (GPa) = 52.59001 52.87563 52.73282
# Shear Modulus (GPa) = 21.86461 23.55988 22.71225
#
# Velocity S-wave (km/s) = 3.24090 3.36419 3.30312
# Velocity P-wave (km/s) = 6.26641 6.36325 6.31502
#
# Compressibility (1/GPa) = 0.01901502
#
# Stress axis : x y z
#
# Youngs Moduli (GPa) = 72.55458 57.58060 76.17165
#
# Poissons Ratio (x) = 0.33492 0.04574
# Poissons Ratio (y) = 0.42202 0.47336
# Poissons Ratio (z) = 0.04357 0.35783
#
# Static dielectric constant tensor:
#      x y z
#    x 2.104760 0.000000 0.000000 
#    y 0.000000 1.933050 0.000000 
#    z 0.000000 0.000000 1.734780 
# 
# From -- ./inp_files/5564.got.cif
#   From: 2010.05.17/outbox.cif.g08.bks.cpg/sg45_3_cif.got.tgz:5564.got - 2010.06.03 19:51:22.
