data_PCOD9376752
_publ_section_title
;
Structure prediction by ZEFSAII (Michael W. Deem and Ramdas Pophale) SiO2 
 PCOD9376752
Probable space group: I B A 2
;
_chemical_formula_sum "Si O2"
_cell_formula_units_Z 60
_cell_length_a 10.005523
_cell_length_b 25.952214
_cell_length_c 9.733763
_cell_angle_alpha 90.000000
_cell_angle_beta 90.000000
_cell_angle_gamma 90.000000
_cell_volume 2527.522184
_symmetry_space_group_name_H-M "I B A 2"
_symmetry_group_IT_number 45
_symmetry_cell_setting 'orthorhombic'
loop_
_space_group_symop_operation_xyz
x,y,z
-x,-y,z
-x,y,1/2+z
x,-y,1/2+z
1/2+x,1/2+y,1/2+z
1/2-x,1/2-y,1/2+z
1/2-x,1/2+y,z
1/2+x,1/2-y,z
loop_
_atom_site_type_symbol
_atom_site_label
_atom_site_fract_x
_atom_site_fract_y
_atom_site_fract_z
Si Si1 0.921528 0.431824 0.169040
Si Si2 0.854081 0.207988 0.181077
Si Si3 0.500000 0.500000 0.051226
Si Si4 0.168779 0.976011 0.806204
Si Si5 0.665575 0.931790 0.870907
Si Si6 0.651539 0.175092 0.750734
Si Si7 0.371649 0.184009 0.847461
Si Si8 0.912717 0.197615 0.891046
O O1 0.810666 0.449906 0.279356
O O2 0.897584 0.370904 0.157269
O O3 0.062486 0.439871 0.244081
O O4 0.894651 0.452520 0.015886
O O5 0.851526 0.270041 0.176845
O O6 0.701819 0.189575 0.198496
O O7 0.947851 0.196116 0.311898
O O8 0.922511 0.183587 0.049158
O O9 0.591605 0.469666 0.161757
O O10 0.413218 0.464754 0.945525
O O11 0.204036 0.036346 0.830650
O O12 0.689751 0.870825 0.889375
O O13 0.469349 0.177250 0.359354
O O14 0.797052 0.166557 0.813335
O O15 0.353526 0.243385 0.893888
#
# Coordination Sequence:
#
# PCOD9376752 Si02
#       8
#     8   8   4   8   8   8   8   8
#     4  11  24  41  66  97 126 163 208 264 315 370
#     4  10  21  39  62  91 126 168 212 261 313 371
#     4  10  24  46  70  90 124 174 200 252 316 374
#     4  11  23  46  68  94 125 165 208 254 310 381
#     4  11  24  41  66  97 126 163 208 264 315 370
#     4   9  21  39  61  89 126 166 211 260 312 368
#     4   9  21  39  61  89 126 166 211 260 312 368
#     4  10  21  39  62  91 126 168 212 261 313 371
#
# _framework density 23.738662999999999
#
# number of rings (size 3 to 8) (size 9 to 14) (size 15 to 20)
#    0.000    1.867    1.333    1.200    1.867   16.000 
#    4.800    0.000    0.000    0.000    0.000    0.000 
#    0.000    0.000    0.000    0.000    0.000    0.000 
#
# Total GULP energy -167139.090409 kJ/mol
# GULP energy per Si atom -5571.303014 kJ/mol
# Density = 2.368463 g / cm^3
# Si number density = 23.738663 Si / 1000 Ang^3
#
#
#
# Elastic Constant Matrix: (Units=GPa)
#
#
# Indices 1 2 3 4 5 6 
#
# 1 74.8573 18.5124 15.2152 -0.0002 -0.0001 -0.0001
# 2 18.5124 31.9676 -2.6464 0.0002 -0.0001 0.0000
# 3 15.2152 -2.6464 127.4015 0.0000 0.0012 0.0007
# 4 -0.0002 0.0002 0.0000 0.7666 0.0002 0.0001
# 5 -0.0001 -0.0001 0.0012 0.0002 21.5079 0.0003
# 6 -0.0001 0.0000 0.0007 0.0001 0.0003 18.1321
#
#
#
# Elastic Compliance Matrix: (Units=1/GPa)
#
#
# Indices 1 2 3 4 5 6 
#
# 1 0.016147 -0.009527 -0.002126 0.000008 0.000000 0.000000
# 2 -0.009527 0.036956 0.001905 -0.000013 0.000000 0.000000
# 3 -0.002126 0.001905 0.008143 -0.000001 0.000000 0.000000
# 4 0.000008 -0.000013 -0.000001 1.304474 -0.000009 -0.000006
# 5 0.000000 0.000000 0.000000 -0.000009 0.046495 -0.000001
# 6 0.000000 0.000000 0.000000 -0.000006 -0.000001 0.055151
#
#
# Mechanical properties :
#
#
# Convention : Reuss Voigt Hill
#
# Bulk Modulus (GPa) = 23.95162 32.93210 28.44186
# Shear Modulus (GPa) = 3.33161 21.62433 12.47797
#
# Velocity S-wave (km/s) = 1.18596 3.02144 2.29517
# Velocity P-wave (km/s) = 3.46222 5.10637 4.36245
#
# Compressibility (1/GPa) = 0.04175084
#
# Stress axis : x y z
#
# Youngs Moduli (GPa) = 61.93141 27.05899 122.80910
#
# Poissons Ratio (x) = 0.25778 0.26113
# Poissons Ratio (y) = 0.59000 -0.23400
# Poissons Ratio (z) = 0.13168 -0.05156
#
# Static dielectric constant tensor:
#      x y z
#    x 1.910950 0.000000 0.000000 
#    y 0.000000 1.937760 0.000000 
#    z 0.000000 0.000000 1.940570 
# 
# From -- ./inp_files/1446.got.cif
#   From: 2010.05.17/outbox.cif.g08.bks.cpg/sg45_1_cif.got.tgz:1446.got - 2010.06.03 19:51:22.
