data_PCOD9376288
_publ_section_title
;
Structure prediction by ZEFSAII (Michael W. Deem and Ramdas Pophale) SiO2 
 PCOD9376288
Probable space group: I B A 2
;
_chemical_formula_sum "Si O2"
_cell_formula_units_Z 48
_cell_length_a 11.706133
_cell_length_b 14.480769
_cell_length_c 12.102170
_cell_angle_alpha 90.000000
_cell_angle_beta 90.000000
_cell_angle_gamma 90.000000
_cell_volume 2051.484920
_symmetry_space_group_name_H-M "I B A 2"
_symmetry_group_IT_number 45
_symmetry_cell_setting 'orthorhombic'
loop_
_space_group_symop_operation_xyz
x,y,z
-x,-y,z
-x,y,1/2+z
x,-y,1/2+z
1/2+x,1/2+y,1/2+z
1/2-x,1/2-y,1/2+z
1/2-x,1/2+y,z
1/2+x,1/2-y,z
loop_
_atom_site_type_symbol
_atom_site_label
_atom_site_fract_x
_atom_site_fract_y
_atom_site_fract_z
Si Si1 0.554739 0.370147 0.715320
Si Si2 0.093360 0.675324 0.957505
Si Si3 0.835771 0.126593 0.871617
Si Si4 0.274326 0.436395 0.370322
Si Si5 0.903026 0.798001 0.031810
Si Si6 0.694544 0.189908 0.679371
O O1 0.454709 0.383365 0.804855
O O2 0.659531 0.435475 0.752214
O O3 0.493708 0.365656 0.595481
O O4 0.609737 0.268811 0.718566
O O5 0.153857 0.775193 0.932027
O O6 0.144126 0.601183 0.871700
O O7 0.134332 0.639933 0.077330
O O8 0.964767 0.710317 0.976396
O O9 0.735171 0.131801 0.781693
O O10 0.803167 0.032177 0.931322
O O11 0.339332 0.357956 0.440822
O O12 0.812181 0.769959 0.126195
#
# Coordination Sequence:
#
# PCOD9376288 Si02
#       6
#     8   8   8   8   8   8
#     4  10  19  36  59  89 125 161 198 263 317 365
#     4  10  20  38  59  88 125 166 205 257 313 376
#     4  11  21  37  60  95 126 158 209 260 321 376
#     4  11  21  37  60  94 125 162 208 264 317 372
#     4   9  20  37  59  88 123 164 212 251 311 378
#     4   9  20  39  58  88 124 167 201 257 312 375
#
# _framework density 23.397687000000001
#
# number of rings (size 3 to 8) (size 9 to 14) (size 15 to 20)
#    0.000    2.000    3.333    0.500    0.000    0.000 
#   27.000    0.000    0.000    9.000    4.333    0.000 
#    0.000    0.000    0.000    0.000    0.000    0.000 
#
# Total GULP energy -133734.543570 kJ/mol
# GULP energy per Si atom -5572.272649 kJ/mol
# Density = 2.334443 g / cm^3
# Si number density = 23.397687 Si / 1000 Ang^3
#
#
#
# Elastic Constant Matrix: (Units=GPa)
#
#
# Indices 1 2 3 4 5 6 
#
# 1 61.3698 27.0802 6.4233 0.0000 0.0000 0.0000
# 2 27.0802 43.4178 -7.2859 0.0000 0.0000 0.0000
# 3 6.4233 -7.2859 47.4087 0.0000 0.0000 0.0000
# 4 0.0000 0.0000 0.0000 11.3171 0.0000 0.0000
# 5 0.0000 0.0000 0.0000 0.0000 43.1747 0.0000
# 6 0.0000 0.0000 0.0000 0.0000 0.0000 22.1348
#
#
#
# Elastic Compliance Matrix: (Units=1/GPa)
#
#
# Indices 1 2 3 4 5 6 
#
# 1 0.023881 -0.015846 -0.005671 0.000000 0.000000 0.000000
# 2 -0.015846 0.034157 0.007396 0.000000 0.000000 0.000000
# 3 -0.005671 0.007396 0.022998 0.000000 0.000000 0.000000
# 4 0.000000 0.000000 0.000000 0.088362 0.000000 0.000000
# 5 0.000000 0.000000 0.000000 0.000000 0.023162 0.000000
# 6 0.000000 0.000000 0.000000 0.000000 0.000000 0.045178
#
#
# Mechanical properties :
#
#
# Convention : Reuss Voigt Hill
#
# Bulk Modulus (GPa) = 18.94158 22.73681 20.83920
# Shear Modulus (GPa) = 17.63197 23.72392 20.67794
#
# Velocity S-wave (km/s) = 2.74811 3.18770 2.97604
# Velocity P-wave (km/s) = 4.26410 4.82568 4.55356
#
# Compressibility (1/GPa) = 0.05279390
#
# Stress axis : x y z
#
# Youngs Moduli (GPa) = 41.87514 29.27693 43.48171
#
# Poissons Ratio (x) = 0.46393 0.24658
# Poissons Ratio (y) = 0.66356 -0.32160
# Poissons Ratio (z) = 0.23747 -0.21654
#
# Static dielectric constant tensor:
#      x y z
#    x 1.985820 0.000000 0.000000 
#    y 0.000000 1.884960 0.000000 
#    z 0.000000 0.000000 2.019850 
# 
# From -- ./inp_files/6100.got.cif
#   From: 2010.05.17/outbox.cif.g08.bks.cpg/sg45_4_cif.got.tgz:6100.got - 2010.06.03 19:51:22.
