data_PCOD9376459
_publ_section_title
;
Structure prediction by ZEFSAII (Michael W. Deem and Ramdas Pophale) SiO2 
 PCOD9376459
Probable space group: I B A 2
;
_chemical_formula_sum "Si O2"
_cell_formula_units_Z 52
_cell_length_a 20.332824
_cell_length_b 7.096693
_cell_length_c 16.146725
_cell_angle_alpha 90.000000
_cell_angle_beta 90.000000
_cell_angle_gamma 90.000000
_cell_volume 2329.904759
_symmetry_space_group_name_H-M "I B A 2"
_symmetry_group_IT_number 45
_symmetry_cell_setting 'orthorhombic'
loop_
_space_group_symop_operation_xyz
x,y,z
-x,-y,z
-x,y,1/2+z
x,-y,1/2+z
1/2+x,1/2+y,1/2+z
1/2-x,1/2-y,1/2+z
1/2-x,1/2+y,z
1/2+x,1/2-y,z
loop_
_atom_site_type_symbol
_atom_site_label
_atom_site_fract_x
_atom_site_fract_y
_atom_site_fract_z
Si Si1 0.923306 0.947941 0.567680
Si Si2 0.380359 0.012196 0.072879
Si Si3 0.423306 0.447944 0.752600
Si Si4 0.500000 0.000000 0.160139
Si Si5 0.380358 0.987800 0.247398
Si Si6 0.343228 0.499679 0.910140
Si Si7 0.809122 0.440482 0.910139
O O1 0.909058 0.723512 0.560399
O O2 0.883150 0.044188 0.493425
O O3 0.900431 0.999997 0.660140
O O4 0.000000 0.000000 0.560213
O O5 0.447485 0.900763 0.098525
O O6 0.341169 0.999997 0.160138
O O7 0.338385 0.965163 0.992947
O O8 0.500000 0.500000 0.760068
O O9 0.409057 0.223515 0.759879
O O10 0.383151 0.544190 0.826856
O O11 0.447484 0.099235 0.221754
O O12 0.338383 0.034834 0.327328
O O13 0.269119 0.572460 0.910140
O O14 0.334123 0.273420 0.910139
#
# Coordination Sequence:
#
# PCOD9376459 Si02
#       7
#     8   8   8   4   8   8   8
#     4  10  20  37  61  84 114 146 187 239 284 328
#     4   9  20  37  58  84 116 142 187 230 283 336
#     4  10  20  37  61  84 114 146 187 239 284 328
#     4   8  16  34  58  80 106 136 192 214 280 324
#     4   9  20  37  58  84 116 142 187 230 283 336
#     4  10  23  40  56  84 113 154 193 227 278 344
#     4  10  22  41  56  80 118 153 186 234 276 337
#
# _framework density 22.318508000000001
#
# number of rings (size 3 to 8) (size 9 to 14) (size 15 to 20)
#    0.923    1.538    0.000    2.308    0.000    4.308 
#    0.000    6.154    0.000    0.000    0.000    0.000 
#    0.000    0.000    0.000    0.000    0.000    0.000 
#
# Total GULP energy -144803.851726 kJ/mol
# GULP energy per Si atom -5569.378913 kJ/mol
# Density = 2.226771 g / cm^3
# Si number density = 22.318508 Si / 1000 Ang^3
#
#
#
# Elastic Constant Matrix: (Units=GPa)
#
#
# Indices 1 2 3 4 5 6 
#
# 1 127.5879 13.1356 132.2010 0.0000 0.0000 0.0000
# 2 13.1356 78.2566 7.9075 0.0000 0.0000 0.0000
# 3 132.2010 7.9075 253.7806 0.0000 0.0000 0.0000
# 4 0.0000 0.0000 0.0000 38.0179 0.0000 0.0000
# 5 0.0000 0.0000 0.0000 0.0000 -84.6929 0.0000
# 6 0.0000 0.0000 0.0000 0.0000 0.0000 22.6484
#
#
#
# Elastic Compliance Matrix: (Units=1/GPa)
#
#
# Indices 1 2 3 4 5 6 
#
# 1 0.017337 -0.002004 -0.008969 0.000000 0.000000 0.000000
# 2 -0.002004 0.013050 0.000637 0.000000 0.000000 0.000000
# 3 -0.008969 0.000637 0.008593 0.000000 0.000000 0.000000
# 4 0.000000 0.000000 0.000000 0.026303 0.000000 0.000000
# 5 0.000000 0.000000 0.000000 0.000000 -0.011807 0.000000
# 6 0.000000 0.000000 0.000000 0.000000 0.000000 0.044153
#
#
# Mechanical properties :
#
#
# Convention : Reuss Voigt Hill
#
# Bulk Modulus (GPa) = 54.61729 85.12372 69.87050
# Shear Modulus (GPa) = 40.19149 15.62008 27.90578
#
# Velocity S-wave (km/s) = 4.24820 2.64838 3.53985
# Velocity P-wave (km/s) = 6.97050 6.89747 6.93408
#
# Compressibility (1/GPa) = 0.01830922
#
# Stress axis : x y z
#
# Youngs Moduli (GPa) = 57.67873 76.62575 116.37663
#
# Poissons Ratio (x) = 0.15355 1.04379
# Poissons Ratio (y) = 0.11558 -0.07416
# Poissons Ratio (z) = 0.51733 -0.04883
#
# Static dielectric constant tensor:
#      x y z
#    x 1.789280 0.000000 0.000000 
#    y 0.000000 1.988080 0.000000 
#    z 0.000000 0.000000 1.872440 
# 
# From -- ./inp_files/6924.got.cif
#   From: 2010.05.17/outbox.cif.g08.bks.cpg/sg45_4_cif.got.tgz:6924.got - 2010.06.03 19:51:22.
