data_PCOD9376861
_publ_section_title
;
Structure prediction by ZEFSAII (Michael W. Deem and Ramdas Pophale) SiO2 
 PCOD9376861
Probable space group: I B A 2
;
_chemical_formula_sum "Si O2"
_cell_formula_units_Z 44
_cell_length_a 27.326899
_cell_length_b 5.383820
_cell_length_c 12.969478
_cell_angle_alpha 90.000000
_cell_angle_beta 90.000000
_cell_angle_gamma 90.000000
_cell_volume 1908.109878
_symmetry_space_group_name_H-M "I B A 2"
_symmetry_group_IT_number 45
_symmetry_cell_setting 'orthorhombic'
loop_
_space_group_symop_operation_xyz
x,y,z
-x,-y,z
-x,y,1/2+z
x,-y,1/2+z
1/2+x,1/2+y,1/2+z
1/2-x,1/2-y,1/2+z
1/2-x,1/2+y,z
1/2+x,1/2-y,z
loop_
_atom_site_type_symbol
_atom_site_label
_atom_site_fract_x
_atom_site_fract_y
_atom_site_fract_z
Si Si1 0.726005 0.133501 0.559700
Si Si2 0.500000 0.500000 0.786771
Si Si3 0.357850 0.259390 0.216987
Si Si4 0.469985 0.257524 0.481725
Si Si5 0.584941 0.235435 0.176813
Si Si6 0.765303 0.180492 0.329377
O O1 0.764685 0.348762 0.587073
O O2 0.676650 0.218271 0.615654
O O3 0.734271 0.140349 0.434830
O O4 0.468043 0.302441 0.724724
O O5 0.535760 0.346168 0.863959
O O6 0.382886 0.525285 0.204345
O O7 0.322779 0.263674 0.317932
O O8 0.393302 0.021846 0.217151
O O9 0.500000 0.500000 0.523368
O O10 0.423265 0.223195 0.553578
O O11 0.500000 0.000000 0.485211
O O12 0.740535 0.414959 0.276769
#
# Coordination Sequence:
#
# PCOD9376861 Si02
#       6
#     8   4   8   8   8   8
#     4  10  21  42  67  91 137 186 217 277 352 416
#     4  10  26  48  74  98 142 194 222 294 376 424
#     4  12  25  42  67 109 133 179 244 291 333 420
#     4  10  23  45  71  97 132 187 233 270 366 432
#     4  12  26  45  73 103 142 178 240 299 347 426
#     4  10  21  42  66  94 136 187 223 275 354 421
#
# _framework density 23.059470999999998
#
# number of rings (size 3 to 8) (size 9 to 14) (size 15 to 20)
#    0.545    0.727    0.909    4.364    2.545    0.000 
#   19.636    0.000    0.000    0.000    0.000    0.000 
#    0.000    0.000    0.000    0.000    0.000    0.000 
#
# Total GULP energy -122599.944733 kJ/mol
# GULP energy per Si atom -5572.724761 kJ/mol
# Density = 2.300699 g / cm^3
# Si number density = 23.059471 Si / 1000 Ang^3
#
#
#
# Elastic Constant Matrix: (Units=GPa)
#
#
# Indices 1 2 3 4 5 6 
#
# 1 49.1176 9.8202 19.7898 0.0000 0.0000 0.0000
# 2 9.8202 152.6216 11.4686 0.0000 0.0000 0.0000
# 3 19.7898 11.4686 97.3644 0.0000 0.0000 0.0000
# 4 0.0000 0.0000 0.0000 27.1840 0.0000 0.0000
# 5 0.0000 0.0000 0.0000 0.0000 28.1829 0.0000
# 6 0.0000 0.0000 0.0000 0.0000 0.0000 57.6781
#
#
#
# Elastic Compliance Matrix: (Units=1/GPa)
#
#
# Indices 1 2 3 4 5 6 
#
# 1 0.022359 -0.001107 -0.004414 0.000000 0.000000 0.000000
# 2 -0.001107 0.006665 -0.000560 0.000000 0.000000 0.000000
# 3 -0.004414 -0.000560 0.011234 0.000000 0.000000 0.000000
# 4 0.000000 0.000000 0.000000 0.036786 0.000000 0.000000
# 5 0.000000 0.000000 0.000000 0.000000 0.035482 0.000000
# 6 0.000000 0.000000 0.000000 0.000000 0.000000 0.017338
#
#
# Mechanical properties :
#
#
# Convention : Reuss Voigt Hill
#
# Bulk Modulus (GPa) = 35.59243 42.36231 38.97737
# Shear Modulus (GPa) = 33.02667 39.81068 36.41867
#
# Velocity S-wave (km/s) = 3.78860 4.15955 3.97840
# Velocity P-wave (km/s) = 5.88273 6.44049 6.16792
#
# Compressibility (1/GPa) = 0.02809586
#
# Stress axis : x y z
#
# Youngs Moduli (GPa) = 44.72442 150.02695 89.01636
#
# Poissons Ratio (x) = 0.16607 0.39294
# Poissons Ratio (y) = 0.04951 0.04986
# Poissons Ratio (z) = 0.19742 0.08403
#
# Static dielectric constant tensor:
#      x y z
#    x 1.947390 0.000000 0.000000 
#    y 0.000000 1.852680 0.000000 
#    z 0.000000 0.000000 1.995150 
# 
# From -- ./inp_files/7099.got.cif
#   From: 2010.05.17/outbox.cif.g08.bks.cpg/sg45_4_cif.got.tgz:7099.got - 2010.06.03 19:51:22.
