data_PCOD9376265
_publ_section_title
;
Structure prediction by ZEFSAII (Michael W. Deem and Ramdas Pophale) SiO2 
 PCOD9376265
Probable space group: I B A 2
;
_chemical_formula_sum "Si O2"
_cell_formula_units_Z 56
_cell_length_a 25.912110
_cell_length_b 5.472120
_cell_length_c 16.969715
_cell_angle_alpha 90.000000
_cell_angle_beta 90.000000
_cell_angle_gamma 90.000000
_cell_volume 2406.206745
_symmetry_space_group_name_H-M "I B A 2"
_symmetry_group_IT_number 45
_symmetry_cell_setting 'orthorhombic'
loop_
_space_group_symop_operation_xyz
x,y,z
-x,-y,z
-x,y,1/2+z
x,-y,1/2+z
1/2+x,1/2+y,1/2+z
1/2-x,1/2-y,1/2+z
1/2-x,1/2+y,z
1/2+x,1/2-y,z
loop_
_atom_site_type_symbol
_atom_site_label
_atom_site_fract_x
_atom_site_fract_y
_atom_site_fract_z
Si Si1 0.556047 0.420337 0.171600
Si Si2 0.225263 0.007880 0.632588
Si Si3 0.766045 0.532608 0.314075
Si Si4 0.372552 0.215109 0.095860
Si Si5 0.034892 0.751398 0.348962
Si Si6 0.620773 0.970012 0.753379
Si Si7 0.942538 0.392547 0.513294
O O1 0.500000 0.500000 0.198368
O O2 0.577210 0.663446 0.132519
O O3 0.555481 0.239670 0.097162
O O4 0.588972 0.279031 0.237632
O O5 0.257327 0.243559 0.604829
O O6 0.168983 0.070269 0.599102
O O7 0.234216 0.013019 0.728812
O O8 0.745413 0.775646 0.354291
O O9 0.827329 0.557707 0.302847
O O10 0.355859 0.037891 0.167085
O O11 0.393943 0.077433 0.019961
O O12 0.081767 0.674899 0.289011
O O13 0.061915 0.765543 0.434875
O O14 0.000000 0.500000 0.343373
O O15 0.000000 0.000000 0.347198
O O16 0.000000 0.500000 0.506089
#
# Coordination Sequence:
#
# PCOD9376265 Si02
#       7
#     8   8   8   8   8   8   8
#     4  11  22  36  63  92 135 165 219 281 343 400
#     4  10  19  35  55  89 125 161 198 262 329 402
#     4  10  19  36  60  88 127 167 206 261 334 410
#     4  11  22  35  65  95 125 165 220 274 339 401
#     4  11  28  46  65  89 136 184 231 273 334 409
#     4  11  25  37  61 101 129 171 219 280 343 406
#     4  10  22  43  61  89 125 185 220 269 327 415
#
# _framework density 23.273143999999998
#
# number of rings (size 3 to 8) (size 9 to 14) (size 15 to 20)
#    0.000    1.429    4.286    2.143    8.000    0.000 
#    0.000    0.000    0.000    1.714    0.000    0.000 
#    0.000    0.000    0.000    0.000    0.000    0.000 
#
# Total GULP energy -156024.165962 kJ/mol
# GULP energy per Si atom -5572.291641 kJ/mol
# Density = 2.322017 g / cm^3
# Si number density = 23.273144 Si / 1000 Ang^3
#
#
#
# Elastic Constant Matrix: (Units=GPa)
#
#
# Indices 1 2 3 4 5 6 
#
# 1 80.7015 24.0615 17.6919 0.0000 0.0000 0.0000
# 2 24.0615 131.8222 13.5337 0.0000 0.0000 0.0000
# 3 17.6919 13.5337 52.5362 0.0000 0.0000 0.0000
# 4 0.0000 0.0000 0.0000 77.4462 0.0000 0.0000
# 5 0.0000 0.0000 0.0000 0.0000 -24.1128 0.0000
# 6 0.0000 0.0000 0.0000 0.0000 0.0000 52.9227
#
#
#
# Elastic Compliance Matrix: (Units=1/GPa)
#
#
# Indices 1 2 3 4 5 6 
#
# 1 0.013932 -0.002117 -0.004146 0.000000 0.000000 0.000000
# 2 -0.002117 0.008114 -0.001377 0.000000 0.000000 0.000000
# 3 -0.004146 -0.001377 0.020785 0.000000 0.000000 0.000000
# 4 0.000000 0.000000 0.000000 0.012912 0.000000 0.000000
# 5 0.000000 0.000000 0.000000 0.000000 -0.041472 0.000000
# 6 0.000000 0.000000 0.000000 0.000000 0.000000 0.018895
#
#
# Mechanical properties :
#
#
# Convention : Reuss Voigt Hill
#
# Bulk Modulus (GPa) = 36.29797 41.73713 39.01755
# Shear Modulus (GPa) = 86.75856 35.23606 60.99731
#
# Velocity S-wave (km/s) = 6.11223 3.89527 5.12506
# Velocity P-wave (km/s) = 8.08967 6.18088 7.19882
#
# Compressibility (1/GPa) = 0.02754975
#
# Stress axis : x y z
#
# Youngs Moduli (GPa) = 71.77947 123.24637 48.11050
#
# Poissons Ratio (x) = 0.26094 0.19947
# Poissons Ratio (y) = 0.15198 0.06626
# Poissons Ratio (z) = 0.29761 0.16973
#
# Static dielectric constant tensor:
#      x y z
#    x 1.928390 0.000000 0.000000 
#    y 0.000000 1.980890 0.000000 
#    z 0.000000 0.000000 1.926400 
# 
# From -- ./inp_files/9326.got.cif
#   From: 2010.05.17/outbox.cif.g08.bks.cpg/sg45_5_cif.got.tgz:9326.got - 2010.06.03 19:51:22.
