data_PCOD9376815
_publ_section_title
;
Structure prediction by ZEFSAII (Michael W. Deem and Ramdas Pophale) SiO2 
 PCOD9376815
Probable space group: I B A 2
;
_chemical_formula_sum "Si O2"
_cell_formula_units_Z 40
_cell_length_a 8.308014
_cell_length_b 21.761208
_cell_length_c 9.197553
_cell_angle_alpha 90.000000
_cell_angle_beta 90.000000
_cell_angle_gamma 90.000000
_cell_volume 1662.847872
_symmetry_space_group_name_H-M "I B A 2"
_symmetry_group_IT_number 45
_symmetry_cell_setting 'orthorhombic'
loop_
_space_group_symop_operation_xyz
x,y,z
-x,-y,z
-x,y,1/2+z
x,-y,1/2+z
1/2+x,1/2+y,1/2+z
1/2-x,1/2-y,1/2+z
1/2-x,1/2+y,z
1/2+x,1/2-y,z
loop_
_atom_site_type_symbol
_atom_site_label
_atom_site_fract_x
_atom_site_fract_y
_atom_site_fract_z
Si Si1 0.625249 0.673064 0.765490
Si Si2 0.874072 0.949235 0.121974
Si Si3 0.987920 0.306893 0.264618
Si Si4 0.680444 0.995731 0.399036
Si Si5 0.178584 0.635348 0.525384
O O1 0.556250 0.614922 0.679165
O O2 0.807301 0.681966 0.702387
O O3 0.526488 0.735097 0.758861
O O4 0.664559 0.657490 0.934865
O O5 0.791039 0.976933 0.265453
O O6 0.000000 0.000000 0.069764
O O7 0.746447 0.947037 0.990727
O O8 0.961915 0.333713 0.425671
O O9 0.131924 0.341878 0.183570
O O10 0.676053 0.937605 0.509077
O O11 0.500000 0.000000 0.342867
#
# Coordination Sequence:
#
# PCOD9376815 Si02
#       5
#     8   8   8   8   8
#     4   9  23  40  61  94 129 164 219 260 338 391
#     4  11  24  45  64 100 133 176 222 279 336 403
#     4  10  21  41  62  91 130 166 215 271 326 400
#     4  11  23  43  68  97 133 174 226 271 335 400
#     4   9  23  39  64  92 128 163 225 266 328 397
#
# _framework density 24.055119000000001
#
# number of rings (size 3 to 8) (size 9 to 14) (size 15 to 20)
#    1.200    0.800    0.000    2.400    5.600    1.600 
#    7.200    0.000    0.000    0.000    0.000    0.000 
#    0.000    0.000    0.000    0.000    0.000    0.000 
#
# Total GULP energy -111696.689266 kJ/mol
# GULP energy per Si atom -5584.834463 kJ/mol
# Density = 2.400037 g / cm^3
# Si number density = 24.055119 Si / 1000 Ang^3
#
#
#
# Elastic Constant Matrix: (Units=GPa)
#
#
# Indices 1 2 3 4 5 6 
#
# 1 49.1204 9.8362 8.6334 0.0026 -0.0004 -0.0006
# 2 9.8362 78.9228 1.3454 -0.0023 -0.0018 0.0004
# 3 8.6334 1.3454 73.4232 0.0201 0.0017 -0.0059
# 4 0.0026 -0.0023 0.0201 16.8581 -0.0061 -0.0043
# 5 -0.0004 -0.0018 0.0017 -0.0061 24.7362 -0.0001
# 6 -0.0006 0.0004 -0.0059 -0.0043 -0.0001 37.5991
#
#
#
# Elastic Compliance Matrix: (Units=1/GPa)
#
#
# Indices 1 2 3 4 5 6 
#
# 1 0.021314 -0.002614 -0.002458 -0.000001 0.000000 0.000000
# 2 -0.002614 0.012995 0.000069 0.000002 0.000001 0.000000
# 3 -0.002458 0.000069 0.013907 -0.000016 -0.000001 0.000002
# 4 -0.000001 0.000002 -0.000016 0.059319 0.000015 0.000007
# 5 0.000000 0.000001 -0.000001 0.000015 0.040427 0.000000
# 6 0.000000 0.000000 0.000002 0.000007 0.000000 0.026596
#
#
# Mechanical properties :
#
#
# Convention : Reuss Voigt Hill
#
# Bulk Modulus (GPa) = 26.17139 26.78849 26.47994
# Shear Modulus (GPa) = 25.34192 27.94877 26.64535
#
# Velocity S-wave (km/s) = 3.24928 3.41231 3.33179
# Velocity P-wave (km/s) = 4.99805 5.16581 5.08262
#
# Compressibility (1/GPa) = 0.03820966
#
# Stress axis : x y z
#
# Youngs Moduli (GPa) = 46.91805 76.95111 71.90382
#
# Poissons Ratio (x) = 0.20119 0.17676
# Poissons Ratio (y) = 0.12267 -0.00498
# Poissons Ratio (z) = 0.11534 -0.00533
#
# Static dielectric constant tensor:
#      x y z
#    x 2.161230 -0.000020 0.000010 
#    y -0.000020 1.920130 0.000020 
#    z 0.000010 0.000020 1.872320 
# 
# From -- ./inp_files/949.got.cif
#   From: 2010.05.17/outbox.cif.g08.bks.cpg/sg45_1_cif.got.tgz:949.got - 2010.06.03 19:51:22.
