data_PCOD9376925
_publ_section_title
;
Structure prediction by ZEFSAII (Michael W. Deem and Ramdas Pophale) SiO2 
 PCOD9376925
Probable space group: I B A 2
;
_chemical_formula_sum "Si O2"
_cell_formula_units_Z 40
_cell_length_a 5.253392
_cell_length_b 27.803511
_cell_length_c 10.061336
_cell_angle_alpha 90.000000
_cell_angle_beta 90.000000
_cell_angle_gamma 90.000000
_cell_volume 1469.586327
_symmetry_space_group_name_H-M "I B A 2"
_symmetry_group_IT_number 45
_symmetry_cell_setting 'orthorhombic'
loop_
_space_group_symop_operation_xyz
x,y,z
-x,-y,z
-x,y,1/2+z
x,-y,1/2+z
1/2+x,1/2+y,1/2+z
1/2-x,1/2-y,1/2+z
1/2-x,1/2+y,z
1/2+x,1/2-y,z
loop_
_atom_site_type_symbol
_atom_site_label
_atom_site_fract_x
_atom_site_fract_y
_atom_site_fract_z
Si Si1 0.000000 0.500000 0.456131
Si Si2 0.786172 0.820512 0.823427
Si Si3 0.374859 0.264501 0.980640
Si Si4 0.019272 0.601612 0.448622
Si Si5 0.483527 0.605069 0.126706
Si Si6 0.000000 0.000000 0.640945
O O1 0.993039 0.549887 0.378188
O O2 0.750772 0.500376 0.548516
O O3 0.682634 0.766175 0.845382
O O4 0.547456 0.854701 0.852236
O O5 0.944809 0.847950 0.712383
O O6 0.993596 0.813731 0.942422
O O7 0.602004 0.234284 0.050067
O O8 0.792934 0.606301 0.558076
O O9 0.288266 0.600952 0.520302
O O10 0.496066 0.553398 0.206733
#
# Coordination Sequence:
#
# PCOD9376925 Si02
#       6
#     4   8   8   8   8   4
#     4   8  16  36  52  80 116 136 178 240 272 326
#     4  10  22  40  62  80 122 152 198 240 298 350
#     4   8  20  36  58  78 118 150 184 260 290 318
#     4  10  22  36  61  86 114 154 192 234 293 351
#     4  10  22  36  61  86 114 154 192 234 293 351
#     4   8  16  36  52  80 116 136 178 240 272 326
#
# _framework density 27.218543
#
# number of rings (size 3 to 8) (size 9 to 14) (size 15 to 20)
#    1.200    1.600    0.000    0.000    5.600    0.000 
#    0.000   18.000    0.000    0.000    0.000    0.000 
#    0.000    0.000    0.000    0.000    0.000    0.000 
#
# Total GULP energy -111460.431374 kJ/mol
# GULP energy per Si atom -5573.021569 kJ/mol
# Density = 2.715659 g / cm^3
# Si number density = 27.218543 Si / 1000 Ang^3
#
#
#
# Elastic Constant Matrix: (Units=GPa)
#
#
# Indices 1 2 3 4 5 6 
#
# 1 186.1104 0.6716 16.5836 0.0000 0.0000 0.0000
# 2 0.6716 124.3585 7.9935 0.0000 0.0000 0.0000
# 3 16.5836 7.9935 53.8413 -0.0001 0.0000 0.0000
# 4 0.0000 0.0000 -0.0001 9.9810 0.0000 0.0000
# 5 0.0000 0.0000 0.0000 0.0000 46.9804 0.0000
# 6 0.0000 0.0000 0.0000 0.0000 0.0000 28.6477
#
#
#
# Elastic Compliance Matrix: (Units=1/GPa)
#
#
# Indices 1 2 3 4 5 6 
#
# 1 0.005526 0.000080 -0.001714 0.000000 0.000000 0.000000
# 2 0.000080 0.008120 -0.001230 0.000000 0.000000 0.000000
# 3 -0.001714 -0.001230 0.019284 0.000000 0.000000 0.000000
# 4 0.000000 0.000000 0.000000 0.100190 0.000000 0.000000
# 5 0.000000 0.000000 0.000000 0.000000 0.021285 0.000000
# 6 0.000000 0.000000 0.000000 0.000000 0.000000 0.034907
#
#
# Mechanical properties :
#
#
# Convention : Reuss Voigt Hill
#
# Bulk Modulus (GPa) = 36.76260 46.08974 41.42617
# Shear Modulus (GPa) = 24.49706 39.72591 32.11149
#
# Velocity S-wave (km/s) = 3.00328 3.82451 3.43850
# Velocity P-wave (km/s) = 5.05589 6.03924 5.56931
#
# Compressibility (1/GPa) = 0.02720156
#
# Stress axis : x y z
#
# Youngs Moduli (GPa) = 180.97645 123.15401 51.85740
#
# Poissons Ratio (x) = -0.00989 0.08888
# Poissons Ratio (y) = -0.01454 0.06380
# Poissons Ratio (z) = 0.31017 0.15151
#
# Static dielectric constant tensor:
#      x y z
#    x 2.172470 0.000000 0.000000 
#    y 0.000000 2.155100 0.000000 
#    z 0.000000 0.000000 2.173680 
# 
# From -- ./inp_files/2955.got.cif
#   From: 2010.05.17/outbox.cif.g08.bks.cpg/sg45_2_cif.got.tgz:2955.got - 2010.06.03 19:51:22.
