data_PCOD9376319
_publ_section_title
;
Structure prediction by ZEFSAII (Michael W. Deem and Ramdas Pophale) SiO2 
 PCOD9376319
Probable space group: I B A 2
;
_chemical_formula_sum "Si O2"
_cell_formula_units_Z 32
_cell_length_a 4.844101
_cell_length_b 16.444260
_cell_length_c 14.232830
_cell_angle_alpha 90.000000
_cell_angle_beta 90.000000
_cell_angle_gamma 90.000000
_cell_volume 1133.753880
_symmetry_space_group_name_H-M "I B A 2"
_symmetry_group_IT_number 45
_symmetry_cell_setting 'orthorhombic'
loop_
_space_group_symop_operation_xyz
x,y,z
-x,-y,z
-x,y,1/2+z
x,-y,1/2+z
1/2+x,1/2+y,1/2+z
1/2-x,1/2-y,1/2+z
1/2-x,1/2+y,z
1/2+x,1/2-y,z
loop_
_atom_site_type_symbol
_atom_site_label
_atom_site_fract_x
_atom_site_fract_y
_atom_site_fract_z
Si Si1 0.345607 0.079838 0.579730
Si Si2 0.299355 0.803544 0.686817
Si Si3 0.000001 0.815858 0.436818
Si Si4 0.845608 0.420162 0.793904
O O1 0.586869 0.146009 0.599337
O O2 0.118708 0.120490 0.514831
O O3 0.244712 0.060016 0.686817
O O4 0.500000 0.000000 0.543480
O O5 0.485097 0.722088 0.686817
O O6 0.413130 0.853991 0.774297
O O7 0.750000 0.750000 0.436818
O O8 0.118710 0.879509 0.358803
O O9 0.000000 0.500000 0.830154
#
# Coordination Sequence:
#
# PCOD9376319 Si02
#       4
#     8   8   8   8
#     4   9  22  47  79 122 173 228 298 370 451 545
#     4  10  19  38  71 112 156 202 276 356 423 514
#     4  12  26  48  82 124 172 232 292 378 463 532
#     4   9  22  47  79 122 173 228 298 370 451 545
#
# _framework density 28.224817999999999
#
# number of rings (size 3 to 8) (size 9 to 14) (size 15 to 20)
#    1.500    0.500    0.000    3.000    0.000    0.000 
#    0.000   16.250    0.000    7.500    0.000    0.000 
#    0.000    0.000    0.000    0.000    0.000    0.000 
#
# Total GULP energy -89497.111937 kJ/mol
# GULP energy per Si atom -5593.569496 kJ/mol
# Density = 2.816058 g / cm^3
# Si number density = 28.224818 Si / 1000 Ang^3
#
#
#
# Elastic Constant Matrix: (Units=GPa)
#
#
# Indices 1 2 3 4 5 6 
#
# 1 218.9680 95.3945 91.0155 0.0000 0.0000 0.0000
# 2 95.3945 174.8341 106.1766 0.0000 0.0000 0.0000
# 3 91.0155 106.1766 200.9159 0.0000 0.0000 0.0000
# 4 0.0000 0.0000 0.0000 44.2376 0.0000 0.0000
# 5 0.0000 0.0000 0.0000 0.0000 26.2658 0.0000
# 6 0.0000 0.0000 0.0000 0.0000 0.0000 75.0959
#
#
#
# Elastic Compliance Matrix: (Units=1/GPa)
#
#
# Indices 1 2 3 4 5 6 
#
# 1 0.006293 -0.002507 -0.001526 0.000000 0.000000 0.000000
# 2 -0.002507 0.009422 -0.003843 0.000000 0.000000 0.000000
# 3 -0.001526 -0.003843 0.007700 0.000000 0.000000 0.000000
# 4 0.000000 0.000000 0.000000 0.022605 0.000000 0.000000
# 5 0.000000 0.000000 0.000000 0.000000 0.038072 0.000000
# 6 0.000000 0.000000 0.000000 0.000000 0.000000 0.013316
#
#
# Mechanical properties :
#
#
# Convention : Reuss Voigt Hill
#
# Bulk Modulus (GPa) = 130.51766 131.09902 130.80834
# Shear Modulus (GPa) = 43.20952 49.26195 46.23573
#
# Velocity S-wave (km/s) = 3.91692 4.18226 4.05176
# Velocity P-wave (km/s) = 8.17306 8.35887 8.26649
#
# Compressibility (1/GPa) = 0.00766180
#
# Stress axis : x y z
#
# Youngs Moduli (GPa) = 158.89626 106.13811 129.87811
#
# Poissons Ratio (x) = 0.26610 0.19820
# Poissons Ratio (y) = 0.39837 0.49916
# Poissons Ratio (z) = 0.24248 0.40792
#
# Static dielectric constant tensor:
#      x y z
#    x 2.141600 0.000000 0.000000 
#    y 0.000000 2.151680 0.000000 
#    z 0.000000 0.000000 2.458410 
# 
# From -- ./inp_files/7220.got.cif
#   From: 2010.05.17/outbox.cif.g08.bks.cpg/sg45_4_cif.got.tgz:7220.got - 2010.06.03 19:51:22.
