data_PCOD9376696
_publ_section_title
;
Structure prediction by ZEFSAII (Michael W. Deem and Ramdas Pophale) SiO2 
 PCOD9376696
Probable space group: I B A 2
;
_chemical_formula_sum "Si O2"
_cell_formula_units_Z 60
_cell_length_a 28.312671
_cell_length_b 12.262491
_cell_length_c 8.570077
_cell_angle_alpha 90.000000
_cell_angle_beta 90.000000
_cell_angle_gamma 90.000000
_cell_volume 2975.392528
_symmetry_space_group_name_H-M "I B A 2"
_symmetry_group_IT_number 45
_symmetry_cell_setting 'orthorhombic'
loop_
_space_group_symop_operation_xyz
x,y,z
-x,-y,z
-x,y,1/2+z
x,-y,1/2+z
1/2+x,1/2+y,1/2+z
1/2-x,1/2-y,1/2+z
1/2-x,1/2+y,z
1/2+x,1/2-y,z
loop_
_atom_site_type_symbol
_atom_site_label
_atom_site_fract_x
_atom_site_fract_y
_atom_site_fract_z
Si Si1 0.414943 0.887029 0.027780
Si Si2 0.222163 0.003923 0.287465
Si Si3 0.500000 0.000000 0.850869
Si Si4 0.476415 0.236703 0.723987
Si Si5 0.218681 0.380692 0.537271
Si Si6 0.877684 0.570981 0.706251
Si Si7 0.930741 0.770871 0.557645
Si Si8 0.674613 0.354645 0.540417
O O1 0.455907 0.962287 0.953734
O O2 0.438851 0.774585 0.082193
O O3 0.394213 0.947285 0.179193
O O4 0.378222 0.886525 0.883954
O O5 0.241184 0.094111 0.165720
O O6 0.185878 0.061593 0.403031
O O7 0.264625 0.949459 0.387454
O O8 0.196874 0.907418 0.194443
O O9 0.510432 0.890516 0.755258
O O10 0.524519 0.295660 0.670395
O O11 0.452050 0.274366 0.883268
O O12 0.171652 0.423889 0.619624
O O13 0.295792 0.755988 0.504799
O O14 0.913072 0.651006 0.612551
O O15 0.881245 0.835110 0.562134
#
# Coordination Sequence:
#
# PCOD9376696 Si02
#       8
#     8   8   4   8   8   8   8   8
#     4  12  19  28  46  75 120 174 202 238 289 359
#     4  10  21  43  65  91 121 162 198 255 326 358
#     4  12  18  26  48  70 114 170 210 226 294 366
#     4  12  20  32  52  76 120 166 208 247 302 361
#     4  10  21  37  64  94 129 159 199 247 303 381
#     4  11  19  30  46  82 121 157 200 234 286 369
#     4  11  21  36  52  83 113 150 199 251 302 363
#     4  10  23  41  68  90 120 155 209 258 302 382
#
# _framework density 20.165406000000001
#
# number of rings (size 3 to 8) (size 9 to 14) (size 15 to 20)
#    0.000    1.067    5.333    2.000    0.000    1.067 
#    0.000    9.333    0.000    2.400    0.000    0.000 
#    0.000    0.000    0.000    0.000    0.000    0.000 
#
# Total GULP energy -167273.927603 kJ/mol
# GULP energy per Si atom -5575.797587 kJ/mol
# Density = 2.011951 g / cm^3
# Si number density = 20.165406 Si / 1000 Ang^3
#
#
#
# Elastic Constant Matrix: (Units=GPa)
#
#
# Indices 1 2 3 4 5 6 
#
# 1 79.8441 8.3752 24.7152 0.0000 0.0000 0.0000
# 2 8.3752 32.0115 3.9030 0.0000 0.0000 0.0000
# 3 24.7152 3.9030 94.4293 0.0000 0.0000 0.0000
# 4 0.0000 0.0000 0.0000 15.1051 0.0000 0.0000
# 5 0.0000 0.0000 0.0000 0.0000 -793.0848 0.0000
# 6 0.0000 0.0000 0.0000 0.0000 0.0000 23.3775
#
#
#
# Elastic Compliance Matrix: (Units=1/GPa)
#
#
# Indices 1 2 3 4 5 6 
#
# 1 0.013951 -0.003221 -0.003518 0.000000 0.000000 0.000000
# 2 -0.003221 0.032141 -0.000485 0.000000 0.000000 0.000000
# 3 -0.003518 -0.000485 0.011531 0.000000 0.000000 0.000000
# 4 0.000000 0.000000 0.000000 0.066203 0.000000 0.000000
# 5 0.000000 0.000000 0.000000 0.000000 -0.001261 0.000000
# 6 0.000000 0.000000 0.000000 0.000000 0.000000 0.042776
#
#
# Mechanical properties :
#
#
# Convention : Reuss Voigt Hill
#
# Bulk Modulus (GPa) = 23.16253 31.14130 27.15191
# Shear Modulus (GPa) = 25.74902 -139.63436 -56.94267
#
# Velocity S-wave (km/s) = 3.57724 -8.33036 -5.31969
# Velocity P-wave (km/s) = 5.34541 8.77781 4.92324
#
# Compressibility (1/GPa) = 0.04317317
#
# Stress axis : x y z
#
# Youngs Moduli (GPa) = 71.67753 31.11317 86.72375
#
# Poissons Ratio (x) = 0.10022 0.30513
# Poissons Ratio (y) = 0.23088 0.04209
# Poissons Ratio (z) = 0.25219 0.01510
#
# Static dielectric constant tensor:
#      x y z
#    x 1.824430 0.000000 0.000000 
#    y 0.000000 1.693700 0.000000 
#    z 0.000000 0.000000 1.784820 
# 
# From -- ./inp_files/2640.got.cif
#   From: 2010.05.17/outbox.cif.g08.bks.cpg/sg45_2_cif.got.tgz:2640.got - 2010.06.03 19:51:22.
