data_PCOD9376725
_publ_section_title
;
Structure prediction by ZEFSAII (Michael W. Deem and Ramdas Pophale) SiO2 
 PCOD9376725
Probable space group: I B A 2
;
_chemical_formula_sum "Si O2"
_cell_formula_units_Z 64
_cell_length_a 18.168040
_cell_length_b 15.144637
_cell_length_c 11.103134
_cell_angle_alpha 90.000000
_cell_angle_beta 90.000000
_cell_angle_gamma 90.000000
_cell_volume 3055.009231
_symmetry_space_group_name_H-M "I B A 2"
_symmetry_group_IT_number 45
_symmetry_cell_setting 'orthorhombic'
loop_
_space_group_symop_operation_xyz
x,y,z
-x,-y,z
-x,y,1/2+z
x,-y,1/2+z
1/2+x,1/2+y,1/2+z
1/2-x,1/2-y,1/2+z
1/2-x,1/2+y,z
1/2+x,1/2-y,z
loop_
_atom_site_type_symbol
_atom_site_label
_atom_site_fract_x
_atom_site_fract_y
_atom_site_fract_z
Si Si1 0.632246 0.232745 0.852560
Si Si2 0.715574 0.956192 0.985002
Si Si3 0.141129 0.134211 0.268383
Si Si4 0.389267 0.506098 0.970288
Si Si5 0.114352 0.149451 0.635349
Si Si6 0.706491 0.247631 0.457114
Si Si7 0.041722 0.820517 0.539197
Si Si8 0.307612 0.937379 0.744171
O O1 0.625200 0.320028 0.770292
O O2 0.709508 0.236601 0.921653
O O3 0.638739 0.146584 0.767686
O O4 0.569530 0.242921 0.952512
O O5 0.695091 0.853579 0.985528
O O6 0.804316 0.962194 0.972826
O O7 0.686628 0.004923 0.865671
O O8 0.686412 0.987877 0.116212
O O9 0.105575 0.061654 0.358310
O O10 0.155695 0.220851 0.347861
O O11 0.093889 0.161793 0.154189
O O12 0.223312 0.099568 0.238035
O O13 0.395494 0.451471 0.095998
O O14 0.446552 0.585893 0.970157
O O15 0.184367 0.187812 0.565016
O O16 0.040455 0.193676 0.583972
#
# Coordination Sequence:
#
# PCOD9376725 Si02
#       8
#     8   8   8   8   8   8   8   8
#     4  11  24  41  66  90 129 177 216 269 327 391
#     4  11  20  38  65  96 126 164 218 283 323 385
#     4   9  21  38  61  90 131 167 218 262 316 392
#     4  10  22  39  58  92 135 176 207 257 323 391
#     4  11  26  41  61  96 135 168 215 265 322 404
#     4  10  21  41  64  88 125 167 216 271 321 378
#     4  12  24  40  64  94 133 180 214 259 329 400
#     4  10  21  38  63  98 126 158 227 273 331 380
#
# _framework density 20.949200000000001
#
# number of rings (size 3 to 8) (size 9 to 14) (size 15 to 20)
#    0.000    1.500    3.750    1.125    8.750    1.000 
#    0.000    0.000    0.000    0.750    0.000    0.000 
#    0.000    0.000    0.000    0.000    0.000    0.000 
#
# Total GULP energy -178715.345190 kJ/mol
# GULP energy per Si atom -5584.854537 kJ/mol
# Density = 2.090152 g / cm^3
# Si number density = 20.949200 Si / 1000 Ang^3
#
#
#
# Elastic Constant Matrix: (Units=GPa)
#
#
# Indices 1 2 3 4 5 6 
#
# 1 61.3537 9.1869 26.1064 0.0000 0.0000 0.0000
# 2 9.1869 34.2591 16.9380 0.0000 0.0000 0.0000
# 3 26.1064 16.9380 113.1075 0.0000 0.0000 0.0000
# 4 0.0000 0.0000 0.0000 34.9645 0.0000 0.0000
# 5 0.0000 0.0000 0.0000 0.0000 6.0508 0.0000
# 6 0.0000 0.0000 0.0000 0.0000 0.0000 20.6520
#
#
#
# Elastic Compliance Matrix: (Units=1/GPa)
#
#
# Indices 1 2 3 4 5 6 
#
# 1 0.018365 -0.003055 -0.003781 0.000000 0.000000 0.000000
# 2 -0.003055 0.032032 -0.004092 0.000000 0.000000 0.000000
# 3 -0.003781 -0.004092 0.010327 0.000000 0.000000 0.000000
# 4 0.000000 0.000000 0.000000 0.028600 0.000000 0.000000
# 5 0.000000 0.000000 0.000000 0.000000 0.165267 0.000000
# 6 0.000000 0.000000 0.000000 0.000000 0.000000 0.048422
#
#
# Mechanical properties :
#
#
# Convention : Reuss Voigt Hill
#
# Bulk Modulus (GPa) = 25.72873 34.79812 30.26343
# Shear Modulus (GPa) = 14.80055 22.76605 18.78330
#
# Velocity S-wave (km/s) = 2.66088 3.30013 2.99760
# Velocity P-wave (km/s) = 4.66354 5.58282 5.14376
#
# Compressibility (1/GPa) = 0.03886705
#
# Stress axis : x y z
#
# Youngs Moduli (GPa) = 54.45013 31.21926 96.83676
#
# Poissons Ratio (x) = 0.09538 0.36618
# Poissons Ratio (y) = 0.16636 0.39621
# Poissons Ratio (z) = 0.20590 0.12774
#
# Static dielectric constant tensor:
#      x y z
#    x 1.733380 0.000000 0.000000 
#    y 0.000000 1.779010 0.000000 
#    z 0.000000 0.000000 1.840520 
# 
# From -- ./inp_files/4495.got.cif
#   From: 2010.05.17/outbox.cif.g08.bks.cpg/sg45_3_cif.got.tgz:4495.got - 2010.06.03 19:51:22.
