data_PCOD9376249
_publ_section_title
;
Structure prediction by ZEFSAII (Michael W. Deem and Ramdas Pophale) SiO2 
 PCOD9376249
Probable space group: I B A 2
;
_chemical_formula_sum "Si O2"
_cell_formula_units_Z 64
_cell_length_a 20.433970
_cell_length_b 27.744644
_cell_length_c 5.440941
_cell_angle_alpha 90.000000
_cell_angle_beta 90.000000
_cell_angle_gamma 90.000000
_cell_volume 3084.650218
_symmetry_space_group_name_H-M "I B A 2"
_symmetry_group_IT_number 45
_symmetry_cell_setting 'orthorhombic'
loop_
_space_group_symop_operation_xyz
x,y,z
-x,-y,z
-x,y,1/2+z
x,-y,1/2+z
1/2+x,1/2+y,1/2+z
1/2-x,1/2-y,1/2+z
1/2-x,1/2+y,z
1/2+x,1/2-y,z
loop_
_atom_site_type_symbol
_atom_site_label
_atom_site_fract_x
_atom_site_fract_y
_atom_site_fract_z
Si Si1 0.960718 0.728978 0.899770
Si Si2 0.961815 0.155786 0.368069
Si Si3 0.767054 0.371258 0.858960
Si Si4 0.892076 0.012251 0.758275
Si Si5 0.667797 0.798644 0.167058
Si Si6 0.646923 0.615900 0.666299
Si Si7 0.801512 0.197238 0.975786
Si Si8 0.743511 0.025270 0.196498
O O1 0.892414 0.701829 0.853417
O O2 0.006717 0.718231 0.662968
O O3 0.948695 0.786809 0.885230
O O4 0.896359 0.126875 0.428199
O O5 0.992591 0.144456 0.104732
O O6 0.726592 0.329765 0.715560
O O7 0.775081 0.418290 0.691836
O O8 0.827572 0.343922 0.983788
O O9 0.720999 0.391085 0.077429
O O10 0.876976 0.068222 0.795468
O O11 0.926041 0.008236 0.496321
O O12 0.822683 0.983606 0.717698
O O13 0.737495 0.796220 0.306198
O O14 0.665165 0.748220 0.022135
O O15 0.647930 0.662237 0.839725
O O16 0.719668 0.001021 0.450156
#
# Coordination Sequence:
#
# PCOD9376249 Si02
#       8
#     8   8   8   8   8   8   8   8
#     4  10  24  42  64  80 114 168 211 250 282 342
#     4  10  24  40  57  83 109 151 213 268 294 345
#     4  11  22  35  58  87 120 161 188 245 309 379
#     4  10  19  34  55  83 107 145 196 242 295 374
#     4  11  24  37  55  90 127 159 203 240 310 370
#     4  11  23  35  61  81 112 159 201 249 314 367
#     4  11  23  36  54  87 127 161 189 245 311 377
#     4  10  19  35  54  82 116 148 196 234 290 369
#
# _framework density 20.747896999999998
#
# number of rings (size 3 to 8) (size 9 to 14) (size 15 to 20)
#    0.000    1.500    3.750    2.250   12.250    0.000 
#    0.000    0.000    0.000    2.250    0.000    0.000 
#    0.000    3.000    0.000    0.000    0.000    0.000 
#
# Total GULP energy -178881.895827 kJ/mol
# GULP energy per Si atom -5590.059245 kJ/mol
# Density = 2.070067 g / cm^3
# Si number density = 20.747897 Si / 1000 Ang^3
#
#
#
# Elastic Constant Matrix: (Units=GPa)
#
#
# Indices 1 2 3 4 5 6 
#
# 1 42.3688 32.8858 23.6615 0.0000 0.0000 0.0000
# 2 32.8858 80.1650 26.1470 0.0000 0.0000 0.0000
# 3 23.6615 26.1470 107.4427 0.0000 0.0000 0.0000
# 4 0.0000 0.0000 0.0000 29.8659 0.0000 0.0000
# 5 0.0000 0.0000 0.0000 0.0000 28.4708 0.0000
# 6 0.0000 0.0000 0.0000 0.0000 0.0000 5.1267
#
#
#
# Elastic Compliance Matrix: (Units=1/GPa)
#
#
# Indices 1 2 3 4 5 6 
#
# 1 0.036783 -0.013520 -0.004810 0.000000 0.000000 0.000000
# 2 -0.013520 0.018519 -0.001529 0.000000 0.000000 0.000000
# 3 -0.004810 -0.001529 0.010739 0.000000 0.000000 0.000000
# 4 0.000000 0.000000 0.000000 0.033483 0.000000 0.000000
# 5 0.000000 0.000000 0.000000 0.000000 0.035124 0.000000
# 6 0.000000 0.000000 0.000000 0.000000 0.000000 0.195056
#
#
# Mechanical properties :
#
#
# Convention : Reuss Voigt Hill
#
# Bulk Modulus (GPa) = 37.99203 43.92944 40.96073
# Shear Modulus (GPa) = 13.22059 22.51150 17.86605
#
# Velocity S-wave (km/s) = 2.52702 3.29751 2.93764
# Velocity P-wave (km/s) = 5.18319 5.97637 5.59386
#
# Compressibility (1/GPa) = 0.02632131
#
# Stress axis : x y z
#
# Youngs Moduli (GPa) = 27.18660 53.99715 93.12041
#
# Poissons Ratio (x) = 0.73006 0.44793
# Poissons Ratio (y) = 0.36757 0.14241
# Poissons Ratio (z) = 0.13077 0.08258
#
# Static dielectric constant tensor:
#      x y z
#    x 1.738370 0.000000 0.000000 
#    y 0.000000 1.783440 0.000000 
#    z 0.000000 0.000000 1.839270 
# 
# From -- ./inp_files/475.got.cif
#   From: 2010.05.17/outbox.cif.g08.bks.cpg/sg45_1_cif.got.tgz:475.got - 2010.06.03 19:51:22.
