data_PCOD9376316
_publ_section_title
;
Structure prediction by ZEFSAII (Michael W. Deem and Ramdas Pophale) SiO2 
 PCOD9376316
Probable space group: I B A 2
;
_chemical_formula_sum "Si O2"
_cell_formula_units_Z 56
_cell_length_a 5.777134
_cell_length_b 26.827749
_cell_length_c 13.662405
_cell_angle_alpha 90.000000
_cell_angle_beta 90.000000
_cell_angle_gamma 90.000000
_cell_volume 2117.502007
_symmetry_space_group_name_H-M "I B A 2"
_symmetry_group_IT_number 45
_symmetry_cell_setting 'orthorhombic'
loop_
_space_group_symop_operation_xyz
x,y,z
-x,-y,z
-x,y,1/2+z
x,-y,1/2+z
1/2+x,1/2+y,1/2+z
1/2-x,1/2-y,1/2+z
1/2-x,1/2+y,z
1/2+x,1/2-y,z
loop_
_atom_site_type_symbol
_atom_site_label
_atom_site_fract_x
_atom_site_fract_y
_atom_site_fract_z
Si Si1 0.888194 0.933171 0.083550
Si Si2 0.405944 0.261774 0.179820
Si Si3 0.629654 0.126916 0.449177
Si Si4 0.000000 0.000000 0.412450
Si Si5 0.500000 0.000000 0.669314
Si Si6 0.890027 0.727010 0.902828
Si Si7 0.544079 0.626682 0.256318
Si Si8 0.636776 0.063880 0.828384
O O1 0.723680 0.980251 0.110928
O O2 0.052247 0.915155 0.170295
O O3 0.752329 0.882921 0.051478
O O4 0.987799 0.951918 0.981106
O O5 0.152944 0.252796 0.131623
O O6 0.394249 0.231031 0.283283
O O7 0.426329 0.319771 0.207468
O O8 0.463624 0.173874 0.445198
O O9 0.489579 0.076470 0.427848
O O10 0.791472 0.129343 0.352088
O O11 0.791365 0.984844 0.343585
O O12 0.521643 0.950996 0.737907
O O13 0.122293 0.759874 0.928975
O O14 0.292793 0.610996 0.299024
#
# Coordination Sequence:
#
# PCOD9376316 Si02
#       8
#     8   8   8   4   4   8   8   8
#     4  11  26  43  65 106 139 182 238 308 352 440
#     4  10  19  38  67  99 136 184 234 294 360 441
#     4  12  23  44  70  99 143 185 241 292 372 434
#     4  12  24  44  70 100 146 178 252 296 370 426
#     4  10  24  44  66  98 142 178 248 282 376 422
#     4  10  20  37  70 100 136 187 236 297 362 442
#     4  11  24  42  67 102 136 185 240 290 368 433
#     4  11  24  41  72  98 135 195 235 293 363 446
#
# _framework density 26.446256999999999
#
# number of rings (size 3 to 8) (size 9 to 14) (size 15 to 20)
#    0.000    1.143    4.286    3.429    2.000    1.143 
#    0.000    1.429    0.000    0.000    0.000    0.000 
#    0.000    0.000    0.000    0.000    0.000    0.000 
#
# Total GULP energy -156364.003441 kJ/mol
# GULP energy per Si atom -5584.428694 kJ/mol
# Density = 2.638606 g / cm^3
# Si number density = 26.446257 Si / 1000 Ang^3
#
#
#
# Elastic Constant Matrix: (Units=GPa)
#
#
# Indices 1 2 3 4 5 6 
#
# 1 174.2622 44.6380 43.0980 0.0000 0.0000 0.0000
# 2 44.6380 85.8728 14.6086 -0.0001 0.0000 0.0000
# 3 43.0980 14.6086 67.0067 -0.0001 0.0000 0.0000
# 4 0.0000 -0.0001 -0.0001 27.1751 0.0000 0.0000
# 5 0.0000 0.0000 0.0000 0.0000 40.7651 0.0000
# 6 0.0000 0.0000 0.0000 0.0000 0.0000 45.3066
#
#
#
# Elastic Compliance Matrix: (Units=1/GPa)
#
#
# Indices 1 2 3 4 5 6 
#
# 1 0.007603 -0.003241 -0.004184 0.000000 0.000000 0.000000
# 2 -0.003241 0.013475 -0.000853 0.000000 0.000000 0.000000
# 3 -0.004184 -0.000853 0.017801 0.000000 0.000000 0.000000
# 4 0.000000 0.000000 0.000000 0.036798 0.000000 0.000000
# 5 0.000000 0.000000 0.000000 0.000000 0.024531 0.000000
# 6 0.000000 0.000000 0.000000 0.000000 0.000000 0.022072
#
#
# Mechanical properties :
#
#
# Convention : Reuss Voigt Hill
#
# Bulk Modulus (GPa) = 44.79616 59.09231 51.94424
# Shear Modulus (GPa) = 34.18174 37.63584 35.90879
#
# Velocity S-wave (km/s) = 3.59903 3.77650 3.68883
# Velocity P-wave (km/s) = 5.85201 6.43496 6.15040
#
# Compressibility (1/GPa) = 0.02232334
#
# Stress axis : x y z
#
# Youngs Moduli (GPa) = 131.52174 74.21254 56.17667
#
# Poissons Ratio (x) = 0.24049 0.23504
# Poissons Ratio (y) = 0.42620 0.04794
# Poissons Ratio (z) = 0.55027 0.06334
#
# Static dielectric constant tensor:
#      x y z
#    x 2.250310 0.000000 0.000000 
#    y 0.000000 2.038560 0.000000 
#    z 0.000000 0.000000 2.026440 
# 
# From -- ./inp_files/5289.got.cif
#   From: 2010.05.17/outbox.cif.g08.bks.cpg/sg45_3_cif.got.tgz:5289.got - 2010.06.03 19:51:22.
