data_PCOD9376704
_publ_section_title
;
Structure prediction by ZEFSAII (Michael W. Deem and Ramdas Pophale) SiO2 
 PCOD9376704
Probable space group: I B A 2
;
_chemical_formula_sum "Si O2"
_cell_formula_units_Z 56
_cell_length_a 23.431792
_cell_length_b 16.865791
_cell_length_c 5.327765
_cell_angle_alpha 90.000000
_cell_angle_beta 90.000000
_cell_angle_gamma 90.000000
_cell_volume 2105.509854
_symmetry_space_group_name_H-M "I B A 2"
_symmetry_group_IT_number 45
_symmetry_cell_setting 'orthorhombic'
loop_
_space_group_symop_operation_xyz
x,y,z
-x,-y,z
-x,y,1/2+z
x,-y,1/2+z
1/2+x,1/2+y,1/2+z
1/2-x,1/2-y,1/2+z
1/2-x,1/2+y,z
1/2+x,1/2-y,z
loop_
_atom_site_type_symbol
_atom_site_label
_atom_site_fract_x
_atom_site_fract_y
_atom_site_fract_z
Si Si1 0.796566 0.547194 0.383570
Si Si2 0.136386 0.152986 0.210009
Si Si3 0.657323 0.234758 0.809479
Si Si4 0.429424 0.948686 0.327587
Si Si5 0.239526 0.838602 0.049741
Si Si6 0.525523 0.389173 0.457379
Si Si7 0.438664 0.782464 0.464639
O O1 0.790679 0.520881 0.670332
O O2 0.862254 0.572954 0.350465
O O3 0.748671 0.607383 0.291911
O O4 0.142065 0.177831 0.921197
O O5 0.195277 0.129873 0.341950
O O6 0.086211 0.098280 0.319712
O O7 0.110947 0.238785 0.302712
O O8 0.695195 0.177681 0.977039
O O9 0.707906 0.256446 0.613388
O O10 0.598096 0.199415 0.714787
O O11 0.460467 0.863592 0.348115
O O12 0.439548 0.005282 0.568042
O O13 0.481256 0.417107 0.243403
O O14 0.519549 0.292561 0.494535
#
# Coordination Sequence:
#
# PCOD9376704 Si02
#       7
#     8   8   8   8   8   8   8
#     4  10  24  38  52  76 114 165 192 221 264 324
#     4   9  21  33  55  83 106 150 179 230 290 347
#     4  11  20  34  52  87 117 151 183 237 285 339
#     4  10  22  35  53  77 107 150 199 237 268 326
#     4  11  22  32  55  82 121 150 190 228 277 343
#     4  10  21  38  58  81 110 144 183 238 304 357
#     4   9  22  34  55  79 106 148 188 236 291 343
#
# _framework density 26.596886000000001
#
# number of rings (size 3 to 8) (size 9 to 14) (size 15 to 20)
#    0.857    1.143    1.429    1.714   12.000    0.000 
#    0.000    0.000    0.000    2.571    0.000    0.000 
#    0.000    3.429    0.000    0.000    0.000    0.000 
#
# Total GULP energy -156162.823430 kJ/mol
# GULP energy per Si atom -5577.243694 kJ/mol
# Density = 2.653635 g / cm^3
# Si number density = 26.596886 Si / 1000 Ang^3
#
#
#
# Elastic Constant Matrix: (Units=GPa)
#
#
# Indices 1 2 3 4 5 6 
#
# 1 100.8532 9.7265 27.7921 0.0000 0.0000 0.0000
# 2 9.7265 75.4536 3.4710 0.0000 0.0000 0.0000
# 3 27.7921 3.4710 91.3730 0.0000 0.0000 0.0000
# 4 0.0000 0.0000 0.0000 9.8817 0.0000 0.0000
# 5 0.0000 0.0000 0.0000 0.0000 -58.2931 0.0000
# 6 0.0000 0.0000 0.0000 0.0000 0.0000 28.3636
#
#
#
# Elastic Compliance Matrix: (Units=1/GPa)
#
#
# Indices 1 2 3 4 5 6 
#
# 1 0.010941 -0.001259 -0.003280 0.000000 0.000000 0.000000
# 2 -0.001259 0.013421 -0.000127 0.000000 0.000000 0.000000
# 3 -0.003280 -0.000127 0.011947 0.000000 0.000000 0.000000
# 4 0.000000 0.000000 0.000000 0.101197 0.000000 0.000000
# 5 0.000000 0.000000 0.000000 0.000000 -0.017155 0.000000
# 6 0.000000 0.000000 0.000000 0.000000 0.000000 0.035256
#
#
# Mechanical properties :
#
#
# Convention : Reuss Voigt Hill
#
# Bulk Modulus (GPa) = 37.06941 38.85102 37.96021
# Shear Modulus (GPa) = 28.74691 11.10314 19.92503
#
# Velocity S-wave (km/s) = 3.29118 2.04540 2.74003
# Velocity P-wave (km/s) = 5.33012 4.49636 4.93090
#
# Compressibility (1/GPa) = 0.02697642
#
# Stress axis : x y z
#
# Youngs Moduli (GPa) = 91.40178 74.50812 83.70594
#
# Poissons Ratio (x) = 0.09384 0.27455
# Poissons Ratio (y) = 0.11512 0.01061
# Poissons Ratio (z) = 0.29979 0.00944
#
# Static dielectric constant tensor:
#      x y z
#    x 2.057130 0.000000 0.000000 
#    y 0.000000 2.175680 0.000000 
#    z 0.000000 0.000000 2.427440 
# 
# From -- ./inp_files/627.got.cif
#   From: 2010.05.17/outbox.cif.g08.bks.cpg/sg45_1_cif.got.tgz:627.got - 2010.06.03 19:51:22.
