data_PCOD9376596
_publ_section_title
;
Structure prediction by ZEFSAII (Michael W. Deem and Ramdas Pophale) SiO2 
 PCOD9376596
Probable space group: I B A 2
;
_chemical_formula_sum "Si O2"
_cell_formula_units_Z 64
_cell_length_a 31.135398
_cell_length_b 7.683121
_cell_length_c 13.588497
_cell_angle_alpha 90.000000
_cell_angle_beta 90.000000
_cell_angle_gamma 90.000000
_cell_volume 3250.599897
_symmetry_space_group_name_H-M "I B A 2"
_symmetry_group_IT_number 45
_symmetry_cell_setting 'orthorhombic'
loop_
_space_group_symop_operation_xyz
x,y,z
-x,-y,z
-x,y,1/2+z
x,-y,1/2+z
1/2+x,1/2+y,1/2+z
1/2-x,1/2-y,1/2+z
1/2-x,1/2+y,z
1/2+x,1/2-y,z
loop_
_atom_site_type_symbol
_atom_site_label
_atom_site_fract_x
_atom_site_fract_y
_atom_site_fract_z
Si Si1 0.519798 0.679742 0.206960
Si Si2 0.300297 0.592299 0.032906
Si Si3 0.018824 0.696148 0.411630
Si Si4 0.436723 0.262531 0.023684
Si Si5 0.348898 0.224674 0.693568
Si Si6 0.655456 0.281213 0.425998
Si Si7 0.439735 0.137583 0.601719
Si Si8 0.796744 0.520507 0.046076
O O1 0.500000 0.500000 0.241938
O O2 0.536909 0.770280 0.304264
O O3 0.553352 0.630086 0.122027
O O4 0.482068 0.800981 0.160961
O O5 0.320316 0.456884 0.957467
O O6 0.252308 0.534719 0.060592
O O7 0.298170 0.790437 0.993512
O O8 0.329595 0.613622 0.130739
O O9 0.976153 0.795524 0.448829
O O10 0.000000 0.500000 0.412760
O O11 0.054580 0.724708 0.494555
O O12 0.438227 0.066496 0.071420
O O13 0.392723 0.289666 0.968196
O O14 0.344766 0.249607 0.809396
O O15 0.397632 0.190285 0.660361
O O16 0.320972 0.063663 0.648758
O O17 0.678838 0.123380 0.483033
#
# Coordination Sequence:
#
# PCOD9376596 Si02
#       8
#     8   8   8   8   8   8   8   8
#     4  11  23  35  56  90 125 167 208 259 321 380
#     4  10  23  45  66 100 136 166 216 270 319 393
#     4   9  19  37  62  83 118 170 212 257 319 376
#     4  10  21  39  63  85 121 168 209 270 310 375
#     4  10  24  42  67  99 127 172 216 269 320 393
#     4  12  22  44  70  95 134 173 216 266 333 381
#     4  10  20  42  60  86 127 156 221 269 300 386
#     4  10  22  46  66  98 136 166 213 274 318 392
#
# _framework density 19.688673999999999
#
# number of rings (size 3 to 8) (size 9 to 14) (size 15 to 20)
#    0.750    1.000    2.500    2.625    1.750    4.000 
#    4.500    0.000    0.000    0.000    0.000    0.000 
#    0.000    0.000    0.000    0.000    0.000    0.000 
#
# Total GULP energy -178397.302007 kJ/mol
# GULP energy per Si atom -5574.915688 kJ/mol
# Density = 1.964386 g / cm^3
# Si number density = 19.688674 Si / 1000 Ang^3
#
#
#
# Elastic Constant Matrix: (Units=GPa)
#
#
# Indices 1 2 3 4 5 6 
#
# 1 86.1973 10.8487 27.6443 0.0000 0.0000 0.0000
# 2 10.8487 65.3361 12.1437 0.0000 0.0000 0.0000
# 3 27.6443 12.1437 128.2481 0.0000 0.0000 0.0000
# 4 0.0000 0.0000 0.0000 19.4116 0.0000 0.0000
# 5 0.0000 0.0000 0.0000 0.0000 8.7299 0.0000
# 6 0.0000 0.0000 0.0000 0.0000 0.0000 16.2690
#
#
#
# Elastic Compliance Matrix: (Units=1/GPa)
#
#
# Indices 1 2 3 4 5 6 
#
# 1 0.012629 -0.001620 -0.002569 0.000000 0.000000 0.000000
# 2 -0.001620 0.015787 -0.001146 0.000000 0.000000 0.000000
# 3 -0.002569 -0.001146 0.008460 0.000000 0.000000 0.000000
# 4 0.000000 0.000000 0.000000 0.051516 0.000000 0.000000
# 5 0.000000 0.000000 0.000000 0.000000 0.114549 0.000000
# 6 0.000000 0.000000 0.000000 0.000000 0.000000 0.061467
#
#
# Mechanical properties :
#
#
# Convention : Reuss Voigt Hill
#
# Bulk Modulus (GPa) = 38.15690 42.33944 40.24817
# Shear Modulus (GPa) = 17.61733 24.15841 20.88787
#
# Velocity S-wave (km/s) = 2.99456 3.50669 3.26069
# Velocity P-wave (km/s) = 5.60167 6.16011 5.88751
#
# Compressibility (1/GPa) = 0.02620758
#
# Stress axis : x y z
#
# Youngs Moduli (GPa) = 79.18294 63.34188 118.20881
#
# Poissons Ratio (x) = 0.10258 0.30366
# Poissons Ratio (y) = 0.12824 0.13544
# Poissons Ratio (z) = 0.20341 0.07258
#
# Static dielectric constant tensor:
#      x y z
#    x 1.680260 0.000000 0.000000 
#    y 0.000000 1.755160 0.000000 
#    z 0.000000 0.000000 1.669790 
# 
# From -- ./inp_files/4970.got.cif
#   From: 2010.05.17/outbox.cif.g08.bks.cpg/sg45_3_cif.got.tgz:4970.got - 2010.06.03 19:51:22.
