data_PCOD9376878
_publ_section_title
;
Structure prediction by ZEFSAII (Michael W. Deem and Ramdas Pophale) SiO2 
 PCOD9376878
Probable space group: I B A 2
;
_chemical_formula_sum "Si O2"
_cell_formula_units_Z 48
_cell_length_a 6.687748
_cell_length_b 23.196713
_cell_length_c 13.107977
_cell_angle_alpha 90.000000
_cell_angle_beta 90.000000
_cell_angle_gamma 90.000000
_cell_volume 2033.489902
_symmetry_space_group_name_H-M "I B A 2"
_symmetry_group_IT_number 45
_symmetry_cell_setting 'orthorhombic'
loop_
_space_group_symop_operation_xyz
x,y,z
-x,-y,z
-x,y,1/2+z
x,-y,1/2+z
1/2+x,1/2+y,1/2+z
1/2-x,1/2-y,1/2+z
1/2-x,1/2+y,z
1/2+x,1/2-y,z
loop_
_atom_site_type_symbol
_atom_site_label
_atom_site_fract_x
_atom_site_fract_y
_atom_site_fract_z
Si Si1 0.259031 0.181965 0.323190
Si Si2 0.500000 0.000000 0.497330
Si Si3 0.900443 0.287713 0.689326
Si Si4 0.000000 0.000000 0.186526
Si Si5 0.328485 0.555314 0.358144
Si Si6 0.365672 0.581156 0.030083
Si Si7 0.424387 0.303944 0.046560
O O1 0.172624 0.231164 0.250286
O O2 0.483021 0.179232 0.278310
O O3 0.180260 0.118164 0.308718
O O4 0.194502 0.197898 0.438917
O O5 0.353906 0.041081 0.431882
O O6 0.343326 0.953100 0.546089
O O7 0.726605 0.323863 0.636047
O O8 0.011799 0.258306 0.591453
O O9 0.822853 0.989189 0.265375
O O10 0.012475 0.945385 0.114892
O O11 0.532008 0.559840 0.425042
O O12 0.393984 0.650196 0.034400
#
# Coordination Sequence:
#
# PCOD9376878 Si02
#       7
#     8   4   8   4   8   8   8
#     4  10  22  42  66  99 137 182 233 290 358 412
#     4  12  22  48  66  96 142 172 234 288 344 432
#     4  10  21  43  67 100 139 182 243 286 353 442
#     4  12  20  44  68  90 140 176 224 294 344 402
#     4  11  24  44  65 101 137 178 232 286 351 418
#     4  11  24  45  66 101 139 178 231 296 351 421
#     4  10  22  42  67  98 143 187 236 302 358 423
#
# _framework density 23.604738999999999
#
# number of rings (size 3 to 8) (size 9 to 14) (size 15 to 20)
#    0.000    1.333    3.333    2.000    0.000    2.000 
#   33.000    0.000    0.000    0.000    0.000    0.000 
#    0.000    0.000    0.000    0.000    0.000    0.000 
#
# Total GULP energy -133634.023866 kJ/mol
# GULP energy per Si atom -5568.084328 kJ/mol
# Density = 2.355101 g / cm^3
# Si number density = 23.604739 Si / 1000 Ang^3
#
#
#
# Elastic Constant Matrix: (Units=GPa)
#
#
# Indices 1 2 3 4 5 6 
#
# 1 84.2861 33.4397 38.3019 0.0000 0.0000 0.0000
# 2 33.4397 74.4625 47.2296 0.0000 0.0000 0.0000
# 3 38.3019 47.2296 113.6883 0.0000 0.0000 0.0000
# 4 0.0000 0.0000 0.0000 24.3708 0.0000 0.0000
# 5 0.0000 0.0000 0.0000 0.0000 38.6172 0.0000
# 6 0.0000 0.0000 0.0000 0.0000 0.0000 33.6380
#
#
#
# Elastic Compliance Matrix: (Units=1/GPa)
#
#
# Indices 1 2 3 4 5 6 
#
# 1 0.015202 -0.004859 -0.003103 0.000000 0.000000 0.000000
# 2 -0.004859 0.019787 -0.006583 0.000000 0.000000 0.000000
# 3 -0.003103 -0.006583 0.012576 0.000000 0.000000 0.000000
# 4 0.000000 0.000000 0.000000 0.041033 0.000000 0.000000
# 5 0.000000 0.000000 0.000000 0.000000 0.025895 0.000000
# 6 0.000000 0.000000 0.000000 0.000000 0.000000 0.029728
#
#
# Mechanical properties :
#
#
# Convention : Reuss Voigt Hill
#
# Bulk Modulus (GPa) = 54.12638 56.70881 55.41759
# Shear Modulus (GPa) = 27.85971 29.55625 28.70798
#
# Velocity S-wave (km/s) = 3.43922 3.54239 3.49118
# Velocity P-wave (km/s) = 6.22503 6.38810 6.30709
#
# Compressibility (1/GPa) = 0.01847528
#
# Stress axis : x y z
#
# Youngs Moduli (GPa) = 65.77999 50.53789 79.51442
#
# Poissons Ratio (x) = 0.24555 0.24675
# Poissons Ratio (y) = 0.31961 0.52346
# Poissons Ratio (z) = 0.20413 0.33270
#
# Static dielectric constant tensor:
#      x y z
#    x 2.129010 0.000000 0.000000 
#    y 0.000000 1.925960 0.000000 
#    z 0.000000 0.000000 1.888450 
# 
# From -- ./inp_files/3299.got.cif
#   From: 2010.05.17/outbox.cif.g08.bks.cpg/sg45_2_cif.got.tgz:3299.got - 2010.06.03 19:51:22.
