data_PCOD9376341
_publ_section_title
;
Structure prediction by ZEFSAII (Michael W. Deem and Ramdas Pophale) SiO2 
 PCOD9376341
Probable space group: I B A 2
;
_chemical_formula_sum "Si O2"
_cell_formula_units_Z 56
_cell_length_a 10.582286
_cell_length_b 16.374530
_cell_length_c 14.357716
_cell_angle_alpha 90.000000
_cell_angle_beta 90.000000
_cell_angle_gamma 90.000000
_cell_volume 2487.904448
_symmetry_space_group_name_H-M "I B A 2"
_symmetry_group_IT_number 45
_symmetry_cell_setting 'orthorhombic'
loop_
_space_group_symop_operation_xyz
x,y,z
-x,-y,z
-x,y,1/2+z
x,-y,1/2+z
1/2+x,1/2+y,1/2+z
1/2-x,1/2-y,1/2+z
1/2-x,1/2+y,z
1/2+x,1/2-y,z
loop_
_atom_site_type_symbol
_atom_site_label
_atom_site_fract_x
_atom_site_fract_y
_atom_site_fract_z
Si Si1 0.806557 0.801843 0.393720
Si Si2 0.397531 0.754001 0.741045
Si Si3 0.388479 0.190003 0.038890
Si Si4 0.238859 0.937438 0.441777
Si Si5 0.996962 0.085460 0.317795
Si Si6 0.123347 0.596420 0.490092
Si Si7 0.035351 0.415572 0.301667
O O1 0.721883 0.766331 0.310354
O O2 0.909870 0.745648 0.445966
O O3 0.713615 0.826779 0.476933
O O4 0.868694 0.884940 0.356492
O O5 0.366314 0.762002 0.632904
O O6 0.451470 0.665000 0.762933
O O7 0.497995 0.828377 0.758208
O O8 0.267159 0.138139 0.008858
O O9 0.504994 0.126004 0.050855
O O10 0.098245 0.933633 0.402988
O O11 0.326373 0.922717 0.348610
O O12 0.291705 0.015617 0.499084
O O13 0.000000 0.000000 0.263311
O O14 0.057672 0.581464 0.390471
O O15 0.000000 0.500000 0.247712
#
# Coordination Sequence:
#
# PCOD9376341 Si02
#       7
#     8   8   8   8   8   8   8
#     4  11  22  43  65  97 137 187 235 291 361 428
#     4  11  25  42  67 104 138 187 243 299 360 431
#     4  11  23  40  69  99 135 177 238 303 353 426
#     4  10  19  41  68  98 131 177 231 292 356 429
#     4  12  24  43  71  98 140 196 242 288 363 436
#     4   9  19  38  65  95 126 175 228 284 359 420
#     4   8  17  36  65  93 127 170 229 294 355 411
#
# _framework density 22.508904000000001
#
# number of rings (size 3 to 8) (size 9 to 14) (size 15 to 20)
#    0.000    1.714    2.857    3.857    0.000    2.286 
#    0.000    2.143    0.000    0.000    0.000    0.000 
#    0.000    0.000    0.000    0.000    0.000    0.000 
#
# Total GULP energy -156079.096527 kJ/mol
# GULP energy per Si atom -5574.253447 kJ/mol
# Density = 2.245767 g / cm^3
# Si number density = 22.508904 Si / 1000 Ang^3
#
#
#
# Elastic Constant Matrix: (Units=GPa)
#
#
# Indices 1 2 3 4 5 6 
#
# 1 77.0777 26.6453 11.2820 0.0000 0.0000 0.0000
# 2 26.6453 167.8524 45.8453 0.0000 0.0000 0.0000
# 3 11.2820 45.8453 89.1529 0.0000 0.0000 0.0000
# 4 0.0000 0.0000 0.0000 15.6203 0.0000 0.0000
# 5 0.0000 0.0000 0.0000 0.0000 8.4221 0.0000
# 6 0.0000 0.0000 0.0000 0.0000 0.0000 39.0696
#
#
#
# Elastic Compliance Matrix: (Units=1/GPa)
#
#
# Indices 1 2 3 4 5 6 
#
# 1 0.013767 -0.001989 -0.000719 0.000000 0.000000 0.000000
# 2 -0.001989 0.007218 -0.003460 0.000000 0.000000 0.000000
# 3 -0.000719 -0.003460 0.013087 0.000000 0.000000 0.000000
# 4 0.000000 0.000000 0.000000 0.064019 0.000000 0.000000
# 5 0.000000 0.000000 0.000000 0.000000 0.118735 0.000000
# 6 0.000000 0.000000 0.000000 0.000000 0.000000 0.025595
#
#
# Mechanical properties :
#
#
# Convention : Reuss Voigt Hill
#
# Bulk Modulus (GPa) = 46.00830 55.73648 50.87239
# Shear Modulus (GPa) = 19.08372 29.30979 24.19676
#
# Velocity S-wave (km/s) = 2.91491 3.61244 3.28225
# Velocity P-wave (km/s) = 5.64033 6.49733 6.08394
#
# Compressibility (1/GPa) = 0.02173521
#
# Stress axis : x y z
#
# Youngs Moduli (GPa) = 72.63873 138.53432 76.41118
#
# Poissons Ratio (x) = 0.27553 0.05497
# Poissons Ratio (y) = 0.14447 0.26440
# Poissons Ratio (z) = 0.05226 0.47936
#
# Static dielectric constant tensor:
#      x y z
#    x 1.956260 0.000000 0.000000 
#    y 0.000000 1.990500 0.000000 
#    z 0.000000 0.000000 1.808780 
# 
# From -- ./inp_files/6159.got.cif
#   From: 2010.05.17/outbox.cif.g08.bks.cpg/sg45_4_cif.got.tgz:6159.got - 2010.06.03 19:51:22.
