data_PCOD9376493
_publ_section_title
;
Structure prediction by ZEFSAII (Michael W. Deem and Ramdas Pophale) SiO2 
 PCOD9376493
Probable space group: I B A 2
;
_chemical_formula_sum "Si O2"
_cell_formula_units_Z 64
_cell_length_a 23.794664
_cell_length_b 13.893886
_cell_length_c 8.310792
_cell_angle_alpha 90.000000
_cell_angle_beta 90.000000
_cell_angle_gamma 90.000000
_cell_volume 2747.550736
_symmetry_space_group_name_H-M "I B A 2"
_symmetry_group_IT_number 45
_symmetry_cell_setting 'orthorhombic'
loop_
_space_group_symop_operation_xyz
x,y,z
-x,-y,z
-x,y,1/2+z
x,-y,1/2+z
1/2+x,1/2+y,1/2+z
1/2-x,1/2-y,1/2+z
1/2-x,1/2+y,z
1/2+x,1/2-y,z
loop_
_atom_site_type_symbol
_atom_site_label
_atom_site_fract_x
_atom_site_fract_y
_atom_site_fract_z
Si Si1 0.386513 0.148932 0.148020
Si Si2 0.722990 0.920579 0.729468
Si Si3 0.809983 0.249395 0.894298
Si Si4 0.421482 0.305076 0.711655
Si Si5 0.038232 0.211273 0.850918
Si Si6 0.316930 0.453240 0.005735
Si Si7 0.355018 0.973065 0.958895
Si Si8 0.898136 0.968276 0.762815
O O1 0.432019 0.226027 0.210292
O O2 0.374950 0.094602 0.316425
O O3 0.334476 0.202919 0.058668
O O4 0.395947 0.058486 0.023739
O O5 0.734914 0.815212 0.800954
O O6 0.771740 0.978858 0.640633
O O7 0.669785 0.916678 0.610123
O O8 0.699457 0.976020 0.882002
O O9 0.864065 0.238052 0.778977
O O10 0.790694 0.141149 0.925682
O O11 0.437711 0.272552 0.530734
O O12 0.472093 0.275000 0.829344
O O13 0.413889 0.421564 0.723673
O O14 0.052090 0.098676 0.820483
O O15 0.372323 0.420623 0.103829
O O16 0.346305 0.530059 0.890652
#
# Coordination Sequence:
#
# PCOD9376493 Si02
#       8
#     8   8   8   8   8   8   8   8
#     4  10  20  39  67  93 128 171 216 282 338 400
#     4  10  20  38  61  89 124 173 221 270 331 398
#     4  10  22  40  60  94 133 168 226 283 328 403
#     4  11  25  40  65  97 133 177 223 274 339 404
#     4  12  23  40  67  95 131 181 224 275 338 418
#     4  11  22  39  59  94 133 175 221 274 334 396
#     4   9  20  38  64  91 124 170 218 275 340 390
#     4  11  23  40  62  93 138 175 219 276 330 403
#
# _framework density 23.293472999999999
#
# number of rings (size 3 to 8) (size 9 to 14) (size 15 to 20)
#    0.000    1.500    2.500    2.625    1.750    2.000 
#    2.250    2.500    0.000   25.500    0.000    0.000 
#    0.000    0.000    0.000    0.000    0.000    0.000 
#
# Total GULP energy -178420.655407 kJ/mol
# GULP energy per Si atom -5575.645481 kJ/mol
# Density = 2.324046 g / cm^3
# Si number density = 23.293473 Si / 1000 Ang^3
#
#
#
# Elastic Constant Matrix: (Units=GPa)
#
#
# Indices 1 2 3 4 5 6 
#
# 1 43.4459 6.9516 16.4633 0.0000 0.0000 0.0000
# 2 6.9516 66.8542 25.2064 0.0000 0.0000 0.0000
# 3 16.4633 25.2064 110.0384 0.0000 0.0000 0.0000
# 4 0.0000 0.0000 0.0000 32.5478 0.0000 0.0000
# 5 0.0000 0.0000 0.0000 0.0000 33.5717 0.0000
# 6 0.0000 0.0000 0.0000 0.0000 0.0000 11.7011
#
#
#
# Elastic Compliance Matrix: (Units=1/GPa)
#
#
# Indices 1 2 3 4 5 6 
#
# 1 0.024499 -0.001276 -0.003373 0.000000 0.000000 0.000000
# 2 -0.001276 0.016438 -0.003575 0.000000 0.000000 0.000000
# 3 -0.003373 -0.003575 0.010411 0.000000 0.000000 0.000000
# 4 0.000000 0.000000 0.000000 0.030724 0.000000 0.000000
# 5 0.000000 0.000000 0.000000 0.000000 0.029787 0.000000
# 6 0.000000 0.000000 0.000000 0.000000 0.000000 0.085462
#
#
# Mechanical properties :
#
#
# Convention : Reuss Voigt Hill
#
# Bulk Modulus (GPa) = 28.65168 35.28678 31.96923
# Shear Modulus (GPa) = 22.18245 27.01193 24.59719
#
# Velocity S-wave (km/s) = 3.08929 3.40904 3.25309
# Velocity P-wave (km/s) = 5.00519 5.53869 5.27868
#
# Compressibility (1/GPa) = 0.03490196
#
# Stress axis : x y z
#
# Youngs Moduli (GPa) = 40.81718 60.83333 96.04973
#
# Poissons Ratio (x) = 0.07760 0.32400
# Poissons Ratio (y) = 0.05207 0.34335
# Poissons Ratio (z) = 0.13769 0.21746
#
# Static dielectric constant tensor:
#      x y z
#    x 1.891030 0.000000 0.000000 
#    y 0.000000 1.915970 0.000000 
#    z 0.000000 0.000000 1.928810 
# 
# From -- ./inp_files/1925.got.cif
#   From: 2010.05.17/outbox.cif.g08.bks.cpg/sg45_1_cif.got.tgz:1925.got - 2010.06.03 19:51:22.
