data_PCOD9376585
_publ_section_title
;
Structure prediction by ZEFSAII (Michael W. Deem and Ramdas Pophale) SiO2 
 PCOD9376585
Probable space group: I B A 2
;
_chemical_formula_sum "Si O2"
_cell_formula_units_Z 60
_cell_length_a 17.967412
_cell_length_b 8.606481
_cell_length_c 19.959669
_cell_angle_alpha 90.000000
_cell_angle_beta 90.000000
_cell_angle_gamma 90.000000
_cell_volume 3086.487168
_symmetry_space_group_name_H-M "I B A 2"
_symmetry_group_IT_number 45
_symmetry_cell_setting 'orthorhombic'
loop_
_space_group_symop_operation_xyz
x,y,z
-x,-y,z
-x,y,1/2+z
x,-y,1/2+z
1/2+x,1/2+y,1/2+z
1/2-x,1/2-y,1/2+z
1/2-x,1/2+y,z
1/2+x,1/2-y,z
loop_
_atom_site_type_symbol
_atom_site_label
_atom_site_fract_x
_atom_site_fract_y
_atom_site_fract_z
Si Si1 0.833407 0.054868 0.438880
Si Si2 0.828401 0.092018 0.154731
Si Si3 0.466418 0.257108 0.108010
Si Si4 0.203866 0.572227 0.759010
Si Si5 0.748298 0.694894 0.855337
Si Si6 0.217380 0.793567 0.574543
Si Si7 0.500000 0.500000 0.991507
Si Si8 0.606124 0.069362 0.127700
O O1 0.807882 0.183604 0.384741
O O2 0.792231 0.114592 0.506051
O O3 0.922096 0.035567 0.452620
O O4 0.795855 0.895696 0.413429
O O5 0.914681 0.134038 0.153859
O O6 0.782998 0.108928 0.223027
O O7 0.792761 0.215041 0.101244
O O8 0.810449 0.918842 0.129365
O O9 0.543198 0.198673 0.139363
O O10 0.425677 0.090873 0.099639
O O11 0.482551 0.353826 0.040645
O O12 0.211014 0.427420 0.807725
O O13 0.189490 0.716644 0.807620
O O14 0.148768 0.543990 0.697475
O O15 0.162167 0.646901 0.575337
#
# Coordination Sequence:
#
# PCOD9376585 Si02
#       8
#     8   8   8   8   8   8   4   8
#     4  11  23  43  63  90 127 169 219 261 308 381
#     4  11  20  33  64  93 124 154 199 262 334 371
#     4  11  21  37  57  96 127 162 187 253 343 393
#     4  10  20  41  61  91 123 156 215 265 299 376
#     4  10  23  41  65  86 120 177 222 257 295 362
#     4  11  20  36  58  95 121 159 201 264 317 378
#     4  12  24  44  60  90 144 160 206 266 326 400
#     4  10  21  37  61  92 129 156 198 254 334 384
#
# _framework density 19.439575999999999
#
# number of rings (size 3 to 8) (size 9 to 14) (size 15 to 20)
#    0.000    1.333    2.667    4.800    0.000    0.000 
#    2.400    5.333    0.000    0.000    0.000    0.000 
#    0.000    0.000    0.000    0.000    0.000    0.000 
#
# Total GULP energy -167331.776787 kJ/mol
# GULP energy per Si atom -5577.725893 kJ/mol
# Density = 1.939533 g / cm^3
# Si number density = 19.439576 Si / 1000 Ang^3
#
#
#
# Elastic Constant Matrix: (Units=GPa)
#
#
# Indices 1 2 3 4 5 6 
#
# 1 107.8511 33.3703 25.1386 0.0000 0.0000 0.0000
# 2 33.3703 92.9571 36.6766 0.0000 0.0000 0.0000
# 3 25.1386 36.6766 81.2998 0.0000 0.0000 0.0000
# 4 0.0000 0.0000 0.0000 35.2828 0.0000 0.0000
# 5 0.0000 0.0000 0.0000 0.0000 14.4381 0.0000
# 6 0.0000 0.0000 0.0000 0.0000 0.0000 31.1384
#
#
#
# Elastic Compliance Matrix: (Units=1/GPa)
#
#
# Indices 1 2 3 4 5 6 
#
# 1 0.010669 -0.003076 -0.001911 0.000000 0.000000 0.000000
# 2 -0.003076 0.013974 -0.005353 0.000000 0.000000 0.000000
# 3 -0.001911 -0.005353 0.015306 0.000000 0.000000 0.000000
# 4 0.000000 0.000000 0.000000 0.028342 0.000000 0.000000
# 5 0.000000 0.000000 0.000000 0.000000 0.069261 0.000000
# 6 0.000000 0.000000 0.000000 0.000000 0.000000 0.032115
#
#
# Mechanical properties :
#
#
# Convention : Reuss Voigt Hill
#
# Bulk Modulus (GPa) = 51.89763 52.49764 52.19763
# Shear Modulus (GPa) = 25.41029 28.63338 27.02183
#
# Velocity S-wave (km/s) = 3.61936 3.84206 3.73237
# Velocity P-wave (km/s) = 6.64991 6.83711 6.74416
#
# Compressibility (1/GPa) = 0.01926870
#
# Stress axis : x y z
#
# Youngs Moduli (GPa) = 93.72682 71.56203 65.33386
#
# Poissons Ratio (x) = 0.22012 0.12488
# Poissons Ratio (y) = 0.28830 0.34972
# Poissons Ratio (z) = 0.17915 0.38306
#
# Static dielectric constant tensor:
#      x y z
#    x 1.743740 0.000000 0.000000 
#    y 0.000000 1.721260 0.000000 
#    z 0.000000 0.000000 1.672030 
# 
# From -- ./inp_files/8355.got.cif
#   From: 2010.05.17/outbox.cif.g08.bks.cpg/sg45_5_cif.got.tgz:8355.got - 2010.06.03 19:51:22.
