data_PCOD9376353
_publ_section_title
;
Structure prediction by ZEFSAII (Michael W. Deem and Ramdas Pophale) SiO2 
 PCOD9376353
Probable space group: I B A 2
;
_chemical_formula_sum "Si O2"
_cell_formula_units_Z 64
_cell_length_a 18.826813
_cell_length_b 21.208606
_cell_length_c 9.017863
_cell_angle_alpha 90.000000
_cell_angle_beta 90.000000
_cell_angle_gamma 90.000000
_cell_volume 3600.746658
_symmetry_space_group_name_H-M "I B A 2"
_symmetry_group_IT_number 45
_symmetry_cell_setting 'orthorhombic'
loop_
_space_group_symop_operation_xyz
x,y,z
-x,-y,z
-x,y,1/2+z
x,-y,1/2+z
1/2+x,1/2+y,1/2+z
1/2-x,1/2-y,1/2+z
1/2-x,1/2+y,z
1/2+x,1/2-y,z
loop_
_atom_site_type_symbol
_atom_site_label
_atom_site_fract_x
_atom_site_fract_y
_atom_site_fract_z
Si Si1 0.955239 0.941991 0.156230
Si Si2 0.931872 0.830992 0.614586
Si Si3 0.501176 0.752554 0.864028
Si Si4 0.197173 0.078710 0.651620
Si Si5 0.432160 0.047597 0.038059
Si Si6 0.141676 0.555505 0.718346
Si Si7 0.461953 0.155516 0.609268
Si Si8 0.630903 0.488508 0.395522
O O1 0.903664 0.931856 0.296986
O O2 0.008876 0.886856 0.113724
O O3 0.000000 0.000000 0.219583
O O4 0.917089 0.972124 0.012552
O O5 0.952266 0.790967 0.760512
O O6 0.853110 0.860229 0.627686
O O7 0.947564 0.788399 0.470136
O O8 0.539950 0.800737 0.753835
O O9 0.456964 0.797218 0.972856
O O10 0.277390 0.077836 0.708203
O O11 0.192281 0.041256 0.496309
O O12 0.156549 0.037604 0.774370
O O13 0.466062 0.113184 0.096569
O O14 0.500000 0.000000 0.018435
O O15 0.377939 0.013098 0.150535
O O16 0.392779 0.057370 0.881862
O O17 0.099612 0.604956 0.617001
#
# Coordination Sequence:
#
# PCOD9376353 Si02
#       8
#     8   8   8   8   8   8   8   8
#     4  11  19  31  57  80 108 147 198 244 288 320
#     4  11  21  34  56  82 114 151 195 241 280 330
#     4  10  22  37  59  84 106 150 208 242 274 320
#     4  11  22  35  51  83 127 153 179 230 293 372
#     4  10  20  36  64  92 113 141 190 244 304 344
#     4  11  22  36  59  91 116 150 180 229 311 372
#     4  10  20  40  62  83 111 143 193 256 282 330
#     4  10  20  32  51  80 119 149 185 224 292 345
#
# _framework density 17.774093000000001
#
# number of rings (size 3 to 8) (size 9 to 14) (size 15 to 20)
#    0.000    1.500    3.750    3.750    1.750    0.000 
#    0.000    1.250    0.000    0.000    0.000    0.000 
#    0.000    0.000    0.000    0.000    0.000    0.000 
#
# Total GULP energy -178287.417850 kJ/mol
# GULP energy per Si atom -5571.481808 kJ/mol
# Density = 1.773364 g / cm^3
# Si number density = 17.774093 Si / 1000 Ang^3
#
#
#
# Elastic Constant Matrix: (Units=GPa)
#
#
# Indices 1 2 3 4 5 6 
#
# 1 90.8646 29.0348 26.6604 0.0000 0.0000 0.0000
# 2 29.0348 90.1423 32.0707 0.0000 0.0000 0.0000
# 3 26.6604 32.0707 95.3299 0.0000 0.0000 0.0000
# 4 0.0000 0.0000 0.0000 26.0008 0.0000 0.0000
# 5 0.0000 0.0000 0.0000 0.0000 19.9329 0.0000
# 6 0.0000 0.0000 0.0000 0.0000 0.0000 13.2361
#
#
#
# Elastic Compliance Matrix: (Units=1/GPa)
#
#
# Indices 1 2 3 4 5 6 
#
# 1 0.012766 -0.003228 -0.002484 0.000000 0.000000 0.000000
# 2 -0.003228 0.013418 -0.003611 0.000000 0.000000 0.000000
# 3 -0.002484 -0.003611 0.012400 0.000000 0.000000 0.000000
# 4 0.000000 0.000000 0.000000 0.038460 0.000000 0.000000
# 5 0.000000 0.000000 0.000000 0.000000 0.050168 0.000000
# 6 0.000000 0.000000 0.000000 0.000000 0.000000 0.075551
#
#
# Mechanical properties :
#
#
# Convention : Reuss Voigt Hill
#
# Bulk Modulus (GPa) = 50.15958 50.20763 50.18361
# Shear Modulus (GPa) = 21.92446 24.40534 23.16490
#
# Velocity S-wave (km/s) = 3.51594 3.70954 3.61404
# Velocity P-wave (km/s) = 6.69062 6.83056 6.76095
#
# Compressibility (1/GPa) = 0.01993637
#
# Stress axis : x y z
#
# Youngs Moduli (GPa) = 78.33468 74.52585 80.64813
#
# Poissons Ratio (x) = 0.24057 0.20034
# Poissons Ratio (y) = 0.25287 0.29125
# Poissons Ratio (z) = 0.19460 0.26914
#
# Static dielectric constant tensor:
#      x y z
#    x 1.635010 0.000000 0.000000 
#    y 0.000000 1.620960 0.000000 
#    z 0.000000 0.000000 1.651690 
# 
# From -- ./inp_files/2195.got.cif
#   From: 2010.05.17/outbox.cif.g08.bks.cpg/sg45_2_cif.got.tgz:2195.got - 2010.06.03 19:51:22.
