data_PCOD9376717
_publ_section_title
;
Structure prediction by ZEFSAII (Michael W. Deem and Ramdas Pophale) SiO2 
 PCOD9376717
Probable space group: I B A 2
;
_chemical_formula_sum "Si O2"
_cell_formula_units_Z 52
_cell_length_a 13.594918
_cell_length_b 9.210213
_cell_length_c 19.435095
_cell_angle_alpha 90.000000
_cell_angle_beta 90.000000
_cell_angle_gamma 90.000000
_cell_volume 2433.508874
_symmetry_space_group_name_H-M "I B A 2"
_symmetry_group_IT_number 45
_symmetry_cell_setting 'orthorhombic'
loop_
_space_group_symop_operation_xyz
x,y,z
-x,-y,z
-x,y,1/2+z
x,-y,1/2+z
1/2+x,1/2+y,1/2+z
1/2-x,1/2-y,1/2+z
1/2-x,1/2+y,z
1/2+x,1/2-y,z
loop_
_atom_site_type_symbol
_atom_site_label
_atom_site_fract_x
_atom_site_fract_y
_atom_site_fract_z
Si Si1 0.842395 0.660646 0.933880
Si Si2 0.000000 0.000000 0.456870
Si Si3 0.116449 0.858259 0.073538
Si Si4 0.270830 0.905392 0.520179
Si Si5 0.497449 0.829742 0.825269
Si Si6 0.841177 0.094323 0.842429
Si Si7 0.592415 0.600998 0.234165
O O1 0.945687 0.694635 0.899056
O O2 0.762240 0.634268 0.874627
O O3 0.796996 0.791430 0.978270
O O4 0.840696 0.508823 0.974801
O O5 0.031968 0.121046 0.515271
O O6 0.091513 0.016572 0.402289
O O7 0.163623 0.699408 0.066684
O O8 0.092464 0.885897 0.152764
O O9 0.197426 0.981111 0.055539
O O10 0.599734 0.742012 0.824517
O O11 0.428523 0.754211 0.768762
O O12 0.500000 0.000000 0.813936
O O13 0.826302 0.987064 0.777447
O O14 0.500000 0.500000 0.253270
#
# Coordination Sequence:
#
# PCOD9376717 Si02
#       7
#     8   4   8   8   8   8   8
#     4  11  21  39  63  97 127 159 205 273 311 357
#     4  12  18  38  72  88 116 168 222 238 306 380
#     4  11  23  39  67  89 124 170 203 256 315 373
#     4  10  21  38  61  93 127 153 213 256 308 374
#     4  11  23  37  62  93 129 153 205 271 313 359
#     4  11  21  40  68  92 120 170 216 246 311 388
#     4  10  22  42  61  86 123 171 208 241 311 395
#
# _framework density 21.368321000000002
#
# number of rings (size 3 to 8) (size 9 to 14) (size 15 to 20)
#    0.000    1.231    6.154    2.769    0.000    1.231 
#    0.000    7.692    0.000    0.000    0.000    0.000 
#    0.000    0.000    0.000    0.000    0.000    0.000 
#
# Total GULP energy -145076.615287 kJ/mol
# GULP energy per Si atom -5579.869819 kJ/mol
# Density = 2.131969 g / cm^3
# Si number density = 21.368321 Si / 1000 Ang^3
#
#
#
# Elastic Constant Matrix: (Units=GPa)
#
#
# Indices 1 2 3 4 5 6 
#
# 1 30.5493 9.3487 7.6440 0.0000 0.0000 0.0000
# 2 9.3487 145.5351 40.3117 0.0000 0.0000 0.0000
# 3 7.6440 40.3117 126.0431 0.0000 0.0000 0.0000
# 4 0.0000 0.0000 0.0000 29.8711 0.0000 0.0000
# 5 0.0000 0.0000 0.0000 0.0000 23.1129 0.0000
# 6 0.0000 0.0000 0.0000 0.0000 0.0000 19.1610
#
#
#
# Elastic Compliance Matrix: (Units=1/GPa)
#
#
# Indices 1 2 3 4 5 6 
#
# 1 0.033640 -0.001751 -0.001480 0.000000 0.000000 0.000000
# 2 -0.001751 0.007630 -0.002334 0.000000 0.000000 0.000000
# 3 -0.001480 -0.002334 0.008770 0.000000 0.000000 0.000000
# 4 0.000000 0.000000 0.000000 0.033477 0.000000 0.000000
# 5 0.000000 0.000000 0.000000 0.000000 0.043266 0.000000
# 6 0.000000 0.000000 0.000000 0.000000 0.000000 0.052189
#
#
# Mechanical properties :
#
#
# Convention : Reuss Voigt Hill
#
# Bulk Modulus (GPa) = 25.70035 46.30404 36.00220
# Shear Modulus (GPa) = 24.62165 30.75055 27.68610
#
# Velocity S-wave (km/s) = 3.39816 3.79763 3.60343
# Velocity P-wave (km/s) = 5.23929 6.39889 5.84790
#
# Compressibility (1/GPa) = 0.03890998
#
# Stress axis : x y z
#
# Youngs Moduli (GPa) = 29.72636 131.05818 114.02412
#
# Poissons Ratio (x) = 0.22948 0.16877
# Poissons Ratio (y) = 0.05205 0.26615
# Poissons Ratio (z) = 0.04400 0.30591
#
# Static dielectric constant tensor:
#      x y z
#    x 1.835410 0.000000 0.000000 
#    y 0.000000 1.843550 0.000000 
#    z 0.000000 0.000000 1.772360 
# 
# From -- ./inp_files/8827.got.cif
#   From: 2010.05.17/outbox.cif.g08.bks.cpg/sg45_5_cif.got.tgz:8827.got - 2010.06.03 19:51:22.
