data_PCOD9376554
_publ_section_title
;
Structure prediction by ZEFSAII (Michael W. Deem and Ramdas Pophale) SiO2 
 PCOD9376554
Probable space group: I B A 2
;
_chemical_formula_sum "Si O2"
_cell_formula_units_Z 60
_cell_length_a 24.120747
_cell_length_b 13.769909
_cell_length_c 8.737387
_cell_angle_alpha 90.000000
_cell_angle_beta 90.000000
_cell_angle_gamma 90.000000
_cell_volume 2902.040010
_symmetry_space_group_name_H-M "I B A 2"
_symmetry_group_IT_number 45
_symmetry_cell_setting 'orthorhombic'
loop_
_space_group_symop_operation_xyz
x,y,z
-x,-y,z
-x,y,1/2+z
x,-y,1/2+z
1/2+x,1/2+y,1/2+z
1/2-x,1/2-y,1/2+z
1/2-x,1/2+y,z
1/2+x,1/2-y,z
loop_
_atom_site_type_symbol
_atom_site_label
_atom_site_fract_x
_atom_site_fract_y
_atom_site_fract_z
Si Si1 0.402886 0.192926 0.537410
Si Si2 0.251219 0.984624 0.584065
Si Si3 0.218495 0.187743 0.611451
Si Si4 0.000000 0.500000 0.258033
Si Si5 0.691103 0.296566 0.953325
Si Si6 0.332076 0.970177 0.851969
Si Si7 0.864160 0.302592 0.888779
Si Si8 0.531253 0.860366 0.016681
O O1 0.375013 0.285925 0.458192
O O2 0.384816 0.210581 0.714108
O O3 0.469122 0.180361 0.532312
O O4 0.375587 0.101941 0.438416
O O5 0.216376 0.893841 0.525635
O O6 0.273318 0.038859 0.434499
O O7 0.214515 0.072665 0.649428
O O8 0.307992 0.959517 0.678951
O O9 0.280789 0.217617 0.566096
O O10 0.206884 0.230126 0.779801
O O11 0.181836 0.235491 0.473911
O O12 0.969210 0.575201 0.363876
O O13 0.959738 0.438050 0.151513
O O14 0.346802 0.083650 0.879154
O O15 0.917802 0.290031 0.998328
#
# Coordination Sequence:
#
# PCOD9376554 Si02
#       8
#     8   8   8   4   8   8   8   8
#     4  12  26  40  64  92 130 175 219 264 322 391
#     4  12  24  42  64  94 132 167 214 267 325 384
#     4  12  25  42  64  93 127 170 215 267 328 391
#     4  10  20  40  60  86 128 168 210 254 320 382
#     4  12  25  41  64  94 126 171 215 268 325 391
#     4  12  22  40  64  92 130 171 205 259 320 388
#     4  12  26  41  63  92 130 176 218 263 325 389
#     4  11  24  40  59  90 131 171 219 267 319 394
#
# _framework density 20.67511
#
# number of rings (size 3 to 8) (size 9 to 14) (size 15 to 20)
#    0.000    0.267    6.667    3.200    3.733    0.000 
#    0.000    0.000    0.000    0.800    0.000    3.733 
#    0.000    0.000    0.000    0.000    0.000    0.000 
#
# Total GULP energy -167035.201127 kJ/mol
# GULP energy per Si atom -5567.840038 kJ/mol
# Density = 2.062805 g / cm^3
# Si number density = 20.675110 Si / 1000 Ang^3
#
#
#
# Elastic Constant Matrix: (Units=GPa)
#
#
# Indices 1 2 3 4 5 6 
#
# 1 113.8259 28.6951 20.1861 0.0000 0.0000 0.0000
# 2 28.6951 74.3581 5.9117 0.0000 0.0000 0.0000
# 3 20.1861 5.9117 108.7249 0.0000 0.0000 0.0000
# 4 0.0000 0.0000 0.0000 19.2395 0.0000 0.0000
# 5 0.0000 0.0000 0.0000 0.0000 25.4065 0.0000
# 6 0.0000 0.0000 0.0000 0.0000 0.0000 9.0881
#
#
#
# Elastic Compliance Matrix: (Units=1/GPa)
#
#
# Indices 1 2 3 4 5 6 
#
# 1 0.010021 -0.003735 -0.001657 0.000000 0.000000 0.000000
# 2 -0.003735 0.014899 -0.000117 0.000000 0.000000 0.000000
# 3 -0.001657 -0.000117 0.009512 0.000000 0.000000 0.000000
# 4 0.000000 0.000000 0.000000 0.051976 0.000000 0.000000
# 5 0.000000 0.000000 0.000000 0.000000 0.039360 0.000000
# 6 0.000000 0.000000 0.000000 0.000000 0.000000 0.110034
#
#
# Mechanical properties :
#
#
# Convention : Reuss Voigt Hill
#
# Bulk Modulus (GPa) = 42.71132 45.16607 43.93869
# Shear Modulus (GPa) = 19.63670 26.88790 23.26230
#
# Velocity S-wave (km/s) = 3.08518 3.61015 3.35794
# Velocity P-wave (km/s) = 5.77878 6.26663 6.02764
#
# Compressibility (1/GPa) = 0.02341300
#
# Stress axis : x y z
#
# Youngs Moduli (GPa) = 99.79096 67.11773 105.13498
#
# Poissons Ratio (x) = 0.25071 0.17425
# Poissons Ratio (y) = 0.37276 0.01226
# Poissons Ratio (z) = 0.16539 0.00783
#
# Static dielectric constant tensor:
#      x y z
#    x 1.789520 0.000000 0.000000 
#    y 0.000000 1.826790 0.000000 
#    z 0.000000 0.000000 1.939500 
# 
# From -- ./inp_files/2660.got.cif
#   From: 2010.05.17/outbox.cif.g08.bks.cpg/sg45_2_cif.got.tgz:2660.got - 2010.06.03 19:51:22.
