data_PCOD9376264
_publ_section_title
;
Structure prediction by ZEFSAII (Michael W. Deem and Ramdas Pophale) SiO2 
 PCOD9376264
Probable space group: I B A 2
;
_chemical_formula_sum "Si O2"
_cell_formula_units_Z 64
_cell_length_a 5.450585
_cell_length_b 27.611738
_cell_length_c 22.300008
_cell_angle_alpha 90.000000
_cell_angle_beta 90.000000
_cell_angle_gamma 90.000000
_cell_volume 3356.153991
_symmetry_space_group_name_H-M "I B A 2"
_symmetry_group_IT_number 45
_symmetry_cell_setting 'orthorhombic'
loop_
_space_group_symop_operation_xyz
x,y,z
-x,-y,z
-x,y,1/2+z
x,-y,1/2+z
1/2+x,1/2+y,1/2+z
1/2-x,1/2-y,1/2+z
1/2-x,1/2+y,z
1/2+x,1/2-y,z
loop_
_atom_site_type_symbol
_atom_site_label
_atom_site_fract_x
_atom_site_fract_y
_atom_site_fract_z
Si Si1 0.000000 0.408582 0.740720
Si Si2 0.100081 0.949384 0.309737
Si Si3 0.652501 0.645195 0.150392
Si Si4 0.999999 0.219519 0.240720
Si Si5 0.600081 0.449384 0.171703
Si Si6 0.858094 0.720507 0.062068
Si Si7 0.358095 0.220507 0.419372
Si Si8 0.652501 0.645195 0.831048
O O1 0.883761 0.441854 0.793175
O O2 0.823151 0.373180 0.704515
O O3 0.116240 0.441854 0.688265
O O4 0.176850 0.373180 0.776925
O O5 0.000001 0.946920 0.240720
O O6 0.003687 0.902821 0.345791
O O7 0.000000 0.000000 0.334139
O O8 0.488652 0.685956 0.181905
O O9 0.496312 0.597179 0.135650
O O10 0.805268 0.671560 0.098906
O O11 0.749998 0.250000 0.240720
O O12 0.988650 0.185956 0.299535
O O13 0.500000 0.500000 0.147301
O O14 0.624131 0.755824 0.075429
O O15 0.851112 0.711368 0.990720
O O16 0.624131 0.244177 0.406011
O O17 0.305269 0.171560 0.382534
#
# Coordination Sequence:
#
# PCOD9376264 Si02
#       8
#     8   8   8   8   8   8   8   8
#     4  10  19  35  55  82 120 151 190 231 295 356
#     4   9  19  33  52  80 112 151 190 228 287 349
#     4  11  21  34  54  83 114 150 191 235 294 341
#     4  12  23  32  48  80 115 147 180 227 288 340
#     4   9  19  33  52  80 112 151 190 228 287 349
#     4  10  23  41  60  82 111 154 201 240 281 337
#     4  10  23  41  60  82 111 154 201 240 281 337
#     4  11  21  34  54  83 114 150 191 235 294 341
#
# _framework density 19.069445999999999
#
# number of rings (size 3 to 8) (size 9 to 14) (size 15 to 20)
#    0.000    1.750    3.750    2.250    3.500    8.000 
#    0.000    0.000    0.000    0.750    0.000    1.750 
#    0.000    0.000    0.000    0.000    0.000    0.000 
#
# Total GULP energy -178292.050695 kJ/mol
# GULP energy per Si atom -5571.626584 kJ/mol
# Density = 1.902604 g / cm^3
# Si number density = 19.069446 Si / 1000 Ang^3
#
#
#
# Elastic Constant Matrix: (Units=GPa)
#
#
# Indices 1 2 3 4 5 6 
#
# 1 92.2073 45.6646 8.1955 0.0000 0.0000 0.0000
# 2 45.6646 132.7231 27.3967 0.0000 0.0000 0.0000
# 3 8.1955 27.3967 35.7024 0.0000 0.0000 0.0000
# 4 0.0000 0.0000 0.0000 19.4192 0.0000 0.0000
# 5 0.0000 0.0000 0.0000 0.0000 17.7850 0.0000
# 6 0.0000 0.0000 0.0000 0.0000 0.0000 22.7661
#
#
#
# Elastic Compliance Matrix: (Units=1/GPa)
#
#
# Indices 1 2 3 4 5 6 
#
# 1 0.013081 -0.004611 0.000536 0.000000 0.000000 0.000000
# 2 -0.004611 0.010578 -0.007059 0.000000 0.000000 0.000000
# 3 0.000536 -0.007059 0.033303 0.000000 0.000000 0.000000
# 4 0.000000 0.000000 0.000000 0.051495 0.000000 0.000000
# 5 0.000000 0.000000 0.000000 0.000000 0.056227 0.000000
# 6 0.000000 0.000000 0.000000 0.000000 0.000000 0.043925
#
#
# Mechanical properties :
#
#
# Convention : Reuss Voigt Hill
#
# Bulk Modulus (GPa) = 28.82368 47.01627 37.91998
# Shear Modulus (GPa) = 20.62341 23.95246 22.28793
#
# Velocity S-wave (km/s) = 3.29217 3.54795 3.42245
# Velocity P-wave (km/s) = 5.44050 6.44148 5.96204
#
# Compressibility (1/GPa) = 0.03469369
#
# Stress axis : x y z
#
# Youngs Moduli (GPa) = 76.44554 94.53497 30.02737
#
# Poissons Ratio (x) = 0.43593 -0.01609
# Poissons Ratio (y) = 0.35251 0.21195
# Poissons Ratio (z) = -0.04095 0.66729
#
# Static dielectric constant tensor:
#      x y z
#    x 1.686800 0.000000 0.000000 
#    y 0.000000 1.725020 0.000000 
#    z 0.000000 0.000000 1.643990 
# 
# From -- ./inp_files/9481.got.cif
#   From: 2010.05.17/outbox.cif.g08.bks.cpg/sg45_5_cif.got.tgz:9481.got - 2010.06.03 19:51:22.
