data_PCOD9376650
_publ_section_title
;
Structure prediction by ZEFSAII (Michael W. Deem and Ramdas Pophale) SiO2 
 PCOD9376650
Probable space group: I B A 2
;
_chemical_formula_sum "Si O2"
_cell_formula_units_Z 40
_cell_length_a 28.292227
_cell_length_b 10.990070
_cell_length_c 5.072860
_cell_angle_alpha 90.000000
_cell_angle_beta 90.000000
_cell_angle_gamma 90.000000
_cell_volume 1577.322395
_symmetry_space_group_name_H-M "I B A 2"
_symmetry_group_IT_number 45
_symmetry_cell_setting 'orthorhombic'
loop_
_space_group_symop_operation_xyz
x,y,z
-x,-y,z
-x,y,1/2+z
x,-y,1/2+z
1/2+x,1/2+y,1/2+z
1/2-x,1/2-y,1/2+z
1/2-x,1/2+y,z
1/2+x,1/2-y,z
loop_
_atom_site_type_symbol
_atom_site_label
_atom_site_fract_x
_atom_site_fract_y
_atom_site_fract_z
Si Si1 0.789483 0.581949 0.606470
Si Si2 0.373082 0.763526 0.368485
Si Si3 0.473956 0.837230 0.439317
Si Si4 0.056419 0.082458 0.573281
Si Si5 0.816075 0.088172 0.540151
O O1 0.792952 0.467644 0.403473
O O2 0.831394 0.669886 0.520108
O O3 0.737648 0.638021 0.559769
O O4 0.419929 0.849002 0.336637
O O5 0.394705 0.654188 0.540314
O O6 0.352381 0.696122 0.111177
O O7 0.486927 0.880212 0.731829
O O8 0.478055 0.691132 0.486599
O O9 0.053400 0.977931 0.355537
O O10 0.819659 0.012677 0.272253
#
# Coordination Sequence:
#
# PCOD9376650 Si02
#       5
#     8   8   8   8   8
#     4  10  24  43  64  91 121 162 214 264 313 371
#     4  10  24  40  67  89 128 171 205 262 320 375
#     4  10  23  38  58  91 130 167 211 255 310 382
#     4  10  21  35  56  89 124 163 204 243 307 378
#     4  10  22  40  62  94 127 156 201 253 311 388
#
# _framework density 25.35943
#
# number of rings (size 3 to 8) (size 9 to 14) (size 15 to 20)
#    1.200    0.800    0.000    2.400    0.000   13.600 
#    0.000    0.000    0.000    3.600    0.000    0.000 
#    0.000    0.000    0.000    0.000    0.000    0.000 
#
# Total GULP energy -111798.782764 kJ/mol
# GULP energy per Si atom -5589.939138 kJ/mol
# Density = 2.530171 g / cm^3
# Si number density = 25.359430 Si / 1000 Ang^3
#
#
#
# Elastic Constant Matrix: (Units=GPa)
#
#
# Indices 1 2 3 4 5 6 
#
# 1 124.4241 33.2408 39.6798 0.0018 -0.0006 -0.0001
# 2 33.2408 63.4147 -3.0951 0.0010 -0.0007 -0.0001
# 3 39.6798 -3.0951 106.6588 -0.0010 0.0012 -0.0007
# 4 0.0018 0.0010 -0.0010 -49.1561 -0.0007 -0.0001
# 5 -0.0006 -0.0007 0.0012 -0.0007 34.7664 0.0000
# 6 -0.0001 -0.0001 -0.0007 -0.0001 0.0000 45.1346
#
#
#
# Elastic Compliance Matrix: (Units=1/GPa)
#
#
# Indices 1 2 3 4 5 6 
#
# 1 0.010991 -0.005969 -0.004262 0.000000 0.000000 0.000000
# 2 -0.005969 0.019034 0.002773 0.000000 0.000000 0.000000
# 3 -0.004262 0.002773 0.011042 0.000000 0.000000 0.000000
# 4 0.000000 0.000000 0.000000 -0.020343 0.000000 0.000000
# 5 0.000000 0.000000 0.000000 0.000000 0.028763 0.000000
# 6 0.000000 0.000000 0.000000 0.000000 0.000000 0.022156
#
#
# Mechanical properties :
#
#
# Convention : Reuss Voigt Hill
#
# Bulk Modulus (GPa) = 38.24157 48.23873 43.24015
# Shear Modulus (GPa) = 52.47933 21.12713 36.80323
#
# Velocity S-wave (km/s) = 4.55402 2.88949 3.81368
# Velocity P-wave (km/s) = 6.53948 5.49504 6.03988
#
# Compressibility (1/GPa) = 0.02614955
#
# Stress axis : x y z
#
# Youngs Moduli (GPa) = 90.98351 52.53881 90.56505
#
# Poissons Ratio (x) = 0.31362 0.38600
# Poissons Ratio (y) = 0.54311 -0.25114
# Poissons Ratio (z) = 0.38779 -0.14569
#
# Static dielectric constant tensor:
#      x y z
#    x 2.091760 0.000000 0.000000 
#    y 0.000000 2.018920 0.000000 
#    z 0.000000 0.000000 1.942660 
# 
# From -- ./inp_files/592.got.cif
#   From: 2010.05.17/outbox.cif.g08.bks.cpg/sg45_1_cif.got.tgz:592.got - 2010.06.03 19:51:22.
