data_PCOD9376852
_publ_section_title
;
Structure prediction by ZEFSAII (Michael W. Deem and Ramdas Pophale) SiO2 
 PCOD9376852
Probable space group: I B A 2
;
_chemical_formula_sum "Si O2"
_cell_formula_units_Z 60
_cell_length_a 10.866032
_cell_length_b 20.619152
_cell_length_c 11.068606
_cell_angle_alpha 90.000000
_cell_angle_beta 90.000000
_cell_angle_gamma 90.000000
_cell_volume 2479.903082
_symmetry_space_group_name_H-M "I B A 2"
_symmetry_group_IT_number 45
_symmetry_cell_setting 'orthorhombic'
loop_
_space_group_symop_operation_xyz
x,y,z
-x,-y,z
-x,y,1/2+z
x,-y,1/2+z
1/2+x,1/2+y,1/2+z
1/2-x,1/2-y,1/2+z
1/2-x,1/2+y,z
1/2+x,1/2-y,z
loop_
_atom_site_type_symbol
_atom_site_label
_atom_site_fract_x
_atom_site_fract_y
_atom_site_fract_z
Si Si1 0.500000 0.500000 0.798311
Si Si2 0.843841 0.458105 0.611093
Si Si3 0.604890 0.693246 0.569514
Si Si4 0.033255 0.330194 0.168481
Si Si5 0.595939 0.382817 0.650928
Si Si6 0.271408 0.166376 0.286564
Si Si7 0.250331 0.192645 0.846472
Si Si8 0.724113 0.979190 0.364921
O O1 0.511726 0.436864 0.714243
O O2 0.369236 0.498267 0.867221
O O3 0.943682 0.400969 0.613077
O O4 0.713251 0.421062 0.603577
O O5 0.835924 0.492918 0.741303
O O6 0.843855 0.499504 0.488388
O O7 0.578068 0.770014 0.585373
O O8 0.477152 0.656250 0.549738
O O9 0.655075 0.670389 0.698458
O O10 0.704063 0.668042 0.474134
O O11 0.119965 0.326958 0.288849
O O12 0.893511 0.322400 0.206962
O O13 0.650357 0.332135 0.748605
O O14 0.256286 0.230457 0.365230
O O15 0.283615 0.098315 0.351311
#
# Coordination Sequence:
#
# PCOD9376852 Si02
#       8
#     4   8   8   8   8   8   8   8
#     4  10  22  40  64  98 138 176 220 290 342 428
#     4  10  25  45  68 100 140 181 233 293 347 421
#     4  11  22  39  69  97 133 180 231 285 354 422
#     4  10  23  46  62  98 140 176 238 291 344 423
#     4  10  21  42  62  99 138 170 223 284 349 413
#     4  11  23  42  66  98 133 186 235 286 357 421
#     4  10  23  40  64  99 138 178 231 293 354 415
#     4  11  24  43  69 100 137 182 236 286 362 415
#
# _framework density 24.194493999999999
#
# number of rings (size 3 to 8) (size 9 to 14) (size 15 to 20)
#    0.000    1.600    2.667    0.800    1.867    8.000 
#    0.000    1.333    0.000    0.000    0.000    0.000 
#    0.000    0.000    0.000    0.000    0.000    0.000 
#
# Total GULP energy -167755.943213 kJ/mol
# GULP energy per Si atom -5591.864774 kJ/mol
# Density = 2.413943 g / cm^3
# Si number density = 24.194494 Si / 1000 Ang^3
#
#
#
# Elastic Constant Matrix: (Units=GPa)
#
#
# Indices 1 2 3 4 5 6 
#
# 1 58.8738 20.9232 1.2887 0.0000 0.0000 0.0000
# 2 20.9232 100.1268 27.5594 0.0001 0.0000 0.0000
# 3 1.2887 27.5594 92.6059 0.0001 0.0000 0.0000
# 4 0.0000 0.0001 0.0001 0.8285 0.0000 0.0000
# 5 0.0000 0.0000 0.0000 0.0000 8.9910 0.0000
# 6 0.0000 0.0000 0.0000 0.0000 0.0000 35.5929
#
#
#
# Elastic Compliance Matrix: (Units=1/GPa)
#
#
# Indices 1 2 3 4 5 6 
#
# 1 0.018428 -0.004117 0.000969 0.000000 0.000000 0.000000
# 2 -0.004117 0.011798 -0.003454 -0.000001 0.000000 0.000000
# 3 0.000969 -0.003454 0.011813 0.000000 0.000000 0.000000
# 4 0.000000 -0.000001 0.000000 1.207063 -0.000005 0.000000
# 5 0.000000 0.000000 0.000000 -0.000005 0.111223 0.000000
# 6 0.000000 0.000000 0.000000 0.000000 0.000000 0.028096
#
#
# Mechanical properties :
#
#
# Convention : Reuss Voigt Hill
#
# Bulk Modulus (GPa) = 34.68131 39.01657 36.84894
# Shear Modulus (GPa) = 3.54299 22.53814 13.04057
#
# Velocity S-wave (km/s) = 1.21143 3.05543 2.32413
# Velocity P-wave (km/s) = 4.04008 5.34871 4.73978
#
# Compressibility (1/GPa) = 0.02883398
#
# Stress axis : x y z
#
# Youngs Moduli (GPa) = 54.26646 84.75709 84.65367
#
# Poissons Ratio (x) = 0.34898 -0.08202
# Poissons Ratio (y) = 0.22344 0.29239
# Poissons Ratio (z) = -0.05258 0.29274
#
# Static dielectric constant tensor:
#      x y z
#    x 1.920690 0.000000 0.000000 
#    y 0.000000 1.952300 0.000000 
#    z 0.000000 0.000000 1.970620 
# 
# From -- ./inp_files/3815.got.cif
#   From: 2010.05.17/outbox.cif.g08.bks.cpg/sg45_2_cif.got.tgz:3815.got - 2010.06.03 19:51:22.
