data_PCOD9376506
_publ_section_title
;
Structure prediction by ZEFSAII (Michael W. Deem and Ramdas Pophale) SiO2 
 PCOD9376506
Probable space group: I B A 2
;
_chemical_formula_sum "Si O2"
_cell_formula_units_Z 64
_cell_length_a 9.388444
_cell_length_b 20.544808
_cell_length_c 17.494965
_cell_angle_alpha 90.000000
_cell_angle_beta 90.000000
_cell_angle_gamma 90.000000
_cell_volume 3374.494970
_symmetry_space_group_name_H-M "I B A 2"
_symmetry_group_IT_number 45
_symmetry_cell_setting 'orthorhombic'
loop_
_space_group_symop_operation_xyz
x,y,z
-x,-y,z
-x,y,1/2+z
x,-y,1/2+z
1/2+x,1/2+y,1/2+z
1/2-x,1/2-y,1/2+z
1/2-x,1/2+y,z
1/2+x,1/2-y,z
loop_
_atom_site_type_symbol
_atom_site_label
_atom_site_fract_x
_atom_site_fract_y
_atom_site_fract_z
Si Si1 0.525765 0.785643 0.250000
Si Si2 0.198650 0.786597 0.848505
Si Si3 0.756428 0.666747 0.462518
Si Si4 0.439603 0.365567 0.978722
Si Si5 0.869609 0.376756 0.652236
Si Si6 0.153849 0.024016 0.594176
Si Si7 0.173773 0.763083 0.094493
Si Si8 0.091048 0.561017 0.033978
O O1 0.654727 0.800701 0.306371
O O2 0.423684 0.731659 0.287714
O O3 0.434453 0.849826 0.230331
O O4 0.595557 0.759710 0.171136
O O5 0.220419 0.721518 0.899308
O O6 0.152018 0.843210 0.906134
O O7 0.603676 0.633053 0.454797
O O8 0.770225 0.703314 0.544313
O O9 0.876251 0.611960 0.467704
O O10 0.382482 0.429580 0.021305
O O11 0.426353 0.306470 0.039880
O O12 0.744239 0.430301 0.651817
O O13 0.801636 0.312164 0.614617
O O14 0.994690 0.405594 0.599456
O O15 0.260554 0.966415 0.568778
O O16 0.000000 0.000000 0.622831
O O17 0.000000 0.500000 0.006253
#
# Coordination Sequence:
#
# PCOD9376506 Si02
#       8
#     8   8   8   8   8   8   8   8
#     4  12  21  39  56  93 130 172 194 245 317 407
#     4  11  25  36  60  92 136 166 206 245 334 392
#     4  11  20  36  59  92 127 159 202 272 311 376
#     4  10  21  37  58  94 123 159 204 272 308 381
#     4  10  21  36  58  92 129 157 208 257 320 378
#     4  10  20  38  63  93 118 160 218 271 311 354
#     4  10  21  33  61  90 128 156 204 252 331 372
#     4  10  21  36  61  92 121 163 214 269 307 358
#
# _framework density 18.965800999999999
#
# number of rings (size 3 to 8) (size 9 to 14) (size 15 to 20)
#    0.000    1.500    5.000    0.750    1.750    2.000 
#    0.000    0.000    0.000    6.750    3.250    0.000 
#    0.000    0.000    0.000    0.000    0.000    0.000 
#
# Total GULP energy -178607.915567 kJ/mol
# GULP energy per Si atom -5581.497361 kJ/mol
# Density = 1.892263 g / cm^3
# Si number density = 18.965801 Si / 1000 Ang^3
#
#
#
# Elastic Constant Matrix: (Units=GPa)
#
#
# Indices 1 2 3 4 5 6 
#
# 1 111.5909 36.8437 27.9773 0.0000 0.0000 0.0000
# 2 36.8437 66.8988 25.1934 0.0000 0.0000 0.0000
# 3 27.9773 25.1934 70.0657 0.0000 0.0000 0.0000
# 4 0.0000 0.0000 0.0000 23.2712 0.0000 0.0000
# 5 0.0000 0.0000 0.0000 0.0000 29.4837 0.0000
# 6 0.0000 0.0000 0.0000 0.0000 0.0000 32.1110
#
#
#
# Elastic Compliance Matrix: (Units=1/GPa)
#
#
# Indices 1 2 3 4 5 6 
#
# 1 0.011361 -0.005261 -0.002645 0.000000 0.000000 0.000000
# 2 -0.005261 0.019725 -0.004992 0.000000 0.000000 0.000000
# 3 -0.002645 -0.004992 0.017123 0.000000 0.000000 0.000000
# 4 0.000000 0.000000 0.000000 0.042972 0.000000 0.000000
# 5 0.000000 0.000000 0.000000 0.000000 0.033917 0.000000
# 6 0.000000 0.000000 0.000000 0.000000 0.000000 0.031142
#
#
# Mechanical properties :
#
#
# Convention : Reuss Voigt Hill
#
# Bulk Modulus (GPa) = 44.61419 47.62046 46.11732
# Shear Modulus (GPa) = 26.38412 27.54259 26.96336
#
# Velocity S-wave (km/s) = 3.73385 3.81494 3.77461
# Velocity P-wave (km/s) = 6.49333 6.67594 6.58527
#
# Compressibility (1/GPa) = 0.02241439
#
# Stress axis : x y z
#
# Youngs Moduli (GPa) = 88.01672 50.69625 58.39984
#
# Poissons Ratio (x) = 0.26672 0.15446
# Poissons Ratio (y) = 0.46307 0.29152
# Poissons Ratio (z) = 0.23280 0.25307
#
# Static dielectric constant tensor:
#      x y z
#    x 1.692840 0.000000 0.000000 
#    y 0.000000 1.666260 0.000000 
#    z 0.000000 0.000000 1.644350 
# 
# From -- ./inp_files/7782.got.cif
#   From: 2010.05.17/outbox.cif.g08.bks.cpg/sg45_4_cif.got.tgz:7782.got - 2010.06.03 19:51:22.
