data_PCOD9376949
_publ_section_title
;
Structure prediction by ZEFSAII (Michael W. Deem and Ramdas Pophale) SiO2 
 PCOD9376949
Probable space group: I B A 2
;
_chemical_formula_sum "Si O2"
_cell_formula_units_Z 64
_cell_length_a 17.336715
_cell_length_b 16.699696
_cell_length_c 11.613610
_cell_angle_alpha 90.000000
_cell_angle_beta 90.000000
_cell_angle_gamma 90.000000
_cell_volume 3362.347632
_symmetry_space_group_name_H-M "I B A 2"
_symmetry_group_IT_number 45
_symmetry_cell_setting 'orthorhombic'
loop_
_space_group_symop_operation_xyz
x,y,z
-x,-y,z
-x,y,1/2+z
x,-y,1/2+z
1/2+x,1/2+y,1/2+z
1/2-x,1/2-y,1/2+z
1/2-x,1/2+y,z
1/2+x,1/2-y,z
loop_
_atom_site_type_symbol
_atom_site_label
_atom_site_fract_x
_atom_site_fract_y
_atom_site_fract_z
Si Si1 0.893449 0.217611 0.453690
Si Si2 0.301913 0.943076 0.156288
Si Si3 0.286407 0.197900 0.280814
Si Si4 0.803756 0.934207 0.882662
Si Si5 0.072046 0.750017 0.935825
Si Si6 0.142948 0.718797 0.701248
Si Si7 0.813633 0.105779 0.955605
Si Si8 0.664452 0.888443 0.053055
O O1 0.853329 0.281533 0.369515
O O2 0.868239 0.134460 0.393731
O O3 0.861125 0.231692 0.582925
O O4 0.984099 0.231503 0.462554
O O5 0.243100 0.952873 0.264475
O O6 0.365296 0.875411 0.181651
O O7 0.343449 0.023478 0.110675
O O8 0.248247 0.905917 0.056390
O O9 0.228182 0.271004 0.256883
O O10 0.232121 0.133609 0.342309
O O11 0.315976 0.167772 0.160168
O O12 0.842000 0.016465 0.928318
O O13 0.736856 0.902808 0.968875
O O14 0.084489 0.748793 0.797927
O O15 0.126150 0.823111 0.980984
O O16 0.100858 0.663680 0.984031
#
# Coordination Sequence:
#
# PCOD9376949 Si02
#       8
#     8   8   8   8   8   8   8   8
#     4  12  25  39  66  96 130 178 212 268 343 411
#     4  11  20  37  70  92 119 160 228 283 316 369
#     4  11  20  37  64  91 118 167 220 268 318 389
#     4  11  21  39  65 101 121 163 226 276 326 377
#     4  11  26  41  60  92 142 174 210 262 347 417
#     4  11  22  42  64  91 124 168 219 275 321 397
#     4  10  22  38  63  95 122 165 216 276 319 386
#     4  11  22  39  65  93 124 167 216 281 320 387
#
# _framework density 19.034320000000001
#
# number of rings (size 3 to 8) (size 9 to 14) (size 15 to 20)
#    0.000    1.000    6.250    1.500    1.750    0.500 
#    0.000    0.625    0.000    3.000    0.000    0.000 
#    0.000    0.000    0.000    0.000    0.000    0.000 
#
# Total GULP energy -178376.421060 kJ/mol
# GULP energy per Si atom -5574.263158 kJ/mol
# Density = 1.899100 g / cm^3
# Si number density = 19.034320 Si / 1000 Ang^3
#
#
#
# Elastic Constant Matrix: (Units=GPa)
#
#
# Indices 1 2 3 4 5 6 
#
# 1 63.2588 35.7243 8.9316 0.0000 0.0000 0.0000
# 2 35.7243 120.9756 12.6966 0.0000 0.0000 0.0000
# 3 8.9316 12.6966 93.3592 0.0000 0.0000 0.0000
# 4 0.0000 0.0000 0.0000 31.1775 0.0000 0.0000
# 5 0.0000 0.0000 0.0000 0.0000 12.4417 0.0000
# 6 0.0000 0.0000 0.0000 0.0000 0.0000 14.4761
#
#
#
# Elastic Compliance Matrix: (Units=1/GPa)
#
#
# Indices 1 2 3 4 5 6 
#
# 1 0.019078 -0.005521 -0.001074 0.000000 0.000000 0.000000
# 2 -0.005521 0.009984 -0.000830 0.000000 0.000000 0.000000
# 3 -0.001074 -0.000830 0.010927 0.000000 0.000000 0.000000
# 4 0.000000 0.000000 0.000000 0.032074 0.000000 0.000000
# 5 0.000000 0.000000 0.000000 0.000000 0.080375 0.000000
# 6 0.000000 0.000000 0.000000 0.000000 0.000000 0.069079
#
#
# Mechanical properties :
#
#
# Convention : Reuss Voigt Hill
#
# Bulk Modulus (GPa) = 39.77959 43.58872 41.68416
# Shear Modulus (GPa) = 20.42936 26.30179 23.36557
#
# Velocity S-wave (km/s) = 3.27967 3.72130 3.50744
# Velocity P-wave (km/s) = 5.94019 6.43536 6.19273
#
# Compressibility (1/GPa) = 0.02513852
#
# Stress axis : x y z
#
# Youngs Moduli (GPa) = 52.41750 100.16502 91.51716
#
# Poissons Ratio (x) = 0.55300 0.09832
# Poissons Ratio (y) = 0.28939 0.07592
# Poissons Ratio (z) = 0.05631 0.08309
#
# Static dielectric constant tensor:
#      x y z
#    x 1.625210 0.000000 0.000000 
#    y 0.000000 1.759190 0.000000 
#    z 0.000000 0.000000 1.671420 
# 
# From -- ./inp_files/4279.got.cif
#   From: 2010.05.17/outbox.cif.g08.bks.cpg/sg45_3_cif.got.tgz:4279.got - 2010.06.03 19:51:22.
