data_PCOD9376712
_publ_section_title
;
Structure prediction by ZEFSAII (Michael W. Deem and Ramdas Pophale) SiO2 
 PCOD9376712
Probable space group: I B A 2
;
_chemical_formula_sum "Si O2"
_cell_formula_units_Z 60
_cell_length_a 22.207830
_cell_length_b 8.587841
_cell_length_c 13.656776
_cell_angle_alpha 90.000000
_cell_angle_beta 90.000000
_cell_angle_gamma 90.000000
_cell_volume 2604.583623
_symmetry_space_group_name_H-M "I B A 2"
_symmetry_group_IT_number 45
_symmetry_cell_setting 'orthorhombic'
loop_
_space_group_symop_operation_xyz
x,y,z
-x,-y,z
-x,y,1/2+z
x,-y,1/2+z
1/2+x,1/2+y,1/2+z
1/2-x,1/2-y,1/2+z
1/2-x,1/2+y,z
1/2+x,1/2-y,z
loop_
_atom_site_type_symbol
_atom_site_label
_atom_site_fract_x
_atom_site_fract_y
_atom_site_fract_z
Si Si1 0.776782 0.106512 0.043430
Si Si2 0.184820 0.437592 0.895175
Si Si3 0.094475 0.015363 0.029567
Si Si4 0.627503 0.573877 0.738985
Si Si5 0.102219 0.710060 0.925203
Si Si6 0.081087 0.219072 0.855809
Si Si7 0.730139 0.111458 0.683330
Si Si8 0.500000 0.000000 0.852725
O O1 0.832084 0.992775 0.017716
O O2 0.791227 0.236756 0.124148
O O3 0.724242 0.019592 0.101913
O O4 0.744535 0.136056 0.941397
O O5 0.163291 0.607947 0.930275
O O6 0.131324 0.318410 0.911972
O O7 0.193879 0.435166 0.778597
O O8 0.088681 0.080773 0.138847
O O9 0.085836 0.830993 0.010475
O O10 0.059145 0.109102 0.945677
O O11 0.607623 0.690928 0.824625
O O12 0.613380 0.401061 0.781706
O O13 0.698207 0.607140 0.713610
O O14 0.049987 0.586259 0.915243
O O15 0.036010 0.347978 0.808422
#
# Coordination Sequence:
#
# PCOD9376712 Si02
#       8
#     8   8   8   8   8   8   8   4
#     4  11  22  34  55  90 128 162 198 238 287 360
#     4  11  20  35  58  86 122 165 200 239 296 356
#     4  10  21  38  60  89 120 155 195 238 295 371
#     4  10  21  38  60  89 120 155 195 238 295 371
#     4  10  22  40  63  84 114 154 197 252 309 360
#     4  10  22  40  61  82 116 156 201 256 305 353
#     4  11  22  34  55  90 128 162 198 238 287 360
#     4  10  24  46  62  84 112 144 200 270 318 352
#
# _framework density 23.036311000000001
#
# number of rings (size 3 to 8) (size 9 to 14) (size 15 to 20)
#    0.000    1.600    0.000    6.400    0.000    5.333 
#    0.000    8.000    0.000    0.000    0.000    0.000 
#    0.000    0.000    0.000    0.000    0.000    0.000 
#
# Total GULP energy -167003.483120 kJ/mol
# GULP energy per Si atom -5566.782771 kJ/mol
# Density = 2.298388 g / cm^3
# Si number density = 23.036311 Si / 1000 Ang^3
#
#
#
# Elastic Constant Matrix: (Units=GPa)
#
#
# Indices 1 2 3 4 5 6 
#
# 1 62.4455 35.8274 16.3187 0.0000 0.0000 0.0000
# 2 35.8274 98.6440 14.5399 0.0000 0.0000 0.0000
# 3 16.3187 14.5399 55.0635 0.0000 0.0000 0.0000
# 4 0.0000 0.0000 0.0000 28.3068 0.0000 0.0000
# 5 0.0000 0.0000 0.0000 0.0000 -4.9446 0.0000
# 6 0.0000 0.0000 0.0000 0.0000 0.0000 41.5323
#
#
#
# Elastic Compliance Matrix: (Units=1/GPa)
#
#
# Indices 1 2 3 4 5 6 
#
# 1 0.021218 -0.007054 -0.004425 0.000000 0.000000 0.000000
# 2 -0.007054 0.012893 -0.001314 0.000000 0.000000 0.000000
# 3 -0.004425 -0.001314 0.019819 0.000000 0.000000 0.000000
# 4 0.000000 0.000000 0.000000 0.035327 0.000000 0.000000
# 5 0.000000 0.000000 0.000000 0.000000 -0.202239 0.000000
# 6 0.000000 0.000000 0.000000 0.000000 0.000000 0.024078
#
#
# Mechanical properties :
#
#
# Convention : Reuss Voigt Hill
#
# Bulk Modulus (GPa) = 35.28168 38.83613 37.05890
# Shear Modulus (GPa) = -92.81630 22.94334 -34.93648
#
# Velocity S-wave (km/s) = -6.35443 3.15931 -3.89856
# Velocity P-wave (km/s) = 6.20398 5.49578 2.03541
#
# Compressibility (1/GPa) = 0.02834332
#
# Stress axis : x y z
#
# Youngs Moduli (GPa) = 47.13084 77.56084 50.45572
#
# Poissons Ratio (x) = 0.54710 0.22329
# Poissons Ratio (y) = 0.33246 0.06630
# Poissons Ratio (z) = 0.20857 0.10192
#
# Static dielectric constant tensor:
#      x y z
#    x 1.900700 0.000000 0.000000 
#    y 0.000000 1.949020 0.000000 
#    z 0.000000 0.000000 1.888390 
# 
# From -- ./inp_files/5825.got.cif
#   From: 2010.05.17/outbox.cif.g08.bks.cpg/sg45_3_cif.got.tgz:5825.got - 2010.06.03 19:51:22.
