data_PCOD9376345
_publ_section_title
;
Structure prediction by ZEFSAII (Michael W. Deem and Ramdas Pophale) SiO2 
 PCOD9376345
Probable space group: I B A 2
;
_chemical_formula_sum "Si O2"
_cell_formula_units_Z 44
_cell_length_a 31.785221
_cell_length_b 6.867144
_cell_length_c 7.323425
_cell_angle_alpha 90.000000
_cell_angle_beta 90.000000
_cell_angle_gamma 90.000000
_cell_volume 1598.510996
_symmetry_space_group_name_H-M "I B A 2"
_symmetry_group_IT_number 45
_symmetry_cell_setting 'orthorhombic'
loop_
_space_group_symop_operation_xyz
x,y,z
-x,-y,z
-x,y,1/2+z
x,-y,1/2+z
1/2+x,1/2+y,1/2+z
1/2-x,1/2-y,1/2+z
1/2-x,1/2+y,z
1/2+x,1/2-y,z
loop_
_atom_site_type_symbol
_atom_site_label
_atom_site_fract_x
_atom_site_fract_y
_atom_site_fract_z
Si Si1 0.945214 0.225883 0.879070
Si Si2 0.000000 0.000000 0.119592
Si Si3 0.112129 0.292755 0.099904
Si Si4 0.201096 0.313870 0.136378
Si Si5 0.791047 0.090737 0.013700
Si Si6 0.877114 0.842065 0.691010
O O1 0.927545 0.368049 0.718650
O O2 0.960339 0.048462 0.745570
O O3 0.986711 0.196071 0.008468
O O4 0.907770 0.223598 0.026673
O O5 0.155189 0.409743 0.133385
O O6 0.120570 0.080179 0.193590
O O7 0.108674 0.246518 0.885517
O O8 0.208752 0.211961 0.329506
O O9 0.243648 0.423120 0.089762
O O10 0.197292 0.135613 0.993676
O O11 0.828454 0.182904 0.131831
#
# Coordination Sequence:
#
# PCOD9376345 Si02
#       6
#     8   4   8   8   8   8
#     4  11  18  30  38  64  90 126 171 203 266 305
#     4  10  20  26  42  60  94 126 170 222 246 324
#     4  11  17  29  46  63  91 131 172 205 258 315
#     4  11  21  35  52  77 104 141 187 224 264 316
#     4  11  21  35  52  77 104 141 187 224 264 316
#     4  11  17  29  46  63  91 131 172 205 258 315
#
# _framework density 27.525614999999998
#
# number of rings (size 3 to 8) (size 9 to 14) (size 15 to 20)
#    0.000    1.091    5.455    5.455    2.545    0.000 
#    0.000    0.000    0.000    0.000    0.000    0.000 
#    0.000    0.000    0.000    4.909    2.909    0.000 
#
# Total GULP energy -122684.396411 kJ/mol
# GULP energy per Si atom -5576.563473 kJ/mol
# Density = 2.746297 g / cm^3
# Si number density = 27.525615 Si / 1000 Ang^3
#
#
#
# Elastic Constant Matrix: (Units=GPa)
#
#
# Indices 1 2 3 4 5 6 
#
# 1 206.4817 7.7815 64.8550 0.0000 0.0000 0.0000
# 2 7.7815 64.9855 5.1237 0.0000 0.0000 0.0000
# 3 64.8550 5.1237 191.4822 0.0000 0.0000 0.0000
# 4 0.0000 0.0000 0.0000 2.4226 0.0000 0.0000
# 5 0.0000 0.0000 0.0000 0.0000 40.1138 0.0000
# 6 0.0000 0.0000 0.0000 0.0000 0.0000 24.2297
#
#
#
# Elastic Compliance Matrix: (Units=1/GPa)
#
#
# Indices 1 2 3 4 5 6 
#
# 1 0.005436 -0.000507 -0.001828 0.000000 0.000000 0.000000
# 2 -0.000507 0.015468 -0.000242 0.000000 0.000000 0.000000
# 3 -0.001828 -0.000242 0.005848 0.000000 0.000000 0.000000
# 4 0.000000 0.000000 0.000000 0.412771 0.000000 0.000000
# 5 0.000000 0.000000 0.000000 0.000000 0.024929 0.000000
# 6 0.000000 0.000000 0.000000 0.000000 0.000000 0.041272
#
#
# Mechanical properties :
#
#
# Convention : Reuss Voigt Hill
#
# Bulk Modulus (GPa) = 46.29952 68.71887 57.50920
# Shear Modulus (GPa) = 9.65107 39.03251 24.34179
#
# Velocity S-wave (km/s) = 1.87452 3.76978 2.97700
# Velocity P-wave (km/s) = 4.64135 6.63083 5.72320
#
# Compressibility (1/GPa) = 0.02159849
#
# Stress axis : x y z
#
# Youngs Moduli (GPa) = 183.95161 64.65025 171.00058
#
# Poissons Ratio (x) = 0.03277 0.31253
# Poissons Ratio (y) = 0.09323 0.04142
# Poissons Ratio (z) = 0.33621 0.01566
#
# Static dielectric constant tensor:
#      x y z
#    x 2.309170 0.000000 0.000000 
#    y 0.000000 2.258390 0.000000 
#    z 0.000000 0.000000 2.199110 
# 
# From -- ./inp_files/2727.got.cif
#   From: 2010.05.17/outbox.cif.g08.bks.cpg/sg45_2_cif.got.tgz:2727.got - 2010.06.03 19:51:22.
