data_PCOD9376213
_publ_section_title
;
Structure prediction by ZEFSAII (Michael W. Deem and Ramdas Pophale) SiO2 
 PCOD9376213
Probable space group: I B A 2
;
_chemical_formula_sum "Si O2"
_cell_formula_units_Z 48
_cell_length_a 14.211009
_cell_length_b 5.100755
_cell_length_c 30.425346
_cell_angle_alpha 90.000000
_cell_angle_beta 90.000000
_cell_angle_gamma 90.000000
_cell_volume 2205.438259
_symmetry_space_group_name_H-M "I B A 2"
_symmetry_group_IT_number 45
_symmetry_cell_setting 'orthorhombic'
loop_
_space_group_symop_operation_xyz
x,y,z
-x,-y,z
-x,y,1/2+z
x,-y,1/2+z
1/2+x,1/2+y,1/2+z
1/2-x,1/2-y,1/2+z
1/2-x,1/2+y,z
1/2+x,1/2-y,z
loop_
_atom_site_type_symbol
_atom_site_label
_atom_site_fract_x
_atom_site_fract_y
_atom_site_fract_z
Si Si1 0.431476 0.751100 0.657640
Si Si2 0.567300 0.748758 0.061825
Si Si3 0.812875 0.246412 0.882130
Si Si4 0.888817 0.038421 0.792386
Si Si5 0.614436 0.959794 0.246555
Si Si6 0.689380 0.353683 0.476721
O O1 0.500000 0.500000 0.665508
O O2 0.383097 0.736284 0.609861
O O3 0.368594 0.821916 0.699717
O O4 0.500000 0.000000 0.653482
O O5 0.500000 0.500000 0.061935
O O6 0.632973 0.722942 0.019879
O O7 0.500000 0.000000 0.058288
O O8 0.774997 0.542345 0.880979
O O9 0.871774 0.163201 0.839861
O O10 0.859837 0.200332 0.929758
O O11 0.851319 0.248354 0.756804
O O12 0.852166 0.745853 0.783526
O O13 0.000000 0.000000 0.786257
O O14 0.500000 0.000000 0.248714
O O15 0.721520 0.655392 0.476967
#
# Coordination Sequence:
#
# PCOD9376213 Si02
#       6
#     8   8   8   8   8   8
#     4   9  16  28  48  75 105 134 165 205 255 308
#     4  10  20  34  56  84 107 133 176 226 264 300
#     4  10  21  37  54  72 100 140 174 203 255 319
#     4  10  19  31  51  77 100 127 169 215 249 284
#     4   9  16  28  47  74 104 131 162 203 251 301
#     4  10  21  38  57  76 105 145 178 210 266 330
#
# _framework density 21.764382000000001
#
# number of rings (size 3 to 8) (size 9 to 14) (size 15 to 20)
#    0.000    2.333    0.000    4.500    0.000    0.667 
#    0.000    2.500    0.000    6.000    0.000    0.000 
#    0.000    0.000    0.000    0.000    0.000    0.000 
#
# Total GULP energy -133845.780505 kJ/mol
# GULP energy per Si atom -5576.907521 kJ/mol
# Density = 2.171485 g / cm^3
# Si number density = 21.764382 Si / 1000 Ang^3
#
#
#
# Elastic Constant Matrix: (Units=GPa)
#
#
# Indices 1 2 3 4 5 6 
#
# 1 23.6026 3.6780 13.0677 0.0000 0.0000 0.0000
# 2 3.6780 121.9316 40.4358 0.0000 0.0000 0.0000
# 3 13.0677 40.4358 187.7352 0.0000 0.0000 0.0000
# 4 0.0000 0.0000 0.0000 32.7299 0.0000 0.0000
# 5 0.0000 0.0000 0.0000 0.0000 -40.3425 0.0000
# 6 0.0000 0.0000 0.0000 0.0000 0.0000 8.1624
#
#
#
# Elastic Compliance Matrix: (Units=1/GPa)
#
#
# Indices 1 2 3 4 5 6 
#
# 1 0.044079 -0.000336 -0.002996 0.000000 0.000000 0.000000
# 2 -0.000336 0.008835 -0.001879 0.000000 0.000000 0.000000
# 3 -0.002996 -0.001879 0.005940 0.000000 0.000000 0.000000
# 4 0.000000 0.000000 0.000000 0.030553 0.000000 0.000000
# 5 0.000000 0.000000 0.000000 0.000000 -0.024788 0.000000
# 6 0.000000 0.000000 0.000000 0.000000 0.000000 0.122513
#
#
# Mechanical properties :
#
#
# Convention : Reuss Voigt Hill
#
# Bulk Modulus (GPa) = 20.64787 49.73694 35.19241
# Shear Modulus (GPa) = 23.39740 18.51582 20.95661
#
# Velocity S-wave (km/s) = 3.28232 2.91991 3.10641
# Velocity P-wave (km/s) = 4.88595 5.85405 5.39177
#
# Compressibility (1/GPa) = 0.04843115
#
# Stress axis : x y z
#
# Youngs Moduli (GPa) = 22.68637 113.18940 168.35005
#
# Poissons Ratio (x) = 0.03805 0.50435
# Poissons Ratio (y) = 0.00763 0.31641
# Poissons Ratio (z) = 0.06796 0.21274
#
# Static dielectric constant tensor:
#      x y z
#    x 2.184250 0.000000 0.000000 
#    y 0.000000 1.773420 0.000000 
#    z 0.000000 0.000000 1.894510 
# 
# From -- ./inp_files/9815.got.cif
#   From: 2010.05.17/outbox.cif.g08.bks.cpg/sg45_5_cif.got.tgz:9815.got - 2010.06.03 19:51:22.
