data_PCOD9376759
_publ_section_title
;
Structure prediction by ZEFSAII (Michael W. Deem and Ramdas Pophale) SiO2 
 PCOD9376759
Probable space group: I B A 2
;
_chemical_formula_sum "Si O2"
_cell_formula_units_Z 52
_cell_length_a 8.925696
_cell_length_b 18.886411
_cell_length_c 15.998585
_cell_angle_alpha 90.000000
_cell_angle_beta 90.000000
_cell_angle_gamma 90.000000
_cell_volume 2696.951277
_symmetry_space_group_name_H-M "I B A 2"
_symmetry_group_IT_number 45
_symmetry_cell_setting 'orthorhombic'
loop_
_space_group_symop_operation_xyz
x,y,z
-x,-y,z
-x,y,1/2+z
x,-y,1/2+z
1/2+x,1/2+y,1/2+z
1/2-x,1/2-y,1/2+z
1/2-x,1/2+y,z
1/2+x,1/2-y,z
loop_
_atom_site_type_symbol
_atom_site_label
_atom_site_fract_x
_atom_site_fract_y
_atom_site_fract_z
Si Si1 0.981894 0.085832 0.349900
Si Si2 0.500000 0.000000 0.293347
Si Si3 0.301914 0.083793 0.416423
Si Si4 0.753436 0.808926 0.555545
Si Si5 0.668280 0.486282 0.050720
Si Si6 0.894113 0.839434 0.020900
Si Si7 0.244232 0.910417 0.200291
O O1 0.899662 0.125528 0.427767
O O2 0.885478 0.104175 0.268024
O O3 0.154937 0.107077 0.363953
O O4 0.000000 0.000000 0.347730
O O5 0.423601 0.058717 0.351832
O O6 0.621364 0.044955 0.241545
O O7 0.329737 0.144471 0.484372
O O8 0.269271 0.015379 0.475689
O O9 0.704326 0.729352 0.537210
O O10 0.713008 0.840508 0.646846
O O11 0.932571 0.822420 0.544100
O O12 0.500000 0.500000 0.020277
O O13 0.685595 0.536105 0.129639
O O14 0.676488 0.404432 0.072852
#
# Coordination Sequence:
#
# PCOD9376759 Si02
#       7
#     8   4   8   8   8   8   8
#     4  11  18  39  70  92 114 163 233 263 293 378
#     4  12  24  34  62  96 132 158 200 292 332 352
#     4  10  21  39  64  94 122 164 221 258 321 384
#     4  10  25  41  60  89 129 171 209 256 329 401
#     4  11  18  39  71  92 109 168 233 260 292 387
#     4  11  21  40  64  90 123 172 217 257 316 390
#     4  11  24  38  63  99 128 158 210 276 328 371
#
# _framework density 19.281030999999999
#
# number of rings (size 3 to 8) (size 9 to 14) (size 15 to 20)
#    0.000    1.231    7.692    0.462    0.000    6.154 
#    0.000    6.154    0.000    0.000    0.000    0.000 
#    0.000    0.000    0.000    0.000    0.000    0.000 
#
# Total GULP energy -144860.205399 kJ/mol
# GULP energy per Si atom -5571.546361 kJ/mol
# Density = 1.923715 g / cm^3
# Si number density = 19.281031 Si / 1000 Ang^3
#
#
#
# Elastic Constant Matrix: (Units=GPa)
#
#
# Indices 1 2 3 4 5 6 
#
# 1 27.0680 16.5688 33.8033 0.0000 0.0000 0.0000
# 2 16.5688 144.6076 27.1467 0.0000 0.0000 0.0000
# 3 33.8033 27.1467 101.9303 0.0000 0.0001 0.0000
# 4 0.0000 0.0000 0.0000 10.4871 0.0000 0.0000
# 5 0.0000 0.0000 0.0001 0.0000 7.5972 0.0000
# 6 0.0000 0.0000 0.0000 0.0000 0.0000 32.1955
#
#
#
# Elastic Compliance Matrix: (Units=1/GPa)
#
#
# Indices 1 2 3 4 5 6 
#
# 1 0.064763 -0.003567 -0.020527 0.000000 0.000000 0.000000
# 2 -0.003567 0.007476 -0.000808 0.000000 0.000000 0.000000
# 3 -0.020527 -0.000808 0.016833 0.000000 0.000000 0.000000
# 4 0.000000 0.000000 0.000000 0.095355 0.000000 0.000000
# 5 0.000000 0.000000 0.000000 0.000000 0.131628 0.000000
# 6 0.000000 0.000000 0.000000 0.000000 0.000000 0.031060
#
#
# Mechanical properties :
#
#
# Convention : Reuss Voigt Hill
#
# Bulk Modulus (GPa) = 25.46665 47.62706 36.54685
# Shear Modulus (GPa) = 12.19486 23.12842 17.66164
#
# Velocity S-wave (km/s) = 2.51764 3.46720 3.02985
# Velocity P-wave (km/s) = 4.65706 6.38622 5.58891
#
# Compressibility (1/GPa) = 0.03926704
#
# Stress axis : x y z
#
# Youngs Moduli (GPa) = 15.44101 133.76776 59.40579
#
# Poissons Ratio (x) = 0.47712 1.21945
# Poissons Ratio (y) = 0.05507 0.04801
# Poissons Ratio (z) = 0.31696 0.10810
#
# Static dielectric constant tensor:
#      x y z
#    x 1.758900 0.000000 0.000000 
#    y 0.000000 1.707070 0.000000 
#    z 0.000000 0.000000 1.703090 
# 
# From -- ./inp_files/5706.got.cif
#   From: 2010.05.17/outbox.cif.g08.bks.cpg/sg45_3_cif.got.tgz:5706.got - 2010.06.03 19:51:22.
