data_PCOD9376224
_publ_section_title
;
Structure prediction by ZEFSAII (Michael W. Deem and Ramdas Pophale) SiO2 
 PCOD9376224
Probable space group: I B A 2
;
_chemical_formula_sum "Si O2"
_cell_formula_units_Z 48
_cell_length_a 18.842527
_cell_length_b 19.510381
_cell_length_c 5.624017
_cell_angle_alpha 90.000000
_cell_angle_beta 90.000000
_cell_angle_gamma 90.000000
_cell_volume 2067.528579
_symmetry_space_group_name_H-M "I B A 2"
_symmetry_group_IT_number 45
_symmetry_cell_setting 'orthorhombic'
loop_
_space_group_symop_operation_xyz
x,y,z
-x,-y,z
-x,y,1/2+z
x,-y,1/2+z
1/2+x,1/2+y,1/2+z
1/2-x,1/2-y,1/2+z
1/2-x,1/2+y,z
1/2+x,1/2-y,z
loop_
_atom_site_type_symbol
_atom_site_label
_atom_site_fract_x
_atom_site_fract_y
_atom_site_fract_z
Si Si1 0.749363 0.506032 0.762380
Si Si2 0.405574 0.539074 0.803956
Si Si3 0.476663 0.185982 0.709601
Si Si4 0.420167 0.309890 0.216401
Si Si5 0.795486 0.846890 0.380314
Si Si6 0.671473 0.222790 0.087485
O O1 0.788728 0.499550 0.513228
O O2 0.680801 0.455874 0.777974
O O3 0.711132 0.579831 0.765059
O O4 0.422950 0.503252 0.546978
O O5 0.436202 0.615942 0.831266
O O6 0.490887 0.153577 0.448947
O O7 0.512496 0.261660 0.669965
O O8 0.393002 0.194773 0.745675
O O9 0.369376 0.259368 0.368900
O O10 0.371998 0.332880 0.993556
O O11 0.727548 0.836922 0.547471
O O12 0.785274 0.784998 0.198655
#
# Coordination Sequence:
#
# PCOD9376224 Si02
#       6
#     8   8   8   8   8   8
#     4  10  20  34  53  80 113 152 189 244 291 343
#     4  10  19  32  54  78 108 148 197 238 278 330
#     4  10  22  38  57  76 114 154 192 233 295 351
#     4  11  21  36  57  79 115 161 188 243 293 355
#     4  12  21  34  59  83 120 154 197 250 301 358
#     4  11  23  36  54  90 116 156 202 247 309 366
#
# _framework density 23.216123
#
# number of rings (size 3 to 8) (size 9 to 14) (size 15 to 20)
#    0.000    1.333    6.667    2.000    0.000    0.000 
#    0.000    0.000    0.000   23.000    0.000    0.000 
#    0.000   16.000    0.000    0.000    0.000    0.000 
#
# Total GULP energy -133891.247929 kJ/mol
# GULP energy per Si atom -5578.801997 kJ/mol
# Density = 2.316328 g / cm^3
# Si number density = 23.216123 Si / 1000 Ang^3
#
#
#
# Elastic Constant Matrix: (Units=GPa)
#
#
# Indices 1 2 3 4 5 6 
#
# 1 85.0579 5.9828 4.9048 0.0000 0.0000 0.0000
# 2 5.9828 20.0994 6.8394 0.0000 0.0000 0.0000
# 3 4.9048 6.8394 144.6459 0.0000 0.0000 0.0000
# 4 0.0000 0.0000 0.0000 21.0549 0.0000 0.0000
# 5 0.0000 0.0000 0.0000 0.0000 10.1977 0.0000
# 6 0.0000 0.0000 0.0000 0.0000 0.0000 16.2363
#
#
#
# Elastic Compliance Matrix: (Units=1/GPa)
#
#
# Indices 1 2 3 4 5 6 
#
# 1 0.012016 -0.003494 -0.000242 0.000000 0.000000 0.000000
# 2 -0.003494 0.051582 -0.002321 0.000000 0.000000 0.000000
# 3 -0.000242 -0.002321 0.007031 0.000000 0.000000 0.000000
# 4 0.000000 0.000000 0.000000 0.047495 0.000000 0.000000
# 5 0.000000 0.000000 0.000000 0.000000 0.098061 0.000000
# 6 0.000000 0.000000 0.000000 0.000000 0.000000 0.061590
#
#
# Mechanical properties :
#
#
# Convention : Reuss Voigt Hill
#
# Bulk Modulus (GPa) = 17.08934 31.69524 24.39229
# Shear Modulus (GPa) = 16.16052 24.96954 20.56503
#
# Velocity S-wave (km/s) = 2.64121 3.28308 2.97948
# Velocity P-wave (km/s) = 4.08391 5.29654 4.72925
#
# Compressibility (1/GPa) = 0.05851599
#
# Stress axis : x y z
#
# Youngs Moduli (GPa) = 83.21928 19.38645 142.21971
#
# Poissons Ratio (x) = 0.06774 0.03445
# Poissons Ratio (y) = 0.29080 0.33002
# Poissons Ratio (z) = 0.02016 0.04499
#
# Static dielectric constant tensor:
#      x y z
#    x 1.948560 0.000000 0.000000 
#    y 0.000000 1.853530 0.000000 
#    z 0.000000 0.000000 2.113500 
# 
# From -- ./inp_files/288.got.cif
#   From: 2010.05.17/outbox.cif.g08.bks.cpg/sg45_1_cif.got.tgz:288.got - 2010.06.03 19:51:22.
