data_PCOD9376157
_publ_section_title
;
Structure prediction by ZEFSAII (Michael W. Deem and Ramdas Pophale) SiO2 
 PCOD9376157
Probable space group: I B A 2
;
_chemical_formula_sum "Si O2"
_cell_formula_units_Z 64
_cell_length_a 11.491774
_cell_length_b 19.501491
_cell_length_c 14.311547
_cell_angle_alpha 90.000000
_cell_angle_beta 90.000000
_cell_angle_gamma 90.000000
_cell_volume 3207.313960
_symmetry_space_group_name_H-M "I B A 2"
_symmetry_group_IT_number 45
_symmetry_cell_setting 'orthorhombic'
loop_
_space_group_symop_operation_xyz
x,y,z
-x,-y,z
-x,y,1/2+z
x,-y,1/2+z
1/2+x,1/2+y,1/2+z
1/2-x,1/2-y,1/2+z
1/2-x,1/2+y,z
1/2+x,1/2-y,z
loop_
_atom_site_type_symbol
_atom_site_label
_atom_site_fract_x
_atom_site_fract_y
_atom_site_fract_z
Si Si1 0.020374 0.078824 0.683850
Si Si2 0.528727 0.821808 0.593404
Si Si3 0.213165 0.359746 0.956063
Si Si4 0.451236 0.575087 0.462595
Si Si5 0.379204 0.663171 0.835265
Si Si6 0.664686 0.313580 0.153894
Si Si7 0.390241 0.811227 0.771818
Si Si8 0.196231 0.703316 0.974819
O O1 0.042229 0.084852 0.573932
O O2 0.119202 0.114799 0.744976
O O3 0.905428 0.124373 0.699155
O O4 0.000000 0.000000 0.708423
O O5 0.630215 0.866825 0.546536
O O6 0.581920 0.748826 0.624911
O O7 0.466161 0.844802 0.689306
O O8 0.434072 0.808245 0.511212
O O9 0.316084 0.413251 0.940694
O O10 0.135512 0.355600 0.862921
O O11 0.273928 0.284554 0.970420
O O12 0.500000 0.500000 0.440354
O O13 0.532862 0.628578 0.408823
O O14 0.432667 0.737199 0.808182
O O15 0.251813 0.673470 0.880307
O O16 0.767109 0.292539 0.223274
O O17 0.727641 0.331807 0.056938
#
# Coordination Sequence:
#
# PCOD9376157 Si02
#       8
#     8   8   8   8   8   8   8   8
#     4  11  22  36  61  90 125 168 211 257 309 379
#     4  10  20  36  57  87 127 164 201 261 322 379
#     4  10  22  35  59  90 127 166 215 255 322 382
#     4  11  24  42  62  90 127 166 211 268 309 380
#     4  11  21  36  58  89 126 163 209 255 325 379
#     4  10  18  36  55  83 128 162 206 256 318 372
#     4  10  22  32  58  93 122 171 199 263 323 389
#     4   9  20  33  56  84 124 168 197 263 316 375
#
# _framework density 19.954391000000001
#
# number of rings (size 3 to 8) (size 9 to 14) (size 15 to 20)
#    0.000    1.750    2.500    1.875    7.000    1.000 
#    0.000    0.000    0.000    0.750    0.000    3.500 
#    0.000    0.000    0.000    0.000    0.000    0.000 
#
# Total GULP energy -178565.897364 kJ/mol
# GULP energy per Si atom -5580.184293 kJ/mol
# Density = 1.990897 g / cm^3
# Si number density = 19.954391 Si / 1000 Ang^3
#
#
#
# Elastic Constant Matrix: (Units=GPa)
#
#
# Indices 1 2 3 4 5 6 
#
# 1 89.5138 35.9971 38.0361 0.0000 0.0000 0.0000
# 2 35.9971 59.2085 40.3002 0.0001 0.0000 0.0000
# 3 38.0361 40.3002 111.4579 0.0001 0.0000 0.0000
# 4 0.0000 0.0001 0.0001 22.2618 0.0000 0.0000
# 5 0.0000 0.0000 0.0000 0.0000 18.8159 0.0000
# 6 0.0000 0.0000 0.0000 0.0000 0.0000 23.0862
#
#
#
# Elastic Compliance Matrix: (Units=1/GPa)
#
#
# Indices 1 2 3 4 5 6 
#
# 1 0.015279 -0.007614 -0.002461 0.000000 0.000000 0.000000
# 2 -0.007614 0.026197 -0.006874 0.000000 0.000000 0.000000
# 3 -0.002461 -0.006874 0.012297 0.000000 0.000000 0.000000
# 4 0.000000 0.000000 0.000000 0.044920 0.000000 0.000000
# 5 0.000000 0.000000 0.000000 0.000000 0.053147 0.000000
# 6 0.000000 0.000000 0.000000 0.000000 0.000000 0.043316
#
#
# Mechanical properties :
#
#
# Convention : Reuss Voigt Hill
#
# Bulk Modulus (GPa) = 50.31301 54.31634 52.31468
# Shear Modulus (GPa) = 21.21521 22.55588 21.88554
#
# Velocity S-wave (km/s) = 3.26419 3.36575 3.31536
# Velocity P-wave (km/s) = 6.28294 6.51028 6.39762
#
# Compressibility (1/GPa) = 0.01987557
#
# Stress axis : x y z
#
# Youngs Moduli (GPa) = 65.44845 38.17172 81.31883
#
# Poissons Ratio (x) = 0.29065 0.20013
# Poissons Ratio (y) = 0.49834 0.55897
# Poissons Ratio (z) = 0.16107 0.26239
#
# Static dielectric constant tensor:
#      x y z
#    x 1.755950 0.000000 0.000000 
#    y 0.000000 1.671250 0.000000 
#    z 0.000000 0.000000 1.760010 
# 
# From -- ./inp_files/6305.got.cif
#   From: 2010.05.17/outbox.cif.g08.bks.cpg/sg45_4_cif.got.tgz:6305.got - 2010.06.03 19:51:22.
