data_PCOD9376332
_publ_section_title
;
Structure prediction by ZEFSAII (Michael W. Deem and Ramdas Pophale) SiO2 
 PCOD9376332
Probable space group: I B A 2
;
_chemical_formula_sum "Si O2"
_cell_formula_units_Z 32
_cell_length_a 12.518530
_cell_length_b 20.682637
_cell_length_c 5.345261
_cell_angle_alpha 90.000000
_cell_angle_beta 90.000000
_cell_angle_gamma 90.000000
_cell_volume 1383.974729
_symmetry_space_group_name_H-M "I B A 2"
_symmetry_group_IT_number 45
_symmetry_cell_setting 'orthorhombic'
loop_
_space_group_symop_operation_xyz
x,y,z
-x,-y,z
-x,y,1/2+z
x,-y,1/2+z
1/2+x,1/2+y,1/2+z
1/2-x,1/2-y,1/2+z
1/2-x,1/2+y,z
1/2+x,1/2-y,z
loop_
_atom_site_type_symbol
_atom_site_label
_atom_site_fract_x
_atom_site_fract_y
_atom_site_fract_z
Si Si1 0.621542 0.270870 0.739780
Si Si2 0.569386 0.880126 0.290477
Si Si3 0.789008 0.040737 0.831770
Si Si4 0.881873 0.173077 0.738499
O O1 0.604532 0.195234 0.786879
O O2 0.670176 0.289600 0.472284
O O3 0.501670 0.300566 0.714495
O O4 0.670666 0.309357 0.973396
O O5 0.495829 0.891420 0.534154
O O6 0.673526 0.924764 0.306751
O O7 0.874403 0.097801 0.793150
O O8 0.799438 0.990608 0.604276
#
# Coordination Sequence:
#
# PCOD9376332 Si02
#       4
#     8   8   8   8
#     4  10  19  40  66 102 123 157 213 268 343 366
#     4  12  23  43  69  96 130 166 216 273 321 381
#     4  12  28  45  61  95 136 179 218 250 311 392
#     4  10  20  40  67  93 134 158 211 272 315 387
#
# _framework density 23.121808999999999
#
# number of rings (size 3 to 8) (size 9 to 14) (size 15 to 20)
#    0.000    1.000    5.000    3.000    0.000    5.000 
#    0.000   15.000    0.000    0.000    0.000    0.000 
#    0.000    0.000    0.000    0.000    0.000    0.000 
#
# Total GULP energy -89555.847911 kJ/mol
# GULP energy per Si atom -5597.240494 kJ/mol
# Density = 2.306918 g / cm^3
# Si number density = 23.121809 Si / 1000 Ang^3
#
#
#
# Elastic Constant Matrix: (Units=GPa)
#
#
# Indices 1 2 3 4 5 6 
#
# 1 66.0476 12.6898 -14.6386 0.0005 0.0004 0.0000
# 2 12.6898 49.5040 -39.1690 0.0036 0.0010 -0.0005
# 3 -14.6386 -39.1690 121.9326 0.0056 -0.0033 -0.0010
# 4 0.0005 0.0036 0.0056 55.8983 -0.0039 0.0000
# 5 0.0004 0.0010 -0.0033 -0.0039 -1.3084 0.0004
# 6 0.0000 -0.0005 -0.0010 0.0000 0.0004 57.7643
#
#
#
# Elastic Compliance Matrix: (Units=1/GPa)
#
#
# Indices 1 2 3 4 5 6 
#
# 1 0.015984 -0.003458 0.000808 0.000000 0.000000 0.000000
# 2 -0.003458 0.027833 0.008526 -0.000003 -0.000002 0.000000
# 3 0.000808 0.008526 0.011037 -0.000002 -0.000021 0.000000
# 4 0.000000 -0.000003 -0.000002 0.017890 -0.000054 0.000000
# 5 0.000000 -0.000002 -0.000021 -0.000054 -0.764319 0.000006
# 6 0.000000 0.000000 0.000000 0.000000 0.000006 0.017312
#
#
# Mechanical properties :
#
#
# Convention : Reuss Voigt Hill
#
# Bulk Modulus (GPa) = 15.01377 17.24982 16.13180
# Shear Modulus (GPa) = -7.53223 41.04431 16.75604
#
# Velocity S-wave (km/s) = -1.80685 4.21780 2.69492
# Velocity P-wave (km/s) = 1.46782 5.58538 4.08356
#
# Compressibility (1/GPa) = 0.06660553
#
# Stress axis : x y z
#
# Youngs Moduli (GPa) = 62.56219 35.92915 90.60418
#
# Poissons Ratio (x) = 0.12424 -0.07322
# Poissons Ratio (y) = 0.21633 -0.77246
# Poissons Ratio (z) = -0.05056 -0.30632
#
# Static dielectric constant tensor:
#      x y z
#    x 2.930620 0.000000 0.000000 
#    y 0.000000 1.819370 0.000000 
#    z 0.000000 0.000000 1.962450 
# 
# From -- ./inp_files/64.got.cif
#   From: 2010.05.17/outbox.cif.g08.bks.cpg/sg45_1_cif.got.tgz:64.got - 2010.06.03 19:51:22.
