data_PCOD9376422
_publ_section_title
;
Structure prediction by ZEFSAII (Michael W. Deem and Ramdas Pophale) SiO2 
 PCOD9376422
Probable space group: I B A 2
;
_chemical_formula_sum "Si O2"
_cell_formula_units_Z 56
_cell_length_a 5.516700
_cell_length_b 22.008655
_cell_length_c 21.214896
_cell_angle_alpha 90.000000
_cell_angle_beta 90.000000
_cell_angle_gamma 90.000000
_cell_volume 2575.809717
_symmetry_space_group_name_H-M "I B A 2"
_symmetry_group_IT_number 45
_symmetry_cell_setting 'orthorhombic'
loop_
_space_group_symop_operation_xyz
x,y,z
-x,-y,z
-x,y,1/2+z
x,-y,1/2+z
1/2+x,1/2+y,1/2+z
1/2-x,1/2-y,1/2+z
1/2-x,1/2+y,z
1/2+x,1/2-y,z
loop_
_atom_site_type_symbol
_atom_site_label
_atom_site_fract_x
_atom_site_fract_y
_atom_site_fract_z
Si Si1 0.319088 0.767681 0.640090
Si Si2 0.500000 0.000000 0.112409
Si Si3 0.500000 0.500000 0.750042
Si Si4 0.725890 0.073980 0.456313
Si Si5 0.766612 0.944850 0.503252
Si Si6 0.873745 0.780088 0.780858
Si Si7 0.186798 0.404910 0.311830
Si Si8 0.177163 0.600417 0.200340
O O1 0.576695 0.756240 0.606936
O O2 0.351354 0.729536 0.705442
O O3 0.290370 0.836546 0.664426
O O4 0.487558 0.058203 0.156556
O O5 0.727478 0.015698 0.066964
O O6 0.711263 0.470699 0.792059
O O7 0.594392 0.556469 0.709695
O O8 0.487551 0.090405 0.497002
O O9 0.671109 0.097472 0.386778
O O10 0.984748 0.089958 0.488870
O O11 0.748010 0.000181 0.452976
O O12 0.620254 0.751133 0.804673
O O13 0.873561 0.851137 0.794563
O O14 0.953848 0.390998 0.268010
#
# Coordination Sequence:
#
# PCOD9376422 Si02
#       8
#     8   4   4   8   8   8   8   8
#     4  10  20  39  56  77 123 168 214 240 290 386
#     4  10  22  40  58  90 124 164 206 258 318 374
#     4  12  24  32  50  88 138 158 190 246 316 398
#     4   9  20  34  58  78 106 157 199 247 287 356
#     4   9  20  40  55  76 115 160 214 239 288 366
#     4  10  20  36  56  77 119 165 204 240 287 381
#     4  12  23  35  57  90 130 159 201 249 325 384
#     4  12  24  36  56  95 131 168 200 258 326 389
#
# _framework density 21.740738
#
# number of rings (size 3 to 8) (size 9 to 14) (size 15 to 20)
#    0.000    1.714    4.286    2.571    6.000    2.286 
#    0.000    0.000    0.000    0.000    0.000   14.000 
#    0.000    0.000    0.000    0.000    0.000    0.000 
#
# Total GULP energy -156026.146874 kJ/mol
# GULP energy per Si atom -5572.362388 kJ/mol
# Density = 2.169126 g / cm^3
# Si number density = 21.740738 Si / 1000 Ang^3
#
#
#
# Elastic Constant Matrix: (Units=GPa)
#
#
# Indices 1 2 3 4 5 6 
#
# 1 188.8249 21.9687 18.6611 0.0000 0.0000 0.0000
# 2 21.9687 83.8498 5.2227 0.0000 0.0000 0.0000
# 3 18.6611 5.2227 53.8884 0.0000 0.0000 0.0000
# 4 0.0000 0.0000 0.0000 -15.5208 0.0000 0.0000
# 5 0.0000 0.0000 0.0000 0.0000 -22.3146 0.0000
# 6 0.0000 0.0000 0.0000 0.0000 0.0000 31.2725
#
#
#
# Elastic Compliance Matrix: (Units=1/GPa)
#
#
# Indices 1 2 3 4 5 6 
#
# 1 0.005634 -0.001363 -0.001819 0.000000 0.000000 0.000000
# 2 -0.001363 0.012328 -0.000723 0.000000 0.000000 0.000000
# 3 -0.001819 -0.000723 0.019257 0.000000 0.000000 0.000000
# 4 0.000000 0.000000 0.000000 -0.064430 0.000000 0.000000
# 5 0.000000 0.000000 0.000000 0.000000 -0.044814 0.000000
# 6 0.000000 0.000000 0.000000 0.000000 0.000000 0.031977
#
#
# Mechanical properties :
#
#
# Convention : Reuss Voigt Hill
#
# Bulk Modulus (GPa) = 34.00226 46.47421 40.23823
# Shear Modulus (GPa) = -222.87232 17.40146 -102.73543
#
# Velocity S-wave (km/s) = -10.13589 2.83222 -6.88167
# Velocity P-wave (km/s) = 11.01398 5.66730 6.67793
#
# Compressibility (1/GPa) = 0.02940981
#
# Stress axis : x y z
#
# Youngs Moduli (GPa) = 177.48617 81.11492 51.92961
#
# Poissons Ratio (x) = 0.11055 0.09446
# Poissons Ratio (y) = 0.24189 0.03754
# Poissons Ratio (z) = 0.32285 0.05863
#
# Static dielectric constant tensor:
#      x y z
#    x 2.001700 0.000000 0.000000 
#    y 0.000000 1.798550 0.000000 
#    z 0.000000 0.000000 1.811930 
# 
# From -- ./inp_files/9445.got.cif
#   From: 2010.05.17/outbox.cif.g08.bks.cpg/sg45_5_cif.got.tgz:9445.got - 2010.06.03 19:51:22.
