data_PCOD9376827
_publ_section_title
;
Structure prediction by ZEFSAII (Michael W. Deem and Ramdas Pophale) SiO2 
 PCOD9376827
Probable space group: I B A 2
;
_chemical_formula_sum "Si O2"
_cell_formula_units_Z 40
_cell_length_a 8.789022
_cell_length_b 13.399059
_cell_length_c 14.537184
_cell_angle_alpha 90.000000
_cell_angle_beta 90.000000
_cell_angle_gamma 90.000000
_cell_volume 1711.966013
_symmetry_space_group_name_H-M "I B A 2"
_symmetry_group_IT_number 45
_symmetry_cell_setting 'orthorhombic'
loop_
_space_group_symop_operation_xyz
x,y,z
-x,-y,z
-x,y,1/2+z
x,-y,1/2+z
1/2+x,1/2+y,1/2+z
1/2-x,1/2-y,1/2+z
1/2-x,1/2+y,z
1/2+x,1/2-y,z
loop_
_atom_site_type_symbol
_atom_site_label
_atom_site_fract_x
_atom_site_fract_y
_atom_site_fract_z
Si Si1 0.267357 0.489183 0.006110
Si Si2 0.191187 0.821408 0.611990
Si Si3 0.560871 0.809602 0.441587
Si Si4 0.384886 0.361197 0.168457
Si Si5 0.731549 0.636301 0.356794
O O1 0.223447 0.582615 0.071097
O O2 0.368476 0.423328 0.074368
O O3 0.143277 0.413431 0.965807
O O4 0.336465 0.548833 0.920451
O O5 0.095660 0.759971 0.532446
O O6 0.313545 0.746254 0.649783
O O7 0.064412 0.854196 0.685422
O O8 0.638786 0.739328 0.365234
O O9 0.395202 0.836257 0.401327
O O10 0.284115 0.400719 0.252641
#
# Coordination Sequence:
#
# PCOD9376827 Si02
#       5
#     8   8   8   8   8
#     4  10  22  40  64  92 128 168 212 266 322 384
#     4  10  21  41  65  91 127 167 211 265 323 384
#     4  10  21  41  65  91 127 167 211 265 323 384
#     4  11  23  40  64  94 127 168 214 264 321 381
#     4  11  23  40  64  94 127 168 214 264 321 381
#
# _framework density 23.364951000000001
#
# number of rings (size 3 to 8) (size 9 to 14) (size 15 to 20)
#    0.000    1.600    0.000    6.000    0.000    4.800 
#    0.000   20.000    0.000    0.000    0.000    0.000 
#    0.000    0.000    0.000    0.000    0.000    0.000 
#
# Total GULP energy -111588.143867 kJ/mol
# GULP energy per Si atom -5579.407193 kJ/mol
# Density = 2.331177 g / cm^3
# Si number density = 23.364951 Si / 1000 Ang^3
#
#
#
# Elastic Constant Matrix: (Units=GPa)
#
#
# Indices 1 2 3 4 5 6 
#
# 1 111.1666 47.3921 32.3864 0.0000 0.0000 0.0000
# 2 47.3921 149.7666 40.7613 0.0000 0.0000 0.0000
# 3 32.3864 40.7613 53.7601 0.0000 0.0000 0.0000
# 4 0.0000 0.0000 0.0000 24.7192 0.0000 0.0000
# 5 0.0000 0.0000 0.0000 0.0000 23.2213 0.0000
# 6 0.0000 0.0000 0.0000 0.0000 0.0000 32.9036
#
#
#
# Elastic Compliance Matrix: (Units=1/GPa)
#
#
# Indices 1 2 3 4 5 6 
#
# 1 0.011459 -0.002202 -0.005234 0.000000 0.000000 0.000000
# 2 -0.002202 0.008836 -0.005373 0.000000 0.000000 0.000000
# 3 -0.005234 -0.005373 0.025828 0.000000 0.000000 0.000000
# 4 0.000000 0.000000 0.000000 0.040454 0.000000 0.000000
# 5 0.000000 0.000000 0.000000 0.000000 0.043064 0.000000
# 6 0.000000 0.000000 0.000000 0.000000 0.000000 0.030392
#
#
# Mechanical properties :
#
#
# Convention : Reuss Voigt Hill
#
# Bulk Modulus (GPa) = 48.76684 61.75254 55.25969
# Shear Modulus (GPa) = 25.97588 29.11238 27.54413
#
# Velocity S-wave (km/s) = 3.33790 3.53368 3.43719
# Velocity P-wave (km/s) = 5.98102 6.56781 6.28127
#
# Compressibility (1/GPa) = 0.02050574
#
# Stress axis : x y z
#
# Youngs Moduli (GPa) = 87.26875 113.17128 38.71722
#
# Poissons Ratio (x) = 0.24915 0.20264
# Poissons Ratio (y) = 0.19213 0.20804
# Poissons Ratio (z) = 0.45675 0.60811
#
# Static dielectric constant tensor:
#      x y z
#    x 1.881770 0.000000 0.000000 
#    y 0.000000 1.864670 0.000000 
#    z 0.000000 0.000000 1.977830 
# 
# From -- ./inp_files/1624.got.cif
#   From: 2010.05.17/outbox.cif.g08.bks.cpg/sg45_1_cif.got.tgz:1624.got - 2010.06.03 19:51:22.
