data_PCOD9376797
_publ_section_title
;
Structure prediction by ZEFSAII (Michael W. Deem and Ramdas Pophale) SiO2 
 PCOD9376797
Probable space group: I B A 2
;
_chemical_formula_sum "Si O2"
_cell_formula_units_Z 60
_cell_length_a 20.659272
_cell_length_b 10.760432
_cell_length_c 11.643204
_cell_angle_alpha 90.000000
_cell_angle_beta 90.000000
_cell_angle_gamma 90.000000
_cell_volume 2588.315587
_symmetry_space_group_name_H-M "I B A 2"
_symmetry_group_IT_number 45
_symmetry_cell_setting 'orthorhombic'
loop_
_space_group_symop_operation_xyz
x,y,z
-x,-y,z
-x,y,1/2+z
x,-y,1/2+z
1/2+x,1/2+y,1/2+z
1/2-x,1/2-y,1/2+z
1/2-x,1/2+y,z
1/2+x,1/2-y,z
loop_
_atom_site_type_symbol
_atom_site_label
_atom_site_fract_x
_atom_site_fract_y
_atom_site_fract_z
Si Si1 0.968046 0.300033 0.660560
Si Si2 0.500000 0.000000 0.831289
Si Si3 0.237131 0.536521 0.097153
Si Si4 0.315500 0.822007 0.795620
Si Si5 0.194775 0.853100 0.921519
Si Si6 0.887375 0.535201 0.985306
Si Si7 0.901095 0.822996 0.607398
Si Si8 0.634937 0.410461 0.194099
O O1 0.007535 0.379703 0.753397
O O2 0.926766 0.399485 0.587461
O O3 0.914978 0.201702 0.703098
O O4 0.026063 0.226293 0.600071
O O5 0.560297 0.967059 0.909512
O O6 0.206127 0.552664 0.224997
O O7 0.301691 0.620227 0.114242
O O8 0.267726 0.419489 0.028367
O O9 0.172073 0.549453 0.023938
O O10 0.248202 0.772550 0.851968
O O11 0.359302 0.858391 0.902449
O O12 0.355150 0.740021 0.705425
O O13 0.164420 0.938670 0.820406
O O14 0.133456 0.800332 0.986468
O O15 0.898761 0.969024 0.639959
#
# Coordination Sequence:
#
# PCOD9376797 Si02
#       8
#     8   4   8   8   8   8   8   8
#     4  12  27  46  71 106 147 193 246 304 380 457
#     4  12  26  46  70 108 140 192 244 306 362 458
#     4   9  21  43  67 106 139 183 244 300 365 432
#     4  10  21  40  66 103 141 191 244 305 370 434
#     4   9  22  41  71 102 142 199 239 309 376 438
#     4  11  24  42  73  99 141 192 237 306 368 435
#     4  11  24  43  69 106 146 188 249 307 370 459
#     4  10  24  46  69 105 147 188 244 306 371 455
#
# _framework density 23.181099
#
# number of rings (size 3 to 8) (size 9 to 14) (size 15 to 20)
#    0.000    1.600    1.333    1.600    3.733    9.600 
#    0.000    4.000    0.000    0.000    0.000    0.000 
#    0.000    0.000    0.000    0.000    0.000    0.000 
#
# Total GULP energy -167109.250712 kJ/mol
# GULP energy per Si atom -5570.308357 kJ/mol
# Density = 2.312834 g / cm^3
# Si number density = 23.181099 Si / 1000 Ang^3
#
#
#
# Elastic Constant Matrix: (Units=GPa)
#
#
# Indices 1 2 3 4 5 6 
#
# 1 132.0707 20.1085 29.1872 0.0000 0.0000 0.0000
# 2 20.1085 65.7735 19.0041 0.0000 0.0000 0.0000
# 3 29.1872 19.0041 63.7528 0.0000 0.0000 0.0000
# 4 0.0000 0.0000 0.0000 18.5938 0.0000 0.0000
# 5 0.0000 0.0000 0.0000 0.0000 20.7195 0.0000
# 6 0.0000 0.0000 0.0000 0.0000 0.0000 23.0382
#
#
#
# Elastic Compliance Matrix: (Units=1/GPa)
#
#
# Indices 1 2 3 4 5 6 
#
# 1 0.008581 -0.001629 -0.003443 0.000000 0.000000 0.000000
# 2 -0.001629 0.016946 -0.004306 0.000000 0.000000 0.000000
# 3 -0.003443 -0.004306 0.018545 0.000000 0.000000 0.000000
# 4 0.000000 0.000000 0.000000 0.053781 0.000000 0.000000
# 5 0.000000 0.000000 0.000000 0.000000 0.048264 0.000000
# 6 0.000000 0.000000 0.000000 0.000000 0.000000 0.043406
#
#
# Mechanical properties :
#
#
# Convention : Reuss Voigt Hill
#
# Bulk Modulus (GPa) = 39.49893 44.24409 41.87151
# Shear Modulus (GPa) = 23.07164 25.35675 24.21420
#
# Velocity S-wave (km/s) = 3.15823 3.31094 3.23548
# Velocity P-wave (km/s) = 5.51139 5.80897 5.66214
#
# Compressibility (1/GPa) = 0.02531714
#
# Stress axis : x y z
#
# Youngs Moduli (GPa) = 116.54305 59.01219 53.92196
#
# Poissons Ratio (x) = 0.09610 0.18565
# Poissons Ratio (y) = 0.18979 0.23218
# Poissons Ratio (z) = 0.40124 0.25409
#
# Static dielectric constant tensor:
#      x y z
#    x 1.880960 0.000000 0.000000 
#    y 0.000000 1.896920 0.000000 
#    z 0.000000 0.000000 1.874740 
# 
# From -- ./inp_files/4678.got.cif
#   From: 2010.05.17/outbox.cif.g08.bks.cpg/sg45_3_cif.got.tgz:4678.got - 2010.06.03 19:51:22.
