data_PCOD9376881
_publ_section_title
;
Structure prediction by ZEFSAII (Michael W. Deem and Ramdas Pophale) SiO2 
 PCOD9376881
Probable space group: I B A 2
;
_chemical_formula_sum "Si O2"
_cell_formula_units_Z 48
_cell_length_a 7.661515
_cell_length_b 24.038376
_cell_length_c 11.526562
_cell_angle_alpha 90.000000
_cell_angle_beta 90.000000
_cell_angle_gamma 90.000000
_cell_volume 2122.851284
_symmetry_space_group_name_H-M "I B A 2"
_symmetry_group_IT_number 45
_symmetry_cell_setting 'orthorhombic'
loop_
_space_group_symop_operation_xyz
x,y,z
-x,-y,z
-x,y,1/2+z
x,-y,1/2+z
1/2+x,1/2+y,1/2+z
1/2-x,1/2-y,1/2+z
1/2-x,1/2+y,z
1/2+x,1/2-y,z
loop_
_atom_site_type_symbol
_atom_site_label
_atom_site_fract_x
_atom_site_fract_y
_atom_site_fract_z
Si Si1 0.797379 0.555812 0.596090
Si Si2 0.162569 0.626687 0.866147
Si Si3 0.782414 0.349693 0.258514
Si Si4 0.792401 0.785711 0.041441
Si Si5 0.836278 0.828737 0.493821
Si Si6 0.786000 0.431011 0.631739
O O1 0.794381 0.582043 0.467764
O O2 0.712874 0.596386 0.690585
O O3 0.725003 0.494001 0.611237
O O4 0.004112 0.560914 0.625198
O O5 0.251485 0.601220 0.751563
O O6 0.960550 0.635215 0.827591
O O7 0.217213 0.684873 0.925465
O O8 0.812351 0.305700 0.155150
O O9 0.650505 0.328095 0.355091
O O10 0.797168 0.719745 0.029148
O O11 0.984747 0.810470 0.051895
O O12 0.778893 0.889361 0.533451
#
# Coordination Sequence:
#
# PCOD9376881 Si02
#       6
#     8   8   8   8   8   8
#     4   9  20  40  68 104 129 173 230 275 338 406
#     4  10  21  43  68  97 138 174 227 285 336 410
#     4  10  23  44  69  97 139 177 226 284 344 415
#     4  11  28  43  68 102 136 183 233 283 348 422
#     4  12  26  43  69  97 138 183 230 287 350 403
#     4  10  22  36  70 100 133 174 224 280 335 404
#
# _framework density 22.611098999999999
#
# number of rings (size 3 to 8) (size 9 to 14) (size 15 to 20)
#    0.000    1.667    1.667    1.000   11.667    1.333 
#    0.000    3.333    0.000    0.000    0.000    0.000 
#    0.000    0.000    0.000    0.000    0.000    0.000 
#
# Total GULP energy -134021.511864 kJ/mol
# GULP energy per Si atom -5584.229661 kJ/mol
# Density = 2.255963 g / cm^3
# Si number density = 22.611099 Si / 1000 Ang^3
#
#
#
# Elastic Constant Matrix: (Units=GPa)
#
#
# Indices 1 2 3 4 5 6 
#
# 1 53.7778 17.9655 15.3202 0.0000 0.0000 0.0000
# 2 17.9655 127.3501 23.7617 0.0000 0.0000 0.0000
# 3 15.3202 23.7617 98.6364 0.0001 0.0000 0.0000
# 4 0.0000 0.0000 0.0001 14.4968 0.0000 0.0000
# 5 0.0000 0.0000 0.0000 0.0000 21.7559 0.0000
# 6 0.0000 0.0000 0.0000 0.0000 0.0000 19.5016
#
#
#
# Elastic Compliance Matrix: (Units=1/GPa)
#
#
# Indices 1 2 3 4 5 6 
#
# 1 0.020111 -0.002360 -0.002555 0.000000 0.000000 0.000000
# 2 -0.002360 0.008499 -0.001681 0.000000 0.000000 0.000000
# 3 -0.002555 -0.001681 0.010940 0.000000 0.000000 0.000000
# 4 0.000000 0.000000 0.000000 0.068981 0.000000 0.000000
# 5 0.000000 0.000000 0.000000 0.000000 0.045965 0.000000
# 6 0.000000 0.000000 0.000000 0.000000 0.000000 0.051278
#
#
# Mechanical properties :
#
#
# Convention : Reuss Voigt Hill
#
# Bulk Modulus (GPa) = 37.93935 43.76211 40.85073
# Shear Modulus (GPa) = 21.95372 25.99867 23.97620
#
# Velocity S-wave (km/s) = 3.11935 3.39458 3.25987
# Velocity P-wave (km/s) = 5.45796 5.89580 5.68110
#
# Compressibility (1/GPa) = 0.02635786
#
# Stress axis : x y z
#
# Youngs Moduli (GPa) = 49.72287 117.66125 91.40768
#
# Poissons Ratio (x) = 0.27773 0.23355
# Poissons Ratio (y) = 0.11737 0.15364
# Poissons Ratio (z) = 0.12705 0.19776
#
# Static dielectric constant tensor:
#      x y z
#    x 1.906780 0.000000 0.000000 
#    y 0.000000 1.842520 0.000000 
#    z 0.000000 0.000000 1.818330 
# 
# From -- ./inp_files/3278.got.cif
#   From: 2010.05.17/outbox.cif.g08.bks.cpg/sg45_2_cif.got.tgz:3278.got - 2010.06.03 19:51:22.
