data_PCOD9376412
_publ_section_title
;
Structure prediction by ZEFSAII (Michael W. Deem and Ramdas Pophale) SiO2 
 PCOD9376412
Probable space group: I B A 2
;
_chemical_formula_sum "Si O2"
_cell_formula_units_Z 64
_cell_length_a 23.238568
_cell_length_b 8.414472
_cell_length_c 16.648257
_cell_angle_alpha 90.000000
_cell_angle_beta 90.000000
_cell_angle_gamma 90.000000
_cell_volume 3255.404831
_symmetry_space_group_name_H-M "I B A 2"
_symmetry_group_IT_number 45
_symmetry_cell_setting 'orthorhombic'
loop_
_space_group_symop_operation_xyz
x,y,z
-x,-y,z
-x,y,1/2+z
x,-y,1/2+z
1/2+x,1/2+y,1/2+z
1/2-x,1/2-y,1/2+z
1/2-x,1/2+y,z
1/2+x,1/2-y,z
loop_
_atom_site_type_symbol
_atom_site_label
_atom_site_fract_x
_atom_site_fract_y
_atom_site_fract_z
Si Si1 0.703753 0.695230 0.129520
Si Si2 0.413761 0.104687 0.689144
Si Si3 0.616281 0.210759 0.949577
Si Si4 0.890516 0.604857 0.533475
Si Si5 0.632206 0.194856 0.766176
Si Si6 0.006291 0.817518 0.001632
Si Si7 0.173242 0.832415 0.602377
Si Si8 0.485092 0.323531 0.195528
O O1 0.660647 0.792974 0.071790
O O2 0.689492 0.761416 0.218045
O O3 0.769109 0.728146 0.106090
O O4 0.688249 0.510730 0.125777
O O5 0.373502 0.249285 0.659919
O O6 0.471921 0.183171 0.722176
O O7 0.420080 0.993259 0.608615
O O8 0.382833 0.990327 0.752457
O O9 0.632393 0.240286 0.858492
O O10 0.547991 0.227180 0.964659
O O11 0.646358 0.326670 0.013426
O O12 0.632534 0.032715 0.976063
O O13 0.935324 0.719483 0.488498
O O14 0.579466 0.285280 0.721779
O O15 0.005418 0.823679 0.099150
O O16 0.000000 0.000000 0.973790
O O17 0.500000 0.500000 0.225188
#
# Coordination Sequence:
#
# PCOD9376412 Si02
#       8
#     8   8   8   8   8   8   8   8
#     4  11  22  42  68  91 114 163 210 244 297 373
#     4  10  20  35  59  87 121 163 205 237 295 367
#     4  11  24  39  61  94 127 155 200 261 307 346
#     4  10  20  35  59  87 121 163 205 237 295 367
#     4  11  24  39  61  94 127 155 200 261 307 346
#     4  11  20  34  59  90 125 166 205 242 295 370
#     4  11  22  42  68  91 114 163 210 244 297 373
#     4  11  20  34  59  90 125 166 205 242 295 370
#
# _framework density 19.659611999999999
#
# number of rings (size 3 to 8) (size 9 to 14) (size 15 to 20)
#    0.000    1.250    5.000    4.500    0.000    2.500 
#    0.000    8.750    0.000    0.000    0.000    0.000 
#    0.000    0.000    0.000    0.000    0.000    0.000 
#
# Total GULP energy -178735.462068 kJ/mol
# GULP energy per Si atom -5585.483190 kJ/mol
# Density = 1.961487 g / cm^3
# Si number density = 19.659612 Si / 1000 Ang^3
#
#
#
# Elastic Constant Matrix: (Units=GPa)
#
#
# Indices 1 2 3 4 5 6 
#
# 1 55.6350 -14.7788 -0.9682 0.0000 0.0000 0.0000
# 2 -14.7788 77.7830 -24.7161 0.0000 0.0000 0.0000
# 3 -0.9682 -24.7161 48.6766 0.0000 0.0000 0.0000
# 4 0.0000 0.0000 0.0000 6.3866 0.0000 0.0000
# 5 0.0000 0.0000 0.0000 0.0000 11.5142 0.0000
# 6 0.0000 0.0000 0.0000 0.0000 0.0000 34.0745
#
#
#
# Elastic Compliance Matrix: (Units=1/GPa)
#
#
# Indices 1 2 3 4 5 6 
#
# 1 0.019216 0.004498 0.002666 0.000000 0.000000 0.000000
# 2 0.004498 0.016383 0.008408 0.000000 0.000000 0.000000
# 3 0.002666 0.008408 0.024866 0.000000 0.000000 0.000000
# 4 0.000000 0.000000 0.000000 0.156578 0.000000 0.000000
# 5 0.000000 0.000000 0.000000 0.000000 0.086849 0.000000
# 6 0.000000 0.000000 0.000000 0.000000 0.000000 0.029347
#
#
# Mechanical properties :
#
#
# Convention : Reuss Voigt Hill
#
# Bulk Modulus (GPa) = 10.91600 11.24095 11.07848
# Shear Modulus (GPa) = 15.03170 25.23223 20.13197
#
# Velocity S-wave (km/s) = 2.76814 3.58642 3.20351
# Velocity P-wave (km/s) = 3.97257 4.78331 4.39667
#
# Compressibility (1/GPa) = 0.09160866
#
# Stress axis : x y z
#
# Youngs Moduli (GPa) = 52.04110 61.04038 40.21562
#
# Poissons Ratio (x) = -0.27457 -0.10722
# Poissons Ratio (y) = -0.23409 -0.33813
# Poissons Ratio (z) = -0.13875 -0.51322
#
# Static dielectric constant tensor:
#      x y z
#    x 1.681080 0.000000 0.000000 
#    y 0.000000 1.721020 0.000000 
#    z 0.000000 0.000000 1.688640 
# 
# From -- ./inp_files/8459.got.cif
#   From: 2010.05.17/outbox.cif.g08.bks.cpg/sg45_5_cif.got.tgz:8459.got - 2010.06.03 19:51:22.
