data_PCOD9376886
_publ_section_title
;
Structure prediction by ZEFSAII (Michael W. Deem and Ramdas Pophale) SiO2 
 PCOD9376886
Probable space group: I B A 2
;
_chemical_formula_sum "Si O2"
_cell_formula_units_Z 56
_cell_length_a 35.851928
_cell_length_b 4.933248
_cell_length_c 12.809127
_cell_angle_alpha 90.000000
_cell_angle_beta 90.000000
_cell_angle_gamma 90.000000
_cell_volume 2265.504847
_symmetry_space_group_name_H-M "I B A 2"
_symmetry_group_IT_number 45
_symmetry_cell_setting 'orthorhombic'
loop_
_space_group_symop_operation_xyz
x,y,z
-x,-y,z
-x,y,1/2+z
x,-y,1/2+z
1/2+x,1/2+y,1/2+z
1/2-x,1/2-y,1/2+z
1/2-x,1/2+y,z
1/2+x,1/2-y,z
loop_
_atom_site_type_symbol
_atom_site_label
_atom_site_fract_x
_atom_site_fract_y
_atom_site_fract_z
Si Si1 0.958218 0.556135 0.063250
Si Si2 0.773793 0.205431 0.348001
Si Si3 0.775900 0.196877 0.103080
Si Si4 0.459224 0.556378 0.415508
Si Si5 0.379572 0.012803 0.174412
Si Si6 0.163417 0.178942 0.999850
Si Si7 0.884353 0.982620 0.311327
O O1 0.922565 0.507358 0.135974
O O2 0.000000 0.500000 0.107370
O O3 0.955135 0.355140 0.963404
O O4 0.955781 0.856097 0.015069
O O5 0.738163 0.395741 0.367203
O O6 0.783211 0.214019 0.226625
O O7 0.807810 0.304960 0.416750
O O8 0.758705 0.491279 0.081143
O O9 0.811875 0.056698 0.053293
O O10 0.500000 0.500000 0.371466
O O11 0.428386 0.501783 0.329629
O O12 0.353986 0.889912 0.081846
O O13 0.373080 0.310846 0.219664
O O14 0.373694 0.813463 0.272330
O O15 0.132385 0.050933 0.924406
#
# Coordination Sequence:
#
# PCOD9376886 Si02
#       7
#     8   8   8   8   8   8   8
#     4  10  21  43  72 100 136 186 240 297 357 425
#     4  10  23  44  70 101 132 174 233 284 340 421
#     4  10  23  44  71 104 135 179 241 288 346 430
#     4  10  21  43  73 100 136 187 239 295 359 423
#     4  12  28  44  68 106 142 188 241 287 354 433
#     4  12  26  46  72 100 148 191 224 299 364 415
#     4  12  28  44  68 105 143 187 242 288 352 433
#
# _framework density 24.718554999999999
#
# number of rings (size 3 to 8) (size 9 to 14) (size 15 to 20)
#    0.000    1.143    1.429    3.429    0.000    9.143 
#    0.000    0.000    0.000    0.000    0.000    0.000 
#    0.000    0.000    0.000    0.000    0.000    0.000 
#
# Total GULP energy -156879.706794 kJ/mol
# GULP energy per Si atom -5602.846671 kJ/mol
# Density = 2.466229 g / cm^3
# Si number density = 24.718555 Si / 1000 Ang^3
#
#
#
# Elastic Constant Matrix: (Units=GPa)
#
#
# Indices 1 2 3 4 5 6 
#
# 1 126.4409 15.5049 53.6047 0.0000 0.0000 0.0000
# 2 15.5049 66.6561 6.5230 0.0000 0.0000 0.0000
# 3 53.6047 6.5230 107.4941 0.0000 0.0000 0.0000
# 4 0.0000 0.0000 0.0000 26.7026 0.0000 0.0000
# 5 0.0000 0.0000 0.0000 0.0000 33.5223 0.0000
# 6 0.0000 0.0000 0.0000 0.0000 0.0000 24.0725
#
#
#
# Elastic Compliance Matrix: (Units=1/GPa)
#
#
# Indices 1 2 3 4 5 6 
#
# 1 0.010262 -0.001898 -0.005002 0.000000 0.000000 0.000000
# 2 -0.001898 0.015443 0.000009 0.000000 0.000000 0.000000
# 3 -0.005002 0.000009 0.011797 0.000000 0.000000 0.000000
# 4 0.000000 0.000000 0.000000 0.037450 0.000000 0.000000
# 5 0.000000 0.000000 0.000000 0.000000 0.029831 0.000000
# 6 0.000000 0.000000 0.000000 0.000000 0.000000 0.041541
#
#
# Mechanical properties :
#
#
# Convention : Reuss Voigt Hill
#
# Bulk Modulus (GPa) = 42.15782 50.20625 46.18204
# Shear Modulus (GPa) = 29.75975 31.85670 30.80823
#
# Velocity S-wave (km/s) = 3.47355 3.59385 3.53421
# Velocity P-wave (km/s) = 5.76017 6.12995 5.94793
#
# Compressibility (1/GPa) = 0.02372039
#
# Stress axis : x y z
#
# Youngs Moduli (GPa) = 97.44404 64.75480 84.76828
#
# Poissons Ratio (x) = 0.12288 0.42405
# Poissons Ratio (y) = 0.18491 -0.00078
# Poissons Ratio (z) = 0.48746 -0.00059
#
# Static dielectric constant tensor:
#      x y z
#    x 1.983290 0.000000 0.000000 
#    y 0.000000 1.901390 0.000000 
#    z 0.000000 0.000000 1.936420 
# 
# From -- ./inp_files/7171.got.cif
#   From: 2010.05.17/outbox.cif.g08.bks.cpg/sg45_4_cif.got.tgz:7171.got - 2010.06.03 19:51:22.
