data_PCOD9376692
_publ_section_title
;
Structure prediction by ZEFSAII (Michael W. Deem and Ramdas Pophale) SiO2 
 PCOD9376692
Probable space group: I B A 2
;
_chemical_formula_sum "Si O2"
_cell_formula_units_Z 64
_cell_length_a 7.159246
_cell_length_b 28.728343
_cell_length_c 12.131719
_cell_angle_alpha 90.000000
_cell_angle_beta 90.000000
_cell_angle_gamma 90.000000
_cell_volume 2495.170375
_symmetry_space_group_name_H-M "I B A 2"
_symmetry_group_IT_number 45
_symmetry_cell_setting 'orthorhombic'
loop_
_space_group_symop_operation_xyz
x,y,z
-x,-y,z
-x,y,1/2+z
x,-y,1/2+z
1/2+x,1/2+y,1/2+z
1/2-x,1/2-y,1/2+z
1/2-x,1/2+y,z
1/2+x,1/2-y,z
loop_
_atom_site_type_symbol
_atom_site_label
_atom_site_fract_x
_atom_site_fract_y
_atom_site_fract_z
Si Si1 0.637906 0.686094 0.838270
Si Si2 0.719946 0.169778 0.063831
Si Si3 0.870591 0.078489 0.789561
Si Si4 0.958783 0.282172 0.765336
Si Si5 0.120371 0.639620 0.911549
Si Si6 0.753835 0.533141 0.002572
Si Si7 0.675935 0.565759 0.542201
Si Si8 0.262126 0.915797 0.210483
O O1 0.595778 0.632517 0.817564
O O2 0.521761 0.727716 0.785941
O O3 0.839843 0.694775 0.782317
O O4 0.651167 0.692095 0.970546
O O5 0.627072 0.205925 0.147411
O O6 0.808186 0.129465 0.139434
O O7 0.557742 0.144929 0.990748
O O8 0.741108 0.055523 0.882066
O O9 0.784275 0.072043 0.670163
O O10 0.085789 0.060233 0.772785
O O11 0.842608 0.309247 0.861391
O O12 0.105938 0.607111 0.802603
O O13 0.277236 0.613696 0.982196
O O14 0.537251 0.548512 0.029059
O O15 0.787515 0.478314 0.994689
O O16 0.847348 0.552295 0.114599
#
# Coordination Sequence:
#
# PCOD9376692 Si02
#       8
#     8   8   8   8   8   8   8   8
#     4  11  24  43  66  97 134 179 226 285 340 416
#     4  10  22  43  65  93 131 178 228 287 336 413
#     4  11  22  39  66  98 137 173 223 282 349 406
#     4  10  25  41  67  97 136 179 231 285 344 415
#     4  10  21  41  63  91 134 184 224 272 355 402
#     4  10  21  37  62 100 136 167 230 284 336 407
#     4  10  22  35  64  98 131 180 217 284 343 405
#     4  10  21  40  66  93 132 179 223 287 338 410
#
# _framework density 25.649550999999999
#
# number of rings (size 3 to 8) (size 9 to 14) (size 15 to 20)
#    0.000    1.750    2.500    0.750    5.250    4.000 
#    0.000    0.625    0.000    1.500    0.000    0.000 
#    0.000    0.000    0.000    0.000    0.000    0.000 
#
# Total GULP energy -178938.828750 kJ/mol
# GULP energy per Si atom -5591.838398 kJ/mol
# Density = 2.559117 g / cm^3
# Si number density = 25.649551 Si / 1000 Ang^3
#
#
#
# Elastic Constant Matrix: (Units=GPa)
#
#
# Indices 1 2 3 4 5 6 
#
# 1 56.4880 21.4616 26.1303 0.0000 0.0000 0.0000
# 2 21.4616 78.4277 35.1804 -0.0001 0.0000 0.0000
# 3 26.1303 35.1804 168.5420 -0.0002 0.0000 0.0000
# 4 0.0000 -0.0001 -0.0002 32.3433 0.0000 0.0000
# 5 0.0000 0.0000 0.0000 0.0000 33.0902 0.0000
# 6 0.0000 0.0000 0.0000 0.0000 0.0000 23.9364
#
#
#
# Elastic Compliance Matrix: (Units=1/GPa)
#
#
# Indices 1 2 3 4 5 6 
#
# 1 0.020478 -0.004611 -0.002212 0.000000 0.000000 0.000000
# 2 -0.004611 0.015106 -0.002438 0.000000 0.000000 0.000000
# 3 -0.002212 -0.002438 0.006785 0.000000 0.000000 0.000000
# 4 0.000000 0.000000 0.000000 0.030918 0.000000 0.000000
# 5 0.000000 0.000000 0.000000 0.000000 0.030220 0.000000
# 6 0.000000 0.000000 0.000000 0.000000 0.000000 0.041777
#
#
# Mechanical properties :
#
#
# Convention : Reuss Voigt Hill
#
# Bulk Modulus (GPa) = 41.93634 52.11137 47.02386
# Shear Modulus (GPa) = 29.11065 32.58633 30.84849
#
# Velocity S-wave (km/s) = 3.37254 3.56820 3.47175
# Velocity P-wave (km/s) = 5.61699 6.11039 5.86888
#
# Compressibility (1/GPa) = 0.02384567
#
# Stress axis : x y z
#
# Youngs Moduli (GPa) = 48.83216 66.19780 147.38013
#
# Poissons Ratio (x) = 0.30527 0.32605
# Poissons Ratio (y) = 0.22519 0.35935
# Poissons Ratio (z) = 0.10803 0.16141
#
# Static dielectric constant tensor:
#      x y z
#    x 2.170850 0.000000 0.000000 
#    y 0.000000 2.025810 0.000000 
#    z 0.000000 0.000000 1.998070 
# 
# From -- ./inp_files/3428.got.cif
#   From: 2010.05.17/outbox.cif.g08.bks.cpg/sg45_2_cif.got.tgz:3428.got - 2010.06.03 19:51:22.
