data_PCOD9376044
_publ_section_title
;
Structure prediction by ZEFSAII (Michael W. Deem and Ramdas Pophale) SiO2 
 PCOD9376044
Probable space group: I B A 2
;
_chemical_formula_sum "Si O2"
_cell_formula_units_Z 48
_cell_length_a 12.369545
_cell_length_b 12.303039
_cell_length_c 12.469685
_cell_angle_alpha 90.000000
_cell_angle_beta 90.000000
_cell_angle_gamma 90.000000
_cell_volume 1897.674004
_symmetry_space_group_name_H-M "I B A 2"
_symmetry_group_IT_number 45
_symmetry_cell_setting 'orthorhombic'
loop_
_space_group_symop_operation_xyz
x,y,z
-x,-y,z
-x,y,1/2+z
x,-y,1/2+z
1/2+x,1/2+y,1/2+z
1/2-x,1/2-y,1/2+z
1/2-x,1/2+y,z
1/2+x,1/2-y,z
loop_
_atom_site_type_symbol
_atom_site_label
_atom_site_fract_x
_atom_site_fract_y
_atom_site_fract_z
Si Si1 0.713034 0.826285 0.514050
Si Si2 0.880070 0.449010 0.946192
Si Si3 0.383123 0.266474 0.310047
Si Si4 0.610150 0.439974 0.633441
Si Si5 0.686139 0.911899 0.171070
Si Si6 0.899940 0.638262 0.238872
O O1 0.647256 0.819565 0.626830
O O2 0.837037 0.850076 0.552660
O O3 0.689384 0.942225 0.456828
O O4 0.611028 0.992341 0.718198
O O5 0.840773 0.367980 0.854012
O O6 0.000000 0.500000 0.933063
O O7 0.870436 0.386753 0.058321
O O8 0.395990 0.380285 0.249365
O O9 0.346779 0.257674 0.433525
O O10 0.492376 0.200702 0.275095
O O11 0.500000 0.500000 0.602387
O O12 0.700351 0.532572 0.646627
O O13 0.701596 0.810092 0.246725
#
# Coordination Sequence:
#
# PCOD9376044 Si02
#       6
#     8   8   8   8   8   8
#     4  10  23  42  71 108 150 198 261 316 401 475
#     4  10  15  32  65 104 143 176 231 328 383 437
#     4  12  22  44  76 106 148 200 258 327 400 478
#     4  10  26  50  71 106 161 207 260 327 403 477
#     4  10  22  40  70 103 147 193 258 312 389 469
#     4  10  19  36  69 111 142 176 252 328 392 449
#
# _framework density 25.294125000000001
#
# number of rings (size 3 to 8) (size 9 to 14) (size 15 to 20)
#    0.000    2.000    3.333    2.500    0.000    3.333 
#    6.000    4.167    0.000    0.000    0.000    0.000 
#    0.000    0.000    0.000    0.000    0.000    0.000 
#
# Total GULP energy -133813.251161 kJ/mol
# GULP energy per Si atom -5575.552132 kJ/mol
# Density = 2.523655 g / cm^3
# Si number density = 25.294125 Si / 1000 Ang^3
#
#
#
# Elastic Constant Matrix: (Units=GPa)
#
#
# Indices 1 2 3 4 5 6 
#
# 1 148.4025 42.4626 43.3960 0.0000 0.0000 0.0000
# 2 42.4626 64.5843 36.0299 0.0000 0.0000 0.0000
# 3 43.3960 36.0299 196.9727 0.0000 0.0000 0.0000
# 4 0.0000 0.0000 0.0000 36.1891 0.0000 0.0000
# 5 0.0000 0.0000 0.0000 0.0000 26.4287 0.0000
# 6 0.0000 0.0000 0.0000 0.0000 0.0000 15.4455
#
#
#
# Elastic Compliance Matrix: (Units=1/GPa)
#
#
# Indices 1 2 3 4 5 6 
#
# 1 0.008454 -0.005033 -0.000942 0.000000 0.000000 0.000000
# 2 -0.005033 0.020239 -0.002593 0.000000 0.000000 0.000000
# 3 -0.000942 -0.002593 0.005759 0.000000 0.000000 0.000000
# 4 0.000000 0.000000 0.000000 0.027633 0.000000 0.000000
# 5 0.000000 0.000000 0.000000 0.000000 0.037838 0.000000
# 6 0.000000 0.000000 0.000000 0.000000 0.000000 0.064744
#
#
# Mechanical properties :
#
#
# Convention : Reuss Voigt Hill
#
# Bulk Modulus (GPa) = 57.75048 72.63738 65.19393
# Shear Modulus (GPa) = 26.65613 34.81740 30.73676
#
# Velocity S-wave (km/s) = 3.24982 3.71415 3.48972
# Velocity P-wave (km/s) = 6.07972 6.86823 6.48597
#
# Compressibility (1/GPa) = 0.01731587
#
# Stress axis : x y z
#
# Youngs Moduli (GPa) = 118.28863 49.40883 173.64916
#
# Poissons Ratio (x) = 0.24866 0.16357
# Poissons Ratio (y) = 0.59532 0.45033
# Poissons Ratio (z) = 0.11142 0.12813
#
# Static dielectric constant tensor:
#      x y z
#    x 1.974610 0.000000 0.000000 
#    y 0.000000 2.088550 0.000000 
#    z 0.000000 0.000000 2.128000 
# 
# From -- ./inp_files/6103.got.cif
#   From: 2010.05.17/outbox.cif.g08.bks.cpg/sg45_4_cif.got.tgz:6103.got - 2010.06.03 19:51:22.
