data_PCOD9376757
_publ_section_title
;
Structure prediction by ZEFSAII (Michael W. Deem and Ramdas Pophale) SiO2 
 PCOD9376757
Probable space group: I B A 2
;
_chemical_formula_sum "Si O2"
_cell_formula_units_Z 40
_cell_length_a 14.284438
_cell_length_b 9.069103
_cell_length_c 15.274791
_cell_angle_alpha 90.000000
_cell_angle_beta 90.000000
_cell_angle_gamma 90.000000
_cell_volume 1978.803953
_symmetry_space_group_name_H-M "I B A 2"
_symmetry_group_IT_number 45
_symmetry_cell_setting 'orthorhombic'
loop_
_space_group_symop_operation_xyz
x,y,z
-x,-y,z
-x,y,1/2+z
x,-y,1/2+z
1/2+x,1/2+y,1/2+z
1/2-x,1/2-y,1/2+z
1/2-x,1/2+y,z
1/2+x,1/2-y,z
loop_
_atom_site_type_symbol
_atom_site_label
_atom_site_fract_x
_atom_site_fract_y
_atom_site_fract_z
Si Si1 0.397221 0.074348 0.259730
Si Si2 0.150860 0.360210 0.407403
Si Si3 0.977296 0.840897 0.858837
Si Si4 0.669266 0.333537 0.007547
Si Si5 0.822546 0.478435 0.576305
O O1 0.415601 0.237780 0.295552
O O2 0.352057 0.055794 0.165336
O O3 0.500000 0.000000 0.256395
O O4 0.339266 0.978934 0.330233
O O5 0.248606 0.290276 0.437781
O O6 0.121090 0.451425 0.494262
O O7 0.073297 0.244249 0.379571
O O8 0.921642 0.860936 0.950126
O O9 0.000000 0.000000 0.820453
O O10 0.715261 0.475267 0.054229
O O11 0.660973 0.195972 0.073091
#
# Coordination Sequence:
#
# PCOD9376757 Si02
#       5
#     8   8   8   8   8
#     4  10  22  39  63  92 121 176 209 255 320 382
#     4   9  22  41  63  88 128 171 206 256 321 376
#     4  11  21  39  68  94 125 166 213 267 316 375
#     4  10  21  39  64  90 125 172 205 263 317 371
#     4  10  22  39  61  90 129 161 213 255 316 379
#
# _framework density 20.214230000000001
#
# number of rings (size 3 to 8) (size 9 to 14) (size 15 to 20)
#    1.200    0.800    2.000    1.200    2.800    1.600 
#    0.000    5.000    0.000    0.000    0.000    0.000 
#    0.000    0.000    0.000    0.000    0.000    0.000 
#
# Total GULP energy -111507.547097 kJ/mol
# GULP energy per Si atom -5575.377355 kJ/mol
# Density = 2.016822 g / cm^3
# Si number density = 20.214230 Si / 1000 Ang^3
#
#
#
# Elastic Constant Matrix: (Units=GPa)
#
#
# Indices 1 2 3 4 5 6 
#
# 1 26.0987 -4.8164 -17.0859 0.0000 0.0000 0.0000
# 2 -4.8164 75.8976 6.4152 0.0000 0.0000 0.0000
# 3 -17.0859 6.4152 76.7109 0.0000 0.0000 0.0000
# 4 0.0000 0.0000 0.0000 -9.1180 0.0000 0.0000
# 5 0.0000 0.0000 0.0000 0.0000 16.1770 0.0000
# 6 0.0000 0.0000 0.0000 0.0000 0.0000 18.3715
#
#
#
# Elastic Compliance Matrix: (Units=1/GPa)
#
#
# Indices 1 2 3 4 5 6 
#
# 1 0.045165 0.002030 0.009890 0.000000 0.000000 0.000000
# 2 0.002030 0.013361 -0.000665 0.000000 0.000000 0.000000
# 3 0.009890 -0.000665 0.015294 0.000000 0.000000 0.000000
# 4 0.000000 0.000000 0.000000 -0.109673 0.000000 0.000000
# 5 0.000000 0.000000 0.000000 0.000000 0.061816 0.000000
# 6 0.000000 0.000000 0.000000 0.000000 0.000000 0.054432
#
#
# Mechanical properties :
#
#
# Convention : Reuss Voigt Hill
#
# Bulk Modulus (GPa) = 10.38091 16.41477 13.39784
# Shear Modulus (GPa) = 55.55838 18.03240 36.79539
#
# Velocity S-wave (km/s) = 5.24828 2.98999 4.27109
# Velocity P-wave (km/s) = 6.47090 4.47862 5.56465
#
# Compressibility (1/GPa) = 0.09633063
#
# Stress axis : x y z
#
# Youngs Moduli (GPa) = 22.14083 74.84638 65.38348
#
# Poissons Ratio (x) = -0.15196 -0.64664
# Poissons Ratio (y) = -0.04495 0.04349
# Poissons Ratio (z) = -0.21897 0.04978
#
# Static dielectric constant tensor:
#      x y z
#    x 1.744620 0.000000 0.000000 
#    y 0.000000 1.724470 0.000000 
#    z 0.000000 0.000000 1.703660 
# 
# From -- ./inp_files/5531.got.cif
#   From: 2010.05.17/outbox.cif.g08.bks.cpg/sg45_3_cif.got.tgz:5531.got - 2010.06.03 19:51:22.
