data_PCOD9376695
_publ_section_title
;
Structure prediction by ZEFSAII (Michael W. Deem and Ramdas Pophale) SiO2 
 PCOD9376695
Probable space group: I B A 2
;
_chemical_formula_sum "Si O2"
_cell_formula_units_Z 48
_cell_length_a 5.244395
_cell_length_b 14.245855
_cell_length_c 29.129070
_cell_angle_alpha 90.000000
_cell_angle_beta 90.000000
_cell_angle_gamma 90.000000
_cell_volume 2176.258766
_symmetry_space_group_name_H-M "I B A 2"
_symmetry_group_IT_number 45
_symmetry_cell_setting 'orthorhombic'
loop_
_space_group_symop_operation_xyz
x,y,z
-x,-y,z
-x,y,1/2+z
x,-y,1/2+z
1/2+x,1/2+y,1/2+z
1/2-x,1/2-y,1/2+z
1/2-x,1/2+y,z
1/2+x,1/2-y,z
loop_
_atom_site_type_symbol
_atom_site_label
_atom_site_fract_x
_atom_site_fract_y
_atom_site_fract_z
Si Si1 0.112922 0.688267 0.618490
Si Si2 0.591482 0.312690 0.449571
Si Si3 0.723072 0.604252 0.752836
Si Si4 0.255027 0.440968 0.033384
Si Si5 0.089800 0.186909 0.345182
Si Si6 0.224385 0.607421 0.714298
O O1 0.331229 0.768086 0.620845
O O2 0.167513 0.633195 0.571699
O O3 0.150165 0.619152 0.661699
O O4 0.314243 0.265400 0.455007
O O5 0.644991 0.389460 0.487891
O O6 0.610084 0.349713 0.397324
O O7 0.639033 0.611712 0.805368
O O8 0.500756 0.650561 0.722907
O O9 0.749203 0.499309 0.732537
O O10 0.998692 0.648508 0.745175
O O11 0.500000 0.500000 0.051004
O O12 0.000000 0.500000 0.023086
O O13 0.314413 0.264377 0.340164
#
# Coordination Sequence:
#
# PCOD9376695 Si02
#       6
#     8   8   8   8   8   8
#     4  12  26  44  68  97 126 172 219 266 320 388
#     4  10  21  43  68  95 134 171 211 265 319 379
#     4  10  21  39  58  90 125 173 205 268 313 372
#     4  12  26  43  69 101 131 168 211 267 326 390
#     4  10  21  37  64  93 126 170 215 260 311 376
#     4  10  23  38  61  86 126 170 207 264 323 369
#
# _framework density 22.056201999999999
#
# number of rings (size 3 to 8) (size 9 to 14) (size 15 to 20)
#    0.000    1.333    0.000    5.000    4.667    4.000 
#    6.000    0.000    0.000    0.000    0.000    0.000 
#    0.000    0.000    0.000    0.000    0.000    0.000 
#
# Total GULP energy -134160.164833 kJ/mol
# GULP energy per Si atom -5590.006868 kJ/mol
# Density = 2.200600 g / cm^3
# Si number density = 22.056202 Si / 1000 Ang^3
#
#
#
# Elastic Constant Matrix: (Units=GPa)
#
#
# Indices 1 2 3 4 5 6 
#
# 1 106.1583 -20.9292 -31.1302 0.0000 0.0000 0.0000
# 2 -20.9292 63.6407 19.8340 0.0000 0.0000 0.0000
# 3 -31.1302 19.8340 102.2961 0.0000 0.0000 0.0000
# 4 0.0000 0.0000 0.0000 31.9192 0.0000 0.0000
# 5 0.0000 0.0000 0.0000 0.0000 33.2065 0.0000
# 6 0.0000 0.0000 0.0000 0.0000 0.0000 13.9051
#
#
#
# Elastic Compliance Matrix: (Units=1/GPa)
#
#
# Indices 1 2 3 4 5 6 
#
# 1 0.010756 0.002679 0.002754 0.000000 0.000000 0.000000
# 2 0.002679 0.017391 -0.002557 0.000000 0.000000 0.000000
# 3 0.002754 -0.002557 0.011109 0.000000 0.000000 0.000000
# 4 0.000000 0.000000 0.000000 0.031329 0.000000 0.000000
# 5 0.000000 0.000000 0.000000 0.000000 0.030115 0.000000
# 6 0.000000 0.000000 0.000000 0.000000 0.000000 0.071916
#
#
# Mechanical properties :
#
#
# Convention : Reuss Voigt Hill
#
# Bulk Modulus (GPa) = 22.21846 23.07157 22.64501
# Shear Modulus (GPa) = 27.49272 36.09418 31.79345
#
# Velocity S-wave (km/s) = 3.53439 4.04971 3.80079
# Velocity P-wave (km/s) = 5.17217 5.68770 5.43605
#
# Compressibility (1/GPa) = 0.04500763
#
# Stress axis : x y z
#
# Youngs Moduli (GPa) = 92.97533 57.50096 90.01519
#
# Poissons Ratio (x) = -0.15404 -0.24787
# Poissons Ratio (y) = -0.24907 0.23014
# Poissons Ratio (z) = -0.25602 0.14701
#
# Static dielectric constant tensor:
#      x y z
#    x 1.894770 0.000000 0.000000 
#    y 0.000000 1.744780 0.000000 
#    z 0.000000 0.000000 1.780250 
# 
# From -- ./inp_files/9892.got.cif
#   From: 2010.05.17/outbox.cif.g08.bks.cpg/sg45_5_cif.got.tgz:9892.got - 2010.06.03 19:51:22.
