data_PCOD9376772
_publ_section_title
;
Structure prediction by ZEFSAII (Michael W. Deem and Ramdas Pophale) SiO2 
 PCOD9376772
Probable space group: I B A 2
;
_chemical_formula_sum "Si O2"
_cell_formula_units_Z 60
_cell_length_a 17.834145
_cell_length_b 17.595203
_cell_length_c 8.765090
_cell_angle_alpha 90.000000
_cell_angle_beta 90.000000
_cell_angle_gamma 90.000000
_cell_volume 2750.444937
_symmetry_space_group_name_H-M "I B A 2"
_symmetry_group_IT_number 45
_symmetry_cell_setting 'orthorhombic'
loop_
_space_group_symop_operation_xyz
x,y,z
-x,-y,z
-x,y,1/2+z
x,-y,1/2+z
1/2+x,1/2+y,1/2+z
1/2-x,1/2-y,1/2+z
1/2-x,1/2+y,z
1/2+x,1/2-y,z
loop_
_atom_site_type_symbol
_atom_site_label
_atom_site_fract_x
_atom_site_fract_y
_atom_site_fract_z
Si Si1 0.709869 0.184969 0.250000
Si Si2 0.854706 0.585657 0.997385
Si Si3 0.057382 0.095412 0.663922
Si Si4 0.105117 0.628018 0.187282
Si Si5 0.500000 0.000000 0.092866
Si Si6 0.088368 0.069179 0.026085
Si Si7 0.653509 0.729411 0.037577
Si Si8 0.241936 0.440782 0.498610
O O1 0.652668 0.138414 0.144050
O O2 0.676538 0.246244 0.367593
O O3 0.771284 0.224283 0.141302
O O4 0.740770 0.114229 0.351380
O O5 0.927921 0.532005 0.004526
O O6 0.868402 0.641403 0.857653
O O7 0.783040 0.529027 0.972481
O O8 0.073378 0.085258 0.845311
O O9 0.111561 0.152840 0.577678
O O10 0.970627 0.116158 0.628318
O O11 0.072008 0.017066 0.575386
O O12 0.097287 0.705082 0.096193
O O13 0.034559 0.571876 0.181425
O O14 0.176016 0.587320 0.108260
O O15 0.176054 0.074899 0.063554
#
# Coordination Sequence:
#
# PCOD9376772 Si02
#       8
#     8   8   8   8   4   8   8   8
#     4  11  23  44  65 102 140 185 232 291 358 434
#     4  11  22  41  71 104 132 188 240 296 356 416
#     4  11  24  46  68  98 140 179 240 293 369 420
#     4  10  23  41  66 101 136 186 235 287 353 419
#     4  10  22  44  70 100 148 182 242 300 348 430
#     4  11  23  44  69  98 134 183 235 300 350 429
#     4  11  24  46  65 101 148 181 233 293 359 438
#     4  10  21  39  69  96 133 175 238 293 344 414
#
# _framework density 21.814654000000001
#
# number of rings (size 3 to 8) (size 9 to 14) (size 15 to 20)
#    0.000    1.333    1.333    5.200    1.867    2.133 
#   14.400    0.000    0.000    0.000    0.000    0.000 
#    0.000    0.000    0.000    0.000    0.000    0.000 
#
# Total GULP energy -167327.817972 kJ/mol
# GULP energy per Si atom -5577.593932 kJ/mol
# Density = 2.176500 g / cm^3
# Si number density = 21.814654 Si / 1000 Ang^3
#
#
#
# Elastic Constant Matrix: (Units=GPa)
#
#
# Indices 1 2 3 4 5 6 
#
# 1 82.7556 17.1019 12.9555 0.0000 0.0000 0.0000
# 2 17.1019 45.5851 13.4632 0.0000 0.0000 0.0000
# 3 12.9555 13.4632 54.3354 0.0000 0.0000 0.0000
# 4 0.0000 0.0000 0.0000 267.6497 0.0000 0.0000
# 5 0.0000 0.0000 0.0000 0.0000 9.3921 0.0000
# 6 0.0000 0.0000 0.0000 0.0000 0.0000 23.7046
#
#
#
# Elastic Compliance Matrix: (Units=1/GPa)
#
#
# Indices 1 2 3 4 5 6 
#
# 1 0.013316 -0.004378 -0.002090 0.000000 0.000000 0.000000
# 2 -0.004378 0.025109 -0.005177 0.000000 0.000000 0.000000
# 3 -0.002090 -0.005177 0.020185 0.000000 0.000000 0.000000
# 4 0.000000 0.000000 0.000000 0.003736 0.000000 0.000000
# 5 0.000000 0.000000 0.000000 0.000000 0.106472 0.000000
# 6 0.000000 0.000000 0.000000 0.000000 0.000000 0.042186
#
#
# Mechanical properties :
#
#
# Convention : Reuss Voigt Hill
#
# Bulk Modulus (GPa) = 28.31406 29.96859 29.14132
# Shear Modulus (GPa) = 20.31950 69.42631 44.87290
#
# Velocity S-wave (km/s) = 3.05530 5.64753 4.54034
# Velocity P-wave (km/s) = 5.04520 7.50292 6.39327
#
# Compressibility (1/GPa) = 0.03531814
#
# Stress axis : x y z
#
# Youngs Moduli (GPa) = 75.09884 39.82683 49.54069
#
# Poissons Ratio (x) = 0.17437 0.10355
# Poissons Ratio (y) = 0.32881 0.25650
# Poissons Ratio (z) = 0.15697 0.20620
#
# Static dielectric constant tensor:
#      x y z
#    x 1.890630 0.000000 0.000000 
#    y 0.000000 2.000320 0.000000 
#    z 0.000000 0.000000 1.811340 
# 
# From -- ./inp_files/2164.got.cif
#   From: 2010.05.17/outbox.cif.g08.bks.cpg/sg45_2_cif.got.tgz:2164.got - 2010.06.03 19:51:22.
