data_PCOD9376607
_publ_section_title
;
Structure prediction by ZEFSAII (Michael W. Deem and Ramdas Pophale) SiO2 
 PCOD9376607
Probable space group: I B A 2
;
_chemical_formula_sum "Si O2"
_cell_formula_units_Z 60
_cell_length_a 15.263663
_cell_length_b 8.551863
_cell_length_c 19.549233
_cell_angle_alpha 90.000000
_cell_angle_beta 90.000000
_cell_angle_gamma 90.000000
_cell_volume 2551.815239
_symmetry_space_group_name_H-M "I B A 2"
_symmetry_group_IT_number 45
_symmetry_cell_setting 'orthorhombic'
loop_
_space_group_symop_operation_xyz
x,y,z
-x,-y,z
-x,y,1/2+z
x,-y,1/2+z
1/2+x,1/2+y,1/2+z
1/2-x,1/2-y,1/2+z
1/2-x,1/2+y,z
1/2+x,1/2-y,z
loop_
_atom_site_type_symbol
_atom_site_label
_atom_site_fract_x
_atom_site_fract_y
_atom_site_fract_z
Si Si1 0.062982 0.802078 0.525160
Si Si2 0.500000 0.500000 0.136030
Si Si3 0.173519 0.583134 0.861781
Si Si4 0.367445 0.717293 0.882802
Si Si5 0.787982 0.444561 0.556928
Si Si6 0.618178 0.339159 0.736964
Si Si7 0.636239 0.253354 0.492575
Si Si8 0.215806 0.488269 0.716853
O O1 0.130311 0.665322 0.539339
O O2 0.960450 0.761309 0.523599
O O3 0.312849 0.887689 0.528752
O O4 0.071461 0.924100 0.586344
O O5 0.297742 0.390468 0.014831
O O6 0.274268 0.631787 0.874595
O O7 0.150317 0.405614 0.885728
O O8 0.164526 0.578663 0.778838
O O9 0.126306 0.706352 0.912339
O O10 0.418105 0.687787 0.812513
O O11 0.414861 0.648266 0.948352
O O12 0.543375 0.368746 0.682634
O O13 0.784899 0.449813 0.639337
O O14 0.682395 0.489605 0.736897
O O15 0.677921 0.187542 0.719505
#
# Coordination Sequence:
#
# PCOD9376607 Si02
#       8
#     8   4   8   8   8   8   8   8
#     4  12  27  43  71 102 143 183 238 290 358 423
#     4  12  28  46  64 104 144 184 236 296 362 430
#     4  10  20  42  71 101 138 182 237 287 351 425
#     4  10  22  45  72 103 138 184 238 290 352 422
#     4  12  25  43  72 102 142 185 234 295 361 414
#     4  10  24  46  72 102 142 186 238 297 354 434
#     4  12  25  44  73 101 141 189 235 295 355 425
#     4  10  22  42  74 103 135 187 238 288 363 427
#
# _framework density 23.512675000000002
#
# number of rings (size 3 to 8) (size 9 to 14) (size 15 to 20)
#    0.000    1.067    2.667    2.800    5.600    1.600 
#    2.400    1.333    0.000    0.000    0.000    0.000 
#    0.000    0.000    0.000    0.000    0.000    0.000 
#
# Total GULP energy -167690.711707 kJ/mol
# GULP energy per Si atom -5589.690390 kJ/mol
# Density = 2.345916 g / cm^3
# Si number density = 23.512675 Si / 1000 Ang^3
#
#
#
# Elastic Constant Matrix: (Units=GPa)
#
#
# Indices 1 2 3 4 5 6 
#
# 1 77.9980 41.5558 21.5862 0.0000 0.0000 0.0000
# 2 41.5558 70.5832 49.5787 0.0000 0.0000 0.0000
# 3 21.5862 49.5787 182.6661 0.0000 0.0000 0.0000
# 4 0.0000 0.0000 0.0000 35.3148 0.0000 0.0000
# 5 0.0000 0.0000 0.0000 0.0000 41.8239 0.0000
# 6 0.0000 0.0000 0.0000 0.0000 0.0000 31.8446
#
#
#
# Elastic Compliance Matrix: (Units=1/GPa)
#
#
# Indices 1 2 3 4 5 6 
#
# 1 0.018818 -0.011759 0.000968 0.000000 0.000000 0.000000
# 2 -0.011759 0.024853 -0.005356 0.000000 0.000000 0.000000
# 3 0.000968 -0.005356 0.006814 0.000000 0.000000 0.000000
# 4 0.000000 0.000000 0.000000 0.028317 0.000000 0.000000
# 5 0.000000 0.000000 0.000000 0.000000 0.023910 0.000000
# 6 0.000000 0.000000 0.000000 0.000000 0.000000 0.031403
#
#
# Mechanical properties :
#
#
# Convention : Reuss Voigt Hill
#
# Bulk Modulus (GPa) = 54.97353 61.85430 58.41392
# Shear Modulus (GPa) = 28.99045 36.36509 32.67777
#
# Velocity S-wave (km/s) = 3.51518 3.93697 3.73204
# Velocity P-wave (km/s) = 6.31715 6.85786 6.59305
#
# Compressibility (1/GPa) = 0.01819057
#
# Stress axis : x y z
#
# Youngs Moduli (GPa) = 53.14111 40.23710 146.76134
#
# Poissons Ratio (x) = 0.47314 -0.14203
# Poissons Ratio (y) = 0.62487 0.78604
# Poissons Ratio (z) = -0.05143 0.21551
#
# Static dielectric constant tensor:
#      x y z
#    x 1.851920 0.000000 0.000000 
#    y 0.000000 1.949940 0.000000 
#    z 0.000000 0.000000 1.977140 
# 
# From -- ./inp_files/9764.got.cif
#   From: 2010.05.17/outbox.cif.g08.bks.cpg/sg45_5_cif.got.tgz:9764.got - 2010.06.03 19:51:22.
