data_PCOD9376622
_publ_section_title
;
Structure prediction by ZEFSAII (Michael W. Deem and Ramdas Pophale) SiO2 
 PCOD9376622
Probable space group: I B A 2
;
_chemical_formula_sum "Si O2"
_cell_formula_units_Z 48
_cell_length_a 9.818409
_cell_length_b 18.164735
_cell_length_c 12.059677
_cell_angle_alpha 90.000000
_cell_angle_beta 90.000000
_cell_angle_gamma 90.000000
_cell_volume 2150.828892
_symmetry_space_group_name_H-M "I B A 2"
_symmetry_group_IT_number 45
_symmetry_cell_setting 'orthorhombic'
loop_
_space_group_symop_operation_xyz
x,y,z
-x,-y,z
-x,y,1/2+z
x,-y,1/2+z
1/2+x,1/2+y,1/2+z
1/2-x,1/2-y,1/2+z
1/2-x,1/2+y,z
1/2+x,1/2-y,z
loop_
_atom_site_type_symbol
_atom_site_label
_atom_site_fract_x
_atom_site_fract_y
_atom_site_fract_z
Si Si1 0.000000 0.000000 0.447621
Si Si2 0.684454 0.836760 0.920859
Si Si3 0.500000 0.000000 0.805453
Si Si4 0.261535 0.548209 0.086388
Si Si5 0.241609 0.915243 0.834631
Si Si6 0.382157 0.210097 0.469716
Si Si7 0.838803 0.608678 0.177792
O O1 0.094755 0.951050 0.525032
O O2 0.898438 0.949613 0.377351
O O3 0.808557 0.788341 0.966662
O O4 0.538524 0.794744 0.927790
O O5 0.721192 0.861021 0.794476
O O6 0.664841 0.906388 0.003231
O O7 0.363236 0.973480 0.864223
O O8 0.528068 0.930966 0.726245
O O9 0.267888 0.588858 0.203164
O O10 0.233123 0.461807 0.118145
O O11 0.288871 0.840408 0.889851
O O12 0.368068 0.172033 0.590227
#
# Coordination Sequence:
#
# PCOD9376622 Si02
#       7
#     4   8   4   8   8   8   8
#     4  12  24  44  72 120 146 198 252 330 384 440
#     4  12  30  48  77 113 157 208 253 317 393 467
#     4  10  20  44  80 112 140 190 262 328 368 446
#     4  11  25  47  77 113 147 197 261 325 376 447
#     4  11  24  44  74 108 151 195 256 318 385 451
#     4  12  28  49  71 110 156 207 252 309 396 468
#     4  11  24  47  79 111 149 196 266 322 375 456
#
# _framework density 22.316979
#
# number of rings (size 3 to 8) (size 9 to 14) (size 15 to 20)
#    0.000    0.667    3.333    4.500    4.667    0.667 
#    0.000    0.000    0.000    0.000    0.000    0.000 
#    0.000    0.000    0.000    0.000    0.000    0.000 
#
# Total GULP energy -134031.868127 kJ/mol
# GULP energy per Si atom -5584.661172 kJ/mol
# Density = 2.226618 g / cm^3
# Si number density = 22.316979 Si / 1000 Ang^3
#
#
#
# Elastic Constant Matrix: (Units=GPa)
#
#
# Indices 1 2 3 4 5 6 
#
# 1 107.7140 25.6582 2.5169 0.0000 0.0000 0.0000
# 2 25.6582 98.6477 44.2593 0.0000 0.0000 0.0000
# 3 2.5169 44.2593 100.5473 0.0001 0.0000 0.0000
# 4 0.0000 0.0000 0.0001 34.5574 0.0000 0.0000
# 5 0.0000 0.0000 0.0000 0.0000 37.0279 0.0000
# 6 0.0000 0.0000 0.0000 0.0000 0.0000 49.8726
#
#
#
# Elastic Compliance Matrix: (Units=1/GPa)
#
#
# Indices 1 2 3 4 5 6 
#
# 1 0.009996 -0.003100 0.001114 0.000000 0.000000 0.000000
# 2 -0.003100 0.013593 -0.005906 0.000000 0.000000 0.000000
# 3 0.001114 -0.005906 0.012517 0.000000 0.000000 0.000000
# 4 0.000000 0.000000 0.000000 0.028937 0.000000 0.000000
# 5 0.000000 0.000000 0.000000 0.000000 0.027007 0.000000
# 6 0.000000 0.000000 0.000000 0.000000 0.000000 0.020051
#
#
# Mechanical properties :
#
#
# Convention : Reuss Voigt Hill
#
# Bulk Modulus (GPa) = 49.20372 50.19755 49.70064
# Shear Modulus (GPa) = 37.13071 39.92321 38.52696
#
# Velocity S-wave (km/s) = 4.08338 4.23415 4.15945
# Velocity P-wave (km/s) = 6.65789 6.81512 6.73696
#
# Compressibility (1/GPa) = 0.02032367
#
# Stress axis : x y z
#
# Youngs Moduli (GPa) = 100.03760 73.56662 79.88914
#
# Poissons Ratio (x) = 0.22805 -0.08902
# Poissons Ratio (y) = 0.31011 0.47182
# Poissons Ratio (z) = -0.11147 0.43448
#
# Static dielectric constant tensor:
#      x y z
#    x 1.846330 0.000000 0.000000 
#    y 0.000000 1.869820 0.000000 
#    z 0.000000 0.000000 1.854930 
# 
# From -- ./inp_files/3703.got.cif
#   From: 2010.05.17/outbox.cif.g08.bks.cpg/sg45_2_cif.got.tgz:3703.got - 2010.06.03 19:51:22.
