data_PCOD9376885
_publ_section_title
;
Structure prediction by ZEFSAII (Michael W. Deem and Ramdas Pophale) SiO2 
 PCOD9376885
Probable space group: I B A 2
;
_chemical_formula_sum "Si O2"
_cell_formula_units_Z 60
_cell_length_a 11.441882
_cell_length_b 18.085916
_cell_length_c 13.054215
_cell_angle_alpha 90.000000
_cell_angle_beta 90.000000
_cell_angle_gamma 90.000000
_cell_volume 2701.399002
_symmetry_space_group_name_H-M "I B A 2"
_symmetry_group_IT_number 45
_symmetry_cell_setting 'orthorhombic'
loop_
_space_group_symop_operation_xyz
x,y,z
-x,-y,z
-x,y,1/2+z
x,-y,1/2+z
1/2+x,1/2+y,1/2+z
1/2-x,1/2-y,1/2+z
1/2-x,1/2+y,z
1/2+x,1/2-y,z
loop_
_atom_site_type_symbol
_atom_site_label
_atom_site_fract_x
_atom_site_fract_y
_atom_site_fract_z
Si Si1 0.238688 0.668760 0.494320
Si Si2 0.508713 0.125016 0.911178
Si Si3 0.202088 0.800734 0.623595
Si Si4 0.577334 0.378796 0.933652
Si Si5 0.331675 0.933160 0.728272
Si Si6 0.167126 0.033303 0.410002
Si Si7 0.419135 0.731628 0.330950
Si Si8 0.500000 0.000000 0.076902
O O1 0.104012 0.676659 0.467048
O O2 0.263583 0.725293 0.584944
O O3 0.256733 0.579967 0.492452
O O4 0.318357 0.695305 0.400524
O O5 0.572984 0.086365 0.815509
O O6 0.419256 0.183050 0.864477
O O7 0.476746 0.067147 0.998333
O O8 0.123938 0.838702 0.535101
O O9 0.295602 0.860433 0.664360
O O10 0.116403 0.778678 0.714924
O O11 0.669280 0.444987 0.917085
O O12 0.458561 0.428808 0.932255
O O13 0.538434 0.314190 0.854959
O O14 0.217223 0.952597 0.795767
O O15 0.389480 0.994227 0.654717
#
# Coordination Sequence:
#
# PCOD9376885 Si02
#       8
#     8   8   8   8   8   8   8   4
#     4  10  22  43  67 101 139 179 234 300 347 430
#     4  11  24  47  67  98 145 184 230 305 355 424
#     4  12  23  41  75 104 143 194 240 293 374 438
#     4  10  21  43  71 104 139 187 231 302 367 426
#     4  11  25  47  69 104 144 188 246 293 357 449
#     4   9  21  47  67  97 155 175 231 312 359 424
#     4  11  23  47  70 104 143 178 247 302 361 432
#     4  12  28  46  72 104 140 198 248 286 370 446
#
# _framework density 22.210713999999999
#
# number of rings (size 3 to 8) (size 9 to 14) (size 15 to 20)
#    0.000    1.333    5.333    1.200    5.600    2.133 
#    7.200    1.333    0.000    0.000    0.000    0.000 
#    0.000    0.000    0.000    0.000    0.000    0.000 
#
# Total GULP energy -167117.277370 kJ/mol
# GULP energy per Si atom -5570.575912 kJ/mol
# Density = 2.216016 g / cm^3
# Si number density = 22.210714 Si / 1000 Ang^3
#
#
#
# Elastic Constant Matrix: (Units=GPa)
#
#
# Indices 1 2 3 4 5 6 
#
# 1 28.3243 16.0242 25.7598 0.0000 0.0000 0.0000
# 2 16.0242 122.1702 58.8730 0.0001 0.0000 0.0000
# 3 25.7598 58.8730 117.4901 0.0001 0.0000 0.0000
# 4 0.0000 0.0001 0.0001 42.7485 0.0000 0.0000
# 5 0.0000 0.0000 0.0000 0.0000 31.0466 0.0000
# 6 0.0000 0.0000 0.0000 0.0000 0.0000 27.7876
#
#
#
# Elastic Compliance Matrix: (Units=1/GPa)
#
#
# Indices 1 2 3 4 5 6 
#
# 1 0.044303 -0.001490 -0.008967 0.000000 0.000000 0.000000
# 2 -0.001490 0.010841 -0.005106 0.000000 0.000000 0.000000
# 3 -0.008967 -0.005106 0.013036 0.000000 0.000000 0.000000
# 4 0.000000 0.000000 0.000000 0.023393 0.000000 0.000000
# 5 0.000000 0.000000 0.000000 0.000000 0.032210 0.000000
# 6 0.000000 0.000000 0.000000 0.000000 0.000000 0.035987
#
#
# Mechanical properties :
#
#
# Convention : Reuss Voigt Hill
#
# Bulk Modulus (GPa) = 26.98683 52.14431 39.56557
# Shear Modulus (GPa) = 24.60065 31.47171 28.03618
#
# Velocity S-wave (km/s) = 3.33168 3.76834 3.55671
# Velocity P-wave (km/s) = 5.19392 6.51628 5.89231
#
# Compressibility (1/GPa) = 0.03705511
#
# Stress axis : x y z
#
# Youngs Moduli (GPa) = 22.57168 92.24129 76.71175
#
# Poissons Ratio (x) = 0.13742 0.68788
# Poissons Ratio (y) = 0.03363 0.39167
# Poissons Ratio (z) = 0.20240 0.47096
#
# Static dielectric constant tensor:
#      x y z
#    x 1.851350 0.000000 0.000000 
#    y 0.000000 1.923560 0.000000 
#    z 0.000000 0.000000 1.785790 
# 
# From -- ./inp_files/3822.got.cif
#   From: 2010.05.17/outbox.cif.g08.bks.cpg/sg45_2_cif.got.tgz:3822.got - 2010.06.03 19:51:22.
