data_PCOD9376634
_publ_section_title
;
Structure prediction by ZEFSAII (Michael W. Deem and Ramdas Pophale) SiO2 
 PCOD9376634
Probable space group: I B A 2
;
_chemical_formula_sum "Si O2"
_cell_formula_units_Z 48
_cell_length_a 20.835243
_cell_length_b 20.442108
_cell_length_c 5.266783
_cell_angle_alpha 90.000000
_cell_angle_beta 90.000000
_cell_angle_gamma 90.000000
_cell_volume 2243.208663
_symmetry_space_group_name_H-M "I B A 2"
_symmetry_group_IT_number 45
_symmetry_cell_setting 'orthorhombic'
loop_
_space_group_symop_operation_xyz
x,y,z
-x,-y,z
-x,y,1/2+z
x,-y,1/2+z
1/2+x,1/2+y,1/2+z
1/2-x,1/2-y,1/2+z
1/2-x,1/2+y,z
1/2+x,1/2-y,z
loop_
_atom_site_type_symbol
_atom_site_label
_atom_site_fract_x
_atom_site_fract_y
_atom_site_fract_z
Si Si1 0.666758 0.746863 0.750000
Si Si2 0.481477 0.761454 0.241773
Si Si3 0.356464 0.463618 0.000877
Si Si4 0.035381 0.118549 0.692724
Si Si5 0.702034 0.964610 0.460555
Si Si6 0.207577 0.323475 0.753005
O O1 0.591096 0.736954 0.759564
O O2 0.714793 0.685229 0.768119
O O3 0.681363 0.776960 0.474726
O O4 0.685522 0.796732 0.978690
O O5 0.504880 0.799621 0.485755
O O6 0.525811 0.696595 0.217770
O O7 0.375275 0.482540 0.714798
O O8 0.279606 0.461548 0.993494
O O9 0.393300 0.400829 0.110710
O O10 0.990363 0.093707 0.462563
O O11 0.685807 0.895317 0.333260
O O12 0.681411 0.982179 0.747416
#
# Coordination Sequence:
#
# PCOD9376634 Si02
#       6
#     8   8   8   8   8   8
#     4  10  21  38  57  87 113 151 201 235 304 343
#     4  10  21  36  54  80 111 147 186 234 281 349
#     4  10  21  35  49  70 105 147 196 242 266 309
#     4  10  21  33  47  70  95 148 187 233 278 307
#     4  10  21  37  56  83 113 149 192 242 289 333
#     4  10  21  37  61  82 115 154 188 256 286 359
#
# _framework density 21.397921
#
# number of rings (size 3 to 8) (size 9 to 14) (size 15 to 20)
#    0.000    2.000    0.000    3.000    4.667    2.000 
#   12.000    0.000    0.000    0.000    0.000    0.000 
#    0.000   46.667    0.000    0.000    0.000    0.000 
#
# Total GULP energy -133857.368339 kJ/mol
# GULP energy per Si atom -5577.390347 kJ/mol
# Density = 2.134922 g / cm^3
# Si number density = 21.397921 Si / 1000 Ang^3
#
#
#
# Elastic Constant Matrix: (Units=GPa)
#
#
# Indices 1 2 3 4 5 6 
#
# 1 37.3949 -12.7334 16.6136 0.0000 0.0000 0.0000
# 2 -12.7334 25.7181 -14.8618 0.0000 0.0000 0.0000
# 3 16.6136 -14.8618 125.9424 0.0000 0.0000 0.0000
# 4 0.0000 0.0000 0.0000 18.9891 0.0000 0.0000
# 5 0.0000 0.0000 0.0000 0.0000 21.7408 0.0000
# 6 0.0000 0.0000 0.0000 0.0000 0.0000 4.5871
#
#
#
# Elastic Compliance Matrix: (Units=1/GPa)
#
#
# Indices 1 2 3 4 5 6 
#
# 1 0.032937 0.014807 -0.002598 0.000000 0.000000 0.000000
# 2 0.014807 0.048385 0.003756 0.000000 0.000000 0.000000
# 3 -0.002598 0.003756 0.008726 0.000000 0.000000 0.000000
# 4 0.000000 0.000000 0.000000 0.052662 0.000000 0.000000
# 5 0.000000 0.000000 0.000000 0.000000 0.045996 0.000000
# 6 0.000000 0.000000 0.000000 0.000000 0.000000 0.218002
#
#
# Mechanical properties :
#
#
# Convention : Reuss Voigt Hill
#
# Bulk Modulus (GPa) = 8.19811 18.56579 13.38195
# Shear Modulus (GPa) = 12.03550 22.39920 17.21735
#
# Velocity S-wave (km/s) = 2.37420 3.23893 2.83967
# Velocity P-wave (km/s) = 3.36977 4.76265 4.12542
#
# Compressibility (1/GPa) = 0.12197932
#
# Stress axis : x y z
#
# Youngs Moduli (GPa) = 30.36055 20.66763 114.59892
#
# Poissons Ratio (x) = -0.30602 0.29769
# Poissons Ratio (y) = -0.44954 -0.43049
# Poissons Ratio (z) = 0.07887 -0.07764
#
# Static dielectric constant tensor:
#      x y z
#    x 1.779560 0.000000 0.000000 
#    y 0.000000 1.800770 0.000000 
#    z 0.000000 0.000000 1.885090 
# 
# From -- ./inp_files/297.got.cif
#   From: 2010.05.17/outbox.cif.g08.bks.cpg/sg45_1_cif.got.tgz:297.got - 2010.06.03 19:51:22.
