data_PCOD9376591
_publ_section_title
;
Structure prediction by ZEFSAII (Michael W. Deem and Ramdas Pophale) SiO2 
 PCOD9376591
Probable space group: I B A 2
;
_chemical_formula_sum "Si O2"
_cell_formula_units_Z 64
_cell_length_a 14.175703
_cell_length_b 18.476685
_cell_length_c 10.412338
_cell_angle_alpha 90.000000
_cell_angle_beta 90.000000
_cell_angle_gamma 90.000000
_cell_volume 2727.199558
_symmetry_space_group_name_H-M "I B A 2"
_symmetry_group_IT_number 45
_symmetry_cell_setting 'orthorhombic'
loop_
_space_group_symop_operation_xyz
x,y,z
-x,-y,z
-x,y,1/2+z
x,-y,1/2+z
1/2+x,1/2+y,1/2+z
1/2-x,1/2-y,1/2+z
1/2-x,1/2+y,z
1/2+x,1/2-y,z
loop_
_atom_site_type_symbol
_atom_site_label
_atom_site_fract_x
_atom_site_fract_y
_atom_site_fract_z
Si Si1 0.886688 0.305289 0.782350
Si Si2 0.648676 0.036452 0.368712
Si Si3 0.112937 0.285841 0.759780
Si Si4 0.107256 0.197727 0.511453
Si Si5 0.854026 0.941596 0.115517
Si Si6 0.647765 0.457871 0.402626
Si Si7 0.880654 0.782399 0.027194
Si Si8 0.642969 0.941173 0.151480
O O1 0.844755 0.384344 0.805477
O O2 0.862249 0.255503 0.904078
O O3 0.859579 0.268967 0.647815
O O4 0.001402 0.304534 0.775305
O O5 0.601972 0.050414 0.508491
O O6 0.748587 0.994498 0.386927
O O7 0.597185 0.985770 0.266049
O O8 0.130760 0.223986 0.654318
O O9 0.153101 0.359544 0.701506
O O10 0.147976 0.257489 0.896579
O O11 0.146698 0.120336 0.469911
O O12 0.992748 0.200581 0.511981
O O13 0.895523 0.946161 0.259609
O O14 0.841069 0.860848 0.061659
O O15 0.748580 0.971325 0.134836
O O16 0.900652 0.987747 0.003059
#
# Coordination Sequence:
#
# PCOD9376591 Si02
#       8
#     8   8   8   8   8   8   8   8
#     4  10  20  41  67  91 128 171 210 272 329 388
#     4  10  22  41  64  88 128 170 215 269 327 399
#     4  10  22  39  64  98 127 164 224 266 326 402
#     4  10  20  41  67  91 128 171 210 272 329 388
#     4  10  22  42  59  91 127 170 219 264 328 395
#     4  10  22  41  64  88 128 170 215 269 327 399
#     4  10  22  39  64  98 127 164 224 266 326 402
#     4  10  22  42  59  91 127 170 219 264 328 395
#
# _framework density 23.467296999999999
#
# number of rings (size 3 to 8) (size 9 to 14) (size 15 to 20)
#    0.000    2.000    2.500    0.000    3.500    1.000 
#    9.000    2.500    0.000    0.000    0.000    0.000 
#    0.000    0.000    0.000    0.000    0.000    0.000 
#
# Total GULP energy -178673.823559 kJ/mol
# GULP energy per Si atom -5583.556986 kJ/mol
# Density = 2.341388 g / cm^3
# Si number density = 23.467297 Si / 1000 Ang^3
#
#
#
# Elastic Constant Matrix: (Units=GPa)
#
#
# Indices 1 2 3 4 5 6 
#
# 1 87.6591 -1.7955 -17.2463 0.0000 0.0000 0.0000
# 2 -1.7955 119.8629 30.7118 0.0000 0.0000 0.0000
# 3 -17.2463 30.7118 150.2657 0.0000 0.0000 0.0000
# 4 0.0000 0.0000 0.0000 57.6373 0.0000 0.0000
# 5 0.0000 0.0000 0.0000 0.0000 -17.2019 0.0000
# 6 0.0000 0.0000 0.0000 0.0000 0.0000 42.5727
#
#
#
# Elastic Compliance Matrix: (Units=1/GPa)
#
#
# Indices 1 2 3 4 5 6 
#
# 1 0.011675 -0.000178 0.001376 0.000000 0.000000 0.000000
# 2 -0.000178 0.008807 -0.001820 0.000000 0.000000 0.000000
# 3 0.001376 -0.001820 0.007185 0.000000 0.000000 0.000000
# 4 0.000000 0.000000 0.000000 0.017350 0.000000 0.000000
# 5 0.000000 0.000000 0.000000 0.000000 -0.058133 0.000000
# 6 0.000000 0.000000 0.000000 0.000000 0.000000 0.023489
#
#
# Mechanical properties :
#
#
# Convention : Reuss Voigt Hill
#
# Bulk Modulus (GPa) = 37.84596 42.34750 40.09673
# Shear Modulus (GPa) = 244.81547 39.67615 142.24581
#
# Velocity S-wave (km/s) = 10.22489 4.11627 7.79398
# Velocity P-wave (km/s) = 12.47237 6.37778 9.90546
#
# Compressibility (1/GPa) = 0.02642290
#
# Stress axis : x y z
#
# Youngs Moduli (GPa) = 85.65332 113.55106 139.18115
#
# Poissons Ratio (x) = 0.02018 -0.19155
# Poissons Ratio (y) = 0.01522 0.25335
# Poissons Ratio (z) = -0.11788 0.20670
#
# Static dielectric constant tensor:
#      x y z
#    x 1.990260 0.000000 0.000000 
#    y 0.000000 1.827520 0.000000 
#    z 0.000000 0.000000 1.984320 
# 
# From -- ./inp_files/4514.got.cif
#   From: 2010.05.17/outbox.cif.g08.bks.cpg/sg45_3_cif.got.tgz:4514.got - 2010.06.03 19:51:22.
