data_PCOD9376195
_publ_section_title
;
Structure prediction by ZEFSAII (Michael W. Deem and Ramdas Pophale) SiO2 
 PCOD9376195
Probable space group: I B A 2
;
_chemical_formula_sum "Si O2"
_cell_formula_units_Z 48
_cell_length_a 20.733283
_cell_length_b 13.874863
_cell_length_c 9.058076
_cell_angle_alpha 90.000000
_cell_angle_beta 90.000000
_cell_angle_gamma 90.000000
_cell_volume 2605.749958
_symmetry_space_group_name_H-M "I B A 2"
_symmetry_group_IT_number 45
_symmetry_cell_setting 'orthorhombic'
loop_
_space_group_symop_operation_xyz
x,y,z
-x,-y,z
-x,y,1/2+z
x,-y,1/2+z
1/2+x,1/2+y,1/2+z
1/2-x,1/2-y,1/2+z
1/2-x,1/2+y,z
1/2+x,1/2-y,z
loop_
_atom_site_type_symbol
_atom_site_label
_atom_site_fract_x
_atom_site_fract_y
_atom_site_fract_z
Si Si1 0.000000 0.000000 0.579850
Si Si2 0.722030 0.087151 0.468285
Si Si3 0.586605 0.580724 0.820724
Si Si4 0.200878 0.038062 0.689507
Si Si5 0.844335 0.222440 0.005757
Si Si6 0.500000 0.000000 0.321223
Si Si7 0.917319 0.596366 0.567372
O O1 0.949344 0.949246 0.471316
O O2 0.035444 0.924200 0.687860
O O3 0.742184 0.057600 0.305043
O O4 0.713227 0.202430 0.475014
O O5 0.651751 0.050065 0.521386
O O6 0.775041 0.043455 0.576963
O O7 0.639581 0.501325 0.778258
O O8 0.624182 0.678596 0.857793
O O9 0.180879 0.134051 0.602331
O O10 0.898235 0.291035 0.081398
O O11 0.448871 0.051914 0.213122
O O12 0.535216 0.075099 0.430542
#
# Coordination Sequence:
#
# PCOD9376195 Si02
#       7
#     4   8   8   8   8   4   8
#     4  10  22  38  66  78 122 166 200 238 314 358
#     4  10  24  38  66  89 124 162 206 254 315 375
#     4  11  21  41  60  90 118 168 196 255 303 362
#     4  12  21  43  64  88 133 159 200 269 306 369
#     4  10  24  37  60  97 119 159 217 239 319 369
#     4  10  18  44  66  84 130 162 198 264 300 356
#     4   9  22  38  64  93 117 165 206 246 310 368
#
# _framework density 18.4208
#
# number of rings (size 3 to 8) (size 9 to 14) (size 15 to 20)
#    1.000    0.667    3.333    1.000    2.333    1.333 
#    0.000    0.000    3.667    0.000    0.000    0.000 
#    0.000    0.000    0.000    0.000    0.000    0.000 
#
# Total GULP energy -133682.900904 kJ/mol
# GULP energy per Si atom -5570.120871 kJ/mol
# Density = 1.837887 g / cm^3
# Si number density = 18.420800 Si / 1000 Ang^3
#
#
#
# Elastic Constant Matrix: (Units=GPa)
#
#
# Indices 1 2 3 4 5 6 
#
# 1 82.5430 32.3087 47.3409 0.0000 0.0000 0.0000
# 2 32.3087 98.7703 40.7723 0.0000 0.0000 0.0000
# 3 47.3409 40.7723 109.9447 0.0000 0.0000 0.0000
# 4 0.0000 0.0000 0.0000 17.2286 0.0000 0.0000
# 5 0.0000 0.0000 0.0000 0.0000 31.6279 0.0000
# 6 0.0000 0.0000 0.0000 0.0000 0.0000 37.8668
#
#
#
# Elastic Compliance Matrix: (Units=1/GPa)
#
#
# Indices 1 2 3 4 5 6 
#
# 1 0.016791 -0.002961 -0.006132 0.000000 0.000000 0.000000
# 2 -0.002961 0.012477 -0.003352 0.000000 0.000000 0.000000
# 3 -0.006132 -0.003352 0.012979 0.000000 0.000000 0.000000
# 4 0.000000 0.000000 0.000000 0.058043 0.000000 0.000000
# 5 0.000000 0.000000 0.000000 0.000000 0.031618 0.000000
# 6 0.000000 0.000000 0.000000 0.000000 0.000000 0.026408
#
#
# Mechanical properties :
#
#
# Convention : Reuss Voigt Hill
#
# Bulk Modulus (GPa) = 57.61498 59.12243 58.36870
# Shear Modulus (GPa) = 26.45636 28.73374 27.59505
#
# Velocity S-wave (km/s) = 3.79386 3.95378 3.87465
# Velocity P-wave (km/s) = 7.10888 7.28068 7.19530
#
# Compressibility (1/GPa) = 0.01735660
#
# Stress axis : x y z
#
# Youngs Moduli (GPa) = 59.55676 80.14881 77.04904
#
# Poissons Ratio (x) = 0.23734 0.47244
# Poissons Ratio (y) = 0.17636 0.25826
# Poissons Ratio (z) = 0.36519 0.26865
#
# Static dielectric constant tensor:
#      x y z
#    x 1.667600 0.000000 0.000000 
#    y 0.000000 1.622550 0.000000 
#    z 0.000000 0.000000 1.626580 
# 
# From -- ./inp_files/1769.got.cif
#   From: 2010.05.17/outbox.cif.g08.bks.cpg/sg45_1_cif.got.tgz:1769.got - 2010.06.03 19:51:22.
