data_PCOD9376196
_publ_section_title
;
Structure prediction by ZEFSAII (Michael W. Deem and Ramdas Pophale) SiO2 
 PCOD9376196
Probable space group: I B A 2
;
_chemical_formula_sum "Si O2"
_cell_formula_units_Z 48
_cell_length_a 28.044204
_cell_length_b 5.113957
_cell_length_c 12.753488
_cell_angle_alpha 90.000000
_cell_angle_beta 90.000000
_cell_angle_gamma 90.000000
_cell_volume 1829.065118
_symmetry_space_group_name_H-M "I B A 2"
_symmetry_group_IT_number 45
_symmetry_cell_setting 'orthorhombic'
loop_
_space_group_symop_operation_xyz
x,y,z
-x,-y,z
-x,y,1/2+z
x,-y,1/2+z
1/2+x,1/2+y,1/2+z
1/2-x,1/2-y,1/2+z
1/2-x,1/2+y,z
1/2+x,1/2-y,z
loop_
_atom_site_type_symbol
_atom_site_label
_atom_site_fract_x
_atom_site_fract_y
_atom_site_fract_z
Si Si1 0.717166 0.201309 0.995860
Si Si2 0.000000 0.000000 0.545606
Si Si3 0.426596 0.890694 0.518626
Si Si4 0.856262 0.972125 0.620749
Si Si5 0.000000 0.500000 0.889007
Si Si6 0.063844 0.257857 0.210566
Si Si7 0.718695 0.165569 0.752339
O O1 0.757497 0.423802 0.014226
O O2 0.703829 0.198782 0.873257
O O3 0.672010 0.296216 0.061977
O O4 0.041589 0.926974 0.622027
O O5 0.979196 0.744391 0.490499
O O6 0.383807 0.688647 0.526596
O O7 0.439959 0.104866 0.431457
O O8 0.429919 0.985818 0.638191
O O9 0.885372 0.115567 0.715998
O O10 0.822507 0.764681 0.677082
O O11 0.974463 0.302686 0.799593
O O12 0.762225 0.372223 0.737188
#
# Coordination Sequence:
#
# PCOD9376196 Si02
#       7
#     8   4   8   8   4   8   8
#     4  10  23  45  72 103 143 189 233 292 372 447
#     4  10  18  46  60  86 134 164 230 282 364 420
#     4  11  24  43  64  98 131 177 237 295 352 435
#     4  11  26  41  68 102 138 180 240 299 358 435
#     4  12  22  46  72  86 138 188 230 298 372 402
#     4  11  24  43  64  98 131 177 237 295 352 435
#     4  10  23  45  72 103 143 189 233 292 372 447
#
# _framework density 26.242913999999999
#
# number of rings (size 3 to 8) (size 9 to 14) (size 15 to 20)
#    0.000    1.333    3.333    1.000    7.000    0.667 
#    3.000    0.000    0.000    0.000    0.000    0.000 
#    0.000    0.000    0.000    0.000    0.000    0.000 
#
# Total GULP energy -133625.465108 kJ/mol
# GULP energy per Si atom -5567.727713 kJ/mol
# Density = 2.618318 g / cm^3
# Si number density = 26.242914 Si / 1000 Ang^3
#
#
#
# Elastic Constant Matrix: (Units=GPa)
#
#
# Indices 1 2 3 4 5 6 
#
# 1 96.6163 39.1764 39.7623 0.0000 0.0000 0.0000
# 2 39.1764 120.0347 28.9533 0.0000 0.0000 0.0000
# 3 39.7623 28.9533 119.1269 0.0000 0.0000 0.0000
# 4 0.0000 0.0000 0.0000 12.9513 0.0000 0.0000
# 5 0.0000 0.0000 0.0000 0.0000 36.8685 0.0000
# 6 0.0000 0.0000 0.0000 0.0000 0.0000 55.7011
#
#
#
# Elastic Compliance Matrix: (Units=1/GPa)
#
#
# Indices 1 2 3 4 5 6 
#
# 1 0.013221 -0.003453 -0.003574 0.000000 0.000000 0.000000
# 2 -0.003453 0.009752 -0.001218 0.000000 0.000000 0.000000
# 3 -0.003574 -0.001218 0.009883 0.000000 0.000000 0.000000
# 4 0.000000 0.000000 0.000000 0.077212 0.000000 0.000000
# 5 0.000000 0.000000 0.000000 0.000000 0.027123 0.000000
# 6 0.000000 0.000000 0.000000 0.000000 0.000000 0.017953
#
#
# Mechanical properties :
#
#
# Convention : Reuss Voigt Hill
#
# Bulk Modulus (GPa) = 61.09737 61.28466 61.19102
# Shear Modulus (GPa) = 28.23441 36.29657 32.26549
#
# Velocity S-wave (km/s) = 3.28363 3.72304 3.51022
# Velocity P-wave (km/s) = 6.14071 6.47185 6.30846
#
# Compressibility (1/GPa) = 0.01636732
#
# Stress axis : x y z
#
# Youngs Moduli (GPa) = 75.63642 102.54729 101.18219
#
# Poissons Ratio (x) = 0.35410 0.36160
# Poissons Ratio (y) = 0.26118 0.12319
# Poissons Ratio (z) = 0.27030 0.12485
#
# Static dielectric constant tensor:
#      x y z
#    x 2.496370 0.000000 0.000000 
#    y 0.000000 2.560360 0.000000 
#    z 0.000000 0.000000 2.131410 
# 
# From -- ./inp_files/5200.got.cif
#   From: 2010.05.17/outbox.cif.g08.bks.cpg/sg45_3_cif.got.tgz:5200.got - 2010.06.03 19:51:22.
