data_PCOD9376118
_publ_section_title
;
Structure prediction by ZEFSAII (Michael W. Deem and Ramdas Pophale) SiO2 
 PCOD9376118
Probable space group: I B A 2
;
_chemical_formula_sum "Si O2"
_cell_formula_units_Z 52
_cell_length_a 11.357310
_cell_length_b 25.113882
_cell_length_c 9.881374
_cell_angle_alpha 90.000000
_cell_angle_beta 90.000000
_cell_angle_gamma 90.000000
_cell_volume 2818.426195
_symmetry_space_group_name_H-M "I B A 2"
_symmetry_group_IT_number 45
_symmetry_cell_setting 'orthorhombic'
loop_
_space_group_symop_operation_xyz
x,y,z
-x,-y,z
-x,y,1/2+z
x,-y,1/2+z
1/2+x,1/2+y,1/2+z
1/2-x,1/2-y,1/2+z
1/2-x,1/2+y,z
1/2+x,1/2-y,z
loop_
_atom_site_type_symbol
_atom_site_label
_atom_site_fract_x
_atom_site_fract_y
_atom_site_fract_z
Si Si1 0.947201 0.250449 0.297860
Si Si2 0.184358 0.194452 0.577680
Si Si3 0.315642 0.694452 0.018040
Si Si4 0.361830 0.841620 0.297860
Si Si5 0.929356 0.570929 0.797861
Si Si6 0.260550 0.340182 0.797860
Si Si7 0.500000 0.000000 0.047861
O O1 0.923842 0.213100 0.169587
O O2 0.923843 0.213101 0.426134
O O3 0.840719 0.293947 0.297860
O O4 0.064146 0.285914 0.297859
O O5 0.250000 0.250000 0.547860
O O6 0.276303 0.160308 0.668235
O O7 0.167009 0.166542 0.434767
O O8 0.332990 0.666542 0.160953
O O9 0.223697 0.660308 0.927484
O O10 0.455836 0.889598 0.297861
O O11 0.813451 0.606243 0.797861
O O12 0.932966 0.537177 0.658032
O O13 0.932966 0.537177 0.937690
#
# Coordination Sequence:
#
# PCOD9376118 Si02
#       7
#     8   8   8   8   8   8   4
#     4   8  17  28  41  60  82 113 154 187 209 246
#     4   9  17  28  41  62  86 110 155 194 208 247
#     4   9  17  28  41  62  86 110 155 194 208 247
#     4  10  18  31  47  60  86 127 163 176 215 272
#     4  10  19  30  44  61  82 119 153 188 224 261
#     4   9  16  27  42  58  80 110 146 180 220 254
#     4  10  20  30  40  62  88 102 156 204 220 254
#
# _framework density 18.450013999999999
#
# number of rings (size 3 to 8) (size 9 to 14) (size 15 to 20)
#    0.000    2.769    0.000    2.769    0.000    9.846 
#    0.000    1.538    0.000    0.000    0.000    0.000 
#    0.000    0.000    0.000    0.000    0.000 6196.923 
#
# Total GULP energy -144920.847308 kJ/mol
# GULP energy per Si atom -5573.878743 kJ/mol
# Density = 1.840802 g / cm^3
# Si number density = 18.450014 Si / 1000 Ang^3
#
#
#
# Elastic Constant Matrix: (Units=GPa)
#
#
# Indices 1 2 3 4 5 6 
#
# 1 67.3795 29.7838 44.9547 0.0000 0.0000 0.0000
# 2 29.7838 80.6053 57.7115 -0.0001 0.0000 0.0000
# 3 44.9547 57.7115 198.9898 0.0001 -0.0002 0.0000
# 4 0.0000 -0.0001 0.0001 19.1777 0.0000 0.0000
# 5 0.0000 0.0000 -0.0002 0.0000 15.7767 0.0000
# 6 0.0000 0.0000 0.0000 0.0000 0.0000 21.2238
#
#
#
# Elastic Compliance Matrix: (Units=1/GPa)
#
#
# Indices 1 2 3 4 5 6 
#
# 1 0.018928 -0.004963 -0.002837 0.000000 0.000000 0.000000
# 2 -0.004963 0.016959 -0.003797 0.000000 0.000000 0.000000
# 3 -0.002837 -0.003797 0.006768 0.000000 0.000000 0.000000
# 4 0.000000 0.000000 0.000000 0.052144 0.000000 0.000000
# 5 0.000000 0.000000 0.000000 0.000000 0.063385 0.000000
# 6 0.000000 0.000000 0.000000 0.000000 0.000000 0.047117
#
#
# Mechanical properties :
#
#
# Convention : Reuss Voigt Hill
#
# Bulk Modulus (GPa) = 51.38653 67.98607 59.68630
# Shear Modulus (GPa) = 21.27845 25.53727 23.40786
#
# Velocity S-wave (km/s) = 3.39972 3.72443 3.56577
# Velocity P-wave (km/s) = 6.58202 7.44473 7.02663
#
# Compressibility (1/GPa) = 0.01946035
#
# Stress axis : x y z
#
# Youngs Moduli (GPa) = 52.83278 58.96711 147.76466
#
# Poissons Ratio (x) = 0.29264 0.41917
# Poissons Ratio (y) = 0.26220 0.56109
# Poissons Ratio (z) = 0.14987 0.22391
#
# Static dielectric constant tensor:
#      x y z
#    x 1.659990 0.000000 0.000000 
#    y 0.000000 1.627510 0.000000 
#    z 0.000000 0.000000 1.746360 
# 
# From -- ./inp_files/1409.got.cif
#   From: 2010.05.17/outbox.cif.g08.bks.cpg/sg45_1_cif.got.tgz:1409.got - 2010.06.03 19:51:22.
