data_PCOD9376153
_publ_section_title
;
Structure prediction by ZEFSAII (Michael W. Deem and Ramdas Pophale) SiO2 
 PCOD9376153
Probable space group: I B A 2
;
_chemical_formula_sum "Si O2"
_cell_formula_units_Z 40
_cell_length_a 23.110249
_cell_length_b 13.928612
_cell_length_c 5.400722
_cell_angle_alpha 90.000000
_cell_angle_beta 90.000000
_cell_angle_gamma 90.000000
_cell_volume 1738.458342
_symmetry_space_group_name_H-M "I B A 2"
_symmetry_group_IT_number 45
_symmetry_cell_setting 'orthorhombic'
loop_
_space_group_symop_operation_xyz
x,y,z
-x,-y,z
-x,y,1/2+z
x,-y,1/2+z
1/2+x,1/2+y,1/2+z
1/2-x,1/2-y,1/2+z
1/2-x,1/2+y,z
1/2+x,1/2-y,z
loop_
_atom_site_type_symbol
_atom_site_label
_atom_site_fract_x
_atom_site_fract_y
_atom_site_fract_z
Si Si1 0.713644 0.882004 0.796020
Si Si2 0.966018 0.624161 0.828228
Si Si3 0.837784 0.060536 0.346039
Si Si4 0.965619 0.854899 0.821232
Si Si5 0.166155 0.600357 0.295697
O O1 0.782102 0.871708 0.812798
O O2 0.686939 0.845343 0.541102
O O3 0.698725 0.997225 0.791620
O O4 0.682148 0.846337 0.042522
O O5 0.960319 0.739613 0.823578
O O6 0.901949 0.581732 0.810591
O O7 0.003632 0.600084 0.587072
O O8 0.901044 0.105113 0.324300
O O9 0.832440 0.013909 0.617798
O O10 0.999437 0.882985 0.569948
#
# Coordination Sequence:
#
# PCOD9376153 Si02
#       5
#     8   8   8   8   8
#     4  10  19  35  53  83 113 144 183 229 275 322
#     4  10  21  39  58  80 113 151 185 227 276 327
#     4  12  21  37  61  82 115 148 181 230 284 325
#     4  10  23  40  57  83 115 146 188 230 272 331
#     4  10  18  35  58  78 111 152 176 228 281 320
#
# _framework density 23.008893
#
# number of rings (size 3 to 8) (size 9 to 14) (size 15 to 20)
#    0.000    1.600    4.000    2.400    0.000    2.400 
#    0.000   14.000    0.000    0.000    0.000    0.000 
#    0.000    0.000    0.000    0.000    0.000    0.000 
#
# Total GULP energy -111907.234391 kJ/mol
# GULP energy per Si atom -5595.361720 kJ/mol
# Density = 2.295652 g / cm^3
# Si number density = 23.008893 Si / 1000 Ang^3
#
#
#
# Elastic Constant Matrix: (Units=GPa)
#
#
# Indices 1 2 3 4 5 6 
#
# 1 150.7426 8.4559 -10.8036 0.0000 0.0000 0.0000
# 2 8.4559 46.6912 -3.0102 0.0000 0.0000 0.0000
# 3 -10.8036 -3.0102 70.2674 0.0000 0.0000 0.0000
# 4 0.0000 0.0000 0.0000 -7.0757 0.0000 0.0000
# 5 0.0000 0.0000 0.0000 0.0000 44.6192 0.0000
# 6 0.0000 0.0000 0.0000 0.0000 0.0000 -34.1049
#
#
#
# Elastic Compliance Matrix: (Units=1/GPa)
#
#
# Indices 1 2 3 4 5 6 
#
# 1 0.006770 -0.001162 0.000991 0.000000 0.000000 0.000000
# 2 -0.001162 0.021676 0.000750 0.000000 0.000000 0.000000
# 3 0.000991 0.000750 0.014416 0.000000 0.000000 0.000000
# 4 0.000000 0.000000 0.000000 -0.141329 0.000000 0.000000
# 5 0.000000 0.000000 0.000000 0.000000 0.022412 0.000000
# 6 0.000000 0.000000 0.000000 0.000000 0.000000 -0.029321
#
#
# Mechanical properties :
#
#
# Convention : Reuss Voigt Hill
#
# Bulk Modulus (GPa) = 22.71706 28.55390 25.63548
# Shear Modulus (GPa) = -54.43008 18.89167 -17.76920
#
# Velocity S-wave (km/s) = -4.86903 2.86852 -2.78200
# Velocity P-wave (km/s) = 4.65997 4.83819 0.91999
#
# Compressibility (1/GPa) = 0.04401978
#
# Stress axis : x y z
#
# Youngs Moduli (GPa) = 147.70943 46.13365 69.36802
#
# Poissons Ratio (x) = 0.05362 -0.06875
# Poissons Ratio (y) = 0.17166 -0.05202
# Poissons Ratio (z) = -0.14640 -0.03460
#
# Static dielectric constant tensor:
#      x y z
#    x 1.786920 0.000000 0.000000 
#    y 0.000000 1.878300 0.000000 
#    z 0.000000 0.000000 1.966510 
# 
# From -- ./inp_files/253.got.cif
#   From: 2010.05.17/outbox.cif.g08.bks.cpg/sg45_1_cif.got.tgz:253.got - 2010.06.03 19:51:22.
