data_PCOD9376875
_publ_section_title
;
Structure prediction by ZEFSAII (Michael W. Deem and Ramdas Pophale) SiO2 
 PCOD9376875
Probable space group: I B A 2
;
_chemical_formula_sum "Si O2"
_cell_formula_units_Z 60
_cell_length_a 14.672028
_cell_length_b 14.338922
_cell_length_c 12.130463
_cell_angle_alpha 90.000000
_cell_angle_beta 90.000000
_cell_angle_gamma 90.000000
_cell_volume 2552.019726
_symmetry_space_group_name_H-M "I B A 2"
_symmetry_group_IT_number 45
_symmetry_cell_setting 'orthorhombic'
loop_
_space_group_symop_operation_xyz
x,y,z
-x,-y,z
-x,y,1/2+z
x,-y,1/2+z
1/2+x,1/2+y,1/2+z
1/2-x,1/2-y,1/2+z
1/2-x,1/2+y,z
1/2+x,1/2-y,z
loop_
_atom_site_type_symbol
_atom_site_label
_atom_site_fract_x
_atom_site_fract_y
_atom_site_fract_z
Si Si1 0.087561 0.869535 0.274620
Si Si2 0.660088 0.653426 0.942661
Si Si3 0.000000 0.000000 0.452671
Si Si4 0.210579 0.316728 0.317738
Si Si5 0.968029 0.270029 0.098615
Si Si6 0.361760 0.517779 0.087684
Si Si7 0.847336 0.636620 0.072788
Si Si8 0.836855 0.576154 0.539933
O O1 0.021144 0.918727 0.359146
O O2 0.180292 0.826589 0.324543
O O3 0.036238 0.787727 0.210555
O O4 0.126547 0.948567 0.189147
O O5 0.588266 0.712988 0.009093
O O6 0.630773 0.545511 0.969518
O O7 0.756253 0.662493 0.006784
O O8 0.678828 0.708435 0.830369
O O9 0.953314 0.068202 0.556987
O O10 0.177467 0.356875 0.201794
O O11 0.171611 0.377951 0.418963
O O12 0.906027 0.363291 0.111410
O O13 0.066446 0.298721 0.056446
O O14 0.266869 0.570150 0.087088
O O15 0.868033 0.530761 0.037774
#
# Coordination Sequence:
#
# PCOD9376875 Si02
#       8
#     8   8   4   8   8   8   8   8
#     4  11  23  44  63 102 135 173 226 278 340 413
#     4   9  22  42  63  96 132 173 220 278 336 408
#     4  12  24  38  68 102 132 176 232 274 340 414
#     4  11  21  42  67  94 131 177 224 279 342 408
#     4  10  22  43  66  96 134 175 223 279 338 399
#     4  10  21  43  64  91 136 171 221 285 337 398
#     4  11  22  45  68  95 139 176 227 281 341 407
#     4  10  21  44  68  91 133 178 225 284 338 402
#
# _framework density 23.510791000000001
#
# number of rings (size 3 to 8) (size 9 to 14) (size 15 to 20)
#    0.000    1.600    5.333    0.800    1.867    2.133 
#   14.400    2.667    0.000    0.000    0.000    0.000 
#    0.000    0.000    0.000    0.000    0.000    0.000 
#
# Total GULP energy -167410.849898 kJ/mol
# GULP energy per Si atom -5580.361663 kJ/mol
# Density = 2.345728 g / cm^3
# Si number density = 23.510791 Si / 1000 Ang^3
#
#
#
# Elastic Constant Matrix: (Units=GPa)
#
#
# Indices 1 2 3 4 5 6 
#
# 1 110.1411 46.7548 2.6357 0.0000 0.0000 0.0000
# 2 46.7548 82.2264 24.8669 0.0000 0.0000 0.0000
# 3 2.6357 24.8669 61.5653 0.0000 0.0000 0.0000
# 4 0.0000 0.0000 0.0000 38.4960 0.0000 0.0000
# 5 0.0000 0.0000 0.0000 0.0000 26.7771 0.0000
# 6 0.0000 0.0000 0.0000 0.0000 0.0000 39.3705
#
#
#
# Elastic Compliance Matrix: (Units=1/GPa)
#
#
# Indices 1 2 3 4 5 6 
#
# 1 0.012329 -0.007804 0.002624 0.000000 0.000000 0.000000
# 2 -0.007804 0.018794 -0.007257 0.000000 0.000000 0.000000
# 3 0.002624 -0.007257 0.019062 0.000000 0.000000 0.000000
# 4 0.000000 0.000000 0.000000 0.025977 0.000000 0.000000
# 5 0.000000 0.000000 0.000000 0.000000 0.037345 0.000000
# 6 0.000000 0.000000 0.000000 0.000000 0.000000 0.025400
#
#
# Mechanical properties :
#
#
# Convention : Reuss Voigt Hill
#
# Bulk Modulus (GPa) = 39.50808 44.71640 42.11224
# Shear Modulus (GPa) = 29.03308 32.90707 30.97007
#
# Velocity S-wave (km/s) = 3.51790 3.74526 3.63336
# Velocity P-wave (km/s) = 5.77422 6.14520 5.96259
#
# Compressibility (1/GPa) = 0.02531128
#
# Stress axis : x y z
#
# Youngs Moduli (GPa) = 81.10705 53.20912 52.46126
#
# Poissons Ratio (x) = 0.41526 -0.13768
# Poissons Ratio (y) = 0.63298 0.38071
# Poissons Ratio (z) = -0.21286 0.38613
#
# Static dielectric constant tensor:
#      x y z
#    x 0.765890 0.000000 0.000000 
#    y 0.000000 1.853860 0.000000 
#    z 0.000000 0.000000 1.909450 
# 
# From -- ./inp_files/6604.got.cif
#   From: 2010.05.17/outbox.cif.g08.bks.cpg/sg45_4_cif.got.tgz:6604.got - 2010.06.03 19:51:22.
