data_PCOD9376934
_publ_section_title
;
Structure prediction by ZEFSAII (Michael W. Deem and Ramdas Pophale) SiO2 
 PCOD9376934
Probable space group: I B A 2
;
_chemical_formula_sum "Si O2"
_cell_formula_units_Z 52
_cell_length_a 25.483820
_cell_length_b 5.235266
_cell_length_c 17.492544
_cell_angle_alpha 90.000000
_cell_angle_beta 90.000000
_cell_angle_gamma 90.000000
_cell_volume 2333.760348
_symmetry_space_group_name_H-M "I B A 2"
_symmetry_group_IT_number 45
_symmetry_cell_setting 'orthorhombic'
loop_
_space_group_symop_operation_xyz
x,y,z
-x,-y,z
-x,y,1/2+z
x,-y,1/2+z
1/2+x,1/2+y,1/2+z
1/2-x,1/2-y,1/2+z
1/2-x,1/2+y,z
1/2+x,1/2-y,z
loop_
_atom_site_type_symbol
_atom_site_label
_atom_site_fract_x
_atom_site_fract_y
_atom_site_fract_z
Si Si1 0.500000 0.500000 0.993270
Si Si2 0.876610 0.734233 0.910658
Si Si3 0.440665 0.256876 0.873050
Si Si4 0.272262 0.480035 0.887749
Si Si5 0.391199 0.618885 0.076126
Si Si6 0.467040 0.242002 0.696897
Si Si7 0.720122 0.589910 0.072127
O O1 0.486565 0.265756 0.936439
O O2 0.447076 0.519599 0.042808
O O3 0.898513 0.462925 0.886860
O O4 0.822952 0.842287 0.876840
O O5 0.915239 0.963799 0.885703
O O6 0.871259 0.717912 0.003286
O O7 0.460228 0.223925 0.787598
O O8 0.270814 0.187949 0.858892
O O9 0.272307 0.426718 0.979684
O O10 0.411227 0.748649 0.153537
O O11 0.342124 0.430563 0.089159
O O12 0.500000 0.500000 0.685353
O O13 0.500000 0.000000 0.667761
O O14 0.748442 0.842957 0.101478
#
# Coordination Sequence:
#
# PCOD9376934 Si02
#       7
#     4   8   8   8   8   8   8
#     4  10  22  38  66  94 130 158 210 258 316 368
#     4  10  22  37  62  89 117 165 206 252 306 363
#     4  11  23  40  59  83 129 167 203 243 310 395
#     4   9  16  30  54  86 117 146 196 260 308 353
#     4  10  23  39  66  96 128 160 213 267 305 369
#     4  12  26  42  60  89 127 169 200 251 314 380
#     4   9  19  36  59  86 122 161 204 253 313 362
#
# _framework density 22.281637
#
# number of rings (size 3 to 8) (size 9 to 14) (size 15 to 20)
#    0.000    1.846    1.538    1.846    4.308    8.615 
#    0.000    0.000    0.000    5.538    0.000    0.000 
#    0.000    0.000    0.000    0.000    0.000    0.000 
#
# Total GULP energy -144889.803159 kJ/mol
# GULP energy per Si atom -5572.684737 kJ/mol
# Density = 2.223092 g / cm^3
# Si number density = 22.281637 Si / 1000 Ang^3
#
#
#
# Elastic Constant Matrix: (Units=GPa)
#
#
# Indices 1 2 3 4 5 6 
#
# 1 85.1091 13.5626 3.7793 0.0000 0.0000 0.0000
# 2 13.5626 74.3467 -5.1431 0.0000 0.0000 0.0000
# 3 3.7793 -5.1431 51.4861 0.0000 0.0000 0.0000
# 4 0.0000 0.0000 0.0000 -53.7019 0.0000 0.0000
# 5 0.0000 0.0000 0.0000 0.0000 4.7951 0.0000
# 6 0.0000 0.0000 0.0000 0.0000 0.0000 31.2515
#
#
#
# Elastic Compliance Matrix: (Units=1/GPa)
#
#
# Indices 1 2 3 4 5 6 
#
# 1 0.012165 -0.002297 -0.001122 0.000000 0.000000 0.000000
# 2 -0.002297 0.013978 0.001565 0.000000 0.000000 0.000000
# 3 -0.001122 0.001565 0.019661 0.000000 0.000000 0.000000
# 4 0.000000 0.000000 0.000000 -0.018621 0.000000 0.000000
# 5 0.000000 0.000000 0.000000 0.000000 0.208544 0.000000
# 6 0.000000 0.000000 0.000000 0.000000 0.000000 0.031998
#
#
# Mechanical properties :
#
#
# Convention : Reuss Voigt Hill
#
# Bulk Modulus (GPa) = 23.75541 26.14885 24.95213
# Shear Modulus (GPa) = 17.51515 9.71849 13.61682
#
# Velocity S-wave (km/s) = 2.80675 2.09072 2.47477
# Velocity P-wave (km/s) = 4.60309 4.19395 4.40327
#
# Compressibility (1/GPa) = 0.04209568
#
# Stress axis : x y z
#
# Youngs Moduli (GPa) = 82.19972 71.54224 50.86105
#
# Poissons Ratio (x) = 0.16433 0.05709
# Poissons Ratio (y) = 0.18881 -0.07959
# Poissons Ratio (z) = 0.09226 -0.11195
#
# Static dielectric constant tensor:
#      x y z
#    x 1.992330 0.000000 0.000000 
#    y 0.000000 1.864220 0.000000 
#    z 0.000000 0.000000 1.858880 
# 
# From -- ./inp_files/8530.got.cif
#   From: 2010.05.17/outbox.cif.g08.bks.cpg/sg45_5_cif.got.tgz:8530.got - 2010.06.03 19:51:22.
