data_PCOD9376126
_publ_section_title
;
Structure prediction by ZEFSAII (Michael W. Deem and Ramdas Pophale) SiO2 
 PCOD9376126
Probable space group: I B A 2
;
_chemical_formula_sum "Si O2"
_cell_formula_units_Z 60
_cell_length_a 9.291759
_cell_length_b 19.089560
_cell_length_c 15.260644
_cell_angle_alpha 90.000000
_cell_angle_beta 90.000000
_cell_angle_gamma 90.000000
_cell_volume 2706.865748
_symmetry_space_group_name_H-M "I B A 2"
_symmetry_group_IT_number 45
_symmetry_cell_setting 'orthorhombic'
loop_
_space_group_symop_operation_xyz
x,y,z
-x,-y,z
-x,y,1/2+z
x,-y,1/2+z
1/2+x,1/2+y,1/2+z
1/2-x,1/2-y,1/2+z
1/2-x,1/2+y,z
1/2+x,1/2-y,z
loop_
_atom_site_type_symbol
_atom_site_label
_atom_site_fract_x
_atom_site_fract_y
_atom_site_fract_z
Si Si1 0.411838 0.365681 0.952240
Si Si2 0.290173 0.896813 0.640728
Si Si3 0.254935 0.586461 0.944259
Si Si4 0.118587 0.276221 0.358798
Si Si5 0.736498 0.049382 0.830114
Si Si6 0.553661 0.374676 0.649452
Si Si7 0.371370 0.230716 0.235814
Si Si8 0.000000 0.000000 0.242332
O O1 0.568828 0.406211 0.946201
O O2 0.436174 0.286873 0.919164
O O3 0.264131 0.393999 0.906543
O O4 0.381185 0.364040 0.055107
O O5 0.307620 0.926967 0.542674
O O6 0.332217 0.934506 0.734147
O O7 0.357392 0.819630 0.652443
O O8 0.117898 0.884713 0.643083
O O9 0.195243 0.660606 0.909194
O O10 0.206936 0.524599 0.877538
O O11 0.224511 0.239995 0.288529
O O12 0.985742 0.302651 0.301654
O O13 0.904223 0.047624 0.802058
O O14 0.584782 0.308962 0.709787
O O15 0.602674 0.449492 0.687326
#
# Coordination Sequence:
#
# PCOD9376126 Si02
#       8
#     8   8   8   8   8   8   8   4
#     4  11  21  37  61  97 131 168 220 273 325 394
#     4  10  23  40  64  93 134 169 218 279 324 390
#     4  11  23  40  65  98 131 173 221 270 340 392
#     4  12  23  40  67  92 133 171 219 266 330 395
#     4  11  20  37  61  94 130 174 216 280 320 385
#     4  10  22  34  60  94 130 165 216 271 327 382
#     4  12  21  43  62  94 128 177 212 270 328 394
#     4  10  18  32  54  92 126 164 208 270 330 370
#
# _framework density 22.165859000000001
#
# number of rings (size 3 to 8) (size 9 to 14) (size 15 to 20)
#    0.000    1.067    5.333    2.400    5.600    0.000 
#    0.000    0.667    0.000    1.600    0.000    0.000 
#    0.000    0.000    0.000    0.000    0.000    0.000 
#
# Total GULP energy -167109.127723 kJ/mol
# GULP energy per Si atom -5570.304257 kJ/mol
# Density = 2.211541 g / cm^3
# Si number density = 22.165859 Si / 1000 Ang^3
#
#
#
# Elastic Constant Matrix: (Units=GPa)
#
#
# Indices 1 2 3 4 5 6 
#
# 1 23.9116 -2.3940 9.3498 0.0000 0.0000 0.0000
# 2 -2.3940 81.1457 47.1434 0.0000 0.0000 0.0000
# 3 9.3498 47.1434 148.9110 0.0000 0.0000 0.0000
# 4 0.0000 0.0000 0.0000 30.9409 0.0000 0.0000
# 5 0.0000 0.0000 0.0000 0.0000 16.7669 0.0000
# 6 0.0000 0.0000 0.0000 0.0000 0.0000 18.2610
#
#
#
# Elastic Compliance Matrix: (Units=1/GPa)
#
#
# Indices 1 2 3 4 5 6 
#
# 1 0.043684 0.003532 -0.003861 0.000000 0.000000 0.000000
# 2 0.003532 0.015387 -0.005093 0.000000 0.000000 0.000000
# 3 -0.003861 -0.005093 0.008570 0.000000 0.000000 0.000000
# 4 0.000000 0.000000 0.000000 0.032320 0.000000 0.000000
# 5 0.000000 0.000000 0.000000 0.000000 0.059641 0.000000
# 6 0.000000 0.000000 0.000000 0.000000 0.000000 0.054762
#
#
# Mechanical properties :
#
#
# Convention : Reuss Voigt Hill
#
# Bulk Modulus (GPa) = 17.60665 40.24074 28.92370
# Shear Modulus (GPa) = 20.48007 26.51835 23.49921
#
# Velocity S-wave (km/s) = 3.04295 3.46260 3.25953
# Velocity P-wave (km/s) = 4.50626 5.84636 5.21950
#
# Compressibility (1/GPa) = 0.05679673
#
# Stress axis : x y z
#
# Youngs Moduli (GPa) = 22.89166 64.99167 116.68322
#
# Poissons Ratio (x) = -0.22954 0.45051
# Poissons Ratio (y) = -0.08085 0.59426
# Poissons Ratio (z) = 0.08838 0.33100
#
# Static dielectric constant tensor:
#      x y z
#    x 1.846260 0.000000 0.000000 
#    y 0.000000 2.129770 0.000000 
#    z 0.000000 0.000000 1.895550 
# 
# From -- ./inp_files/6261.got.cif
#   From: 2010.05.17/outbox.cif.g08.bks.cpg/sg45_4_cif.got.tgz:6261.got - 2010.06.03 19:51:22.
