data_PCOD9376393
_publ_section_title
;
Structure prediction by ZEFSAII (Michael W. Deem and Ramdas Pophale) SiO2 
 PCOD9376393
Probable space group: I B A 2
;
_chemical_formula_sum "Si O2"
_cell_formula_units_Z 64
_cell_length_a 20.249897
_cell_length_b 8.708231
_cell_length_c 16.697061
_cell_angle_alpha 90.000000
_cell_angle_beta 90.000000
_cell_angle_gamma 90.000000
_cell_volume 2944.372774
_symmetry_space_group_name_H-M "I B A 2"
_symmetry_group_IT_number 45
_symmetry_cell_setting 'orthorhombic'
loop_
_space_group_symop_operation_xyz
x,y,z
-x,-y,z
-x,y,1/2+z
x,-y,1/2+z
1/2+x,1/2+y,1/2+z
1/2-x,1/2-y,1/2+z
1/2-x,1/2+y,z
1/2+x,1/2-y,z
loop_
_atom_site_type_symbol
_atom_site_label
_atom_site_fract_x
_atom_site_fract_y
_atom_site_fract_z
Si Si1 0.652792 0.344699 0.810640
Si Si2 0.154274 0.904821 0.492237
Si Si3 0.772156 0.344466 0.698324
Si Si4 0.393639 0.313444 0.781286
Si Si5 0.027126 0.673517 0.295482
Si Si6 0.482333 0.677788 0.969935
Si Si7 0.879361 0.742157 0.463984
Si Si8 0.713169 0.878368 0.087327
O O1 0.664182 0.325852 0.905764
O O2 0.725706 0.367087 0.774933
O O3 0.614594 0.505857 0.797403
O O4 0.603253 0.215365 0.773632
O O5 0.213542 0.882498 0.551446
O O6 0.083928 0.837466 0.520763
O O7 0.148833 0.086658 0.476621
O O8 0.834150 0.240385 0.724139
O O9 0.717291 0.277028 0.637418
O O10 0.799014 0.491382 0.652277
O O11 0.468284 0.273368 0.755269
O O12 0.384356 0.226700 0.867882
O O13 0.000000 0.500000 0.288715
O O14 0.028800 0.729101 0.388247
O O15 0.500000 0.500000 0.948093
O O16 0.548160 0.752637 0.003889
O O17 0.835355 0.623548 0.512299
#
# Coordination Sequence:
#
# PCOD9376393 Si02
#       8
#     8   8   8   8   8   8   8   8
#     4  10  21  41  65  90 120 166 213 255 312 378
#     4   9  18  37  64  88 113 156 209 254 306 371
#     4  12  25  40  61  85 131 168 203 254 311 377
#     4  10  21  41  65  89 120 166 212 254 313 381
#     4  10  20  34  61  96 122 148 200 267 314 357
#     4   8  16  36  63  86 116 155 205 258 303 363
#     4   9  18  37  64  89 114 156 209 258 301 366
#     4  12  23  40  57  89 129 164 203 255 314 370
#
# _framework density 21.736378999999999
#
# number of rings (size 3 to 8) (size 9 to 14) (size 15 to 20)
#    0.000    2.000    2.500    3.375    1.750    0.000 
#    9.000    1.250    0.000    0.000    0.000    0.000 
#    0.000    0.000    0.000    0.000    0.000    0.000 
#
# Total GULP energy -178331.891452 kJ/mol
# GULP energy per Si atom -5572.871608 kJ/mol
# Density = 2.168691 g / cm^3
# Si number density = 21.736379 Si / 1000 Ang^3
#
#
#
# Elastic Constant Matrix: (Units=GPa)
#
#
# Indices 1 2 3 4 5 6 
#
# 1 81.5184 13.1800 37.0113 0.0000 0.0000 0.0000
# 2 13.1800 45.0130 6.3342 0.0000 0.0000 0.0000
# 3 37.0113 6.3342 45.2485 0.0000 0.0000 0.0000
# 4 0.0000 0.0000 0.0000 18.5555 0.0000 0.0000
# 5 0.0000 0.0000 0.0000 0.0000 -2.8290 0.0000
# 6 0.0000 0.0000 0.0000 0.0000 0.0000 16.0396
#
#
#
# Elastic Compliance Matrix: (Units=1/GPa)
#
#
# Indices 1 2 3 4 5 6 
#
# 1 0.020082 -0.003640 -0.015917 0.000000 0.000000 0.000000
# 2 -0.003640 0.023322 -0.000287 0.000000 0.000000 0.000000
# 3 -0.015917 -0.000287 0.035160 0.000000 0.000000 0.000000
# 4 0.000000 0.000000 0.000000 0.053892 0.000000 0.000000
# 5 0.000000 0.000000 0.000000 0.000000 -0.353483 0.000000
# 6 0.000000 0.000000 0.000000 0.000000 0.000000 0.062346
#
#
# Mechanical properties :
#
#
# Convention : Reuss Voigt Hill
#
# Bulk Modulus (GPa) = 25.72321 31.64787 28.68554
# Shear Modulus (GPa) = -47.15503 14.03687 -16.55908
#
# Velocity S-wave (km/s) = -4.66274 2.54397 -2.76309
# Velocity P-wave (km/s) = 4.13864 4.81877 1.74531
#
# Compressibility (1/GPa) = 0.03887540
#
# Stress axis : x y z
#
# Youngs Moduli (GPa) = 49.79485 42.87773 28.44168
#
# Poissons Ratio (x) = 0.15609 0.45270
# Poissons Ratio (y) = 0.18127 0.00817
# Poissons Ratio (z) = 0.79258 0.01231
#
# Static dielectric constant tensor:
#      x y z
#    x 1.865970 0.000000 0.000000 
#    y 0.000000 1.842410 0.000000 
#    z 0.000000 0.000000 1.830630 
# 
# From -- ./inp_files/8443.got.cif
#   From: 2010.05.17/outbox.cif.g08.bks.cpg/sg45_5_cif.got.tgz:8443.got - 2010.06.03 19:51:22.
