data_PCOD9376848
_publ_section_title
;
Structure prediction by ZEFSAII (Michael W. Deem and Ramdas Pophale) SiO2 
 PCOD9376848
Probable space group: I B A 2
;
_chemical_formula_sum "Si O2"
_cell_formula_units_Z 60
_cell_length_a 16.693774
_cell_length_b 18.453176
_cell_length_c 9.933670
_cell_angle_alpha 90.000000
_cell_angle_beta 90.000000
_cell_angle_gamma 90.000000
_cell_volume 3060.098332
_symmetry_space_group_name_H-M "I B A 2"
_symmetry_group_IT_number 45
_symmetry_cell_setting 'orthorhombic'
loop_
_space_group_symop_operation_xyz
x,y,z
-x,-y,z
-x,y,1/2+z
x,-y,1/2+z
1/2+x,1/2+y,1/2+z
1/2-x,1/2-y,1/2+z
1/2-x,1/2+y,z
1/2+x,1/2-y,z
loop_
_atom_site_type_symbol
_atom_site_label
_atom_site_fract_x
_atom_site_fract_y
_atom_site_fract_z
Si Si1 0.362990 0.037694 0.047710
Si Si2 0.361384 0.769410 0.846065
Si Si3 0.000000 0.500000 0.377386
Si Si4 0.133541 0.737584 0.647452
Si Si5 0.255036 0.986562 0.292839
Si Si6 0.194461 0.145355 0.344880
Si Si7 0.301730 0.653349 0.656739
Si Si8 0.515959 0.136053 0.702407
O O1 0.323237 0.007712 0.183109
O O2 0.418814 0.106268 0.092317
O O3 0.425665 0.983955 0.975164
O O4 0.295026 0.043738 0.931546
O O5 0.282743 0.819227 0.829007
O O6 0.358561 0.706776 0.736949
O O7 0.435666 0.819894 0.814884
O O8 0.359737 0.736322 0.994154
O O9 0.018276 0.433518 0.280092
O O10 0.138769 0.804884 0.750267
O O11 0.211664 0.686741 0.670110
O O12 0.055239 0.687503 0.655084
O O13 0.205687 0.060519 0.314636
O O14 0.202508 0.924807 0.223936
O O15 0.174294 0.152093 0.501584
#
# Coordination Sequence:
#
# PCOD9376848 Si02
#       8
#     8   8   4   8   8   8   8   8
#     4  12  24  36  60  90 132 168 202 259 316 388
#     4  10  22  39  59  85 122 164 216 257 315 387
#     4  12  24  36  56  92 132 166 204 248 308 386
#     4  10  24  39  60  87 124 174 212 260 319 392
#     4  12  23  39  64  94 123 163 217 266 324 373
#     4  10  21  42  60  85 125 165 215 262 317 382
#     4  10  23  38  61  90 120 160 213 271 320 378
#     4  12  24  40  60  92 132 171 211 259 324 396
#
# _framework density 19.607213000000002
#
# number of rings (size 3 to 8) (size 9 to 14) (size 15 to 20)
#    0.000    1.067    4.000    2.000    5.600    4.267 
#    0.000    0.000    0.000    0.800    0.000    3.733 
#    0.000    0.000    0.000    0.000    0.000    0.000 
#
# Total GULP energy -167557.328863 kJ/mol
# GULP energy per Si atom -5585.244295 kJ/mol
# Density = 1.956259 g / cm^3
# Si number density = 19.607213 Si / 1000 Ang^3
#
#
#
# Elastic Constant Matrix: (Units=GPa)
#
#
# Indices 1 2 3 4 5 6 
#
# 1 24.6568 19.1685 16.5566 0.0000 0.0000 0.0000
# 2 19.1685 118.2569 71.1553 0.0000 0.0000 0.0000
# 3 16.5566 71.1553 121.2626 0.0000 0.0000 0.0000
# 4 0.0000 0.0000 0.0000 32.9985 0.0000 0.0000
# 5 0.0000 0.0000 0.0000 0.0000 24.7173 0.0000
# 6 0.0000 0.0000 0.0000 0.0000 0.0000 30.2546
#
#
#
# Elastic Compliance Matrix: (Units=1/GPa)
#
#
# Indices 1 2 3 4 5 6 
#
# 1 0.047107 -0.005821 -0.003016 0.000000 0.000000 0.000000
# 2 -0.005821 0.013790 -0.007297 0.000000 0.000000 0.000000
# 3 -0.003016 -0.007297 0.012940 0.000000 0.000000 0.000000
# 4 0.000000 0.000000 0.000000 0.030304 0.000000 0.000000
# 5 0.000000 0.000000 0.000000 0.000000 0.040457 0.000000
# 6 0.000000 0.000000 0.000000 0.000000 0.000000 0.033053
#
#
# Mechanical properties :
#
#
# Convention : Reuss Voigt Hill
#
# Bulk Modulus (GPa) = 24.05619 53.10414 38.58017
# Shear Modulus (GPa) = 22.34357 28.08047 25.21202
#
# Velocity S-wave (km/s) = 3.37940 3.78848 3.58977
# Velocity P-wave (km/s) = 5.24622 6.80291 6.07463
#
# Compressibility (1/GPa) = 0.04156934
#
# Stress axis : x y z
#
# Youngs Moduli (GPa) = 21.22815 72.51371 77.27763
#
# Poissons Ratio (x) = 0.42209 0.23308
# Poissons Ratio (y) = 0.12357 0.56392
# Poissons Ratio (z) = 0.06403 0.52916
#
# Static dielectric constant tensor:
#      x y z
#    x 1.689930 0.000000 0.000000 
#    y 0.000000 1.685010 0.000000 
#    z 0.000000 0.000000 1.717230 
# 
# From -- ./inp_files/2137.got.cif
#   From: 2010.05.17/outbox.cif.g08.bks.cpg/sg45_2_cif.got.tgz:2137.got - 2010.06.03 19:51:22.
