data_PCOD9376936
_publ_section_title
;
Structure prediction by ZEFSAII (Michael W. Deem and Ramdas Pophale) SiO2 
 PCOD9376936
Probable space group: I B A 2
;
_chemical_formula_sum "Si O2"
_cell_formula_units_Z 40
_cell_length_a 21.889819
_cell_length_b 8.388070
_cell_length_c 8.186690
_cell_angle_alpha 90.000000
_cell_angle_beta 90.000000
_cell_angle_gamma 90.000000
_cell_volume 1503.185446
_symmetry_space_group_name_H-M "I B A 2"
_symmetry_group_IT_number 45
_symmetry_cell_setting 'orthorhombic'
loop_
_space_group_symop_operation_xyz
x,y,z
-x,-y,z
-x,y,1/2+z
x,-y,1/2+z
1/2+x,1/2+y,1/2+z
1/2-x,1/2-y,1/2+z
1/2-x,1/2+y,z
1/2+x,1/2-y,z
loop_
_atom_site_type_symbol
_atom_site_label
_atom_site_fract_x
_atom_site_fract_y
_atom_site_fract_z
Si Si1 0.578389 0.689868 0.417020
Si Si2 0.733938 0.165584 0.589991
Si Si3 0.950181 0.717107 0.258170
Si Si4 0.308437 0.549928 0.780629
Si Si5 0.389359 0.014479 0.022940
O O1 0.567394 0.664202 0.609951
O O2 0.515225 0.725539 0.325636
O O3 0.622143 0.560219 0.338980
O O4 0.615989 0.856316 0.411152
O O5 0.767987 0.128589 0.422550
O O6 0.705384 0.337621 0.624145
O O7 0.823851 0.452646 0.098409
O O8 0.783866 0.120436 0.726803
O O9 0.912212 0.666520 0.420008
O O10 0.939030 0.552562 0.152372
#
# Coordination Sequence:
#
# PCOD9376936 Si02
#       5
#     8   8   8   8   8
#     4  10  24  39  61 105 138 186 231 297 370 415
#     4  12  26  46  71 110 142 193 239 304 364 442
#     4  10  23  33  63  99 143 179 234 299 358 415
#     4  12  26  47  73 106 146 189 244 296 371 433
#     4  10  22  37  64 106 139 182 236 314 360 401
#
# _framework density 26.610156
#
# number of rings (size 3 to 8) (size 9 to 14) (size 15 to 20)
#    1.200    0.000    0.000    6.600   11.200    0.000 
#    0.000    0.000    0.000    3.600    0.000    0.000 
#    0.000    0.000    0.000    0.000    0.000    0.000 
#
# Total GULP energy -111797.501520 kJ/mol
# GULP energy per Si atom -5589.875076 kJ/mol
# Density = 2.654959 g / cm^3
# Si number density = 26.610156 Si / 1000 Ang^3
#
#
#
# Elastic Constant Matrix: (Units=GPa)
#
#
# Indices 1 2 3 4 5 6 
#
# 1 157.7002 32.4384 42.5557 0.0000 0.0000 0.0000
# 2 32.4384 61.9774 27.1028 0.0000 0.0000 0.0000
# 3 42.5557 27.1028 112.7280 0.0000 0.0000 0.0000
# 4 0.0000 0.0000 0.0000 48.3667 0.0000 0.0000
# 5 0.0000 0.0000 0.0000 0.0000 55.0581 0.0000
# 6 0.0000 0.0000 0.0000 0.0000 0.0000 35.9591
#
#
#
# Elastic Compliance Matrix: (Units=1/GPa)
#
#
# Indices 1 2 3 4 5 6 
#
# 1 0.007533 -0.003016 -0.002119 0.000000 0.000000 0.000000
# 2 -0.003016 0.019238 -0.003487 0.000000 0.000000 0.000000
# 3 -0.002119 -0.003487 0.010509 0.000000 0.000000 0.000000
# 4 0.000000 0.000000 0.000000 0.020675 0.000000 0.000000
# 5 0.000000 0.000000 0.000000 0.000000 0.018163 0.000000
# 6 0.000000 0.000000 0.000000 0.000000 0.000000 0.027809
#
#
# Mechanical properties :
#
#
# Convention : Reuss Voigt Hill
#
# Bulk Modulus (GPa) = 49.90710 59.62216 54.76463
# Shear Modulus (GPa) = 39.10808 43.23068 41.16938
#
# Velocity S-wave (km/s) = 3.83778 4.03500 3.93762
# Velocity P-wave (km/s) = 6.19949 6.64550 6.42637
#
# Compressibility (1/GPa) = 0.02003723
#
# Stress axis : x y z
#
# Youngs Moduli (GPa) = 132.74337 51.97936 95.15628
#
# Poissons Ratio (x) = 0.15679 0.20161
# Poissons Ratio (y) = 0.40040 0.33178
# Poissons Ratio (z) = 0.28124 0.18124
#
# Static dielectric constant tensor:
#      x y z
#    x 2.012020 0.000000 0.000000 
#    y 0.000000 2.315280 0.000000 
#    z 0.000000 0.000000 2.133510 
# 
# From -- ./inp_files/2460.got.cif
#   From: 2010.05.17/outbox.cif.g08.bks.cpg/sg45_2_cif.got.tgz:2460.got - 2010.06.03 19:51:22.
