data_PCOD9376168
_publ_section_title
;
Structure prediction by ZEFSAII (Michael W. Deem and Ramdas Pophale) SiO2 
 PCOD9376168
Probable space group: I B A 2
;
_chemical_formula_sum "Si O2"
_cell_formula_units_Z 48
_cell_length_a 5.396365
_cell_length_b 19.230718
_cell_length_c 18.084237
_cell_angle_alpha 90.000000
_cell_angle_beta 90.000000
_cell_angle_gamma 90.000000
_cell_volume 1876.709300
_symmetry_space_group_name_H-M "I B A 2"
_symmetry_group_IT_number 45
_symmetry_cell_setting 'orthorhombic'
loop_
_space_group_symop_operation_xyz
x,y,z
-x,-y,z
-x,y,1/2+z
x,-y,1/2+z
1/2+x,1/2+y,1/2+z
1/2-x,1/2-y,1/2+z
1/2-x,1/2+y,z
1/2+x,1/2-y,z
loop_
_atom_site_type_symbol
_atom_site_label
_atom_site_fract_x
_atom_site_fract_y
_atom_site_fract_z
Si Si1 0.889445 0.705795 0.285990
Si Si2 0.872357 0.432359 0.254681
Si Si3 0.902451 0.709448 0.463183
Si Si4 0.866697 0.925313 0.395738
Si Si5 0.500000 0.500000 0.138397
Si Si6 0.000000 0.500000 0.986658
Si Si7 0.369986 0.396171 0.538605
O O1 0.128705 0.755472 0.269947
O O2 0.940552 0.631866 0.244885
O O3 0.888047 0.690266 0.375016
O O4 0.675299 0.400521 0.313623
O O5 0.724200 0.470491 0.189601
O O6 0.000000 0.500000 0.292106
O O7 0.684128 0.766131 0.471058
O O8 0.836502 0.662131 0.535644
O O9 0.016579 0.884211 0.457170
O O10 0.606066 0.939219 0.435889
O O11 0.000000 0.000000 0.390399
O O12 0.439516 0.423435 0.099012
O O13 0.220450 0.531190 0.033189
#
# Coordination Sequence:
#
# PCOD9376168 Si02
#       7
#     8   8   8   8   4   4   8
#     4  10  25  46  76 110 149 195 251 319 395 464
#     4  12  27  43  71 108 148 193 258 324 389 477
#     4  10  24  43  71 107 140 186 246 310 370 453
#     4  10  20  36  64  99 133 171 232 298 380 434
#     4  12  28  44  64 106 148 194 252 310 392 484
#     4  10  18  36  66  96 122 180 224 298 372 432
#     4  11  24  41  67  99 143 181 237 307 383 453
#
# _framework density 25.576685999999999
#
# number of rings (size 3 to 8) (size 9 to 14) (size 15 to 20)
#    0.000    1.333    4.167    1.000   15.167    0.000 
#    0.000    1.667    0.000    0.000    0.000    0.000 
#    0.000    0.000    0.000    0.000    0.000    0.000 
#
# Total GULP energy -133677.014133 kJ/mol
# GULP energy per Si atom -5569.875589 kJ/mol
# Density = 2.551847 g / cm^3
# Si number density = 25.576686 Si / 1000 Ang^3
#
#
#
# Elastic Constant Matrix: (Units=GPa)
#
#
# Indices 1 2 3 4 5 6 
#
# 1 100.0257 40.9972 12.2027 0.0000 0.0000 0.0000
# 2 40.9972 96.4828 23.1268 0.0000 0.0001 0.0000
# 3 12.2027 23.1268 75.0778 0.0000 0.0001 0.0000
# 4 0.0000 0.0000 0.0000 16.4575 0.0000 0.0000
# 5 0.0000 0.0001 0.0001 0.0000 30.8864 0.0000
# 6 0.0000 0.0000 0.0000 0.0000 0.0000 63.3798
#
#
#
# Elastic Compliance Matrix: (Units=1/GPa)
#
#
# Indices 1 2 3 4 5 6 
#
# 1 0.012118 -0.005050 -0.000414 0.000000 0.000000 0.000000
# 2 -0.005050 0.013295 -0.003275 0.000000 0.000000 0.000000
# 3 -0.000414 -0.003275 0.014396 0.000000 0.000000 0.000000
# 4 0.000000 0.000000 0.000000 0.060763 0.000000 0.000000
# 5 0.000000 0.000000 0.000000 0.000000 0.032377 0.000000
# 6 0.000000 0.000000 0.000000 0.000000 0.000000 0.015778
#
#
# Mechanical properties :
#
#
# Convention : Reuss Voigt Hill
#
# Bulk Modulus (GPa) = 44.77979 47.13775 45.95877
# Shear Modulus (GPa) = 28.79414 35.16204 31.97809
#
# Velocity S-wave (km/s) = 3.35893 3.71181 3.53977
# Velocity P-wave (km/s) = 5.70870 6.06960 5.89191
#
# Compressibility (1/GPa) = 0.02233150
#
# Stress axis : x y z
#
# Youngs Moduli (GPa) = 82.52409 75.21503 69.46594
#
# Poissons Ratio (x) = 0.37982 0.02876
# Poissons Ratio (y) = 0.41673 0.22748
# Poissons Ratio (z) = 0.03417 0.24630
#
# Static dielectric constant tensor:
#      x y z
#    x 2.102530 0.000000 0.000000 
#    y 0.000000 2.230030 0.000000 
#    z 0.000000 0.000000 2.144240 
# 
# From -- ./inp_files/8673.got.cif
#   From: 2010.05.17/outbox.cif.g08.bks.cpg/sg45_5_cif.got.tgz:8673.got - 2010.06.03 19:51:22.
