data_PCOD9376501
_publ_section_title
;
Structure prediction by ZEFSAII (Michael W. Deem and Ramdas Pophale) SiO2 
 PCOD9376501
Probable space group: I B A 2
;
_chemical_formula_sum "Si O2"
_cell_formula_units_Z 36
_cell_length_a 7.350047
_cell_length_b 16.314227
_cell_length_c 12.578383
_cell_angle_alpha 90.000000
_cell_angle_beta 90.000000
_cell_angle_gamma 90.000000
_cell_volume 1508.278122
_symmetry_space_group_name_H-M "I B A 2"
_symmetry_group_IT_number 45
_symmetry_cell_setting 'orthorhombic'
loop_
_space_group_symop_operation_xyz
x,y,z
-x,-y,z
-x,y,1/2+z
x,-y,1/2+z
1/2+x,1/2+y,1/2+z
1/2-x,1/2-y,1/2+z
1/2-x,1/2+y,z
1/2+x,1/2-y,z
loop_
_atom_site_type_symbol
_atom_site_label
_atom_site_fract_x
_atom_site_fract_y
_atom_site_fract_z
Si Si1 0.883643 0.177300 0.855950
Si Si2 0.500000 0.000000 0.007523
Si Si3 0.223475 0.647994 0.919418
Si Si4 0.676588 0.795943 0.145637
Si Si5 0.714117 0.133782 0.082012
O O1 0.891923 0.276596 0.870630
O O2 0.769344 0.166871 0.748923
O O3 0.839270 0.196821 0.147329
O O4 0.775964 0.146945 0.960130
O O5 0.599283 0.931513 0.935654
O O6 0.338500 0.961951 0.080959
O O7 0.280066 0.678851 0.037540
O O8 0.915593 0.861452 0.860521
O O9 0.478848 0.830244 0.120365
#
# Coordination Sequence:
#
# PCOD9376501 Si02
#       5
#     8   4   8   8   8
#     4  11  21  39  66  93 124 175 228 269 319 390
#     4  10  22  40  58  90 136 170 202 274 340 390
#     4  10  21  38  62  94 132 171 218 269 327 391
#     4  10  20  38  63  89 119 166 222 270 314 384
#     4  10  21  38  61  91 125 164 215 268 329 385
#
# _framework density 23.868276000000002
#
# number of rings (size 3 to 8) (size 9 to 14) (size 15 to 20)
#    0.000    1.778    0.000    9.333    0.000    0.889 
#    0.000   10.000    0.000   10.667    0.000    0.000 
#    0.000    0.000    0.000    0.000    0.000    0.000 
#
# Total GULP energy -100373.896199 kJ/mol
# GULP energy per Si atom -5576.327567 kJ/mol
# Density = 2.381395 g / cm^3
# Si number density = 23.868276 Si / 1000 Ang^3
#
#
#
# Elastic Constant Matrix: (Units=GPa)
#
#
# Indices 1 2 3 4 5 6 
#
# 1 102.6671 17.6391 13.6848 0.0000 0.0000 0.0000
# 2 17.6391 88.4137 -11.4321 0.0000 0.0000 0.0000
# 3 13.6848 -11.4321 118.3886 0.0000 0.0000 0.0000
# 4 0.0000 0.0000 0.0000 12.7258 0.0000 0.0000
# 5 0.0000 0.0000 0.0000 0.0000 28.9927 0.0000
# 6 0.0000 0.0000 0.0000 0.0000 0.0000 45.1438
#
#
#
# Elastic Compliance Matrix: (Units=1/GPa)
#
#
# Indices 1 2 3 4 5 6 
#
# 1 0.010313 -0.002240 -0.001408 0.000000 0.000000 0.000000
# 2 -0.002240 0.011940 0.001412 0.000000 0.000000 0.000000
# 3 -0.001408 0.001412 0.008746 0.000000 0.000000 0.000000
# 4 0.000000 0.000000 0.000000 0.078581 0.000000 0.000000
# 5 0.000000 0.000000 0.000000 0.000000 0.034491 0.000000
# 6 0.000000 0.000000 0.000000 0.000000 0.000000 0.022151
#
#
# Mechanical properties :
#
#
# Convention : Reuss Voigt Hill
#
# Bulk Modulus (GPa) = 37.69841 38.80590 38.25215
# Shear Modulus (GPa) = 27.84953 36.67762 32.26358
#
# Velocity S-wave (km/s) = 3.41955 3.92429 3.68058
# Velocity P-wave (km/s) = 5.60533 6.06853 5.84152
#
# Compressibility (1/GPa) = 0.02652632
#
# Stress axis : x y z
#
# Youngs Moduli (GPa) = 96.96768 83.75329 114.33950
#
# Poissons Ratio (x) = 0.18757 0.16103
# Poissons Ratio (y) = 0.21716 -0.16143
# Poissons Ratio (z) = 0.13656 -0.11825
#
# Static dielectric constant tensor:
#      x y z
#    x 2.020600 0.000000 0.000000 
#    y 0.000000 2.010660 0.000000 
#    z 0.000000 0.000000 1.980830 
# 
# From -- ./inp_files/3622.got.cif
#   From: 2010.05.17/outbox.cif.g08.bks.cpg/sg45_2_cif.got.tgz:3622.got - 2010.06.03 19:51:22.
