data_PCOD9376394
_publ_section_title
;
Structure prediction by ZEFSAII (Michael W. Deem and Ramdas Pophale) SiO2 
 PCOD9376394
Probable space group: I B A 2
;
_chemical_formula_sum "Si O2"
_cell_formula_units_Z 40
_cell_length_a 10.146948
_cell_length_b 19.331248
_cell_length_c 8.777942
_cell_angle_alpha 90.000000
_cell_angle_beta 90.000000
_cell_angle_gamma 90.000000
_cell_volume 1721.821134
_symmetry_space_group_name_H-M "I B A 2"
_symmetry_group_IT_number 45
_symmetry_cell_setting 'orthorhombic'
loop_
_space_group_symop_operation_xyz
x,y,z
-x,-y,z
-x,y,1/2+z
x,-y,1/2+z
1/2+x,1/2+y,1/2+z
1/2-x,1/2-y,1/2+z
1/2-x,1/2+y,z
1/2+x,1/2-y,z
loop_
_atom_site_type_symbol
_atom_site_label
_atom_site_fract_x
_atom_site_fract_y
_atom_site_fract_z
Si Si1 0.838809 0.926442 0.561870
Si Si2 0.000000 0.500000 0.325144
Si Si3 0.668302 0.312894 0.076572
Si Si4 0.000000 0.000000 0.803663
Si Si5 0.325684 0.051393 0.085663
Si Si6 0.616863 0.716858 0.932229
O O1 0.817221 0.848833 0.516805
O O2 0.893569 0.965390 0.412591
O O3 0.717360 0.971917 0.610735
O O4 0.941012 0.940030 0.697858
O O5 0.905791 0.545762 0.431610
O O6 0.921935 0.442101 0.227862
O O7 0.706193 0.394733 0.079248
O O8 0.639979 0.289099 0.250626
O O9 0.538239 0.292034 0.978202
O O10 0.800968 0.280104 0.003478
#
# Coordination Sequence:
#
# PCOD9376394 Si02
#       6
#     8   4   8   4   8   8
#     4  11  21  39  66  97 131 171 224 281 342 406
#     4  10  24  42  66 102 140 178 228 286 352 416
#     4  12  28  48  72 102 142 188 237 291 353 420
#     4  10  20  34  64 100 128 158 216 288 340 394
#     4  11  24  43  69 100 137 182 230 286 348 417
#     4  12  27  47  70 104 142 187 237 292 353 420
#
# _framework density 23.231216
#
# number of rings (size 3 to 8) (size 9 to 14) (size 15 to 20)
#    0.000    0.800    0.000    8.400    0.000   11.200 
#    0.000    0.000    0.000    0.000    0.000    0.000 
#    0.000    0.000    0.000    0.000    0.000    0.000 
#
# Total GULP energy -111807.719341 kJ/mol
# GULP energy per Si atom -5590.385967 kJ/mol
# Density = 2.317834 g / cm^3
# Si number density = 23.231216 Si / 1000 Ang^3
#
#
#
# Elastic Constant Matrix: (Units=GPa)
#
#
# Indices 1 2 3 4 5 6 
#
# 1 112.9708 4.1485 32.3510 0.0000 0.0000 0.0000
# 2 4.1485 47.1721 -9.8339 0.0001 0.0000 0.0000
# 3 32.3510 -9.8339 137.5786 0.0001 -0.0001 0.0000
# 4 0.0000 0.0001 0.0001 13.0586 -0.0001 0.0000
# 5 0.0000 0.0000 -0.0001 -0.0001 20.0205 0.0000
# 6 0.0000 0.0000 0.0000 0.0000 0.0000 39.3415
#
#
#
# Elastic Compliance Matrix: (Units=1/GPa)
#
#
# Indices 1 2 3 4 5 6 
#
# 1 0.009573 -0.001331 -0.002346 0.000000 0.000000 0.000000
# 2 -0.001331 0.021705 0.001864 0.000000 0.000000 0.000000
# 3 -0.002346 0.001864 0.007954 0.000000 0.000000 0.000000
# 4 0.000000 0.000000 0.000000 0.076578 0.000000 0.000000
# 5 0.000000 0.000000 0.000000 0.000000 0.049949 0.000000
# 6 0.000000 0.000000 0.000000 0.000000 0.000000 0.025418
#
#
# Mechanical properties :
#
#
# Convention : Reuss Voigt Hill
#
# Bulk Modulus (GPa) = 28.08557 39.00586 33.54572
# Shear Modulus (GPa) = 24.19322 32.55451 28.37387
#
# Velocity S-wave (km/s) = 3.23059 3.74749 3.49860
# Velocity P-wave (km/s) = 5.10210 5.96252 5.54901
#
# Compressibility (1/GPa) = 0.03560547
#
# Stress axis : x y z
#
# Youngs Moduli (GPa) = 104.46532 46.07303 125.73068
#
# Poissons Ratio (x) = 0.06132 0.29497
# Poissons Ratio (y) = 0.13904 -0.23441
# Poissons Ratio (z) = 0.24508 -0.08590
#
# Static dielectric constant tensor:
#      x y z
#    x 1.981180 0.000000 0.000000 
#    y 0.000000 2.024280 0.000000 
#    z 0.000000 0.000000 1.875820 
# 
# From -- ./inp_files/1279.got.cif
#   From: 2010.05.17/outbox.cif.g08.bks.cpg/sg45_1_cif.got.tgz:1279.got - 2010.06.03 19:51:22.
