data_PCOD9376097
_publ_section_title
;
Structure prediction by ZEFSAII (Michael W. Deem and Ramdas Pophale) SiO2 
 PCOD9376097
Probable space group: I B A 2
;
_chemical_formula_sum "Si O2"
_cell_formula_units_Z 48
_cell_length_a 14.924726
_cell_length_b 8.190583
_cell_length_c 17.766670
_cell_angle_alpha 90.000000
_cell_angle_beta 90.000000
_cell_angle_gamma 90.000000
_cell_volume 2171.836953
_symmetry_space_group_name_H-M "I B A 2"
_symmetry_group_IT_number 45
_symmetry_cell_setting 'orthorhombic'
loop_
_space_group_symop_operation_xyz
x,y,z
-x,-y,z
-x,y,1/2+z
x,-y,1/2+z
1/2+x,1/2+y,1/2+z
1/2-x,1/2-y,1/2+z
1/2-x,1/2+y,z
1/2+x,1/2-y,z
loop_
_atom_site_type_symbol
_atom_site_label
_atom_site_fract_x
_atom_site_fract_y
_atom_site_fract_z
Si Si1 0.872868 0.821753 0.106200
Si Si2 0.048861 0.321167 0.624040
Si Si3 0.402728 0.980842 0.402397
Si Si4 0.708929 0.013004 0.545091
Si Si5 0.664747 0.815264 0.763515
Si Si6 0.140126 0.315659 0.768094
O O1 0.810702 0.960231 0.070900
O O2 0.824180 0.660580 0.074330
O O3 0.866497 0.804115 0.197107
O O4 0.976829 0.798447 0.086226
O O5 0.141199 0.353523 0.581214
O O6 0.073120 0.249019 0.706000
O O7 0.000000 0.500000 0.632282
O O8 0.318433 0.979049 0.457590
O O9 0.390210 0.833170 0.341724
O O10 0.500000 0.000000 0.441490
O O11 0.399352 0.139882 0.348732
O O12 0.768079 0.777622 0.777868
O O13 0.660952 0.002446 0.734920
#
# Coordination Sequence:
#
# PCOD9376097 Si02
#       6
#     8   8   8   8   8   8
#     4  11  20  37  58  82 114 151 195 246 291 352
#     4  10  17  35  57  82 108 150 194 238 283 358
#     4  10  21  36  59  87 116 159 200 236 298 367
#     4  11  22  34  59  86 114 149 195 244 298 356
#     4  10  19  34  58  83 117 151 199 237 295 349
#     4  10  19  34  58  88 111 154 199 244 291 356
#
# _framework density 22.101106000000001
#
# number of rings (size 3 to 8) (size 9 to 14) (size 15 to 20)
#    1.000    0.667    5.000    3.000    2.333    0.000 
#    0.000    0.833    0.000    3.000    0.000    0.000 
#    0.000    0.000    0.000    0.000    0.000    0.000 
#
# Total GULP energy -133716.117952 kJ/mol
# GULP energy per Si atom -5571.504915 kJ/mol
# Density = 2.205080 g / cm^3
# Si number density = 22.101106 Si / 1000 Ang^3
#
#
#
# Elastic Constant Matrix: (Units=GPa)
#
#
# Indices 1 2 3 4 5 6 
#
# 1 95.5623 5.9120 -2.2212 0.0000 0.0000 0.0000
# 2 5.9120 28.4840 -3.6575 0.0000 0.0000 0.0000
# 3 -2.2212 -3.6575 79.7119 0.0000 0.0000 0.0000
# 4 0.0000 0.0000 0.0000 2.5647 0.0000 0.0000
# 5 0.0000 0.0000 0.0000 0.0000 12.7320 0.0000
# 6 0.0000 0.0000 0.0000 0.0000 0.0000 30.2886
#
#
#
# Elastic Compliance Matrix: (Units=1/GPa)
#
#
# Indices 1 2 3 4 5 6 
#
# 1 0.010604 -0.002176 0.000196 0.000000 0.000000 0.000000
# 2 -0.002176 0.035762 0.001580 0.000000 0.000000 0.000000
# 3 0.000196 0.001580 0.012623 0.000000 0.000000 0.000000
# 4 0.000000 0.000000 0.000000 0.389916 0.000000 0.000000
# 5 0.000000 0.000000 0.000000 0.000000 0.078542 0.000000
# 6 0.000000 0.000000 0.000000 0.000000 0.000000 0.033016
#
#
# Mechanical properties :
#
#
# Convention : Reuss Voigt Hill
#
# Bulk Modulus (GPa) = 17.18536 22.64719 19.91628
# Shear Modulus (GPa) = 8.61091 22.69871 15.65481
#
# Velocity S-wave (km/s) = 1.97601 3.20822 2.66433
# Velocity P-wave (km/s) = 3.60539 4.89826 4.30068
#
# Compressibility (1/GPa) = 0.05818906
#
# Stress axis : x y z
#
# Youngs Moduli (GPa) = 94.30823 27.96270 79.21962
#
# Poissons Ratio (x) = 0.06084 -0.01550
# Poissons Ratio (y) = 0.20519 -0.12519
# Poissons Ratio (z) = -0.01845 -0.04419
#
# Static dielectric constant tensor:
#      x y z
#    x 1.843650 0.000000 0.000000 
#    y 0.000000 1.853160 0.000000 
#    z 0.000000 0.000000 1.887920 
# 
# From -- ./inp_files/8165.got.cif
#   From: 2010.05.17/outbox.cif.g08.bks.cpg/sg45_5_cif.got.tgz:8165.got - 2010.06.03 19:51:22.
