data_PCOD9376960
_publ_section_title
;
Structure prediction by ZEFSAII (Michael W. Deem and Ramdas Pophale) SiO2 
 PCOD9376960
Probable space group: I B A 2
;
_chemical_formula_sum "Si O2"
_cell_formula_units_Z 48
_cell_length_a 13.401283
_cell_length_b 13.131884
_cell_length_c 11.075752
_cell_angle_alpha 90.000000
_cell_angle_beta 90.000000
_cell_angle_gamma 90.000000
_cell_volume 1949.156179
_symmetry_space_group_name_H-M "I B A 2"
_symmetry_group_IT_number 45
_symmetry_cell_setting 'orthorhombic'
loop_
_space_group_symop_operation_xyz
x,y,z
-x,-y,z
-x,y,1/2+z
x,-y,1/2+z
1/2+x,1/2+y,1/2+z
1/2-x,1/2-y,1/2+z
1/2-x,1/2+y,z
1/2+x,1/2-y,z
loop_
_atom_site_type_symbol
_atom_site_label
_atom_site_fract_x
_atom_site_fract_y
_atom_site_fract_z
Si Si1 0.513863 0.620845 0.666790
Si Si2 0.734271 0.682589 0.727968
Si Si3 0.558213 0.106469 0.780897
Si Si4 0.941786 0.106468 0.413590
Si Si5 0.013861 0.620845 0.027698
Si Si6 0.765730 0.682587 0.466515
O O1 0.500000 0.500000 0.648518
O O2 0.625590 0.634959 0.715962
O O3 0.444943 0.652779 0.778998
O O4 0.504248 0.660649 0.528599
O O5 0.826002 0.603225 0.741970
O O6 0.749999 0.736558 0.597241
O O7 0.735427 0.750003 0.847240
O O8 0.504245 0.160649 0.665889
O O9 0.555059 0.152778 0.915489
O O10 0.500000 0.000000 0.794512
O O11 0.826000 0.103222 0.452515
O O12 0.000000 0.000000 0.399976
O O13 0.125587 0.634960 0.978525
O O14 0.000000 0.500000 0.045970
#
# Coordination Sequence:
#
# PCOD9376960 Si02
#       6
#     8   8   8   8   8   8
#     4   9  19  36  58  84 114 150 194 240 285 338
#     4  10  22  39  58  84 119 155 190 234 291 349
#     4   9  19  36  58  84 114 150 194 240 285 338
#     4   9  19  36  58  84 114 150 194 240 285 338
#     4   9  19  36  58  84 114 150 194 240 285 338
#     4  10  22  39  58  84 119 155 190 234 291 349
#
# _framework density 24.62604
#
# number of rings (size 3 to 8) (size 9 to 14) (size 15 to 20)
#    0.000    2.667    0.000    0.000    0.000    9.333 
#    0.000   10.000    0.000    0.000    0.000    0.000 
#    0.000    0.000    0.000    0.000    0.000    0.000 
#
# Total GULP energy -133909.039745 kJ/mol
# GULP energy per Si atom -5579.543323 kJ/mol
# Density = 2.456999 g / cm^3
# Si number density = 24.626040 Si / 1000 Ang^3
#
#
#
# Elastic Constant Matrix: (Units=GPa)
#
#
# Indices 1 2 3 4 5 6 
#
# 1 111.8426 10.5962 19.7999 0.0000 0.0000 0.0000
# 2 10.5962 60.8046 31.7828 0.0000 0.0000 0.0000
# 3 19.7999 31.7828 227.8419 0.0000 0.0000 0.0000
# 4 0.0000 0.0000 0.0000 41.8843 0.0000 0.0000
# 5 0.0000 0.0000 0.0000 0.0000 35.6210 0.0000
# 6 0.0000 0.0000 0.0000 0.0000 0.0000 26.8865
#
#
#
# Elastic Compliance Matrix: (Units=1/GPa)
#
#
# Indices 1 2 3 4 5 6 
#
# 1 0.009172 -0.001275 -0.000619 0.000000 0.000000 0.000000
# 2 -0.001275 0.017917 -0.002389 0.000000 0.000000 0.000000
# 3 -0.000619 -0.002389 0.004776 0.000000 0.000000 0.000000
# 4 0.000000 0.000000 0.000000 0.023875 0.000000 0.000000
# 5 0.000000 0.000000 0.000000 0.000000 0.028073 0.000000
# 6 0.000000 0.000000 0.000000 0.000000 0.000000 0.037193
#
#
# Mechanical properties :
#
#
# Convention : Reuss Voigt Hill
#
# Bulk Modulus (GPa) = 42.91930 58.31630 50.61780
# Shear Modulus (GPa) = 36.40668 43.43240 39.91954
#
# Velocity S-wave (km/s) = 3.84914 4.20417 4.03057
# Velocity P-wave (km/s) = 6.10089 6.87742 6.50076
#
# Compressibility (1/GPa) = 0.02329954
#
# Stress axis : x y z
#
# Youngs Moduli (GPa) = 109.03324 55.81376 209.37996
#
# Poissons Ratio (x) = 0.07114 0.12965
# Poissons Ratio (y) = 0.13898 0.50011
# Poissons Ratio (z) = 0.06752 0.13331
#
# Static dielectric constant tensor:
#      x y z
#    x 1.887720 0.000000 0.000000 
#    y 0.000000 2.094280 0.000000 
#    z 0.000000 0.000000 2.080260 
# 
# From -- ./inp_files/3687.got.cif
#   From: 2010.05.17/outbox.cif.g08.bks.cpg/sg45_2_cif.got.tgz:3687.got - 2010.06.03 19:51:22.
