data_PCOD9376099
_publ_section_title
;
Structure prediction by ZEFSAII (Michael W. Deem and Ramdas Pophale) SiO2 
 PCOD9376099
Probable space group: I B A 2
;
_chemical_formula_sum "Si O2"
_cell_formula_units_Z 64
_cell_length_a 26.953799
_cell_length_b 6.254481
_cell_length_c 17.567764
_cell_angle_alpha 90.000000
_cell_angle_beta 90.000000
_cell_angle_gamma 90.000000
_cell_volume 2961.609207
_symmetry_space_group_name_H-M "I B A 2"
_symmetry_group_IT_number 45
_symmetry_cell_setting 'orthorhombic'
loop_
_space_group_symop_operation_xyz
x,y,z
-x,-y,z
-x,y,1/2+z
x,-y,1/2+z
1/2+x,1/2+y,1/2+z
1/2-x,1/2-y,1/2+z
1/2-x,1/2+y,z
1/2+x,1/2-y,z
loop_
_atom_site_type_symbol
_atom_site_label
_atom_site_fract_x
_atom_site_fract_y
_atom_site_fract_z
Si Si1 0.943039 0.011022 0.780640
Si Si2 0.262573 0.484264 0.255228
Si Si3 0.305409 0.460821 0.901221
Si Si4 0.942939 0.994208 0.966052
Si Si5 0.874458 0.351337 0.442529
Si Si6 0.357173 0.740912 0.709890
Si Si7 0.350368 0.756629 0.530177
Si Si8 0.627232 0.130430 0.305879
O O1 0.941365 0.000671 0.873347
O O2 0.914446 0.232368 0.763833
O O3 0.911250 0.827503 0.739684
O O4 0.000000 0.000000 0.757551
O O5 0.253851 0.736316 0.229698
O O6 0.258271 0.494821 0.348010
O O7 0.320599 0.443718 0.237993
O O8 0.337360 0.677176 0.907178
O O9 0.336969 0.282330 0.855303
O O10 0.306613 0.375773 0.987776
O O11 0.917991 0.769027 0.986170
O O12 0.903595 0.164154 0.999601
O O13 0.000000 0.000000 0.990108
O O14 0.846197 0.504386 0.499681
O O15 0.896182 0.483673 0.372051
O O16 0.351592 0.749983 0.620045
O O17 0.344533 0.968632 0.749341
#
# Coordination Sequence:
#
# PCOD9376099 Si02
#       8
#     8   8   8   8   8   8   8   8
#     4  11  22  38  64  96 130 178 236 289 337 410
#     4  12  26  45  77 109 133 178 236 289 348 419
#     4  10  20  42  66  95 125 168 227 281 337 411
#     4  10  19  36  56  90 125 168 234 290 329 405
#     4  10  17  37  60  90 114 175 223 269 347 407
#     4  12  24  43  64  98 142 179 220 287 360 425
#     4  10  23  38  64  91 129 183 216 272 363 418
#     4  11  17  37  65  88 131 172 230 281 339 414
#
# _framework density 21.609874000000001
#
# number of rings (size 3 to 8) (size 9 to 14) (size 15 to 20)
#    0.000    1.250    7.500    0.750    1.750    3.500 
#    0.000    2.500    0.000    0.000    0.000    0.000 
#    0.000    0.000    0.000    0.000    0.000    0.000 
#
# Total GULP energy -178253.628255 kJ/mol
# GULP energy per Si atom -5570.425883 kJ/mol
# Density = 2.156069 g / cm^3
# Si number density = 21.609874 Si / 1000 Ang^3
#
#
#
# Elastic Constant Matrix: (Units=GPa)
#
#
# Indices 1 2 3 4 5 6 
#
# 1 43.9541 28.7371 -2.3601 0.0000 0.0000 0.0000
# 2 28.7371 132.2702 29.9761 0.0000 0.0000 0.0000
# 3 -2.3601 29.9761 106.8136 0.0000 0.0000 0.0000
# 4 0.0000 0.0000 0.0000 19.0671 0.0000 0.0000
# 5 0.0000 0.0000 0.0000 0.0000 11.1121 0.0000
# 6 0.0000 0.0000 0.0000 0.0000 0.0000 26.6205
#
#
#
# Elastic Compliance Matrix: (Units=1/GPa)
#
#
# Indices 1 2 3 4 5 6 
#
# 1 0.027083 -0.006429 0.002403 0.000000 0.000000 0.000000
# 2 -0.006429 0.009600 -0.002836 0.000000 0.000000 0.000000
# 3 0.002403 -0.002836 0.010211 0.000000 0.000000 0.000000
# 4 0.000000 0.000000 0.000000 0.052446 0.000000 0.000000
# 5 0.000000 0.000000 0.000000 0.000000 0.089992 0.000000
# 6 0.000000 0.000000 0.000000 0.000000 0.000000 0.037565
#
#
# Mechanical properties :
#
#
# Convention : Reuss Voigt Hill
#
# Bulk Modulus (GPa) = 30.14813 43.97157 37.05985
# Shear Modulus (GPa) = 19.86664 26.47226 23.16945
#
# Velocity S-wave (km/s) = 3.03534 3.50381 3.27795
# Velocity P-wave (km/s) = 5.12501 6.06308 5.61368
#
# Compressibility (1/GPa) = 0.03316955
#
# Stress axis : x y z
#
# Youngs Moduli (GPa) = 36.92352 104.17004 97.93262
#
# Poissons Ratio (x) = 0.66966 -0.23529
# Poissons Ratio (y) = 0.23736 0.27775
# Poissons Ratio (z) = -0.08871 0.29544
#
# Static dielectric constant tensor:
#      x y z
#    x 1.837920 0.000000 0.000000 
#    y 0.000000 1.868060 0.000000 
#    z 0.000000 0.000000 1.806460 
# 
# From -- ./inp_files/8573.got.cif
#   From: 2010.05.17/outbox.cif.g08.bks.cpg/sg45_5_cif.got.tgz:8573.got - 2010.06.03 19:51:22.
