data_PCOD9376728
_publ_section_title
;
Structure prediction by ZEFSAII (Michael W. Deem and Ramdas Pophale) SiO2 
 PCOD9376728
Probable space group: I B A 2
;
_chemical_formula_sum "Si O2"
_cell_formula_units_Z 64
_cell_length_a 25.427409
_cell_length_b 10.593021
_cell_length_c 9.268615
_cell_angle_alpha 90.000000
_cell_angle_beta 90.000000
_cell_angle_gamma 90.000000
_cell_volume 2496.529975
_symmetry_space_group_name_H-M "I B A 2"
_symmetry_group_IT_number 45
_symmetry_cell_setting 'orthorhombic'
loop_
_space_group_symop_operation_xyz
x,y,z
-x,-y,z
-x,y,1/2+z
x,-y,1/2+z
1/2+x,1/2+y,1/2+z
1/2-x,1/2-y,1/2+z
1/2-x,1/2+y,z
1/2+x,1/2-y,z
loop_
_atom_site_type_symbol
_atom_site_label
_atom_site_fract_x
_atom_site_fract_y
_atom_site_fract_z
Si Si1 0.017323 0.363286 0.788930
Si Si2 0.917800 0.744244 0.575843
Si Si3 0.476658 0.622730 0.953930
Si Si4 0.792842 0.531666 0.774561
Si Si5 0.096489 0.757572 0.767937
Si Si6 0.272237 0.608863 0.024621
Si Si7 0.118870 0.995620 0.637854
Si Si8 0.333211 0.850990 0.023298
O O1 0.058433 0.375926 0.657838
O O2 0.043788 0.249894 0.878859
O O3 0.000000 0.500000 0.846741
O O4 0.962925 0.291444 0.750451
O O5 0.888796 0.707518 0.427539
O O6 0.971653 0.819950 0.532555
O O7 0.886280 0.854352 0.657221
O O8 0.500000 0.500000 0.866867
O O9 0.430539 0.561247 0.047391
O O10 0.759365 0.627107 0.675437
O O11 0.810351 0.441619 0.645883
O O12 0.757335 0.460821 0.894039
O O13 0.841718 0.581126 0.870620
O O14 0.111568 0.906377 0.778080
O O15 0.123518 0.714709 0.621362
O O16 0.325056 0.532686 0.066817
O O17 0.290538 0.746829 0.978613
#
# Coordination Sequence:
#
# PCOD9376728 Si02
#       8
#     8   8   8   8   8   8   8   8
#     4  11  24  40  60  92 134 179 227 282 330 400
#     4  10  22  36  63  91 129 175 219 276 336 391
#     4   9  20  38  63  88 126 178 226 274 331 396
#     4  10  22  42  66  97 126 179 211 274 355 414
#     4  10  23  42  61  91 125 178 222 280 326 408
#     4  10  22  38  68  99 136 165 219 285 338 415
#     4  10  21  38  65  98 130 167 225 279 335 400
#     4  10  22  43  68  91 132 169 225 277 338 416
#
# _framework density 25.635581999999999
#
# number of rings (size 3 to 8) (size 9 to 14) (size 15 to 20)
#    0.000    2.000    1.250    0.750    8.750    3.000 
#    4.500    0.000    0.000    0.000    0.000    0.000 
#    0.000    0.000    0.000    0.000    0.000    0.000 
#
# Total GULP energy -178391.327859 kJ/mol
# GULP energy per Si atom -5574.728996 kJ/mol
# Density = 2.557723 g / cm^3
# Si number density = 25.635582 Si / 1000 Ang^3
#
#
#
# Elastic Constant Matrix: (Units=GPa)
#
#
# Indices 1 2 3 4 5 6 
#
# 1 27.8827 0.7225 10.6802 0.0000 0.0000 0.0000
# 2 0.7225 89.3072 24.5489 0.0000 0.0000 0.0000
# 3 10.6802 24.5489 69.8428 0.0000 0.0000 0.0000
# 4 0.0000 0.0000 0.0000 27.8728 0.0000 0.0000
# 5 0.0000 0.0000 0.0000 0.0000 35.2902 0.0000
# 6 0.0000 0.0000 0.0000 0.0000 0.0000 26.2044
#
#
#
# Elastic Compliance Matrix: (Units=1/GPa)
#
#
# Indices 1 2 3 4 5 6 
#
# 1 0.038262 0.001438 -0.006356 0.000000 0.000000 0.000000
# 2 0.001438 0.012449 -0.004595 0.000000 0.000000 0.000000
# 3 -0.006356 -0.004595 0.016905 0.000000 0.000000 0.000000
# 4 0.000000 0.000000 0.000000 0.035877 0.000000 0.000000
# 5 0.000000 0.000000 0.000000 0.000000 0.028336 0.000000
# 6 0.000000 0.000000 0.000000 0.000000 0.000000 0.038162
#
#
# Mechanical properties :
#
#
# Convention : Reuss Voigt Hill
#
# Bulk Modulus (GPa) = 20.58128 28.77069 24.67598
# Shear Modulus (GPa) = 24.36463 27.94555 26.15509
#
# Velocity S-wave (km/s) = 3.08624 3.30526 3.19762
# Velocity P-wave (km/s) = 4.55474 5.08071 4.82490
#
# Compressibility (1/GPa) = 0.04858785
#
# Stress axis : x y z
#
# Youngs Moduli (GPa) = 26.13555 80.32848 59.15369
#
# Poissons Ratio (x) = -0.11549 0.37600
# Poissons Ratio (y) = -0.03757 0.27184
# Poissons Ratio (z) = 0.16613 0.36915
#
# Static dielectric constant tensor:
#      x y z
#    x 2.158240 0.000000 0.000000 
#    y 0.000000 2.133910 0.000000 
#    z 0.000000 0.000000 2.150760 
# 
# From -- ./inp_files/2780.got.cif
#   From: 2010.05.17/outbox.cif.g08.bks.cpg/sg45_2_cif.got.tgz:2780.got - 2010.06.03 19:51:22.
