data_PCOD9376785
_publ_section_title
;
Structure prediction by ZEFSAII (Michael W. Deem and Ramdas Pophale) SiO2 
 PCOD9376785
Probable space group: I B A 2
;
_chemical_formula_sum "Si O2"
_cell_formula_units_Z 48
_cell_length_a 10.208418
_cell_length_b 14.332565
_cell_length_c 13.153115
_cell_angle_alpha 90.000000
_cell_angle_beta 90.000000
_cell_angle_gamma 90.000000
_cell_volume 1924.469276
_symmetry_space_group_name_H-M "I B A 2"
_symmetry_group_IT_number 45
_symmetry_cell_setting 'orthorhombic'
loop_
_space_group_symop_operation_xyz
x,y,z
-x,-y,z
-x,y,1/2+z
x,-y,1/2+z
1/2+x,1/2+y,1/2+z
1/2-x,1/2-y,1/2+z
1/2-x,1/2+y,z
1/2+x,1/2-y,z
loop_
_atom_site_type_symbol
_atom_site_label
_atom_site_fract_x
_atom_site_fract_y
_atom_site_fract_z
Si Si1 0.695179 0.031732 0.042160
Si Si2 0.300180 0.553886 0.226900
Si Si3 0.748811 0.389978 0.872852
Si Si4 0.756766 0.745459 0.229391
Si Si5 0.886923 0.267298 0.507926
Si Si6 0.446649 0.640558 0.616246
O O1 0.614495 0.121040 0.003344
O O2 0.841560 0.074366 0.061080
O O3 0.683938 0.983543 0.153013
O O4 0.688120 0.949461 0.961834
O O5 0.324402 0.472109 0.308188
O O6 0.257026 0.651977 0.274995
O O7 0.427982 0.585252 0.160748
O O8 0.836303 0.331439 0.793408
O O9 0.672115 0.303043 0.924589
O O10 0.811005 0.749959 0.115042
O O11 0.617399 0.696053 0.210501
O O12 0.024238 0.220153 0.533645
#
# Coordination Sequence:
#
# PCOD9376785 Si02
#       6
#     8   8   8   8   8   8
#     4  11  22  40  65  91 124 163 208 250 309 368
#     4  11  22  40  65  91 124 163 208 250 309 368
#     4  12  22  37  70  89 126 164 206 249 324 355
#     4  10  22  40  61  92 129 159 201 263 305 357
#     4  10  22  40  61  92 129 159 201 263 305 357
#     4  10  21  40  63  94 128 158 201 274 295 352
#
# _framework density 24.941942000000001
#
# number of rings (size 3 to 8) (size 9 to 14) (size 15 to 20)
#    0.000    1.333    6.667    1.500    0.000    2.667 
#    0.000    2.500    0.000    8.000    0.000    0.000 
#    0.000    0.000    0.000    0.000    0.000    0.000 
#
# Total GULP energy -133699.205026 kJ/mol
# GULP energy per Si atom -5570.800209 kJ/mol
# Density = 2.488517 g / cm^3
# Si number density = 24.941942 Si / 1000 Ang^3
#
#
#
# Elastic Constant Matrix: (Units=GPa)
#
#
# Indices 1 2 3 4 5 6 
#
# 1 34.0147 34.8385 8.1808 0.0000 0.0000 0.0000
# 2 34.8385 241.3763 59.2854 0.0000 0.0000 -0.0001
# 3 8.1808 59.2854 96.3252 -0.0001 0.0000 0.0000
# 4 0.0000 0.0000 -0.0001 69.4110 0.0000 0.0000
# 5 0.0000 0.0000 0.0000 0.0000 6.7539 0.0000
# 6 0.0000 -0.0001 0.0000 0.0000 0.0000 -118.9825
#
#
#
# Elastic Compliance Matrix: (Units=1/GPa)
#
#
# Indices 1 2 3 4 5 6 
#
# 1 0.034501 -0.005019 0.000159 0.000000 0.000000 0.000000
# 2 -0.005019 0.005611 -0.003027 0.000000 0.000000 0.000000
# 3 0.000159 -0.003027 0.012231 0.000000 0.000000 0.000000
# 4 0.000000 0.000000 0.000000 0.014407 0.000000 0.000000
# 5 0.000000 0.000000 0.000000 0.000000 0.148063 0.000000
# 6 0.000000 0.000000 0.000000 0.000000 0.000000 -0.008405
#
#
# Mechanical properties :
#
#
# Convention : Reuss Voigt Hill
#
# Bulk Modulus (GPa) = 27.34561 64.03616 45.69088
# Shear Modulus (GPa) = 21.33361 9.39724 15.36543
#
# Velocity S-wave (km/s) = 2.92778 1.94315 2.48472
# Velocity P-wave (km/s) = 4.73463 5.54655 5.15659
#
# Compressibility (1/GPa) = 0.03656895
#
# Stress axis : x y z
#
# Youngs Moduli (GPa) = 28.98462 178.22969 81.75897
#
# Poissons Ratio (x) = 0.89446 -0.01297
# Poissons Ratio (y) = 0.14546 0.24749
# Poissons Ratio (z) = -0.00460 0.53951
#
# Static dielectric constant tensor:
#      x y z
#    x 2.128220 0.000000 0.000000 
#    y 0.000000 2.114350 0.000000 
#    z 0.000000 0.000000 2.189950 
# 
# From -- ./inp_files/6115.got.cif
#   From: 2010.05.17/outbox.cif.g08.bks.cpg/sg45_4_cif.got.tgz:6115.got - 2010.06.03 19:51:22.
