data_PCOD9376911
_publ_section_title
;
Structure prediction by ZEFSAII (Michael W. Deem and Ramdas Pophale) SiO2 
 PCOD9376911
Probable space group: I B A 2
;
_chemical_formula_sum "Si O2"
_cell_formula_units_Z 60
_cell_length_a 11.599036
_cell_length_b 17.371369
_cell_length_c 14.076165
_cell_angle_alpha 90.000000
_cell_angle_beta 90.000000
_cell_angle_gamma 90.000000
_cell_volume 2836.222454
_symmetry_space_group_name_H-M "I B A 2"
_symmetry_group_IT_number 45
_symmetry_cell_setting 'orthorhombic'
loop_
_space_group_symop_operation_xyz
x,y,z
-x,-y,z
-x,y,1/2+z
x,-y,1/2+z
1/2+x,1/2+y,1/2+z
1/2-x,1/2-y,1/2+z
1/2-x,1/2+y,z
1/2+x,1/2-y,z
loop_
_atom_site_type_symbol
_atom_site_label
_atom_site_fract_x
_atom_site_fract_y
_atom_site_fract_z
Si Si1 0.899115 0.606868 0.787730
Si Si2 0.719639 0.526203 0.292380
Si Si3 0.172852 0.243357 0.869105
Si Si4 0.327776 0.823815 0.599288
Si Si5 0.584879 0.639946 0.537361
Si Si6 0.369973 0.140255 0.892567
Si Si7 0.500000 0.500000 0.904638
Si Si8 0.125496 0.166230 0.678528
O O1 0.823806 0.531363 0.773342
O O2 0.832836 0.666097 0.856928
O O3 0.903888 0.645659 0.685053
O O4 0.024302 0.606551 0.834695
O O5 0.767479 0.579120 0.378626
O O6 0.607131 0.484511 0.333792
O O7 0.686968 0.585376 0.206920
O O8 0.305355 0.216577 0.855317
O O9 0.103853 0.203780 0.782221
O O10 0.118163 0.209850 0.965215
O O11 0.206937 0.869597 0.591709
O O12 0.392901 0.840231 0.501228
O O13 0.305156 0.733330 0.621630
O O14 0.536687 0.570546 0.472522
O O15 0.487846 0.655259 0.615868
#
# Coordination Sequence:
#
# PCOD9376911 Si02
#       8
#     8   8   8   8   8   8   4   8
#     4  11  24  39  73  98 133 189 229 287 352 422
#     4  11  25  43  65 104 139 188 226 283 365 417
#     4   9  21  44  64 100 133 180 238 284 346 418
#     4  10  23  42  66 102 130 182 241 287 345 418
#     4  11  23  42  69  99 136 184 233 295 351 407
#     4  10  21  48  64  91 147 175 236 292 342 423
#     4  12  24  42  68  98 146 182 224 298 350 410
#     4  10  22  39  66  96 138 174 224 294 341 412
#
# _framework density 21.154899
#
# number of rings (size 3 to 8) (size 9 to 14) (size 15 to 20)
#    0.000    1.600    4.000    1.200    3.733    9.600 
#    0.000    5.333    0.000    0.000    0.000    0.000 
#    0.000    0.000    0.000    0.000    0.000    0.000 
#
# Total GULP energy -167190.644546 kJ/mol
# GULP energy per Si atom -5573.021485 kJ/mol
# Density = 2.110675 g / cm^3
# Si number density = 21.154899 Si / 1000 Ang^3
#
#
#
# Elastic Constant Matrix: (Units=GPa)
#
#
# Indices 1 2 3 4 5 6 
#
# 1 129.0289 46.7198 55.5302 0.0000 0.0000 0.0000
# 2 46.7198 75.3580 30.0226 0.0000 0.0000 0.0000
# 3 55.5302 30.0226 126.9968 0.0001 0.0000 0.0000
# 4 0.0000 0.0000 0.0001 24.8626 0.0000 0.0000
# 5 0.0000 0.0000 0.0000 0.0000 27.3065 0.0000
# 6 0.0000 0.0000 0.0000 0.0000 0.0000 22.8456
#
#
#
# Elastic Compliance Matrix: (Units=1/GPa)
#
#
# Indices 1 2 3 4 5 6 
#
# 1 0.011336 -0.005579 -0.003638 0.000000 0.000000 0.000000
# 2 -0.005579 0.017395 -0.001673 0.000000 0.000000 0.000000
# 3 -0.003638 -0.001673 0.009860 0.000000 0.000000 0.000000
# 4 0.000000 0.000000 0.000000 0.040221 0.000000 0.000000
# 5 0.000000 0.000000 0.000000 0.000000 0.036621 0.000000
# 6 0.000000 0.000000 0.000000 0.000000 0.000000 0.043772
#
#
# Mechanical properties :
#
#
# Convention : Reuss Voigt Hill
#
# Bulk Modulus (GPa) = 59.47985 66.21433 62.84709
# Shear Modulus (GPa) = 26.79693 28.27701 27.53697
#
# Velocity S-wave (km/s) = 3.56294 3.66001 3.61180
# Velocity P-wave (km/s) = 6.71591 7.01631 6.86775
#
# Compressibility (1/GPa) = 0.01681242
#
# Stress axis : x y z
#
# Youngs Moduli (GPa) = 88.21666 57.48764 101.41580
#
# Poissons Ratio (x) = 0.32070 0.36893
# Poissons Ratio (y) = 0.49212 0.16967
# Poissons Ratio (z) = 0.32092 0.09618
#
# Static dielectric constant tensor:
#      x y z
#    x 1.785130 0.000000 0.000000 
#    y 0.000000 1.848150 0.000000 
#    z 0.000000 0.000000 1.760000 
# 
# From -- ./inp_files/6248.got.cif
#   From: 2010.05.17/outbox.cif.g08.bks.cpg/sg45_4_cif.got.tgz:6248.got - 2010.06.03 19:51:22.
