data_PCOD9376824
_publ_section_title
;
Structure prediction by ZEFSAII (Michael W. Deem and Ramdas Pophale) SiO2 
 PCOD9376824
Probable space group: I B A 2
;
_chemical_formula_sum "Si O2"
_cell_formula_units_Z 56
_cell_length_a 13.774052
_cell_length_b 13.881776
_cell_length_c 13.825993
_cell_angle_alpha 90.000000
_cell_angle_beta 90.000000
_cell_angle_gamma 90.000000
_cell_volume 2643.644679
_symmetry_space_group_name_H-M "I B A 2"
_symmetry_group_IT_number 45
_symmetry_cell_setting 'orthorhombic'
loop_
_space_group_symop_operation_xyz
x,y,z
-x,-y,z
-x,y,1/2+z
x,-y,1/2+z
1/2+x,1/2+y,1/2+z
1/2-x,1/2-y,1/2+z
1/2-x,1/2+y,z
1/2+x,1/2-y,z
loop_
_atom_site_type_symbol
_atom_site_label
_atom_site_fract_x
_atom_site_fract_y
_atom_site_fract_z
Si Si1 0.848984 0.343447 0.411850
Si Si2 0.054936 0.154820 0.223563
Si Si3 0.833102 0.223586 0.224347
Si Si4 0.151016 0.343447 0.316022
Si Si5 0.500000 0.000000 0.863936
Si Si6 0.554936 0.345180 0.004309
Si Si7 0.000000 0.000000 0.363936
Si Si8 0.666898 0.276414 0.503525
O O1 0.833853 0.312957 0.299630
O O2 0.926204 0.429146 0.420427
O O3 0.745126 0.352613 0.462761
O O4 0.893078 0.248561 0.462537
O O5 0.106922 0.248561 0.265335
O O6 0.940344 0.179402 0.224929
O O7 0.065557 0.066039 0.295135
O O8 0.084451 0.134101 0.113936
O O9 0.754874 0.147387 0.265111
O O10 0.809627 0.250657 0.113936
O O11 0.166147 0.312957 0.428242
O O12 0.073796 0.429146 0.307445
O O13 0.565557 0.433961 0.932737
O O14 0.440344 0.320598 0.002943
#
# Coordination Sequence:
#
# PCOD9376824 Si02
#       8
#     8   8   8   8   4   8   4   8
#     4  11  22  43  65  94 135 169 223 276 337 401
#     4  11  22  41  64  91 127 170 215 269 333 395
#     4  10  21  41  65  88 125 175 214 265 332 397
#     4  11  22  43  65  94 135 169 223 276 337 401
#     4  12  22  42  70 102 130 182 218 282 342 382
#     4  11  22  41  64  91 127 170 215 269 333 395
#     4  12  20  38  60  92 116 162 212 274 308 388
#     4  10  21  41  65  88 125 175 214 265 332 397
#
# _framework density 21.182877999999999
#
# number of rings (size 3 to 8) (size 9 to 14) (size 15 to 20)
#    0.000    1.143    5.714    1.286    0.000    1.143 
#    0.000    6.429    0.000    0.000    0.000    0.000 
#    0.000    0.000    0.000    0.000    0.000    0.000 
#
# Total GULP energy -156455.589451 kJ/mol
# GULP energy per Si atom -5587.699623 kJ/mol
# Density = 2.113466 g / cm^3
# Si number density = 21.182878 Si / 1000 Ang^3
#
#
#
# Elastic Constant Matrix: (Units=GPa)
#
#
# Indices 1 2 3 4 5 6 
#
# 1 99.4774 10.0558 17.7231 0.0000 0.0000 0.0000
# 2 10.0558 86.0415 39.8135 0.0000 0.0000 0.0000
# 3 17.7231 39.8135 182.0740 0.0000 0.0000 0.0000
# 4 0.0000 0.0000 0.0000 6.4282 0.0000 0.0000
# 5 0.0000 0.0000 0.0000 0.0000 27.3469 0.0000
# 6 0.0000 0.0000 0.0000 0.0000 0.0000 23.0998
#
#
#
# Elastic Compliance Matrix: (Units=1/GPa)
#
#
# Indices 1 2 3 4 5 6 
#
# 1 0.010282 -0.000822 -0.000821 0.000000 0.000000 0.000000
# 2 -0.000822 0.012996 -0.002762 0.000000 0.000000 0.000000
# 3 -0.000821 -0.002762 0.006176 0.000000 0.000000 0.000000
# 4 0.000000 0.000000 0.000000 0.155564 0.000000 0.000000
# 5 0.000000 0.000000 0.000000 0.000000 0.036567 0.000000
# 6 0.000000 0.000000 0.000000 0.000000 0.000000 0.043290
#
#
# Mechanical properties :
#
#
# Convention : Reuss Voigt Hill
#
# Bulk Modulus (GPa) = 48.43815 55.86419 52.15117
# Shear Modulus (GPa) = 17.82104 31.37501 24.59803
#
# Velocity S-wave (km/s) = 2.90365 3.85275 3.41137
# Velocity P-wave (km/s) = 5.84448 6.79861 6.33952
#
# Compressibility (1/GPa) = 0.02064489
#
# Stress axis : x y z
#
# Youngs Moduli (GPa) = 97.25833 76.94491 161.91366
#
# Poissons Ratio (x) = 0.06322 0.13296
# Poissons Ratio (y) = 0.07992 0.44718
# Poissons Ratio (z) = 0.07986 0.21251
#
# Static dielectric constant tensor:
#      x y z
#    x 1.804840 0.000000 0.000000 
#    y 0.000000 1.754150 0.000000 
#    z 0.000000 0.000000 1.777980 
# 
# From -- ./inp_files/6595.got.cif
#   From: 2010.05.17/outbox.cif.g08.bks.cpg/sg45_4_cif.got.tgz:6595.got - 2010.06.03 19:51:22.
