data_PCOD9376739
_publ_section_title
;
Structure prediction by ZEFSAII (Michael W. Deem and Ramdas Pophale) SiO2 
 PCOD9376739
Probable space group: I B A 2
;
_chemical_formula_sum "Si O2"
_cell_formula_units_Z 48
_cell_length_a 8.585015
_cell_length_b 12.989593
_cell_length_c 20.128906
_cell_angle_alpha 90.000000
_cell_angle_beta 90.000000
_cell_angle_gamma 90.000000
_cell_volume 2244.692077
_symmetry_space_group_name_H-M "I B A 2"
_symmetry_group_IT_number 45
_symmetry_cell_setting 'orthorhombic'
loop_
_space_group_symop_operation_xyz
x,y,z
-x,-y,z
-x,y,1/2+z
x,-y,1/2+z
1/2+x,1/2+y,1/2+z
1/2-x,1/2-y,1/2+z
1/2-x,1/2+y,z
1/2+x,1/2-y,z
loop_
_atom_site_type_symbol
_atom_site_label
_atom_site_fract_x
_atom_site_fract_y
_atom_site_fract_z
Si Si1 0.347515 0.625730 0.850250
Si Si2 0.354453 0.280124 0.781625
Si Si3 0.839584 0.644513 0.153846
Si Si4 0.319107 0.021724 0.251626
Si Si5 0.576164 0.610136 0.503781
Si Si6 0.122054 0.711617 0.068586
O O1 0.494145 0.663057 0.807545
O O2 0.221026 0.716409 0.841882
O O3 0.275516 0.529617 0.811693
O O4 0.391470 0.603887 0.925295
O O5 0.387685 0.203467 0.721242
O O6 0.231486 0.361356 0.753138
O O7 0.783548 0.534633 0.181654
O O8 0.704428 0.711095 0.120531
O O9 0.986170 0.646169 0.104328
O O10 0.500000 0.000000 0.263569
O O11 0.500000 0.500000 0.524983
O O12 0.740880 0.640795 0.538371
O O13 0.462418 0.707525 0.518611
#
# Coordination Sequence:
#
# PCOD9376739 Si02
#       6
#     8   8   8   8   8   8
#     4  11  23  40  62  91 122 156 206 256 310 377
#     4  11  21  38  64  91 122 158 194 256 324 372
#     4  10  21  39  59  90 124 156 202 253 308 373
#     4  11  22  36  61  94 122 156 198 251 315 379
#     4  11  24  44  65  90 125 172 216 260 314 372
#     4  10  23  41  63  90 126 168 214 260 305 371
#
# _framework density 21.383778
#
# number of rings (size 3 to 8) (size 9 to 14) (size 15 to 20)
#    0.000    1.333    0.000    7.500    0.000    4.000 
#    0.000    4.167    0.000    0.000    0.000    0.000 
#    0.000    0.000    0.000    0.000    0.000    0.000 
#
# Total GULP energy -134189.729820 kJ/mol
# GULP energy per Si atom -5591.238742 kJ/mol
# Density = 2.133511 g / cm^3
# Si number density = 21.383778 Si / 1000 Ang^3
#
#
#
# Elastic Constant Matrix: (Units=GPa)
#
#
# Indices 1 2 3 4 5 6 
#
# 1 58.9851 13.8395 20.3476 0.0000 0.0000 0.0000
# 2 13.8395 102.5347 28.1727 0.0000 0.0000 0.0000
# 3 20.3476 28.1727 88.3949 0.0000 0.0000 0.0000
# 4 0.0000 0.0000 0.0000 30.4093 0.0000 0.0000
# 5 0.0000 0.0000 0.0000 0.0000 32.4907 0.0000
# 6 0.0000 0.0000 0.0000 0.0000 0.0000 19.4297
#
#
#
# Elastic Compliance Matrix: (Units=1/GPa)
#
#
# Indices 1 2 3 4 5 6 
#
# 1 0.018614 -0.001463 -0.003818 0.000000 0.000000 0.000000
# 2 -0.001463 0.010804 -0.003107 0.000000 0.000000 0.000000
# 3 -0.003818 -0.003107 0.013182 0.000000 0.000000 0.000000
# 4 0.000000 0.000000 0.000000 0.032885 0.000000 0.000000
# 5 0.000000 0.000000 0.000000 0.000000 0.030778 0.000000
# 6 0.000000 0.000000 0.000000 0.000000 0.000000 0.051467
#
#
# Mechanical properties :
#
#
# Convention : Reuss Voigt Hill
#
# Bulk Modulus (GPa) = 38.72453 41.62603 40.17528
# Shear Modulus (GPa) = 27.30540 28.96961 28.13750
#
# Velocity S-wave (km/s) = 3.57728 3.68468 3.63138
# Velocity P-wave (km/s) = 5.93390 6.13278 6.03416
#
# Compressibility (1/GPa) = 0.02582342
#
# Stress axis : x y z
#
# Youngs Moduli (GPa) = 53.72313 92.55958 75.86153
#
# Poissons Ratio (x) = 0.13544 0.28967
# Poissons Ratio (y) = 0.07861 0.23567
# Poissons Ratio (z) = 0.20514 0.28754
#
# Static dielectric constant tensor:
#      x y z
#    x 1.795140 0.000000 0.000000 
#    y 0.000000 1.809400 0.000000 
#    z 0.000000 0.000000 1.739680 
# 
# From -- ./inp_files/7554.got.cif
#   From: 2010.05.17/outbox.cif.g08.bks.cpg/sg45_4_cif.got.tgz:7554.got - 2010.06.03 19:51:22.
