data_PCOD9376488
_publ_section_title
;
Structure prediction by ZEFSAII (Michael W. Deem and Ramdas Pophale) SiO2 
 PCOD9376488
Probable space group: I B A 2
;
_chemical_formula_sum "Si O2"
_cell_formula_units_Z 52
_cell_length_a 19.186449
_cell_length_b 5.168049
_cell_length_c 21.101965
_cell_angle_alpha 90.000000
_cell_angle_beta 90.000000
_cell_angle_gamma 90.000000
_cell_volume 2092.397173
_symmetry_space_group_name_H-M "I B A 2"
_symmetry_group_IT_number 45
_symmetry_cell_setting 'orthorhombic'
loop_
_space_group_symop_operation_xyz
x,y,z
-x,-y,z
-x,y,1/2+z
x,-y,1/2+z
1/2+x,1/2+y,1/2+z
1/2-x,1/2-y,1/2+z
1/2-x,1/2+y,z
1/2+x,1/2-y,z
loop_
_atom_site_type_symbol
_atom_site_label
_atom_site_fract_x
_atom_site_fract_y
_atom_site_fract_z
Si Si1 0.451139 0.757578 0.079910
Si Si2 0.000000 0.000000 0.252200
Si Si3 0.579690 0.109744 0.818128
Si Si4 0.704438 0.626693 0.144452
Si Si5 0.202525 0.160643 0.495595
Si Si6 0.387370 0.232682 0.702866
Si Si7 0.578889 0.610608 0.440002
O O1 0.500000 0.500000 0.088965
O O2 0.388613 0.835491 0.128349
O O3 0.500000 0.000000 0.081514
O O4 0.422896 0.737450 0.008931
O O5 0.970531 0.776023 0.209656
O O6 0.063215 0.898968 0.293177
O O7 0.603371 0.177927 0.888490
O O8 0.500000 0.000000 0.823878
O O9 0.623377 0.944920 0.765578
O O10 0.736273 0.907783 0.156835
O O11 0.647898 0.515842 0.193534
O O12 0.682174 0.631747 0.070692
O O13 0.258430 0.930431 0.485838
O O14 0.136711 0.111724 0.449954
O O15 0.500000 0.500000 0.427036
#
# Coordination Sequence:
#
# PCOD9376488 Si02
#       7
#     8   4   8   8   8   8   8
#     4  11  23  37  63 102 133 163 226 295 341 403
#     4  10  20  38  60  92 136 170 216 268 366 404
#     4  10  22  39  62  96 140 184 216 281 360 429
#     4  10  23  42  66  95 132 180 234 285 351 412
#     4  10  23  45  69  99 140 187 230 293 367 426
#     4  11  22  39  64  95 132 179 226 282 344 419
#     4  11  23  44  71 105 140 188 240 300 355 432
#
# _framework density 24.851877999999999
#
# number of rings (size 3 to 8) (size 9 to 14) (size 15 to 20)
#    0.000    1.538    3.077    1.846    2.154    3.692 
#    0.000    1.538    0.000    0.000    0.000    0.000 
#    0.000    0.000    0.000    0.000    0.000    0.000 
#
# Total GULP energy -144836.683217 kJ/mol
# GULP energy per Si atom -5570.641662 kJ/mol
# Density = 2.479531 g / cm^3
# Si number density = 24.851878 Si / 1000 Ang^3
#
#
#
# Elastic Constant Matrix: (Units=GPa)
#
#
# Indices 1 2 3 4 5 6 
#
# 1 65.5890 22.0526 37.0565 0.0000 0.0000 0.0000
# 2 22.0526 110.3228 32.8787 0.0000 0.0000 0.0000
# 3 37.0565 32.8787 142.7404 0.0000 0.0000 0.0000
# 4 0.0000 0.0000 0.0000 25.3204 0.0000 0.0000
# 5 0.0000 0.0000 0.0000 0.0000 20.5734 0.0000
# 6 0.0000 0.0000 0.0000 0.0000 0.0000 44.4401
#
#
#
# Elastic Compliance Matrix: (Units=1/GPa)
#
#
# Indices 1 2 3 4 5 6 
#
# 1 0.018453 -0.002428 -0.004231 0.000000 0.000000 0.000000
# 2 -0.002428 0.010052 -0.001685 0.000000 0.000000 0.000000
# 3 -0.004231 -0.001685 0.008492 0.000000 0.000000 0.000000
# 4 0.000000 0.000000 0.000000 0.039494 0.000000 0.000000
# 5 0.000000 0.000000 0.000000 0.000000 0.048606 0.000000
# 6 0.000000 0.000000 0.000000 0.000000 0.000000 0.022502
#
#
# Mechanical properties :
#
#
# Convention : Reuss Voigt Hill
#
# Bulk Modulus (GPa) = 49.23875 55.84753 52.54314
# Shear Modulus (GPa) = 29.22984 33.17774 31.20379
#
# Velocity S-wave (km/s) = 3.43324 3.65776 3.54728
# Velocity P-wave (km/s) = 5.96424 6.35294 6.16165
#
# Compressibility (1/GPa) = 0.02030921
#
# Stress axis : x y z
#
# Youngs Moduli (GPa) = 54.19065 99.48503 117.75249
#
# Poissons Ratio (x) = 0.24151 0.49827
# Poissons Ratio (y) = 0.13155 0.19842
# Poissons Ratio (z) = 0.22931 0.16764
#
# Static dielectric constant tensor:
#      x y z
#    x 2.089360 0.000000 0.000000 
#    y 0.000000 2.184240 0.000000 
#    z 0.000000 0.000000 2.101090 
# 
# From -- ./inp_files/9295.got.cif
#   From: 2010.05.17/outbox.cif.g08.bks.cpg/sg45_5_cif.got.tgz:9295.got - 2010.06.03 19:51:22.
