data_PCOD9376995
_publ_section_title
;
Structure prediction by ZEFSAII (Michael W. Deem and Ramdas Pophale) SiO2 
 PCOD9376995
Probable space group: I B A 2
;
_chemical_formula_sum "Si O2"
_cell_formula_units_Z 60
_cell_length_a 12.926592
_cell_length_b 12.885822
_cell_length_c 17.099034
_cell_angle_alpha 90.000000
_cell_angle_beta 90.000000
_cell_angle_gamma 90.000000
_cell_volume 2848.182051
_symmetry_space_group_name_H-M "I B A 2"
_symmetry_group_IT_number 45
_symmetry_cell_setting 'orthorhombic'
loop_
_space_group_symop_operation_xyz
x,y,z
-x,-y,z
-x,y,1/2+z
x,-y,1/2+z
1/2+x,1/2+y,1/2+z
1/2-x,1/2-y,1/2+z
1/2-x,1/2+y,z
1/2+x,1/2-y,z
loop_
_atom_site_type_symbol
_atom_site_label
_atom_site_fract_x
_atom_site_fract_y
_atom_site_fract_z
Si Si1 0.120876 0.791844 0.001930
Si Si2 0.353071 0.694476 0.756542
Si Si3 0.071630 0.865550 0.688736
Si Si4 0.886157 0.003147 0.343954
Si Si5 0.000000 0.000000 0.050343
Si Si6 0.276731 0.845534 0.878091
Si Si7 0.549624 0.887576 0.505257
Si Si8 0.705217 0.177095 0.130421
O O1 0.208811 0.786606 0.068155
O O2 0.183554 0.780785 0.920024
O O3 0.067004 0.905714 0.011896
O O4 0.036489 0.702262 0.012274
O O5 0.460515 0.687968 0.708901
O O6 0.369742 0.623978 0.831880
O O7 0.312580 0.801386 0.794112
O O8 0.270288 0.633951 0.702890
O O9 0.097441 0.937196 0.763433
O O10 0.148421 0.774081 0.669086
O O11 0.071043 0.936396 0.611619
O O12 0.781541 0.955862 0.377042
O O13 0.000000 0.000000 0.381911
O O14 0.374796 0.854746 0.934520
O O15 0.621657 0.888855 0.582905
O O16 0.500000 0.000000 0.492429
#
# Coordination Sequence:
#
# PCOD9376995 Si02
#       8
#     8   8   8   8   4   8   8   8
#     4  11  26  43  68  99 132 183 227 283 342 412
#     4  11  22  40  68 100 133 169 230 279 345 407
#     4  11  20  40  70 104 133 162 225 298 341 402
#     4  10  22  40  65  97 128 168 221 282 333 401
#     4  12  20  42  70 100 130 164 232 290 336 390
#     4  11  27  42  65  98 134 189 221 274 350 416
#     4  11  27  47  63  96 146 182 228 280 346 424
#     4  11  21  44  70 101 128 176 228 280 348 403
#
# _framework density 21.066068000000001
#
# number of rings (size 3 to 8) (size 9 to 14) (size 15 to 20)
#    0.000    1.067    6.000    0.000    6.533    3.200 
#    2.400    0.000    0.000    0.000    0.000    0.000 
#    0.000    0.000    0.000    0.000    0.000    0.000 
#
# Total GULP energy -167183.540457 kJ/mol
# GULP energy per Si atom -5572.784682 kJ/mol
# Density = 2.101812 g / cm^3
# Si number density = 21.066068 Si / 1000 Ang^3
#
#
#
# Elastic Constant Matrix: (Units=GPa)
#
#
# Indices 1 2 3 4 5 6 
#
# 1 121.0650 55.9790 29.7039 0.0000 0.0000 0.0000
# 2 55.9790 74.7205 15.9502 0.0000 0.0000 0.0000
# 3 29.7039 15.9502 50.7768 0.0000 0.0000 0.0000
# 4 0.0000 0.0000 0.0000 -3.8051 0.0000 0.0000
# 5 0.0000 0.0000 0.0000 0.0000 -137.1870 0.0000
# 6 0.0000 0.0000 0.0000 0.0000 0.0000 28.6574
#
#
#
# Elastic Compliance Matrix: (Units=1/GPa)
#
#
# Indices 1 2 3 4 5 6 
#
# 1 0.013798 -0.009233 -0.005171 0.000000 0.000000 0.000000
# 2 -0.009233 0.020524 -0.001046 0.000000 0.000000 0.000000
# 3 -0.005171 -0.001046 0.023048 0.000000 0.000000 0.000000
# 4 0.000000 0.000000 0.000000 -0.262807 0.000000 0.000000
# 5 0.000000 0.000000 0.000000 0.000000 -0.007289 0.000000
# 6 0.000000 0.000000 0.000000 0.000000 0.000000 0.034895
#
#
# Mechanical properties :
#
#
# Convention : Reuss Voigt Hill
#
# Bulk Modulus (GPa) = 37.78001 49.98092 43.88047
# Shear Modulus (GPa) = -36.20361 -12.80498 -24.50430
#
# Velocity S-wave (km/s) = -4.15007 -2.46813 -3.41429
# Velocity P-wave (km/s) = 2.23407 3.95665 2.30911
#
# Compressibility (1/GPa) = 0.02646902
#
# Stress axis : x y z
#
# Youngs Moduli (GPa) = 72.47271 48.72363 43.38828
#
# Poissons Ratio (x) = 0.44989 0.22438
# Poissons Ratio (y) = 0.66917 0.04537
# Poissons Ratio (z) = 0.37479 0.05094
#
# Static dielectric constant tensor:
#      x y z
#    x 1.825700 0.000000 0.000000 
#    y 0.000000 1.742910 0.000000 
#    z 0.000000 0.000000 1.838470 
# 
# From -- ./inp_files/7984.got.cif
#   From: 2010.05.17/outbox.cif.g08.bks.cpg/sg45_4_cif.got.tgz:7984.got - 2010.06.03 19:51:22.
