data_PCOD9376231
_publ_section_title
;
Structure prediction by ZEFSAII (Michael W. Deem and Ramdas Pophale) SiO2 
 PCOD9376231
Probable space group: I B A 2
;
_chemical_formula_sum "Si O2"
_cell_formula_units_Z 56
_cell_length_a 21.497207
_cell_length_b 20.288334
_cell_length_c 4.813639
_cell_angle_alpha 90.000000
_cell_angle_beta 90.000000
_cell_angle_gamma 90.000000
_cell_volume 2099.432623
_symmetry_space_group_name_H-M "I B A 2"
_symmetry_group_IT_number 45
_symmetry_cell_setting 'orthorhombic'
loop_
_space_group_symop_operation_xyz
x,y,z
-x,-y,z
-x,y,1/2+z
x,-y,1/2+z
1/2+x,1/2+y,1/2+z
1/2-x,1/2-y,1/2+z
1/2-x,1/2+y,z
1/2+x,1/2-y,z
loop_
_atom_site_type_symbol
_atom_site_label
_atom_site_fract_x
_atom_site_fract_y
_atom_site_fract_z
Si Si1 0.668325 0.078818 0.881200
Si Si2 0.783284 0.776976 0.176722
Si Si3 0.112663 0.955805 0.199600
Si Si4 0.040427 0.176445 0.608392
Si Si5 0.104435 0.706003 0.399973
Si Si6 0.253162 0.416143 0.408068
Si Si7 0.541145 0.916745 0.619118
O O1 0.710888 0.046526 0.642244
O O2 0.644419 0.148365 0.749014
O O3 0.708398 0.098646 0.149981
O O4 0.604034 0.049800 0.003026
O O5 0.767365 0.764412 0.496461
O O6 0.849269 0.747521 0.091830
O O7 0.777251 0.852131 0.077561
O O8 0.082417 0.884306 0.207017
O O9 0.185591 0.947973 0.274629
O O10 0.093690 0.013084 0.409053
O O11 0.023096 0.172509 0.286757
O O12 0.928186 0.244671 0.192361
O O13 0.057510 0.660720 0.577521
O O14 0.481371 0.930193 0.427240
#
# Coordination Sequence:
#
# PCOD9376231 Si02
#       7
#     8   8   8   8   8   8   8
#     4  10  23  34  62  89 129 165 196 243 301 382
#     4  12  20  33  55  86 120 160 197 242 303 384
#     4  12  28  48  70  91 117 161 222 295 341 364
#     4  12  27  44  66  92 126 174 223 264 315 378
#     4  10  22  35  56  91 126 169 208 241 295 374
#     4  12  21  43  58  90 119 155 204 258 327 387
#     4  10  19  33  51  81 130 171 196 224 269 344
#
# _framework density 26.673873
#
# number of rings (size 3 to 8) (size 9 to 14) (size 15 to 20)
#    0.857    0.000    4.286    3.429    0.000    5.143 
#    0.000    0.000    0.000    0.000    0.000    0.000 
#    0.000   40.000    0.000    0.000    0.000    0.000 
#
# Total GULP energy -156988.952485 kJ/mol
# GULP energy per Si atom -5606.748303 kJ/mol
# Density = 2.661316 g / cm^3
# Si number density = 26.673873 Si / 1000 Ang^3
#
#
#
# Elastic Constant Matrix: (Units=GPa)
#
#
# Indices 1 2 3 4 5 6 
#
# 1 71.9553 36.3086 67.1417 0.0000 0.0000 0.0000
# 2 36.3086 114.8662 -13.8694 0.0000 0.0000 0.0000
# 3 67.1417 -13.8694 -19.3631 0.0000 0.0000 0.0000
# 4 0.0000 0.0000 0.0000 25.2453 0.0000 0.0000
# 5 0.0000 0.0000 0.0000 0.0000 20.9328 0.0000
# 6 0.0000 0.0000 0.0000 0.0000 0.0000 50.3155
#
#
#
# Elastic Compliance Matrix: (Units=1/GPa)
#
#
# Indices 1 2 3 4 5 6 
#
# 1 0.003293 0.000311 0.011196 0.000000 0.000000 0.000000
# 2 0.000311 0.008042 -0.004682 0.000000 0.000000 0.000000
# 3 0.011196 -0.004682 -0.009467 0.000000 0.000000 0.000000
# 4 0.000000 0.000000 0.000000 0.039611 0.000000 0.000000
# 5 0.000000 0.000000 0.000000 0.000000 0.047772 0.000000
# 6 0.000000 0.000000 0.000000 0.000000 0.000000 0.019875
#
#
# Mechanical properties :
#
#
# Convention : Reuss Voigt Hill
#
# Bulk Modulus (GPa) = 64.43912 38.51336 51.47624
# Shear Modulus (GPa) = 49.67774 24.49054 37.08414
#
# Velocity S-wave (km/s) = 4.32025 3.03338 3.73269
# Velocity P-wave (km/s) = 7.00690 5.17093 6.15772
#
# Compressibility (1/GPa) = 0.01551852
#
# Stress axis : x y z
#
# Youngs Moduli (GPa) = 303.65753 124.34500 -105.62879
#
# Poissons Ratio (x) = -0.03866 1.18267
# Poissons Ratio (y) = -0.09442 -0.49458
# Poissons Ratio (z) = -3.39988 0.58221
#
# Static dielectric constant tensor:
#      x y z
#    x 2.116990 0.000000 0.000000 
#    y 0.000000 2.127930 0.000000 
#    z 0.000000 0.000000 1.990380 
# 
# From -- ./inp_files/528.got.cif
#   From: 2010.05.17/outbox.cif.g08.bks.cpg/sg45_1_cif.got.tgz:528.got - 2010.06.03 19:51:22.
