data_PCOD9376446
_publ_section_title
;
Structure prediction by ZEFSAII (Michael W. Deem and Ramdas Pophale) SiO2 
 PCOD9376446
Probable space group: I B A 2
;
_chemical_formula_sum "Si O2"
_cell_formula_units_Z 60
_cell_length_a 30.678221
_cell_length_b 10.803282
_cell_length_c 9.206270
_cell_angle_alpha 90.000000
_cell_angle_beta 90.000000
_cell_angle_gamma 90.000000
_cell_volume 3051.192387
_symmetry_space_group_name_H-M "I B A 2"
_symmetry_group_IT_number 45
_symmetry_cell_setting 'orthorhombic'
loop_
_space_group_symop_operation_xyz
x,y,z
-x,-y,z
-x,y,1/2+z
x,-y,1/2+z
1/2+x,1/2+y,1/2+z
1/2-x,1/2-y,1/2+z
1/2-x,1/2+y,z
1/2+x,1/2-y,z
loop_
_atom_site_type_symbol
_atom_site_label
_atom_site_fract_x
_atom_site_fract_y
_atom_site_fract_z
Si Si1 0.688759 0.029350 0.497570
Si Si2 0.324547 0.650694 0.821528
Si Si3 0.331142 0.269588 0.807397
Si Si4 0.000000 0.000000 0.776469
Si Si5 0.877920 0.323890 0.518092
Si Si6 0.142188 0.964480 0.026341
Si Si7 0.736651 0.859548 0.276919
Si Si8 0.445019 0.628026 0.027333
O O1 0.683010 0.147585 0.394714
O O2 0.711818 0.074076 0.644757
O O3 0.641277 0.963332 0.517153
O O4 0.720059 0.928706 0.421227
O O5 0.344370 0.584140 0.682497
O O6 0.322431 0.556124 0.954506
O O7 0.280185 0.718062 0.782394
O O8 0.356851 0.759108 0.876171
O O9 0.355601 0.232268 0.662022
O O10 0.360696 0.350653 0.915037
O O11 0.288233 0.348749 0.768848
O O12 0.972513 0.089107 0.669018
O O13 0.029013 0.085192 0.883649
O O14 0.927073 0.269570 0.522905
O O15 0.097981 0.041687 0.031415
#
# Coordination Sequence:
#
# PCOD9376446 Si02
#       8
#     8   8   8   4   8   8   8   8
#     4  11  24  43  59  84 119 170 224 267 323 359
#     4  10  22  37  56  84 122 163 215 260 315 363
#     4  12  25  38  61  84 123 174 223 268 321 354
#     4  10  20  36  66 102 132 156 188 250 340 390
#     4  10  22  41  60  86 125 163 212 257 313 393
#     4  11  21  37  60  89 126 165 206 254 324 381
#     4  11  26  41  57  82 124 165 229 276 306 353
#     4  10  20  38  62  98 130 155 194 254 316 401
#
# _framework density 19.664442999999999
#
# number of rings (size 3 to 8) (size 9 to 14) (size 15 to 20)
#    0.000    1.333    2.667    4.000    5.600    2.133 
#    0.000    0.000    0.000    0.000    0.000   15.867 
#    0.000    0.000    0.000    0.000    0.000    0.000 
#
# Total GULP energy -167588.473541 kJ/mol
# GULP energy per Si atom -5586.282451 kJ/mol
# Density = 1.961969 g / cm^3
# Si number density = 19.664443 Si / 1000 Ang^3
#
#
#
# Elastic Constant Matrix: (Units=GPa)
#
#
# Indices 1 2 3 4 5 6 
#
# 1 74.6690 31.7322 38.2992 0.0000 0.0000 0.0000
# 2 31.7322 80.5936 35.7083 0.0000 0.0000 0.0000
# 3 38.2992 35.7083 124.6059 0.0000 0.0000 0.0000
# 4 0.0000 0.0000 0.0000 32.2710 0.0000 0.0000
# 5 0.0000 0.0000 0.0000 0.0000 19.8641 0.0000
# 6 0.0000 0.0000 0.0000 0.0000 0.0000 35.1006
#
#
#
# Elastic Compliance Matrix: (Units=1/GPa)
#
#
# Indices 1 2 3 4 5 6 
#
# 1 0.017614 -0.005196 -0.003925 0.000000 0.000000 0.000000
# 2 -0.005196 0.015745 -0.002915 0.000000 0.000000 0.000000
# 3 -0.003925 -0.002915 0.010067 0.000000 0.000000 0.000000
# 4 0.000000 0.000000 0.000000 0.030988 0.000000 0.000000
# 5 0.000000 0.000000 0.000000 0.000000 0.050342 0.000000
# 6 0.000000 0.000000 0.000000 0.000000 0.000000 0.028490
#
#
# Mechanical properties :
#
#
# Convention : Reuss Voigt Hill
#
# Bulk Modulus (GPa) = 51.66836 54.59423 53.13130
# Shear Modulus (GPa) = 27.20813 29.05573 28.13193
#
# Velocity S-wave (km/s) = 3.72374 3.84810 3.78643
# Velocity P-wave (km/s) = 6.69480 6.89688 6.79659
#
# Compressibility (1/GPa) = 0.01935420
#
# Stress axis : x y z
#
# Youngs Moduli (GPa) = 56.77390 63.51063 99.33459
#
# Poissons Ratio (x) = 0.33001 0.38986
# Poissons Ratio (y) = 0.29501 0.28957
# Poissons Ratio (z) = 0.22282 0.18514
#
# Static dielectric constant tensor:
#      x y z
#    x 1.712210 0.000000 0.000000 
#    y 0.000000 1.750610 0.000000 
#    z 0.000000 0.000000 1.694940 
# 
# From -- ./inp_files/2621.got.cif
#   From: 2010.05.17/outbox.cif.g08.bks.cpg/sg45_2_cif.got.tgz:2621.got - 2010.06.03 19:51:22.
