data_PCOD9376930
_publ_section_title
;
Structure prediction by ZEFSAII (Michael W. Deem and Ramdas Pophale) SiO2 
 PCOD9376930
Probable space group: I B A 2
;
_chemical_formula_sum "Si O2"
_cell_formula_units_Z 48
_cell_length_a 16.518419
_cell_length_b 8.769505
_cell_length_c 14.549856
_cell_angle_alpha 90.000000
_cell_angle_beta 90.000000
_cell_angle_gamma 90.000000
_cell_volume 2107.668249
_symmetry_space_group_name_H-M "I B A 2"
_symmetry_group_IT_number 45
_symmetry_cell_setting 'orthorhombic'
loop_
_space_group_symop_operation_xyz
x,y,z
-x,-y,z
-x,y,1/2+z
x,-y,1/2+z
1/2+x,1/2+y,1/2+z
1/2-x,1/2-y,1/2+z
1/2-x,1/2+y,z
1/2+x,1/2-y,z
loop_
_atom_site_type_symbol
_atom_site_label
_atom_site_fract_x
_atom_site_fract_y
_atom_site_fract_z
Si Si1 0.410295 0.070867 0.447850
Si Si2 0.410785 0.067486 0.763815
Si Si3 0.579785 0.585778 0.759946
Si Si4 0.844112 0.851118 0.647634
Si Si5 0.516911 0.659908 0.557364
Si Si6 0.798295 0.468013 0.104068
O O1 0.429838 0.232393 0.493985
O O2 0.500000 0.000000 0.449120
O O3 0.383453 0.049796 0.343113
O O4 0.348885 0.978314 0.511033
O O5 0.411513 0.243531 0.800916
O O6 0.500000 0.000000 0.735827
O O7 0.351026 0.061830 0.678233
O O8 0.500000 0.500000 0.795492
O O9 0.642687 0.446084 0.742466
O O10 0.563247 0.626568 0.652384
O O11 0.793131 0.696921 0.650340
O O12 0.928202 0.797395 0.599441
O O13 0.789315 0.962254 0.586798
O O14 0.500000 0.500000 0.508809
#
# Coordination Sequence:
#
# PCOD9376930 Si02
#       6
#     8   8   8   8   8   8
#     4  11  22  39  65  99 128 174 229 272 342 406
#     4  11  22  38  66  95 132 174 217 280 333 402
#     4   9  18  37  66  95 122 166 224 272 328 395
#     4  10  22  36  68  92 127 181 212 286 345 400
#     4   9  18  37  66  96 123 166 228 281 330 406
#     4  12  22  40  64  95 134 174 225 274 347 413
#
# _framework density 22.773982
#
# number of rings (size 3 to 8) (size 9 to 14) (size 15 to 20)
#    0.000    2.000    3.333    3.500    2.333    0.000 
#    0.000   10.000    0.000    0.000    0.000    0.000 
#    0.000    0.000    0.000    0.000    0.000    0.000 
#
# Total GULP energy -133639.605063 kJ/mol
# GULP energy per Si atom -5568.316878 kJ/mol
# Density = 2.272215 g / cm^3
# Si number density = 22.773982 Si / 1000 Ang^3
#
#
#
# Elastic Constant Matrix: (Units=GPa)
#
#
# Indices 1 2 3 4 5 6 
#
# 1 47.7641 -8.3076 9.0110 0.0000 0.0000 0.0000
# 2 -8.3076 117.3326 -7.6276 0.0000 0.0000 0.0000
# 3 9.0110 -7.6276 72.1186 0.0000 0.0000 0.0000
# 4 0.0000 0.0000 0.0000 -366.9254 0.0000 0.0000
# 5 0.0000 0.0000 0.0000 0.0000 3.3392 0.0000
# 6 0.0000 0.0000 0.0000 0.0000 0.0000 31.5634
#
#
#
# Elastic Compliance Matrix: (Units=1/GPa)
#
#
# Indices 1 2 3 4 5 6 
#
# 1 0.021657 0.001367 -0.002561 0.000000 0.000000 0.000000
# 2 0.001367 0.008668 0.000746 0.000000 0.000000 0.000000
# 3 -0.002561 0.000746 0.014265 0.000000 0.000000 0.000000
# 4 0.000000 0.000000 0.000000 -0.002725 0.000000 0.000000
# 5 0.000000 0.000000 0.000000 0.000000 0.299477 0.000000
# 6 0.000000 0.000000 0.000000 0.000000 0.000000 0.031682
#
#
# Mechanical properties :
#
#
# Convention : Reuss Voigt Hill
#
# Bulk Modulus (GPa) = 22.88690 24.81856 23.85273
# Shear Modulus (GPa) = 12.87049 -50.12861 -18.62906
#
# Velocity S-wave (km/s) = 2.37985 -4.69672 -2.86317
# Velocity P-wave (km/s) = 4.19797 4.30009 0.65871
#
# Compressibility (1/GPa) = 0.04369312
#
# Stress axis : x y z
#
# Youngs Moduli (GPa) = 46.17402 115.36607 70.10172
#
# Poissons Ratio (x) = -0.15769 0.17956
# Poissons Ratio (y) = -0.06312 -0.05229
# Poissons Ratio (z) = 0.11827 -0.08606
#
# Static dielectric constant tensor:
#      x y z
#    x 1.918280 0.000000 0.000000 
#    y 0.000000 4.501820 0.000000 
#    z 0.000000 0.000000 1.850320 
# 
# From -- ./inp_files/8300.got.cif
#   From: 2010.05.17/outbox.cif.g08.bks.cpg/sg45_5_cif.got.tgz:8300.got - 2010.06.03 19:51:22.
