data_PCOD9376071
_publ_section_title
;
Structure prediction by ZEFSAII (Michael W. Deem and Ramdas Pophale) SiO2 
 PCOD9376071
Probable space group: I B A 2
;
_chemical_formula_sum "Si O2"
_cell_formula_units_Z 64
_cell_length_a 9.136364
_cell_length_b 24.054650
_cell_length_c 13.926984
_cell_angle_alpha 90.000000
_cell_angle_beta 90.000000
_cell_angle_gamma 90.000000
_cell_volume 3060.761661
_symmetry_space_group_name_H-M "I B A 2"
_symmetry_group_IT_number 45
_symmetry_cell_setting 'orthorhombic'
loop_
_space_group_symop_operation_xyz
x,y,z
-x,-y,z
-x,y,1/2+z
x,-y,1/2+z
1/2+x,1/2+y,1/2+z
1/2-x,1/2-y,1/2+z
1/2-x,1/2+y,z
1/2+x,1/2-y,z
loop_
_atom_site_type_symbol
_atom_site_label
_atom_site_fract_x
_atom_site_fract_y
_atom_site_fract_z
Si Si1 0.566424 0.944368 0.964230
Si Si2 0.381604 0.141547 0.346880
Si Si3 0.533438 0.877784 0.126994
Si Si4 0.086245 0.943916 0.444334
Si Si5 0.451091 0.370211 0.803497
Si Si6 0.360435 0.652391 0.083457
Si Si7 0.136087 0.762288 0.287172
Si Si8 0.102339 0.729694 0.647442
O O1 0.491291 0.891085 0.914968
O O2 0.739687 0.950729 0.951462
O O3 0.500000 0.000000 0.921322
O O4 0.513098 0.936128 0.074662
O O5 0.436059 0.123642 0.240168
O O6 0.208674 0.127945 0.353236
O O7 0.382661 0.208553 0.353468
O O8 0.687572 0.859283 0.080035
O O9 0.407123 0.832357 0.107536
O O10 0.058363 0.889228 0.511032
O O11 0.036285 0.924441 0.338665
O O12 0.000000 0.000000 0.471934
O O13 0.416153 0.363406 0.690520
O O14 0.555443 0.316982 0.825206
O O15 0.369365 0.719186 0.076478
O O16 0.298865 0.770113 0.244902
O O17 0.057128 0.744079 0.188350
#
# Coordination Sequence:
#
# PCOD9376071 Si02
#       8
#     8   8   8   8   8   8   8   8
#     4  11  25  44  60  86 121 165 219 268 308 376
#     4  10  20  40  64  88 129 163 200 257 316 378
#     4   9  20  38  64  88 124 163 203 250 316 378
#     4  11  25  43  61  86 121 163 221 270 308 372
#     4  10  21  39  63  93 123 165 201 254 318 377
#     4   9  19  40  62  87 125 163 196 257 317 373
#     4  10  18  33  62  95 128 153 194 246 307 381
#     4  10  16  35  60  95 124 156 193 246 307 379
#
# _framework density 20.909828000000001
#
# number of rings (size 3 to 8) (size 9 to 14) (size 15 to 20)
#    0.000    2.000    5.000    0.750    3.500    2.000 
#    9.000    5.000    0.000    0.000    0.000    0.000 
#    0.000    0.000    0.000    0.000    0.000    0.000 
#
# Total GULP energy -178174.573699 kJ/mol
# GULP energy per Si atom -5567.955428 kJ/mol
# Density = 2.086224 g / cm^3
# Si number density = 20.909828 Si / 1000 Ang^3
#
#
#
# Elastic Constant Matrix: (Units=GPa)
#
#
# Indices 1 2 3 4 5 6 
#
# 1 77.8317 55.2629 31.4964 0.0000 0.0000 0.0000
# 2 55.2629 122.7598 37.6960 0.0000 0.0000 0.0000
# 3 31.4964 37.6960 47.6918 0.0001 0.0000 0.0000
# 4 0.0000 0.0000 0.0001 20.7736 0.0000 0.0000
# 5 0.0000 0.0000 0.0000 0.0000 18.0179 0.0000
# 6 0.0000 0.0000 0.0000 0.0000 0.0000 30.9798
#
#
#
# Elastic Compliance Matrix: (Units=1/GPa)
#
#
# Indices 1 2 3 4 5 6 
#
# 1 0.021226 -0.006934 -0.008538 0.000000 0.000000 0.000000
# 2 -0.006934 0.013022 -0.005713 0.000000 0.000000 0.000000
# 3 -0.008538 -0.005713 0.031122 0.000000 0.000000 0.000000
# 4 0.000000 0.000000 0.000000 0.048138 0.000000 0.000000
# 5 0.000000 0.000000 0.000000 0.000000 0.055500 0.000000
# 6 0.000000 0.000000 0.000000 0.000000 0.000000 0.032279
#
#
# Mechanical properties :
#
#
# Convention : Reuss Voigt Hill
#
# Bulk Modulus (GPa) = 43.47682 55.24376 49.36029
# Shear Modulus (GPa) = 19.89457 22.20946 21.05202
#
# Velocity S-wave (km/s) = 3.08790 3.26261 3.17645
# Velocity P-wave (km/s) = 5.79234 6.37732 6.09185
#
# Compressibility (1/GPa) = 0.02300076
#
# Stress axis : x y z
#
# Youngs Moduli (GPa) = 47.11094 76.79429 32.13131
#
# Poissons Ratio (x) = 0.53248 0.27433
# Poissons Ratio (y) = 0.32666 0.18358
# Poissons Ratio (z) = 0.40222 0.43875
#
# Static dielectric constant tensor:
#      x y z
#    x 1.737110 0.000000 0.000000 
#    y 0.000000 1.801490 0.000000 
#    z 0.000000 0.000000 1.797090 
# 
# From -- ./inp_files/5865.got.cif
#   From: 2010.05.17/outbox.cif.g08.bks.cpg/sg45_3_cif.got.tgz:5865.got - 2010.06.03 19:51:22.
