data_PCOD9376588
_publ_section_title
;
Structure prediction by ZEFSAII (Michael W. Deem and Ramdas Pophale) SiO2 
 PCOD9376588
Probable space group: I B A 2
;
_chemical_formula_sum "Si O2"
_cell_formula_units_Z 48
_cell_length_a 12.134859
_cell_length_b 14.910904
_cell_length_c 13.909593
_cell_angle_alpha 90.000000
_cell_angle_beta 90.000000
_cell_angle_gamma 90.000000
_cell_volume 2516.825649
_symmetry_space_group_name_H-M "I B A 2"
_symmetry_group_IT_number 45
_symmetry_cell_setting 'orthorhombic'
loop_
_space_group_symop_operation_xyz
x,y,z
-x,-y,z
-x,y,1/2+z
x,-y,1/2+z
1/2+x,1/2+y,1/2+z
1/2-x,1/2-y,1/2+z
1/2-x,1/2+y,z
1/2+x,1/2-y,z
loop_
_atom_site_type_symbol
_atom_site_label
_atom_site_fract_x
_atom_site_fract_y
_atom_site_fract_z
Si Si1 0.714389 0.453978 0.112290
Si Si2 0.438414 0.905746 0.679456
Si Si3 0.400137 0.217439 0.789128
Si Si4 0.290168 0.343498 0.141104
Si Si5 0.485178 0.404657 0.740853
Si Si6 0.343809 0.177572 0.005646
O O1 0.807330 0.422086 0.190090
O O2 0.736860 0.558817 0.097409
O O3 0.594679 0.432488 0.152397
O O4 0.744259 0.392653 0.021895
O O5 0.492603 0.835927 0.751407
O O6 0.441856 0.865066 0.571113
O O7 0.500000 0.000000 0.686018
O O8 0.805049 0.307322 0.711935
O O9 0.424781 0.323040 0.792360
O O10 0.369980 0.187028 0.895374
O O11 0.399790 0.365105 0.202825
O O12 0.313532 0.269818 0.059746
O O13 0.500000 0.500000 0.794577
#
# Coordination Sequence:
#
# PCOD9376588 Si02
#       6
#     8   8   8   8   8   8
#     4   9  20  42  63  88 128 167 207 270 321 382
#     4  10  20  41  63  95 129 161 214 277 319 379
#     4  12  21  42  67  92 128 168 220 265 326 390
#     4  11  21  43  63  89 132 168 207 270 322 384
#     4  10  21  41  65  87 128 172 205 260 327 382
#     4  10  23  40  62 100 118 171 216 261 331 377
#
# _framework density 19.071641
#
# number of rings (size 3 to 8) (size 9 to 14) (size 15 to 20)
#    1.000    0.667    5.000    0.000    0.000    0.667 
#   12.000    0.833    0.000    0.000    0.000    0.000 
#    0.000    0.000    0.000    0.000    0.000    0.000 
#
# Total GULP energy -133678.917883 kJ/mol
# GULP energy per Si atom -5569.954912 kJ/mol
# Density = 1.902823 g / cm^3
# Si number density = 19.071641 Si / 1000 Ang^3
#
#
#
# Elastic Constant Matrix: (Units=GPa)
#
#
# Indices 1 2 3 4 5 6 
#
# 1 70.7084 23.1409 -7.7865 0.0000 0.0000 0.0000
# 2 23.1409 146.7678 23.8829 0.0000 0.0000 0.0000
# 3 -7.7865 23.8829 43.3534 0.0000 0.0000 0.0000
# 4 0.0000 0.0000 0.0000 11.8069 0.0000 0.0000
# 5 0.0000 0.0000 0.0000 0.0000 12.8634 0.0000
# 6 0.0000 0.0000 0.0000 0.0000 0.0000 27.2455
#
#
#
# Elastic Compliance Matrix: (Units=1/GPa)
#
#
# Indices 1 2 3 4 5 6 
#
# 1 0.015704 -0.003224 0.004597 0.000000 0.000000 0.000000
# 2 -0.003224 0.008146 -0.005067 0.000000 0.000000 0.000000
# 3 0.004597 -0.005067 0.026683 0.000000 0.000000 0.000000
# 4 0.000000 0.000000 0.000000 0.084696 0.000000 0.000000
# 5 0.000000 0.000000 0.000000 0.000000 0.077740 0.000000
# 6 0.000000 0.000000 0.000000 0.000000 0.000000 0.036703
#
#
# Mechanical properties :
#
#
# Convention : Reuss Voigt Hill
#
# Bulk Modulus (GPa) = 23.17775 37.70046 30.43911
# Shear Modulus (GPa) = 18.42010 25.15599 21.78805
#
# Velocity S-wave (km/s) = 3.11116 3.63578 3.38365
# Velocity P-wave (km/s) = 5.00851 6.11849 5.59111
#
# Compressibility (1/GPa) = 0.04314482
#
# Stress axis : x y z
#
# Youngs Moduli (GPa) = 63.67848 122.75499 37.47699
#
# Poissons Ratio (x) = 0.39576 -0.17227
# Poissons Ratio (y) = 0.20530 0.18989
# Poissons Ratio (z) = -0.29270 0.62197
#
# Static dielectric constant tensor:
#      x y z
#    x 1.701530 0.000000 0.000000 
#    y 0.000000 1.710390 0.000000 
#    z 0.000000 0.000000 1.610000 
# 
# From -- ./inp_files/6109.got.cif
#   From: 2010.05.17/outbox.cif.g08.bks.cpg/sg45_4_cif.got.tgz:6109.got - 2010.06.03 19:51:22.
