data_PCOD9376643
_publ_section_title
;
Structure prediction by ZEFSAII (Michael W. Deem and Ramdas Pophale) SiO2 
 PCOD9376643
Probable space group: I B A 2
;
_chemical_formula_sum "Si O2"
_cell_formula_units_Z 60
_cell_length_a 9.802308
_cell_length_b 36.716775
_cell_length_c 8.581737
_cell_angle_alpha 90.000000
_cell_angle_beta 90.000000
_cell_angle_gamma 90.000000
_cell_volume 3088.645560
_symmetry_space_group_name_H-M "I B A 2"
_symmetry_group_IT_number 45
_symmetry_cell_setting 'orthorhombic'
loop_
_space_group_symop_operation_xyz
x,y,z
-x,-y,z
-x,y,1/2+z
x,-y,1/2+z
1/2+x,1/2+y,1/2+z
1/2-x,1/2-y,1/2+z
1/2-x,1/2+y,z
1/2+x,1/2-y,z
loop_
_atom_site_type_symbol
_atom_site_label
_atom_site_fract_x
_atom_site_fract_y
_atom_site_fract_z
Si Si1 0.692717 0.014587 0.152010
Si Si2 0.500000 0.000000 0.899116
Si Si3 0.410778 0.436560 0.278787
Si Si4 0.808192 0.144939 0.631223
Si Si5 0.879309 0.782774 0.599552
Si Si6 0.697174 0.564010 0.631775
Si Si7 0.603795 0.356013 0.770883
Si Si8 0.185298 0.220830 0.232490
O O1 0.595911 0.025015 0.294622
O O2 0.836685 0.032869 0.177149
O O3 0.707987 0.970813 0.153360
O O4 0.605470 0.023021 0.000915
O O5 0.370587 0.439712 0.459728
O O6 0.571878 0.438687 0.252681
O O7 0.356643 0.396991 0.223842
O O8 0.742036 0.104844 0.643290
O O9 0.858894 0.148845 0.452047
O O10 0.741536 0.182891 0.681183
O O11 0.941085 0.143920 0.743057
O O12 0.843711 0.822916 0.666439
O O13 0.851347 0.779987 0.415485
O O14 0.784580 0.753667 0.687487
O O15 0.039946 0.776787 0.640407
#
# Coordination Sequence:
#
# PCOD9376643 Si02
#       8
#     8   4   8   8   8   8   8   8
#     4  11  21  40  56  78 103 147 190 228 264 325
#     4  10  24  38  58  70 104 150 200 216 264 326
#     4  10  21  34  56  85 112 136 175 233 287 324
#     4   9  17  32  52  80 111 143 176 222 280 334
#     4  11  21  36  59  85 115 151 188 229 278 333
#     4  10  21  34  56  85 112 136 175 233 287 324
#     4   9  17  32  52  80 111 143 176 222 280 334
#     4  11  21  36  59  85 115 151 188 229 278 333
#
# _framework density 19.425989999999999
#
# number of rings (size 3 to 8) (size 9 to 14) (size 15 to 20)
#    0.000    1.867    1.333    5.200    1.867    2.133 
#    0.000    0.000    5.867    0.000    0.000    0.000 
#    0.000    0.000    0.000    0.000    0.000    0.000 
#
# Total GULP energy -167228.246213 kJ/mol
# GULP energy per Si atom -5574.274874 kJ/mol
# Density = 1.938178 g / cm^3
# Si number density = 19.425990 Si / 1000 Ang^3
#
#
#
# Elastic Constant Matrix: (Units=GPa)
#
#
# Indices 1 2 3 4 5 6 
#
# 1 33.0088 22.1872 9.4556 -0.0018 0.0013 0.0014
# 2 22.1872 126.3699 25.9481 -0.0097 0.0014 0.0008
# 3 9.4556 25.9481 65.1337 -0.0072 0.0019 0.0021
# 4 -0.0018 -0.0097 -0.0072 22.4961 0.0013 0.0014
# 5 0.0013 0.0014 0.0019 0.0013 26.4148 -0.0015
# 6 0.0014 0.0008 0.0021 0.0014 -0.0015 20.8670
#
#
#
# Elastic Compliance Matrix: (Units=1/GPa)
#
#
# Indices 1 2 3 4 5 6 
#
# 1 0.034829 -0.005529 -0.002853 -0.000001 -0.000001 -0.000002
# 2 -0.005529 0.009496 -0.002980 0.000003 0.000000 0.000000
# 3 -0.002853 -0.002980 0.016955 0.000004 -0.000001 -0.000001
# 4 -0.000001 0.000003 0.000004 0.044452 -0.000002 -0.000003
# 5 -0.000001 0.000000 -0.000001 -0.000002 0.037858 0.000003
# 6 -0.000002 0.000000 -0.000001 -0.000003 0.000003 0.047923
#
#
# Mechanical properties :
#
#
# Convention : Reuss Voigt Hill
#
# Bulk Modulus (GPa) = 25.93797 37.74381 31.84089
# Shear Modulus (GPa) = 22.01782 25.08368 23.55075
#
# Velocity S-wave (km/s) = 3.37028 3.59729 3.48563
# Velocity P-wave (km/s) = 5.34100 6.06017 5.71191
#
# Compressibility (1/GPa) = 0.03855352
#
# Stress axis : x y z
#
# Youngs Moduli (GPa) = 28.71186 105.30728 58.98099
#
# Poissons Ratio (x) = 0.58225 0.16830
# Poissons Ratio (y) = 0.15875 0.17579
# Poissons Ratio (z) = 0.08193 0.31386
#
# Static dielectric constant tensor:
#      x y z
#    x 1.664700 0.000000 0.000000 
#    y 0.000000 1.744160 0.000000 
#    z 0.000000 0.000000 1.719530 
# 
# From -- ./inp_files/1488.got.cif
#   From: 2010.05.17/outbox.cif.g08.bks.cpg/sg45_1_cif.got.tgz:1488.got - 2010.06.03 19:51:22.
