data_PCOD9377940
_publ_section_title
;
Structure prediction by ZEFSAII (Michael W. Deem and Ramdas Pophale) SiO2 
 PCOD9377940
Probable space group: I M A 2
;
_chemical_formula_sum "Si O2"
_cell_formula_units_Z 56
_cell_length_a 8.799203
_cell_length_b 22.390210
_cell_length_c 18.482174
_cell_angle_alpha 90.000000
_cell_angle_beta 90.000000
_cell_angle_gamma 90.000000
_cell_volume 3641.284048
_symmetry_space_group_name_H-M "I M A 2"
_symmetry_group_IT_number 46
_symmetry_cell_setting 'orthorhombic'
loop_
_space_group_symop_operation_xyz
x,y,z
-x,-y,z
1/2-x,y,z
1/2+x,-y,z
1/2+x,1/2+y,1/2+z
1/2-x,1/2-y,1/2+z
-x,1/2+y,1/2+z
x,1/2-y,1/2+z
loop_
_atom_site_type_symbol
_atom_site_label
_atom_site_fract_x
_atom_site_fract_y
_atom_site_fract_z
Si Si1 0.570174 0.851392 0.800760
Si Si2 0.566974 0.690032 0.451937
Si Si3 0.067609 0.148264 0.558097
Si Si4 0.933649 0.717071 0.606302
Si Si5 0.569732 0.434412 0.180771
Si Si6 0.070071 0.818448 0.412573
Si Si7 0.068213 0.210676 0.266363
O O1 0.750000 0.862879 0.789568
O O2 0.535475 0.855216 0.886586
O O3 0.476250 0.894936 0.750293
O O4 0.543920 0.782028 0.778632
O O5 0.750000 0.702133 0.448654
O O6 0.527567 0.677912 0.535524
O O7 0.480907 0.750867 0.432134
O O8 0.250000 0.145875 0.558740
O O9 0.022128 0.214274 0.588503
O O10 0.999580 0.099332 0.611333
O O11 0.007679 0.143376 0.476110
O O12 0.750000 0.717783 0.611342
O O13 0.988160 0.697385 0.685154
O O14 0.500000 0.500000 0.187267
O O15 0.750000 0.437821 0.174129
O O16 0.250000 0.824747 0.415905
O O17 0.010397 0.825536 0.330852
O O18 0.250000 0.201369 0.271547
#
# Coordination Sequence:
#
# PCOD9377940 Si02
#       7
#     8   8   8   8   8   8   8
#     4   9  16  29  45  62  86 117 152 188 225 262
#     4   8  15  27  43  61  83 117 152 180 216 265
#     4  10  18  33  49  61  82 115 151 188 227 267
#     4   8  13  24  44  65  85 114 151 181 210 258
#     4  12  24  35  48  66  87 115 153 193 232 270
#     4  10  18  26  38  62  89 115 147 182 220 263
#     4   9  15  26  43  63  88 121 153 178 212 261
#
# _framework density 15.379189999999999
#
# number of rings (size 3 to 8) (size 9 to 14) (size 15 to 20)
#    0.000    2.571    1.429    4.714    0.000    2.286 
#    0.000    0.714    0.000    0.000    0.000    0.000 
#    0.000    1.143    0.000    5.714    0.000    4.286 
#
# Total GULP energy -155898.448515 kJ/mol
# GULP energy per Si atom -5567.801733 kJ/mol
# Density = 1.534419 g / cm^3
# Si number density = 15.379190 Si / 1000 Ang^3
#
#
#
# Elastic Constant Matrix: (Units=GPa)
#
#
# Indices 1 2 3 4 5 6 
#
# 1 68.4866 29.9090 52.8424 0.0000 0.0000 0.0000
# 2 29.9090 34.7342 29.5718 0.0000 0.0000 0.0000
# 3 52.8424 29.5718 160.6096 0.0000 0.0000 0.0000
# 4 0.0000 0.0000 0.0000 8.5026 0.0000 0.0000
# 5 0.0000 0.0000 0.0000 0.0000 20.0745 0.0000
# 6 0.0000 0.0000 0.0000 0.0000 0.0000 15.4415
#
#
#
# Elastic Compliance Matrix: (Units=1/GPa)
#
#
# Indices 1 2 3 4 5 6 
#
# 1 0.026883 -0.018522 -0.005435 0.000000 0.000000 0.000000
# 2 -0.018522 0.046903 -0.002542 0.000000 0.000000 0.000000
# 3 -0.005435 -0.002542 0.008482 0.000000 0.000000 0.000000
# 4 0.000000 0.000000 0.000000 0.117611 0.000000 0.000000
# 5 0.000000 0.000000 0.000000 0.000000 0.049814 0.000000
# 6 0.000000 0.000000 0.000000 0.000000 0.000000 0.064761
#
#
# Mechanical properties :
#
#
# Convention : Reuss Voigt Hill
#
# Bulk Modulus (GPa) = 34.16252 54.27521 44.21886
# Shear Modulus (GPa) = 13.25526 18.90420 16.07973
#
# Velocity S-wave (km/s) = 2.93899 3.50981 3.23701
# Velocity P-wave (km/s) = 5.81193 7.19673 6.54108
#
# Compressibility (1/GPa) = 0.02927185
#
# Stress axis : x y z
#
# Youngs Moduli (GPa) = 37.19779 21.32056 117.89136
#
# Poissons Ratio (x) = 0.39490 0.64070
# Poissons Ratio (y) = 0.68897 0.29968
# Poissons Ratio (z) = 0.20216 0.05420
#
# Static dielectric constant tensor:
#      x y z
#    x 1.510310 0.000000 0.000000 
#    y 0.000000 1.470440 0.000000 
#    z 0.000000 0.000000 1.578840 
# 
# From -- ./inp_files/18605.got.cif
#   From: 2010.05.17/outbox.cif.g08.bks.cpg/sg46_10_cif.got.tgz:18605.got - 2010.06.03 19:58:25.
