data_PCOD9377898
_publ_section_title
;
Structure prediction by ZEFSAII (Michael W. Deem and Ramdas Pophale) SiO2 
 PCOD9377898
Probable space group: I M A 2
;
_chemical_formula_sum "Si O2"
_cell_formula_units_Z 52
_cell_length_a 20.884569
_cell_length_b 7.205648
_cell_length_c 14.674377
_cell_angle_alpha 90.000000
_cell_angle_beta 90.000000
_cell_angle_gamma 90.000000
_cell_volume 2208.300812
_symmetry_space_group_name_H-M "I M A 2"
_symmetry_group_IT_number 46
_symmetry_cell_setting 'orthorhombic'
loop_
_space_group_symop_operation_xyz
x,y,z
-x,-y,z
1/2-x,y,z
1/2+x,-y,z
1/2+x,1/2+y,1/2+z
1/2-x,1/2-y,1/2+z
-x,1/2+y,1/2+z
x,1/2-y,1/2+z
loop_
_atom_site_type_symbol
_atom_site_label
_atom_site_fract_x
_atom_site_fract_y
_atom_site_fract_z
Si Si1 0.750000 0.237997 0.099450
Si Si2 0.894627 0.372535 0.571225
Si Si3 0.882773 0.247719 0.358068
Si Si4 0.613974 0.611103 0.235162
Si Si5 0.250000 0.059455 0.748757
Si Si6 0.016840 0.271699 0.374155
Si Si7 0.537100 0.736492 0.078073
Si Si8 0.750000 0.281881 0.883149
O O1 0.677291 0.153063 0.112096
O O2 0.750000 0.411766 0.166601
O O3 0.750000 0.285403 0.991977
O O4 0.885509 0.327529 0.462507
O O5 0.919678 0.579514 0.587120
O O6 0.961611 0.267820 0.599116
O O7 0.880113 0.412481 0.284604
O O8 0.817233 0.135554 0.350645
O O9 0.952651 0.167668 0.344723
O O10 0.686417 0.677637 0.235003
O O11 0.570337 0.735705 0.299025
O O12 0.575712 0.597059 0.141551
O O13 0.250000 0.931528 0.841701
O O14 0.038917 0.197774 0.470943
O O15 0.000000 0.500000 0.383526
#
# Coordination Sequence:
#
# PCOD9377898 Si02
#       8
#     4   8   8   8   4   8   8   4
#     4  10  20  33  57  73 102 146 181 220 269 301
#     4   9  17  33  52  80 104 137 180 224 249 317
#     4   8  14  29  49  74 100 127 179 213 241 307
#     4  10  19  30  53  78 104 138 163 222 275 298
#     4  10  22  37  49  82 109 127 191 225 252 338
#     4   9  15  31  52  76 102 132 179 217 245 314
#     4  10  17  31  54  81 108 131 181 220 265 310
#     4   8  16  30  52  69  97 139 168 211 261 297
#
# _framework density 23.547516999999999
#
# number of rings (size 3 to 8) (size 9 to 14) (size 15 to 20)
#    0.000    2.769    4.615    0.000    0.000    5.538 
#    0.000    0.769    3.385    0.000   12.000    0.000 
#    0.000    0.000    0.000    0.000    0.000    0.000 
#
# Total GULP energy -144869.822047 kJ/mol
# GULP energy per Si atom -5571.916233 kJ/mol
# Density = 2.349392 g / cm^3
# Si number density = 23.547517 Si / 1000 Ang^3
#
#
#
# Elastic Constant Matrix: (Units=GPa)
#
#
# Indices 1 2 3 4 5 6 
#
# 1 246.5453 10.8180 54.0154 0.0000 0.0000 0.0000
# 2 10.8180 34.3526 10.6286 0.0000 0.0000 0.0000
# 3 54.0154 10.6286 73.1422 0.0000 0.0000 0.0000
# 4 0.0000 0.0000 0.0000 17.2916 0.0000 0.0000
# 5 0.0000 0.0000 0.0000 0.0000 36.7164 0.0000
# 6 0.0000 0.0000 0.0000 0.0000 0.0000 4.0110
#
#
#
# Elastic Compliance Matrix: (Units=1/GPa)
#
#
# Indices 1 2 3 4 5 6 
#
# 1 0.004845 -0.000438 -0.003515 0.000000 0.000000 0.000000
# 2 -0.000438 0.030520 -0.004111 0.000000 0.000000 0.000000
# 3 -0.003515 -0.004111 0.016865 0.000000 0.000000 0.000000
# 4 0.000000 0.000000 0.000000 0.057832 0.000000 0.000000
# 5 0.000000 0.000000 0.000000 0.000000 0.027236 0.000000
# 6 0.000000 0.000000 0.000000 0.000000 0.000000 0.249311
#
#
# Mechanical properties :
#
#
# Convention : Reuss Voigt Hill
#
# Bulk Modulus (GPa) = 27.69944 56.10712 41.90328
# Shear Modulus (GPa) = 12.05484 30.17566 21.11525
#
# Velocity S-wave (km/s) = 2.26506 3.58366 2.99776
# Velocity P-wave (km/s) = 4.31618 6.40331 5.46039
#
# Compressibility (1/GPa) = 0.03610181
#
# Stress axis : x y z
#
# Youngs Moduli (GPa) = 206.38630 32.76544 59.29478
#
# Poissons Ratio (x) = 0.01437 0.20839
# Poissons Ratio (y) = 0.09049 0.24377
# Poissons Ratio (z) = 0.72535 0.13470
#
# Static dielectric constant tensor:
#      x y z
#    x 1.976960 0.000000 0.000000 
#    y 0.000000 1.954020 0.000000 
#    z 0.000000 0.000000 1.902920 
# 
# From -- ./inp_files/17195.got.cif
#   From: 2010.05.17/outbox.cif.g08.bks.cpg/sg46_9_cif.got.tgz:17195.got - 2010.06.03 19:58:25.
