data_PCOD9377422
_publ_section_title
;
Structure prediction by ZEFSAII (Michael W. Deem and Ramdas Pophale) SiO2 
 PCOD9377422
Probable space group: I B A 2
;
_chemical_formula_sum "Si O2"
_cell_formula_units_Z 60
_cell_length_a 27.343670
_cell_length_b 9.044075
_cell_length_c 11.201702
_cell_angle_alpha 90.000000
_cell_angle_beta 90.000000
_cell_angle_gamma 90.000000
_cell_volume 2770.160767
_symmetry_space_group_name_H-M "I B A 2"
_symmetry_group_IT_number 45
_symmetry_cell_setting 'orthorhombic'
loop_
_space_group_symop_operation_xyz
x,y,z
-x,-y,z
-x,y,1/2+z
x,-y,1/2+z
1/2+x,1/2+y,1/2+z
1/2-x,1/2-y,1/2+z
1/2-x,1/2+y,z
1/2+x,1/2-y,z
loop_
_atom_site_type_symbol
_atom_site_label
_atom_site_fract_x
_atom_site_fract_y
_atom_site_fract_z
Si Si1 0.000000 0.500000 0.509250
Si Si2 0.814084 0.286294 0.597974
Si Si3 0.424258 0.804240 0.130096
Si Si4 0.184284 0.735568 0.319224
Si Si5 0.580147 0.492391 0.989777
Si Si6 0.012469 0.788591 0.851902
Si Si7 0.405863 0.625870 0.749184
Si Si8 0.241616 0.990803 0.707888
O O1 0.954081 0.449185 0.589752
O O2 0.990740 0.637049 0.423302
O O3 0.866872 0.327299 0.651194
O O4 0.822828 0.265521 0.459181
O O5 0.773820 0.413203 0.616046
O O6 0.793424 0.133230 0.651434
O O7 0.430588 0.676969 0.028417
O O8 0.449442 0.735919 0.245513
O O9 0.131252 0.737004 0.256808
O O10 0.211406 0.885731 0.278607
O O11 0.218935 0.600070 0.284298
O O12 0.598679 0.559024 0.116223
O O13 0.536422 0.597683 0.945967
O O14 0.609878 0.475804 0.864352
O O15 0.962161 0.837008 0.784412
#
# Coordination Sequence:
#
# PCOD9377422 Si02
#       8
#     4   8   8   8   8   8   8   8
#     4  12  26  44  62 102 148 194 226 290 356 432
#     4  11  23  46  71  97 140 178 232 297 358 421
#     4  12  26  44  68 101 142 186 234 292 353 425
#     4  11  23  45  70  99 139 177 232 293 361 424
#     4  12  25  44  71 102 137 188 245 288 342 417
#     4  12  27  43  69 103 144 192 243 286 345 426
#     4  12  26  43  75 103 142 184 240 297 348 418
#     4  10  25  43  70 103 129 179 234 293 360 424
#
# _framework density 21.659393000000001
#
# number of rings (size 3 to 8) (size 9 to 14) (size 15 to 20)
#    0.000    0.533    4.000    3.200    1.867    4.267 
#    0.000    0.000    0.000    0.000    0.000    0.000 
#    0.000    0.000    0.000    0.000    0.000    0.000 
#
# Total GULP energy -167531.161287 kJ/mol
# GULP energy per Si atom -5584.372043 kJ/mol
# Density = 2.161010 g / cm^3
# Si number density = 21.659393 Si / 1000 Ang^3
#
#
#
# Elastic Constant Matrix: (Units=GPa)
#
#
# Indices 1 2 3 4 5 6 
#
# 1 132.0155 29.8052 37.3959 0.0000 0.0000 0.0000
# 2 29.8052 77.4816 8.4275 0.0000 0.0000 0.0000
# 3 37.3959 8.4275 123.9292 0.0000 0.0000 0.0000
# 4 0.0000 0.0000 0.0000 26.2307 0.0000 0.0000
# 5 0.0000 0.0000 0.0000 0.0000 30.2252 0.0000
# 6 0.0000 0.0000 0.0000 0.0000 0.0000 39.6008
#
#
#
# Elastic Compliance Matrix: (Units=1/GPa)
#
#
# Indices 1 2 3 4 5 6 
#
# 1 0.009004 -0.003192 -0.002500 0.000000 0.000000 0.000000
# 2 -0.003192 0.014134 0.000002 0.000000 0.000000 0.000000
# 3 -0.002500 0.000002 0.008823 0.000000 0.000000 0.000000
# 4 0.000000 0.000000 0.000000 0.038123 0.000000 0.000000
# 5 0.000000 0.000000 0.000000 0.000000 0.033085 0.000000
# 6 0.000000 0.000000 0.000000 0.000000 0.000000 0.025252
#
#
# Mechanical properties :
#
#
# Convention : Reuss Voigt Hill
#
# Bulk Modulus (GPa) = 48.58661 53.85370 51.22016
# Shear Modulus (GPa) = 34.09239 36.39786 35.24513
#
# Velocity S-wave (km/s) = 3.97170 4.10380 4.03829
# Velocity P-wave (km/s) = 6.59647 6.88278 6.74115
#
# Compressibility (1/GPa) = 0.02058180
#
# Stress axis : x y z
#
# Youngs Moduli (GPa) = 111.06743 70.75247 113.33615
#
# Poissons Ratio (x) = 0.22581 0.28332
# Poissons Ratio (y) = 0.35448 -0.00022
# Poissons Ratio (z) = 0.27765 -0.00014
#
# Static dielectric constant tensor:
#      x y z
#    x 1.837610 0.000000 0.000000 
#    y 0.000000 1.815290 0.000000 
#    z 0.000000 0.000000 1.779820 
# 
# From -- ./inp_files/4878.got.cif
#   From: 2010.05.17/outbox.cif.g08.bks.cpg/sg45_3_cif.got.tgz:4878.got - 2010.06.03 19:51:22.
