data_PCOD9377182
_publ_section_title
;
Structure prediction by ZEFSAII (Michael W. Deem and Ramdas Pophale) SiO2 
 PCOD9377182
Probable space group: I B A 2
;
_chemical_formula_sum "Si O2"
_cell_formula_units_Z 56
_cell_length_a 8.722052
_cell_length_b 15.033538
_cell_length_c 19.984849
_cell_angle_alpha 90.000000
_cell_angle_beta 90.000000
_cell_angle_gamma 90.000000
_cell_volume 2620.479354
_symmetry_space_group_name_H-M "I B A 2"
_symmetry_group_IT_number 45
_symmetry_cell_setting 'orthorhombic'
loop_
_space_group_symop_operation_xyz
x,y,z
-x,-y,z
-x,y,1/2+z
x,-y,1/2+z
1/2+x,1/2+y,1/2+z
1/2-x,1/2-y,1/2+z
1/2-x,1/2+y,z
1/2+x,1/2-y,z
loop_
_atom_site_type_symbol
_atom_site_label
_atom_site_fract_x
_atom_site_fract_y
_atom_site_fract_z
Si Si1 0.351394 0.062388 0.939130
Si Si2 0.806865 0.333722 0.716492
Si Si3 0.207890 0.187897 0.323665
Si Si4 0.803992 0.166090 0.540016
Si Si5 0.956355 0.752373 0.628101
Si Si6 0.021646 0.748602 0.415549
Si Si7 0.685358 0.505294 0.302427
O O1 0.418794 0.161371 0.926918
O O2 0.249281 0.032631 0.875946
O O3 0.500000 0.000000 0.946320
O O4 0.248938 0.074198 0.005836
O O5 0.851338 0.262443 0.773400
O O6 0.653545 0.295638 0.682633
O O7 0.762759 0.425936 0.751102
O O8 0.939860 0.325254 0.661011
O O9 0.357460 0.224607 0.358851
O O10 0.085914 0.175610 0.383894
O O11 0.239593 0.095038 0.288780
O O12 0.654143 0.213539 0.570671
O O13 0.885562 0.221337 0.480416
O O14 0.929289 0.172868 0.598631
O O15 0.500000 0.500000 0.298937
#
# Coordination Sequence:
#
# PCOD9377182 Si02
#       7
#     8   8   8   8   8   8   8
#     4  12  24  41  65 104 137 168 220 285 354 417
#     4  11  23  44  65  96 134 179 234 273 332 412
#     4  12  23  39  70 100 134 171 214 280 356 413
#     4  11  21  43  69  94 128 178 232 275 330 407
#     4  10  23  41  71  88 126 191 234 269 326 398
#     4  12  21  40  71 100 128 174 214 279 356 415
#     4  12  25  41  66 102 140 170 217 285 352 420
#
# _framework density 21.370135999999999
#
# number of rings (size 3 to 8) (size 9 to 14) (size 15 to 20)
#    0.000    0.571    5.714    3.429    0.000    0.000 
#    0.000    4.286    3.143    0.000    0.000    0.000 
#    0.000    0.000    0.000    0.000    0.000    0.000 
#
# Total GULP energy -156467.214294 kJ/mol
# GULP energy per Si atom -5588.114796 kJ/mol
# Density = 2.132150 g / cm^3
# Si number density = 21.370136 Si / 1000 Ang^3
#
#
#
# Elastic Constant Matrix: (Units=GPa)
#
#
# Indices 1 2 3 4 5 6 
#
# 1 123.5278 22.2286 52.9507 0.0000 0.0000 0.0000
# 2 22.2286 90.9709 29.1617 0.0000 0.0000 0.0000
# 3 52.9507 29.1617 82.2461 0.0000 0.0000 0.0000
# 4 0.0000 0.0000 0.0000 5.5301 0.0000 0.0000
# 5 0.0000 0.0000 0.0000 0.0000 -908.5108 0.0000
# 6 0.0000 0.0000 0.0000 0.0000 0.0000 17.7494
#
#
#
# Elastic Compliance Matrix: (Units=1/GPa)
#
#
# Indices 1 2 3 4 5 6 
#
# 1 0.011199 -0.000480 -0.007040 0.000000 0.000000 0.000000
# 2 -0.000480 0.012423 -0.004096 0.000000 0.000000 0.000000
# 3 -0.007040 -0.004096 0.018143 0.000000 0.000000 0.000000
# 4 0.000000 0.000000 0.000000 0.180829 0.000000 0.000000
# 5 0.000000 0.000000 0.000000 0.000000 -0.001101 0.000000
# 6 0.000000 0.000000 0.000000 0.000000 0.000000 0.056340
#
#
# Mechanical properties :
#
#
# Convention : Reuss Voigt Hill
#
# Bulk Modulus (GPa) = 53.95471 56.15852 55.05662
# Shear Modulus (GPa) = 16.27371 -164.21935 -73.97282
#
# Velocity S-wave (km/s) = 2.76255 -8.77565 -5.88984
# Velocity P-wave (km/s) = 5.95635 8.73766 4.52043
#
# Compressibility (1/GPa) = 0.01853406
#
# Stress axis : x y z
#
# Youngs Moduli (GPa) = 89.28982 80.49772 55.11645
#
# Poissons Ratio (x) = 0.03862 0.38803
# Poissons Ratio (y) = 0.04284 0.22575
# Poissons Ratio (z) = 0.62862 0.32970
#
# Static dielectric constant tensor:
#      x y z
#    x 2.097140 0.000000 0.000000 
#    y 0.000000 1.767280 0.000000 
#    z 0.000000 0.000000 1.818510 
# 
# From -- ./inp_files/8872.got.cif
#   From: 2010.05.17/outbox.cif.g08.bks.cpg/sg45_5_cif.got.tgz:8872.got - 2010.06.03 19:51:22.
