data_PCOD9377956
_publ_section_title
;
Structure prediction by ZEFSAII (Michael W. Deem and Ramdas Pophale) SiO2 
 PCOD9377956
Probable space group: I M A 2
;
_chemical_formula_sum "Si O2"
_cell_formula_units_Z 64
_cell_length_a 8.877466
_cell_length_b 18.838771
_cell_length_c 27.262845
_cell_angle_alpha 90.000000
_cell_angle_beta 90.000000
_cell_angle_gamma 90.000000
_cell_volume 4559.453166
_symmetry_space_group_name_H-M "I M A 2"
_symmetry_group_IT_number 46
_symmetry_cell_setting 'orthorhombic'
loop_
_space_group_symop_operation_xyz
x,y,z
-x,-y,z
1/2-x,y,z
1/2+x,-y,z
1/2+x,1/2+y,1/2+z
1/2-x,1/2-y,1/2+z
-x,1/2+y,1/2+z
x,1/2-y,1/2+z
loop_
_atom_site_type_symbol
_atom_site_label
_atom_site_fract_x
_atom_site_fract_y
_atom_site_fract_z
Si Si1 0.424586 0.796482 0.042830
Si Si2 0.930875 0.922035 0.098286
Si Si3 0.569485 0.666017 0.695473
Si Si4 0.931191 0.833137 0.493459
Si Si5 0.076737 0.792600 0.644865
Si Si6 0.067835 0.077232 0.288026
Si Si7 0.932496 0.422023 0.083440
Si Si8 0.431026 0.076902 0.399901
O O1 0.250000 0.808254 0.030271
O O2 0.507490 0.869427 0.056231
O O3 0.428396 0.751118 0.093556
O O4 0.505505 0.745372 0.003918
O O5 0.750000 0.925052 0.096463
O O6 0.975756 0.886006 0.150485
O O7 0.000000 0.000000 0.094610
O O8 0.750000 0.667570 0.695619
O O9 0.512120 0.744556 0.683101
O O10 0.517582 0.632966 0.746855
O O11 0.750000 0.833023 0.498585
O O12 0.972660 0.865284 0.440585
O O13 0.002052 0.885009 0.534559
O O14 0.250000 0.797082 0.660420
O O15 0.023548 0.870649 0.628922
O O16 0.250000 0.072650 0.286093
O O17 0.024509 0.095441 0.344033
O O18 0.000000 0.000000 0.276865
O O19 0.750000 0.423086 0.080554
O O20 0.000000 0.500000 0.088206
O O21 0.250000 0.070038 0.400939
O O22 0.500000 0.000000 0.411917
#
# Coordination Sequence:
#
# PCOD9377956 Si02
#       8
#     8   8   8   8   8   8   8   8
#     4   9  17  29  42  57  78 105 134 167 202 239
#     4  10  18  27  40  60  83 108 137 168 200 238
#     4   9  17  27  41  58  78 106 138 167 198 234
#     4  10  18  28  42  59  79 107 138 168 201 239
#     4   8  16  28  40  55  77 102 130 162 198 236
#     4   9  17  29  41  57  80 106 136 169 200 232
#     4  10  19  29  41  59  81 107 135 166 200 237
#     4   9  18  29  41  57  80 107 136 169 202 233
#
# _framework density 14.036771
#
# number of rings (size 3 to 8) (size 9 to 14) (size 15 to 20)
#    0.000    2.750    0.000    3.000    0.000    6.500 
#    0.000    0.000    0.000    0.000    0.000    0.000 
#    0.000    1.000    0.000    4.250    0.000    3.875 
#
# Total GULP energy -178226.611449 kJ/mol
# GULP energy per Si atom -5569.581608 kJ/mol
# Density = 1.400482 g / cm^3
# Si number density = 14.036771 Si / 1000 Ang^3
#
#
#
# Elastic Constant Matrix: (Units=GPa)
#
#
# Indices 1 2 3 4 5 6 
#
# 1 38.8529 36.8976 28.8453 0.0000 0.0000 0.0000
# 2 36.8976 108.8985 53.1999 0.0000 0.0000 0.0000
# 3 28.8453 53.1999 80.6335 0.0000 0.0000 0.0000
# 4 0.0000 0.0000 0.0000 26.8620 0.0000 0.0000
# 5 0.0000 0.0000 0.0000 0.0000 14.2395 0.0000
# 6 0.0000 0.0000 0.0000 0.0000 0.0000 26.5791
#
#
#
# Elastic Compliance Matrix: (Units=1/GPa)
#
#
# Indices 1 2 3 4 5 6 
#
# 1 0.041307 -0.010000 -0.008179 0.000000 0.000000 0.000000
# 2 -0.010000 0.015971 -0.006960 0.000000 0.000000 0.000000
# 3 -0.008179 -0.006960 0.019920 0.000000 0.000000 0.000000
# 4 0.000000 0.000000 0.000000 0.037227 0.000000 0.000000
# 5 0.000000 0.000000 0.000000 0.000000 0.070227 0.000000
# 6 0.000000 0.000000 0.000000 0.000000 0.000000 0.037624
#
#
# Mechanical properties :
#
#
# Convention : Reuss Voigt Hill
#
# Bulk Modulus (GPa) = 37.14755 51.80786 44.47770
# Shear Modulus (GPa) = 17.76015 20.83225 19.29620
#
# Velocity S-wave (km/s) = 3.56091 3.85661 3.71170
# Velocity P-wave (km/s) = 6.59004 7.53791 7.07985
#
# Compressibility (1/GPa) = 0.02691968
#
# Stress axis : x y z
#
# Youngs Moduli (GPa) = 24.20869 62.61185 50.20128
#
# Poissons Ratio (x) = 0.62614 0.41060
# Poissons Ratio (y) = 0.24209 0.34940
# Poissons Ratio (z) = 0.19801 0.43578
#
# Static dielectric constant tensor:
#      x y z
#    x 1.472320 0.000000 0.000000 
#    y 0.000000 1.453090 0.000000 
#    z 0.000000 0.000000 1.460030 
# 
# From -- ./inp_files/23314.got.cif
#   From: 2010.05.17/outbox.cif.g08.bks.cpg/sg46_12_cif.got.tgz:23314.got - 2010.06.03 19:58:25.
