data_PCOD9377859
_publ_section_title
;
Structure prediction by ZEFSAII (Michael W. Deem and Ramdas Pophale) SiO2 
 PCOD9377859
Probable space group: I M A 2
;
_chemical_formula_sum "Si O2"
_cell_formula_units_Z 64
_cell_length_a 8.106701
_cell_length_b 31.645838
_cell_length_c 14.895261
_cell_angle_alpha 90.000000
_cell_angle_beta 90.000000
_cell_angle_gamma 90.000000
_cell_volume 3821.280105
_symmetry_space_group_name_H-M "I M A 2"
_symmetry_group_IT_number 46
_symmetry_cell_setting 'orthorhombic'
loop_
_space_group_symop_operation_xyz
x,y,z
-x,-y,z
1/2-x,y,z
1/2+x,-y,z
1/2+x,1/2+y,1/2+z
1/2-x,1/2-y,1/2+z
-x,1/2+y,1/2+z
x,1/2-y,1/2+z
loop_
_atom_site_type_symbol
_atom_site_label
_atom_site_fract_x
_atom_site_fract_y
_atom_site_fract_z
Si Si1 0.049859 0.868077 0.551730
Si Si2 0.449011 0.703126 0.185032
Si Si3 0.059185 0.368444 0.683675
Si Si4 0.552964 0.047231 0.470804
Si Si5 0.052739 0.773132 0.879067
Si Si6 0.445158 0.287945 0.580163
Si Si7 0.052506 0.047519 0.264120
Si Si8 0.554263 0.326477 0.860741
O O1 0.250000 0.869498 0.560551
O O2 0.988058 0.837652 0.630548
O O3 0.990334 0.915967 0.536931
O O4 0.014145 0.845048 0.457723
O O5 0.250000 0.700755 0.188715
O O6 0.508917 0.705088 0.287696
O O7 0.486437 0.746418 0.130869
O O8 0.250000 0.373976 0.656164
O O9 0.986779 0.415331 0.699161
O O10 0.984884 0.332057 0.620040
O O11 0.048001 0.348004 0.782472
O O12 0.750000 0.048814 0.471019
O O13 0.500329 0.055358 0.367529
O O14 0.500000 0.000000 0.495008
O O15 0.250000 0.779698 0.886849
O O16 0.026259 0.723357 0.863285
O O17 0.976313 0.785441 0.974068
O O18 0.750000 0.712320 0.597771
O O19 0.250000 0.049377 0.262829
O O20 0.000000 0.000000 0.240305
O O21 0.750000 0.334047 0.843734
#
# Coordination Sequence:
#
# PCOD9377859 Si02
#       8
#     8   8   8   8   8   8   8   8
#     4   9  17  29  46  68  94 123 157 192 232 274
#     4  10  19  34  52  70  93 124 165 204 236 274
#     4  10  21  33  45  67  98 130 159 190 234 283
#     4  10  18  29  45  67  95 124 154 189 233 282
#     4  10  20  33  50  69  93 126 164 205 236 268
#     4  11  22  33  47  69  99 130 159 193 236 287
#     4  10  19  31  46  66  93 122 155 192 232 279
#     4  10  17  28  48  70  93 125 161 195 230 273
#
# _framework density 16.748313
#
# number of rings (size 3 to 8) (size 9 to 14) (size 15 to 20)
#    0.000    2.000    3.750    1.875    0.000    2.000 
#    0.000    1.250    0.000    0.000    0.000    0.875 
#    0.000    6.000    0.000    0.000    0.000    0.000 
#
# Total GULP energy -178388.272364 kJ/mol
# GULP energy per Si atom -5574.633511 kJ/mol
# Density = 1.671019 g / cm^3
# Si number density = 16.748313 Si / 1000 Ang^3
#
#
#
# Elastic Constant Matrix: (Units=GPa)
#
#
# Indices 1 2 3 4 5 6 
#
# 1 14.2528 10.9123 -1.8784 0.0000 0.0000 0.0000
# 2 10.9123 95.8207 35.5940 0.0000 0.0000 0.0000
# 3 -1.8784 35.5940 70.5833 0.0000 -0.0001 0.0000
# 4 0.0000 0.0000 0.0000 26.5546 0.0000 0.0000
# 5 0.0000 0.0000 -0.0001 0.0000 3.8419 0.0000
# 6 0.0000 0.0000 0.0000 0.0000 0.0000 11.2566
#
#
#
# Elastic Compliance Matrix: (Units=1/GPa)
#
#
# Indices 1 2 3 4 5 6 
#
# 1 0.080667 -0.012285 0.008342 0.000000 0.000000 0.000000
# 2 -0.012285 0.014713 -0.007746 0.000000 0.000000 0.000000
# 3 0.008342 -0.007746 0.018296 0.000000 0.000000 0.000000
# 4 0.000000 0.000000 0.000000 0.037658 0.000000 0.000000
# 5 0.000000 0.000000 0.000000 0.000000 0.260288 0.000000
# 6 0.000000 0.000000 0.000000 0.000000 0.000000 0.088837
#
#
# Mechanical properties :
#
#
# Convention : Reuss Voigt Hill
#
# Bulk Modulus (GPa) = 11.07463 29.99028 20.53245
# Shear Modulus (GPa) = 9.02631 17.39921 13.21276
#
# Velocity S-wave (km/s) = 2.32402 3.22664 2.81179
# Velocity P-wave (km/s) = 3.71863 5.64153 4.77782
#
# Compressibility (1/GPa) = 0.09029645
#
# Stress axis : x y z
#
# Youngs Moduli (GPa) = 12.39665 67.96843 54.65678
#
# Poissons Ratio (x) = 0.83501 -0.45595
# Poissons Ratio (y) = 0.15230 0.42339
# Poissons Ratio (z) = -0.10341 0.52650
#
# Static dielectric constant tensor:
#      x y z
#    x 1.600270 0.000000 0.000000 
#    y 0.000000 1.606300 0.000000 
#    z 0.000000 0.000000 1.550470 
# 
# From -- ./inp_files/14751.got.cif
#   From: 2010.05.17/outbox.cif.g08.bks.cpg/sg46_8_cif.got.tgz:14751.got - 2010.06.03 19:58:25.
