data_PCOD9377404
_publ_section_title
;
Structure prediction by ZEFSAII (Michael W. Deem and Ramdas Pophale) SiO2 
 PCOD9377404
Probable space group: I B A 2
;
_chemical_formula_sum "Si O2"
_cell_formula_units_Z 56
_cell_length_a 9.727733
_cell_length_b 21.065890
_cell_length_c 12.002177
_cell_angle_alpha 90.000000
_cell_angle_beta 90.000000
_cell_angle_gamma 90.000000
_cell_volume 2459.526358
_symmetry_space_group_name_H-M "I B A 2"
_symmetry_group_IT_number 45
_symmetry_cell_setting 'orthorhombic'
loop_
_space_group_symop_operation_xyz
x,y,z
-x,-y,z
-x,y,1/2+z
x,-y,1/2+z
1/2+x,1/2+y,1/2+z
1/2-x,1/2-y,1/2+z
1/2-x,1/2+y,z
1/2+x,1/2-y,z
loop_
_atom_site_type_symbol
_atom_site_label
_atom_site_fract_x
_atom_site_fract_y
_atom_site_fract_z
Si Si1 0.127110 0.677324 0.555630
Si Si2 0.156925 0.380011 0.503861
Si Si3 0.233300 0.930972 0.914465
Si Si4 0.242463 0.771024 0.386947
Si Si5 0.615627 0.383405 0.184903
Si Si6 0.000000 0.000000 0.546852
Si Si7 0.483688 0.252880 0.747411
Si Si8 0.500000 0.000000 0.419291
O O1 0.218059 0.618176 0.511716
O O2 0.193778 0.738963 0.500796
O O3 0.087499 0.694354 0.682253
O O4 0.976552 0.664183 0.506967
O O5 0.248989 0.346835 0.407506
O O6 0.243500 0.376921 0.615895
O O7 0.091229 0.448913 0.486114
O O8 0.152294 0.899725 0.812234
O O9 0.376292 0.959924 0.863954
O O10 0.130888 0.981739 0.970682
O O11 0.387308 0.741294 0.354497
O O12 0.137784 0.748384 0.290909
O O13 0.535663 0.440274 0.124519
O O14 0.532124 0.317831 0.179405
#
# Coordination Sequence:
#
# PCOD9377404 Si02
#       8
#     8   8   8   8   8   4   8   4
#     4  11  25  45  73 107 148 190 241 303 365 446
#     4  11  24  46  73 106 146 188 246 301 363 446
#     4  11  26  49  73 103 151 191 253 312 371 440
#     4  12  25  45  70 110 147 191 233 302 367 445
#     4  12  26  44  75 105 144 195 246 303 377 444
#     4  12  28  48  70 110 146 196 252 318 370 450
#     4  12  27  43  74 107 148 187 240 292 380 440
#     4  10  24  50  74 100 140 200 244 310 358 436
#
# _framework density 22.768611
#
# number of rings (size 3 to 8) (size 9 to 14) (size 15 to 20)
#    0.000    0.571    5.714    1.286    4.000    1.714 
#    0.000    0.000    0.000    0.000    0.000    0.000 
#    0.000    0.000    0.000    0.000    0.000    0.000 
#
# Total GULP energy -156291.538925 kJ/mol
# GULP energy per Si atom -5581.840676 kJ/mol
# Density = 2.271679 g / cm^3
# Si number density = 22.768611 Si / 1000 Ang^3
#
#
#
# Elastic Constant Matrix: (Units=GPa)
#
#
# Indices 1 2 3 4 5 6 
#
# 1 87.0230 11.3762 3.2760 0.0001 0.0000 0.0000
# 2 11.3762 69.3997 11.0653 0.0004 -0.0002 -0.0001
# 3 3.2760 11.0653 50.8681 0.0003 -0.0001 -0.0001
# 4 0.0001 0.0004 0.0003 24.0841 -0.0001 -0.0001
# 5 0.0000 -0.0002 -0.0001 -0.0001 15.2317 0.0000
# 6 0.0000 -0.0001 -0.0001 -0.0001 0.0000 22.1920
#
#
#
# Elastic Compliance Matrix: (Units=1/GPa)
#
#
# Indices 1 2 3 4 5 6 
#
# 1 0.011749 -0.001870 -0.000350 0.000000 0.000000 0.000000
# 2 -0.001870 0.015225 -0.003191 0.000000 0.000000 0.000000
# 3 -0.000350 -0.003191 0.020375 0.000000 0.000000 0.000000
# 4 0.000000 0.000000 0.000000 0.041521 0.000000 0.000000
# 5 0.000000 0.000000 0.000000 0.000000 0.065652 0.000000
# 6 0.000000 0.000000 0.000000 0.000000 0.000000 0.045061
#
#
# Mechanical properties :
#
#
# Convention : Reuss Voigt Hill
#
# Bulk Modulus (GPa) = 27.37756 28.74734 28.06245
# Shear Modulus (GPa) = 22.46363 24.40644 23.43504
#
# Velocity S-wave (km/s) = 3.14443 3.27759 3.21170
# Velocity P-wave (km/s) = 5.02331 5.19391 5.10933
#
# Compressibility (1/GPa) = 0.03652626
#
# Stress axis : x y z
#
# Youngs Moduli (GPa) = 85.11464 65.68285 49.07871
#
# Poissons Ratio (x) = 0.12284 0.01717
# Poissons Ratio (y) = 0.15918 0.15663
# Poissons Ratio (z) = 0.02978 0.20962
#
# Static dielectric constant tensor:
#      x y z
#    x 1.825400 0.000000 0.000000 
#    y 0.000000 1.926470 0.000000 
#    z 0.000000 0.000000 1.866030 
# 
# From -- ./inp_files/3811.got.cif
#   From: 2010.05.17/outbox.cif.g08.bks.cpg/sg45_2_cif.got.tgz:3811.got - 2010.06.03 19:51:22.
