data_PCOD9377815
_publ_section_title
;
Structure prediction by ZEFSAII (Michael W. Deem and Ramdas Pophale) SiO2 
 PCOD9377815
Probable space group: I M A 2
;
_chemical_formula_sum "Si O2"
_cell_formula_units_Z 64
_cell_length_a 23.401821
_cell_length_b 8.046356
_cell_length_c 14.273765
_cell_angle_alpha 90.000000
_cell_angle_beta 90.000000
_cell_angle_gamma 90.000000
_cell_volume 2687.741140
_symmetry_space_group_name_H-M "I M A 2"
_symmetry_group_IT_number 46
_symmetry_cell_setting 'orthorhombic'
loop_
_space_group_symop_operation_xyz
x,y,z
-x,-y,z
1/2-x,y,z
1/2+x,-y,z
1/2+x,1/2+y,1/2+z
1/2-x,1/2-y,1/2+z
-x,1/2+y,1/2+z
x,1/2-y,1/2+z
loop_
_atom_site_type_symbol
_atom_site_label
_atom_site_fract_x
_atom_site_fract_y
_atom_site_fract_z
Si Si1 0.103231 0.039921 0.725370
Si Si2 0.043817 0.136271 0.293324
Si Si3 0.847232 0.813075 0.556252
Si Si4 0.187628 0.613348 0.364222
Si Si5 0.358065 0.951196 0.409007
Si Si6 0.311563 0.549764 0.586586
Si Si7 0.916187 0.232514 0.591496
Si Si8 0.020373 0.193347 0.497394
O O1 0.068064 0.209455 0.735425
O O2 0.151303 0.067948 0.645797
O O3 0.135458 0.985724 0.818552
O O4 0.069557 0.888158 0.678412
O O5 0.014645 0.215662 0.386238
O O6 0.097021 0.035423 0.339026
O O7 0.000000 0.000000 0.253032
O O8 0.818640 0.646631 0.590977
O O9 0.914138 0.781461 0.527565
O O10 0.823512 0.905140 0.464196
O O11 0.250000 0.566948 0.326152
O O12 0.176819 0.810298 0.356402
O O13 0.188252 0.581618 0.475015
O O14 0.390488 0.860629 0.497625
O O15 0.250000 0.605565 0.624506
O O16 0.367192 0.642553 0.624255
O O17 0.975355 0.303271 0.553268
O O18 0.000000 0.000000 0.514732
#
# Coordination Sequence:
#
# PCOD9377815 Si02
#       8
#     8   8   8   8   8   8   8   8
#     4  11  23  39  60  99 135 164 213 278 336 394
#     4  10  19  38  64  92 127 168 211 262 333 397
#     4  10  21  39  63  94 129 169 217 276 342 398
#     4  10  22  40  61  92 127 168 222 280 335 393
#     4   9  18  38  64  84 122 170 221 266 317 406
#     4  10  23  43  65  89 122 173 235 275 321 409
#     4  10  20  40  63  89 129 174 218 266 328 407
#     4  10  16  38  66  87 127 171 211 260 321 413
#
# _framework density 23.811814999999999
#
# number of rings (size 3 to 8) (size 9 to 14) (size 15 to 20)
#    0.000    2.000    5.000    1.500    0.000    3.000 
#    6.750    3.125    0.000    0.000    0.000    0.000 
#    0.000    0.000    0.000    0.000    0.000    0.000 
#
# Total GULP energy -178679.522474 kJ/mol
# GULP energy per Si atom -5583.735077 kJ/mol
# Density = 2.375762 g / cm^3
# Si number density = 23.811815 Si / 1000 Ang^3
#
#
#
# Elastic Constant Matrix: (Units=GPa)
#
#
# Indices 1 2 3 4 5 6 
#
# 1 72.4671 15.5730 15.3355 0.0000 0.0000 0.0000
# 2 15.5730 67.0845 12.8392 0.0000 0.0000 0.0000
# 3 15.3355 12.8392 55.1159 0.0000 0.0000 0.0000
# 4 0.0000 0.0000 0.0000 32.1749 0.0000 0.0000
# 5 0.0000 0.0000 0.0000 0.0000 12.9647 0.0000
# 6 0.0000 0.0000 0.0000 0.0000 0.0000 68.8150
#
#
#
# Elastic Compliance Matrix: (Units=1/GPa)
#
#
# Indices 1 2 3 4 5 6 
#
# 1 0.015162 -0.002839 -0.003557 0.000000 0.000000 0.000000
# 2 -0.002839 0.016134 -0.002968 0.000000 0.000000 0.000000
# 3 -0.003557 -0.002968 0.019825 0.000000 0.000000 0.000000
# 4 0.000000 0.000000 0.000000 0.031080 0.000000 0.000000
# 5 0.000000 0.000000 0.000000 0.000000 0.077132 0.000000
# 6 0.000000 0.000000 0.000000 0.000000 0.000000 0.014532
#
#
# Mechanical properties :
#
#
# Convention : Reuss Voigt Hill
#
# Bulk Modulus (GPa) = 30.87248 31.35143 31.11196
# Shear Modulus (GPa) = 24.58309 32.85223 28.71766
#
# Velocity S-wave (km/s) = 3.21657 3.71841 3.47656
# Velocity P-wave (km/s) = 5.17575 5.62409 5.40457
#
# Compressibility (1/GPa) = 0.03239131
#
# Stress axis : x y z
#
# Youngs Moduli (GPa) = 65.95319 61.98199 50.44161
#
# Poissons Ratio (x) = 0.17596 0.17944
# Poissons Ratio (y) = 0.18723 0.14973
# Poissons Ratio (z) = 0.23462 0.18399
#
# Static dielectric constant tensor:
#      x y z
#    x 1.960340 0.000000 0.000000 
#    y 0.000000 2.024040 0.000000 
#    z 0.000000 0.000000 1.907250 
# 
# From -- ./inp_files/17425.got.cif
#   From: 2010.05.17/outbox.cif.g08.bks.cpg/sg46_9_cif.got.tgz:17425.got - 2010.06.03 19:58:25.
