data_PCOD9377678
_publ_section_title
;
Structure prediction by ZEFSAII (Michael W. Deem and Ramdas Pophale) SiO2 
 PCOD9377678
Probable space group: I B A 2
;
_chemical_formula_sum "Si O2"
_cell_formula_units_Z 64
_cell_length_a 8.861340
_cell_length_b 14.280893
_cell_length_c 21.230617
_cell_angle_alpha 90.000000
_cell_angle_beta 90.000000
_cell_angle_gamma 90.000000
_cell_volume 2686.688901
_symmetry_space_group_name_H-M "I B A 2"
_symmetry_group_IT_number 45
_symmetry_cell_setting 'orthorhombic'
loop_
_space_group_symop_operation_xyz
x,y,z
-x,-y,z
-x,y,1/2+z
x,-y,1/2+z
1/2+x,1/2+y,1/2+z
1/2-x,1/2-y,1/2+z
1/2-x,1/2+y,z
1/2+x,1/2-y,z
loop_
_atom_site_type_symbol
_atom_site_label
_atom_site_fract_x
_atom_site_fract_y
_atom_site_fract_z
Si Si1 0.719750 0.431416 0.958850
Si Si2 0.649818 0.051761 0.191736
Si Si3 0.859693 0.622529 0.330424
Si Si4 0.552112 0.248258 0.146781
Si Si5 0.112418 0.078181 0.230484
Si Si6 0.700874 0.202331 0.559812
Si Si7 0.886039 0.861524 0.462214
Si Si8 0.796445 0.312965 0.335790
O O1 0.808401 0.431295 0.892981
O O2 0.566227 0.369610 0.950741
O O3 0.669535 0.534408 0.977389
O O4 0.817646 0.385256 0.013952
O O5 0.639057 0.062238 0.267445
O O6 0.649856 0.158406 0.168106
O O7 0.500000 0.000000 0.168461
O O8 0.792344 0.984598 0.180655
O O9 0.739566 0.705590 0.319547
O O10 0.026398 0.665669 0.340353
O O11 0.538011 0.331405 0.197182
O O12 0.396378 0.205179 0.123129
O O13 0.630292 0.291449 0.085329
O O14 0.222610 0.122973 0.281882
O O15 0.000000 0.000000 0.258968
O O16 0.660655 0.290874 0.516778
O O17 0.795680 0.831122 0.399821
#
# Coordination Sequence:
#
# PCOD9377678 Si02
#       8
#     8   8   8   8   8   8   8   8
#     4  11  26  48  75 108 149 191 246 304 379 442
#     4  12  26  49  75 109 150 191 247 311 379 453
#     4  12  26  45  77 111 151 192 237 311 380 456
#     4  12  28  49  75 104 149 198 257 310 366 440
#     4  12  28  47  77 112 148 198 249 310 383 451
#     4  12  26  49  73 104 146 195 252 305 359 433
#     4  11  26  48  74 109 147 194 243 308 371 452
#     4  12  26  45  77 111 151 191 242 305 390 447
#
# _framework density 23.821141999999998
#
# number of rings (size 3 to 8) (size 9 to 14) (size 15 to 20)
#    0.000    0.250    5.000    3.000    7.000    3.000 
#    0.000    0.000    0.000    0.000    0.000    0.000 
#    0.000    0.000    0.000    0.000    0.000    0.000 
#
# Total GULP energy -179255.837439 kJ/mol
# GULP energy per Si atom -5601.744920 kJ/mol
# Density = 2.376692 g / cm^3
# Si number density = 23.821142 Si / 1000 Ang^3
#
#
#
# Elastic Constant Matrix: (Units=GPa)
#
#
# Indices 1 2 3 4 5 6 
#
# 1 75.1034 5.8600 8.7139 0.0000 0.0000 0.0000
# 2 5.8600 109.5119 28.3039 0.0000 0.0000 0.0000
# 3 8.7139 28.3039 76.6266 0.0000 0.0000 0.0000
# 4 0.0000 0.0000 0.0000 -22.4031 0.0000 0.0000
# 5 0.0000 0.0000 0.0000 0.0000 36.5736 0.0000
# 6 0.0000 0.0000 0.0000 0.0000 0.0000 35.2431
#
#
#
# Elastic Compliance Matrix: (Units=1/GPa)
#
#
# Indices 1 2 3 4 5 6 
#
# 1 0.013506 -0.000360 -0.001403 0.000000 0.000000 0.000000
# 2 -0.000360 0.010105 -0.003691 0.000000 0.000000 0.000000
# 3 -0.001403 -0.003691 0.014573 0.000000 0.000000 0.000000
# 4 0.000000 0.000000 0.000000 -0.044637 0.000000 0.000000
# 5 0.000000 0.000000 0.000000 0.000000 0.027342 0.000000
# 6 0.000000 0.000000 0.000000 0.000000 0.000000 0.028374
#
#
# Mechanical properties :
#
#
# Convention : Reuss Voigt Hill
#
# Bulk Modulus (GPa) = 36.66351 38.55526 37.60938
# Shear Modulus (GPa) = 72.18708 24.44032 48.31370
#
# Velocity S-wave (km/s) = 5.51086 3.20659 4.50842
# Velocity P-wave (km/s) = 7.47779 5.47084 6.55162
#
# Compressibility (1/GPa) = 0.02727508
#
# Stress axis : x y z
#
# Youngs Moduli (GPa) = 74.04200 98.96308 68.61826
#
# Poissons Ratio (x) = 0.03564 0.09626
# Poissons Ratio (y) = 0.02666 0.25330
# Poissons Ratio (z) = 0.10387 0.36532
#
# Static dielectric constant tensor:
#      x y z
#    x 1.936720 0.000000 0.000000 
#    y 0.000000 1.904080 0.000000 
#    z 0.000000 0.000000 1.862460 
# 
# From -- ./inp_files/9616.got.cif
#   From: 2010.05.17/outbox.cif.g08.bks.cpg/sg45_5_cif.got.tgz:9616.got - 2010.06.03 19:51:22.
