data_PCOD9377328
_publ_section_title
;
Structure prediction by ZEFSAII (Michael W. Deem and Ramdas Pophale) SiO2 
 PCOD9377328
Probable space group: I B A 2
;
_chemical_formula_sum "Si O2"
_cell_formula_units_Z 56
_cell_length_a 20.511819
_cell_length_b 8.724884
_cell_length_c 14.588398
_cell_angle_alpha 90.000000
_cell_angle_beta 90.000000
_cell_angle_gamma 90.000000
_cell_volume 2610.786993
_symmetry_space_group_name_H-M "I B A 2"
_symmetry_group_IT_number 45
_symmetry_cell_setting 'orthorhombic'
loop_
_space_group_symop_operation_xyz
x,y,z
-x,-y,z
-x,y,1/2+z
x,-y,1/2+z
1/2+x,1/2+y,1/2+z
1/2-x,1/2-y,1/2+z
1/2-x,1/2+y,z
1/2+x,1/2-y,z
loop_
_atom_site_type_symbol
_atom_site_label
_atom_site_fract_x
_atom_site_fract_y
_atom_site_fract_z
Si Si1 0.905723 0.133174 0.275050
Si Si2 0.549462 0.856104 0.953009
Si Si3 0.343298 0.188925 0.108538
Si Si4 0.263198 0.064451 0.547214
Si Si5 0.834055 0.160521 0.462920
Si Si6 0.040038 0.852337 0.573880
Si Si7 0.944323 0.209651 0.767290
O O1 0.884369 0.239692 0.190933
O O2 0.860729 0.167588 0.361299
O O3 0.980961 0.172217 0.293331
O O4 0.903741 0.948810 0.262448
O O5 0.576157 0.817893 0.851089
O O6 0.500000 0.000000 0.950023
O O7 0.609105 0.858791 0.024886
O O8 0.504366 0.722287 0.996059
O O9 0.292727 0.323319 0.083360
O O10 0.298627 0.038800 0.123917
O O11 0.315134 0.172153 0.497953
O O12 0.227889 0.948170 0.477541
O O13 0.892364 0.100265 0.527896
O O14 0.052875 0.740724 0.660569
O O15 0.000000 0.000000 0.609203
#
# Coordination Sequence:
#
# PCOD9377328 Si02
#       7
#     8   8   8   8   8   8   8
#     4  11  21  39  69  98 130 167 227 278 332 413
#     4  12  25  41  65 100 142 170 211 283 351 400
#     4  11  23  45  66  97 134 177 228 277 334 405
#     4  10  24  44  64  89 131 183 225 271 327 393
#     4  11  23  41  67  94 130 173 222 271 330 400
#     4  12  21  40  69  96 126 169 218 274 335 403
#     4  11  22  39  63 105 131 169 213 270 352 414
#
# _framework density 21.449470000000002
#
# number of rings (size 3 to 8) (size 9 to 14) (size 15 to 20)
#    0.000    0.857    4.286    4.286    0.000    1.714 
#    2.571    5.714    0.000    0.000    0.000    0.000 
#    0.000    0.000    0.000    0.000    0.000    0.000 
#
# Total GULP energy -156398.722658 kJ/mol
# GULP energy per Si atom -5585.668666 kJ/mol
# Density = 2.140065 g / cm^3
# Si number density = 21.449470 Si / 1000 Ang^3
#
#
#
# Elastic Constant Matrix: (Units=GPa)
#
#
# Indices 1 2 3 4 5 6 
#
# 1 77.3964 37.3911 24.4181 0.0000 0.0000 0.0000
# 2 37.3911 97.2557 28.1616 0.0000 0.0000 0.0000
# 3 24.4181 28.1616 123.9804 0.0000 0.0000 0.0000
# 4 0.0000 0.0000 0.0000 21.1028 0.0000 0.0000
# 5 0.0000 0.0000 0.0000 0.0000 17.8599 0.0000
# 6 0.0000 0.0000 0.0000 0.0000 0.0000 40.1616
#
#
#
# Elastic Compliance Matrix: (Units=1/GPa)
#
#
# Indices 1 2 3 4 5 6 
#
# 1 0.016280 -0.005706 -0.001910 0.000000 0.000000 0.000000
# 2 -0.005706 0.013006 -0.001830 0.000000 0.000000 0.000000
# 3 -0.001910 -0.001830 0.008858 0.000000 0.000000 0.000000
# 4 0.000000 0.000000 0.000000 0.047387 0.000000 0.000000
# 5 0.000000 0.000000 0.000000 0.000000 0.055991 0.000000
# 6 0.000000 0.000000 0.000000 0.000000 0.000000 0.024899
#
#
# Mechanical properties :
#
#
# Convention : Reuss Voigt Hill
#
# Bulk Modulus (GPa) = 51.94712 53.17491 52.56101
# Shear Modulus (GPa) = 26.07817 29.73563 27.90690
#
# Velocity S-wave (km/s) = 3.49061 3.72736 3.61092
# Velocity P-wave (km/s) = 6.36528 6.58550 6.47633
#
# Compressibility (1/GPa) = 0.01925035
#
# Stress axis : x y z
#
# Youngs Moduli (GPa) = 61.42616 76.88843 112.89482
#
# Poissons Ratio (x) = 0.43871 0.21566
# Poissons Ratio (y) = 0.35048 0.20665
# Poissons Ratio (z) = 0.11734 0.14074
#
# Static dielectric constant tensor:
#      x y z
#    x 1.773940 0.000000 0.000000 
#    y 0.000000 1.869000 0.000000 
#    z 0.000000 0.000000 1.781560 
# 
# From -- ./inp_files/6947.got.cif
#   From: 2010.05.17/outbox.cif.g08.bks.cpg/sg45_4_cif.got.tgz:6947.got - 2010.06.03 19:51:22.
