data_PCOD9377025
_publ_section_title
;
Structure prediction by ZEFSAII (Michael W. Deem and Ramdas Pophale) SiO2 
 PCOD9377025
Probable space group: I B A 2
;
_chemical_formula_sum "Si O2"
_cell_formula_units_Z 56
_cell_length_a 13.289125
_cell_length_b 15.059497
_cell_length_c 13.235733
_cell_angle_alpha 90.000000
_cell_angle_beta 90.000000
_cell_angle_gamma 90.000000
_cell_volume 2648.834660
_symmetry_space_group_name_H-M "I B A 2"
_symmetry_group_IT_number 45
_symmetry_cell_setting 'orthorhombic'
loop_
_space_group_symop_operation_xyz
x,y,z
-x,-y,z
-x,y,1/2+z
x,-y,1/2+z
1/2+x,1/2+y,1/2+z
1/2-x,1/2-y,1/2+z
1/2-x,1/2+y,z
1/2+x,1/2-y,z
loop_
_atom_site_type_symbol
_atom_site_label
_atom_site_fract_x
_atom_site_fract_y
_atom_site_fract_z
Si Si1 0.196600 0.036103 0.868640
Si Si2 0.891143 0.958341 0.666091
Si Si3 0.731114 0.382032 0.080735
Si Si4 0.183924 0.857405 0.980900
Si Si5 0.082854 0.572641 0.789232
Si Si6 0.627759 0.801858 0.598556
Si Si7 0.574924 0.818911 0.985625
O O1 0.126394 0.071724 0.780009
O O2 0.310762 0.034307 0.828504
O O3 0.167819 0.937066 0.903358
O O4 0.190727 0.097319 0.967637
O O5 0.873872 0.882917 0.584001
O O6 0.807503 0.034640 0.644553
O O7 0.000000 0.000000 0.652484
O O8 0.684164 0.290840 0.121470
O O9 0.850467 0.371904 0.062155
O O10 0.299007 0.850567 0.017969
O O11 0.142500 0.763120 0.946265
O O12 0.109348 0.638138 0.696891
O O13 0.043550 0.624161 0.888711
O O14 0.000000 0.500000 0.759304
O O15 0.521688 0.786154 0.545347
#
# Coordination Sequence:
#
# PCOD9377025 Si02
#       7
#     8   8   8   8   8   8   8
#     4  10  22  41  64  92 127 170 213 273 324 393
#     4  11  22  38  64  93 121 169 216 268 326 398
#     4   9  23  42  60  91 132 162 217 268 325 383
#     4  10  22  43  65  91 132 167 215 274 330 385
#     4  11  24  40  66  99 127 173 224 263 329 394
#     4  11  22  42  64  94 130 171 213 271 319 398
#     4  10  23  42  63  96 130 174 211 271 327 389
#
# _framework density 21.141373999999999
#
# number of rings (size 3 to 8) (size 9 to 14) (size 15 to 20)
#    0.000    1.714    1.429    1.714    4.000    5.143 
#    2.571    0.000    0.000    0.000    0.000    0.000 
#    0.000    0.000    0.000    0.000    0.000    0.000 
#
# Total GULP energy -156475.442778 kJ/mol
# GULP energy per Si atom -5588.408671 kJ/mol
# Density = 2.109326 g / cm^3
# Si number density = 21.141374 Si / 1000 Ang^3
#
#
#
# Elastic Constant Matrix: (Units=GPa)
#
#
# Indices 1 2 3 4 5 6 
#
# 1 61.0688 5.0524 10.6381 0.0000 0.0000 0.0000
# 2 5.0524 52.7348 14.9896 0.0000 0.0000 0.0000
# 3 10.6381 14.9896 66.6628 0.0000 0.0000 0.0000
# 4 0.0000 0.0000 0.0000 14.7014 0.0000 0.0000
# 5 0.0000 0.0000 0.0000 0.0000 13.6010 0.0000
# 6 0.0000 0.0000 0.0000 0.0000 0.0000 28.5342
#
#
#
# Elastic Compliance Matrix: (Units=1/GPa)
#
#
# Indices 1 2 3 4 5 6 
#
# 1 0.016884 -0.000910 -0.002490 0.000000 0.000000 0.000000
# 2 -0.000910 0.020307 -0.004421 0.000000 0.000000 0.000000
# 3 -0.002490 -0.004421 0.016392 0.000000 0.000000 0.000000
# 4 0.000000 0.000000 0.000000 0.068021 0.000000 0.000000
# 5 0.000000 0.000000 0.000000 0.000000 0.073524 0.000000
# 6 0.000000 0.000000 0.000000 0.000000 0.000000 0.035046
#
#
# Mechanical properties :
#
#
# Convention : Reuss Voigt Hill
#
# Bulk Modulus (GPa) = 26.35622 26.86964 26.61293
# Shear Modulus (GPa) = 19.34526 21.35309 20.34918
#
# Velocity S-wave (km/s) = 3.02825 3.18152 3.10583
# Velocity P-wave (km/s) = 4.97200 5.12183 5.04747
#
# Compressibility (1/GPa) = 0.03794171
#
# Stress axis : x y z
#
# Youngs Moduli (GPa) = 59.22773 49.24511 61.00445
#
# Poissons Ratio (x) = 0.04481 0.15189
# Poissons Ratio (y) = 0.05389 0.26969
# Poissons Ratio (z) = 0.14746 0.21771
#
# Static dielectric constant tensor:
#      x y z
#    x 1.746600 0.000000 0.000000 
#    y 0.000000 1.769220 0.000000 
#    z 0.000000 0.000000 1.751650 
# 
# From -- ./inp_files/6168.got.cif
#   From: 2010.05.17/outbox.cif.g08.bks.cpg/sg45_4_cif.got.tgz:6168.got - 2010.06.03 19:51:22.
