data_PCOD9377268
_publ_section_title
;
Structure prediction by ZEFSAII (Michael W. Deem and Ramdas Pophale) SiO2 
 PCOD9377268
Probable space group: I B A 2
;
_chemical_formula_sum "Si O2"
_cell_formula_units_Z 28
_cell_length_a 7.550346
_cell_length_b 9.498427
_cell_length_c 14.601644
_cell_angle_alpha 90.000000
_cell_angle_beta 90.000000
_cell_angle_gamma 90.000000
_cell_volume 1047.177492
_symmetry_space_group_name_H-M "I B A 2"
_symmetry_group_IT_number 45
_symmetry_cell_setting 'orthorhombic'
loop_
_space_group_symop_operation_xyz
x,y,z
-x,-y,z
-x,y,1/2+z
x,-y,1/2+z
1/2+x,1/2+y,1/2+z
1/2-x,1/2-y,1/2+z
1/2-x,1/2+y,z
1/2+x,1/2-y,z
loop_
_atom_site_type_symbol
_atom_site_label
_atom_site_fract_x
_atom_site_fract_y
_atom_site_fract_z
Si Si1 0.335575 0.610397 0.355270
Si Si2 0.825594 0.437635 0.173282
Si Si3 0.000000 0.000000 0.578981
Si Si4 0.198321 0.378097 0.476688
O O1 0.500000 0.500000 0.343626
O O2 0.268108 0.647509 0.253589
O O3 0.197945 0.523338 0.419593
O O4 0.351499 0.756452 0.408095
O O5 0.668735 0.543842 0.139602
O O6 0.000000 0.500000 0.216906
O O7 0.891229 0.373111 0.076695
O O8 0.903187 0.114729 0.515666
#
# Coordination Sequence:
#
# PCOD9377268 Si02
#       4
#     8   8   4   8
#     4  12  24  49  81 118 164 216 271 346 414 496
#     4  10  23  48  80 120 156 216 274 336 410 493
#     4   8  20  54  76 110 166 204 264 346 396 484
#     4  10  25  47  80 112 166 213 267 343 415 477
#
# _framework density 26.738544000000001
#
# number of rings (size 3 to 8) (size 9 to 14) (size 15 to 20)
#    1.714    0.000    2.857    0.000    0.000    8.000 
#    0.000    0.000    3.143    0.000    0.000    0.000 
#    0.000    0.000    0.000    0.000    0.000    0.000 
#
# Total GULP energy -77967.736456 kJ/mol
# GULP energy per Si atom -5569.124033 kJ/mol
# Density = 2.667769 g / cm^3
# Si number density = 26.738544 Si / 1000 Ang^3
#
#
#
# Elastic Constant Matrix: (Units=GPa)
#
#
# Indices 1 2 3 4 5 6 
#
# 1 105.6391 5.1756 4.7797 0.0000 0.0000 0.0000
# 2 5.1756 106.3003 42.7978 0.0000 0.0000 0.0000
# 3 4.7797 42.7978 203.6460 0.0000 0.0000 0.0000
# 4 0.0000 0.0000 0.0000 18.8610 0.0000 0.0000
# 5 0.0000 0.0000 0.0000 0.0000 21.3464 0.0000
# 6 0.0000 0.0000 0.0000 0.0000 0.0000 23.6870
#
#
#
# Elastic Compliance Matrix: (Units=1/GPa)
#
#
# Indices 1 2 3 4 5 6 
#
# 1 0.009492 -0.000407 -0.000137 0.000000 0.000000 0.000000
# 2 -0.000407 0.010294 -0.002154 0.000000 0.000000 0.000000
# 3 -0.000137 -0.002154 0.005366 0.000000 0.000000 0.000000
# 4 0.000000 0.000000 0.000000 0.053019 0.000000 0.000000
# 5 0.000000 0.000000 0.000000 0.000000 0.046846 0.000000
# 6 0.000000 0.000000 0.000000 0.000000 0.000000 0.042217
#
#
# Mechanical properties :
#
#
# Convention : Reuss Voigt Hill
#
# Bulk Modulus (GPa) = 50.61525 57.89907 54.25716
# Shear Modulus (GPa) = 27.89902 36.96770 32.43336
#
# Velocity S-wave (km/s) = 3.23368 3.72232 3.48657
# Velocity P-wave (km/s) = 5.73699 6.33837 6.04516
#
# Compressibility (1/GPa) = 0.01975689
#
# Stress axis : x y z
#
# Youngs Moduli (GPa) = 105.34814 97.14108 186.34608
#
# Poissons Ratio (x) = 0.03953 0.02558
# Poissons Ratio (y) = 0.04287 0.40137
# Poissons Ratio (z) = 0.01446 0.20923
#
# Static dielectric constant tensor:
#      x y z
#    x 2.240650 0.000000 0.000000 
#    y 0.000000 2.885040 0.000000 
#    z 0.000000 0.000000 2.161330 
# 
# From -- ./inp_files/7403.got.cif
#   From: 2010.05.17/outbox.cif.g08.bks.cpg/sg45_4_cif.got.tgz:7403.got - 2010.06.03 19:51:22.
