data_PCOD9377960
_publ_section_title
;
Structure prediction by ZEFSAII (Michael W. Deem and Ramdas Pophale) SiO2 
 PCOD9377960
Probable space group: I M A 2
;
_chemical_formula_sum "Si O2"
_cell_formula_units_Z 64
_cell_length_a 8.315041
_cell_length_b 19.416689
_cell_length_c 22.125692
_cell_angle_alpha 90.000000
_cell_angle_beta 90.000000
_cell_angle_gamma 90.000000
_cell_volume 3572.205477
_symmetry_space_group_name_H-M "I M A 2"
_symmetry_group_IT_number 46
_symmetry_cell_setting 'orthorhombic'
loop_
_space_group_symop_operation_xyz
x,y,z
-x,-y,z
1/2-x,y,z
1/2+x,-y,z
1/2+x,1/2+y,1/2+z
1/2-x,1/2-y,1/2+z
-x,1/2+y,1/2+z
x,1/2-y,1/2+z
loop_
_atom_site_type_symbol
_atom_site_label
_atom_site_fract_x
_atom_site_fract_y
_atom_site_fract_z
Si Si1 0.935798 0.574544 0.844650
Si Si2 0.059432 0.576983 0.174183
Si Si3 0.064583 0.682455 0.076626
Si Si4 0.441950 0.370533 0.301621
Si Si5 0.557643 0.426174 0.428718
Si Si6 0.445007 0.717683 0.481212
Si Si7 0.563094 0.926104 0.490375
Si Si8 0.054991 0.275430 0.852759
O O1 0.750000 0.575711 0.826641
O O2 0.945280 0.574895 0.917872
O O3 0.006413 0.650228 0.829387
O O4 0.000000 0.500000 0.824312
O O5 0.250000 0.576042 0.164659
O O6 0.991028 0.638417 0.131602
O O7 0.000000 0.500000 0.160299
O O8 0.020446 0.596089 0.243033
O O9 0.250000 0.697409 0.092398
O O10 0.994094 0.750315 0.044411
O O11 0.050761 0.629340 0.020921
O O12 0.250000 0.371556 0.294014
O O13 0.486641 0.411659 0.362228
O O14 0.494458 0.291267 0.313783
O O15 0.500000 0.500000 0.450987
O O16 0.750000 0.425660 0.423905
O O17 0.507734 0.361289 0.469689
O O18 0.250000 0.721661 0.481587
O O19 0.503599 0.759171 0.421782
O O20 0.750000 0.914746 0.507168
O O21 0.500000 0.000000 0.510873
O O22 0.250000 0.277968 0.852968
#
# Coordination Sequence:
#
# PCOD9377960 Si02
#       8
#     8   8   8   8   8   8   8   8
#     4   9  17  27  40  63  93 123 153 186 228 276
#     4  11  23  37  51  69  97 130 169 206 239 280
#     4  10  20  33  48  67  93 126 161 199 237 278
#     4  10  20  34  53  72  95 127 165 206 246 287
#     4  10  19  32  51  75 101 127 155 194 243 294
#     4   9  18  31  48  70  95 123 157 194 238 289
#     4  10  18  27  41  61  89 124 158 191 225 270
#     4   9  17  31  48  69  95 124 158 198 244 288
#
# _framework density 17.916103
#
# number of rings (size 3 to 8) (size 9 to 14) (size 15 to 20)
#    0.000    2.250    1.250    2.250    0.000    4.000 
#    0.000    0.000    0.000    0.000    0.000    0.875 
#    0.000    6.000    0.000    0.000    0.000    0.000 
#
# Total GULP energy -178276.095309 kJ/mol
# GULP energy per Si atom -5571.127978 kJ/mol
# Density = 1.787532 g / cm^3
# Si number density = 17.916103 Si / 1000 Ang^3
#
#
#
# Elastic Constant Matrix: (Units=GPa)
#
#
# Indices 1 2 3 4 5 6 
#
# 1 14.8752 8.3916 3.3786 0.0000 0.0000 0.0000
# 2 8.3916 140.4106 31.8622 0.0000 0.0000 0.0000
# 3 3.3786 31.8622 58.2864 0.0000 0.0000 0.0000
# 4 0.0000 0.0000 0.0000 20.3075 0.0000 0.0000
# 5 0.0000 0.0000 0.0000 0.0000 6.6298 0.0000
# 6 0.0000 0.0000 0.0000 0.0000 0.0000 20.5931
#
#
#
# Elastic Compliance Matrix: (Units=1/GPa)
#
#
# Indices 1 2 3 4 5 6 
#
# 1 0.069778 -0.003713 -0.002015 0.000000 0.000000 0.000000
# 2 -0.003713 0.008328 -0.004337 0.000000 0.000000 0.000000
# 3 -0.002015 -0.004337 0.019644 0.000000 0.000000 0.000000
# 4 0.000000 0.000000 0.000000 0.049243 0.000000 0.000000
# 5 0.000000 0.000000 0.000000 0.000000 0.150835 0.000000
# 6 0.000000 0.000000 0.000000 0.000000 0.000000 0.048560
#
#
# Mechanical properties :
#
#
# Convention : Reuss Voigt Hill
#
# Bulk Modulus (GPa) = 12.88329 33.42632 23.15481
# Shear Modulus (GPa) = 12.74235 20.83540 16.78887
#
# Velocity S-wave (km/s) = 2.66977 3.41389 3.06450
# Velocity P-wave (km/s) = 4.08780 5.85126 5.04714
#
# Compressibility (1/GPa) = 0.07761994
#
# Stress axis : x y z
#
# Youngs Moduli (GPa) = 14.33114 120.07532 50.90497
#
# Poissons Ratio (x) = 0.44584 0.10258
# Poissons Ratio (y) = 0.05321 0.22079
# Poissons Ratio (z) = 0.02888 0.52080
#
# Static dielectric constant tensor:
#      x y z
#    x 1.632710 0.000000 0.000000 
#    y 0.000000 1.686830 0.000000 
#    z 0.000000 0.000000 1.597730 
# 
# From -- ./inp_files/21446.got.cif
#   From: 2010.05.17/outbox.cif.g08.bks.cpg/sg46_11_cif.got.tgz:21446.got - 2010.06.03 19:58:25.
