data_PCOD9377777
_publ_section_title
;
Structure prediction by ZEFSAII (Michael W. Deem and Ramdas Pophale) SiO2 
 PCOD9377777
Probable space group: I M A 2
;
_chemical_formula_sum "Si O2"
_cell_formula_units_Z 48
_cell_length_a 18.647858
_cell_length_b 9.167340
_cell_length_c 12.723216
_cell_angle_alpha 90.000000
_cell_angle_beta 90.000000
_cell_angle_gamma 90.000000
_cell_volume 2175.049737
_symmetry_space_group_name_H-M "I M A 2"
_symmetry_group_IT_number 46
_symmetry_cell_setting 'orthorhombic'
loop_
_space_group_symop_operation_xyz
x,y,z
-x,-y,z
1/2-x,y,z
1/2+x,-y,z
1/2+x,1/2+y,1/2+z
1/2-x,1/2-y,1/2+z
-x,1/2+y,1/2+z
x,1/2-y,1/2+z
loop_
_atom_site_type_symbol
_atom_site_label
_atom_site_fract_x
_atom_site_fract_y
_atom_site_fract_z
Si Si1 0.334100 0.535640 0.695270
Si Si2 0.331699 0.931231 0.973405
Si Si3 0.120548 0.618598 0.032473
Si Si4 0.511411 0.831930 0.379504
Si Si5 0.169342 0.149158 0.399164
Si Si6 0.094783 0.659452 0.264566
O O1 0.250000 0.564768 0.680460
O O2 0.362661 0.493569 0.579187
O O3 0.338564 0.407305 0.779479
O O4 0.366541 0.682031 0.746968
O O5 0.250000 0.974799 0.953697
O O6 0.372608 0.927584 0.862909
O O7 0.334229 0.764271 0.014619
O O8 0.105050 0.583731 0.153249
O O9 0.162182 0.491016 0.974278
O O10 0.045184 0.657265 0.975486
O O11 0.590375 0.784044 0.416512
O O12 0.483879 0.712383 0.297315
O O13 0.500000 0.000000 0.335890
O O14 0.250000 0.210707 0.412197
#
# Coordination Sequence:
#
# PCOD9377777 Si02
#       6
#     8   8   8   8   8   8
#     4   9  15  22  35  59  89 113 139 172 208 260
#     4   9  15  22  34  58  91 118 137 165 213 265
#     4   9  17  25  40  64  88 115 147 183 219 260
#     4   9  16  29  43  64  87 120 146 184 222 260
#     4  10  17  28  45  67  89 115 147 182 227 266
#     4  10  16  25  40  62  89 121 147 175 218 263
#
# _framework density 22.068460999999999
#
# number of rings (size 3 to 8) (size 9 to 14) (size 15 to 20)
#    0.000    2.667    5.000    1.000    0.000    2.000 
#    0.000    0.000    0.000    1.000   39.000    0.000 
#    0.000    0.000    0.000    0.000    0.000    0.000 
#
# Total GULP energy -133607.731254 kJ/mol
# GULP energy per Si atom -5566.988802 kJ/mol
# Density = 2.201823 g / cm^3
# Si number density = 22.068461 Si / 1000 Ang^3
#
#
#
# Elastic Constant Matrix: (Units=GPa)
#
#
# Indices 1 2 3 4 5 6 
#
# 1 124.8547 17.1950 25.9765 0.0000 0.0000 0.0000
# 2 17.1950 38.1202 27.5020 0.0000 0.0000 0.0000
# 3 25.9765 27.5020 156.1532 0.0000 0.0000 0.0000
# 4 0.0000 0.0000 0.0000 0.4374 0.0000 0.0000
# 5 0.0000 0.0000 0.0000 0.0000 16.2624 0.0000
# 6 0.0000 0.0000 0.0000 0.0000 0.0000 -8.0781
#
#
#
# Elastic Compliance Matrix: (Units=1/GPa)
#
#
# Indices 1 2 3 4 5 6 
#
# 1 0.008640 -0.003276 -0.000860 0.000000 0.000000 0.000000
# 2 -0.003276 0.031294 -0.004966 0.000000 0.000000 0.000000
# 3 -0.000860 -0.004966 0.007422 0.000000 0.000000 0.000000
# 4 0.000000 0.000000 0.000000 2.286375 0.000000 0.000000
# 5 0.000000 0.000000 0.000000 0.000000 0.061492 0.000000
# 6 0.000000 0.000000 0.000000 0.000000 0.000000 -0.123792
#
#
# Mechanical properties :
#
#
# Convention : Reuss Voigt Hill
#
# Bulk Modulus (GPa) = 34.30664 51.16391 42.73528
# Shear Modulus (GPa) = 2.17453 18.28798 10.23125
#
# Velocity S-wave (km/s) = 0.99373 2.88183 2.15551
# Velocity P-wave (km/s) = 4.11047 5.85728 5.05983
#
# Compressibility (1/GPa) = 0.02914887
#
# Stress axis : x y z
#
# Youngs Moduli (GPa) = 115.74739 31.95517 134.73893
#
# Poissons Ratio (x) = 0.10470 0.11589
# Poissons Ratio (y) = 0.37925 0.66918
# Poissons Ratio (z) = 0.09956 0.15870
#
# Static dielectric constant tensor:
#      x y z
#    x 1.858610 0.000000 0.000000 
#    y 0.000000 1.872120 0.000000 
#    z 0.000000 0.000000 1.870590 
# 
# From -- ./inp_files/11847.got.cif
#   From: 2010.05.17/outbox.cif.g08.bks.cpg/sg46_6_cif.got.tgz:11847.got - 2010.06.03 19:58:25.
