data_PCOD9377749
_publ_section_title
;
Structure prediction by ZEFSAII (Michael W. Deem and Ramdas Pophale) SiO2 
 PCOD9377749
Probable space group: I B A 2
;
_chemical_formula_sum "Si O2"
_cell_formula_units_Z 24
_cell_length_a 15.000000
_cell_length_b 9.000000
_cell_length_c 18.000000
_cell_angle_alpha 90.000000
_cell_angle_beta 90.000000
_cell_angle_gamma 90.000000
_cell_volume 2430.000000
_symmetry_space_group_name_H-M "I B A 2"
_symmetry_group_IT_number 45
_symmetry_cell_setting 'orthorhombic'
loop_
_space_group_symop_operation_xyz
x,y,z
-x,-y,z
-x,y,1/2+z
x,-y,1/2+z
1/2+x,1/2+y,1/2+z
1/2-x,1/2-y,1/2+z
1/2-x,1/2+y,z
1/2+x,1/2-y,z
loop_
_atom_site_type_symbol
_atom_site_label
_atom_site_fract_x
_atom_site_fract_y
_atom_site_fract_z
Si Si1 0.273833 0.965532 0.885970
Si Si2 0.360254 0.264012 0.808767
Si Si3 0.801057 0.884917 0.551816
Si Si4 0.146607 0.805351 0.631489
Si Si5 0.982285 0.682665 0.545449
Si Si6 0.036331 0.331367 0.880033
O O1 0.188612 0.909658 0.840306
O O2 0.357205 0.851337 0.870885
O O3 0.312432 0.123923 0.853885
O O4 0.239313 0.948661 0.972334
O O5 0.346917 0.271917 0.719839
O O6 0.466380 0.255777 0.827640
O O7 0.718867 0.800427 0.590845
O O8 0.883020 0.761245 0.546659
O O9 0.832964 0.026530 0.601760
O O10 0.047555 0.758760 0.604780
O O11 0.000000 0.500000 0.552656
O O12 0.019074 0.721674 0.463732
O O13 0.000000 0.500000 0.875572
#
# Coordination Sequence:
#
# PCOD9377749 Si02
#       6
#     8   8   8   8   8   8
#     4  11  22  42  70  97 133 184 235 282 349 433
#     4  11  24  43  65 100 138 177 229 293 355 416
#     4  12  24  43  72 104 143 189 242 293 353 445
#     4  12  26  42  67 105 143 182 234 300 366 420
#     4  11  23  43  71 101 136 185 237 292 354 427
#     4   9  20  39  67  95 128 175 229 277 343 422
#
# _framework density 9.8765429999999999
#
# number of rings (size 3 to 8) (size 9 to 14) (size 15 to 20)
#    0.000    1.000    3.333    3.500    2.333    3.333 
#    0.000    2.500    0.000    0.000    0.000    0.000 
#    0.000    0.000    0.000    0.000    0.000    0.000 
#
# Total GULP energy -133847.761884 kJ/mol
# GULP energy per Si atom -5576.990078 kJ/mol
# Density = 0.985406 g / cm^3
# Si number density = 9.876543 Si / 1000 Ang^3
#
#
#
# Elastic Constant Matrix: (Units=GPa)
#
#
# Indices 1 2 3 4 5 6 
#
# 1 105.7403 13.9170 26.7161 0.0000 0.0000 0.0000
# 2 13.9170 79.6989 25.3532 0.0000 0.0000 0.0000
# 3 26.7161 25.3532 138.9516 0.0000 0.0000 0.0000
# 4 0.0000 0.0000 0.0000 29.6970 0.0000 0.0000
# 5 0.0000 0.0000 0.0000 0.0000 36.9683 0.0000
# 6 0.0000 0.0000 0.0000 0.0000 0.0000 42.9468
#
#
#
# Elastic Compliance Matrix: (Units=1/GPa)
#
#
# Indices 1 2 3 4 5 6 
#
# 1 0.010049 -0.001210 -0.001711 0.000000 0.000000 0.000000
# 2 -0.001210 0.013466 -0.002224 0.000000 0.000000 0.000000
# 3 -0.001711 -0.002224 0.007932 0.000000 0.000000 0.000000
# 4 0.000000 0.000000 0.000000 0.033673 0.000000 0.000000
# 5 0.000000 0.000000 0.000000 0.000000 0.027050 0.000000
# 6 0.000000 0.000000 0.000000 0.000000 0.000000 0.023285
#
#
# Mechanical properties :
#
#
# Convention : Reuss Voigt Hill
#
# Bulk Modulus (GPa) = 47.27073 50.70706 48.98890
# Shear Modulus (GPa) = 37.65109 39.14938 38.40023
#
# Velocity S-wave (km/s) = 4.37061 4.45673 4.41388
# Velocity P-wave (km/s) = 7.03224 7.22561 7.12958
#
# Compressibility (1/GPa) = 0.02115474
#
# Stress axis : x y z
#
# Youngs Moduli (GPa) = 99.51450 74.26014 126.07767
#
# Poissons Ratio (x) = 0.08988 0.21575
# Poissons Ratio (y) = 0.12045 0.28044
# Poissons Ratio (z) = 0.17029 0.16518
#
# Static dielectric constant tensor:
#      x y z
#    x 1.719000 0.000000 0.000000 
#    y 0.000000 1.727140 0.000000 
#    z 0.000000 0.000000 1.708280 
# 
# From -- ./inp_files/7561.got.cif
#   From: 2010.05.17/outbox.ucp.g08.bks.cvg/sg45_4_cif.got.tgz:7561.got - 2010.06.11 16:34:12.
