data_PCOD9377359
_publ_section_title
;
Structure prediction by ZEFSAII (Michael W. Deem and Ramdas Pophale) SiO2 
 PCOD9377359
Probable space group: I B A 2
;
_chemical_formula_sum "Si O2"
_cell_formula_units_Z 48
_cell_length_a 13.386222
_cell_length_b 17.230265
_cell_length_c 9.638737
_cell_angle_alpha 90.000000
_cell_angle_beta 90.000000
_cell_angle_gamma 90.000000
_cell_volume 2223.156881
_symmetry_space_group_name_H-M "I B A 2"
_symmetry_group_IT_number 45
_symmetry_cell_setting 'orthorhombic'
loop_
_space_group_symop_operation_xyz
x,y,z
-x,-y,z
-x,y,1/2+z
x,-y,1/2+z
1/2+x,1/2+y,1/2+z
1/2-x,1/2-y,1/2+z
1/2-x,1/2+y,z
1/2+x,1/2-y,z
loop_
_atom_site_type_symbol
_atom_site_label
_atom_site_fract_x
_atom_site_fract_y
_atom_site_fract_z
Si Si1 0.941602 0.662750 0.389980
Si Si2 0.885372 0.079390 0.539864
Si Si3 0.000000 0.500000 0.765323
Si Si4 0.364223 0.257152 0.443035
Si Si5 0.000000 0.000000 0.790034
Si Si6 0.274352 0.754876 0.215873
Si Si7 0.675867 0.897018 0.135546
O O1 0.876371 0.714957 0.285874
O O2 0.887576 0.660222 0.537701
O O3 0.952625 0.573042 0.345626
O O4 0.051312 0.697456 0.403487
O O5 0.907429 0.170853 0.528743
O O6 0.928621 0.043574 0.399093
O O7 0.766407 0.064944 0.549904
O O8 0.935212 0.049800 0.681404
O O9 0.905015 0.541072 0.689258
O O10 0.284171 0.224324 0.553999
O O11 0.311224 0.293500 0.308919
O O12 0.239386 0.664083 0.230980
#
# Coordination Sequence:
#
# PCOD9377359 Si02
#       7
#     8   8   4   8   4   8   8
#     4  12  25  46  73 109 149 197 250 311 382 447
#     4  10  24  45  73 103 148 189 244 307 374 451
#     4  12  26  46  76 108 156 194 252 320 382 448
#     4  11  25  44  74 106 144 195 252 304 376 459
#     4  10  24  48  68 106 142 192 248 306 372 444
#     4  11  23  47  71 102 149 189 250 312 367 457
#     4  11  25  46  67 111 143 191 253 304 383 449
#
# _framework density 21.590917999999999
#
# number of rings (size 3 to 8) (size 9 to 14) (size 15 to 20)
#    0.000    1.000    5.000    1.500    7.000    0.000 
#    0.000    0.000    0.000    0.000    0.000    0.000 
#    0.000    0.000    0.000    0.000    0.000    0.000 
#
# Total GULP energy -133744.927113 kJ/mol
# GULP energy per Si atom -5572.705296 kJ/mol
# Density = 2.154178 g / cm^3
# Si number density = 21.590918 Si / 1000 Ang^3
#
#
#
# Elastic Constant Matrix: (Units=GPa)
#
#
# Indices 1 2 3 4 5 6 
#
# 1 123.2511 51.8378 41.0427 0.0000 0.0000 0.0000
# 2 51.8378 95.9920 45.8434 0.0000 0.0000 0.0000
# 3 41.0427 45.8434 98.8522 0.0000 0.0000 0.0000
# 4 0.0000 0.0000 0.0000 29.2322 0.0000 0.0000
# 5 0.0000 0.0000 0.0000 0.0000 34.9461 0.0000
# 6 0.0000 0.0000 0.0000 0.0000 0.0000 32.8291
#
#
#
# Elastic Compliance Matrix: (Units=1/GPa)
#
#
# Indices 1 2 3 4 5 6 
#
# 1 0.010892 -0.004781 -0.002305 0.000000 0.000000 0.000000
# 2 -0.004781 0.015480 -0.005194 0.000000 0.000000 0.000000
# 3 -0.002305 -0.005194 0.013482 0.000000 0.000000 0.000000
# 4 0.000000 0.000000 0.000000 0.034209 0.000000 0.000000
# 5 0.000000 0.000000 0.000000 0.000000 0.028615 0.000000
# 6 0.000000 0.000000 0.000000 0.000000 0.000000 0.030461
#
#
# Mechanical properties :
#
#
# Convention : Reuss Voigt Hill
#
# Bulk Modulus (GPa) = 65.38594 66.17146 65.77870
# Shear Modulus (GPa) = 30.71321 31.35958 31.03640
#
# Velocity S-wave (km/s) = 3.77570 3.81523 3.79552
# Velocity P-wave (km/s) = 7.02550 7.07971 7.05266
#
# Compressibility (1/GPa) = 0.01529381
#
# Stress axis : x y z
#
# Youngs Moduli (GPa) = 91.81105 64.60006 74.17403
#
# Poissons Ratio (x) = 0.30886 0.17097
# Poissons Ratio (y) = 0.43896 0.38525
# Poissons Ratio (z) = 0.21162 0.33552
#
# Static dielectric constant tensor:
#      x y z
#    x 1.820210 0.000000 0.000000 
#    y 0.000000 1.818070 0.000000 
#    z 0.000000 0.000000 1.858830 
# 
# From -- ./inp_files/1726.got.cif
#   From: 2010.05.17/outbox.cif.g08.bks.cpg/sg45_1_cif.got.tgz:1726.got - 2010.06.03 19:51:22.
