data_PCOD9377887
_publ_section_title
;
Structure prediction by ZEFSAII (Michael W. Deem and Ramdas Pophale) SiO2 
 PCOD9377887
Probable space group: I M A 2
;
_chemical_formula_sum "Si O2"
_cell_formula_units_Z 52
_cell_length_a 18.040087
_cell_length_b 17.051320
_cell_length_c 6.937476
_cell_angle_alpha 90.000000
_cell_angle_beta 90.000000
_cell_angle_gamma 90.000000
_cell_volume 2134.018235
_symmetry_space_group_name_H-M "I M A 2"
_symmetry_group_IT_number 46
_symmetry_cell_setting 'orthorhombic'
loop_
_space_group_symop_operation_xyz
x,y,z
-x,-y,z
1/2-x,y,z
1/2+x,-y,z
1/2+x,1/2+y,1/2+z
1/2-x,1/2-y,1/2+z
-x,1/2+y,1/2+z
x,1/2-y,1/2+z
loop_
_atom_site_type_symbol
_atom_site_label
_atom_site_fract_x
_atom_site_fract_y
_atom_site_fract_z
Si Si1 0.868403 0.138657 0.460570
Si Si2 0.829864 0.532266 0.964681
Si Si3 0.963445 0.860872 0.429381
Si Si4 0.868466 0.318111 0.408749
Si Si5 0.038167 0.317013 0.375006
Si Si6 0.750000 0.068396 0.089791
Si Si7 0.171245 0.076511 0.916020
O O1 0.847727 0.226157 0.396627
O O2 0.863981 0.145860 0.693993
O O3 0.951322 0.121505 0.385407
O O4 0.823687 0.060004 0.413355
O O5 0.750000 0.568838 0.913287
O O6 0.902058 0.574809 0.885182
O O7 0.836654 0.542023 0.197789
O O8 0.942167 0.774480 0.356253
O O9 0.966608 0.850665 0.660478
O O10 0.814784 0.364445 0.548454
O O11 0.955875 0.320168 0.464855
O O12 0.102312 0.369075 0.468208
O O13 0.813475 0.997868 0.049217
O O14 0.250000 0.122419 0.915115
#
# Coordination Sequence:
#
# PCOD9377887 Si02
#       7
#     8   8   8   8   8   4   8
#     4  10  19  34  51  75 100 132 163 204 245 290
#     4  10  17  30  51  76  98 129 167 206 241 289
#     4   9  19  32  53  74  99 128 168 202 243 293
#     4  10  20  31  53  74 103 129 165 204 245 297
#     4   9  18  33  51  77  98 131 163 203 250 288
#     4  10  18  32  48  78 100 128 166 206 246 284
#     4   8  16  30  50  73 100 122 166 205 240 280
#
# _framework density 24.367177000000002
#
# number of rings (size 3 to 8) (size 9 to 14) (size 15 to 20)
#    0.462    2.154    1.538    0.462    1.077    1.231 
#    0.000    0.000    3.385    0.000    0.000    0.000 
#    0.000    0.000    0.000    0.000    0.000    0.000 
#
# Total GULP energy -144819.280359 kJ/mol
# GULP energy per Si atom -5569.972322 kJ/mol
# Density = 2.431172 g / cm^3
# Si number density = 24.367177 Si / 1000 Ang^3
#
#
#
# Elastic Constant Matrix: (Units=GPa)
#
#
# Indices 1 2 3 4 5 6 
#
# 1 136.8427 99.8220 -8.1661 0.0000 0.0000 0.0000
# 2 99.8220 130.2962 -10.1328 0.0000 0.0000 0.0000
# 3 -8.1661 -10.1328 74.3395 0.0000 0.0000 0.0000
# 4 0.0000 0.0000 0.0000 35.7413 0.0000 0.0000
# 5 0.0000 0.0000 0.0000 0.0000 18.4426 0.0000
# 6 0.0000 0.0000 0.0000 0.0000 0.0000 49.1841
#
#
#
# Elastic Compliance Matrix: (Units=1/GPa)
#
#
# Indices 1 2 3 4 5 6 
#
# 1 0.016566 -0.012684 0.000091 0.000000 0.000000 0.000000
# 2 -0.012684 0.017469 0.000988 0.000000 0.000000 0.000000
# 3 0.000091 0.000988 0.013596 0.000000 0.000000 0.000000
# 4 0.000000 0.000000 0.000000 0.027979 0.000000 0.000000
# 5 0.000000 0.000000 0.000000 0.000000 0.054222 0.000000
# 6 0.000000 0.000000 0.000000 0.000000 0.000000 0.020332
#
#
# Mechanical properties :
#
#
# Convention : Reuss Voigt Hill
#
# Bulk Modulus (GPa) = 40.94978 56.05827 48.50402
# Shear Modulus (GPa) = 27.54581 38.00395 32.77488
#
# Velocity S-wave (km/s) = 3.36586 3.95351 3.67146
# Velocity P-wave (km/s) = 5.65218 6.62540 6.15804
#
# Compressibility (1/GPa) = 0.02442015
#
# Stress axis : x y z
#
# Youngs Moduli (GPa) = 60.36532 57.24347 73.54879
#
# Poissons Ratio (x) = 0.72609 -0.00668
# Poissons Ratio (y) = 0.76569 -0.07265
# Poissons Ratio (z) = -0.00548 -0.05654
#
# Static dielectric constant tensor:
#      x y z
#    x 1.787280 0.000000 0.000000 
#    y 0.000000 1.856220 0.000000 
#    z 0.000000 0.000000 2.126510 
# 
# From -- ./inp_files/11873.got.cif
#   From: 2010.05.17/outbox.cif.g08.bks.cpg/sg46_6_cif.got.tgz:11873.got - 2010.06.03 19:58:25.
