data_PCOD9377251
_publ_section_title
;
Structure prediction by ZEFSAII (Michael W. Deem and Ramdas Pophale) SiO2 
 PCOD9377251
Probable space group: I B A 2
;
_chemical_formula_sum "Si O2"
_cell_formula_units_Z 44
_cell_length_a 13.660379
_cell_length_b 5.341696
_cell_length_c 25.327229
_cell_angle_alpha 90.000000
_cell_angle_beta 90.000000
_cell_angle_gamma 90.000000
_cell_volume 1848.117563
_symmetry_space_group_name_H-M "I B A 2"
_symmetry_group_IT_number 45
_symmetry_cell_setting 'orthorhombic'
loop_
_space_group_symop_operation_xyz
x,y,z
-x,-y,z
-x,y,1/2+z
x,-y,1/2+z
1/2+x,1/2+y,1/2+z
1/2-x,1/2-y,1/2+z
1/2-x,1/2+y,z
1/2+x,1/2-y,z
loop_
_atom_site_type_symbol
_atom_site_label
_atom_site_fract_x
_atom_site_fract_y
_atom_site_fract_z
Si Si1 0.299399 0.492789 0.885720
Si Si2 0.305471 0.576746 0.512047
Si Si3 0.876025 0.235547 0.656117
Si Si4 0.937274 0.757532 0.807354
Si Si5 0.656013 0.766358 0.201885
Si Si6 0.000000 0.000000 0.066772
O O1 0.283498 0.201366 0.869434
O O2 0.392314 0.636798 0.861893
O O3 0.304038 0.463505 0.948904
O O4 0.242390 0.814997 0.531030
O O5 0.415590 0.622535 0.531421
O O6 0.757182 0.242072 0.668232
O O7 0.901074 0.497207 0.681034
O O8 0.934692 0.188927 0.602233
O O9 0.897516 0.985417 0.687499
O O10 0.847791 0.717185 0.765310
O O11 0.000000 0.500000 0.810695
O O12 0.000000 0.000000 0.789537
#
# Coordination Sequence:
#
# PCOD9377251 Si02
#       6
#     8   8   8   8   8   4
#     4  10  23  46  73 104 144 192 244 304 384 453
#     4  10  26  49  74 110 151 190 246 312 379 451
#     4  10  25  42  69  96 133 188 246 291 363 434
#     4  12  26  41  71 108 147 195 250 305 381 454
#     4  10  24  45  62  96 145 184 233 305 360 437
#     4  12  28  46  82 106 142 206 252 316 378 444
#
# _framework density 23.808011
#
# number of rings (size 3 to 8) (size 9 to 14) (size 15 to 20)
#    0.000    1.455    0.000    2.182   15.273    2.182 
#    0.000    0.000    0.000    0.000    0.000    0.000 
#    0.000    0.000    0.000    0.000    0.000    0.000 
#
# Total GULP energy -122472.364446 kJ/mol
# GULP energy per Si atom -5566.925657 kJ/mol
# Density = 2.375382 g / cm^3
# Si number density = 23.808011 Si / 1000 Ang^3
#
#
#
# Elastic Constant Matrix: (Units=GPa)
#
#
# Indices 1 2 3 4 5 6 
#
# 1 160.5335 39.3584 37.1296 0.0000 0.0000 0.0000
# 2 39.3584 197.7372 28.2414 0.0000 0.0000 0.0000
# 3 37.1296 28.2414 40.6130 0.0000 0.0000 0.0000
# 4 0.0000 0.0000 0.0000 -25.4666 0.0000 0.0000
# 5 0.0000 0.0000 0.0000 0.0000 72.0349 0.0000
# 6 0.0000 0.0000 0.0000 0.0000 0.0000 -32.0508
#
#
#
# Elastic Compliance Matrix: (Units=1/GPa)
#
#
# Indices 1 2 3 4 5 6 
#
# 1 0.007964 -0.000605 -0.006860 0.000000 0.000000 0.000000
# 2 -0.000605 0.005661 -0.003383 0.000000 0.000000 0.000000
# 3 -0.006860 -0.003383 0.033247 0.000000 0.000000 0.000000
# 4 0.000000 0.000000 0.000000 -0.039267 0.000000 0.000000
# 5 0.000000 0.000000 0.000000 0.000000 0.013882 0.000000
# 6 0.000000 0.000000 0.000000 0.000000 0.000000 -0.031201
#
#
# Mechanical properties :
#
#
# Convention : Reuss Voigt Hill
#
# Bulk Modulus (GPa) = 39.72206 67.59363 53.65784
# Shear Modulus (GPa) = 245.38938 22.51378 133.95158
#
# Velocity S-wave (km/s) = 10.16336 3.07846 7.50902
# Velocity P-wave (km/s) = 12.42762 6.41004 9.88773
#
# Compressibility (1/GPa) = 0.02517493
#
# Stress axis : x y z
#
# Youngs Moduli (GPa) = 125.55919 176.65057 30.07792
#
# Poissons Ratio (x) = 0.10695 0.20634
# Poissons Ratio (y) = 0.07602 0.10175
# Poissons Ratio (z) = 0.86137 0.59760
#
# Static dielectric constant tensor:
#      x y z
#    x 1.846960 0.000000 0.000000 
#    y 0.000000 1.895410 0.000000 
#    z 0.000000 0.000000 1.938920 
# 
# From -- ./inp_files/10052.got.cif
#   From: 2010.05.17/outbox.cif.g08.bks.cpg/sg45_6_cif.got.tgz:10052.got - 2010.06.03 19:51:22.
