data_PCOD9377574
_publ_section_title
;
Structure prediction by ZEFSAII (Michael W. Deem and Ramdas Pophale) SiO2 
 PCOD9377574
Probable space group: I B A 2
;
_chemical_formula_sum "Si O2"
_cell_formula_units_Z 48
_cell_length_a 5.388008
_cell_length_b 30.985711
_cell_length_c 13.510180
_cell_angle_alpha 90.000000
_cell_angle_beta 90.000000
_cell_angle_gamma 90.000000
_cell_volume 2255.541557
_symmetry_space_group_name_H-M "I B A 2"
_symmetry_group_IT_number 45
_symmetry_cell_setting 'orthorhombic'
loop_
_space_group_symop_operation_xyz
x,y,z
-x,-y,z
-x,y,1/2+z
x,-y,1/2+z
1/2+x,1/2+y,1/2+z
1/2-x,1/2-y,1/2+z
1/2-x,1/2+y,z
1/2+x,1/2-y,z
loop_
_atom_site_type_symbol
_atom_site_label
_atom_site_fract_x
_atom_site_fract_y
_atom_site_fract_z
Si Si1 0.500000 0.000000 0.226450
Si Si2 0.191333 0.557152 0.899562
Si Si3 0.711275 0.344057 0.916585
Si Si4 0.760356 0.778225 0.734281
Si Si5 0.000000 0.000000 0.547589
Si Si6 0.790890 0.339646 0.547756
Si Si7 0.110837 0.435376 0.088460
O O1 0.662266 0.027279 0.305422
O O2 0.407512 0.041079 0.158044
O O3 0.263683 0.606444 0.880163
O O4 0.375459 0.533935 0.973667
O O5 0.949638 0.559511 0.971689
O O6 0.720181 0.311885 0.824542
O O7 0.452806 0.340788 0.977624
O O8 0.952332 0.334352 0.986035
O O9 0.504714 0.751478 0.740772
O O10 0.750220 0.803441 0.630148
O O11 0.172461 0.031176 0.610422
O O12 0.826528 0.385899 0.602700
#
# Coordination Sequence:
#
# PCOD9377574 Si02
#       7
#     4   8   8   8   4   8   8
#     4  12  20  38  60  90 130 184 226 276 344 380
#     4  11  23  40  60  93 138 174 231 280 324 401
#     4  11  25  46  72 101 143 189 226 291 361 414
#     4  12  27  48  74 108 138 170 240 297 350 446
#     4  12  18  42  60  90 130 180 218 290 298 396
#     4  11  25  46  72 101 143 189 226 291 361 414
#     4  11  23  40  60  93 138 174 231 280 324 401
#
# _framework density 21.280922
#
# number of rings (size 3 to 8) (size 9 to 14) (size 15 to 20)
#    0.000    0.667    5.000    3.000    0.000    4.667 
#    0.000    5.000    0.000    0.000    0.000    0.000 
#    0.000    0.000    0.000    0.000    0.000    0.000 
#
# Total GULP energy -133859.374767 kJ/mol
# GULP energy per Si atom -5577.473949 kJ/mol
# Density = 2.123249 g / cm^3
# Si number density = 21.280922 Si / 1000 Ang^3
#
#
#
# Elastic Constant Matrix: (Units=GPa)
#
#
# Indices 1 2 3 4 5 6 
#
# 1 115.5668 49.8882 36.4629 0.0000 0.0000 0.0000
# 2 49.8882 131.1777 59.2171 -0.0001 0.0000 0.0000
# 3 36.4629 59.2171 106.1272 -0.0001 0.0000 0.0000
# 4 0.0000 -0.0001 -0.0001 3.7573 0.0000 0.0000
# 5 0.0000 0.0000 0.0000 0.0000 16.8290 0.0000
# 6 0.0000 0.0000 0.0000 0.0000 0.0000 31.7070
#
#
#
# Elastic Compliance Matrix: (Units=1/GPa)
#
#
# Indices 1 2 3 4 5 6 
#
# 1 0.010622 -0.003198 -0.001865 0.000000 0.000000 0.000000
# 2 -0.003198 0.011153 -0.005124 0.000000 0.000000 0.000000
# 3 -0.001865 -0.005124 0.012923 0.000000 0.000000 0.000000
# 4 0.000000 0.000000 0.000000 0.266147 0.000000 0.000000
# 5 0.000000 0.000000 0.000000 0.000000 0.059421 0.000000
# 6 0.000000 0.000000 0.000000 0.000000 0.000000 0.031539
#
#
# Mechanical properties :
#
#
# Convention : Reuss Voigt Hill
#
# Bulk Modulus (GPa) = 69.81808 71.55646 70.68727
# Shear Modulus (GPa) = 11.99177 24.27891 18.13534
#
# Velocity S-wave (km/s) = 2.37639 3.38135 2.92239
# Velocity P-wave (km/s) = 6.35678 6.99589 6.68398
#
# Compressibility (1/GPa) = 0.01432294
#
# Stress axis : x y z
#
# Youngs Moduli (GPa) = 94.14553 89.66540 77.38271
#
# Poissons Ratio (x) = 0.28671 0.14434
# Poissons Ratio (y) = 0.30104 0.39653
# Poissons Ratio (z) = 0.17560 0.45947
#
# Static dielectric constant tensor:
#      x y z
#    x 2.080310 0.000000 0.000000 
#    y 0.000000 1.858430 0.000000 
#    z 0.000000 0.000000 1.979560 
# 
# From -- ./inp_files/5192.got.cif
#   From: 2010.05.17/outbox.cif.g08.bks.cpg/sg45_3_cif.got.tgz:5192.got - 2010.06.03 19:51:22.
