data_PCOD9377217
_publ_section_title
;
Structure prediction by ZEFSAII (Michael W. Deem and Ramdas Pophale) SiO2 
 PCOD9377217
Probable space group: I B A 2
;
_chemical_formula_sum "Si O2"
_cell_formula_units_Z 48
_cell_length_a 5.721232
_cell_length_b 26.248759
_cell_length_c 13.293193
_cell_angle_alpha 90.000000
_cell_angle_beta 90.000000
_cell_angle_gamma 90.000000
_cell_volume 1996.308448
_symmetry_space_group_name_H-M "I B A 2"
_symmetry_group_IT_number 45
_symmetry_cell_setting 'orthorhombic'
loop_
_space_group_symop_operation_xyz
x,y,z
-x,-y,z
-x,y,1/2+z
x,-y,1/2+z
1/2+x,1/2+y,1/2+z
1/2-x,1/2-y,1/2+z
1/2-x,1/2+y,z
1/2+x,1/2-y,z
loop_
_atom_site_type_symbol
_atom_site_label
_atom_site_fract_x
_atom_site_fract_y
_atom_site_fract_z
Si Si1 0.633434 0.230411 0.150150
Si Si2 0.840826 0.950011 0.792667
Si Si3 0.167799 0.734845 0.417949
Si Si4 0.215572 0.878186 0.867888
Si Si5 0.020777 0.385951 0.167823
Si Si6 0.959894 0.445945 0.991758
O O1 0.381162 0.249219 0.193039
O O2 0.630356 0.169129 0.147077
O O3 0.634882 0.250276 0.034689
O O4 0.700990 0.931165 0.695259
O O5 0.685576 0.959479 0.891760
O O6 0.974411 0.899083 0.827570
O O7 0.000000 0.000000 0.775226
O O8 0.396162 0.766378 0.379108
O O9 0.269840 0.678018 0.409974
O O10 0.377587 0.880060 0.769840
O O11 0.310595 0.917698 0.950082
O O12 0.866378 0.405853 0.074048
O O13 0.000000 0.500000 0.041964
#
# Coordination Sequence:
#
# PCOD9377217 Si02
#       6
#     8   8   8   8   8   8
#     4  10  23  44  70 106 147 190 248 307 370 450
#     4  11  26  47  70 103 145 186 243 306 364 447
#     4  10  23  43  72 101 140 194 243 297 369 444
#     4  11  25  45  69 103 142 183 240 300 357 440
#     4  11  27  43  72 107 142 188 243 305 367 447
#     4  11  24  46  70  99 143 193 232 294 373 435
#
# _framework density 24.04438
#
# number of rings (size 3 to 8) (size 9 to 14) (size 15 to 20)
#    0.000    1.333    3.333    0.000    9.333    4.000 
#    0.000    0.000    0.000    0.000    0.000    0.000 
#    0.000    0.000    0.000    0.000    0.000    0.000 
#
# Total GULP energy -133979.829143 kJ/mol
# GULP energy per Si atom -5582.492881 kJ/mol
# Density = 2.398965 g / cm^3
# Si number density = 24.044380 Si / 1000 Ang^3
#
#
#
# Elastic Constant Matrix: (Units=GPa)
#
#
# Indices 1 2 3 4 5 6 
#
# 1 115.2411 38.9346 18.0707 0.0000 0.0000 0.0000
# 2 38.9346 138.1599 15.9335 0.0000 0.0000 0.0000
# 3 18.0707 15.9335 70.6503 0.0000 0.0000 0.0000
# 4 0.0000 0.0000 0.0000 34.3333 0.0000 0.0000
# 5 0.0000 0.0000 0.0000 0.0000 12.1643 0.0000
# 6 0.0000 0.0000 0.0000 0.0000 0.0000 41.9495
#
#
#
# Elastic Compliance Matrix: (Units=1/GPa)
#
#
# Indices 1 2 3 4 5 6 
#
# 1 0.009844 -0.002550 -0.001943 0.000000 0.000000 0.000000
# 2 -0.002550 0.008092 -0.001173 0.000000 0.000000 0.000000
# 3 -0.001943 -0.001173 0.014916 0.000000 0.000000 0.000000
# 4 0.000000 0.000000 0.000000 0.029126 0.000000 0.000000
# 5 0.000000 0.000000 0.000000 0.000000 0.082207 0.000000
# 6 0.000000 0.000000 0.000000 0.000000 0.000000 0.023838
#
#
# Mechanical properties :
#
#
# Convention : Reuss Voigt Hill
#
# Bulk Modulus (GPa) = 46.46767 52.21430 49.34098
# Shear Modulus (GPa) = 26.80576 34.43027 30.61801
#
# Velocity S-wave (km/s) = 3.34255 3.78821 3.57234
# Velocity P-wave (km/s) = 5.85360 6.39508 6.13032
#
# Compressibility (1/GPa) = 0.02152034
#
# Stress axis : x y z
#
# Youngs Moduli (GPa) = 101.58881 123.58137 67.04397
#
# Poissons Ratio (x) = 0.31513 0.13025
# Poissons Ratio (y) = 0.25905 0.07862
# Poissons Ratio (z) = 0.19735 0.14492
#
# Static dielectric constant tensor:
#      x y z
#    x 2.006400 0.000000 0.000000 
#    y 0.000000 2.069490 0.000000 
#    z 0.000000 0.000000 1.991510 
# 
# From -- ./inp_files/5179.got.cif
#   From: 2010.05.17/outbox.cif.g08.bks.cpg/sg45_3_cif.got.tgz:5179.got - 2010.06.03 19:51:22.
