data_PCOD9377740
_publ_section_title
;
Structure prediction by ZEFSAII (Michael W. Deem and Ramdas Pophale) SiO2 
 PCOD9377740
Probable space group: I B A 2
;
_chemical_formula_sum "Si O2"
_cell_formula_units_Z 24
_cell_length_a 9.000000
_cell_length_b 15.000000
_cell_length_c 18.000000
_cell_angle_alpha 90.000000
_cell_angle_beta 90.000000
_cell_angle_gamma 90.000000
_cell_volume 2430.000000
_symmetry_space_group_name_H-M "I B A 2"
_symmetry_group_IT_number 45
_symmetry_cell_setting 'orthorhombic'
loop_
_space_group_symop_operation_xyz
x,y,z
-x,-y,z
-x,y,1/2+z
x,-y,1/2+z
1/2+x,1/2+y,1/2+z
1/2-x,1/2-y,1/2+z
1/2-x,1/2+y,z
1/2+x,1/2-y,z
loop_
_atom_site_type_symbol
_atom_site_label
_atom_site_fract_x
_atom_site_fract_y
_atom_site_fract_z
Si Si1 0.247847 0.331044 0.465670
Si Si2 0.181106 0.472200 0.789906
Si Si3 0.792654 0.171001 0.290119
Si Si4 0.392678 0.323076 0.713933
Si Si5 0.550692 0.687846 0.046789
Si Si6 0.671335 0.529690 0.947487
O O1 0.242982 0.309809 0.376424
O O2 0.411436 0.306585 0.492207
O O3 0.143089 0.276523 0.523076
O O4 0.244359 0.439074 0.473045
O O5 0.255193 0.567913 0.777028
O O6 0.269153 0.401712 0.734275
O O7 0.235882 0.441126 0.873420
O O8 0.000000 0.500000 0.786541
O O9 0.701309 0.233710 0.233001
O O10 0.968542 0.178509 0.272094
O O11 0.476630 0.323486 0.631024
O O12 0.646705 0.603128 0.013283
O O13 0.500000 0.500000 0.926431
#
# Coordination Sequence:
#
# PCOD9377740 Si02
#       6
#     8   8   8   8   8   8
#     4  10  21  39  63  91 126 175 230 276 338 423
#     4  11  23  40  66  98 133 180 238 293 349 425
#     4  11  23  41  66  95 132 181 234 290 351 426
#     4  12  24  42  66 100 140 179 231 295 367 422
#     4  11  23  40  64  96 134 177 224 287 359 415
#     4   9  20  40  64  92 129 178 233 285 349 425
#
# _framework density 9.8765429999999999
#
# number of rings (size 3 to 8) (size 9 to 14) (size 15 to 20)
#    0.000    1.333    0.000    7.500    0.000    8.000 
#    0.000    0.000    0.000    9.000    0.000    0.000 
#    0.000    0.000    0.000    0.000    0.000    0.000 
#
# Total GULP energy -133610.358542 kJ/mol
# GULP energy per Si atom -5567.098273 kJ/mol
# Density = 0.985406 g / cm^3
# Si number density = 9.876543 Si / 1000 Ang^3
#
#
#
# Elastic Constant Matrix: (Units=GPa)
#
#
# Indices 1 2 3 4 5 6 
#
# 1 92.4733 34.8212 33.9635 0.0000 0.0000 0.0000
# 2 34.8212 128.2019 56.4037 0.0000 0.0000 0.0000
# 3 33.9635 56.4037 130.3164 0.0000 0.0000 0.0000
# 4 0.0000 0.0000 0.0000 34.5313 0.0000 0.0000
# 5 0.0000 0.0000 0.0000 0.0000 48.0479 0.0000
# 6 0.0000 0.0000 0.0000 0.0000 0.0000 48.5038
#
#
#
# Elastic Compliance Matrix: (Units=1/GPa)
#
#
# Indices 1 2 3 4 5 6 
#
# 1 0.012544 -0.002432 -0.002217 0.000000 0.000000 0.000000
# 2 -0.002432 0.010106 -0.003740 0.000000 0.000000 0.000000
# 3 -0.002217 -0.003740 0.009870 0.000000 0.000000 0.000000
# 4 0.000000 0.000000 0.000000 0.028959 0.000000 0.000000
# 5 0.000000 0.000000 0.000000 0.000000 0.020813 0.000000
# 6 0.000000 0.000000 0.000000 0.000000 0.000000 0.020617
#
#
# Mechanical properties :
#
#
# Convention : Reuss Voigt Hill
#
# Bulk Modulus (GPa) = 63.52203 66.81873 65.17038
# Shear Modulus (GPa) = 40.02096 41.27015 40.64556
#
# Velocity S-wave (km/s) = 4.50606 4.57585 4.54109
# Velocity P-wave (km/s) = 7.70069 7.86246 7.78199
#
# Compressibility (1/GPa) = 0.01574257
#
# Stress axis : x y z
#
# Youngs Moduli (GPa) = 79.72088 98.94766 101.31409
#
# Poissons Ratio (x) = 0.24062 0.22458
# Poissons Ratio (y) = 0.19386 0.37896
# Poissons Ratio (z) = 0.17671 0.37011
#
# Static dielectric constant tensor:
#      x y z
#    x 1.744650 0.000000 0.000000 
#    y 0.000000 1.755280 0.000000 
#    z 0.000000 0.000000 1.734280 
# 
# From -- ./inp_files/7568.got.cif
#   From: 2010.05.17/outbox.ucp.g08.bks.cvg/sg45_4_cif.got.tgz:7568.got - 2010.06.11 16:34:12.
