data_PCOD9377906
_publ_section_title
;
Structure prediction by ZEFSAII (Michael W. Deem and Ramdas Pophale) SiO2 
 PCOD9377906
Probable space group: I M A 2
;
_chemical_formula_sum "Si O2"
_cell_formula_units_Z 64
_cell_length_a 8.647538
_cell_length_b 31.187646
_cell_length_c 14.878717
_cell_angle_alpha 90.000000
_cell_angle_beta 90.000000
_cell_angle_gamma 90.000000
_cell_volume 4012.735726
_symmetry_space_group_name_H-M "I M A 2"
_symmetry_group_IT_number 46
_symmetry_cell_setting 'orthorhombic'
loop_
_space_group_symop_operation_xyz
x,y,z
-x,-y,z
1/2-x,y,z
1/2+x,-y,z
1/2+x,1/2+y,1/2+z
1/2-x,1/2-y,1/2+z
-x,1/2+y,1/2+z
x,1/2-y,1/2+z
loop_
_atom_site_type_symbol
_atom_site_label
_atom_site_fract_x
_atom_site_fract_y
_atom_site_fract_z
Si Si1 0.927405 0.684160 0.836200
Si Si2 0.567111 0.868065 0.520768
Si Si3 0.567542 0.629302 0.655832
Si Si4 0.062674 0.293923 0.148974
Si Si5 0.563082 0.791179 0.036646
Si Si6 0.936849 0.546656 0.932830
Si Si7 0.066435 0.953879 0.232093
Si Si8 0.570171 0.274534 0.340789
O O1 0.750000 0.701371 0.833268
O O2 0.946463 0.653564 0.751297
O O3 0.042759 0.723522 0.833706
O O4 0.944713 0.657913 0.927515
O O5 0.750000 0.873324 0.539955
O O6 0.504443 0.836341 0.596974
O O7 0.506552 0.915481 0.498708
O O8 0.750000 0.620765 0.641153
O O9 0.513162 0.664411 0.583444
O O10 0.479841 0.584601 0.666012
O O11 0.250000 0.293773 0.146571
O O12 0.013259 0.250632 0.095098
O O13 0.007728 0.293100 0.251202
O O14 0.750000 0.790624 0.037761
O O15 0.505561 0.787972 0.935018
O O16 0.750000 0.546492 0.931259
O O17 0.000000 0.500000 0.958313
O O18 0.993807 0.555146 0.830854
O O19 0.250000 0.956765 0.241837
O O20 0.000000 0.000000 0.203315
O O21 0.750000 0.284984 0.341769
#
# Coordination Sequence:
#
# PCOD9377906 Si02
#       8
#     8   8   8   8   8   8   8   8
#     4  10  17  32  52  70  97 135 175 207 241 296
#     4   9  17  30  52  73  94 128 173 211 240 286
#     4  10  19  33  53  75  98 130 171 213 249 297
#     4  10  19  35  55  72  92 131 179 212 243 294
#     4  10  20  35  56  74  94 133 178 210 246 302
#     4  10  18  31  48  72 101 132 167 207 251 297
#     4  11  21  32  48  72 103 137 168 203 248 300
#     4  12  24  34  46  72 108 136 164 212 259 297
#
# _framework density 15.949218
#
# number of rings (size 3 to 8) (size 9 to 14) (size 15 to 20)
#    0.000    1.750    3.750    3.375    0.000    1.500 
#    0.000    1.250    0.000    0.000    0.000    0.875 
#    0.000    2.000    0.000    0.000    0.000    0.000 
#
# Total GULP energy -178496.933937 kJ/mol
# GULP energy per Si atom -5578.029186 kJ/mol
# Density = 1.591292 g / cm^3
# Si number density = 15.949218 Si / 1000 Ang^3
#
#
#
# Elastic Constant Matrix: (Units=GPa)
#
#
# Indices 1 2 3 4 5 6 
#
# 1 40.4644 31.8198 19.0959 0.0000 0.0000 0.0000
# 2 31.8198 118.2129 44.0533 -0.0001 0.0000 0.0000
# 3 19.0959 44.0533 87.5462 -0.0003 -0.0001 0.0000
# 4 0.0000 -0.0001 -0.0003 10.5524 0.0000 0.0000
# 5 0.0000 0.0000 -0.0001 0.0000 10.0219 0.0000
# 6 0.0000 0.0000 0.0000 0.0000 0.0000 22.1759
#
#
#
# Elastic Compliance Matrix: (Units=1/GPa)
#
#
# Indices 1 2 3 4 5 6 
#
# 1 0.032090 -0.007421 -0.003265 0.000000 0.000000 0.000000
# 2 -0.007421 0.012128 -0.004484 0.000000 0.000000 0.000000
# 3 -0.003265 -0.004484 0.014391 0.000000 0.000000 0.000000
# 4 0.000000 0.000000 0.000000 0.094766 0.000000 0.000000
# 5 0.000000 0.000000 0.000000 0.000000 0.099782 0.000000
# 6 0.000000 0.000000 0.000000 0.000000 0.000000 0.045094
#
#
# Mechanical properties :
#
#
# Convention : Reuss Voigt Hill
#
# Bulk Modulus (GPa) = 35.37553 48.46239 41.91896
# Shear Modulus (GPa) = 14.79232 18.63364 16.71298
#
# Velocity S-wave (km/s) = 3.04873 3.42176 3.24062
# Velocity P-wave (km/s) = 5.88398 6.78695 6.35153
#
# Compressibility (1/GPa) = 0.02826813
#
# Stress axis : x y z
#
# Youngs Moduli (GPa) = 31.16280 82.45485 69.48696
#
# Poissons Ratio (x) = 0.61188 0.22690
# Poissons Ratio (y) = 0.23125 0.31159
# Poissons Ratio (z) = 0.10176 0.36974
#
# Static dielectric constant tensor:
#      x y z
#    x 1.546020 0.000000 0.000000 
#    y 0.000000 1.549880 0.000000 
#    z 0.000000 0.000000 1.518060 
# 
# From -- ./inp_files/14764.got.cif
#   From: 2010.05.17/outbox.cif.g08.bks.cpg/sg46_8_cif.got.tgz:14764.got - 2010.06.03 19:58:25.
