data_PCOD9377420
_publ_section_title
;
Structure prediction by ZEFSAII (Michael W. Deem and Ramdas Pophale) SiO2 
 PCOD9377420
Probable space group: I B A 2
;
_chemical_formula_sum "Si O2"
_cell_formula_units_Z 48
_cell_length_a 8.546028
_cell_length_b 10.079235
_cell_length_c 24.983557
_cell_angle_alpha 90.000000
_cell_angle_beta 90.000000
_cell_angle_gamma 90.000000
_cell_volume 2152.019256
_symmetry_space_group_name_H-M "I B A 2"
_symmetry_group_IT_number 45
_symmetry_cell_setting 'orthorhombic'
loop_
_space_group_symop_operation_xyz
x,y,z
-x,-y,z
-x,y,1/2+z
x,-y,1/2+z
1/2+x,1/2+y,1/2+z
1/2-x,1/2-y,1/2+z
1/2-x,1/2+y,z
1/2+x,1/2-y,z
loop_
_atom_site_type_symbol
_atom_site_label
_atom_site_fract_x
_atom_site_fract_y
_atom_site_fract_z
Si Si1 0.333580 0.925355 0.811660
Si Si2 0.606018 0.129638 0.020740
Si Si3 0.389291 0.816197 0.143240
Si Si4 0.883697 0.798224 0.450805
Si Si5 0.720881 0.079556 0.686426
Si Si6 0.338611 0.351597 0.376036
O O1 0.292596 0.902627 0.749839
O O2 0.342512 0.784670 0.841560
O O3 0.500000 0.000000 0.814252
O O4 0.212561 0.025648 0.839824
O O5 0.650047 0.169024 0.080801
O O6 0.500000 0.000000 0.023271
O O7 0.751612 0.115231 0.980139
O O8 0.496950 0.243229 0.996295
O O9 0.565394 0.862217 0.157096
O O10 0.359743 0.668299 0.163560
O O11 0.280496 0.923360 0.173861
O O12 0.793830 0.678613 0.420756
O O13 0.997458 0.860255 0.406846
#
# Coordination Sequence:
#
# PCOD9377420 Si02
#       6
#     8   8   8   8   8   8
#     4  12  24  46  72 104 144 191 237 299 364 431
#     4  11  23  45  73 101 141 189 235 297 361 432
#     4  11  23  45  70 105 139 184 230 297 359 426
#     4  10  25  43  69 102 139 189 238 294 355 425
#     4  11  24  44  72 101 141 182 236 293 359 427
#     4  11  25  45  70 105 144 190 239 300 356 434
#
# _framework density 22.304632999999999
#
# number of rings (size 3 to 8) (size 9 to 14) (size 15 to 20)
#    0.000    1.000    5.000    2.000    4.667    1.333 
#    3.000    1.667    0.000    0.000    0.000    0.000 
#    0.000    0.000    0.000    0.000    0.000    0.000 
#
# Total GULP energy -134335.821318 kJ/mol
# GULP energy per Si atom -5597.325888 kJ/mol
# Density = 2.225387 g / cm^3
# Si number density = 22.304633 Si / 1000 Ang^3
#
#
#
# Elastic Constant Matrix: (Units=GPa)
#
#
# Indices 1 2 3 4 5 6 
#
# 1 90.0684 12.7297 37.1694 0.0000 0.0000 0.0000
# 2 12.7297 80.8721 38.6411 0.0000 0.0000 0.0000
# 3 37.1694 38.6411 157.0855 0.0000 0.0000 0.0000
# 4 0.0000 0.0000 0.0000 27.4717 0.0000 0.0000
# 5 0.0000 0.0000 0.0000 0.0000 42.7465 0.0000
# 6 0.0000 0.0000 0.0000 0.0000 0.0000 -33.9594
#
#
#
# Elastic Compliance Matrix: (Units=1/GPa)
#
#
# Indices 1 2 3 4 5 6 
#
# 1 0.012331 -0.000620 -0.002765 0.000000 0.000000 0.000000
# 2 -0.000620 0.014043 -0.003308 0.000000 0.000000 0.000000
# 3 -0.002765 -0.003308 0.007834 0.000000 0.000000 0.000000
# 4 0.000000 0.000000 0.000000 0.036401 0.000000 0.000000
# 5 0.000000 0.000000 0.000000 0.000000 0.023394 0.000000
# 6 0.000000 0.000000 0.000000 0.000000 0.000000 -0.029447
#
#
# Mechanical properties :
#
#
# Convention : Reuss Voigt Hill
#
# Bulk Modulus (GPa) = 48.02427 56.12295 52.07361
# Shear Modulus (GPa) = 58.90421 23.21746 41.06084
#
# Velocity S-wave (km/s) = 5.14454 3.22984 4.29524
# Velocity P-wave (km/s) = 7.54097 6.25506 6.92791
#
# Compressibility (1/GPa) = 0.02082281
#
# Stress axis : x y z
#
# Youngs Moduli (GPa) = 81.09314 71.20859 127.64876
#
# Poissons Ratio (x) = 0.04413 0.35300
# Poissons Ratio (y) = 0.05025 0.42224
# Poissons Ratio (z) = 0.22426 0.23555
#
# Static dielectric constant tensor:
#      x y z
#    x 1.830860 0.000000 0.000000 
#    y 0.000000 1.830790 0.000000 
#    z 0.000000 0.000000 1.777230 
# 
# From -- ./inp_files/9527.got.cif
#   From: 2010.05.17/outbox.cif.g08.bks.cpg/sg45_5_cif.got.tgz:9527.got - 2010.06.03 19:51:22.
