data_PCOD9377689
_publ_section_title
;
Structure prediction by ZEFSAII (Michael W. Deem and Ramdas Pophale) SiO2 
 PCOD9377689
Probable space group: I B A 2
;
_chemical_formula_sum "Si O2"
_cell_formula_units_Z 28
_cell_length_a 7.084742
_cell_length_b 12.754123
_cell_length_c 12.716365
_cell_angle_alpha 90.000000
_cell_angle_beta 90.000000
_cell_angle_gamma 90.000000
_cell_volume 1149.046556
_symmetry_space_group_name_H-M "I B A 2"
_symmetry_group_IT_number 45
_symmetry_cell_setting 'orthorhombic'
loop_
_space_group_symop_operation_xyz
x,y,z
-x,-y,z
-x,y,1/2+z
x,-y,1/2+z
1/2+x,1/2+y,1/2+z
1/2-x,1/2-y,1/2+z
1/2-x,1/2+y,z
1/2+x,1/2-y,z
loop_
_atom_site_type_symbol
_atom_site_label
_atom_site_fract_x
_atom_site_fract_y
_atom_site_fract_z
Si Si1 0.500000 0.500000 0.763770
Si Si2 0.828610 0.396300 0.397612
Si Si3 0.912860 0.142881 0.075523
Si Si4 0.215472 0.327463 0.456592
O O1 0.316416 0.459870 0.826029
O O2 0.442940 0.596617 0.688750
O O3 0.763230 0.412044 0.518613
O O4 0.055586 0.395468 0.399979
O O5 0.775948 0.271351 0.383937
O O6 0.876419 0.266634 0.057719
O O7 0.095199 0.122187 0.001528
#
# Coordination Sequence:
#
# PCOD9377689 Si02
#       4
#     4   8   8   8
#     4  12  22  32  62  98 128 144 214 270 324 344
#     4   9  19  39  60  84 119 165 197 262 302 384
#     4   9  19  39  60  84 119 165 197 262 302 384
#     4   8  18  41  65  70 118 172 204 226 326 376
#
# _framework density 24.368029
#
# number of rings (size 3 to 8) (size 9 to 14) (size 15 to 20)
#    1.714    1.143    0.000    0.857    0.000    2.286 
#    0.000   11.429    0.000    0.000    0.000    0.000 
#    0.000    0.000    0.000    0.000    0.000    0.000 
#
# Total GULP energy -78023.343477 kJ/mol
# GULP energy per Si atom -5573.095963 kJ/mol
# Density = 2.431257 g / cm^3
# Si number density = 24.368029 Si / 1000 Ang^3
#
#
#
# Elastic Constant Matrix: (Units=GPa)
#
#
# Indices 1 2 3 4 5 6 
#
# 1 178.3358 30.2011 54.7719 0.0000 0.0000 0.0000
# 2 30.2011 68.0877 23.4159 0.0000 0.0000 0.0000
# 3 54.7719 23.4159 78.3487 0.0000 0.0000 0.0000
# 4 0.0000 0.0000 0.0000 54.5046 0.0000 0.0000
# 5 0.0000 0.0000 0.0000 0.0000 29.1333 0.0000
# 6 0.0000 0.0000 0.0000 0.0000 0.0000 34.8779
#
#
#
# Elastic Compliance Matrix: (Units=1/GPa)
#
#
# Indices 1 2 3 4 5 6 
#
# 1 0.007304 -0.001654 -0.004612 0.000000 0.000000 0.000000
# 2 -0.001654 0.016744 -0.003848 0.000000 0.000000 0.000000
# 3 -0.004612 -0.003848 0.017137 0.000000 0.000000 0.000000
# 4 0.000000 0.000000 0.000000 0.018347 0.000000 0.000000
# 5 0.000000 0.000000 0.000000 0.000000 0.034325 0.000000
# 6 0.000000 0.000000 0.000000 0.000000 0.000000 0.028671
#
#
# Mechanical properties :
#
#
# Convention : Reuss Voigt Hill
#
# Bulk Modulus (GPa) = 47.71430 60.17224 53.94327
# Shear Modulus (GPa) = 33.39080 38.12872 35.75976
#
# Velocity S-wave (km/s) = 3.70573 3.95992 3.83494
# Velocity P-wave (km/s) = 6.15899 6.75683 6.46482
#
# Compressibility (1/GPa) = 0.02095808
#
# Stress axis : x y z
#
# Youngs Moduli (GPa) = 136.91431 59.72334 58.35161
#
# Poissons Ratio (x) = 0.09876 0.26910
# Poissons Ratio (y) = 0.22642 0.22455
# Poissons Ratio (z) = 0.63141 0.22982
#
# Static dielectric constant tensor:
#      x y z
#    x 1.928420 0.000000 0.000000 
#    y 0.000000 2.145940 0.000000 
#    z 0.000000 0.000000 1.886740 
# 
# From -- ./inp_files/5404.got.cif
#   From: 2010.05.17/outbox.cif.g08.bks.cpg/sg45_3_cif.got.tgz:5404.got - 2010.06.03 19:51:22.
