data_PCOD9377200
_publ_section_title
;
Structure prediction by ZEFSAII (Michael W. Deem and Ramdas Pophale) SiO2 
 PCOD9377200
Probable space group: I B A 2
;
_chemical_formula_sum "Si O2"
_cell_formula_units_Z 40
_cell_length_a 11.293679
_cell_length_b 9.342001
_cell_length_c 19.936232
_cell_angle_alpha 90.000000
_cell_angle_beta 90.000000
_cell_angle_gamma 90.000000
_cell_volume 2103.383332
_symmetry_space_group_name_H-M "I B A 2"
_symmetry_group_IT_number 45
_symmetry_cell_setting 'orthorhombic'
loop_
_space_group_symop_operation_xyz
x,y,z
-x,-y,z
-x,y,1/2+z
x,-y,1/2+z
1/2+x,1/2+y,1/2+z
1/2-x,1/2-y,1/2+z
1/2-x,1/2+y,z
1/2+x,1/2-y,z
loop_
_atom_site_type_symbol
_atom_site_label
_atom_site_fract_x
_atom_site_fract_y
_atom_site_fract_z
Si Si1 0.173776 0.729601 0.726350
Si Si2 0.000000 0.000000 0.403287
Si Si3 0.125565 0.977309 0.276103
Si Si4 0.117466 0.924332 0.033204
Si Si5 0.708970 0.861690 0.099875
Si Si6 0.500000 0.000000 0.686779
O O1 0.174678 0.861358 0.777954
O O2 0.283852 0.625977 0.740766
O O3 0.196760 0.799770 0.653672
O O4 0.055712 0.632950 0.727681
O O5 0.775310 0.032034 0.549184
O O6 0.086629 0.923453 0.349852
O O7 0.000000 0.000000 0.238558
O O8 0.918634 0.088121 0.954822
O O9 0.148906 0.772394 0.063745
O O10 0.000000 0.000000 0.063270
O O11 0.608320 0.944490 0.141568
#
# Coordination Sequence:
#
# PCOD9377200 Si02
#       6
#     8   4   8   8   8   4
#     4  12  22  39  66  95 131 162 208 273 332 375
#     4   8  24  44  62  88 128 180 220 242 312 376
#     4  10  23  43  62  92 128 170 213 263 306 388
#     4  10  23  43  62  92 128 170 213 263 306 388
#     4  12  22  39  66  95 131 162 208 273 332 375
#     4  12  24  36  60 106 124 164 210 250 358 392
#
# _framework density 19.016981000000001
#
# number of rings (size 3 to 8) (size 9 to 14) (size 15 to 20)
#    1.200    0.000    4.000    2.400    0.000    3.200 
#    0.000    0.000    0.000    4.800    0.000    0.000 
#    0.000    0.000    0.000    0.000    0.000    0.000 
#
# Total GULP energy -111402.273387 kJ/mol
# GULP energy per Si atom -5570.113669 kJ/mol
# Density = 1.897370 g / cm^3
# Si number density = 19.016981 Si / 1000 Ang^3
#
#
#
# Elastic Constant Matrix: (Units=GPa)
#
#
# Indices 1 2 3 4 5 6 
#
# 1 78.3679 30.4386 8.6117 0.0000 0.0000 0.0000
# 2 30.4386 101.1131 17.0387 0.0000 0.0000 0.0000
# 3 8.6117 17.0387 78.0423 0.0000 0.0000 0.0000
# 4 0.0000 0.0000 0.0000 -21.9105 0.0000 0.0000
# 5 0.0000 0.0000 0.0000 0.0000 39.2669 0.0000
# 6 0.0000 0.0000 0.0000 0.0000 0.0000 38.6396
#
#
#
# Elastic Compliance Matrix: (Units=1/GPa)
#
#
# Indices 1 2 3 4 5 6 
#
# 1 0.014484 -0.004247 -0.000671 0.000000 0.000000 0.000000
# 2 -0.004247 0.011513 -0.002045 0.000000 0.000000 0.000000
# 3 -0.000671 -0.002045 0.013334 0.000000 0.000000 0.000000
# 4 0.000000 0.000000 0.000000 -0.045640 0.000000 0.000000
# 5 0.000000 0.000000 0.000000 0.000000 0.025467 0.000000
# 6 0.000000 0.000000 0.000000 0.000000 0.000000 0.025880
#
#
# Mechanical properties :
#
#
# Convention : Reuss Voigt Hill
#
# Bulk Modulus (GPa) = 39.36261 41.07791 40.22026
# Shear Modulus (GPa) = 74.14925 24.62816 49.38871
#
# Velocity S-wave (km/s) = 6.25106 3.60260 5.10169
# Velocity P-wave (km/s) = 8.53490 6.24119 7.47653
#
# Compressibility (1/GPa) = 0.02540482
#
# Stress axis : x y z
#
# Youngs Moduli (GPa) = 69.04348 86.85824 74.99590
#
# Poissons Ratio (x) = 0.36889 0.05032
# Poissons Ratio (y) = 0.29323 0.15336
# Poissons Ratio (z) = 0.04633 0.17762
#
# Static dielectric constant tensor:
#      x y z
#    x 1.694300 0.000000 0.000000 
#    y 0.000000 1.675620 0.000000 
#    z 0.000000 0.000000 1.682440 
# 
# From -- ./inp_files/9020.got.cif
#   From: 2010.05.17/outbox.cif.g08.bks.cpg/sg45_5_cif.got.tgz:9020.got - 2010.06.03 19:51:22.
