data_PCOD9377109
_publ_section_title
;
Structure prediction by ZEFSAII (Michael W. Deem and Ramdas Pophale) SiO2 
 PCOD9377109
Probable space group: I B A 2
;
_chemical_formula_sum "Si O2"
_cell_formula_units_Z 64
_cell_length_a 8.866763
_cell_length_b 24.267395
_cell_length_c 13.973364
_cell_angle_alpha 90.000000
_cell_angle_beta 90.000000
_cell_angle_gamma 90.000000
_cell_volume 3006.694007
_symmetry_space_group_name_H-M "I B A 2"
_symmetry_group_IT_number 45
_symmetry_cell_setting 'orthorhombic'
loop_
_space_group_symop_operation_xyz
x,y,z
-x,-y,z
-x,y,1/2+z
x,-y,1/2+z
1/2+x,1/2+y,1/2+z
1/2-x,1/2-y,1/2+z
1/2-x,1/2+y,z
1/2+x,1/2-y,z
loop_
_atom_site_type_symbol
_atom_site_label
_atom_site_fract_x
_atom_site_fract_y
_atom_site_fract_z
Si Si1 0.659361 0.522052 0.853580
Si Si2 0.134202 0.683584 0.173396
Si Si3 0.428882 0.727988 0.240240
Si Si4 0.783089 0.174939 0.320560
Si Si5 0.827400 0.998524 0.066480
Si Si6 0.141650 0.609072 0.994041
Si Si7 0.674280 0.936577 0.733160
Si Si8 0.401214 0.101045 0.326526
O O1 0.500000 0.500000 0.819609
O O2 0.769036 0.473130 0.822298
O O3 0.733235 0.578009 0.818687
O O4 0.654665 0.529267 0.966237
O O5 0.312555 0.692709 0.177784
O O6 0.097045 0.660997 0.280428
O O7 0.038603 0.738979 0.168598
O O8 0.092656 0.643859 0.086609
O O9 0.321734 0.771950 0.296577
O O10 0.543707 0.693308 0.306381
O O11 0.741072 0.147685 0.422662
O O12 0.741668 0.124884 0.246922
O O13 0.726310 0.032561 0.139383
O O14 0.743087 0.941534 0.035926
O O15 0.000000 0.000000 0.105269
O O16 0.993681 0.595547 0.926367
O O17 0.497274 0.932932 0.748897
#
# Coordination Sequence:
#
# PCOD9377109 Si02
#       8
#     8   8   8   8   8   8   8   8
#     4  11  24  41  64  98 135 174 230 275 338 420
#     4  11  24  44  69 100 133 181 230 291 354 420
#     4  10  23  44  70  97 133 177 238 288 355 411
#     4  10  22  44  69  97 137 178 230 295 349 412
#     4  11  25  41  66 103 139 180 234 275 345 431
#     4  11  24  44  70 103 141 180 240 285 358 430
#     4  11  22  42  66  95 140 178 223 279 350 414
#     4  11  24  44  66 100 138 187 228 286 354 418
#
# _framework density 21.285838999999999
#
# number of rings (size 3 to 8) (size 9 to 14) (size 15 to 20)
#    0.000    1.250    5.000    1.500    5.250    1.000 
#    0.000    0.000    0.000    0.000    0.000    0.000 
#    0.000    0.000    0.000    0.000    0.000    0.000 
#
# Total GULP energy -178372.466069 kJ/mol
# GULP energy per Si atom -5574.139565 kJ/mol
# Density = 2.123739 g / cm^3
# Si number density = 21.285839 Si / 1000 Ang^3
#
#
#
# Elastic Constant Matrix: (Units=GPa)
#
#
# Indices 1 2 3 4 5 6 
#
# 1 106.3180 19.9806 36.0997 0.0000 0.0000 0.0000
# 2 19.9806 63.6999 32.9328 0.0000 0.0001 0.0000
# 3 36.0997 32.9328 105.0344 0.0000 0.0002 0.0000
# 4 0.0000 0.0000 0.0000 34.4790 0.0001 0.0000
# 5 0.0000 0.0001 0.0002 0.0001 11.1275 0.0000
# 6 0.0000 0.0000 0.0000 0.0000 0.0000 27.1391
#
#
#
# Elastic Compliance Matrix: (Units=1/GPa)
#
#
# Indices 1 2 3 4 5 6 
#
# 1 0.010810 -0.001754 -0.003165 0.000000 0.000000 0.000000
# 2 -0.001754 0.019020 -0.005361 0.000000 0.000000 0.000000
# 3 -0.003165 -0.005361 0.012289 0.000000 0.000000 0.000000
# 4 0.000000 0.000000 0.000000 0.029003 0.000000 0.000000
# 5 0.000000 0.000000 0.000000 0.000000 0.089868 0.000000
# 6 0.000000 0.000000 0.000000 0.000000 0.000000 0.036847
#
#
# Mechanical properties :
#
#
# Convention : Reuss Voigt Hill
#
# Bulk Modulus (GPa) = 46.38399 50.34206 48.36303
# Shear Modulus (GPa) = 22.16456 26.95172 24.55814
#
# Velocity S-wave (km/s) = 3.23039 3.56220 3.40035
# Velocity P-wave (km/s) = 5.97932 6.37345 6.17953
#
# Compressibility (1/GPa) = 0.02155916
#
# Stress axis : x y z
#
# Youngs Moduli (GPa) = 92.50506 52.57514 81.37070
#
# Poissons Ratio (x) = 0.09223 0.25757
# Poissons Ratio (y) = 0.16228 0.43621
# Poissons Ratio (z) = 0.29281 0.28184
#
# Static dielectric constant tensor:
#      x y z
#    x 1.893630 0.000000 0.000000 
#    y 0.000000 1.821180 0.000000 
#    z 0.000000 0.000000 1.767880 
# 
# From -- ./inp_files/5876.got.cif
#   From: 2010.05.17/outbox.cif.g08.bks.cpg/sg45_3_cif.got.tgz:5876.got - 2010.06.03 19:51:22.
