data_PCOD9377220
_publ_section_title
;
Structure prediction by ZEFSAII (Michael W. Deem and Ramdas Pophale) SiO2 
 PCOD9377220
Probable space group: I B A 2
;
_chemical_formula_sum "Si O2"
_cell_formula_units_Z 40
_cell_length_a 8.741798
_cell_length_b 12.683958
_cell_length_c 13.515305
_cell_angle_alpha 90.000000
_cell_angle_beta 90.000000
_cell_angle_gamma 90.000000
_cell_volume 1498.585110
_symmetry_space_group_name_H-M "I B A 2"
_symmetry_group_IT_number 45
_symmetry_cell_setting 'orthorhombic'
loop_
_space_group_symop_operation_xyz
x,y,z
-x,-y,z
-x,y,1/2+z
x,-y,1/2+z
1/2+x,1/2+y,1/2+z
1/2-x,1/2-y,1/2+z
1/2-x,1/2+y,z
1/2+x,1/2-y,z
loop_
_atom_site_type_symbol
_atom_site_label
_atom_site_fract_x
_atom_site_fract_y
_atom_site_fract_z
Si Si1 0.776406 0.136486 0.182790
Si Si2 0.327742 0.538789 0.318042
Si Si3 0.121113 0.416628 0.457779
Si Si4 0.488630 0.740508 0.067606
Si Si5 0.010887 0.765226 0.349231
O O1 0.746940 0.018552 0.224501
O O2 0.631545 0.200257 0.138906
O O3 0.917183 0.140130 0.104982
O O4 0.865060 0.202883 0.268715
O O5 0.500000 0.500000 0.307910
O O6 0.255295 0.486780 0.414936
O O7 0.638934 0.338385 0.332874
O O8 0.044525 0.355074 0.362721
O O9 0.000000 0.500000 0.497140
O O10 0.120898 0.326709 0.540436
O O11 0.422679 0.714585 0.959219
#
# Coordination Sequence:
#
# PCOD9377220 Si02
#       5
#     8   8   8   8   8
#     4  11  23  47  74 118 156 209 276 339 422 513
#     4  10  23  43  76 108 151 204 268 341 419 487
#     4  10  24  45  76 109 151 210 267 331 420 496
#     4  10  26  43  79 110 162 216 267 349 422 508
#     4   9  24  46  80 111 163 212 270 358 418 504
#
# _framework density 26.691842999999999
#
# number of rings (size 3 to 8) (size 9 to 14) (size 15 to 20)
#    1.200    0.800    0.000    1.200    8.400    6.400 
#    0.000   21.000    0.000    0.000    0.000    0.000 
#    0.000    0.000    0.000    0.000    0.000    0.000 
#
# Total GULP energy -111573.597865 kJ/mol
# GULP energy per Si atom -5578.679893 kJ/mol
# Density = 2.663109 g / cm^3
# Si number density = 26.691843 Si / 1000 Ang^3
#
#
#
# Elastic Constant Matrix: (Units=GPa)
#
#
# Indices 1 2 3 4 5 6 
#
# 1 84.3054 36.0654 43.4936 0.0000 0.0000 0.0000
# 2 36.0654 99.6451 24.1828 0.0000 0.0000 0.0000
# 3 43.4936 24.1828 113.8436 0.0000 0.0000 0.0000
# 4 0.0000 0.0000 0.0000 42.2675 0.0000 0.0000
# 5 0.0000 0.0000 0.0000 0.0000 26.6645 0.0000
# 6 0.0000 0.0000 0.0000 0.0000 0.0000 34.9270
#
#
#
# Elastic Compliance Matrix: (Units=1/GPa)
#
#
# Indices 1 2 3 4 5 6 
#
# 1 0.016646 -0.004725 -0.005356 0.000000 0.000000 0.000000
# 2 -0.004725 0.011922 -0.000727 0.000000 0.000000 0.000000
# 3 -0.005356 -0.000727 0.010985 0.000000 0.000000 0.000000
# 4 0.000000 0.000000 0.000000 0.023659 0.000000 0.000000
# 5 0.000000 0.000000 0.000000 0.000000 0.037503 0.000000
# 6 0.000000 0.000000 0.000000 0.000000 0.000000 0.028631
#
#
# Mechanical properties :
#
#
# Convention : Reuss Voigt Hill
#
# Bulk Modulus (GPa) = 55.75223 56.14198 55.94710
# Shear Modulus (GPa) = 31.85896 33.70861 32.78378
#
# Velocity S-wave (km/s) = 3.45858 3.55756 3.50842
# Velocity P-wave (km/s) = 6.07303 6.16068 6.11701
#
# Compressibility (1/GPa) = 0.01793650
#
# Stress axis : x y z
#
# Youngs Moduli (GPa) = 60.07398 83.87627 91.03568
#
# Poissons Ratio (x) = 0.39632 0.48758
# Poissons Ratio (y) = 0.28385 0.06622
# Poissons Ratio (z) = 0.32175 0.06101
#
# Static dielectric constant tensor:
#      x y z
#    x 2.143910 0.000000 0.000000 
#    y 0.000000 2.214030 0.000000 
#    z 0.000000 0.000000 2.173220 
# 
# From -- ./inp_files/5457.got.cif
#   From: 2010.05.17/outbox.cif.g08.bks.cpg/sg45_3_cif.got.tgz:5457.got - 2010.06.03 19:51:22.
