data_PCOD9377394
_publ_section_title
;
Structure prediction by ZEFSAII (Michael W. Deem and Ramdas Pophale) SiO2 
 PCOD9377394
Probable space group: I B A 2
;
_chemical_formula_sum "Si O2"
_cell_formula_units_Z 60
_cell_length_a 11.931802
_cell_length_b 25.820810
_cell_length_c 9.369384
_cell_angle_alpha 90.000000
_cell_angle_beta 90.000000
_cell_angle_gamma 90.000000
_cell_volume 2886.602202
_symmetry_space_group_name_H-M "I B A 2"
_symmetry_group_IT_number 45
_symmetry_cell_setting 'orthorhombic'
loop_
_space_group_symop_operation_xyz
x,y,z
-x,-y,z
-x,y,1/2+z
x,-y,1/2+z
1/2+x,1/2+y,1/2+z
1/2-x,1/2-y,1/2+z
1/2-x,1/2+y,z
1/2+x,1/2-y,z
loop_
_atom_site_type_symbol
_atom_site_label
_atom_site_fract_x
_atom_site_fract_y
_atom_site_fract_z
Si Si1 0.714878 0.705138 0.661570
Si Si2 0.500000 0.000000 0.250543
Si Si3 0.189140 0.871522 0.410495
Si Si4 0.245365 0.174329 0.603372
Si Si5 0.120964 0.558403 0.007940
Si Si6 0.461366 0.323994 0.884543
Si Si7 0.054802 0.282596 0.779648
Si Si8 0.013015 0.658394 0.525417
O O1 0.732141 0.673643 0.517327
O O2 0.715658 0.766291 0.630417
O O3 0.609499 0.678256 0.737778
O O4 0.815639 0.702754 0.774920
O O5 0.557326 0.039812 0.363433
O O6 0.403268 0.019251 0.139262
O O7 0.220729 0.854741 0.250885
O O8 0.254171 0.922909 0.464071
O O9 0.053383 0.868236 0.411604
O O10 0.132220 0.176677 0.508662
O O11 0.355391 0.147464 0.538421
O O12 0.058723 0.609585 0.066001
O O13 0.532976 0.271261 0.857362
O O14 0.018209 0.291005 0.618022
O O15 0.986967 0.326005 0.864077
#
# Coordination Sequence:
#
# PCOD9377394 Si02
#       8
#     8   4   8   8   8   8   8   8
#     4  12  23  39  56  89 136 192 235 266 306 367
#     4  10  24  48  74 102 136 156 208 296 394 438
#     4  12  25  39  62  93 131 170 229 279 330 400
#     4  12  23  39  57  89 140 192 233 270 307 370
#     4  11  24  44  72 106 128 165 214 290 366 436
#     4  12  25  40  56  89 135 196 235 270 312 366
#     4  12  23  37  57  87 137 189 235 270 300 371
#     4  12  23  37  63  95 133 174 226 274 326 394
#
# _framework density 20.785682999999999
#
# number of rings (size 3 to 8) (size 9 to 14) (size 15 to 20)
#    0.000    0.267    5.333    5.600    0.000    0.000 
#    0.000    0.000    0.000    0.000    0.000   31.733 
#    0.000    0.000    0.000    0.000    0.000    0.000 
#
# Total GULP energy -167335.866148 kJ/mol
# GULP energy per Si atom -5577.862205 kJ/mol
# Density = 2.073837 g / cm^3
# Si number density = 20.785683 Si / 1000 Ang^3
#
#
#
# Elastic Constant Matrix: (Units=GPa)
#
#
# Indices 1 2 3 4 5 6 
#
# 1 142.9759 24.7371 32.7798 -0.0002 0.0000 0.0000
# 2 24.7371 37.2326 17.3883 -0.0001 0.0001 0.0001
# 3 32.7798 17.3883 105.4189 -0.0004 0.0001 0.0001
# 4 -0.0002 -0.0001 -0.0004 21.8039 0.0001 0.0001
# 5 0.0000 0.0001 0.0001 0.0001 28.5507 0.0000
# 6 0.0000 0.0001 0.0001 0.0001 0.0000 30.4360
#
#
#
# Elastic Compliance Matrix: (Units=1/GPa)
#
#
# Indices 1 2 3 4 5 6 
#
# 1 0.008203 -0.004614 -0.001790 0.000000 0.000000 0.000000
# 2 -0.004614 0.031695 -0.003793 0.000000 0.000000 0.000000
# 3 -0.001790 -0.003793 0.010668 0.000000 0.000000 0.000000
# 4 0.000000 0.000000 0.000000 0.045863 0.000000 0.000000
# 5 0.000000 0.000000 0.000000 0.000000 0.035025 0.000000
# 6 0.000000 0.000000 0.000000 0.000000 0.000000 0.032856
#
#
# Mechanical properties :
#
#
# Convention : Reuss Voigt Hill
#
# Bulk Modulus (GPa) = 33.14296 48.38200 40.76248
# Shear Modulus (GPa) = 25.67235 30.20626 27.93930
#
# Velocity S-wave (km/s) = 3.51821 3.81625 3.67026
# Velocity P-wave (km/s) = 5.69942 6.53801 6.13306
#
# Compressibility (1/GPa) = 0.03017232
#
# Stress axis : x y z
#
# Youngs Moduli (GPa) = 121.90974 31.55047 93.73747
#
# Poissons Ratio (x) = 0.14558 0.16775
# Poissons Ratio (y) = 0.56251 0.35557
# Poissons Ratio (z) = 0.21817 0.11968
#
# Static dielectric constant tensor:
#      x y z
#    x 1.851690 0.000000 0.000000 
#    y 0.000000 1.733300 0.000000 
#    z 0.000000 0.000000 1.764660 
# 
# From -- ./inp_files/1478.got.cif
#   From: 2010.05.17/outbox.cif.g08.bks.cpg/sg45_1_cif.got.tgz:1478.got - 2010.06.03 19:51:22.
