data_PCOD9377364
_publ_section_title
;
Structure prediction by ZEFSAII (Michael W. Deem and Ramdas Pophale) SiO2 
 PCOD9377364
Probable space group: I B A 2
;
_chemical_formula_sum "Si O2"
_cell_formula_units_Z 24
_cell_length_a 7.427721
_cell_length_b 13.565846
_cell_length_c 9.303575
_cell_angle_alpha 90.000000
_cell_angle_beta 90.000000
_cell_angle_gamma 90.000000
_cell_volume 937.459098
_symmetry_space_group_name_H-M "I B A 2"
_symmetry_group_IT_number 45
_symmetry_cell_setting 'orthorhombic'
loop_
_space_group_symop_operation_xyz
x,y,z
-x,-y,z
-x,y,1/2+z
x,-y,1/2+z
1/2+x,1/2+y,1/2+z
1/2-x,1/2-y,1/2+z
1/2-x,1/2+y,z
1/2+x,1/2-y,z
loop_
_atom_site_type_symbol
_atom_site_label
_atom_site_fract_x
_atom_site_fract_y
_atom_site_fract_z
Si Si1 0.474271 0.187652 0.191400
Si Si2 0.103621 0.902233 0.680185
Si Si3 0.862225 0.589711 0.428868
O O1 0.493596 0.303171 0.209947
O O2 0.632547 0.125473 0.265592
O O3 0.296746 0.129737 0.248230
O O4 0.459758 0.176127 0.020218
O O5 0.174955 0.920248 0.515103
O O6 0.000000 0.000000 0.725331
O O7 0.000000 0.500000 0.451079
#
# Coordination Sequence:
#
# PCOD9377364 Si02
#       3
#     8   8   8
#     4  10  25  45  74 107 156 191 255 308 377 441
#     4  10  26  46  78 111 149 200 253 307 381 450
#     4  10  24  45  77 105 156 193 254 304 384 440
#
# _framework density 25.601115
#
# number of rings (size 3 to 8) (size 9 to 14) (size 15 to 20)
#    2.000    0.000    0.000    1.000    9.333    0.000 
#    0.000    0.000    0.000    0.000    0.000    0.000 
#    0.000    0.000    0.000    0.000    0.000    0.000 
#
# Total GULP energy -66832.152159 kJ/mol
# GULP energy per Si atom -5569.346013 kJ/mol
# Density = 2.554285 g / cm^3
# Si number density = 25.601115 Si / 1000 Ang^3
#
#
#
# Elastic Constant Matrix: (Units=GPa)
#
#
# Indices 1 2 3 4 5 6 
#
# 1 132.8971 71.9180 20.3911 0.0000 0.0000 0.0000
# 2 71.9180 182.3675 -9.8892 0.0002 -0.0002 0.0000
# 3 20.3911 -9.8892 44.1060 0.0003 -0.0003 0.0000
# 4 0.0000 0.0002 0.0003 -13.0145 -0.0002 0.0000
# 5 0.0000 -0.0002 -0.0003 -0.0002 -6.4749 0.0000
# 6 0.0000 0.0000 0.0000 0.0000 0.0000 39.2183
#
#
#
# Elastic Compliance Matrix: (Units=1/GPa)
#
#
# Indices 1 2 3 4 5 6 
#
# 1 0.010990 -0.004666 -0.006127 0.000000 0.000000 0.000000
# 2 -0.004666 0.007532 0.003846 0.000000 0.000000 0.000000
# 3 -0.006127 0.003846 0.026368 0.000001 -0.000001 0.000000
# 4 0.000000 0.000000 0.000001 -0.076837 0.000002 0.000000
# 5 0.000000 0.000000 -0.000001 0.000002 -0.154444 0.000000
# 6 0.000000 0.000000 0.000000 0.000000 0.000000 0.025498
#
#
# Mechanical properties :
#
#
# Convention : Reuss Voigt Hill
#
# Bulk Modulus (GPa) = 32.26294 58.24560 45.25427
# Shear Modulus (GPa) = -36.58532 22.40916 -7.08808
#
# Velocity S-wave (km/s) = -3.78438 2.96179 -1.66573
# Velocity P-wave (km/s) = 2.54281 5.87340 3.74373
#
# Compressibility (1/GPa) = 0.03099532
#
# Stress axis : x y z
#
# Youngs Moduli (GPa) = 90.99305 132.76453 37.92529
#
# Poissons Ratio (x) = 0.61950 0.23237
# Poissons Ratio (y) = 0.42459 -0.14586
# Poissons Ratio (z) = 0.55752 -0.51062
#
# Static dielectric constant tensor:
#      x y z
#    x 2.155070 0.000000 0.000000 
#    y 0.000000 1.917160 0.000000 
#    z 0.000000 0.000000 2.008210 
# 
# From -- ./inp_files/2998.got.cif
#   From: 2010.05.17/outbox.cif.g08.bks.cpg/sg45_2_cif.got.tgz:2998.got - 2010.06.03 19:51:22.
