data_PCOD9377806
_publ_section_title
;
Structure prediction by ZEFSAII (Michael W. Deem and Ramdas Pophale) SiO2 
 PCOD9377806
Probable space group: I M A 2
;
_chemical_formula_sum "Si O2"
_cell_formula_units_Z 48
_cell_length_a 21.317797
_cell_length_b 13.972092
_cell_length_c 8.152094
_cell_angle_alpha 90.000000
_cell_angle_beta 90.000000
_cell_angle_gamma 90.000000
_cell_volume 2428.135607
_symmetry_space_group_name_H-M "I M A 2"
_symmetry_group_IT_number 46
_symmetry_cell_setting 'orthorhombic'
loop_
_space_group_symop_operation_xyz
x,y,z
-x,-y,z
1/2-x,y,z
1/2+x,-y,z
1/2+x,1/2+y,1/2+z
1/2-x,1/2-y,1/2+z
-x,1/2+y,1/2+z
x,1/2-y,1/2+z
loop_
_atom_site_type_symbol
_atom_site_label
_atom_site_fract_x
_atom_site_fract_y
_atom_site_fract_z
Si Si1 0.493759 0.884349 0.179260
Si Si2 0.344636 0.855690 0.812073
Si Si3 0.951587 0.907830 0.503637
Si Si4 0.344636 0.855691 0.195202
Si Si5 0.181608 0.991847 0.503637
Si Si6 0.493759 0.884349 0.828013
O O1 0.531331 0.853308 0.338209
O O2 0.420556 0.860606 0.197964
O O3 0.500000 0.000000 0.173213
O O4 0.516354 0.848696 0.003636
O O5 0.325518 0.750000 0.753637
O O6 0.322622 0.928027 0.670008
O O7 0.420556 0.860606 0.809310
O O8 0.326363 0.873514 0.003637
O O9 0.968670 0.853308 0.669063
O O10 0.880600 0.943827 0.503638
O O11 0.000000 0.000000 0.503636
O O12 0.322622 0.928027 0.337267
O O13 0.250000 0.039997 0.503637
O O14 0.500000 0.000000 0.834060
#
# Coordination Sequence:
#
# PCOD9377806 Si02
#       6
#     8   8   8   8   8   8
#     4   9  16  28  51  72  88 119 162 207 254 277
#     4  11  21  34  50  70 100 138 169 203 238 291
#     4  10  16  32  56  66  88 126 161 210 252 276
#     4  11  21  34  50  70 100 138 169 203 238 291
#     4  12  24  36  48  72 101 138 174 200 238 294
#     4   9  16  28  51  72  88 119 162 207 254 277
#
# _framework density 19.768253000000001
#
# number of rings (size 3 to 8) (size 9 to 14) (size 15 to 20)
#    0.000    1.667    8.333    0.000    0.000    1.333 
#    0.000    0.000    0.000    0.000    0.000    0.000 
#    0.000    1.333    0.000    0.000    0.000    0.000 
#
# Total GULP energy -133878.022073 kJ/mol
# GULP energy per Si atom -5578.250920 kJ/mol
# Density = 1.972326 g / cm^3
# Si number density = 19.768253 Si / 1000 Ang^3
#
#
#
# Elastic Constant Matrix: (Units=GPa)
#
#
# Indices 1 2 3 4 5 6 
#
# 1 131.2664 14.0348 63.9687 0.0000 0.0000 0.0000
# 2 14.0348 42.4905 28.2338 0.0000 0.0000 0.0000
# 3 63.9687 28.2338 236.4681 0.0000 0.0000 0.0000
# 4 0.0000 0.0000 0.0000 22.7411 0.0000 0.0000
# 5 0.0000 0.0000 0.0000 0.0000 33.5586 0.0000
# 6 0.0000 0.0000 0.0000 0.0000 0.0000 -2.2374
#
#
#
# Elastic Compliance Matrix: (Units=1/GPa)
#
#
# Indices 1 2 3 4 5 6 
#
# 1 0.008856 -0.001448 -0.002223 0.000000 0.000000 0.000000
# 2 -0.001448 0.025800 -0.002689 0.000000 0.000000 0.000000
# 3 -0.002223 -0.002689 0.005151 0.000000 0.000000 0.000000
# 4 0.000000 0.000000 0.000000 0.043973 0.000000 0.000000
# 5 0.000000 0.000000 0.000000 0.000000 0.029799 0.000000
# 6 0.000000 0.000000 0.000000 0.000000 0.000000 -0.446938
#
#
# Mechanical properties :
#
#
# Convention : Reuss Voigt Hill
#
# Bulk Modulus (GPa) = 36.91731 69.18886 53.05309
# Shear Modulus (GPa) = -16.04565 31.07829 7.51632
#
# Velocity S-wave (km/s) = -2.85210 3.96931 1.95204
# Velocity P-wave (km/s) = 2.80528 7.48887 5.65477
#
# Compressibility (1/GPa) = 0.02708756
#
# Stress axis : x y z
#
# Youngs Moduli (GPa) = 112.91562 38.76033 194.12828
#
# Poissons Ratio (x) = 0.05613 0.43151
# Poissons Ratio (y) = 0.16353 0.52194
# Poissons Ratio (z) = 0.25099 0.10421
#
# Static dielectric constant tensor:
#      x y z
#    x 1.696770 0.000000 0.000000 
#    y 0.000000 1.688400 0.000000 
#    z 0.000000 0.000000 1.782840 
# 
# From -- ./inp_files/6702.got.cif
#   From: 2010.05.17/outbox.cif.g08.bks.cpg/sg46_4_cif.got.tgz:6702.got - 2010.06.03 19:58:25.
