data_PCOD9377774
_publ_section_title
;
Structure prediction by ZEFSAII (Michael W. Deem and Ramdas Pophale) SiO2 
 PCOD9377774
Probable space group: I M A 2
;
_chemical_formula_sum "Si O2"
_cell_formula_units_Z 32
_cell_length_a 5.588557
_cell_length_b 11.215947
_cell_length_c 19.814135
_cell_angle_alpha 90.000000
_cell_angle_beta 90.000000
_cell_angle_gamma 90.000000
_cell_volume 1241.968986
_symmetry_space_group_name_H-M "I M A 2"
_symmetry_group_IT_number 46
_symmetry_cell_setting 'orthorhombic'
loop_
_space_group_symop_operation_xyz
x,y,z
-x,-y,z
1/2-x,y,z
1/2+x,-y,z
1/2+x,1/2+y,1/2+z
1/2-x,1/2-y,1/2+z
-x,1/2+y,1/2+z
x,1/2-y,1/2+z
loop_
_atom_site_type_symbol
_atom_site_label
_atom_site_fract_x
_atom_site_fract_y
_atom_site_fract_z
Si Si1 0.750000 0.987579 0.495800
Si Si2 0.250000 0.570040 0.845563
Si Si3 0.750000 0.351182 0.296110
Si Si4 0.250000 0.356129 0.637350
Si Si5 0.250000 0.604999 0.441187
Si Si6 0.250000 0.611444 0.588845
Si Si7 0.750000 0.798164 0.765769
Si Si8 0.750000 0.764415 0.924322
O O1 0.750000 0.859297 0.461579
O O2 0.500000 0.000000 0.533485
O O3 0.750000 0.072563 0.428437
O O4 0.500000 0.500000 0.827760
O O5 0.250000 0.707190 0.818486
O O6 0.750000 0.435642 0.362990
O O7 0.501364 0.365419 0.257979
O O8 0.250000 0.499671 0.639103
O O9 0.500330 0.320834 0.601061
O O10 0.250000 0.305536 0.711651
O O11 0.250000 0.548817 0.515340
O O12 0.505275 0.670146 0.442462
O O13 0.750000 0.754720 0.843437
#
# Coordination Sequence:
#
# PCOD9377774 Si02
#       8
#     4   4   4   4   4   4   4   4
#     4  10  16  25  36  58  93 123 148 190 238 313
#     4  10  16  25  33  54  86 116 144 186 228 303
#     4  10  19  30  44  70  88 125 176 204 272 284
#     4  10  21  37  47  69  97 132 180 218 244 303
#     4  10  18  32  51  63  90 124 182 234 246 303
#     4  10  21  37  49  67  93 137 192 210 249 292
#     4  10  18  32  44  63  97 120 158 224 238 307
#     4  10  19  30  46  74  90 129 184 210 277 291
#
# _framework density 25.765537999999999
#
# number of rings (size 3 to 8) (size 9 to 14) (size 15 to 20)
#    0.000    2.000    0.000    9.000    0.000    0.000 
#   27.000    0.000    0.000    0.000    0.000    0.000 
#    0.000    0.000    0.000    0.000 2470.000    0.000 
#
# Total GULP energy -89360.607523 kJ/mol
# GULP energy per Si atom -5585.037970 kJ/mol
# Density = 2.570689 g / cm^3
# Si number density = 25.765538 Si / 1000 Ang^3
#
#
#
# Elastic Constant Matrix: (Units=GPa)
#
#
# Indices 1 2 3 4 5 6 
#
# 1 330.9956 36.8788 34.0410 0.0000 0.0000 0.0000
# 2 36.8788 61.8252 28.0780 0.0000 0.0000 0.0000
# 3 34.0410 28.0780 99.8417 0.0000 0.0000 0.0000
# 4 0.0000 0.0000 0.0000 4.7037 0.0000 0.0000
# 5 0.0000 0.0000 0.0000 0.0000 12.5511 0.0000
# 6 0.0000 0.0000 0.0000 0.0000 0.0000 31.6012
#
#
#
# Elastic Compliance Matrix: (Units=1/GPa)
#
#
# Indices 1 2 3 4 5 6 
#
# 1 0.003273 -0.001657 -0.000650 0.000000 0.000000 0.000000
# 2 -0.001657 0.019382 -0.004886 0.000000 0.000000 0.000000
# 3 -0.000650 -0.004886 0.011611 0.000000 0.000000 0.000000
# 4 0.000000 0.000000 0.000000 0.212598 0.000000 0.000000
# 5 0.000000 0.000000 0.000000 0.000000 0.079674 0.000000
# 6 0.000000 0.000000 0.000000 0.000000 0.000000 0.031644
#
#
# Mechanical properties :
#
#
# Convention : Reuss Voigt Hill
#
# Bulk Modulus (GPa) = 50.29967 76.73976 63.51972
# Shear Modulus (GPa) = 13.18586 36.01552 24.60069
#
# Velocity S-wave (km/s) = 2.26467 3.74280 3.09332
# Velocity P-wave (km/s) = 5.13836 6.96610 6.12084
#
# Compressibility (1/GPa) = 0.01988084
#
# Stress axis : x y z
#
# Youngs Moduli (GPa) = 305.56382 51.59450 86.12229
#
# Poissons Ratio (x) = 0.08549 0.05596
# Poissons Ratio (y) = 0.50633 0.42077
# Poissons Ratio (z) = 0.19856 0.25208
#
# Static dielectric constant tensor:
#      x y z
#    x 2.140570 0.000000 0.000000 
#    y 0.000000 2.122470 0.000000 
#    z 0.000000 0.000000 1.953360 
# 
# From -- ./inp_files/17783.got.cif
#   From: 2010.05.17/outbox.cif.g08.bks.cpg/sg46_9_cif.got.tgz:17783.got - 2010.06.03 19:58:25.
