data_PCOD9377368
_publ_section_title
;
Structure prediction by ZEFSAII (Michael W. Deem and Ramdas Pophale) SiO2 
 PCOD9377368
Probable space group: I B A 2
;
_chemical_formula_sum "Si O2"
_cell_formula_units_Z 56
_cell_length_a 13.108925
_cell_length_b 16.646655
_cell_length_c 12.389233
_cell_angle_alpha 90.000000
_cell_angle_beta 90.000000
_cell_angle_gamma 90.000000
_cell_volume 2703.575351
_symmetry_space_group_name_H-M "I B A 2"
_symmetry_group_IT_number 45
_symmetry_cell_setting 'orthorhombic'
loop_
_space_group_symop_operation_xyz
x,y,z
-x,-y,z
-x,y,1/2+z
x,-y,1/2+z
1/2+x,1/2+y,1/2+z
1/2-x,1/2-y,1/2+z
1/2-x,1/2+y,z
1/2+x,1/2-y,z
loop_
_atom_site_type_symbol
_atom_site_label
_atom_site_fract_x
_atom_site_fract_y
_atom_site_fract_z
Si Si1 0.747005 0.454907 0.243610
Si Si2 0.609903 0.843812 0.829117
Si Si3 0.322757 0.307338 0.443475
Si Si4 0.095215 0.817952 0.687936
Si Si5 0.614647 0.129678 0.912154
Si Si6 0.389707 0.038575 0.627294
Si Si7 0.070670 0.923631 0.284302
O O1 0.673025 0.379431 0.243121
O O2 0.830445 0.433941 0.334105
O O3 0.808871 0.466429 0.133087
O O4 0.675073 0.533031 0.249972
O O5 0.708131 0.833408 0.907266
O O6 0.592404 0.762868 0.758284
O O7 0.506076 0.863311 0.892341
O O8 0.620021 0.913569 0.739632
O O9 0.358891 0.304524 0.568336
O O10 0.339023 0.217930 0.397140
O O11 0.400647 0.367661 0.384282
O O12 0.987348 0.866593 0.697284
O O13 0.632944 0.099151 0.032192
O O14 0.500000 0.000000 0.615348
O O15 0.000000 0.000000 0.312252
#
# Coordination Sequence:
#
# PCOD9377368 Si02
#       7
#     8   8   8   8   8   8   8
#     4  11  25  46  69 103 148 182 243 300 357 437
#     4  12  25  47  69 106 146 184 243 299 364 448
#     4  12  25  46  75 103 140 193 239 300 372 433
#     4  11  25  47  71 103 140 192 244 296 365 432
#     4  12  27  45  71 108 143 194 238 298 375 440
#     4  12  27  43  69 103 144 192 234 298 371 435
#     4  10  24  46  70 103 143 187 240 306 354 432
#
# _framework density 20.713311000000001
#
# number of rings (size 3 to 8) (size 9 to 14) (size 15 to 20)
#    0.000    0.571    7.143    0.000    6.000    1.714 
#    7.714    0.000    0.000    0.000    0.000    0.000 
#    0.000    0.000    0.000    0.000    0.000    0.000 
#
# Total GULP energy -156275.947994 kJ/mol
# GULP energy per Si atom -5581.283857 kJ/mol
# Density = 2.066617 g / cm^3
# Si number density = 20.713311 Si / 1000 Ang^3
#
#
#
# Elastic Constant Matrix: (Units=GPa)
#
#
# Indices 1 2 3 4 5 6 
#
# 1 95.1518 12.1275 19.9702 0.0000 0.0000 0.0000
# 2 12.1275 90.2976 14.5848 0.0000 0.0000 0.0000
# 3 19.9702 14.5848 77.2302 0.0000 0.0000 0.0000
# 4 0.0000 0.0000 0.0000 39.1151 0.0000 0.0000
# 5 0.0000 0.0000 0.0000 0.0000 11.1979 0.0000
# 6 0.0000 0.0000 0.0000 0.0000 0.0000 38.6378
#
#
#
# Elastic Compliance Matrix: (Units=1/GPa)
#
#
# Indices 1 2 3 4 5 6 
#
# 1 0.011212 -0.001070 -0.002697 0.000000 0.000000 0.000000
# 2 -0.001070 0.011525 -0.001900 0.000000 0.000000 0.000000
# 3 -0.002697 -0.001900 0.014004 0.000000 0.000000 0.000000
# 4 0.000000 0.000000 0.000000 0.025566 0.000000 0.000000
# 5 0.000000 0.000000 0.000000 0.000000 0.089303 0.000000
# 6 0.000000 0.000000 0.000000 0.000000 0.000000 0.025881
#
#
# Mechanical properties :
#
#
# Convention : Reuss Voigt Hill
#
# Bulk Modulus (GPa) = 39.35855 39.56051 39.45953
# Shear Modulus (GPa) = 25.34284 32.18997 28.76640
#
# Velocity S-wave (km/s) = 3.50166 3.94645 3.73069
# Velocity P-wave (km/s) = 5.94909 6.31716 6.13588
#
# Compressibility (1/GPa) = 0.02540744
#
# Stress axis : x y z
#
# Youngs Moduli (GPa) = 89.19029 86.76735 71.40575
#
# Poissons Ratio (x) = 0.09286 0.19259
# Poissons Ratio (y) = 0.09545 0.13565
# Poissons Ratio (z) = 0.24055 0.16484
#
# Static dielectric constant tensor:
#      x y z
#    x 1.795270 0.000000 0.000000 
#    y 0.000000 1.753890 0.000000 
#    z 0.000000 0.000000 1.714050 
# 
# From -- ./inp_files/4156.got.cif
#   From: 2010.05.17/outbox.cif.g08.bks.cpg/sg45_3_cif.got.tgz:4156.got - 2010.06.03 19:51:22.
