data_PCOD9377578
_publ_section_title
;
Structure prediction by ZEFSAII (Michael W. Deem and Ramdas Pophale) SiO2 
 PCOD9377578
Probable space group: I B A 2
;
_chemical_formula_sum "Si O2"
_cell_formula_units_Z 48
_cell_length_a 18.689302
_cell_length_b 13.904315
_cell_length_c 8.166836
_cell_angle_alpha 90.000000
_cell_angle_beta 90.000000
_cell_angle_gamma 90.000000
_cell_volume 2122.249864
_symmetry_space_group_name_H-M "I B A 2"
_symmetry_group_IT_number 45
_symmetry_cell_setting 'orthorhombic'
loop_
_space_group_symop_operation_xyz
x,y,z
-x,-y,z
-x,y,1/2+z
x,-y,1/2+z
1/2+x,1/2+y,1/2+z
1/2-x,1/2-y,1/2+z
1/2-x,1/2+y,z
1/2+x,1/2-y,z
loop_
_atom_site_type_symbol
_atom_site_label
_atom_site_fract_x
_atom_site_fract_y
_atom_site_fract_z
Si Si1 0.877607 0.966891 0.482170
Si Si2 0.188398 0.645514 0.953832
Si Si3 0.717156 0.039073 0.108999
Si Si4 0.670444 0.229415 0.964104
Si Si5 0.589856 0.290166 0.287421
Si Si6 0.571302 0.647151 0.284119
O O1 0.799645 0.978237 0.560765
O O2 0.874126 0.892409 0.331133
O O3 0.924569 0.910770 0.615164
O O4 0.911407 0.065501 0.419659
O O5 0.209518 0.587871 0.786327
O O6 0.120685 0.711191 0.912514
O O7 0.179093 0.563122 0.087986
O O8 0.254890 0.715311 0.992199
O O9 0.686199 0.117255 0.981390
O O10 0.616224 0.256106 0.110542
O O11 0.633430 0.273170 0.803343
O O12 0.505662 0.305423 0.299955
#
# Coordination Sequence:
#
# PCOD9377578 Si02
#       6
#     8   8   8   8   8   8
#     4  12  22  39  66 100 138 174 215 279 336 403
#     4  11  24  43  66  96 134 173 226 279 322 399
#     4  11  23  40  68 102 126 174 227 273 331 389
#     4  11  23  43  68  96 134 179 224 273 333 402
#     4  11  26  42  63  96 139 177 224 269 339 403
#     4  12  25  43  65 102 140 179 218 275 346 406
#
# _framework density 22.617505999999999
#
# number of rings (size 3 to 8) (size 9 to 14) (size 15 to 20)
#    0.000    0.667    5.000    2.500    2.333    2.667 
#    0.000    0.833    0.000    4.000    0.000    0.000 
#    0.000    0.000    0.000    0.000    0.000    0.000 
#
# Total GULP energy -134503.000496 kJ/mol
# GULP energy per Si atom -5604.291687 kJ/mol
# Density = 2.256603 g / cm^3
# Si number density = 22.617506 Si / 1000 Ang^3
#
#
#
# Elastic Constant Matrix: (Units=GPa)
#
#
# Indices 1 2 3 4 5 6 
#
# 1 126.5174 60.6397 28.8951 0.0000 0.0000 0.0000
# 2 60.6397 124.1757 14.6444 0.0000 0.0000 0.0000
# 3 28.8951 14.6444 64.5398 0.0000 0.0000 0.0000
# 4 0.0000 0.0000 0.0000 34.4914 0.0000 0.0000
# 5 0.0000 0.0000 0.0000 0.0000 29.9373 0.0000
# 6 0.0000 0.0000 0.0000 0.0000 0.0000 44.9382
#
#
#
# Elastic Compliance Matrix: (Units=1/GPa)
#
#
# Indices 1 2 3 4 5 6 
#
# 1 0.011188 -0.005007 -0.003873 0.000000 0.000000 0.000000
# 2 -0.005007 0.010515 -0.000144 0.000000 0.000000 0.000000
# 3 -0.003873 -0.000144 0.017261 0.000000 0.000000 0.000000
# 4 0.000000 0.000000 0.000000 0.028993 0.000000 0.000000
# 5 0.000000 0.000000 0.000000 0.000000 0.033403 0.000000
# 6 0.000000 0.000000 0.000000 0.000000 0.000000 0.022253
#
#
# Mechanical properties :
#
#
# Convention : Reuss Voigt Hill
#
# Bulk Modulus (GPa) = 47.81013 58.17680 52.99346
# Shear Modulus (GPa) = 33.63966 35.94364 34.79165
#
# Velocity S-wave (km/s) = 3.86077 3.99080 3.92632
# Velocity P-wave (km/s) = 6.40769 6.85661 6.63595
#
# Compressibility (1/GPa) = 0.02091607
#
# Stress axis : x y z
#
# Youngs Moduli (GPa) = 89.37778 95.10023 57.93387
#
# Poissons Ratio (x) = 0.47617 0.22438
# Poissons Ratio (y) = 0.44751 0.00836
# Poissons Ratio (z) = 0.34617 0.01372
#
# Static dielectric constant tensor:
#      x y z
#    x 1.795630 0.000000 0.000000 
#    y 0.000000 1.823450 0.000000 
#    z 0.000000 0.000000 1.956360 
# 
# From -- ./inp_files/2079.got.cif
#   From: 2010.05.17/outbox.cif.g08.bks.cpg/sg45_2_cif.got.tgz:2079.got - 2010.06.03 19:51:22.
