data_PCOD9377090
_publ_section_title
;
Structure prediction by ZEFSAII (Michael W. Deem and Ramdas Pophale) SiO2 
 PCOD9377090
Probable space group: I B A 2
;
_chemical_formula_sum "Si O2"
_cell_formula_units_Z 60
_cell_length_a 26.885568
_cell_length_b 9.095147
_cell_length_c 12.040551
_cell_angle_alpha 90.000000
_cell_angle_beta 90.000000
_cell_angle_gamma 90.000000
_cell_volume 2944.254180
_symmetry_space_group_name_H-M "I B A 2"
_symmetry_group_IT_number 45
_symmetry_cell_setting 'orthorhombic'
loop_
_space_group_symop_operation_xyz
x,y,z
-x,-y,z
-x,y,1/2+z
x,-y,1/2+z
1/2+x,1/2+y,1/2+z
1/2-x,1/2-y,1/2+z
1/2-x,1/2+y,z
1/2+x,1/2-y,z
loop_
_atom_site_type_symbol
_atom_site_label
_atom_site_fract_x
_atom_site_fract_y
_atom_site_fract_z
Si Si1 0.971016 0.718234 0.959470
Si Si2 0.425065 0.919422 0.515470
Si Si3 0.824930 0.203023 0.339057
Si Si4 0.000000 0.000000 0.594936
Si Si5 0.226874 0.915090 0.531938
Si Si6 0.265957 0.154508 0.691428
Si Si7 0.424754 0.710521 0.723060
Si Si8 0.173454 0.538465 0.890859
O O1 0.950927 0.734961 0.835458
O O2 0.938786 0.592403 0.021443
O O3 0.027241 0.657760 0.959994
O O4 0.973086 0.875210 0.020649
O O5 0.419098 0.842935 0.634936
O O6 0.376515 0.894360 0.440896
O O7 0.813216 0.081918 0.433257
O O8 0.773398 0.228787 0.274055
O O9 0.870060 0.159112 0.260162
O O10 0.835435 0.363356 0.389656
O O11 0.959071 0.914150 0.667943
O O12 0.216099 0.767989 0.599977
O O13 0.280522 0.917998 0.470609
O O14 0.232661 0.038528 0.624077
O O15 0.309383 0.086915 0.767420
#
# Coordination Sequence:
#
# PCOD9377090 Si02
#       8
#     8   8   8   4   8   8   8   8
#     4  10  22  43  68 100 132 170 226 271 337 404
#     4  10  23  41  70  99 127 174 225 280 322 397
#     4  11  23  40  66  98 126 173 222 274 321 404
#     4  10  24  44  66  96 140 182 206 286 344 402
#     4  11  23  41  65  92 133 170 215 272 329 391
#     4  11  23  41  65  93 131 175 211 269 336 386
#     4  11  23  45  69  95 137 174 224 275 340 395
#     4  11  22  41  67  96 130 166 223 270 324 394
#
# _framework density 20.378675999999999
#
# number of rings (size 3 to 8) (size 9 to 14) (size 15 to 20)
#    0.000    1.333    4.000    1.200    0.000    5.333 
#    0.000    5.333    0.000    0.000    0.000    0.000 
#    0.000    0.000    0.000    0.000    0.000    0.000 
#
# Total GULP energy -167487.570939 kJ/mol
# GULP energy per Si atom -5582.919031 kJ/mol
# Density = 2.033229 g / cm^3
# Si number density = 20.378676 Si / 1000 Ang^3
#
#
#
# Elastic Constant Matrix: (Units=GPa)
#
#
# Indices 1 2 3 4 5 6 
#
# 1 117.3132 41.0792 56.4322 0.0000 0.0000 0.0000
# 2 41.0792 114.6211 55.1359 0.0000 0.0000 0.0000
# 3 56.4322 55.1359 109.3063 0.0000 0.0000 0.0000
# 4 0.0000 0.0000 0.0000 30.3528 0.0000 0.0000
# 5 0.0000 0.0000 0.0000 0.0000 41.7405 0.0000
# 6 0.0000 0.0000 0.0000 0.0000 0.0000 14.0377
#
#
#
# Elastic Compliance Matrix: (Units=1/GPa)
#
#
# Indices 1 2 3 4 5 6 
#
# 1 0.011581 -0.001683 -0.005130 0.000000 0.000000 0.000000
# 2 -0.001683 0.011764 -0.005065 0.000000 0.000000 0.000000
# 3 -0.005130 -0.005065 0.014352 0.000000 0.000000 0.000000
# 4 0.000000 0.000000 0.000000 0.032946 0.000000 0.000000
# 5 0.000000 0.000000 0.000000 0.000000 0.023958 0.000000
# 6 0.000000 0.000000 0.000000 0.000000 0.000000 0.071237
#
#
# Mechanical properties :
#
#
# Convention : Reuss Voigt Hill
#
# Bulk Modulus (GPa) = 71.73113 71.83724 71.78418
# Shear Modulus (GPa) = 25.74116 29.79908 27.77012
#
# Velocity S-wave (km/s) = 3.55793 3.82811 3.69549
# Velocity P-wave (km/s) = 7.22177 7.40722 7.31508
#
# Compressibility (1/GPa) = 0.01394095
#
# Stress axis : x y z
#
# Youngs Moduli (GPa) = 86.34579 85.00532 69.67568
#
# Poissons Ratio (x) = 0.14305 0.35746
# Poissons Ratio (y) = 0.14530 0.35292
# Poissons Ratio (z) = 0.44298 0.43056
#
# Static dielectric constant tensor:
#      x y z
#    x 1.715780 0.000000 0.000000 
#    y 0.000000 1.724610 0.000000 
#    z 0.000000 0.000000 1.739110 
# 
# From -- ./inp_files/3347.got.cif
#   From: 2010.05.17/outbox.cif.g08.bks.cpg/sg45_2_cif.got.tgz:3347.got - 2010.06.03 19:51:22.
