data_PCOD9377337
_publ_section_title
;
Structure prediction by ZEFSAII (Michael W. Deem and Ramdas Pophale) SiO2 
 PCOD9377337
Probable space group: I B A 2
;
_chemical_formula_sum "Si O2"
_cell_formula_units_Z 32
_cell_length_a 11.681270
_cell_length_b 5.262610
_cell_length_c 19.555509
_cell_angle_alpha 90.000000
_cell_angle_beta 90.000000
_cell_angle_gamma 90.000000
_cell_volume 1202.154741
_symmetry_space_group_name_H-M "I B A 2"
_symmetry_group_IT_number 45
_symmetry_cell_setting 'orthorhombic'
loop_
_space_group_symop_operation_xyz
x,y,z
-x,-y,z
-x,y,1/2+z
x,-y,1/2+z
1/2+x,1/2+y,1/2+z
1/2-x,1/2-y,1/2+z
1/2-x,1/2+y,z
1/2+x,1/2-y,z
loop_
_atom_site_type_symbol
_atom_site_label
_atom_site_fract_x
_atom_site_fract_y
_atom_site_fract_z
Si Si1 0.000000 0.000000 0.775120
Si Si2 0.332223 0.211560 0.671028
Si Si3 0.500000 0.000000 0.056369
Si Si4 0.305033 0.790184 0.846260
Si Si5 0.792353 0.243625 0.999044
O O1 0.925992 0.818789 0.824841
O O2 0.077597 0.822786 0.726899
O O3 0.233588 0.434979 0.675030
O O4 0.418762 0.159760 0.606927
O O5 0.577195 0.825686 0.006488
O O6 0.219926 0.570186 0.820112
O O7 0.271692 0.801459 0.926518
O O8 0.723979 0.473321 0.032788
#
# Coordination Sequence:
#
# PCOD9377337 Si02
#       5
#     4   8   4   8   8
#     4  12  26  48  78 106 154 206 250 320 396 442
#     4  12  28  48  72 110 152 200 260 312 370 462
#     4  12  26  48  78 106 154 206 250 320 396 442
#     4  10  24  44  70 108 148 191 252 312 375 462
#     4  10  24  44  70 108 148 191 252 312 375 462
#
# _framework density 26.618867999999999
#
# number of rings (size 3 to 8) (size 9 to 14) (size 15 to 20)
#    0.000    1.000    0.000    4.500    0.000   18.000 
#    0.000    0.000    0.000    0.000    0.000    0.000 
#    0.000    0.000    0.000    0.000    0.000    0.000 
#
# Total GULP energy -89339.225830 kJ/mol
# GULP energy per Si atom -5583.701614 kJ/mol
# Density = 2.655828 g / cm^3
# Si number density = 26.618868 Si / 1000 Ang^3
#
#
#
# Elastic Constant Matrix: (Units=GPa)
#
#
# Indices 1 2 3 4 5 6 
#
# 1 163.2143 54.8272 55.6522 0.0000 0.0000 0.0000
# 2 54.8272 200.0555 0.1849 0.0000 0.0000 0.0000
# 3 55.6522 0.1849 118.1852 0.0000 0.0000 0.0000
# 4 0.0000 0.0000 0.0000 24.0040 0.0000 0.0000
# 5 0.0000 0.0000 0.0000 0.0000 62.0974 0.0000
# 6 0.0000 0.0000 0.0000 0.0000 0.0000 60.2417
#
#
#
# Elastic Compliance Matrix: (Units=1/GPa)
#
#
# Indices 1 2 3 4 5 6 
#
# 1 0.008195 -0.002242 -0.003855 0.000000 0.000000 0.000000
# 2 -0.002242 0.005612 0.001047 0.000000 0.000000 0.000000
# 3 -0.003855 0.001047 0.010275 0.000000 0.000000 0.000000
# 4 0.000000 0.000000 0.000000 0.041660 0.000000 0.000000
# 5 0.000000 0.000000 0.000000 0.000000 0.016104 0.000000
# 6 0.000000 0.000000 0.000000 0.000000 0.000000 0.016600
#
#
# Mechanical properties :
#
#
# Convention : Reuss Voigt Hill
#
# Bulk Modulus (GPa) = 71.52576 78.08705 74.80641
# Shear Modulus (GPa) = 44.16704 53.98798 49.07751
#
# Velocity S-wave (km/s) = 4.07779 4.50842 4.29850
# Velocity P-wave (km/s) = 7.00713 7.51665 7.26636
#
# Compressibility (1/GPa) = 0.01398098
#
# Stress axis : x y z
#
# Youngs Moduli (GPa) = 122.02994 178.18439 97.32281
#
# Poissons Ratio (x) = 0.39954 0.37521
# Poissons Ratio (y) = 0.27362 -0.10191
# Poissons Ratio (z) = 0.47046 -0.18657
#
# Static dielectric constant tensor:
#      x y z
#    x 2.081530 0.000000 0.000000 
#    y 0.000000 2.128840 0.000000 
#    z 0.000000 0.000000 2.523320 
# 
# From -- ./inp_files/8595.got.cif
#   From: 2010.05.17/outbox.cif.g08.bks.cpg/sg45_5_cif.got.tgz:8595.got - 2010.06.03 19:51:22.
