data_PCOD9377122
_publ_section_title
;
Structure prediction by ZEFSAII (Michael W. Deem and Ramdas Pophale) SiO2 
 PCOD9377122
Probable space group: I B A 2
;
_chemical_formula_sum "Si O2"
_cell_formula_units_Z 56
_cell_length_a 27.709759
_cell_length_b 5.065384
_cell_length_c 15.524535
_cell_angle_alpha 90.000000
_cell_angle_beta 90.000000
_cell_angle_gamma 90.000000
_cell_volume 2179.032580
_symmetry_space_group_name_H-M "I B A 2"
_symmetry_group_IT_number 45
_symmetry_cell_setting 'orthorhombic'
loop_
_space_group_symop_operation_xyz
x,y,z
-x,-y,z
-x,y,1/2+z
x,-y,1/2+z
1/2+x,1/2+y,1/2+z
1/2-x,1/2-y,1/2+z
1/2-x,1/2+y,z
1/2+x,1/2-y,z
loop_
_atom_site_type_symbol
_atom_site_label
_atom_site_fract_x
_atom_site_fract_y
_atom_site_fract_z
Si Si1 0.108289 0.102483 0.180440
Si Si2 0.550590 0.876820 0.146837
Si Si3 0.217159 0.448658 0.574138
Si Si4 0.359679 0.316209 0.498782
Si Si5 0.217572 0.570476 0.277852
Si Si6 0.642615 0.285173 0.356228
Si Si7 0.554543 0.037153 0.447512
O O1 0.089923 0.401815 0.170692
O O2 0.135233 0.040842 0.091306
O O3 0.140327 0.072026 0.264150
O O4 0.064268 0.900160 0.187475
O O5 0.500000 0.000000 0.173047
O O6 0.549499 0.838254 0.043175
O O7 0.241308 0.167766 0.557250
O O8 0.171835 0.557165 0.520570
O O9 0.205098 0.455701 0.676273
O O10 0.339479 0.517627 0.429254
O O11 0.412856 0.222466 0.467216
O O12 0.241052 0.851643 0.294353
O O13 0.173638 0.474811 0.336476
O O14 0.588615 0.201889 0.384324
O O15 0.500000 0.000000 0.415402
#
# Coordination Sequence:
#
# PCOD9377122 Si02
#       7
#     8   8   8   8   8   8   8
#     4  11  24  43  69 101 140 189 236 298 358 430
#     4  10  22  45  70  96 137 188 243 297 363 417
#     4  10  23  44  74 107 144 191 239 297 369 443
#     4  11  25  46  71 107 146 193 249 300 370 433
#     4  10  24  45  71 106 148 189 237 303 368 436
#     4  12  26  44  74 107 147 195 247 301 368 440
#     4  10  25  47  71 104 148 197 245 312 362 426
#
# _framework density 25.699477000000002
#
# number of rings (size 3 to 8) (size 9 to 14) (size 15 to 20)
#    0.000    1.429    2.857    0.429    6.000    2.286 
#    2.571    0.000    0.000    0.000    0.000    0.000 
#    0.000    0.000    0.000    0.000    0.000    0.000 
#
# Total GULP energy -157047.578214 kJ/mol
# GULP energy per Si atom -5608.842079 kJ/mol
# Density = 2.564098 g / cm^3
# Si number density = 25.699477 Si / 1000 Ang^3
#
#
#
# Elastic Constant Matrix: (Units=GPa)
#
#
# Indices 1 2 3 4 5 6 
#
# 1 142.9554 26.1617 31.9162 0.0000 0.0000 0.0000
# 2 26.1617 73.7568 30.4428 0.0000 0.0000 0.0000
# 3 31.9162 30.4428 125.1149 0.0000 0.0000 0.0000
# 4 0.0000 0.0000 0.0000 31.4395 0.0000 0.0000
# 5 0.0000 0.0000 0.0000 0.0000 33.7277 0.0000
# 6 0.0000 0.0000 0.0000 0.0000 0.0000 41.8338
#
#
#
# Elastic Compliance Matrix: (Units=1/GPa)
#
#
# Indices 1 2 3 4 5 6 
#
# 1 0.007709 -0.002137 -0.001447 0.000000 0.000000 0.000000
# 2 -0.002137 0.015664 -0.003266 0.000000 0.000000 0.000000
# 3 -0.001447 -0.003266 0.009156 0.000000 0.000000 0.000000
# 4 0.000000 0.000000 0.000000 0.031807 0.000000 0.000000
# 5 0.000000 0.000000 0.000000 0.000000 0.029649 0.000000
# 6 0.000000 0.000000 0.000000 0.000000 0.000000 0.023904
#
#
# Mechanical properties :
#
#
# Convention : Reuss Voigt Hill
#
# Bulk Modulus (GPa) = 53.10757 57.65206 55.37981
# Shear Modulus (GPa) = 36.26673 38.28729 37.27701
#
# Velocity S-wave (km/s) = 3.76065 3.86399 3.81267
# Velocity P-wave (km/s) = 6.29018 6.51069 6.40138
#
# Compressibility (1/GPa) = 0.01882971
#
# Stress axis : x y z
#
# Youngs Moduli (GPa) = 129.71332 63.83925 109.21353
#
# Poissons Ratio (x) = 0.13645 0.15798
# Poissons Ratio (y) = 0.27726 0.35671
# Poissons Ratio (z) = 0.18763 0.20851
#
# Static dielectric constant tensor:
#      x y z
#    x 2.025150 0.000000 0.000000 
#    y 0.000000 2.009190 0.000000 
#    z 0.000000 0.000000 2.028990 
# 
# From -- ./inp_files/5252.got.cif
#   From: 2010.05.17/outbox.cif.g08.bks.cpg/sg45_3_cif.got.tgz:5252.got - 2010.06.03 19:51:22.
