data_PCOD9377112
_publ_section_title
;
Structure prediction by ZEFSAII (Michael W. Deem and Ramdas Pophale) SiO2 
 PCOD9377112
Probable space group: I B A 2
;
_chemical_formula_sum "Si O2"
_cell_formula_units_Z 56
_cell_length_a 12.797533
_cell_length_b 13.687673
_cell_length_c 13.241707
_cell_angle_alpha 90.000000
_cell_angle_beta 90.000000
_cell_angle_gamma 90.000000
_cell_volume 2319.529250
_symmetry_space_group_name_H-M "I B A 2"
_symmetry_group_IT_number 45
_symmetry_cell_setting 'orthorhombic'
loop_
_space_group_symop_operation_xyz
x,y,z
-x,-y,z
-x,y,1/2+z
x,-y,1/2+z
1/2+x,1/2+y,1/2+z
1/2-x,1/2-y,1/2+z
1/2-x,1/2+y,z
1/2+x,1/2-y,z
loop_
_atom_site_type_symbol
_atom_site_label
_atom_site_fract_x
_atom_site_fract_y
_atom_site_fract_z
Si Si1 0.628058 0.867875 0.559980
Si Si2 0.674735 0.642659 0.601921
Si Si3 0.751670 0.695312 0.389297
Si Si4 0.373191 0.795778 0.726761
Si Si5 0.000000 0.000000 0.070059
Si Si6 0.362620 0.666718 0.526317
Si Si7 0.500000 0.000000 0.932572
Si Si8 0.404925 0.904633 0.260390
O O1 0.625600 0.753839 0.595262
O O2 0.745917 0.877934 0.522898
O O3 0.617405 0.945044 0.650990
O O4 0.534508 0.903902 0.490886
O O5 0.710970 0.631522 0.483947
O O6 0.773181 0.646751 0.678087
O O7 0.591624 0.558673 0.628457
O O8 0.659405 0.758538 0.338760
O O9 0.848792 0.751968 0.441312
O O10 0.802909 0.655544 0.287866
O O11 0.384604 0.713494 0.637290
O O12 0.483966 0.850241 0.743672
O O13 0.946234 0.084648 0.005836
O O14 0.408693 0.025257 0.855351
#
# Coordination Sequence:
#
# PCOD9377112 Si02
#       8
#     8   8   8   8   4   8   4   8
#     4  10  23  48  67 100 145 181 242 292 368 427
#     4  10  24  46  69 103 148 193 228 309 351 439
#     4  10  22  44  71  97 137 182 241 284 363 424
#     4  10  22  46  72  97 138 184 239 293 355 431
#     4  12  26  42  74 106 148 190 238 284 380 414
#     4  10  24  44  67 100 141 189 225 300 349 432
#     4  12  28  36  70 106 132 178 238 304 342 444
#     4  12  23  41  73  99 129 190 234 289 365 425
#
# _framework density 24.14283
#
# number of rings (size 3 to 8) (size 9 to 14) (size 15 to 20)
#    0.000    1.714    2.857    3.000   10.000    1.143 
#    0.000    1.429    0.000    0.000    0.000    0.000 
#    0.000    0.000    0.000    0.000    0.000    0.000 
#
# Total GULP energy -155989.236923 kJ/mol
# GULP energy per Si atom -5571.044176 kJ/mol
# Density = 2.408788 g / cm^3
# Si number density = 24.142830 Si / 1000 Ang^3
#
#
#
# Elastic Constant Matrix: (Units=GPa)
#
#
# Indices 1 2 3 4 5 6 
#
# 1 72.2635 15.2619 -19.5559 0.0000 0.0000 0.0000
# 2 15.2619 62.9682 -8.9417 0.0000 0.0000 0.0000
# 3 -19.5559 -8.9417 73.6026 0.0000 0.0000 0.0000
# 4 0.0000 0.0000 0.0000 -18.1438 0.0000 0.0000
# 5 0.0000 0.0000 0.0000 0.0000 -14.4025 0.0000
# 6 0.0000 0.0000 0.0000 0.0000 0.0000 49.3343
#
#
#
# Elastic Compliance Matrix: (Units=1/GPa)
#
#
# Indices 1 2 3 4 5 6 
#
# 1 0.015532 -0.003234 0.003734 0.000000 0.000000 0.000000
# 2 -0.003234 0.016833 0.001186 0.000000 0.000000 0.000000
# 3 0.003734 0.001186 0.014723 0.000000 0.000000 0.000000
# 4 0.000000 0.000000 0.000000 -0.055115 0.000000 0.000000
# 5 0.000000 0.000000 0.000000 0.000000 -0.069432 0.000000
# 6 0.000000 0.000000 0.000000 0.000000 0.000000 0.020270
#
#
# Mechanical properties :
#
#
# Convention : Reuss Voigt Hill
#
# Bulk Modulus (GPa) = 19.81845 20.26254 20.04050
# Shear Modulus (GPa) = -114.30858 18.16228 -48.07315
#
# Velocity S-wave (km/s) = -6.88837 2.74576 -4.46712
# Velocity P-wave (km/s) = 7.41886 4.29689 4.27646
#
# Compressibility (1/GPa) = 0.05045802
#
# Stress axis : x y z
#
# Youngs Moduli (GPa) = 64.38422 59.40607 67.92287
#
# Poissons Ratio (x) = 0.19214 -0.25361
# Poissons Ratio (y) = 0.20824 -0.08053
# Poissons Ratio (z) = -0.24040 -0.07044
#
# Static dielectric constant tensor:
#      x y z
#    x 2.112850 0.000000 0.000000 
#    y 0.000000 2.200150 0.000000 
#    z 0.000000 0.000000 1.925810 
# 
# From -- ./inp_files/4172.got.cif
#   From: 2010.05.17/outbox.cif.g08.bks.cpg/sg45_3_cif.got.tgz:4172.got - 2010.06.03 19:51:22.
