data_PCOD9377126
_publ_section_title
;
Structure prediction by ZEFSAII (Michael W. Deem and Ramdas Pophale) SiO2 
 PCOD9377126
Probable space group: I B A 2
;
_chemical_formula_sum "Si O2"
_cell_formula_units_Z 36
_cell_length_a 14.522184
_cell_length_b 9.228640
_cell_length_c 8.777219
_cell_angle_alpha 90.000000
_cell_angle_beta 90.000000
_cell_angle_gamma 90.000000
_cell_volume 1176.322962
_symmetry_space_group_name_H-M "I B A 2"
_symmetry_group_IT_number 45
_symmetry_cell_setting 'orthorhombic'
loop_
_space_group_symop_operation_xyz
x,y,z
-x,-y,z
-x,y,1/2+z
x,-y,1/2+z
1/2+x,1/2+y,1/2+z
1/2-x,1/2-y,1/2+z
1/2-x,1/2+y,z
1/2+x,1/2-y,z
loop_
_atom_site_type_symbol
_atom_site_label
_atom_site_fract_x
_atom_site_fract_y
_atom_site_fract_z
Si Si1 0.683910 0.520831 0.549760
Si Si2 0.079717 0.716288 0.785948
Si Si3 0.386972 0.956398 0.576956
Si Si4 0.703208 0.276297 0.800002
Si Si5 0.000000 0.000000 0.868227
O O1 0.686489 0.428016 0.706989
O O2 0.680073 0.684489 0.474773
O O3 0.688015 0.261963 0.289334
O O4 0.587958 0.474711 0.475714
O O5 0.069987 0.595181 0.657498
O O6 0.064580 0.632491 0.943753
O O7 0.012634 0.853183 0.770458
O O8 0.352437 0.846096 0.709421
O O9 0.289690 0.007773 0.499940
#
# Coordination Sequence:
#
# PCOD9377126 Si02
#       5
#     8   8   8   8   4
#     4  10  24  41  77 112 167 210 287 341 435 501
#     4  10  24  42  81 116 170 220 298 353 437 505
#     4  10  22  46  76 115 160 242 287 348 416 548
#     4  10  22  45  74 118 160 230 287 345 411 544
#     4  12  24  48  74 134 164 220 270 382 426 510
#
# _framework density 30.603839000000001
#
# number of rings (size 3 to 8) (size 9 to 14) (size 15 to 20)
#    0.000    1.778    2.222    0.000    9.333    2.667 
#    0.000    1.111    0.000    9.333    0.000    0.000 
#    0.000    0.000    0.000    0.000    0.000    0.000 
#
# Total GULP energy -100761.210695 kJ/mol
# GULP energy per Si atom -5597.845039 kJ/mol
# Density = 3.053418 g / cm^3
# Si number density = 30.603839 Si / 1000 Ang^3
#
#
#
# Elastic Constant Matrix: (Units=GPa)
#
#
# Indices 1 2 3 4 5 6 
#
# 1 135.8371 90.3675 76.4140 0.0000 0.0000 0.0000
# 2 90.3675 276.7174 127.7422 0.0000 0.0000 0.0000
# 3 76.4140 127.7422 192.3407 0.0000 0.0000 0.0000
# 4 0.0000 0.0000 0.0000 70.4343 0.0000 0.0000
# 5 0.0000 0.0000 0.0000 0.0000 64.0212 0.0000
# 6 0.0000 0.0000 0.0000 0.0000 0.0000 81.3337
#
#
#
# Elastic Compliance Matrix: (Units=1/GPa)
#
#
# Indices 1 2 3 4 5 6 
#
# 1 0.010278 -0.002122 -0.002674 0.000000 0.000000 0.000000
# 2 -0.002122 0.005650 -0.002909 0.000000 0.000000 0.000000
# 3 -0.002674 -0.002909 0.008194 0.000000 0.000000 0.000000
# 4 0.000000 0.000000 0.000000 0.014198 0.000000 0.000000
# 5 0.000000 0.000000 0.000000 0.000000 0.015620 0.000000
# 6 0.000000 0.000000 0.000000 0.000000 0.000000 0.012295
#
#
# Mechanical properties :
#
#
# Convention : Reuss Voigt Hill
#
# Bulk Modulus (GPa) = 114.80021 132.66028 123.73024
# Shear Modulus (GPa) = 59.13869 63.84930 61.49399
#
# Velocity S-wave (km/s) = 4.40067 4.57258 4.48745
# Velocity P-wave (km/s) = 7.96331 8.44510 8.20774
#
# Compressibility (1/GPa) = 0.00871079
#
# Stress axis : x y z
#
# Youngs Moduli (GPa) = 97.29915 176.99788 122.04788
#
# Poissons Ratio (x) = 0.37560 0.32633
# Poissons Ratio (y) = 0.20647 0.35506
# Poissons Ratio (z) = 0.26016 0.51493
#
# Static dielectric constant tensor:
#      x y z
#    x 2.550080 0.000000 0.000000 
#    y 0.000000 2.436030 0.000000 
#    z 0.000000 0.000000 2.392360 
# 
# From -- ./inp_files/2259.got.cif
#   From: 2010.05.17/outbox.cif.g08.bks.cpg/sg45_2_cif.got.tgz:2259.got - 2010.06.03 19:51:22.
