data_PCOD9377902
_publ_section_title
;
Structure prediction by ZEFSAII (Michael W. Deem and Ramdas Pophale) SiO2 
 PCOD9377902
Probable space group: I M A 2
;
_chemical_formula_sum "Si O2"
_cell_formula_units_Z 64
_cell_length_a 21.022486
_cell_length_b 9.029071
_cell_length_c 14.961571
_cell_angle_alpha 90.000000
_cell_angle_beta 90.000000
_cell_angle_gamma 90.000000
_cell_volume 2839.908437
_symmetry_space_group_name_H-M "I M A 2"
_symmetry_group_IT_number 46
_symmetry_cell_setting 'orthorhombic'
loop_
_space_group_symop_operation_xyz
x,y,z
-x,-y,z
1/2-x,y,z
1/2+x,-y,z
1/2+x,1/2+y,1/2+z
1/2-x,1/2-y,1/2+z
-x,1/2+y,1/2+z
x,1/2-y,1/2+z
loop_
_atom_site_type_symbol
_atom_site_label
_atom_site_fract_x
_atom_site_fract_y
_atom_site_fract_z
Si Si1 0.040611 0.126252 0.994670
Si Si2 0.179769 0.963181 0.814537
Si Si3 0.940744 0.907484 0.789393
Si Si4 0.821478 0.155423 0.269814
Si Si5 0.821393 0.240391 0.569661
Si Si6 0.066429 0.057027 0.302149
Si Si7 0.179151 0.417522 0.508956
Si Si8 0.447608 0.596603 0.995732
O O1 0.057587 0.062285 0.896580
O O2 0.000000 0.000000 0.044859
O O3 0.989889 0.256479 0.978612
O O4 0.111467 0.160544 0.033241
O O5 0.250000 0.962659 0.775122
O O6 0.164157 0.790705 0.838456
O O7 0.124367 0.025552 0.753692
O O8 0.183501 0.067707 0.901556
O O9 0.936944 0.731275 0.785537
O O10 0.000000 0.000000 0.753340
O O11 0.750000 0.100325 0.286471
O O12 0.823202 0.240924 0.176137
O O13 0.871862 0.024964 0.265399
O O14 0.750000 0.189110 0.542342
O O15 0.827689 0.411403 0.538383
O O16 0.880663 0.143663 0.537022
O O17 0.066373 0.999417 0.405847
O O18 0.000000 0.000000 0.263704
O O19 0.250000 0.364665 0.540581
O O20 0.500000 0.500000 0.049373
#
# Coordination Sequence:
#
# PCOD9377902 Si02
#       8
#     8   8   8   8   8   8   8   8
#     4  10  17  31  55  84 114 147 184 238 307 355
#     4   9  18  33  56  83 108 146 195 240 291 359
#     4  10  19  32  57  85 115 153 185 242 306 362
#     4  10  22  39  60  84 121 162 203 250 302 363
#     4  10  21  39  59  83 118 164 205 243 299 368
#     4  11  21  37  58  93 120 149 197 257 310 358
#     4   9  17  31  57  85 108 144 198 242 284 355
#     4  11  21  37  60  90 124 152 197 258 308 356
#
# _framework density 22.535938000000002
#
# number of rings (size 3 to 8) (size 9 to 14) (size 15 to 20)
#    0.000    2.000    3.750    1.500    1.750    2.000 
#    2.250    2.500    0.000    0.000    0.000    0.000 
#    0.000    0.000    0.000    0.000    0.000    0.000 
#
# Total GULP energy -178221.135438 kJ/mol
# GULP energy per Si atom -5569.410482 kJ/mol
# Density = 2.248465 g / cm^3
# Si number density = 22.535938 Si / 1000 Ang^3
#
#
#
# Elastic Constant Matrix: (Units=GPa)
#
#
# Indices 1 2 3 4 5 6 
#
# 1 232.4823 101.5913 16.9787 0.0000 0.0000 0.0000
# 2 101.5913 115.3200 3.6567 0.0000 0.0000 0.0000
# 3 16.9787 3.6567 38.8651 0.0000 0.0000 0.0000
# 4 0.0000 0.0000 0.0000 -4.1387 0.0000 0.0000
# 5 0.0000 0.0000 0.0000 0.0000 15.7354 0.0000
# 6 0.0000 0.0000 0.0000 0.0000 0.0000 44.8893
#
#
#
# Elastic Compliance Matrix: (Units=1/GPa)
#
#
# Indices 1 2 3 4 5 6 
#
# 1 0.007241 -0.006298 -0.002571 0.000000 0.000000 0.000000
# 2 -0.006298 0.014174 0.001418 0.000000 0.000000 0.000000
# 3 -0.002571 0.001418 0.026720 0.000000 0.000000 0.000000
# 4 0.000000 0.000000 0.000000 -0.241623 0.000000 0.000000
# 5 0.000000 0.000000 0.000000 0.000000 0.063551 0.000000
# 6 0.000000 0.000000 0.000000 0.000000 0.000000 0.022277
#
#
# Mechanical properties :
#
#
# Convention : Reuss Voigt Hill
#
# Bulk Modulus (GPa) = 30.09008 70.12454 50.10731
# Shear Modulus (GPa) = -61.21406 28.92659 -16.14374
#
# Velocity S-wave (km/s) = -5.21745 3.58659 -2.67938
# Velocity P-wave (km/s) = 4.78694 6.95240 3.56518
#
# Compressibility (1/GPa) = 0.03323355
#
# Stress axis : x y z
#
# Youngs Moduli (GPa) = 138.10095 70.54976 37.42550
#
# Poissons Ratio (x) = 0.44429 0.09621
# Poissons Ratio (y) = 0.86969 -0.05305
# Poissons Ratio (z) = 0.35504 -0.10001
#
# Static dielectric constant tensor:
#      x y z
#    x 1.944180 0.000000 0.000000 
#    y 0.000000 1.912920 0.000000 
#    z 0.000000 0.000000 1.912430 
# 
# From -- ./inp_files/20239.got.cif
#   From: 2010.05.17/outbox.cif.g08.bks.cpg/sg46_11_cif.got.tgz:20239.got - 2010.06.03 19:58:25.
