data_PCOD9377151
_publ_section_title
;
Structure prediction by ZEFSAII (Michael W. Deem and Ramdas Pophale) SiO2 
 PCOD9377151
Probable space group: I B A 2
;
_chemical_formula_sum "Si O2"
_cell_formula_units_Z 60
_cell_length_a 20.310782
_cell_length_b 16.236597
_cell_length_c 8.924917
_cell_angle_alpha 90.000000
_cell_angle_beta 90.000000
_cell_angle_gamma 90.000000
_cell_volume 2943.241119
_symmetry_space_group_name_H-M "I B A 2"
_symmetry_group_IT_number 45
_symmetry_cell_setting 'orthorhombic'
loop_
_space_group_symop_operation_xyz
x,y,z
-x,-y,z
-x,y,1/2+z
x,-y,1/2+z
1/2+x,1/2+y,1/2+z
1/2-x,1/2-y,1/2+z
1/2-x,1/2+y,z
1/2+x,1/2-y,z
loop_
_atom_site_type_symbol
_atom_site_label
_atom_site_fract_x
_atom_site_fract_y
_atom_site_fract_z
Si Si1 0.500000 0.500000 0.368230
Si Si2 0.547333 0.618587 0.114349
Si Si3 0.821503 0.226575 0.105994
Si Si4 0.634212 0.038936 0.777701
Si Si5 0.190750 0.304317 0.935650
Si Si6 0.366111 0.892979 0.460013
Si Si7 0.999817 0.369547 0.312096
Si Si8 0.442493 0.761046 0.051873
O O1 0.538175 0.563770 0.262143
O O2 0.454712 0.555208 0.475781
O O3 0.614599 0.669193 0.116169
O O4 0.484952 0.681019 0.094861
O O5 0.804763 0.258815 0.273621
O O6 0.757955 0.189453 0.026332
O O7 0.842409 0.302144 0.996367
O O8 0.652231 0.057833 0.608618
O O9 0.555803 0.061598 0.786084
O O10 0.665048 0.105219 0.890603
O O11 0.656196 0.947755 0.821185
O O12 0.136189 0.257361 0.037910
O O13 0.444404 0.892364 0.431641
O O14 0.036991 0.333893 0.166907
O O15 0.963229 0.291236 0.386107
#
# Coordination Sequence:
#
# PCOD9377151 Si02
#       8
#     4   8   8   8   8   8   8   8
#     4  10  24  38  68 100 124 166 218 276 346 370
#     4  11  21  43  66  97 131 163 217 282 325 394
#     4  11  24  45  67  93 131 176 227 269 329 398
#     4  10  23  39  55  93 134 165 214 268 320 390
#     4  10  25  42  63  96 128 176 224 271 327 397
#     4  11  23  38  60  91 127 171 211 264 320 391
#     4  11  20  35  61  94 126 168 207 260 326 379
#     4  11  21  38  67  94 129 166 215 271 330 391
#
# _framework density 20.38569
#
# number of rings (size 3 to 8) (size 9 to 14) (size 15 to 20)
#    0.000    1.333    2.667    3.600    5.600    1.067 
#    0.000    6.667    0.000    0.000    0.000    0.000 
#    0.000    0.000    0.000    0.000    0.000    0.000 
#
# Total GULP energy -167452.685287 kJ/mol
# GULP energy per Si atom -5581.756176 kJ/mol
# Density = 2.033929 g / cm^3
# Si number density = 20.385690 Si / 1000 Ang^3
#
#
#
# Elastic Constant Matrix: (Units=GPa)
#
#
# Indices 1 2 3 4 5 6 
#
# 1 81.0951 25.9983 34.3314 0.0000 0.0000 0.0000
# 2 25.9983 66.3026 28.3716 0.0000 0.0000 0.0000
# 3 34.3314 28.3716 69.3012 0.0000 0.0000 0.0000
# 4 0.0000 0.0000 0.0000 30.8086 0.0000 0.0000
# 5 0.0000 0.0000 0.0000 0.0000 26.9125 0.0000
# 6 0.0000 0.0000 0.0000 0.0000 0.0000 14.0950
#
#
#
# Elastic Compliance Matrix: (Units=1/GPa)
#
#
# Indices 1 2 3 4 5 6 
#
# 1 0.016266 -0.003552 -0.006604 0.000000 0.000000 0.000000
# 2 -0.003552 0.019062 -0.006044 0.000000 0.000000 0.000000
# 3 -0.006604 -0.006044 0.020176 0.000000 0.000000 0.000000
# 4 0.000000 0.000000 0.000000 0.032458 0.000000 0.000000
# 5 0.000000 0.000000 0.000000 0.000000 0.037157 0.000000
# 6 0.000000 0.000000 0.000000 0.000000 0.000000 0.070947
#
#
# Mechanical properties :
#
#
# Convention : Reuss Voigt Hill
#
# Bulk Modulus (GPa) = 43.28435 43.78909 43.53672
# Shear Modulus (GPa) = 21.17150 22.89639 22.03395
#
# Velocity S-wave (km/s) = 3.22615 3.35499 3.29120
# Velocity P-wave (km/s) = 5.92926 6.04441 5.98711
#
# Compressibility (1/GPa) = 0.02310304
#
# Stress axis : x y z
#
# Youngs Moduli (GPa) = 61.47926 52.46166 49.56501
#
# Poissons Ratio (x) = 0.18636 0.32731
# Poissons Ratio (y) = 0.21839 0.29957
# Poissons Ratio (z) = 0.40599 0.31708
#
# Static dielectric constant tensor:
#      x y z
#    x 1.742030 0.000000 0.000000 
#    y 0.000000 1.760120 0.000000 
#    z 0.000000 0.000000 1.762830 
# 
# From -- ./inp_files/2146.got.cif
#   From: 2010.05.17/outbox.cif.g08.bks.cpg/sg45_2_cif.got.tgz:2146.got - 2010.06.03 19:51:22.
