data_PCOD9377773
_publ_section_title
;
Structure prediction by ZEFSAII (Michael W. Deem and Ramdas Pophale) SiO2 
 PCOD9377773
Probable space group: I M A 2
;
_chemical_formula_sum "Si O2"
_cell_formula_units_Z 36
_cell_length_a 9.695411
_cell_length_b 22.605858
_cell_length_c 6.912007
_cell_angle_alpha 90.000000
_cell_angle_beta 90.000000
_cell_angle_gamma 90.000000
_cell_volume 1514.925893
_symmetry_space_group_name_H-M "I M A 2"
_symmetry_group_IT_number 46
_symmetry_cell_setting 'orthorhombic'
loop_
_space_group_symop_operation_xyz
x,y,z
-x,-y,z
1/2-x,y,z
1/2+x,-y,z
1/2+x,1/2+y,1/2+z
1/2-x,1/2-y,1/2+z
-x,1/2+y,1/2+z
x,1/2-y,1/2+z
loop_
_atom_site_type_symbol
_atom_site_label
_atom_site_fract_x
_atom_site_fract_y
_atom_site_fract_z
Si Si1 0.981710 0.082331 0.161810
Si Si2 0.250000 0.003732 0.072940
Si Si3 0.906431 0.799126 0.247793
Si Si4 0.087278 0.941406 0.615757
Si Si5 0.406870 0.333499 0.194886
O O1 0.129030 0.052103 0.129419
O O2 0.001631 0.152854 0.137346
O O3 0.931131 0.070041 0.383635
O O4 0.869586 0.047193 0.040535
O O5 0.750000 0.795850 0.167485
O O6 0.897579 0.824498 0.463422
O O7 0.952859 0.731293 0.265141
O O8 0.250000 0.950442 0.646435
O O9 0.013188 0.886501 0.719786
O O10 0.000000 0.000000 0.658459
O O11 0.250000 0.348071 0.260503
#
# Coordination Sequence:
#
# PCOD9377773 Si02
#       5
#     8   4   8   8   8
#     4  10  16  26  43  69  99 123 150 201 242 287
#     4  10  16  24  42  70  96 124 152 198 252 272
#     4   9  17  31  48  71  95 130 163 191 233 283
#     4  11  18  28  45  72  96 123 156 202 243 282
#     4   9  19  32  50  71  96 130 161 194 234 284
#
# _framework density 23.763539999999999
#
# number of rings (size 3 to 8) (size 9 to 14) (size 15 to 20)
#    0.000    2.222    4.444    0.667    1.556    0.000 
#    2.000    0.000    0.000    0.000    5.778    0.000 
#    0.000    0.000    0.000    0.000    0.000    0.000 
#
# Total GULP energy -100210.531323 kJ/mol
# GULP energy per Si atom -5567.251740 kJ/mol
# Density = 2.370945 g / cm^3
# Si number density = 23.763540 Si / 1000 Ang^3
#
#
#
# Elastic Constant Matrix: (Units=GPa)
#
#
# Indices 1 2 3 4 5 6 
#
# 1 234.9539 117.5161 28.4235 -0.0003 0.0000 0.0000
# 2 117.5161 229.0593 26.5627 0.0000 -0.0001 0.0000
# 3 28.4235 26.5627 76.9488 -0.0014 0.0000 0.0002
# 4 -0.0003 0.0000 -0.0014 29.8437 0.0000 -0.0001
# 5 0.0000 -0.0001 0.0000 0.0000 26.4804 0.0001
# 6 0.0000 0.0000 0.0002 -0.0001 0.0001 36.7332
#
#
#
# Elastic Compliance Matrix: (Units=1/GPa)
#
#
# Indices 1 2 3 4 5 6 
#
# 1 0.005824 -0.002853 -0.001167 0.000000 0.000000 0.000000
# 2 -0.002853 0.005945 -0.000998 0.000000 0.000000 0.000000
# 3 -0.001167 -0.000998 0.013771 0.000001 0.000000 0.000000
# 4 0.000000 0.000000 0.000001 0.033508 0.000000 0.000000
# 5 0.000000 0.000000 0.000000 0.000000 0.037764 0.000000
# 6 0.000000 0.000000 0.000000 0.000000 0.000000 0.027223
#
#
# Mechanical properties :
#
#
# Convention : Reuss Voigt Hill
#
# Bulk Modulus (GPa) = 64.49590 98.44070 81.46830
# Shear Modulus (GPa) = 35.90942 43.17543 39.54243
#
# Velocity S-wave (km/s) = 3.89152 4.26711 4.08364
# Velocity P-wave (km/s) = 6.88415 8.11127 7.52277
#
# Compressibility (1/GPa) = 0.01550486
#
# Stress axis : x y z
#
# Youngs Moduli (GPa) = 171.70010 168.20809 72.61509
#
# Poissons Ratio (x) = 0.47985 0.08471
# Poissons Ratio (y) = 0.48981 0.07250
# Poissons Ratio (z) = 0.20030 0.16795
#
# Static dielectric constant tensor:
#      x y z
#    x 1.772720 0.000000 0.000000 
#    y 0.000000 1.900370 0.000000 
#    z 0.000000 0.000000 2.143550 
# 
# From -- ./inp_files/3402.got.cif
#   From: 2010.05.17/outbox.cif.g08.bks.cpg/sg46_2_cif.got.tgz:3402.got - 2010.06.03 19:58:25.
