data_PCOD9377650
_publ_section_title
;
Structure prediction by ZEFSAII (Michael W. Deem and Ramdas Pophale) SiO2 
 PCOD9377650
Probable space group: I B A 2
;
_chemical_formula_sum "Si O2"
_cell_formula_units_Z 56
_cell_length_a 20.024453
_cell_length_b 12.703376
_cell_length_c 9.061082
_cell_angle_alpha 90.000000
_cell_angle_beta 90.000000
_cell_angle_gamma 90.000000
_cell_volume 2304.941327
_symmetry_space_group_name_H-M "I B A 2"
_symmetry_group_IT_number 45
_symmetry_cell_setting 'orthorhombic'
loop_
_space_group_symop_operation_xyz
x,y,z
-x,-y,z
-x,y,1/2+z
x,-y,1/2+z
1/2+x,1/2+y,1/2+z
1/2-x,1/2-y,1/2+z
1/2-x,1/2+y,z
1/2+x,1/2-y,z
loop_
_atom_site_type_symbol
_atom_site_label
_atom_site_fract_x
_atom_site_fract_y
_atom_site_fract_z
Si Si1 0.137473 0.412540 0.300430
Si Si2 0.131508 0.733212 0.064401
Si Si3 0.551284 0.418543 0.280062
Si Si4 0.983030 0.219776 0.527885
Si Si5 0.065998 0.432038 0.003059
Si Si6 0.821460 0.051342 0.962655
Si Si7 0.235890 0.565226 0.187120
O O1 0.137122 0.306207 0.393220
O O2 0.081330 0.418859 0.175835
O O3 0.122766 0.503808 0.419864
O O4 0.203596 0.449811 0.217277
O O5 0.156649 0.852952 0.069362
O O6 0.052123 0.732071 0.097167
O O7 0.179039 0.650480 0.147617
O O8 0.500000 0.500000 0.209216
O O9 0.562961 0.334862 0.150362
O O10 0.510295 0.361215 0.408779
O O11 0.613951 0.471872 0.360245
O O12 0.944956 0.314490 0.448753
O O13 0.000000 0.500000 0.982071
O O14 0.769838 0.094194 0.841110
O O15 0.788619 0.956499 0.055240
#
# Coordination Sequence:
#
# PCOD9377650 Si02
#       7
#     8   8   8   8   8   8   8
#     4  12  23  43  65 104 148 182 235 289 359 439
#     4  11  25  46  69 107 144 181 246 298 363 444
#     4  11  27  50  74 105 140 186 250 301 361 432
#     4  11  25  45  72 108 142 186 235 301 370 433
#     4  12  23  37  69 101 149 184 227 288 368 434
#     4  11  28  47  75 102 142 191 246 298 363 441
#     4  12  25  49  71 102 143 194 236 304 364 432
#
# _framework density 24.295629000000002
#
# number of rings (size 3 to 8) (size 9 to 14) (size 15 to 20)
#    0.000    0.571    4.286    2.571   12.000    0.000 
#    2.571    0.000    0.000    0.000    0.000    0.000 
#    0.000    0.000    0.000    0.000    0.000    0.000 
#
# Total GULP energy -156640.603954 kJ/mol
# GULP energy per Si atom -5594.307284 kJ/mol
# Density = 2.424033 g / cm^3
# Si number density = 24.295629 Si / 1000 Ang^3
#
#
#
# Elastic Constant Matrix: (Units=GPa)
#
#
# Indices 1 2 3 4 5 6 
#
# 1 57.0588 9.9101 -9.8512 0.0000 0.0000 0.0000
# 2 9.9101 54.3790 -4.4787 0.0000 0.0000 0.0000
# 3 -9.8512 -4.4787 71.7010 0.0000 0.0000 0.0000
# 4 0.0000 0.0000 0.0000 26.0516 0.0000 0.0000
# 5 0.0000 0.0000 0.0000 0.0000 42.5358 0.0000
# 6 0.0000 0.0000 0.0000 0.0000 0.0000 35.7714
#
#
#
# Elastic Compliance Matrix: (Units=1/GPa)
#
#
# Indices 1 2 3 4 5 6 
#
# 1 0.018481 -0.003175 0.002341 0.000000 0.000000 0.000000
# 2 -0.003175 0.019030 0.000752 0.000000 0.000000 0.000000
# 3 0.002341 0.000752 0.014315 0.000000 0.000000 0.000000
# 4 0.000000 0.000000 0.000000 0.038385 0.000000 0.000000
# 5 0.000000 0.000000 0.000000 0.000000 0.023510 0.000000
# 6 0.000000 0.000000 0.000000 0.000000 0.000000 0.027955
#
#
# Mechanical properties :
#
#
# Convention : Reuss Voigt Hill
#
# Bulk Modulus (GPa) = 19.35622 19.36657 19.36140
# Shear Modulus (GPa) = 31.43424 33.37566 32.40495
#
# Velocity S-wave (km/s) = 3.60088 3.71041 3.65605
# Velocity P-wave (km/s) = 5.02719 5.13271 5.08022
#
# Compressibility (1/GPa) = 0.05166299
#
# Stress axis : x y z
#
# Youngs Moduli (GPa) = 54.10835 52.54832 69.85472
#
# Poissons Ratio (x) = 0.16686 -0.16352
# Poissons Ratio (y) = 0.17181 -0.05256
# Poissons Ratio (z) = -0.12666 -0.03954
#
# Static dielectric constant tensor:
#      x y z
#    x 1.984290 0.000000 0.000000 
#    y 0.000000 1.955420 0.000000 
#    z 0.000000 0.000000 1.905230 
# 
# From -- ./inp_files/2343.got.cif
#   From: 2010.05.17/outbox.cif.g08.bks.cpg/sg45_2_cif.got.tgz:2343.got - 2010.06.03 19:51:22.
