data_PCOD9377583
_publ_section_title
;
Structure prediction by ZEFSAII (Michael W. Deem and Ramdas Pophale) SiO2 
 PCOD9377583
Probable space group: I B A 2
;
_chemical_formula_sum "Si O2"
_cell_formula_units_Z 48
_cell_length_a 7.681263
_cell_length_b 28.102245
_cell_length_c 7.905534
_cell_angle_alpha 90.000000
_cell_angle_beta 90.000000
_cell_angle_gamma 90.000000
_cell_volume 1706.494378
_symmetry_space_group_name_H-M "I B A 2"
_symmetry_group_IT_number 45
_symmetry_cell_setting 'orthorhombic'
loop_
_space_group_symop_operation_xyz
x,y,z
-x,-y,z
-x,y,1/2+z
x,-y,1/2+z
1/2+x,1/2+y,1/2+z
1/2-x,1/2-y,1/2+z
1/2-x,1/2+y,z
1/2+x,1/2-y,z
loop_
_atom_site_type_symbol
_atom_site_label
_atom_site_fract_x
_atom_site_fract_y
_atom_site_fract_z
Si Si1 0.238782 0.634758 0.851070
Si Si2 0.758057 0.805977 0.305792
Si Si3 0.680118 0.483783 0.581947
Si Si4 0.418366 0.779641 0.156444
Si Si5 0.573747 0.389129 0.503940
Si Si6 0.462373 0.950437 0.473433
O O1 0.185170 0.685736 0.782923
O O2 0.351678 0.613728 0.693999
O O3 0.073548 0.601345 0.898042
O O4 0.380413 0.632105 0.998567
O O5 0.609708 0.802197 0.163491
O O6 0.669581 0.782263 0.473521
O O7 0.912166 0.773022 0.234254
O O8 0.816183 0.856186 0.378512
O O9 0.500000 0.500000 0.673668
O O10 0.595070 0.444413 0.457463
O O11 0.774180 0.533935 0.544392
O O12 0.868756 0.454014 0.595017
O O13 0.500000 0.000000 0.369545
#
# Coordination Sequence:
#
# PCOD9377583 Si02
#       6
#     8   8   8   8   8   8
#     4  11  23  42  63  99 132 179 227 282 341 418
#     4  11  24  42  68  96 134 177 226 289 347 423
#     4   9  17  39  64  92 130 171 219 272 346 401
#     4  11  24  42  68  96 135 175 231 282 354 416
#     4  11  23  41  64  94 134 174 225 278 343 408
#     4   8  19  37  64  92 132 168 221 275 341 404
#
# _framework density 28.127839000000002
#
# number of rings (size 3 to 8) (size 9 to 14) (size 15 to 20)
#    1.000    0.667    1.667    3.000    0.000    5.333 
#    6.000    1.667    0.000    0.000    0.000    0.000 
#    0.000    0.000    0.000    0.000    0.000    0.000 
#
# Total GULP energy -133751.649029 kJ/mol
# GULP energy per Si atom -5572.985376 kJ/mol
# Density = 2.806382 g / cm^3
# Si number density = 28.127839 Si / 1000 Ang^3
#
#
#
# Elastic Constant Matrix: (Units=GPa)
#
#
# Indices 1 2 3 4 5 6 
#
# 1 187.9260 27.3196 19.6981 0.0002 -0.0002 0.0000
# 2 27.3196 103.6570 24.9739 0.0005 -0.0005 0.0000
# 3 19.6981 24.9739 94.7168 0.0015 -0.0002 0.0000
# 4 0.0002 0.0005 0.0015 21.7850 -0.0004 -0.0001
# 5 -0.0002 -0.0005 -0.0002 -0.0004 -6.9127 0.0001
# 6 0.0000 0.0000 0.0000 -0.0001 0.0001 62.4554
#
#
#
# Elastic Compliance Matrix: (Units=1/GPa)
#
#
# Indices 1 2 3 4 5 6 
#
# 1 0.005593 -0.001275 -0.000827 0.000000 0.000000 0.000000
# 2 -0.001275 0.010592 -0.002528 0.000000 -0.000001 0.000000
# 3 -0.000827 -0.002528 0.011396 -0.000001 0.000000 0.000000
# 4 0.000000 0.000000 -0.000001 0.045903 -0.000003 0.000000
# 5 0.000000 -0.000001 0.000000 -0.000003 -0.144662 0.000000
# 6 0.000000 0.000000 0.000000 0.000000 0.000000 0.016011
#
#
# Mechanical properties :
#
#
# Convention : Reuss Voigt Hill
#
# Bulk Modulus (GPa) = 54.57796 58.92035 56.74915
# Shear Modulus (GPa) = -125.63104 36.41942 -44.60581
#
# Velocity S-wave (km/s) = -6.69039 3.60221 -3.98656
# Velocity P-wave (km/s) = 6.34319 6.18822 0.98539
#
# Compressibility (1/GPa) = 0.01832242
#
# Stress axis : x y z
#
# Youngs Moduli (GPa) = 178.78617 94.40902 87.74802
#
# Poissons Ratio (x) = 0.12036 0.07257
# Poissons Ratio (y) = 0.22793 0.22180
# Poissons Ratio (z) = 0.14787 0.23864
#
# Static dielectric constant tensor:
#      x y z
#    x 2.302360 0.000000 0.000000 
#    y 0.000000 2.180820 0.000000 
#    z 0.000000 0.000000 2.249740 
# 
# From -- ./inp_files/1078.got.cif
#   From: 2010.05.17/outbox.cif.g08.bks.cpg/sg45_1_cif.got.tgz:1078.got - 2010.06.03 19:51:22.
