data_PCOD9377999
_publ_section_title
;
Structure prediction by ZEFSAII (Michael W. Deem and Ramdas Pophale) SiO2 
 PCOD9377999
Probable space group: I M A 2
;
_chemical_formula_sum "Si O2"
_cell_formula_units_Z 56
_cell_length_a 9.190665
_cell_length_b 18.711085
_cell_length_c 21.268846
_cell_angle_alpha 90.000000
_cell_angle_beta 90.000000
_cell_angle_gamma 90.000000
_cell_volume 3657.546319
_symmetry_space_group_name_H-M "I M A 2"
_symmetry_group_IT_number 46
_symmetry_cell_setting 'orthorhombic'
loop_
_space_group_symop_operation_xyz
x,y,z
-x,-y,z
1/2-x,y,z
1/2+x,-y,z
1/2+x,1/2+y,1/2+z
1/2-x,1/2-y,1/2+z
-x,1/2+y,1/2+z
x,1/2-y,1/2+z
loop_
_atom_site_type_symbol
_atom_site_label
_atom_site_fract_x
_atom_site_fract_y
_atom_site_fract_z
Si Si1 0.917315 0.784614 0.630320
Si Si2 0.425018 0.153340 0.430829
Si Si3 0.925472 0.575969 0.063194
Si Si4 0.425181 0.577288 0.814464
Si Si5 0.423857 0.575714 0.554472
Si Si6 0.923712 0.154824 0.184277
Si Si7 0.417166 0.297086 0.495690
O O1 0.750000 0.788744 0.651356
O O2 0.971593 0.864183 0.614288
O O3 0.917786 0.745190 0.562317
O O4 0.006213 0.732654 0.675354
O O5 0.250000 0.148439 0.421056
O O6 0.458883 0.107538 0.493764
O O7 0.512461 0.122340 0.372573
O O8 0.459759 0.236254 0.445803
O O9 0.750000 0.570196 0.066800
O O10 0.000000 0.500000 0.071904
O O11 0.500000 0.500000 0.815850
O O12 0.250000 0.570588 0.818334
O O13 0.463496 0.616365 0.748999
O O14 0.500000 0.500000 0.544696
O O15 0.250000 0.569048 0.551717
O O16 0.464823 0.606187 0.623922
O O17 0.480943 0.634951 0.505352
O O18 0.750000 0.162379 0.182380
O O19 0.250000 0.319255 0.484066
#
# Coordination Sequence:
#
# PCOD9377999 Si02
#       7
#     8   8   8   8   8   8   8
#     4   8  15  28  45  63  84 112 145 180 219 264
#     4   9  18  32  47  64  89 120 152 183 217 259
#     4   9  17  28  43  66  92 116 144 179 219 261
#     4  11  22  33  45  64  91 121 154 186 215 252
#     4  10  18  28  44  66  91 117 147 182 222 265
#     4   9  19  32  44  62  88 118 151 185 218 256
#     4   8  15  29  46  63  86 114 144 181 223 265
#
# _framework density 15.310810999999999
#
# number of rings (size 3 to 8) (size 9 to 14) (size 15 to 20)
#    0.000    2.857    0.000    3.429    0.000    4.571 
#    0.000    2.857    0.000    0.000    0.000    1.000 
#    0.000    4.571    0.000    0.000    0.000    0.000 
#
# Total GULP energy -155978.020914 kJ/mol
# GULP energy per Si atom -5570.643604 kJ/mol
# Density = 1.527596 g / cm^3
# Si number density = 15.310811 Si / 1000 Ang^3
#
#
#
# Elastic Constant Matrix: (Units=GPa)
#
#
# Indices 1 2 3 4 5 6 
#
# 1 43.6892 63.0004 37.6567 0.0000 0.0000 0.0000
# 2 63.0004 149.6674 59.0778 0.0000 0.0000 0.0000
# 3 37.6567 59.0778 69.7390 0.0000 0.0000 0.0000
# 4 0.0000 0.0000 0.0000 23.9804 0.0000 0.0000
# 5 0.0000 0.0000 0.0000 0.0000 20.7448 0.0000
# 6 0.0000 0.0000 0.0000 0.0000 0.0000 31.3231
#
#
#
# Elastic Compliance Matrix: (Units=1/GPa)
#
#
# Indices 1 2 3 4 5 6 
#
# 1 0.073278 -0.022876 -0.020188 0.000000 0.000000 0.000000
# 2 -0.022876 0.017180 -0.002201 0.000000 0.000000 0.000000
# 3 -0.020188 -0.002201 0.027105 0.000000 0.000000 0.000000
# 4 0.000000 0.000000 0.000000 0.041701 0.000000 0.000000
# 5 0.000000 0.000000 0.000000 0.000000 0.048205 0.000000
# 6 0.000000 0.000000 0.000000 0.000000 0.000000 0.031925
#
#
# Mechanical properties :
#
#
# Convention : Reuss Voigt Hill
#
# Bulk Modulus (GPa) = 36.99479 64.72949 50.86214
# Shear Modulus (GPa) = 14.75210 22.10036 18.42623
#
# Velocity S-wave (km/s) = 3.10741 3.80340 3.47288
# Velocity P-wave (km/s) = 6.09013 7.85217 7.02660
#
# Compressibility (1/GPa) = 0.02703084
#
# Stress axis : x y z
#
# Youngs Moduli (GPa) = 13.64672 58.20824 36.89394
#
# Poissons Ratio (x) = 1.33159 0.74483
# Poissons Ratio (y) = 0.31219 0.08120
# Poissons Ratio (z) = 0.27551 0.12811
#
# Static dielectric constant tensor:
#      x y z
#    x 1.511050 0.000000 0.000000 
#    y 0.000000 1.507990 0.000000 
#    z 0.000000 0.000000 1.496910 
# 
# From -- ./inp_files/21209.got.cif
#   From: 2010.05.17/outbox.cif.g08.bks.cpg/sg46_11_cif.got.tgz:21209.got - 2010.06.03 19:58:25.
