data_PCOD9377998
_publ_section_title
;
Structure prediction by ZEFSAII (Michael W. Deem and Ramdas Pophale) SiO2 
 PCOD9377998
Probable space group: I M A 2
;
_chemical_formula_sum "Si O2"
_cell_formula_units_Z 56
_cell_length_a 8.461930
_cell_length_b 19.165682
_cell_length_c 21.608239
_cell_angle_alpha 90.000000
_cell_angle_beta 90.000000
_cell_angle_gamma 90.000000
_cell_volume 3504.395235
_symmetry_space_group_name_H-M "I M A 2"
_symmetry_group_IT_number 46
_symmetry_cell_setting 'orthorhombic'
loop_
_space_group_symop_operation_xyz
x,y,z
-x,-y,z
1/2-x,y,z
1/2+x,-y,z
1/2+x,1/2+y,1/2+z
1/2-x,1/2-y,1/2+z
-x,1/2+y,1/2+z
x,1/2-y,1/2+z
loop_
_atom_site_type_symbol
_atom_site_label
_atom_site_fract_x
_atom_site_fract_y
_atom_site_fract_z
Si Si1 0.560214 0.920918 0.949840
Si Si2 0.561469 0.577187 0.698669
Si Si3 0.440324 0.150165 0.822991
Si Si4 0.559822 0.348604 0.573930
Si Si5 0.440358 0.283360 0.755504
Si Si6 0.939868 0.077915 0.697442
Si Si7 0.437275 0.788917 0.632114
O O1 0.750000 0.921378 0.949998
O O2 0.504031 0.881443 0.887719
O O3 0.500000 0.000000 0.949211
O O4 0.501601 0.882504 0.011328
O O5 0.500000 0.500000 0.710962
O O6 0.750000 0.574567 0.693406
O O7 0.495924 0.606774 0.633474
O O8 0.520304 0.634871 0.751228
O O9 0.250000 0.144077 0.821411
O O10 0.479497 0.232066 0.812192
O O11 0.504722 0.107126 0.764215
O O12 0.750000 0.348754 0.573940
O O13 0.501764 0.268310 0.583278
O O14 0.250000 0.277801 0.745653
O O15 0.528895 0.249134 0.697331
O O16 0.750000 0.078201 0.697147
O O17 0.998563 0.133016 0.645018
O O18 0.000000 0.000000 0.688096
O O19 0.250000 0.794866 0.621778
#
# Coordination Sequence:
#
# PCOD9377998 Si02
#       7
#     8   8   8   8   8   8   8
#     4  11  22  33  45  63  88 117 149 180 210 248
#     4  10  18  28  44  66  91 115 141 175 216 259
#     4   9  18  32  47  63  86 116 148 180 213 251
#     4  10  19  32  47  62  85 116 149 181 214 252
#     4   8  15  28  45  63  83 110 142 176 214 255
#     4  10  18  28  44  67  92 115 141 174 215 258
#     4   8  16  29  44  62  84 111 141 176 215 255
#
# _framework density 15.979932
#
# number of rings (size 3 to 8) (size 9 to 14) (size 15 to 20)
#    0.000    2.571    0.000    2.571    0.000    4.000 
#    0.000    0.000    0.000    0.000    0.000    1.000 
#    0.000    6.857    0.000    0.000    0.000    0.000 
#
# Total GULP energy -155876.196927 kJ/mol
# GULP energy per Si atom -5567.007033 kJ/mol
# Density = 1.594356 g / cm^3
# Si number density = 15.979932 Si / 1000 Ang^3
#
#
#
# Elastic Constant Matrix: (Units=GPa)
#
#
# Indices 1 2 3 4 5 6 
#
# 1 24.6278 27.2072 17.7669 0.0000 0.0000 0.0000
# 2 27.2072 180.6215 74.4377 0.0000 0.0000 0.0000
# 3 17.7669 74.4377 78.7672 0.0000 0.0000 0.0000
# 4 0.0000 0.0000 0.0000 26.6002 0.0000 0.0000
# 5 0.0000 0.0000 0.0000 0.0000 11.2340 0.0000
# 6 0.0000 0.0000 0.0000 0.0000 0.0000 -23.0043
#
#
#
# Elastic Compliance Matrix: (Units=1/GPa)
#
#
# Indices 1 2 3 4 5 6 
#
# 1 0.050926 -0.004811 -0.006941 0.000000 0.000000 0.000000
# 2 -0.004811 0.009523 -0.007914 0.000000 0.000000 0.000000
# 3 -0.006941 -0.007914 0.021740 0.000000 0.000000 0.000000
# 4 0.000000 0.000000 0.000000 0.037594 0.000000 0.000000
# 5 0.000000 0.000000 0.000000 0.000000 0.089016 0.000000
# 6 0.000000 0.000000 0.000000 0.000000 0.000000 -0.043470
#
#
# Mechanical properties :
#
#
# Convention : Reuss Voigt Hill
#
# Bulk Modulus (GPa) = 23.33284 58.09336 40.71310
# Shear Modulus (GPa) = 22.83674 13.93963 18.38818
#
# Velocity S-wave (km/s) = 3.78443 2.95671 3.39588
# Velocity P-wave (km/s) = 5.80766 6.93463 6.39601
#
# Compressibility (1/GPa) = 0.04285804
#
# Stress axis : x y z
#
# Youngs Moduli (GPa) = 19.63624 105.01291 45.99734
#
# Poissons Ratio (x) = 0.50517 0.31926
# Poissons Ratio (y) = 0.09446 0.36403
# Poissons Ratio (z) = 0.13629 0.83109
#
# Static dielectric constant tensor:
#      x y z
#    x 1.554900 0.000000 0.000000 
#    y 0.000000 1.585840 0.000000 
#    z 0.000000 0.000000 1.513920 
# 
# From -- ./inp_files/18477.got.cif
#   From: 2010.05.17/outbox.cif.g08.bks.cpg/sg46_10_cif.got.tgz:18477.got - 2010.06.03 19:58:25.
