data_PCOD9377565
_publ_section_title
;
Structure prediction by ZEFSAII (Michael W. Deem and Ramdas Pophale) SiO2 
 PCOD9377565
Probable space group: I B A 2
;
_chemical_formula_sum "Si O2"
_cell_formula_units_Z 64
_cell_length_a 7.768174
_cell_length_b 30.009576
_cell_length_c 11.784317
_cell_angle_alpha 90.000000
_cell_angle_beta 90.000000
_cell_angle_gamma 90.000000
_cell_volume 2747.155360
_symmetry_space_group_name_H-M "I B A 2"
_symmetry_group_IT_number 45
_symmetry_cell_setting 'orthorhombic'
loop_
_space_group_symop_operation_xyz
x,y,z
-x,-y,z
-x,y,1/2+z
x,-y,1/2+z
1/2+x,1/2+y,1/2+z
1/2-x,1/2-y,1/2+z
1/2-x,1/2+y,z
1/2+x,1/2-y,z
loop_
_atom_site_type_symbol
_atom_site_label
_atom_site_fract_x
_atom_site_fract_y
_atom_site_fract_z
Si Si1 0.748193 0.696663 0.518850
Si Si2 0.338021 0.295543 0.986447
Si Si3 0.888132 0.391448 0.903004
Si Si4 0.832079 0.831743 0.247166
Si Si5 0.749219 0.967381 0.071713
Si Si6 0.208269 0.855398 0.176956
Si Si7 0.632136 0.559800 0.020991
Si Si8 0.229693 0.575455 0.294375
O O1 0.541686 0.692599 0.497670
O O2 0.817294 0.742927 0.471722
O O3 0.848255 0.653626 0.472956
O O4 0.756809 0.698989 0.654913
O O5 0.234015 0.314756 0.094824
O O6 0.277395 0.318914 0.872144
O O7 0.812877 0.378133 0.778651
O O8 0.078801 0.407852 0.875446
O O9 0.816738 0.432841 0.976863
O O10 0.778059 0.881894 0.220022
O O11 0.037656 0.834348 0.234609
O O12 0.682692 0.960593 0.200175
O O13 0.952039 0.955670 0.073247
O O14 0.734559 0.019187 0.038911
O O15 0.174885 0.894761 0.085930
O O16 0.619357 0.564931 0.884250
#
# Coordination Sequence:
#
# PCOD9377565 Si02
#       8
#     8   8   8   8   8   8   8   8
#     4  11  26  44  69 102 139 183 233 298 350 435
#     4  11  25  42  69 104 139 182 240 289 364 417
#     4  12  27  46  68 103 149 186 233 295 365 427
#     4  11  22  45  72  95 141 183 241 291 346 425
#     4  11  26  48  70 109 142 187 247 294 355 438
#     4  11  23  45  69  98 137 191 231 295 351 421
#     4  11  25  44  78 101 136 188 248 290 355 429
#     4  12  26  45  73 102 143 189 232 297 362 423
#
# _framework density 23.296824999999998
#
# number of rings (size 3 to 8) (size 9 to 14) (size 15 to 20)
#    0.000    0.750    5.000    1.500    7.000    2.500 
#    0.000    0.000    0.000    0.000    0.000    0.000 
#    0.000    0.000    0.000    0.000    0.000    0.000 
#
# Total GULP energy -178725.395911 kJ/mol
# GULP energy per Si atom -5585.168622 kJ/mol
# Density = 2.324380 g / cm^3
# Si number density = 23.296825 Si / 1000 Ang^3
#
#
#
# Elastic Constant Matrix: (Units=GPa)
#
#
# Indices 1 2 3 4 5 6 
#
# 1 41.3688 4.1928 12.3254 0.0000 0.0000 0.0000
# 2 4.1928 111.9744 25.6755 0.0004 0.0001 0.0001
# 3 12.3254 25.6755 124.4470 0.0004 0.0002 0.0001
# 4 0.0000 0.0004 0.0004 31.1353 0.0001 0.0001
# 5 0.0000 0.0001 0.0002 0.0001 19.0853 0.0000
# 6 0.0000 0.0001 0.0001 0.0001 0.0000 24.5984
#
#
#
# Elastic Compliance Matrix: (Units=1/GPa)
#
#
# Indices 1 2 3 4 5 6 
#
# 1 0.024924 -0.000385 -0.002389 0.000000 0.000000 0.000000
# 2 -0.000385 0.009380 -0.001897 0.000000 0.000000 0.000000
# 3 -0.002389 -0.001897 0.008664 0.000000 0.000000 0.000000
# 4 0.000000 0.000000 0.000000 0.032118 0.000000 0.000000
# 5 0.000000 0.000000 0.000000 0.000000 0.052396 0.000000
# 6 0.000000 0.000000 0.000000 0.000000 0.000000 0.040653
#
#
# Mechanical properties :
#
#
# Convention : Reuss Voigt Hill
#
# Bulk Modulus (GPa) = 29.74043 40.24195 34.99119
# Shear Modulus (GPa) = 26.49911 30.67024 28.58467
#
# Velocity S-wave (km/s) = 3.37628 3.63229 3.50662
# Velocity P-wave (km/s) = 5.29080 5.90783 5.60781
#
# Compressibility (1/GPa) = 0.03362426
#
# Stress axis : x y z
#
# Youngs Moduli (GPa) = 40.12254 106.60935 115.42604
#
# Poissons Ratio (x) = 0.04109 0.27575
# Poissons Ratio (y) = 0.01547 0.21897
# Poissons Ratio (z) = 0.09585 0.20225
#
# Static dielectric constant tensor:
#      x y z
#    x 1.940840 0.000000 0.000000 
#    y 0.000000 1.839800 0.000000 
#    z 0.000000 0.000000 1.865310 
# 
# From -- ./inp_files/3407.got.cif
#   From: 2010.05.17/outbox.cif.g08.bks.cpg/sg45_2_cif.got.tgz:3407.got - 2010.06.03 19:51:22.
