data_PCOD9377036
_publ_section_title
;
Structure prediction by ZEFSAII (Michael W. Deem and Ramdas Pophale) SiO2 
 PCOD9377036
Probable space group: I B A 2
;
_chemical_formula_sum "Si O2"
_cell_formula_units_Z 64
_cell_length_a 8.295069
_cell_length_b 26.658572
_cell_length_c 12.783380
_cell_angle_alpha 90.000000
_cell_angle_beta 90.000000
_cell_angle_gamma 90.000000
_cell_volume 2826.848827
_symmetry_space_group_name_H-M "I B A 2"
_symmetry_group_IT_number 45
_symmetry_cell_setting 'orthorhombic'
loop_
_space_group_symop_operation_xyz
x,y,z
-x,-y,z
-x,y,1/2+z
x,-y,1/2+z
1/2+x,1/2+y,1/2+z
1/2-x,1/2-y,1/2+z
1/2-x,1/2+y,z
1/2+x,1/2-y,z
loop_
_atom_site_type_symbol
_atom_site_label
_atom_site_fract_x
_atom_site_fract_y
_atom_site_fract_z
Si Si1 0.654368 0.475674 0.938380
Si Si2 0.191858 0.096724 0.754087
Si Si3 0.595895 0.859603 0.046047
Si Si4 0.888095 0.543963 0.067578
Si Si5 0.143283 0.696724 0.700446
Si Si6 0.529876 0.220690 0.897630
Si Si7 0.948208 0.893057 0.094124
Si Si8 0.148847 0.803200 0.005920
O O1 0.500000 0.500000 0.882905
O O2 0.719003 0.433555 0.859711
O O3 0.780324 0.516875 0.979001
O O4 0.579883 0.445908 0.037268
O O5 0.281600 0.067628 0.659568
O O6 0.255008 0.153374 0.758172
O O7 0.008998 0.100041 0.712139
O O8 0.505219 0.912313 0.025946
O O9 0.491456 0.832875 0.135298
O O10 0.776490 0.866757 0.083802
O O11 0.578073 0.822928 0.948728
O O12 0.000000 0.500000 0.112773
O O13 0.043454 0.729489 0.782841
O O14 0.264980 0.717726 0.611893
O O15 0.711879 0.201508 0.917339
O O16 0.498129 0.269796 0.966622
O O17 0.081838 0.858330 0.034793
#
# Coordination Sequence:
#
# PCOD9377036 Si02
#       8
#     8   8   8   8   8   8   8   8
#     4  12  25  38  66  94 130 177 227 273 338 400
#     4  10  24  43  61  96 131 171 220 278 329 406
#     4  10  22  41  67  92 131 176 220 279 339 396
#     4  11  23  43  62  92 131 174 219 280 333 394
#     4   9  22  43  66  96 134 172 224 277 330 407
#     4  11  22  42  68  99 134 173 227 274 340 404
#     4  11  22  45  65  94 137 173 220 279 341 395
#     4  10  24  42  68  98 136 176 218 280 340 401
#
# _framework density 22.640052000000001
#
# number of rings (size 3 to 8) (size 9 to 14) (size 15 to 20)
#    0.000    1.500    2.500    2.250    1.750    3.500 
#    2.250    3.750    0.000    0.000    0.000    0.000 
#    0.000    0.000    0.000    0.000    0.000    0.000 
#
# Total GULP energy -178770.069675 kJ/mol
# GULP energy per Si atom -5586.564677 kJ/mol
# Density = 2.258852 g / cm^3
# Si number density = 22.640052 Si / 1000 Ang^3
#
#
#
# Elastic Constant Matrix: (Units=GPa)
#
#
# Indices 1 2 3 4 5 6 
#
# 1 105.7692 8.7101 24.8897 0.0000 0.0000 0.0000
# 2 8.7101 62.0883 17.9089 0.0000 0.0000 0.0000
# 3 24.8897 17.9089 65.5397 0.0000 0.0000 0.0000
# 4 0.0000 0.0000 0.0000 26.2566 0.0000 0.0000
# 5 0.0000 0.0000 0.0000 0.0000 17.4611 0.0000
# 6 0.0000 0.0000 0.0000 0.0000 0.0000 36.8052
#
#
#
# Elastic Compliance Matrix: (Units=1/GPa)
#
#
# Indices 1 2 3 4 5 6 
#
# 1 0.010389 -0.000347 -0.003851 0.000000 0.000000 0.000000
# 2 -0.000347 0.017496 -0.004649 0.000000 0.000000 0.000000
# 3 -0.003851 -0.004649 0.017991 0.000000 0.000000 0.000000
# 4 0.000000 0.000000 0.000000 0.038086 0.000000 0.000000
# 5 0.000000 0.000000 0.000000 0.000000 0.057270 0.000000
# 6 0.000000 0.000000 0.000000 0.000000 0.000000 0.027170
#
#
# Mechanical properties :
#
#
# Convention : Reuss Voigt Hill
#
# Bulk Modulus (GPa) = 35.48293 37.37940 36.43117
# Shear Modulus (GPa) = 25.57690 28.23047 26.90369
#
# Velocity S-wave (km/s) = 3.36478 3.53501 3.45095
# Velocity P-wave (km/s) = 5.54998 5.76263 5.65730
#
# Compressibility (1/GPa) = 0.02818256
#
# Stress axis : x y z
#
# Youngs Moduli (GPa) = 96.25325 57.15681 55.58431
#
# Poissons Ratio (x) = 0.01982 0.21404
# Poissons Ratio (y) = 0.03338 0.25842
# Poissons Ratio (z) = 0.37065 0.26573
#
# Static dielectric constant tensor:
#      x y z
#    x 1.873560 0.000000 0.000000 
#    y 0.000000 1.852150 0.000000 
#    z 0.000000 0.000000 1.851360 
# 
# From -- ./inp_files/3429.got.cif
#   From: 2010.05.17/outbox.cif.g08.bks.cpg/sg45_2_cif.got.tgz:3429.got - 2010.06.03 19:51:22.
