data_PCOD9377477
_publ_section_title
;
Structure prediction by ZEFSAII (Michael W. Deem and Ramdas Pophale) SiO2 
 PCOD9377477
Probable space group: I B A 2
;
_chemical_formula_sum "Si O2"
_cell_formula_units_Z 60
_cell_length_a 14.796146
_cell_length_b 21.210863
_cell_length_c 9.239380
_cell_angle_alpha 90.000000
_cell_angle_beta 90.000000
_cell_angle_gamma 90.000000
_cell_volume 2899.678018
_symmetry_space_group_name_H-M "I B A 2"
_symmetry_group_IT_number 45
_symmetry_cell_setting 'orthorhombic'
loop_
_space_group_symop_operation_xyz
x,y,z
-x,-y,z
-x,y,1/2+z
x,-y,1/2+z
1/2+x,1/2+y,1/2+z
1/2-x,1/2-y,1/2+z
1/2-x,1/2+y,z
1/2+x,1/2-y,z
loop_
_atom_site_type_symbol
_atom_site_label
_atom_site_fract_x
_atom_site_fract_y
_atom_site_fract_z
Si Si1 0.536386 0.297567 0.432520
Si Si2 0.126695 0.925050 0.634234
Si Si3 0.816535 0.295359 0.793974
Si Si4 0.384463 0.061582 0.789255
Si Si5 0.811072 0.982211 0.846788
Si Si6 0.661617 0.715033 0.527172
Si Si7 0.500000 0.000000 0.537132
Si Si8 0.058832 0.884011 0.188880
O O1 0.605448 0.248220 0.365108
O O2 0.442695 0.268078 0.492937
O O3 0.584405 0.335304 0.563087
O O4 0.495963 0.345323 0.312124
O O5 0.172766 0.969281 0.514925
O O6 0.158273 0.853959 0.602524
O O7 0.019059 0.926555 0.616794
O O8 0.150594 0.951893 0.790563
O O9 0.853667 0.366080 0.786166
O O10 0.799647 0.266026 0.636934
O O11 0.725503 0.291541 0.888489
O O12 0.293316 0.021642 0.808111
O O13 0.435773 0.039654 0.644616
O O14 0.445558 0.046003 0.929231
O O15 0.865347 0.926481 0.762639
#
# Coordination Sequence:
#
# PCOD9377477 Si02
#       8
#     8   8   8   8   8   8   4   8
#     4  11  23  43  66  95 143 179 220 286 337 401
#     4  11  24  42  63  99 141 177 223 275 338 400
#     4  12  26  44  74  99 137 185 229 280 350 408
#     4  11  25  48  72 100 130 178 231 291 343 413
#     4  12  24  42  68  97 137 182 228 278 336 412
#     4  11  26  48  63 107 136 176 238 283 336 421
#     4  10  26  52  70  98 136 170 232 300 348 400
#     4  11  22  42  66  97 144 180 223 271 334 415
#
# _framework density 20.691953000000002
#
# number of rings (size 3 to 8) (size 9 to 14) (size 15 to 20)
#    0.000    0.800    6.667    1.200    7.467    1.067 
#    2.400    0.000    0.000    0.000    0.000    0.000 
#    0.000    0.000    0.000    0.000    0.000    0.000 
#
# Total GULP energy -167784.299943 kJ/mol
# GULP energy per Si atom -5592.809998 kJ/mol
# Density = 2.064486 g / cm^3
# Si number density = 20.691953 Si / 1000 Ang^3
#
#
#
# Elastic Constant Matrix: (Units=GPa)
#
#
# Indices 1 2 3 4 5 6 
#
# 1 70.5676 7.8217 4.6108 0.0000 0.0000 0.0000
# 2 7.8217 23.0433 7.0986 0.0000 0.0000 0.0000
# 3 4.6108 7.0986 77.3064 0.0000 0.0000 0.0000
# 4 0.0000 0.0000 0.0000 35.1077 0.0000 0.0000
# 5 0.0000 0.0000 0.0000 0.0000 39.2334 0.0000
# 6 0.0000 0.0000 0.0000 0.0000 0.0000 28.6956
#
#
#
# Elastic Compliance Matrix: (Units=1/GPa)
#
#
# Indices 1 2 3 4 5 6 
#
# 1 0.014739 -0.004870 -0.000432 0.000000 0.000000 0.000000
# 2 -0.004870 0.046269 -0.003958 0.000000 0.000000 0.000000
# 3 -0.000432 -0.003958 0.013325 0.000000 0.000000 0.000000
# 4 0.000000 0.000000 0.000000 0.028484 0.000000 0.000000
# 5 0.000000 0.000000 0.000000 0.000000 0.025489 0.000000
# 6 0.000000 0.000000 0.000000 0.000000 0.000000 0.034849
#
#
# Mechanical properties :
#
#
# Convention : Reuss Voigt Hill
#
# Bulk Modulus (GPa) = 17.91709 23.33107 20.62408
# Shear Modulus (GPa) = 24.96540 30.69976 27.83258
#
# Velocity S-wave (km/s) = 3.47728 3.85601 3.67153
# Velocity P-wave (km/s) = 4.97993 5.57897 5.28794
#
# Compressibility (1/GPa) = 0.05581263
#
# Stress axis : x y z
#
# Youngs Moduli (GPa) = 67.84808 21.61281 75.04832
#
# Poissons Ratio (x) = 0.10525 0.03241
# Poissons Ratio (y) = 0.33041 0.29705
# Poissons Ratio (z) = 0.02930 0.08555
#
# Static dielectric constant tensor:
#      x y z
#    x 1.731800 0.000000 0.000000 
#    y 0.000000 1.732680 0.000000 
#    z 0.000000 0.000000 1.776000 
# 
# From -- ./inp_files/1893.got.cif
#   From: 2010.05.17/outbox.cif.g08.bks.cpg/sg45_1_cif.got.tgz:1893.got - 2010.06.03 19:51:22.
