data_PCOD9377522
_publ_section_title
;
Structure prediction by ZEFSAII (Michael W. Deem and Ramdas Pophale) SiO2 
 PCOD9377522
Probable space group: I B A 2
;
_chemical_formula_sum "Si O2"
_cell_formula_units_Z 52
_cell_length_a 18.630151
_cell_length_b 17.269114
_cell_length_c 8.510190
_cell_angle_alpha 90.000000
_cell_angle_beta 90.000000
_cell_angle_gamma 90.000000
_cell_volume 2737.951102
_symmetry_space_group_name_H-M "I B A 2"
_symmetry_group_IT_number 45
_symmetry_cell_setting 'orthorhombic'
loop_
_space_group_symop_operation_xyz
x,y,z
-x,-y,z
-x,y,1/2+z
x,-y,1/2+z
1/2+x,1/2+y,1/2+z
1/2-x,1/2-y,1/2+z
1/2-x,1/2+y,z
1/2+x,1/2-y,z
loop_
_atom_site_type_symbol
_atom_site_label
_atom_site_fract_x
_atom_site_fract_y
_atom_site_fract_z
Si Si1 0.703887 0.310979 0.557000
Si Si2 0.792514 0.397631 0.337564
Si Si3 0.184294 0.332340 0.337130
Si Si4 0.150751 0.478856 0.557381
Si Si5 0.967766 0.667287 0.386262
Si Si6 0.500000 0.000000 0.240257
Si Si7 0.093123 0.724446 0.212544
O O1 0.718741 0.370510 0.415725
O O2 0.761936 0.328589 0.692131
O O3 0.712221 0.227735 0.469505
O O4 0.627232 0.302284 0.642082
O O5 0.836113 0.440447 0.474051
O O6 0.839962 0.325510 0.277933
O O7 0.792424 0.456414 0.192326
O O8 0.166943 0.413742 0.424246
O O9 0.103339 0.308822 0.288846
O O10 0.072877 0.514305 0.140556
O O11 0.988992 0.578941 0.341182
O O12 0.944160 0.679767 0.566199
O O13 0.033219 0.723198 0.344775
#
# Coordination Sequence:
#
# PCOD9377522 Si02
#       7
#     8   8   8   8   8   4   8
#     4  11  21  42  59  75 116 166 209 258 301 350
#     4  12  23  38  56  80 121 161 210 248 290 356
#     4  11  22  37  56  83 115 161 207 249 300 355
#     4  12  25  35  54  91 119 169 207 239 294 362
#     4  11  23  35  53  83 119 157 206 240 286 371
#     4  12  22  36  50  76 134 162 192 234 288 338
#     4  11  25  37  56  84 114 166 208 243 306 345
#
# _framework density 18.992304000000001
#
# number of rings (size 3 to 8) (size 9 to 14) (size 15 to 20)
#    0.000    0.615    6.154    2.769    6.462    1.231 
#    0.000    0.000    0.000    0.000    0.000    0.000 
#    0.000   80.000    0.000    0.000    0.000    0.000 
#
# Total GULP energy -144979.500095 kJ/mol
# GULP energy per Si atom -5576.134619 kJ/mol
# Density = 1.894908 g / cm^3
# Si number density = 18.992304 Si / 1000 Ang^3
#
#
#
# Elastic Constant Matrix: (Units=GPa)
#
#
# Indices 1 2 3 4 5 6 
#
# 1 59.8752 28.3564 40.0431 0.0000 0.0000 0.0000
# 2 28.3564 43.9643 34.5377 0.0000 0.0000 0.0000
# 3 40.0431 34.5377 69.5753 0.0000 0.0000 0.0000
# 4 0.0000 0.0000 0.0000 39.1698 0.0000 0.0000
# 5 0.0000 0.0000 0.0000 0.0000 39.5165 0.0000
# 6 0.0000 0.0000 0.0000 0.0000 0.0000 29.4091
#
#
#
# Elastic Compliance Matrix: (Units=1/GPa)
#
#
# Indices 1 2 3 4 5 6 
#
# 1 0.029284 -0.009258 -0.012258 0.000000 0.000000 0.000000
# 2 -0.009258 0.040213 -0.014634 0.000000 0.000000 0.000000
# 3 -0.012258 -0.014634 0.028692 0.000000 0.000000 0.000000
# 4 0.000000 0.000000 0.000000 0.025530 0.000000 0.000000
# 5 0.000000 0.000000 0.000000 0.000000 0.025306 0.000000
# 6 0.000000 0.000000 0.000000 0.000000 0.000000 0.034003
#
#
# Mechanical properties :
#
#
# Convention : Reuss Voigt Hill
#
# Bulk Modulus (GPa) = 38.62583 42.14322 40.38452
# Shear Modulus (GPa) = 18.94243 26.31758 22.63001
#
# Velocity S-wave (km/s) = 3.16155 3.72653 3.45561
# Velocity P-wave (km/s) = 5.80594 6.38388 6.10176
#
# Compressibility (1/GPa) = 0.02588941
#
# Stress axis : x y z
#
# Youngs Moduli (GPa) = 34.14850 24.86758 34.85251
#
# Poissons Ratio (x) = 0.23022 0.42723
# Poissons Ratio (y) = 0.31614 0.51003
# Poissons Ratio (z) = 0.41860 0.36391
#
# Static dielectric constant tensor:
#      x y z
#    x 1.699690 0.000000 0.000000 
#    y 0.000000 1.695750 0.000000 
#    z 0.000000 0.000000 1.762190 
# 
# From -- ./inp_files/2131.got.cif
#   From: 2010.05.17/outbox.cif.g08.bks.cpg/sg45_2_cif.got.tgz:2131.got - 2010.06.03 19:51:22.
