data_PCOD9377904
_publ_section_title
;
Structure prediction by ZEFSAII (Michael W. Deem and Ramdas Pophale) SiO2 
 PCOD9377904
Probable space group: I M A 2
;
_chemical_formula_sum "Si O2"
_cell_formula_units_Z 48
_cell_length_a 15.767411
_cell_length_b 7.197289
_cell_length_c 17.493163
_cell_angle_alpha 90.000000
_cell_angle_beta 90.000000
_cell_angle_gamma 90.000000
_cell_volume 1985.169860
_symmetry_space_group_name_H-M "I M A 2"
_symmetry_group_IT_number 46
_symmetry_cell_setting 'orthorhombic'
loop_
_space_group_symop_operation_xyz
x,y,z
-x,-y,z
1/2-x,y,z
1/2+x,-y,z
1/2+x,1/2+y,1/2+z
1/2-x,1/2-y,1/2+z
-x,1/2+y,1/2+z
x,1/2-y,1/2+z
loop_
_atom_site_type_symbol
_atom_site_label
_atom_site_fract_x
_atom_site_fract_y
_atom_site_fract_z
Si Si1 0.153381 0.057070 0.347700
Si Si2 0.652588 0.182306 0.780604
Si Si3 0.158158 0.882912 0.046148
Si Si4 0.592925 0.915556 0.897824
Si Si5 0.841542 0.795077 0.173902
Si Si6 0.021898 0.778304 0.148346
O O1 0.250000 0.085914 0.374212
O O2 0.094237 0.193708 0.394727
O O3 0.149634 0.116484 0.258223
O O4 0.135203 0.839092 0.345300
O O5 0.750000 0.211191 0.754874
O O6 0.583219 0.212830 0.715830
O O7 0.641791 0.986986 0.822278
O O8 0.250000 0.787125 0.040574
O O9 0.076510 0.762974 0.070866
O O10 0.163964 0.035256 0.113929
O O11 0.139402 0.999583 0.970595
O O12 0.500000 0.000000 0.894264
O O13 0.750000 0.694580 0.170207
O O14 0.928412 0.689199 0.153000
O O15 0.000000 0.000000 0.158440
#
# Coordination Sequence:
#
# PCOD9377904 Si02
#       6
#     8   8   8   8   8   8
#     4  10  20  38  60  86 119 158 201 251 299 357
#     4  11  22  38  62  90 121 162 204 250 304 360
#     4  10  19  35  56  84 118 158 200 245 302 363
#     4  12  25  36  59  92 125 159 202 254 307 362
#     4   9  17  31  56  81 110 155 196 236 293 355
#     4  10  17  31  60  85 114 153 205 241 295 359
#
# _framework density 24.179290000000002
#
# number of rings (size 3 to 8) (size 9 to 14) (size 15 to 20)
#    0.000    1.667    3.333    4.500    0.000    0.000 
#    0.000    0.000    3.667    0.000    0.000    0.000 
#    0.000    0.000    0.000    0.000    0.000    0.000 
#
# Total GULP energy -134168.451666 kJ/mol
# GULP energy per Si atom -5590.352153 kJ/mol
# Density = 2.412426 g / cm^3
# Si number density = 24.179290 Si / 1000 Ang^3
#
#
#
# Elastic Constant Matrix: (Units=GPa)
#
#
# Indices 1 2 3 4 5 6 
#
# 1 193.9153 3.8821 8.6871 0.0000 0.0000 0.0000
# 2 3.8821 79.7397 -1.1600 0.0000 0.0000 0.0000
# 3 8.6871 -1.1600 53.1232 0.0000 0.0000 0.0000
# 4 0.0000 0.0000 0.0000 15.2206 0.0000 0.0000
# 5 0.0000 0.0000 0.0000 0.0000 30.2702 0.0000
# 6 0.0000 0.0000 0.0000 0.0000 0.0000 8.5833
#
#
#
# Elastic Compliance Matrix: (Units=1/GPa)
#
#
# Indices 1 2 3 4 5 6 
#
# 1 0.005201 -0.000266 -0.000856 0.000000 0.000000 0.000000
# 2 -0.000266 0.012558 0.000318 0.000000 0.000000 0.000000
# 3 -0.000856 0.000318 0.018971 0.000000 0.000000 0.000000
# 4 0.000000 0.000000 0.000000 0.065700 0.000000 0.000000
# 5 0.000000 0.000000 0.000000 0.000000 0.033036 0.000000
# 6 0.000000 0.000000 0.000000 0.000000 0.000000 0.116505
#
#
# Mechanical properties :
#
#
# Convention : Reuss Voigt Hill
#
# Bulk Modulus (GPa) = 28.47252 38.84409 33.65830
# Shear Modulus (GPa) = 18.84750 31.83943 25.34347
#
# Velocity S-wave (km/s) = 2.79496 3.63272 3.24102
# Velocity P-wave (km/s) = 4.71348 5.80478 5.28736
#
# Compressibility (1/GPa) = 0.03512159
#
# Stress axis : x y z
#
# Youngs Moduli (GPa) = 192.28677 79.62820 52.71173
#
# Poissons Ratio (x) = 0.02115 0.04513
# Poissons Ratio (y) = 0.05108 -0.01674
# Poissons Ratio (z) = 0.16464 -0.02529
#
# Static dielectric constant tensor:
#      x y z
#    x 2.009910 0.000000 0.000000 
#    y 0.000000 1.933070 0.000000 
#    z 0.000000 0.000000 1.894540 
# 
# From -- ./inp_files/19399.got.cif
#   From: 2010.05.17/outbox.cif.g08.bks.cpg/sg46_10_cif.got.tgz:19399.got - 2010.06.03 19:58:25.
