data_PCOD9377937
_publ_section_title
;
Structure prediction by ZEFSAII (Michael W. Deem and Ramdas Pophale) SiO2 
 PCOD9377937
Probable space group: I M A 2
;
_chemical_formula_sum "Si O2"
_cell_formula_units_Z 56
_cell_length_a 9.067018
_cell_length_b 22.537050
_cell_length_c 18.250145
_cell_angle_alpha 90.000000
_cell_angle_beta 90.000000
_cell_angle_gamma 90.000000
_cell_volume 3729.304674
_symmetry_space_group_name_H-M "I M A 2"
_symmetry_group_IT_number 46
_symmetry_cell_setting 'orthorhombic'
loop_
_space_group_symop_operation_xyz
x,y,z
-x,-y,z
1/2-x,y,z
1/2+x,-y,z
1/2+x,1/2+y,1/2+z
1/2-x,1/2-y,1/2+z
-x,1/2+y,1/2+z
x,1/2-y,1/2+z
loop_
_atom_site_type_symbol
_atom_site_label
_atom_site_fract_x
_atom_site_fract_y
_atom_site_fract_z
Si Si1 0.571926 0.217881 0.856090
Si Si2 0.427477 0.935701 0.273098
Si Si3 0.575415 0.651008 0.657599
Si Si4 0.920292 0.181980 0.013710
Si Si5 0.579445 0.178789 0.560278
Si Si6 0.929171 0.149771 0.403912
Si Si7 0.575531 0.712098 0.204036
O O1 0.750000 0.217761 0.850698
O O2 0.524522 0.286236 0.871484
O O3 0.501866 0.197152 0.780491
O O4 0.532515 0.180600 0.928846
O O5 0.250000 0.939428 0.270397
O O6 0.486343 0.894942 0.207091
O O7 0.471284 0.901842 0.348277
O O8 0.500000 0.000000 0.269732
O O9 0.750000 0.640083 0.662408
O O10 0.520449 0.650238 0.573670
O O11 0.546352 0.717949 0.687091
O O12 0.750000 0.162175 0.019979
O O13 0.921217 0.252121 0.034506
O O14 0.750000 0.162718 0.574317
O O15 0.521529 0.144565 0.488341
O O16 0.488160 0.176429 0.634709
O O17 0.750000 0.151718 0.406909
O O18 0.750000 0.704314 0.209288
#
# Coordination Sequence:
#
# PCOD9377937 Si02
#       7
#     8   8   8   8   8   8   8
#     4   9  15  26  43  62  83 113 149 176 207 255
#     4  11  21  33  48  64  85 112 150 190 224 257
#     4  10  19  30  42  59  85 115 146 178 219 261
#     4   8  15  26  42  61  80 107 144 179 211 253
#     4   8  14  26  42  58  77 107 145 175 206 253
#     4   8  15  28  45  60  77 108 147 183 213 248
#     4  10  18  25  37  62  91 115 140 173 214 256
#
# _framework density 15.016203000000001
#
# number of rings (size 3 to 8) (size 9 to 14) (size 15 to 20)
#    0.000    2.857    1.429    3.000    0.000    1.714 
#    0.000    3.571    0.000    0.000    0.000    0.000 
#    0.000    1.143    0.000    7.714    0.000    5.571 
#
# Total GULP energy -155909.706970 kJ/mol
# GULP energy per Si atom -5568.203820 kJ/mol
# Density = 1.498203 g / cm^3
# Si number density = 15.016203 Si / 1000 Ang^3
#
#
#
# Elastic Constant Matrix: (Units=GPa)
#
#
# Indices 1 2 3 4 5 6 
#
# 1 44.9953 27.4094 56.0500 0.0000 0.0000 0.0000
# 2 27.4094 38.6749 33.8433 0.0000 0.0000 0.0000
# 3 56.0500 33.8433 159.8296 0.0000 0.0000 0.0000
# 4 0.0000 0.0000 0.0000 9.6677 0.0000 0.0000
# 5 0.0000 0.0000 0.0000 0.0000 12.9750 0.0000
# 6 0.0000 0.0000 0.0000 0.0000 0.0000 13.5279
#
#
#
# Elastic Compliance Matrix: (Units=1/GPa)
#
#
# Indices 1 2 3 4 5 6 
#
# 1 0.056580 -0.027907 -0.013933 0.000000 0.000000 0.000000
# 2 -0.027907 0.045502 0.000152 0.000000 0.000000 0.000000
# 3 -0.013933 0.000152 0.011111 0.000000 0.000000 0.000000
# 4 0.000000 0.000000 0.000000 0.103437 0.000000 0.000000
# 5 0.000000 0.000000 0.000000 0.000000 0.077071 0.000000
# 6 0.000000 0.000000 0.000000 0.000000 0.000000 0.073921
#
#
# Mechanical properties :
#
#
# Convention : Reuss Voigt Hill
#
# Bulk Modulus (GPa) = 33.53830 53.12282 43.33056
# Shear Modulus (GPa) = 10.84746 15.64727 13.24737
#
# Velocity S-wave (km/s) = 2.69064 3.23154 2.97342
# Velocity P-wave (km/s) = 5.66003 7.02692 6.38019
#
# Compressibility (1/GPa) = 0.02981666
#
# Stress axis : x y z
#
# Youngs Moduli (GPa) = 17.67400 21.97709 90.00483
#
# Poissons Ratio (x) = 0.61332 1.25401
# Poissons Ratio (y) = 0.49323 -0.01366
# Poissons Ratio (z) = 0.24625 -0.00334
#
# Static dielectric constant tensor:
#      x y z
#    x 1.495810 0.000000 0.000000 
#    y 0.000000 1.467520 0.000000 
#    z 0.000000 0.000000 1.522240 
# 
# From -- ./inp_files/18445.got.cif
#   From: 2010.05.17/outbox.cif.g08.bks.cpg/sg46_10_cif.got.tgz:18445.got - 2010.06.03 19:58:25.
