data_PCOD9377114
_publ_section_title
;
Structure prediction by ZEFSAII (Michael W. Deem and Ramdas Pophale) SiO2 
 PCOD9377114
Probable space group: I B A 2
;
_chemical_formula_sum "Si O2"
_cell_formula_units_Z 64
_cell_length_a 8.200648
_cell_length_b 26.249135
_cell_length_c 13.023560
_cell_angle_alpha 90.000000
_cell_angle_beta 90.000000
_cell_angle_gamma 90.000000
_cell_volume 2803.450437
_symmetry_space_group_name_H-M "I B A 2"
_symmetry_group_IT_number 45
_symmetry_cell_setting 'orthorhombic'
loop_
_space_group_symop_operation_xyz
x,y,z
-x,-y,z
-x,y,1/2+z
x,-y,1/2+z
1/2+x,1/2+y,1/2+z
1/2-x,1/2-y,1/2+z
1/2-x,1/2+y,z
1/2+x,1/2-y,z
loop_
_atom_site_type_symbol
_atom_site_label
_atom_site_fract_x
_atom_site_fract_y
_atom_site_fract_z
Si Si1 0.924173 0.286217 0.083390
Si Si2 0.426286 0.946486 0.873782
Si Si3 0.618763 0.289254 0.210980
Si Si4 0.547926 0.663085 0.912584
Si Si5 0.171135 0.365790 0.042102
Si Si6 0.281044 0.200920 0.868406
Si Si7 0.731730 0.091800 0.252707
Si Si8 0.039395 0.053366 0.372937
O O1 0.758963 0.304497 0.134651
O O2 0.975947 0.234586 0.141777
O O3 0.058339 0.328134 0.106222
O O4 0.903724 0.289836 0.961458
O O5 0.558068 0.933345 0.784884
O O6 0.232891 0.948455 0.842745
O O7 0.500000 0.000000 0.915304
O O8 0.421256 0.902350 0.961226
O O9 0.579845 0.334106 0.290032
O O10 0.685064 0.244816 0.286534
O O11 0.396756 0.700525 0.921774
O O12 0.515441 0.604310 0.939927
O O13 0.709796 0.671623 0.977649
O O14 0.250080 0.399395 0.131573
O O15 0.279366 0.146030 0.813463
O O16 0.891848 0.060966 0.291128
O O17 0.000000 0.000000 0.426335
#
# Coordination Sequence:
#
# PCOD9377114 Si02
#       8
#     8   8   8   8   8   8   8   8
#     4  12  28  43  71 100 140 187 245 289 366 440
#     4  11  23  46  77 105 147 190 242 305 376 437
#     4  12  27  45  68 105 141 191 238 301 358 435
#     4  10  26  47  71 101 145 187 241 305 362 429
#     4  11  26  46  73 106 141 189 248 301 366 447
#     4  11  25  45  71  99 142 191 237 299 362 434
#     4  11  23  46  71 107 148 185 245 306 364 437
#     4  10  22  44  74 103 140 198 233 296 374 431
#
# _framework density 22.82901
#
# number of rings (size 3 to 8) (size 9 to 14) (size 15 to 20)
#    0.000    1.000    5.000    0.000    8.750    2.500 
#    0.000    2.500    0.000    0.000    0.000    0.000 
#    0.000    0.000    0.000    0.000    0.000    0.000 
#
# Total GULP energy -178514.803350 kJ/mol
# GULP energy per Si atom -5578.587605 kJ/mol
# Density = 2.277705 g / cm^3
# Si number density = 22.829010 Si / 1000 Ang^3
#
#
#
# Elastic Constant Matrix: (Units=GPa)
#
#
# Indices 1 2 3 4 5 6 
#
# 1 118.7209 14.4517 29.6687 0.0000 0.0000 0.0000
# 2 14.4517 88.4295 15.8048 0.0000 0.0000 0.0000
# 3 29.6687 15.8048 102.4275 -0.0001 0.0000 0.0000
# 4 0.0000 0.0000 -0.0001 22.7447 0.0000 0.0000
# 5 0.0000 0.0000 0.0000 0.0000 41.2402 0.0000
# 6 0.0000 0.0000 0.0000 0.0000 0.0000 41.9412
#
#
#
# Elastic Compliance Matrix: (Units=1/GPa)
#
#
# Indices 1 2 3 4 5 6 
#
# 1 0.009175 -0.001053 -0.002495 0.000000 0.000000 0.000000
# 2 -0.001053 0.011750 -0.001508 0.000000 0.000000 0.000000
# 3 -0.002495 -0.001508 0.010718 0.000000 0.000000 0.000000
# 4 0.000000 0.000000 0.000000 0.043966 0.000000 0.000000
# 5 0.000000 0.000000 0.000000 0.000000 0.024248 0.000000
# 6 0.000000 0.000000 0.000000 0.000000 0.000000 0.023843
#
#
# Mechanical properties :
#
#
# Convention : Reuss Voigt Hill
#
# Bulk Modulus (GPa) = 46.44564 47.71423 47.07993
# Shear Modulus (GPa) = 35.46341 37.82875 36.64608
#
# Velocity S-wave (km/s) = 3.94564 4.07510 4.01089
# Velocity P-wave (km/s) = 6.41456 6.56415 6.48979
#
# Compressibility (1/GPa) = 0.02153055
#
# Stress axis : x y z
#
# Youngs Moduli (GPa) = 108.99345 85.10558 93.29776
#
# Poissons Ratio (x) = 0.08966 0.23278
# Poissons Ratio (y) = 0.11482 0.14069
# Poissons Ratio (z) = 0.27194 0.12833
#
# Static dielectric constant tensor:
#      x y z
#    x 1.923430 0.000000 0.000000 
#    y 0.000000 1.904310 0.000000 
#    z 0.000000 0.000000 1.845080 
# 
# From -- ./inp_files/3418.got.cif
#   From: 2010.05.17/outbox.cif.g08.bks.cpg/sg45_2_cif.got.tgz:3418.got - 2010.06.03 19:51:22.
