data_PCOD9377704
_publ_section_title
;
Structure prediction by ZEFSAII (Michael W. Deem and Ramdas Pophale) SiO2 
 PCOD9377704
Probable space group: I B A 2
;
_chemical_formula_sum "Si O2"
_cell_formula_units_Z 60
_cell_length_a 27.311461
_cell_length_b 7.303396
_cell_length_c 13.623876
_cell_angle_alpha 90.000000
_cell_angle_beta 90.000000
_cell_angle_gamma 90.000000
_cell_volume 2717.505704
_symmetry_space_group_name_H-M "I B A 2"
_symmetry_group_IT_number 45
_symmetry_cell_setting 'orthorhombic'
loop_
_space_group_symop_operation_xyz
x,y,z
-x,-y,z
-x,y,1/2+z
x,-y,1/2+z
1/2+x,1/2+y,1/2+z
1/2-x,1/2-y,1/2+z
1/2-x,1/2+y,z
1/2+x,1/2-y,z
loop_
_atom_site_type_symbol
_atom_site_label
_atom_site_fract_x
_atom_site_fract_y
_atom_site_fract_z
Si Si1 0.743684 0.445073 0.953840
Si Si2 0.420930 0.222627 0.818813
Si Si3 0.120805 0.747101 0.602866
Si Si4 0.181770 0.346068 0.842762
Si Si5 0.571747 0.829399 0.412732
Si Si6 0.144400 0.131921 0.499529
Si Si7 0.810232 0.563257 0.617420
Si Si8 0.500000 0.500000 0.350497
O O1 0.796898 0.489907 0.908191
O O2 0.718249 0.309063 0.878959
O O3 0.699777 0.591253 0.963824
O O4 0.758552 0.401355 0.065459
O O5 0.392028 0.214518 0.716542
O O6 0.463459 0.366828 0.794525
O O7 0.439686 0.024600 0.859537
O O8 0.389410 0.311156 0.907841
O O9 0.081908 0.652476 0.529007
O O10 0.171825 0.640232 0.591813
O O11 0.126335 0.952706 0.560214
O O12 0.126160 0.290953 0.867133
O O13 0.190388 0.398780 0.731779
O O14 0.534710 0.657192 0.401428
O O15 0.149263 0.298981 0.574206
#
# Coordination Sequence:
#
# PCOD9377704 Si02
#       8
#     8   8   8   8   8   8   8   4
#     4  12  24  44  66 111 151 202 269 302 357 461
#     4  12  27  51  82 113 156 199 254 328 400 459
#     4  12  26  47  81 109 151 209 255 311 398 464
#     4  12  26  44  74 105 157 204 252 318 378 446
#     4  12  25  54  75 113 158 200 254 323 395 464
#     4  12  26  46  74 107 158 202 255 320 372 457
#     4  12  27  46  69 106 156 209 256 313 383 446
#     4  12  28  52  84 114 152 198 256 332 392 482
#
# _framework density 22.079070999999999
#
# number of rings (size 3 to 8) (size 9 to 14) (size 15 to 20)
#    0.000    0.000    8.000    0.400    5.600    0.533 
#    0.000    1.333    0.000    0.000    0.000    0.000 
#    0.000    0.000    0.000    0.000    0.000    0.000 
#
# Total GULP energy -167333.862135 kJ/mol
# GULP energy per Si atom -5577.795404 kJ/mol
# Density = 2.202882 g / cm^3
# Si number density = 22.079071 Si / 1000 Ang^3
#
#
#
# Elastic Constant Matrix: (Units=GPa)
#
#
# Indices 1 2 3 4 5 6 
#
# 1 88.7495 44.3431 28.5818 0.0000 0.0000 0.0000
# 2 44.3431 142.7269 49.8656 0.0000 0.0000 0.0000
# 3 28.5818 49.8656 143.9845 0.0000 0.0000 0.0000
# 4 0.0000 0.0000 0.0000 26.4102 0.0000 0.0000
# 5 0.0000 0.0000 0.0000 0.0000 10.1283 0.0000
# 6 0.0000 0.0000 0.0000 0.0000 0.0000 41.9575
#
#
#
# Elastic Compliance Matrix: (Units=1/GPa)
#
#
# Indices 1 2 3 4 5 6 
#
# 1 0.013583 -0.003729 -0.001405 0.000000 0.000000 0.000000
# 2 -0.003729 0.008995 -0.002375 0.000000 0.000000 0.000000
# 3 -0.001405 -0.002375 0.008047 0.000000 0.000000 0.000000
# 4 0.000000 0.000000 0.000000 0.037864 0.000000 0.000000
# 5 0.000000 0.000000 0.000000 0.000000 0.098733 0.000000
# 6 0.000000 0.000000 0.000000 0.000000 0.000000 0.023834
#
#
# Mechanical properties :
#
#
# Convention : Reuss Voigt Hill
#
# Bulk Modulus (GPa) = 64.07495 69.00464 66.53980
# Shear Modulus (GPa) = 23.66579 32.54391 28.10485
#
# Velocity S-wave (km/s) = 3.27749 3.84340 3.57167
# Velocity P-wave (km/s) = 6.58834 7.14261 6.87107
#
# Compressibility (1/GPa) = 0.01560672
#
# Stress axis : x y z
#
# Youngs Moduli (GPa) = 73.61905 111.17598 124.27734
#
# Poissons Ratio (x) = 0.41461 0.17459
# Poissons Ratio (y) = 0.27455 0.29514
# Poissons Ratio (z) = 0.10342 0.26402
#
# Static dielectric constant tensor:
#      x y z
#    x 1.823100 0.000000 0.000000 
#    y 0.000000 2.011760 0.000000 
#    z 0.000000 0.000000 1.774380 
# 
# From -- ./inp_files/4890.got.cif
#   From: 2010.05.17/outbox.cif.g08.bks.cpg/sg45_3_cif.got.tgz:4890.got - 2010.06.03 19:51:22.
