data_PCOD9377872
_publ_section_title
;
Structure prediction by ZEFSAII (Michael W. Deem and Ramdas Pophale) SiO2 
 PCOD9377872
Probable space group: I M A 2
;
_chemical_formula_sum "Si O2"
_cell_formula_units_Z 64
_cell_length_a 17.072555
_cell_length_b 8.639534
_cell_length_c 24.771758
_cell_angle_alpha 90.000000
_cell_angle_beta 90.000000
_cell_angle_gamma 90.000000
_cell_volume 3653.807536
_symmetry_space_group_name_H-M "I M A 2"
_symmetry_group_IT_number 46
_symmetry_cell_setting 'orthorhombic'
loop_
_space_group_symop_operation_xyz
x,y,z
-x,-y,z
1/2-x,y,z
1/2+x,-y,z
1/2+x,1/2+y,1/2+z
1/2-x,1/2-y,1/2+z
-x,1/2+y,1/2+z
x,1/2-y,1/2+z
loop_
_atom_site_type_symbol
_atom_site_label
_atom_site_fract_x
_atom_site_fract_y
_atom_site_fract_z
Si Si1 0.157714 0.326598 0.943380
Si Si2 0.522080 0.680958 0.373414
Si Si3 0.341959 0.189013 0.176508
Si Si4 0.841038 0.815796 0.055009
Si Si5 0.074835 0.886175 0.170136
Si Si6 0.074663 0.881287 0.048539
Si Si7 0.069345 0.877823 0.457003
Si Si8 0.517725 0.819860 0.746757
O O1 0.250000 0.293059 0.937349
O O2 0.104082 0.233348 0.900896
O O3 0.141478 0.510274 0.942626
O O4 0.128574 0.272864 0.002896
O O5 0.500000 0.500000 0.380873
O O6 0.458000 0.781799 0.404965
O O7 0.522743 0.717691 0.310046
O O8 0.250000 0.227987 0.182583
O O9 0.371330 0.223307 0.114890
O O10 0.401179 0.271447 0.217484
O O11 0.353793 0.002902 0.181262
O O12 0.750000 0.780527 0.057975
O O13 0.854569 0.997017 0.044455
O O14 0.077753 0.818090 0.109795
O O15 0.053188 0.767889 0.216722
O O16 0.000000 0.000000 0.168826
O O17 0.077950 0.745471 0.005181
O O18 0.000000 0.000000 0.042034
O O19 0.000000 0.000000 0.469625
O O20 0.500000 0.000000 0.741376
#
# Coordination Sequence:
#
# PCOD9377872 Si02
#       8
#     8   8   8   8   8   8   8   8
#     4  10  21  35  52  77 105 131 164 209 257 300
#     4  10  21  38  55  71  96 135 176 210 250 300
#     4   9  18  34  55  76 101 136 171 201 243 301
#     4   9  18  33  51  73 103 135 164 198 244 297
#     4   8  17  31  50  75 102 132 168 207 244 292
#     4  10  17  29  50  75 100 132 172 201 234 293
#     4  10  20  31  49  75 102 131 165 208 253 297
#     4  10  21  35  53  76 101 130 168 214 258 296
#
# _framework density 17.515975000000001
#
# number of rings (size 3 to 8) (size 9 to 14) (size 15 to 20)
#    0.000    2.500    0.000    3.375    0.000    7.000 
#    0.000    1.250    0.000    1.500    0.000    0.000 
#    0.000    0.000    0.000    0.000    0.000    0.000 
#
# Total GULP energy -178188.175304 kJ/mol
# GULP energy per Si atom -5568.380478 kJ/mol
# Density = 1.747611 g / cm^3
# Si number density = 17.515975 Si / 1000 Ang^3
#
#
#
# Elastic Constant Matrix: (Units=GPa)
#
#
# Indices 1 2 3 4 5 6 
#
# 1 51.5144 23.3504 45.4325 0.0000 0.0000 0.0000
# 2 23.3504 80.4069 86.0950 0.0000 0.0000 0.0000
# 3 45.4325 86.0950 167.4251 0.0000 0.0000 0.0000
# 4 0.0000 0.0000 0.0000 31.5547 0.0000 0.0000
# 5 0.0000 0.0000 0.0000 0.0000 7.5157 0.0000
# 6 0.0000 0.0000 0.0000 0.0000 0.0000 18.2416
#
#
#
# Elastic Compliance Matrix: (Units=1/GPa)
#
#
# Indices 1 2 3 4 5 6 
#
# 1 0.025519 0.000009 -0.006929 0.000000 0.000000 0.000000
# 2 0.000009 0.027675 -0.014233 0.000000 0.000000 0.000000
# 3 -0.006929 -0.014233 0.015172 0.000000 0.000000 0.000000
# 4 0.000000 0.000000 0.000000 0.031691 0.000000 0.000000
# 5 0.000000 0.000000 0.000000 0.000000 0.133055 0.000000
# 6 0.000000 0.000000 0.000000 0.000000 0.000000 0.054820
#
#
# Mechanical properties :
#
#
# Convention : Reuss Voigt Hill
#
# Bulk Modulus (GPa) = 38.37579 67.67800 53.02690
# Shear Modulus (GPa) = 14.75243 21.09361 17.92302
#
# Velocity S-wave (km/s) = 2.90526 3.47400 3.20228
# Velocity P-wave (km/s) = 5.76287 7.40360 6.63415
#
# Compressibility (1/GPa) = 0.02605810
#
# Stress axis : x y z
#
# Youngs Moduli (GPa) = 39.18582 36.13425 65.90891
#
# Poissons Ratio (x) = -0.00031 0.45671
# Poissons Ratio (y) = -0.00034 0.93811
# Poissons Ratio (z) = 0.27154 0.51432
#
# Static dielectric constant tensor:
#      x y z
#    x 1.629950 0.000000 0.000000 
#    y 0.000000 1.603960 0.000000 
#    z 0.000000 0.000000 1.616580 
# 
# From -- ./inp_files/23787.got.cif
#   From: 2010.05.17/outbox.cif.g08.bks.cpg/sg46_12_cif.got.tgz:23787.got - 2010.06.03 19:58:25.
