data_PCOD9377622
_publ_section_title
;
Structure prediction by ZEFSAII (Michael W. Deem and Ramdas Pophale) SiO2 
 PCOD9377622
Probable space group: I B A 2
;
_chemical_formula_sum "Si O2"
_cell_formula_units_Z 32
_cell_length_a 9.399445
_cell_length_b 13.287953
_cell_length_c 9.156815
_cell_angle_alpha 90.000000
_cell_angle_beta 90.000000
_cell_angle_gamma 90.000000
_cell_volume 1143.680547
_symmetry_space_group_name_H-M "I B A 2"
_symmetry_group_IT_number 45
_symmetry_cell_setting 'orthorhombic'
loop_
_space_group_symop_operation_xyz
x,y,z
-x,-y,z
-x,y,1/2+z
x,-y,1/2+z
1/2+x,1/2+y,1/2+z
1/2-x,1/2-y,1/2+z
1/2-x,1/2+y,z
1/2+x,1/2-y,z
loop_
_atom_site_type_symbol
_atom_site_label
_atom_site_fract_x
_atom_site_fract_y
_atom_site_fract_z
Si Si1 0.238805 0.766785 0.627220
Si Si2 0.369150 0.071954 0.912402
Si Si3 0.883440 0.073622 0.201437
Si Si4 0.941005 0.748120 0.875580
O O1 0.297175 0.867196 0.545575
O O2 0.310433 0.656027 0.596336
O O3 0.088125 0.753361 0.547195
O O4 0.292425 0.776940 0.792995
O O5 0.246693 0.032303 0.803006
O O6 0.451239 0.162456 0.831312
O O7 0.500000 0.000000 0.955684
O O8 0.974803 0.142640 0.313532
O O9 0.000000 0.000000 0.135121
#
# Coordination Sequence:
#
# PCOD9377622 Si02
#       4
#     8   8   8   8
#     4   9  22  45  75 108 156 197 254 317 385 457
#     4  11  24  44  76 114 154 202 258 313 385 464
#     4   9  22  47  77 109 153 203 254 313 387 463
#     4   9  22  44  75 111 155 200 252 321 385 460
#
# _framework density 27.979839999999999
#
# number of rings (size 3 to 8) (size 9 to 14) (size 15 to 20)
#    1.500    1.000    0.000    0.000    3.500    5.000 
#    4.500    3.750    0.000    6.000    0.000    0.000 
#    0.000    0.000    0.000    0.000    0.000    0.000 
#
# Total GULP energy -89248.444211 kJ/mol
# GULP energy per Si atom -5578.027763 kJ/mol
# Density = 2.791616 g / cm^3
# Si number density = 27.979840 Si / 1000 Ang^3
#
#
#
# Elastic Constant Matrix: (Units=GPa)
#
#
# Indices 1 2 3 4 5 6 
#
# 1 118.7797 35.5436 13.7051 0.0000 0.0000 0.0000
# 2 35.5436 93.8454 8.4490 0.0000 0.0000 0.0000
# 3 13.7051 8.4490 117.6875 0.0000 0.0000 0.0000
# 4 0.0000 0.0000 0.0000 39.1661 0.0000 0.0000
# 5 0.0000 0.0000 0.0000 0.0000 33.7989 0.0000
# 6 0.0000 0.0000 0.0000 0.0000 0.0000 48.7785
#
#
#
# Elastic Compliance Matrix: (Units=1/GPa)
#
#
# Indices 1 2 3 4 5 6 
#
# 1 0.009581 -0.003551 -0.000861 0.000000 0.000000 0.000000
# 2 -0.003551 0.012041 -0.000451 0.000000 0.000000 0.000000
# 3 -0.000861 -0.000451 0.008630 0.000000 0.000000 0.000000
# 4 0.000000 0.000000 0.000000 0.025532 0.000000 0.000000
# 5 0.000000 0.000000 0.000000 0.000000 0.029587 0.000000
# 6 0.000000 0.000000 0.000000 0.000000 0.000000 0.020501
#
#
# Mechanical properties :
#
#
# Convention : Reuss Voigt Hill
#
# Bulk Modulus (GPa) = 48.71826 49.52308 49.12067
# Shear Modulus (GPa) = 40.83635 42.52302 41.67969
#
# Velocity S-wave (km/s) = 3.82447 3.90266 3.86376
# Velocity P-wave (km/s) = 6.07880 6.16811 6.12362
#
# Compressibility (1/GPa) = 0.02052618
#
# Stress axis : x y z
#
# Youngs Moduli (GPa) = 104.37390 83.04652 115.87895
#
# Poissons Ratio (x) = 0.29492 0.09975
# Poissons Ratio (y) = 0.37066 0.05225
# Poissons Ratio (z) = 0.08984 0.03745
#
# Static dielectric constant tensor:
#      x y z
#    x 2.231370 0.000000 0.000000 
#    y 0.000000 2.208180 0.000000 
#    z 0.000000 0.000000 2.158480 
# 
# From -- ./inp_files/3034.got.cif
#   From: 2010.05.17/outbox.cif.g08.bks.cpg/sg45_2_cif.got.tgz:3034.got - 2010.06.03 19:51:22.
