data_PCOD9377206
_publ_section_title
;
Structure prediction by ZEFSAII (Michael W. Deem and Ramdas Pophale) SiO2 
 PCOD9377206
Probable space group: I B A 2
;
_chemical_formula_sum "Si O2"
_cell_formula_units_Z 56
_cell_length_a 10.695986
_cell_length_b 16.054624
_cell_length_c 15.410924
_cell_angle_alpha 90.000000
_cell_angle_beta 90.000000
_cell_angle_gamma 90.000000
_cell_volume 2646.364386
_symmetry_space_group_name_H-M "I B A 2"
_symmetry_group_IT_number 45
_symmetry_cell_setting 'orthorhombic'
loop_
_space_group_symop_operation_xyz
x,y,z
-x,-y,z
-x,y,1/2+z
x,-y,1/2+z
1/2+x,1/2+y,1/2+z
1/2-x,1/2-y,1/2+z
1/2-x,1/2+y,z
1/2+x,1/2-y,z
loop_
_atom_site_type_symbol
_atom_site_label
_atom_site_fract_x
_atom_site_fract_y
_atom_site_fract_z
Si Si1 0.863420 0.942640 0.758530
Si Si2 0.238573 0.578044 0.150652
Si Si3 0.500000 0.500000 0.917054
Si Si4 0.930165 0.180904 0.717637
Si Si5 0.017080 0.824641 0.018771
Si Si6 0.000000 0.500000 0.237977
Si Si7 0.132500 0.347225 0.304055
Si Si8 0.242272 0.699515 0.987882
O O1 0.878085 0.986984 0.853079
O O2 0.752245 0.877008 0.749293
O O3 0.987400 0.887895 0.763571
O O4 0.840156 0.006339 0.678319
O O5 0.285566 0.652941 0.212795
O O6 0.235346 0.622634 0.057254
O O7 0.108864 0.537775 0.178141
O O8 0.480741 0.416925 0.975773
O O9 0.982701 0.177194 0.620318
O O10 0.935634 0.269047 0.762413
O O11 0.890878 0.780838 0.979330
O O12 0.148437 0.775470 0.011655
O O13 0.954738 0.573460 0.299124
O O14 0.186540 0.329082 0.397370
#
# Coordination Sequence:
#
# PCOD9377206 Si02
#       8
#     8   8   4   8   8   4   8   8
#     4  11  23  42  70 102 131 190 238 295 356 431
#     4  10  23  43  66  98 141 176 235 281 360 431
#     4  12  22  46  68 106 142 184 256 296 354 442
#     4  11  24  41  72  97 135 188 234 290 358 438
#     4  11  27  44  70 104 146 187 239 304 361 430
#     4  10  24  44  64  98 134 182 228 296 358 432
#     4  11  25  42  68  99 139 179 242 292 363 430
#     4  11  25  46  66 106 140 188 238 300 364 425
#
# _framework density 21.161107000000001
#
# number of rings (size 3 to 8) (size 9 to 14) (size 15 to 20)
#    0.000    1.143    2.857    1.714   10.000    0.571 
#    2.571    0.000    0.000    0.000    0.000    0.000 
#    0.000    0.000    0.000    0.000    0.000    0.000 
#
# Total GULP energy -156002.785292 kJ/mol
# GULP energy per Si atom -5571.528046 kJ/mol
# Density = 2.111294 g / cm^3
# Si number density = 21.161107 Si / 1000 Ang^3
#
#
#
# Elastic Constant Matrix: (Units=GPa)
#
#
# Indices 1 2 3 4 5 6 
#
# 1 88.2035 48.8075 2.2629 0.0000 0.0000 0.0000
# 2 48.8075 116.4039 49.8144 0.0000 0.0000 0.0000
# 3 2.2629 49.8144 78.9483 0.0000 0.0000 0.0000
# 4 0.0000 0.0000 0.0000 29.7670 0.0000 0.0000
# 5 0.0000 0.0000 0.0000 0.0000 10.7307 0.0000
# 6 0.0000 0.0000 0.0000 0.0000 0.0000 27.8991
#
#
#
# Elastic Compliance Matrix: (Units=1/GPa)
#
#
# Indices 1 2 3 4 5 6 
#
# 1 0.016202 -0.009034 0.005236 0.000000 0.000000 0.000000
# 2 -0.009034 0.016806 -0.010345 0.000000 0.000000 0.000000
# 3 0.005236 -0.010345 0.019044 0.000000 0.000000 0.000000
# 4 0.000000 0.000000 0.000000 0.033594 0.000000 0.000000
# 5 0.000000 0.000000 0.000000 0.000000 0.093191 0.000000
# 6 0.000000 0.000000 0.000000 0.000000 0.000000 0.035843
#
#
# Mechanical properties :
#
#
# Convention : Reuss Voigt Hill
#
# Bulk Modulus (GPa) = 42.07829 53.92504 48.00167
# Shear Modulus (GPa) = 19.92914 25.85741 22.89328
#
# Velocity S-wave (km/s) = 3.07218 3.49941 3.29273
# Velocity P-wave (km/s) = 5.70195 6.47041 6.09830
#
# Compressibility (1/GPa) = 0.02376522
#
# Stress axis : x y z
#
# Youngs Moduli (GPa) = 61.72033 59.50304 52.51010
#
# Poissons Ratio (x) = 0.53756 -0.27494
# Poissons Ratio (y) = 0.55759 0.54322
# Poissons Ratio (z) = -0.32316 0.61557
#
# Static dielectric constant tensor:
#      x y z
#    x 1.864250 0.000000 0.000000 
#    y 0.000000 1.821450 0.000000 
#    z 0.000000 0.000000 1.794390 
# 
# From -- ./inp_files/6188.got.cif
#   From: 2010.05.17/outbox.cif.g08.bks.cpg/sg45_4_cif.got.tgz:6188.got - 2010.06.03 19:51:22.
