data_PCOD9377071
_publ_section_title
;
Structure prediction by ZEFSAII (Michael W. Deem and Ramdas Pophale) SiO2 
 PCOD9377071
Probable space group: I B A 2
;
_chemical_formula_sum "Si O2"
_cell_formula_units_Z 56
_cell_length_a 8.823454
_cell_length_b 15.013842
_cell_length_c 17.636886
_cell_angle_alpha 90.000000
_cell_angle_beta 90.000000
_cell_angle_gamma 90.000000
_cell_volume 2336.427853
_symmetry_space_group_name_H-M "I B A 2"
_symmetry_group_IT_number 45
_symmetry_cell_setting 'orthorhombic'
loop_
_space_group_symop_operation_xyz
x,y,z
-x,-y,z
-x,y,1/2+z
x,-y,1/2+z
1/2+x,1/2+y,1/2+z
1/2-x,1/2-y,1/2+z
1/2-x,1/2+y,z
1/2+x,1/2-y,z
loop_
_atom_site_type_symbol
_atom_site_label
_atom_site_fract_x
_atom_site_fract_y
_atom_site_fract_z
Si Si1 0.173291 0.507412 0.268790
Si Si2 0.966350 0.178157 0.620275
Si Si3 0.211797 0.547121 0.099492
Si Si4 0.595435 0.654877 0.796736
Si Si5 0.733100 0.668750 0.334713
Si Si6 0.029788 0.395685 0.460460
Si Si7 0.288041 0.159866 0.555542
O O1 0.164301 0.552871 0.186611
O O2 0.302664 0.566663 0.309549
O O3 0.232980 0.407072 0.271740
O O4 0.000000 0.500000 0.294982
O O5 0.873772 0.092476 0.591413
O O6 0.973442 0.161745 0.711005
O O7 0.874196 0.268502 0.606883
O O8 0.114854 0.185206 0.569111
O O9 0.207588 0.443393 0.080149
O O10 0.103606 0.600556 0.043843
O O11 0.446855 0.663778 0.849382
O O12 0.711429 0.736047 0.806405
O O13 0.845378 0.642690 0.403736
O O14 0.000000 0.500000 0.444398
O O15 0.872330 0.342459 0.473358
#
# Coordination Sequence:
#
# PCOD9377071 Si02
#       7
#     8   8   8   8   8   8   8
#     4  11  22  42  71  99 132 176 226 285 348 410
#     4  11  22  39  67 104 132 171 230 284 342 405
#     4  10  22  42  68  97 130 171 222 283 339 399
#     4  11  25  41  68 102 135 181 235 285 347 419
#     4  12  25  44  64  94 140 182 228 284 346 423
#     4  10  24  45  67  96 133 180 230 280 350 423
#     4  11  22  39  64  94 134 171 217 283 341 403
#
# _framework density 23.968212000000001
#
# number of rings (size 3 to 8) (size 9 to 14) (size 15 to 20)
#    0.000    1.143    0.000    6.857    0.000    8.000 
#    0.000   10.000    0.000    0.000    0.000    0.000 
#    0.000    0.000    0.000    0.000    0.000    0.000 
#
# Total GULP energy -156523.249445 kJ/mol
# GULP energy per Si atom -5590.116052 kJ/mol
# Density = 2.391366 g / cm^3
# Si number density = 23.968212 Si / 1000 Ang^3
#
#
#
# Elastic Constant Matrix: (Units=GPa)
#
#
# Indices 1 2 3 4 5 6 
#
# 1 193.6998 55.7531 37.9461 0.0000 0.0000 0.0000
# 2 55.7531 79.2381 6.6619 0.0000 0.0000 0.0000
# 3 37.9461 6.6619 75.2706 0.0000 0.0000 0.0000
# 4 0.0000 0.0000 0.0000 1.5426 0.0000 0.0000
# 5 0.0000 0.0000 0.0000 0.0000 33.0190 0.0000
# 6 0.0000 0.0000 0.0000 0.0000 0.0000 50.1259
#
#
#
# Elastic Compliance Matrix: (Units=1/GPa)
#
#
# Indices 1 2 3 4 5 6 
#
# 1 0.007160 -0.004770 -0.003187 0.000000 0.000000 0.000000
# 2 -0.004770 0.015892 0.000998 0.000000 0.000000 0.000000
# 3 -0.003187 0.000998 0.014804 0.000000 0.000000 0.000000
# 4 0.000000 0.000000 0.000000 0.648256 0.000000 0.000000
# 5 0.000000 0.000000 0.000000 0.000000 0.030286 0.000000
# 6 0.000000 0.000000 0.000000 0.000000 0.000000 0.019950
#
#
# Mechanical properties :
#
#
# Convention : Reuss Voigt Hill
#
# Bulk Modulus (GPa) = 41.77474 60.99231 51.38352
# Shear Modulus (GPa) = 6.59417 33.46066 20.02742
#
# Velocity S-wave (km/s) = 1.66048 3.74042 2.89378
# Velocity P-wave (km/s) = 4.59819 6.64505 5.71402
#
# Compressibility (1/GPa) = 0.02393791
#
# Stress axis : x y z
#
# Youngs Moduli (GPa) = 139.66541 62.92305 67.54969
#
# Poissons Ratio (x) = 0.30014 0.21531
# Poissons Ratio (y) = 0.66619 -0.06742
# Poissons Ratio (z) = 0.44517 -0.06280
#
# Static dielectric constant tensor:
#      x y z
#    x 2.023210 0.000000 0.000000 
#    y 0.000000 1.875680 0.000000 
#    z 0.000000 0.000000 1.959500 
# 
# From -- ./inp_files/8875.got.cif
#   From: 2010.05.17/outbox.cif.g08.bks.cpg/sg45_5_cif.got.tgz:8875.got - 2010.06.03 19:51:22.
