data_PCOD9377736
_publ_section_title
;
Structure prediction by ZEFSAII (Michael W. Deem and Ramdas Pophale) SiO2 
 PCOD9377736
Probable space group: I B A 2
;
_chemical_formula_sum "Si O2"
_cell_formula_units_Z 28
_cell_length_a 15.000000
_cell_length_b 15.000000
_cell_length_c 12.000000
_cell_angle_alpha 90.000000
_cell_angle_beta 90.000000
_cell_angle_gamma 90.000000
_cell_volume 2700.000000
_symmetry_space_group_name_H-M "I B A 2"
_symmetry_group_IT_number 45
_symmetry_cell_setting 'orthorhombic'
loop_
_space_group_symop_operation_xyz
x,y,z
-x,-y,z
-x,y,1/2+z
x,-y,1/2+z
1/2+x,1/2+y,1/2+z
1/2-x,1/2-y,1/2+z
1/2-x,1/2+y,z
1/2+x,1/2-y,z
loop_
_atom_site_type_symbol
_atom_site_label
_atom_site_fract_x
_atom_site_fract_y
_atom_site_fract_z
Si Si1 0.155508 0.591375 0.633700
Si Si2 0.162833 0.585567 0.265006
Si Si3 0.064406 0.079590 0.013838
Si Si4 0.821606 0.201092 0.683521
Si Si5 0.481634 0.106298 0.432136
Si Si6 0.421563 0.288338 0.917088
Si Si7 0.700956 0.562863 0.966795
O O1 0.130992 0.510272 0.716395
O O2 0.183168 0.691513 0.668533
O O3 0.077521 0.609625 0.544217
O O4 0.240610 0.546197 0.574933
O O5 0.223856 0.654163 0.193624
O O6 0.077599 0.630997 0.323558
O O7 0.230389 0.565007 0.365873
O O8 0.122399 0.142340 0.094995
O O9 0.000000 0.000000 0.064887
O O10 0.007422 0.149853 0.941801
O O11 0.131556 0.016109 0.946107
O O12 0.881691 0.195933 0.794972
O O13 0.556954 0.183899 0.438771
O O14 0.500000 0.000000 0.422116
O O15 0.345799 0.341145 0.986595
#
# Coordination Sequence:
#
# PCOD9377736 Si02
#       7
#     8   8   8   8   8   8   8
#     4  11  22  41  64  91 123 166 211 249 306 378
#     4  10  23  41  62  93 124 166 210 250 311 372
#     4  10  20  40  65  93 124 157 205 263 315 362
#     4  11  22  40  66  91 122 165 206 253 312 375
#     4  11  24  42  61  89 132 168 205 258 306 368
#     4  10  22  41  61  92 126 155 210 259 309 364
#     4   9  21  41  64  91 127 161 202 262 312 359
#
# _framework density 10.370369999999999
#
# number of rings (size 3 to 8) (size 9 to 14) (size 15 to 20)
#    0.000    1.714    2.857    0.857    0.000    6.857 
#    7.714    0.000    0.000    0.000    0.000    0.000 
#    0.000    0.000    0.000    0.000    0.000    0.000 
#
# Total GULP energy -155888.839337 kJ/mol
# GULP energy per Si atom -5567.458548 kJ/mol
# Density = 1.034677 g / cm^3
# Si number density = 10.370370 Si / 1000 Ang^3
#
#
#
# Elastic Constant Matrix: (Units=GPa)
#
#
# Indices 1 2 3 4 5 6 
#
# 1 29.4589 2.6446 16.3107 0.0000 0.0000 0.0000
# 2 2.6446 123.2469 24.3900 0.0000 0.0000 0.0000
# 3 16.3107 24.3900 32.2273 0.0000 0.0000 0.0000
# 4 0.0000 0.0000 0.0000 22.9432 0.0000 0.0000
# 5 0.0000 0.0000 0.0000 0.0000 14.1671 0.0000
# 6 0.0000 0.0000 0.0000 0.0000 0.0000 39.5047
#
#
#
# Elastic Compliance Matrix: (Units=1/GPa)
#
#
# Indices 1 2 3 4 5 6 
#
# 1 0.049246 0.004558 -0.028374 0.000000 0.000000 0.000000
# 2 0.004558 0.009965 -0.009849 0.000000 0.000000 0.000000
# 3 -0.028374 -0.009849 0.052844 0.000000 0.000000 0.000000
# 4 0.000000 0.000000 0.000000 0.043586 0.000000 0.000000
# 5 0.000000 0.000000 0.000000 0.000000 0.070586 0.000000
# 6 0.000000 0.000000 0.000000 0.000000 0.000000 0.025313
#
#
# Mechanical properties :
#
#
# Convention : Reuss Voigt Hill
#
# Bulk Modulus (GPa) = 22.35821 30.18040 26.26931
# Shear Modulus (GPa) = 14.97998 24.76217 19.87108
#
# Velocity S-wave (km/s) = 2.69038 3.45902 3.09863
# Velocity P-wave (km/s) = 4.52263 5.52593 5.04926
#
# Compressibility (1/GPa) = 0.04472629
#
# Stress axis : x y z
#
# Youngs Moduli (GPa) = 20.30602 100.35119 18.92366
#
# Poissons Ratio (x) = -0.45744 0.53694
# Poissons Ratio (y) = -0.09256 0.18637
# Poissons Ratio (z) = 0.57617 0.98833
#
# Static dielectric constant tensor:
#      x y z
#    x 1.775440 0.000000 0.000000 
#    y 0.000000 1.717340 0.000000 
#    z 0.000000 0.000000 1.784590 
# 
# From -- ./inp_files/4137.got.cif
#   From: 2010.05.17/outbox.ucp.g08.bks.cvg/sg45_3_cif.got.tgz:4137.got - 2010.06.11 16:34:12.
