data_PCOD9377226
_publ_section_title
;
Structure prediction by ZEFSAII (Michael W. Deem and Ramdas Pophale) SiO2 
 PCOD9377226
Probable space group: I B A 2
;
_chemical_formula_sum "Si O2"
_cell_formula_units_Z 44
_cell_length_a 11.019856
_cell_length_b 18.806797
_cell_length_c 9.998261
_cell_angle_alpha 90.000000
_cell_angle_beta 90.000000
_cell_angle_gamma 90.000000
_cell_volume 2072.121543
_symmetry_space_group_name_H-M "I B A 2"
_symmetry_group_IT_number 45
_symmetry_cell_setting 'orthorhombic'
loop_
_space_group_symop_operation_xyz
x,y,z
-x,-y,z
-x,y,1/2+z
x,-y,1/2+z
1/2+x,1/2+y,1/2+z
1/2-x,1/2-y,1/2+z
1/2-x,1/2+y,z
1/2+x,1/2-y,z
loop_
_atom_site_type_symbol
_atom_site_label
_atom_site_fract_x
_atom_site_fract_y
_atom_site_fract_z
Si Si1 0.783906 0.621637 0.505400
Si Si2 0.117465 0.871987 0.757886
Si Si3 0.551185 0.132747 0.058148
Si Si4 0.500000 0.500000 0.644395
Si Si5 0.240142 0.968304 0.970120
Si Si6 0.428497 0.784927 0.331016
O O1 0.682123 0.638141 0.614371
O O2 0.767263 0.548691 0.423320
O O3 0.809403 0.688322 0.410670
O O4 0.912456 0.607401 0.579674
O O5 0.015232 0.930474 0.733974
O O6 0.209146 0.912824 0.854774
O O7 0.069281 0.799428 0.819586
O O8 0.647161 0.069188 0.044897
O O9 0.534962 0.179126 0.920918
O O10 0.578444 0.182642 0.183560
O O11 0.619885 0.482761 0.558572
#
# Coordination Sequence:
#
# PCOD9377226 Si02
#       6
#     8   8   8   4   8   8
#     4   9  24  43  70 106 129 182 237 291 368 416
#     4  11  24  46  68  99 145 184 240 290 359 442
#     4  10  23  44  69 106 134 183 229 305 351 425
#     4  10  26  42  70 104 134 194 236 292 362 436
#     4  11  23  45  70  97 141 183 237 297 357 431
#     4  10  25  43  70 104 141 183 236 293 363 421
#
# _framework density 21.234276000000001
#
# number of rings (size 3 to 8) (size 9 to 14) (size 15 to 20)
#    1.091    0.727    0.000    2.182   10.182    0.000 
#    6.545    0.000    0.000    0.000    0.000    0.000 
#    0.000    0.000    0.000    0.000    0.000    0.000 
#
# Total GULP energy -122625.741450 kJ/mol
# GULP energy per Si atom -5573.897339 kJ/mol
# Density = 2.118595 g / cm^3
# Si number density = 21.234276 Si / 1000 Ang^3
#
#
#
# Elastic Constant Matrix: (Units=GPa)
#
#
# Indices 1 2 3 4 5 6 
#
# 1 45.0425 27.1858 -6.3601 0.0000 0.0000 0.0000
# 2 27.1858 155.2628 41.5685 0.0000 0.0000 0.0000
# 3 -6.3601 41.5685 58.8602 0.0002 0.0000 0.0001
# 4 0.0000 0.0000 0.0002 34.0998 0.0000 0.0000
# 5 0.0000 0.0000 0.0000 0.0000 -15.7597 0.0000
# 6 0.0000 0.0000 0.0001 0.0000 0.0000 7.5421
#
#
#
# Elastic Compliance Matrix: (Units=1/GPa)
#
#
# Indices 1 2 3 4 5 6 
#
# 1 0.027484 -0.006915 0.007853 0.000000 0.000000 0.000000
# 2 -0.006915 0.009682 -0.007585 0.000000 0.000000 0.000000
# 3 0.007853 -0.007585 0.023195 0.000000 0.000000 0.000000
# 4 0.000000 0.000000 0.000000 0.029326 0.000000 0.000000
# 5 0.000000 0.000000 0.000000 0.000000 -0.063453 0.000000
# 6 0.000000 0.000000 0.000000 0.000000 0.000000 0.132590
#
#
# Mechanical properties :
#
#
# Convention : Reuss Voigt Hill
#
# Bulk Modulus (GPa) = 21.24622 42.66156 31.95389
# Shear Modulus (GPa) = 26.62338 18.29453 22.45896
#
# Velocity S-wave (km/s) = 3.54474 2.93841 3.25572
# Velocity P-wave (km/s) = 5.17502 5.62555 5.40499
#
# Compressibility (1/GPa) = 0.04706720
#
# Stress axis : x y z
#
# Youngs Moduli (GPa) = 36.38532 103.28281 43.11341
#
# Poissons Ratio (x) = 0.71418 -0.33857
# Poissons Ratio (y) = 0.25160 0.32701
# Poissons Ratio (z) = -0.28574 0.78339
#
# Static dielectric constant tensor:
#      x y z
#    x 1.847830 0.000000 0.000000 
#    y 0.000000 1.769170 0.000000 
#    z 0.000000 0.000000 1.782710 
# 
# From -- ./inp_files/3641.got.cif
#   From: 2010.05.17/outbox.cif.g08.bks.cpg/sg45_2_cif.got.tgz:3641.got - 2010.06.03 19:51:22.
