data_PCOD9377837
_publ_section_title
;
Structure prediction by ZEFSAII (Michael W. Deem and Ramdas Pophale) SiO2 
 PCOD9377837
Probable space group: I M A 2
;
_chemical_formula_sum "Si O2"
_cell_formula_units_Z 64
_cell_length_a 9.010077
_cell_length_b 25.505117
_cell_length_c 20.407231
_cell_angle_alpha 90.000000
_cell_angle_beta 90.000000
_cell_angle_gamma 90.000000
_cell_volume 4689.644294
_symmetry_space_group_name_H-M "I M A 2"
_symmetry_group_IT_number 46
_symmetry_cell_setting 'orthorhombic'
loop_
_space_group_symop_operation_xyz
x,y,z
-x,-y,z
1/2-x,y,z
1/2+x,-y,z
1/2+x,1/2+y,1/2+z
1/2-x,1/2-y,1/2+z
-x,1/2+y,1/2+z
x,1/2-y,1/2+z
loop_
_atom_site_type_symbol
_atom_site_label
_atom_site_fract_x
_atom_site_fract_y
_atom_site_fract_z
Si Si1 0.427270 0.235550 0.732140
Si Si2 0.579767 0.919621 0.445442
Si Si3 0.421766 0.298070 0.984670
Si Si4 0.078878 0.743057 0.861729
Si Si5 0.928545 0.330904 0.117994
Si Si6 0.074523 0.947546 0.577398
Si Si7 0.921294 0.340155 0.754406
Si Si8 0.427760 0.444985 0.794495
O O1 0.250000 0.235099 0.731304
O O2 0.489526 0.225384 0.805787
O O3 0.497037 0.195633 0.680660
O O4 0.489722 0.294283 0.716753
O O5 0.750000 0.936774 0.458388
O O6 0.577215 0.856785 0.454097
O O7 0.474378 0.941770 0.501600
O O8 0.540135 0.936050 0.372008
O O9 0.250000 0.283776 0.995894
O O10 0.510077 0.302697 0.052580
O O11 0.499042 0.261162 0.931079
O O12 0.250000 0.759864 0.866794
O O13 0.080252 0.685022 0.827880
O O14 0.750000 0.326812 0.120705
O O15 0.969505 0.392469 0.110912
O O16 0.250000 0.952325 0.581605
O O17 0.000000 0.000000 0.604538
O O18 0.750000 0.343726 0.733087
O O19 0.001443 0.395648 0.756941
O O20 0.500000 0.500000 0.774657
O O21 0.250000 0.445530 0.786853
#
# Coordination Sequence:
#
# PCOD9377837 Si02
#       8
#     8   8   8   8   8   8   8   8
#     4  10  18  30  47  64  80 105 140 178 215 257
#     4   9  17  27  38  52  74 104 139 174 207 240
#     4  10  17  27  43  63  84 108 141 181 215 249
#     4   9  17  28  44  61  81 108 137 171 214 258
#     4  10  20  32  44  62  85 111 143 178 215 257
#     4  10  20  30  41  54  75 105 137 172 209 246
#     4   9  18  30  44  58  77 105 138 173 213 255
#     4  11  20  28  38  56  80 108 142 180 213 247
#
# _framework density 13.64709
#
# number of rings (size 3 to 8) (size 9 to 14) (size 15 to 20)
#    0.750    1.500    1.250    3.375    0.000    4.000 
#    0.000    0.000    0.000    0.000    0.000    0.000 
#    0.000    0.000    0.000    1.125    0.000   16.750 
#
# Total GULP energy -178147.069557 kJ/mol
# GULP energy per Si atom -5567.095924 kJ/mol
# Density = 1.361603 g / cm^3
# Si number density = 13.647090 Si / 1000 Ang^3
#
#
#
# Elastic Constant Matrix: (Units=GPa)
#
#
# Indices 1 2 3 4 5 6 
#
# 1 100.8085 48.1241 44.1463 0.0000 0.0000 0.0000
# 2 48.1241 69.4403 40.4822 0.0000 0.0000 0.0000
# 3 44.1463 40.4822 63.1015 0.0000 0.0000 0.0000
# 4 0.0000 0.0000 0.0000 15.8571 0.0000 0.0000
# 5 0.0000 0.0000 0.0000 0.0000 19.5282 0.0000
# 6 0.0000 0.0000 0.0000 0.0000 0.0000 21.0691
#
#
#
# Elastic Compliance Matrix: (Units=1/GPa)
#
#
# Indices 1 2 3 4 5 6 
#
# 1 0.016420 -0.007480 -0.006689 0.000000 0.000000 0.000000
# 2 -0.007480 0.026412 -0.011712 0.000000 0.000000 0.000000
# 3 -0.006689 -0.011712 0.028040 0.000000 0.000000 0.000000
# 4 0.000000 0.000000 0.000000 0.063063 0.000000 0.000000
# 5 0.000000 0.000000 0.000000 0.000000 0.051208 0.000000
# 6 0.000000 0.000000 0.000000 0.000000 0.000000 0.047463
#
#
# Mechanical properties :
#
#
# Convention : Reuss Voigt Hill
#
# Bulk Modulus (GPa) = 52.32304 55.42839 53.87571
# Shear Modulus (GPa) = 17.19765 17.99738 17.59752
#
# Velocity S-wave (km/s) = 3.55374 3.63543 3.59482
# Velocity P-wave (km/s) = 7.43384 7.63711 7.53616
#
# Compressibility (1/GPa) = 0.01911204
#
# Stress axis : x y z
#
# Youngs Moduli (GPa) = 60.90251 37.86124 35.66296
#
# Poissons Ratio (x) = 0.28320 0.23854
# Poissons Ratio (y) = 0.45555 0.41767
# Poissons Ratio (z) = 0.40735 0.44341
#
# Static dielectric constant tensor:
#      x y z
#    x 1.458170 0.000000 0.000000 
#    y 0.000000 1.448940 0.000000 
#    z 0.000000 0.000000 1.426720 
# 
# From -- ./inp_files/21513.got.cif
#   From: 2010.05.17/outbox.cif.g08.bks.cpg/sg46_11_cif.got.tgz:21513.got - 2010.06.03 19:58:25.
