data_PCOD9377210
_publ_section_title
;
Structure prediction by ZEFSAII (Michael W. Deem and Ramdas Pophale) SiO2 
 PCOD9377210
Probable space group: I B A 2
;
_chemical_formula_sum "Si O2"
_cell_formula_units_Z 48
_cell_length_a 17.932996
_cell_length_b 7.602190
_cell_length_c 15.654918
_cell_angle_alpha 90.000000
_cell_angle_beta 90.000000
_cell_angle_gamma 90.000000
_cell_volume 2134.235642
_symmetry_space_group_name_H-M "I B A 2"
_symmetry_group_IT_number 45
_symmetry_cell_setting 'orthorhombic'
loop_
_space_group_symop_operation_xyz
x,y,z
-x,-y,z
-x,y,1/2+z
x,-y,1/2+z
1/2+x,1/2+y,1/2+z
1/2-x,1/2-y,1/2+z
1/2-x,1/2+y,z
1/2+x,1/2-y,z
loop_
_atom_site_type_symbol
_atom_site_label
_atom_site_fract_x
_atom_site_fract_y
_atom_site_fract_z
Si Si1 0.346674 0.905302 0.559020
Si Si2 0.153326 0.405302 0.750837
Si Si3 0.200906 0.231394 0.990390
Si Si4 0.085216 0.949684 0.051689
Si Si5 0.200906 0.231394 0.319467
Si Si6 0.914784 0.949684 0.758168
O O1 0.369038 0.953447 0.654928
O O2 0.265336 0.813216 0.558779
O O3 0.400603 0.752493 0.526312
O O4 0.250000 0.750000 0.404929
O O5 0.161581 0.583354 0.802995
O O6 0.234664 0.313216 0.751078
O O7 0.099397 0.252493 0.783545
O O8 0.338419 0.916646 0.006862
O O9 0.141118 0.076651 0.000754
O O10 0.100405 0.963669 0.154928
O O11 0.000000 0.000000 0.037475
O O12 0.141118 0.076651 0.309103
O O13 0.000000 0.000000 0.772382
#
# Coordination Sequence:
#
# PCOD9377210 Si02
#       6
#     8   8   8   8   8   8
#     4  11  22  39  68  97 129 180 236 285 339 423
#     4  11  22  39  68  97 129 180 236 285 339 423
#     4  12  24  39  65 100 135 176 226 291 351 420
#     4  10  23  43  68 101 139 182 237 296 349 412
#     4  12  24  39  65 100 135 176 226 291 351 420
#     4  10  23  43  68 101 139 182 237 296 349 412
#
# _framework density 22.490487999999999
#
# number of rings (size 3 to 8) (size 9 to 14) (size 15 to 20)
#    0.000    1.000    3.333    4.000    0.000    1.333 
#    0.000    8.333    0.000    4.000    0.000    0.000 
#    0.000    0.000    0.000    0.000    0.000    0.000 
#
# Total GULP energy -134275.089959 kJ/mol
# GULP energy per Si atom -5594.795415 kJ/mol
# Density = 2.243930 g / cm^3
# Si number density = 22.490488 Si / 1000 Ang^3
#
#
#
# Elastic Constant Matrix: (Units=GPa)
#
#
# Indices 1 2 3 4 5 6 
#
# 1 67.0320 31.4002 19.9080 0.0000 0.0000 0.0000
# 2 31.4002 191.7193 59.9382 0.0000 0.0000 0.0000
# 3 19.9080 59.9382 92.4259 0.0000 0.0000 0.0000
# 4 0.0000 0.0000 0.0000 28.1910 0.0000 0.0000
# 5 0.0000 0.0000 0.0000 0.0000 21.6469 0.0000
# 6 0.0000 0.0000 0.0000 0.0000 0.0000 33.9028
#
#
#
# Elastic Compliance Matrix: (Units=1/GPa)
#
#
# Indices 1 2 3 4 5 6 
#
# 1 0.016527 -0.001999 -0.002263 0.000000 0.000000 0.000000
# 2 -0.001999 0.006784 -0.003969 0.000000 0.000000 0.000000
# 3 -0.002263 -0.003969 0.013881 0.000000 0.000000 0.000000
# 4 0.000000 0.000000 0.000000 0.035472 0.000000 0.000000
# 5 0.000000 0.000000 0.000000 0.000000 0.046196 0.000000
# 6 0.000000 0.000000 0.000000 0.000000 0.000000 0.029496
#
#
# Mechanical properties :
#
#
# Convention : Reuss Voigt Hill
#
# Bulk Modulus (GPa) = 48.24152 63.74114 55.99133
# Shear Modulus (GPa) = 29.11563 32.74354 30.92958
#
# Velocity S-wave (km/s) = 3.60192 3.81974 3.71243
# Velocity P-wave (km/s) = 6.22855 6.91786 6.58223
#
# Compressibility (1/GPa) = 0.02072903
#
# Stress axis : x y z
#
# Youngs Moduli (GPa) = 60.50728 147.40067 72.04173
#
# Poissons Ratio (x) = 0.29469 0.16305
# Poissons Ratio (y) = 0.12097 0.28593
# Poissons Ratio (z) = 0.13695 0.58503
#
# Static dielectric constant tensor:
#      x y z
#    x 1.777210 0.000000 0.000000 
#    y 0.000000 1.826860 0.000000 
#    z 0.000000 0.000000 1.924120 
# 
# From -- ./inp_files/6213.got.cif
#   From: 2010.05.17/outbox.cif.g08.bks.cpg/sg45_4_cif.got.tgz:6213.got - 2010.06.03 19:51:22.
