data_PCOD9377461
_publ_section_title
;
Structure prediction by ZEFSAII (Michael W. Deem and Ramdas Pophale) SiO2 
 PCOD9377461
Probable space group: I B A 2
;
_chemical_formula_sum "Si O2"
_cell_formula_units_Z 40
_cell_length_a 16.239720
_cell_length_b 5.353253
_cell_length_c 17.880055
_cell_angle_alpha 90.000000
_cell_angle_beta 90.000000
_cell_angle_gamma 90.000000
_cell_volume 1554.408478
_symmetry_space_group_name_H-M "I B A 2"
_symmetry_group_IT_number 45
_symmetry_cell_setting 'orthorhombic'
loop_
_space_group_symop_operation_xyz
x,y,z
-x,-y,z
-x,y,1/2+z
x,-y,1/2+z
1/2+x,1/2+y,1/2+z
1/2-x,1/2-y,1/2+z
1/2-x,1/2+y,z
1/2+x,1/2-y,z
loop_
_atom_site_type_symbol
_atom_site_label
_atom_site_fract_x
_atom_site_fract_y
_atom_site_fract_z
Si Si1 0.589319 0.589233 0.609840
Si Si2 0.844770 0.341538 0.751853
Si Si3 0.344770 0.341538 0.312396
Si Si4 0.410681 0.089232 0.454408
Si Si5 0.803138 0.249998 0.032124
O O1 0.500000 0.500000 0.635545
O O2 0.642674 0.753393 0.667124
O O3 0.580922 0.750001 0.532124
O O4 0.636501 0.326444 0.598515
O O5 0.750000 0.364769 0.782124
O O6 0.882747 0.610553 0.766870
O O7 0.882747 0.110553 0.797379
O O8 0.357326 0.253393 0.397125
O O9 0.500000 0.000000 0.428703
O O10 0.363499 0.826443 0.465733
O O11 0.750000 0.499997 0.032124
#
# Coordination Sequence:
#
# PCOD9377461 Si02
#       5
#     8   8   8   8   8
#     4  12  28  50  82 122 169 208 272 344 417 481
#     4  10  26  47  74 108 158 213 265 322 396 489
#     4  10  26  47  74 108 158 213 265 322 396 489
#     4  12  28  50  82 122 169 208 272 344 417 481
#     4  12  28  44  78 116 154 214 266 332 392 476
#
# _framework density 25.733260999999999
#
# number of rings (size 3 to 8) (size 9 to 14) (size 15 to 20)
#    0.000    0.800    4.000    0.000   16.800    1.600 
#    0.000    0.000    0.000    0.000    0.000    0.000 
#    0.000    0.000    0.000    0.000    0.000    0.000 
#
# Total GULP energy -111737.125507 kJ/mol
# GULP energy per Si atom -5586.856275 kJ/mol
# Density = 2.567469 g / cm^3
# Si number density = 25.733261 Si / 1000 Ang^3
#
#
#
# Elastic Constant Matrix: (Units=GPa)
#
#
# Indices 1 2 3 4 5 6 
#
# 1 136.4081 30.7901 18.1840 0.0000 0.0000 0.0000
# 2 30.7901 179.2582 20.1311 0.0000 0.0000 0.0000
# 3 18.1840 20.1311 129.8140 0.0000 0.0000 0.0000
# 4 0.0000 0.0000 0.0000 58.2294 0.0000 0.0000
# 5 0.0000 0.0000 0.0000 0.0000 30.2550 0.0000
# 6 0.0000 0.0000 0.0000 0.0000 0.0000 85.5248
#
#
#
# Elastic Compliance Matrix: (Units=1/GPa)
#
#
# Indices 1 2 3 4 5 6 
#
# 1 0.007727 -0.001227 -0.000892 0.000000 0.000000 0.000000
# 2 -0.001227 0.005872 -0.000739 0.000000 0.000000 0.000000
# 3 -0.000892 -0.000739 0.007943 0.000000 0.000000 0.000000
# 4 0.000000 0.000000 0.000000 0.017173 0.000000 0.000000
# 5 0.000000 0.000000 0.000000 0.000000 0.033052 0.000000
# 6 0.000000 0.000000 0.000000 0.000000 0.000000 0.011693
#
#
# Mechanical properties :
#
#
# Convention : Reuss Voigt Hill
#
# Bulk Modulus (GPa) = 63.18623 64.85453 64.02038
# Shear Modulus (GPa) = 52.93724 59.89351 56.41537
#
# Velocity S-wave (km/s) = 4.54050 4.82962 4.68729
# Velocity P-wave (km/s) = 7.21775 7.50718 7.36388
#
# Compressibility (1/GPa) = 0.01582623
#
# Stress axis : x y z
#
# Youngs Moduli (GPa) = 129.41930 170.29199 125.89933
#
# Poissons Ratio (x) = 0.20895 0.11231
# Poissons Ratio (y) = 0.15880 0.09301
# Poissons Ratio (z) = 0.11545 0.12581
#
# Static dielectric constant tensor:
#      x y z
#    x 3.246520 0.000000 0.000000 
#    y 0.000000 2.043350 0.000000 
#    z 0.000000 0.000000 2.167070 
# 
# From -- ./inp_files/383.got.cif
#   From: 2010.05.17/outbox.cif.g08.bks.cpg/sg45_1_cif.got.tgz:383.got - 2010.06.03 19:51:22.
