data_PCOD9377028
_publ_section_title
;
Structure prediction by ZEFSAII (Michael W. Deem and Ramdas Pophale) SiO2 
 PCOD9377028
Probable space group: I B A 2
;
_chemical_formula_sum "Si O2"
_cell_formula_units_Z 44
_cell_length_a 18.766922
_cell_length_b 11.748166
_cell_length_c 8.701494
_cell_angle_alpha 90.000000
_cell_angle_beta 90.000000
_cell_angle_gamma 90.000000
_cell_volume 1918.478553
_symmetry_space_group_name_H-M "I B A 2"
_symmetry_group_IT_number 45
_symmetry_cell_setting 'orthorhombic'
loop_
_space_group_symop_operation_xyz
x,y,z
-x,-y,z
-x,y,1/2+z
x,-y,1/2+z
1/2+x,1/2+y,1/2+z
1/2-x,1/2-y,1/2+z
1/2-x,1/2+y,z
1/2+x,1/2-y,z
loop_
_atom_site_type_symbol
_atom_site_label
_atom_site_fract_x
_atom_site_fract_y
_atom_site_fract_z
Si Si1 0.395069 0.417869 0.813710
Si Si2 0.659026 0.670515 0.337611
Si Si3 0.000000 0.000000 0.562808
Si Si4 0.206406 0.256613 0.169968
Si Si5 0.544035 0.851756 0.329911
Si Si6 0.589021 0.927558 0.666757
O O1 0.352603 0.537254 0.818016
O O2 0.448009 0.424331 0.667509
O O3 0.337333 0.319941 0.791778
O O4 0.447895 0.422541 0.959173
O O5 0.712542 0.725252 0.215089
O O6 0.691759 0.700312 0.504534
O O7 0.582690 0.731601 0.322527
O O8 0.168116 0.379434 0.171095
O O9 0.558325 0.900846 0.498961
O O10 0.461710 0.857413 0.284020
O O11 0.581005 0.942030 0.214415
#
# Coordination Sequence:
#
# PCOD9377028 Si02
#       6
#     8   8   4   8   8   8
#     4  11  24  46  68 106 131 176 226 280 353 396
#     4  11  27  44  66  96 136 178 221 276 333 403
#     4  10  24  42  76  98 138 166 222 298 332 420
#     4  11  27  44  66  96 136 178 221 276 333 403
#     4  10  22  41  64  94 125 167 217 265 319 382
#     4  10  22  41  64  94 125 167 217 265 319 382
#
# _framework density 22.934842
#
# number of rings (size 3 to 8) (size 9 to 14) (size 15 to 20)
#    0.000    1.455    1.818    2.182   10.182    2.909 
#    0.000    0.000    0.000    0.000    0.000    0.000 
#    0.000    0.000    0.000    0.000    0.000    0.000 
#
# Total GULP energy -123180.900345 kJ/mol
# GULP energy per Si atom -5599.131834 kJ/mol
# Density = 2.288264 g / cm^3
# Si number density = 22.934842 Si / 1000 Ang^3
#
#
#
# Elastic Constant Matrix: (Units=GPa)
#
#
# Indices 1 2 3 4 5 6 
#
# 1 68.2354 12.5171 12.5722 0.0000 0.0000 0.0000
# 2 12.5171 64.0249 -1.8513 0.0000 0.0000 0.0000
# 3 12.5722 -1.8513 78.7977 0.0000 0.0000 0.0000
# 4 0.0000 0.0000 0.0000 20.1386 0.0000 0.0000
# 5 0.0000 0.0000 0.0000 0.0000 25.4830 0.0000
# 6 0.0000 0.0000 0.0000 0.0000 0.0000 26.7125
#
#
#
# Elastic Compliance Matrix: (Units=1/GPa)
#
#
# Indices 1 2 3 4 5 6 
#
# 1 0.015708 -0.003145 -0.002580 0.000000 0.000000 0.000000
# 2 -0.003145 0.016259 0.000884 0.000000 0.000000 0.000000
# 3 -0.002580 0.000884 0.013123 0.000000 0.000000 0.000000
# 4 0.000000 0.000000 0.000000 0.049656 0.000000 0.000000
# 5 0.000000 0.000000 0.000000 0.000000 0.039242 0.000000
# 6 0.000000 0.000000 0.000000 0.000000 0.000000 0.037436
#
#
# Mechanical properties :
#
#
# Convention : Reuss Voigt Hill
#
# Bulk Modulus (GPa) = 28.24316 28.61488 28.42902
# Shear Modulus (GPa) = 25.91898 26.98818 26.45358
#
# Velocity S-wave (km/s) = 3.36536 3.43408 3.39989
# Velocity P-wave (km/s) = 5.23853 5.31296 5.27587
#
# Compressibility (1/GPa) = 0.03540680
#
# Stress axis : x y z
#
# Youngs Moduli (GPa) = 63.66374 61.50275 76.20130
#
# Poissons Ratio (x) = 0.19346 0.19660
# Poissons Ratio (y) = 0.20025 -0.06735
# Poissons Ratio (z) = 0.16426 -0.05436
#
# Static dielectric constant tensor:
#      x y z
#    x 1.813400 0.000000 0.000000 
#    y 0.000000 1.830530 0.000000 
#    z 0.000000 0.000000 1.881650 
# 
# From -- ./inp_files/2061.got.cif
#   From: 2010.05.17/outbox.cif.g08.bks.cpg/sg45_2_cif.got.tgz:2061.got - 2010.06.03 19:51:22.
