data_PCOD9377160
_publ_section_title
;
Structure prediction by ZEFSAII (Michael W. Deem and Ramdas Pophale) SiO2 
 PCOD9377160
Probable space group: I B A 2
;
_chemical_formula_sum "Si O2"
_cell_formula_units_Z 48
_cell_length_a 8.379183
_cell_length_b 29.839670
_cell_length_c 8.203515
_cell_angle_alpha 90.000000
_cell_angle_beta 90.000000
_cell_angle_gamma 90.000000
_cell_volume 2051.141719
_symmetry_space_group_name_H-M "I B A 2"
_symmetry_group_IT_number 45
_symmetry_cell_setting 'orthorhombic'
loop_
_space_group_symop_operation_xyz
x,y,z
-x,-y,z
-x,y,1/2+z
x,-y,1/2+z
1/2+x,1/2+y,1/2+z
1/2-x,1/2-y,1/2+z
1/2-x,1/2+y,z
1/2+x,1/2-y,z
loop_
_atom_site_type_symbol
_atom_site_label
_atom_site_fract_x
_atom_site_fract_y
_atom_site_fract_z
Si Si1 0.426961 0.119613 0.548320
Si Si2 0.637564 0.536672 0.360802
Si Si3 0.246181 0.629689 0.895998
Si Si4 0.743315 0.702661 0.908756
Si Si5 0.348917 0.022710 0.568968
Si Si6 0.082873 0.784246 0.261770
O O1 0.614353 0.130692 0.537223
O O2 0.359738 0.120900 0.732524
O O3 0.326067 0.155407 0.445509
O O4 0.400259 0.069075 0.487173
O O5 0.500000 0.500000 0.380242
O O6 0.628069 0.588577 0.413445
O O7 0.695202 0.535345 0.175521
O O8 0.787625 0.516233 0.454104
O O9 0.332108 0.676176 0.862953
O O10 0.656431 0.715794 0.080017
O O11 0.876786 0.737730 0.850807
O O12 0.604330 0.704955 0.773537
O O13 0.500000 0.000000 0.657721
#
# Coordination Sequence:
#
# PCOD9377160 Si02
#       6
#     8   8   8   8   8   8
#     4  10  23  40  63  93 126 165 213 267 316 391
#     4  11  24  40  62  93 130 168 215 272 326 388
#     4  10  23  42  62  94 128 166 217 264 326 387
#     4  11  24  43  67  96 131 169 219 267 332 392
#     4  11  22  41  64  92 125 171 220 263 325 389
#     4  11  24  43  66  96 130 172 214 271 327 396
#
# _framework density 23.401599999999998
#
# number of rings (size 3 to 8) (size 9 to 14) (size 15 to 20)
#    0.000    1.333    1.667    3.000    4.667    5.333 
#    3.000    0.000    0.000    0.000    0.000    0.000 
#    0.000    0.000    0.000    0.000    0.000    0.000 
#
# Total GULP energy -134154.181013 kJ/mol
# GULP energy per Si atom -5589.757542 kJ/mol
# Density = 2.334834 g / cm^3
# Si number density = 23.401600 Si / 1000 Ang^3
#
#
#
# Elastic Constant Matrix: (Units=GPa)
#
#
# Indices 1 2 3 4 5 6 
#
# 1 67.1120 -17.8524 1.1230 0.0027 0.0002 0.0003
# 2 -17.8524 46.0574 5.3889 0.0050 0.0007 0.0008
# 3 1.1230 5.3889 40.0027 0.0048 0.0006 0.0003
# 4 0.0027 0.0050 0.0048 22.6420 0.0001 0.0002
# 5 0.0002 0.0007 0.0006 0.0001 34.0036 0.0006
# 6 0.0003 0.0008 0.0003 0.0002 0.0006 46.7870
#
#
#
# Elastic Compliance Matrix: (Units=1/GPa)
#
#
# Indices 1 2 3 4 5 6 
#
# 1 0.016686 0.006627 -0.001361 -0.000003 0.000000 0.000000
# 2 0.006627 0.024692 -0.003512 -0.000005 -0.000001 0.000000
# 3 -0.001361 -0.003512 0.025510 -0.000004 0.000000 0.000000
# 4 -0.000003 -0.000005 -0.000004 0.044166 0.000000 0.000000
# 5 0.000000 -0.000001 0.000000 0.000000 0.029409 0.000000
# 6 0.000000 0.000000 0.000000 0.000000 0.000000 0.021373
#
#
# Mechanical properties :
#
#
# Convention : Reuss Voigt Hill
#
# Bulk Modulus (GPa) = 14.20567 14.49901 14.35234
# Shear Modulus (GPa) = 27.50380 31.65403 29.57891
#
# Velocity S-wave (km/s) = 3.43198 3.68182 3.55909
# Velocity P-wave (km/s) = 4.66778 4.92784 4.79957
#
# Compressibility (1/GPa) = 0.07039443
#
# Stress axis : x y z
#
# Youngs Moduli (GPa) = 59.93024 40.49943 39.20082
#
# Poissons Ratio (x) = -0.26839 0.05336
# Poissons Ratio (y) = -0.39716 0.13769
# Poissons Ratio (z) = 0.08158 0.14225
#
# Static dielectric constant tensor:
#      x y z
#    x 1.882720 0.000000 0.000000 
#    y 0.000000 1.841040 0.000000 
#    z 0.000000 0.000000 1.901210 
# 
# From -- ./inp_files/1054.got.cif
#   From: 2010.05.17/outbox.cif.g08.bks.cpg/sg45_1_cif.got.tgz:1054.got - 2010.06.03 19:51:22.
