data_PCOD9377750
_publ_section_title
;
Structure prediction by ZEFSAII (Michael W. Deem and Ramdas Pophale) SiO2 
 PCOD9377750
Probable space group: I M A 2
;
_chemical_formula_sum "Si O2"
_cell_formula_units_Z 44
_cell_length_a 24.780785
_cell_length_b 6.689702
_cell_length_c 10.669938
_cell_angle_alpha 90.000000
_cell_angle_beta 90.000000
_cell_angle_gamma 90.000000
_cell_volume 1768.820357
_symmetry_space_group_name_H-M "I M A 2"
_symmetry_group_IT_number 46
_symmetry_cell_setting 'orthorhombic'
loop_
_space_group_symop_operation_xyz
x,y,z
-x,-y,z
1/2-x,y,z
1/2+x,-y,z
1/2+x,1/2+y,1/2+z
1/2-x,1/2-y,1/2+z
-x,1/2+y,1/2+z
x,1/2-y,1/2+z
loop_
_atom_site_type_symbol
_atom_site_label
_atom_site_fract_x
_atom_site_fract_y
_atom_site_fract_z
Si Si1 0.250000 0.420057 0.317101
Si Si2 0.750000 0.868209 0.488167
Si Si3 0.750000 0.920059 0.159227
Si Si4 0.877282 0.507102 0.988168
Si Si5 0.133598 0.492041 0.716531
Si Si6 0.560958 0.573412 0.488168
Si Si7 0.633598 0.507958 0.259805
O O1 0.250000 0.334803 0.151125
O O2 0.250000 0.165198 0.325210
O O3 0.306176 0.537783 0.307413
O O4 0.750000 0.614813 0.488169
O O5 0.686846 0.938752 0.488168
O O6 0.693824 0.037783 0.168921
O O7 0.920332 0.692009 0.988168
O O8 0.882184 0.415050 0.126573
O O9 0.882184 0.415050 0.849762
O O10 0.089378 0.510676 0.611112
O O11 0.137100 0.250000 0.738168
O O12 0.500000 0.500000 0.488168
O O13 0.589378 0.489324 0.365223
#
# Coordination Sequence:
#
# PCOD9377750 Si02
#       7
#     4   4   4   8   8   8   8
#     4  10  12  18  34  56  79  94 112 142 175 220
#     4  12  12  20  36  62  82  92 118 144 182 220
#     4  10  12  18  34  56  79  94 112 142 175 220
#     4  10  16  24  41  58  75  97 126 152 178 219
#     4   9  15  24  36  54  74  99 123 147 181 216
#     4  10  18  26  34  47  73 105 131 154 177 205
#     4   9  15  24  36  54  74  99 123 147 181 216
#
# _framework density 24.875335
#
# number of rings (size 3 to 8) (size 9 to 14) (size 15 to 20)
#    0.000    2.182   10.909    0.000    0.000    0.000 
#    0.000    0.909    0.000    0.000    0.000    0.000 
#    0.000    0.000    0.000  132.545    0.000    0.000 
#
# Total GULP energy -122572.954797 kJ/mol
# GULP energy per Si atom -5571.497945 kJ/mol
# Density = 2.481872 g / cm^3
# Si number density = 24.875335 Si / 1000 Ang^3
#
#
#
# Elastic Constant Matrix: (Units=GPa)
#
#
# Indices 1 2 3 4 5 6 
#
# 1 239.4292 36.1562 107.6336 0.0000 0.0000 0.0000
# 2 36.1562 64.3841 -17.9230 0.0000 0.0000 0.0000
# 3 107.6336 -17.9230 250.3016 0.0000 0.0000 0.0000
# 4 0.0000 0.0000 0.0000 -25.9994 0.0000 0.0000
# 5 0.0000 0.0000 0.0000 0.0000 -4.1126 0.0000
# 6 0.0000 0.0000 0.0000 0.0000 0.0000 9.2462
#
#
#
# Elastic Compliance Matrix: (Units=1/GPa)
#
#
# Indices 1 2 3 4 5 6 
#
# 1 0.006148 -0.004274 -0.002950 0.000000 0.000000 0.000000
# 2 -0.004274 0.018818 0.003185 0.000000 0.000000 0.000000
# 3 -0.002950 0.003185 0.005492 0.000000 0.000000 0.000000
# 4 0.000000 0.000000 0.000000 -0.038462 0.000000 0.000000
# 5 0.000000 0.000000 0.000000 0.000000 -0.243156 0.000000
# 6 0.000000 0.000000 0.000000 0.000000 0.000000 0.108152
#
#
# Mechanical properties :
#
#
# Convention : Reuss Voigt Hill
#
# Bulk Modulus (GPa) = 44.67914 89.53871 67.10892
# Shear Modulus (GPa) = -39.22468 24.37671 -7.42398
#
# Velocity S-wave (km/s) = -3.97527 3.13382 -1.72944
# Velocity P-wave (km/s) = 1.75217 7.01196 4.80091
#
# Compressibility (1/GPa) = 0.02238181
#
# Stress axis : x y z
#
# Youngs Moduli (GPa) = 162.65424 53.13931 182.09275
#
# Poissons Ratio (x) = 0.22710 0.53713
# Poissons Ratio (y) = 0.69513 -0.58001
# Poissons Ratio (z) = 0.47979 -0.16926
#
# Static dielectric constant tensor:
#      x y z
#    x 1.780080 0.000000 0.000000 
#    y 0.000000 2.139240 0.000000 
#    z 0.000000 0.000000 2.699960 
# 
# From -- ./inp_files/12341.got.cif
#   From: 2010.05.17/outbox.cif.g08.bks.cpg/sg46_7_cif.got.tgz:12341.got - 2010.06.03 19:58:25.
