data_PCOD9377663
_publ_section_title
;
Structure prediction by ZEFSAII (Michael W. Deem and Ramdas Pophale) SiO2 
 PCOD9377663
Probable space group: I B A 2
;
_chemical_formula_sum "Si O2"
_cell_formula_units_Z 40
_cell_length_a 8.228522
_cell_length_b 20.002231
_cell_length_c 9.445502
_cell_angle_alpha 90.000000
_cell_angle_beta 90.000000
_cell_angle_gamma 90.000000
_cell_volume 1554.623819
_symmetry_space_group_name_H-M "I B A 2"
_symmetry_group_IT_number 45
_symmetry_cell_setting 'orthorhombic'
loop_
_space_group_symop_operation_xyz
x,y,z
-x,-y,z
-x,y,1/2+z
x,-y,1/2+z
1/2+x,1/2+y,1/2+z
1/2-x,1/2-y,1/2+z
1/2-x,1/2+y,z
1/2+x,1/2-y,z
loop_
_atom_site_type_symbol
_atom_site_label
_atom_site_fract_x
_atom_site_fract_y
_atom_site_fract_z
Si Si1 0.084321 0.847609 0.655590
Si Si2 0.935973 0.345422 0.551096
Si Si3 0.234613 0.074563 0.746037
Si Si4 0.819008 0.448414 0.054072
Si Si5 0.391245 0.721427 0.432176
O O1 0.247447 0.889430 0.652327
O O2 0.092651 0.785749 0.763999
O O3 0.939617 0.896732 0.701937
O O4 0.035132 0.822671 0.500902
O O5 0.863575 0.366017 0.706146
O O6 0.777357 0.314232 0.474448
O O7 0.008623 0.417443 0.503759
O O8 0.075110 0.291685 0.508640
O O9 0.225938 0.049266 0.906035
O O10 0.289289 0.012644 0.649003
#
# Coordination Sequence:
#
# PCOD9377663 Si02
#       5
#     8   8   8   8   8
#     4  11  25  48  78 117 150 203 258 323 396 480
#     4  11  28  48  78 113 158 205 263 325 400 476
#     4  11  28  48  78 113 156 208 265 331 402 473
#     4  12  27  49  78 112 159 205 270 330 399 474
#     4  11  26  47  79 113 157 205 257 323 399 479
#
# _framework density 25.729695
#
# number of rings (size 3 to 8) (size 9 to 14) (size 15 to 20)
#    0.000    0.800    2.000    2.400   11.200    4.800 
#    0.000    0.000    0.000    0.000    0.000    0.000 
#    0.000    0.000    0.000    0.000    0.000    0.000 
#
# Total GULP energy -111714.136838 kJ/mol
# GULP energy per Si atom -5585.706842 kJ/mol
# Density = 2.567113 g / cm^3
# Si number density = 25.729695 Si / 1000 Ang^3
#
#
#
# Elastic Constant Matrix: (Units=GPa)
#
#
# Indices 1 2 3 4 5 6 
#
# 1 72.7887 29.7775 -0.8730 0.0000 0.0001 0.0001
# 2 29.7775 151.3533 43.7508 0.0001 0.0001 0.0001
# 3 -0.8730 43.7508 119.3318 0.0007 0.0007 0.0004
# 4 0.0000 0.0001 0.0007 42.2613 0.0001 0.0001
# 5 0.0001 0.0001 0.0007 0.0001 14.3753 0.0002
# 6 0.0001 0.0001 0.0004 0.0001 0.0002 38.3813
#
#
#
# Elastic Compliance Matrix: (Units=1/GPa)
#
#
# Indices 1 2 3 4 5 6 
#
# 1 0.015131 -0.003366 0.001345 0.000000 0.000000 0.000000
# 2 -0.003366 0.008139 -0.003009 0.000000 0.000000 0.000000
# 3 0.001345 -0.003009 0.009493 0.000000 0.000000 0.000000
# 4 0.000000 0.000000 0.000000 0.023662 0.000000 0.000000
# 5 0.000000 0.000000 0.000000 0.000000 0.069564 0.000000
# 6 0.000000 0.000000 0.000000 0.000000 0.000000 0.026054
#
#
# Mechanical properties :
#
#
# Convention : Reuss Voigt Hill
#
# Bulk Modulus (GPa) = 44.04517 54.30938 49.17728
# Shear Modulus (GPa) = 29.46881 37.05814 33.26347
#
# Velocity S-wave (km/s) = 3.38793 3.79923 3.59946
# Velocity P-wave (km/s) = 5.69734 6.35602 6.03567
#
# Compressibility (1/GPa) = 0.02270396
#
# Stress axis : x y z
#
# Youngs Moduli (GPa) = 66.08772 122.86665 105.34212
#
# Poissons Ratio (x) = 0.41353 -0.14165
# Poissons Ratio (y) = 0.22243 0.31693
# Poissons Ratio (z) = -0.08887 0.36966
#
# Static dielectric constant tensor:
#      x y z
#    x 2.081860 0.000000 0.000000 
#    y 0.000000 2.030940 0.000000 
#    z 0.000000 0.000000 1.976570 
# 
# From -- ./inp_files/961.got.cif
#   From: 2010.05.17/outbox.cif.g08.bks.cpg/sg45_1_cif.got.tgz:961.got - 2010.06.03 19:51:22.
