data_PCOD9377867
_publ_section_title
;
Structure prediction by ZEFSAII (Michael W. Deem and Ramdas Pophale) SiO2 
 PCOD9377867
Probable space group: I M A 2
;
_chemical_formula_sum "Si O2"
_cell_formula_units_Z 56
_cell_length_a 24.805376
_cell_length_b 15.657177
_cell_length_c 9.566221
_cell_angle_alpha 90.000000
_cell_angle_beta 90.000000
_cell_angle_gamma 90.000000
_cell_volume 3715.349600
_symmetry_space_group_name_H-M "I M A 2"
_symmetry_group_IT_number 46
_symmetry_cell_setting 'orthorhombic'
loop_
_space_group_symop_operation_xyz
x,y,z
-x,-y,z
1/2-x,y,z
1/2+x,-y,z
1/2+x,1/2+y,1/2+z
1/2-x,1/2-y,1/2+z
-x,1/2+y,1/2+z
x,1/2-y,1/2+z
loop_
_atom_site_type_symbol
_atom_site_label
_atom_site_fract_x
_atom_site_fract_y
_atom_site_fract_z
Si Si1 0.968714 0.237500 0.911190
Si Si2 0.002956 0.356964 0.664770
Si Si3 0.103734 0.607503 0.995441
Si Si4 0.085542 0.504358 0.732864
Si Si5 0.811042 0.198148 0.294147
Si Si6 0.186604 0.944698 0.069035
Si Si7 0.868942 0.374411 0.302227
O O1 0.940503 0.316458 0.993952
O O2 0.922596 0.171039 0.862853
O O3 0.995494 0.283109 0.779166
O O4 0.007372 0.186536 0.014535
O O5 0.051038 0.420619 0.702391
O O6 0.948224 0.414968 0.669277
O O7 0.087149 0.528489 0.896950
O O8 0.152396 0.650824 0.908338
O O9 0.118016 0.584046 0.153086
O O10 0.144703 0.501067 0.663532
O O11 0.750000 0.195711 0.342277
O O12 0.815373 0.147027 0.148395
O O13 0.830207 0.293973 0.273308
O O14 0.250000 0.970263 0.065988
O O15 0.160128 0.932959 0.917025
#
# Coordination Sequence:
#
# PCOD9377867 Si02
#       7
#     8   8   8   8   8   8   8
#     4  10  17  29  47  71  88 126 156 201 239 279
#     4  10  18  32  53  69  97 125 163 197 248 290
#     4   9  18  28  43  63  95 127 161 198 230 271
#     4   9  19  34  48  67  95 135 160 193 240 296
#     4   9  17  26  38  60  91 130 169 193 220 266
#     4  10  19  30  44  66  96 131 166 194 233 287
#     4  11  17  25  41  65  95 124 159 197 231 266
#
# _framework density 15.072606
#
# number of rings (size 3 to 8) (size 9 to 14) (size 15 to 20)
#    0.000    2.286    2.857    3.000    0.000    2.286 
#    0.000    1.429    3.143    0.000    0.000    1.000 
#    0.000    0.000    0.000    0.000    0.000    0.000 
#
# Total GULP energy -155987.200743 kJ/mol
# GULP energy per Si atom -5570.971455 kJ/mol
# Density = 1.503830 g / cm^3
# Si number density = 15.072606 Si / 1000 Ang^3
#
#
#
# Elastic Constant Matrix: (Units=GPa)
#
#
# Indices 1 2 3 4 5 6 
#
# 1 68.2321 32.3890 29.9044 0.0000 0.0000 0.0000
# 2 32.3890 39.6641 28.2540 0.0000 0.0000 0.0000
# 3 29.9044 28.2540 90.1460 0.0000 0.0000 0.0000
# 4 0.0000 0.0000 0.0000 -7.5656 0.0000 0.0000
# 5 0.0000 0.0000 0.0000 0.0000 18.0738 0.0000
# 6 0.0000 0.0000 0.0000 0.0000 0.0000 16.7460
#
#
#
# Elastic Compliance Matrix: (Units=1/GPa)
#
#
# Indices 1 2 3 4 5 6 
#
# 1 0.024321 -0.018169 -0.002373 0.000000 0.000000 0.000000
# 2 -0.018169 0.046032 -0.008400 0.000000 0.000000 0.000000
# 3 -0.002373 -0.008400 0.014513 0.000000 0.000000 0.000000
# 4 0.000000 0.000000 0.000000 -0.132178 0.000000 0.000000
# 5 0.000000 0.000000 0.000000 0.000000 0.055329 0.000000
# 6 0.000000 0.000000 0.000000 0.000000 0.000000 0.059716
#
#
# Mechanical properties :
#
#
# Convention : Reuss Voigt Hill
#
# Bulk Modulus (GPa) = 37.06381 42.12633 39.59507
# Shear Modulus (GPa) = 37.14364 12.61716 24.88040
#
# Velocity S-wave (km/s) = 4.96957 2.89639 4.06729
# Velocity P-wave (km/s) = 7.58765 6.26060 6.95584
#
# Compressibility (1/GPa) = 0.02698050
#
# Stress axis : x y z
#
# Youngs Moduli (GPa) = 41.11710 21.72389 68.90244
#
# Poissons Ratio (x) = 0.39471 0.16353
# Poissons Ratio (y) = 0.74707 0.57880
# Poissons Ratio (z) = 0.09758 0.18249
#
# Static dielectric constant tensor:
#      x y z
#    x 1.519630 0.000000 0.000000 
#    y 0.000000 1.487720 0.000000 
#    z 0.000000 0.000000 1.524210 
# 
# From -- ./inp_files/7990.got.cif
#   From: 2010.05.17/outbox.cif.g08.bks.cpg/sg46_4_cif.got.tgz:7990.got - 2010.06.03 19:58:25.
