data_PCOD9377247
_publ_section_title
;
Structure prediction by ZEFSAII (Michael W. Deem and Ramdas Pophale) SiO2 
 PCOD9377247
Probable space group: I B A 2
;
_chemical_formula_sum "Si O2"
_cell_formula_units_Z 64
_cell_length_a 14.258029
_cell_length_b 8.578479
_cell_length_c 23.305682
_cell_angle_alpha 90.000000
_cell_angle_beta 90.000000
_cell_angle_gamma 90.000000
_cell_volume 2850.569293
_symmetry_space_group_name_H-M "I B A 2"
_symmetry_group_IT_number 45
_symmetry_cell_setting 'orthorhombic'
loop_
_space_group_symop_operation_xyz
x,y,z
-x,-y,z
-x,y,1/2+z
x,-y,1/2+z
1/2+x,1/2+y,1/2+z
1/2-x,1/2-y,1/2+z
1/2-x,1/2+y,z
1/2+x,1/2-y,z
loop_
_atom_site_type_symbol
_atom_site_label
_atom_site_fract_x
_atom_site_fract_y
_atom_site_fract_z
Si Si1 0.832347 0.791842 0.440400
Si Si2 0.953839 0.649334 0.338047
Si Si3 0.367457 0.359178 0.443569
Si Si4 0.543467 0.673364 0.145491
Si Si5 0.706308 0.514595 0.208070
Si Si6 0.383021 0.172109 0.714006
Si Si7 0.588478 0.394467 0.811694
Si Si8 0.522419 0.179480 0.521448
O O1 0.892270 0.751721 0.382311
O O2 0.724158 0.746768 0.434689
O O3 0.880814 0.682975 0.486927
O O4 0.842939 0.967098 0.464750
O O5 0.893021 0.630896 0.281077
O O6 0.000000 0.500000 0.368621
O O7 0.046913 0.723193 0.309043
O O8 0.399829 0.405041 0.379564
O O9 0.445107 0.270810 0.481760
O O10 0.500000 0.500000 0.149591
O O11 0.645921 0.635163 0.169775
O O12 0.481628 0.793268 0.183440
O O13 0.535567 0.731244 0.080878
O O14 0.671765 0.336761 0.205558
O O15 0.813891 0.538963 0.191247
O O16 0.676939 0.566218 0.273151
O O17 0.500000 0.500000 0.791918
O O18 0.500000 0.000000 0.531871
#
# Coordination Sequence:
#
# PCOD9377247 Si02
#       8
#     8   8   8   8   8   8   8   8
#     4  12  25  44  67 102 134 177 223 273 336 396
#     4  12  25  39  67  98 137 175 219 267 326 397
#     4  12  25  42  71  98 138 176 221 277 331 403
#     4  10  23  46  69  91 128 178 225 278 338 395
#     4  11  23  41  67  97 135 174 221 272 329 396
#     4  11  24  42  66 100 134 174 220 272 330 393
#     4  12  20  42  67  93 134 180 211 262 331 390
#     4  12  26  46  70  97 131 174 225 281 339 402
#
# _framework density 22.451656
#
# number of rings (size 3 to 8) (size 9 to 14) (size 15 to 20)
#    0.000    0.500    5.000    3.375    3.500    2.500 
#    0.000    2.500    0.000    0.000    0.000    0.000 
#    0.000    0.000    0.000    0.000    0.000    0.000 
#
# Total GULP energy -178594.880332 kJ/mol
# GULP energy per Si atom -5581.090010 kJ/mol
# Density = 2.240055 g / cm^3
# Si number density = 22.451656 Si / 1000 Ang^3
#
#
#
# Elastic Constant Matrix: (Units=GPa)
#
#
# Indices 1 2 3 4 5 6 
#
# 1 63.2491 17.0591 13.3742 0.0000 0.0000 0.0000
# 2 17.0591 79.2408 4.2911 0.0000 0.0000 0.0000
# 3 13.3742 4.2911 107.6311 0.0000 0.0000 0.0000
# 4 0.0000 0.0000 0.0000 22.3480 0.0000 0.0000
# 5 0.0000 0.0000 0.0000 0.0000 -4.3648 0.0000
# 6 0.0000 0.0000 0.0000 0.0000 0.0000 37.6667
#
#
#
# Elastic Compliance Matrix: (Units=1/GPa)
#
#
# Indices 1 2 3 4 5 6 
#
# 1 0.017202 -0.003595 -0.001994 0.000000 0.000000 0.000000
# 2 -0.003595 0.013398 -0.000087 0.000000 0.000000 0.000000
# 3 -0.001994 -0.000087 0.009542 0.000000 0.000000 0.000000
# 4 0.000000 0.000000 0.000000 0.044747 0.000000 0.000000
# 5 0.000000 0.000000 0.000000 0.000000 -0.229106 0.000000
# 6 0.000000 0.000000 0.000000 0.000000 0.000000 0.026549
#
#
# Mechanical properties :
#
#
# Convention : Reuss Voigt Hill
#
# Bulk Modulus (GPa) = 34.73558 35.50776 35.12167
# Shear Modulus (GPa) = -51.69650 25.48975 -13.10337
#
# Velocity S-wave (km/s) = -4.80372 3.37310 -2.41846
# Velocity P-wave (km/s) = 3.90675 5.56956 2.80689
#
# Compressibility (1/GPa) = 0.02878892
#
# Stress axis : x y z
#
# Youngs Moduli (GPa) = 58.13319 74.63523 104.79684
#
# Poissons Ratio (x) = 0.26833 0.20898
# Poissons Ratio (y) = 0.20900 0.00916
# Poissons Ratio (z) = 0.11593 0.00653
#
# Static dielectric constant tensor:
#      x y z
#    x 1.865660 0.000000 0.000000 
#    y 0.000000 1.752050 0.000000 
#    z 0.000000 0.000000 1.910890 
# 
# From -- ./inp_files/9771.got.cif
#   From: 2010.05.17/outbox.cif.g08.bks.cpg/sg45_5_cif.got.tgz:9771.got - 2010.06.03 19:51:22.
