data_PCOD9377596
_publ_section_title
;
Structure prediction by ZEFSAII (Michael W. Deem and Ramdas Pophale) SiO2 
 PCOD9377596
Probable space group: I B A 2
;
_chemical_formula_sum "Si O2"
_cell_formula_units_Z 48
_cell_length_a 16.109310
_cell_length_b 9.025981
_cell_length_c 14.213326
_cell_angle_alpha 90.000000
_cell_angle_beta 90.000000
_cell_angle_gamma 90.000000
_cell_volume 2066.650660
_symmetry_space_group_name_H-M "I B A 2"
_symmetry_group_IT_number 45
_symmetry_cell_setting 'orthorhombic'
loop_
_space_group_symop_operation_xyz
x,y,z
-x,-y,z
-x,y,1/2+z
x,-y,1/2+z
1/2+x,1/2+y,1/2+z
1/2-x,1/2-y,1/2+z
1/2-x,1/2+y,z
1/2+x,1/2-y,z
loop_
_atom_site_type_symbol
_atom_site_label
_atom_site_fract_x
_atom_site_fract_y
_atom_site_fract_z
Si Si1 0.856233 0.065400 0.853460
Si Si2 0.412018 0.282672 0.670581
Si Si3 0.676465 0.788375 0.360846
Si Si4 0.084872 0.335603 0.672382
Si Si5 0.380706 0.450499 0.056403
Si Si6 0.185088 0.426698 0.062095
O O1 0.907191 0.120606 0.764148
O O2 0.771574 0.160374 0.848511
O O3 0.835573 0.889636 0.855937
O O4 0.901839 0.100085 0.951494
O O5 0.485526 0.164815 0.676321
O O6 0.424052 0.398130 0.586005
O O7 0.328108 0.195499 0.643894
O O8 0.623974 0.856996 0.275208
O O9 0.655668 0.854995 0.463760
O O10 0.104382 0.170285 0.635836
O O11 0.128968 0.437815 0.595377
O O12 0.280543 0.474196 0.054075
#
# Coordination Sequence:
#
# PCOD9377596 Si02
#       6
#     8   8   8   8   8   8
#     4  11  25  43  74 104 141 189 247 300 353 438
#     4  12  25  46  68 107 147 187 237 295 375 435
#     4  11  25  45  72 105 140 188 248 298 360 430
#     4  12  27  44  71 107 148 188 235 301 374 439
#     4  11  23  44  74 103 137 191 246 295 355 434
#     4  11  25  46  73 103 145 192 244 301 358 436
#
# _framework density 23.225985999999999
#
# number of rings (size 3 to 8) (size 9 to 14) (size 15 to 20)
#    0.000    0.667    3.333    4.000    9.333    1.333 
#    3.000    1.667    0.000    0.000    0.000    0.000 
#    0.000    0.000    0.000    0.000    0.000    0.000 
#
# Total GULP energy -134312.605984 kJ/mol
# GULP energy per Si atom -5596.358583 kJ/mol
# Density = 2.317312 g / cm^3
# Si number density = 23.225986 Si / 1000 Ang^3
#
#
#
# Elastic Constant Matrix: (Units=GPa)
#
#
# Indices 1 2 3 4 5 6 
#
# 1 57.3491 9.6666 41.5170 0.0000 0.0000 0.0000
# 2 9.6666 86.5447 24.8088 0.0000 0.0000 0.0000
# 3 41.5170 24.8088 153.3539 0.0000 0.0000 0.0000
# 4 0.0000 0.0000 0.0000 41.4538 0.0000 0.0000
# 5 0.0000 0.0000 0.0000 0.0000 21.7128 0.0000
# 6 0.0000 0.0000 0.0000 0.0000 0.0000 39.8489
#
#
#
# Elastic Compliance Matrix: (Units=1/GPa)
#
#
# Indices 1 2 3 4 5 6 
#
# 1 0.021737 -0.000777 -0.005759 0.000000 0.000000 0.000000
# 2 -0.000777 0.012144 -0.001754 0.000000 0.000000 0.000000
# 3 -0.005759 -0.001754 0.008364 0.000000 0.000000 0.000000
# 4 0.000000 0.000000 0.000000 0.024123 0.000000 0.000000
# 5 0.000000 0.000000 0.000000 0.000000 0.046056 0.000000
# 6 0.000000 0.000000 0.000000 0.000000 0.000000 0.025095
#
#
# Mechanical properties :
#
#
# Convention : Reuss Voigt Hill
#
# Bulk Modulus (GPa) = 38.96426 49.91472 44.43949
# Shear Modulus (GPa) = 30.73988 35.35345 33.04667
#
# Velocity S-wave (km/s) = 3.64196 3.90571 3.77614
# Velocity P-wave (km/s) = 5.87348 6.47124 6.17959
#
# Compressibility (1/GPa) = 0.02566454
#
# Stress axis : x y z
#
# Youngs Moduli (GPa) = 46.00388 82.34247 119.56261
#
# Poissons Ratio (x) = 0.06398 0.68858
# Poissons Ratio (y) = 0.03575 0.20975
# Poissons Ratio (z) = 0.26494 0.14445
#
# Static dielectric constant tensor:
#      x y z
#    x 1.907800 0.000000 0.000000 
#    y 0.000000 1.882000 0.000000 
#    z 0.000000 0.000000 1.849610 
# 
# From -- ./inp_files/5599.got.cif
#   From: 2010.05.17/outbox.cif.g08.bks.cpg/sg45_3_cif.got.tgz:5599.got - 2010.06.03 19:51:22.
