data_PCOD9377643
_publ_section_title
;
Structure prediction by ZEFSAII (Michael W. Deem and Ramdas Pophale) SiO2 
 PCOD9377643
Probable space group: I B A 2
;
_chemical_formula_sum "Si O2"
_cell_formula_units_Z 36
_cell_length_a 9.108810
_cell_length_b 18.797698
_cell_length_c 8.854711
_cell_angle_alpha 90.000000
_cell_angle_beta 90.000000
_cell_angle_gamma 90.000000
_cell_volume 1516.144876
_symmetry_space_group_name_H-M "I B A 2"
_symmetry_group_IT_number 45
_symmetry_cell_setting 'orthorhombic'
loop_
_space_group_symop_operation_xyz
x,y,z
-x,-y,z
-x,y,1/2+z
x,-y,1/2+z
1/2+x,1/2+y,1/2+z
1/2-x,1/2-y,1/2+z
1/2-x,1/2+y,z
1/2+x,1/2-y,z
loop_
_atom_site_type_symbol
_atom_site_label
_atom_site_fract_x
_atom_site_fract_y
_atom_site_fract_z
Si Si1 0.692753 0.963599 0.257750
Si Si2 0.000000 0.000000 0.853704
Si Si3 0.665208 0.180396 0.906232
Si Si4 0.626847 0.771697 0.059648
Si Si5 0.267655 0.913236 0.442832
O O1 0.645888 0.903457 0.375942
O O2 0.871737 0.960339 0.263731
O O3 0.660398 0.044646 0.302884
O O4 0.651788 0.943283 0.090551
O O5 0.899490 0.942108 0.938802
O O6 0.539225 0.212061 0.013314
O O7 0.655697 0.214199 0.736779
O O8 0.815520 0.197508 0.994057
O O9 0.717653 0.829827 0.959937
#
# Coordination Sequence:
#
# PCOD9377643 Si02
#       5
#     8   4   8   8   8
#     4   9  20  36  60  89 121 158 206 252 307 366
#     4   8  18  36  60  88 122 156 206 244 314 360
#     4  11  25  44  63  93 127 169 213 263 318 379
#     4  11  25  44  63  93 127 169 213 263 318 379
#     4   9  20  36  60  89 121 158 206 252 307 366
#
# _framework density 23.744433000000001
#
# number of rings (size 3 to 8) (size 9 to 14) (size 15 to 20)
#    1.333    0.889    0.000    2.000    3.111    4.444 
#    0.000    4.444    0.000    0.000    0.000    0.000 
#    0.000    0.000    0.000    0.000    0.000    0.000 
#
# Total GULP energy -100348.954355 kJ/mol
# GULP energy per Si atom -5574.941909 kJ/mol
# Density = 2.369039 g / cm^3
# Si number density = 23.744433 Si / 1000 Ang^3
#
#
#
# Elastic Constant Matrix: (Units=GPa)
#
#
# Indices 1 2 3 4 5 6 
#
# 1 73.4836 6.2895 -7.3483 0.0000 0.0000 0.0000
# 2 6.2895 37.5957 0.8613 -0.0005 0.0001 0.0001
# 3 -7.3483 0.8613 57.6786 -0.0005 -0.0001 0.0000
# 4 0.0000 -0.0005 -0.0005 31.0606 0.0001 0.0001
# 5 0.0000 0.0001 -0.0001 0.0001 29.1680 0.0000
# 6 0.0000 0.0001 0.0000 0.0001 0.0000 45.0697
#
#
#
# Elastic Compliance Matrix: (Units=1/GPa)
#
#
# Indices 1 2 3 4 5 6 
#
# 1 0.013994 -0.002383 0.001818 0.000000 0.000000 0.000000
# 2 -0.002383 0.027014 -0.000707 0.000000 0.000000 0.000000
# 3 0.001818 -0.000707 0.017580 0.000000 0.000000 0.000000
# 4 0.000000 0.000000 0.000000 0.032195 0.000000 0.000000
# 5 0.000000 0.000000 0.000000 0.000000 0.034284 0.000000
# 6 0.000000 0.000000 0.000000 0.000000 0.000000 0.022188
#
#
# Mechanical properties :
#
#
# Convention : Reuss Voigt Hill
#
# Bulk Modulus (GPa) = 17.84281 18.70698 18.27489
# Shear Modulus (GPa) = 29.67730 32.32336 31.00033
#
# Velocity S-wave (km/s) = 3.53918 3.69359 3.61721
# Velocity P-wave (km/s) = 4.92259 5.10741 5.01585
#
# Compressibility (1/GPa) = 0.05604499
#
# Stress axis : x y z
#
# Youngs Moduli (GPa) = 71.45784 37.01836 56.88381
#
# Poissons Ratio (x) = 0.08821 -0.10344
# Poissons Ratio (y) = 0.17027 0.04021
# Poissons Ratio (z) = -0.12994 0.02617
#
# Static dielectric constant tensor:
#      x y z
#    x 1.984220 0.000000 0.000000 
#    y 0.000000 1.903430 0.000000 
#    z 0.000000 0.000000 1.869680 
# 
# From -- ./inp_files/1309.got.cif
#   From: 2010.05.17/outbox.cif.g08.bks.cpg/sg45_1_cif.got.tgz:1309.got - 2010.06.03 19:51:22.
