data_PCOD9377201
_publ_section_title
;
Structure prediction by ZEFSAII (Michael W. Deem and Ramdas Pophale) SiO2 
 PCOD9377201
Probable space group: I B A 2
;
_chemical_formula_sum "Si O2"
_cell_formula_units_Z 36
_cell_length_a 20.014041
_cell_length_b 5.034325
_cell_length_c 13.423987
_cell_angle_alpha 90.000000
_cell_angle_beta 90.000000
_cell_angle_gamma 90.000000
_cell_volume 1352.563168
_symmetry_space_group_name_H-M "I B A 2"
_symmetry_group_IT_number 45
_symmetry_cell_setting 'orthorhombic'
loop_
_space_group_symop_operation_xyz
x,y,z
-x,-y,z
-x,y,1/2+z
x,-y,1/2+z
1/2+x,1/2+y,1/2+z
1/2-x,1/2-y,1/2+z
1/2-x,1/2+y,z
1/2+x,1/2-y,z
loop_
_atom_site_type_symbol
_atom_site_label
_atom_site_fract_x
_atom_site_fract_y
_atom_site_fract_z
Si Si1 0.200106 0.744225 0.359230
Si Si2 0.545022 0.742965 0.774812
Si Si3 0.793094 0.193997 0.139790
Si Si4 0.500000 0.500000 0.584654
Si Si5 0.383101 0.644644 0.458427
O O1 0.244489 0.481359 0.369921
O O2 0.172140 0.753579 0.245857
O O3 0.142352 0.843791 0.433798
O O4 0.500000 0.500000 0.815586
O O5 0.550375 0.657879 0.658972
O O6 0.500000 0.000000 0.777779
O O7 0.607479 0.767688 0.848460
O O8 0.770279 0.889302 0.139909
O O9 0.833036 0.256150 0.040525
O O10 0.453330 0.671006 0.514400
#
# Coordination Sequence:
#
# PCOD9377201 Si02
#       5
#     8   8   8   4   8
#     4  10  23  44  66 101 139 172 221 284 342 398
#     4  10  25  47  62  96 138 176 222 282 338 396
#     4  10  23  43  66 100 134 172 223 278 342 400
#     4  10  24  48  64 102 136 180 228 282 340 406
#     4  12  22  44  73  99 132 185 231 278 336 421
#
# _framework density 26.616129000000001
#
# number of rings (size 3 to 8) (size 9 to 14) (size 15 to 20)
#    0.667    0.889    1.111    2.667    0.000    4.444 
#   16.000    0.000    0.000    0.000    0.000    0.000 
#    0.000    0.000    0.000    0.000    0.000    0.000 
#
# Total GULP energy -100703.524215 kJ/mol
# GULP energy per Si atom -5594.640234 kJ/mol
# Density = 2.655555 g / cm^3
# Si number density = 26.616129 Si / 1000 Ang^3
#
#
#
# Elastic Constant Matrix: (Units=GPa)
#
#
# Indices 1 2 3 4 5 6 
#
# 1 53.0198 -9.2147 48.6752 0.0000 0.0000 0.0000
# 2 -9.2147 98.7219 12.0014 0.0000 0.0000 0.0000
# 3 48.6752 12.0014 178.4620 0.0000 0.0000 0.0000
# 4 0.0000 0.0000 0.0000 64.2825 0.0000 0.0000
# 5 0.0000 0.0000 0.0000 0.0000 61.8573 0.0000
# 6 0.0000 0.0000 0.0000 0.0000 0.0000 28.2061
#
#
#
# Elastic Compliance Matrix: (Units=1/GPa)
#
#
# Indices 1 2 3 4 5 6 
#
# 1 0.026212 0.003343 -0.007374 0.000000 0.000000 0.000000
# 2 0.003343 0.010639 -0.001627 0.000000 0.000000 0.000000
# 3 -0.007374 -0.001627 0.007724 0.000000 0.000000 0.000000
# 4 0.000000 0.000000 0.000000 0.015556 0.000000 0.000000
# 5 0.000000 0.000000 0.000000 0.000000 0.016166 0.000000
# 6 0.000000 0.000000 0.000000 0.000000 0.000000 0.035453
#
#
# Mechanical properties :
#
#
# Convention : Reuss Voigt Hill
#
# Bulk Modulus (GPa) = 30.06744 48.12528 39.09636
# Shear Modulus (GPa) = 37.27067 49.45196 43.36132
#
# Velocity S-wave (km/s) = 3.74612 4.31509 4.04064
# Velocity P-wave (km/s) = 5.48019 6.55341 6.04068
#
# Compressibility (1/GPa) = 0.03325857
#
# Stress axis : x y z
#
# Youngs Moduli (GPa) = 38.15098 93.99087 129.46466
#
# Poissons Ratio (x) = -0.31421 0.95467
# Poissons Ratio (y) = -0.12754 0.21068
# Poissons Ratio (z) = 0.28133 0.15295
#
# Static dielectric constant tensor:
#      x y z
#    x 2.014670 0.000000 0.000000 
#    y 0.000000 2.087710 0.000000 
#    z 0.000000 0.000000 2.074770 
# 
# From -- ./inp_files/5069.got.cif
#   From: 2010.05.17/outbox.cif.g08.bks.cpg/sg45_3_cif.got.tgz:5069.got - 2010.06.03 19:51:22.
