data_PCOD9377655
_publ_section_title
;
Structure prediction by ZEFSAII (Michael W. Deem and Ramdas Pophale) SiO2 
 PCOD9377655
Probable space group: I B A 2
;
_chemical_formula_sum "Si O2"
_cell_formula_units_Z 52
_cell_length_a 13.988877
_cell_length_b 9.284897
_cell_length_c 18.205848
_cell_angle_alpha 90.000000
_cell_angle_beta 90.000000
_cell_angle_gamma 90.000000
_cell_volume 2364.671703
_symmetry_space_group_name_H-M "I B A 2"
_symmetry_group_IT_number 45
_symmetry_cell_setting 'orthorhombic'
loop_
_space_group_symop_operation_xyz
x,y,z
-x,-y,z
-x,y,1/2+z
x,-y,1/2+z
1/2+x,1/2+y,1/2+z
1/2-x,1/2-y,1/2+z
1/2-x,1/2+y,z
1/2+x,1/2-y,z
loop_
_atom_site_type_symbol
_atom_site_label
_atom_site_fract_x
_atom_site_fract_y
_atom_site_fract_z
Si Si1 0.468116 0.212031 0.335430
Si Si2 0.363142 0.281555 0.930689
Si Si3 0.138934 0.085823 0.149063
Si Si4 0.500000 0.000000 0.705002
Si Si5 0.817111 0.608550 0.118430
Si Si6 0.000000 0.000000 0.777077
Si Si7 0.327474 0.947772 0.948897
Si Si8 0.000000 0.000000 0.022220
O O1 0.577777 0.230628 0.360074
O O2 0.466670 0.127599 0.259225
O O3 0.442907 0.379938 0.323671
O O4 0.409112 0.121937 0.396321
O O5 0.272568 0.384423 0.918531
O O6 0.331176 0.122237 0.959248
O O7 0.438622 0.379862 0.977504
O O8 0.192602 0.234467 0.150907
O O9 0.218688 0.967669 0.137043
O O10 0.075843 0.068909 0.221304
O O11 0.071123 0.081961 0.077555
O O12 0.410125 0.040014 0.655403
O O13 0.833496 0.612073 0.031303
#
# Coordination Sequence:
#
# PCOD9377655 Si02
#       8
#     8   8   8   4   8   4   8   4
#     4  12  27  51  72 109 153 206 252 313 388 467
#     4  12  27  47  79 111 153 198 253 320 382 460
#     4  11  26  45  75 109 152 192 259 310 387 453
#     4  12  28  48  72 106 152 202 254 302 392 458
#     4  12  27  46  75 111 147 199 252 322 375 452
#     4  11  27  48  74 106 150 212 242 316 380 472
#     4  12  28  48  79 118 151 199 264 322 385 453
#     4  11  25  46  74 112 152 192 252 320 388 458
#
# _framework density 21.990366999999999
#
# number of rings (size 3 to 8) (size 9 to 14) (size 15 to 20)
#    0.000    0.308    4.615    2.308   10.769    2.462 
#    0.000    0.000    0.000    0.000    0.000    0.000 
#    0.000    0.000    0.000    0.000    0.000    0.000 
#
# Total GULP energy -145292.878338 kJ/mol
# GULP energy per Si atom -5588.187628 kJ/mol
# Density = 2.194032 g / cm^3
# Si number density = 21.990367 Si / 1000 Ang^3
#
#
#
# Elastic Constant Matrix: (Units=GPa)
#
#
# Indices 1 2 3 4 5 6 
#
# 1 106.5596 50.9110 32.5208 0.0000 0.0000 0.0000
# 2 50.9110 130.0958 14.1187 0.0000 0.0000 0.0000
# 3 32.5208 14.1187 54.6553 0.0000 0.0000 0.0000
# 4 0.0000 0.0000 0.0000 -19.6059 0.0000 0.0000
# 5 0.0000 0.0000 0.0000 0.0000 40.4580 0.0000
# 6 0.0000 0.0000 0.0000 0.0000 0.0000 40.8788
#
#
#
# Elastic Compliance Matrix: (Units=1/GPa)
#
#
# Indices 1 2 3 4 5 6 
#
# 1 0.013714 -0.004610 -0.006969 0.000000 0.000000 0.000000
# 2 -0.004610 0.009458 0.000300 0.000000 0.000000 0.000000
# 3 -0.006969 0.000300 0.022366 0.000000 0.000000 0.000000
# 4 0.000000 0.000000 0.000000 -0.051005 0.000000 0.000000
# 5 0.000000 0.000000 0.000000 0.000000 0.024717 0.000000
# 6 0.000000 0.000000 0.000000 0.000000 0.000000 0.024463
#
#
# Mechanical properties :
#
#
# Convention : Reuss Voigt Hill
#
# Bulk Modulus (GPa) = 43.51806 54.04576 48.78191
# Shear Modulus (GPa) = 67.63032 25.26353 46.44692
#
# Velocity S-wave (km/s) = 5.55169 3.39314 4.60080
# Velocity P-wave (km/s) = 7.80561 6.32310 7.10314
#
# Compressibility (1/GPa) = 0.02297896
#
# Stress axis : x y z
#
# Youngs Moduli (GPa) = 72.91790 105.72697 44.71130
#
# Poissons Ratio (x) = 0.48745 0.31160
# Poissons Ratio (y) = 0.33619 -0.01341
# Poissons Ratio (z) = 0.50817 -0.03172
#
# Static dielectric constant tensor:
#      x y z
#    x 1.519910 0.000000 0.000000 
#    y 0.000000 1.879700 0.000000 
#    z 0.000000 0.000000 1.795960 
# 
# From -- ./inp_files/8858.got.cif
#   From: 2010.05.17/outbox.cif.g08.bks.cpg/sg45_5_cif.got.tgz:8858.got - 2010.06.03 19:51:22.
