data_PCOD9377561
_publ_section_title
;
Structure prediction by ZEFSAII (Michael W. Deem and Ramdas Pophale) SiO2 
 PCOD9377561
Probable space group: I B A 2
;
_chemical_formula_sum "Si O2"
_cell_formula_units_Z 56
_cell_length_a 10.679242
_cell_length_b 12.940560
_cell_length_c 16.472355
_cell_angle_alpha 90.000000
_cell_angle_beta 90.000000
_cell_angle_gamma 90.000000
_cell_volume 2276.403225
_symmetry_space_group_name_H-M "I B A 2"
_symmetry_group_IT_number 45
_symmetry_cell_setting 'orthorhombic'
loop_
_space_group_symop_operation_xyz
x,y,z
-x,-y,z
-x,y,1/2+z
x,-y,1/2+z
1/2+x,1/2+y,1/2+z
1/2-x,1/2-y,1/2+z
1/2-x,1/2+y,z
1/2+x,1/2-y,z
loop_
_atom_site_type_symbol
_atom_site_label
_atom_site_fract_x
_atom_site_fract_y
_atom_site_fract_z
Si Si1 0.142145 0.030399 0.974600
Si Si2 0.779219 0.951690 0.136694
Si Si3 0.790080 0.071132 0.299449
Si Si4 0.963686 0.175835 0.723206
Si Si5 0.573875 0.237912 0.965725
Si Si6 0.979307 0.623924 0.624165
Si Si7 0.815784 0.226899 0.869179
O O1 0.181073 0.008147 0.882204
O O2 0.142630 0.154260 0.986723
O O3 0.214490 0.985303 0.052153
O O4 0.000000 0.000000 0.981005
O O5 0.914451 0.899840 0.153052
O O6 0.671281 0.867642 0.124012
O O7 0.746580 0.017390 0.216836
O O8 0.698457 0.156388 0.335790
O O9 0.915210 0.131108 0.268601
O O10 0.852086 0.168909 0.787353
O O11 0.979061 0.291813 0.690833
O O12 0.682284 0.192977 0.906634
O O13 0.440010 0.269820 0.925530
O O14 0.539793 0.164624 0.040549
O O15 0.000000 0.500000 0.634388
#
# Coordination Sequence:
#
# PCOD9377561 Si02
#       7
#     8   8   8   8   8   8   8
#     4  11  22  44  73 111 148 201 268 325 384 475
#     4  12  26  45  76 113 155 202 259 329 397 472
#     4  11  24  45  74 119 155 201 264 325 394 476
#     4  12  23  46  76 106 151 203 266 315 393 475
#     4  11  25  47  74 109 153 203 262 328 397 472
#     4  12  28  48  69 111 155 203 256 327 404 481
#     4  11  23  47  74 109 151 205 258 326 394 462
#
# _framework density 24.600211999999999
#
# number of rings (size 3 to 8) (size 9 to 14) (size 15 to 20)
#    0.000    0.571    4.286    5.571    0.000    1.143 
#    2.571    0.714    0.000    0.000    0.000    0.000 
#    0.000    0.000    0.000    0.000    0.000    0.000 
#
# Total GULP energy -156413.973162 kJ/mol
# GULP energy per Si atom -5586.213327 kJ/mol
# Density = 2.454422 g / cm^3
# Si number density = 24.600212 Si / 1000 Ang^3
#
#
#
# Elastic Constant Matrix: (Units=GPa)
#
#
# Indices 1 2 3 4 5 6 
#
# 1 91.4790 12.7482 52.5181 0.0000 0.0000 0.0000
# 2 12.7482 88.7716 46.5960 0.0000 0.0000 0.0000
# 3 52.5181 46.5960 205.6257 0.0000 0.0000 0.0000
# 4 0.0000 0.0000 0.0000 45.2026 0.0000 0.0000
# 5 0.0000 0.0000 0.0000 0.0000 46.8883 0.0000
# 6 0.0000 0.0000 0.0000 0.0000 0.0000 50.6792
#
#
#
# Elastic Compliance Matrix: (Units=1/GPa)
#
#
# Indices 1 2 3 4 5 6 
#
# 1 0.012811 -0.000139 -0.003241 0.000000 0.000000 0.000000
# 2 -0.000139 0.012787 -0.002862 0.000000 0.000000 0.000000
# 3 -0.003241 -0.002862 0.006339 0.000000 0.000000 0.000000
# 4 0.000000 0.000000 0.000000 0.022123 0.000000 0.000000
# 5 0.000000 0.000000 0.000000 0.000000 0.021327 0.000000
# 6 0.000000 0.000000 0.000000 0.000000 0.000000 0.019732
#
#
# Mechanical properties :
#
#
# Convention : Reuss Voigt Hill
#
# Bulk Modulus (GPa) = 51.40157 67.73344 59.56751
# Shear Modulus (GPa) = 43.82588 46.82163 45.32375
#
# Velocity S-wave (km/s) = 4.22539 4.36742 4.29699
# Velocity P-wave (km/s) = 6.68920 7.28189 6.99183
#
# Compressibility (1/GPa) = 0.01945466
#
# Stress axis : x y z
#
# Youngs Moduli (GPa) = 78.05639 78.20348 157.74184
#
# Poissons Ratio (x) = 0.01085 0.51118
# Poissons Ratio (y) = 0.01083 0.45149
# Poissons Ratio (z) = 0.25295 0.22383
#
# Static dielectric constant tensor:
#      x y z
#    x 1.919310 0.000000 0.000000 
#    y 0.000000 2.128780 0.000000 
#    z 0.000000 0.000000 2.035220 
# 
# From -- ./inp_files/6177.got.cif
#   From: 2010.05.17/outbox.cif.g08.bks.cpg/sg45_4_cif.got.tgz:6177.got - 2010.06.03 19:51:22.
