data_PCOD9377993
_publ_section_title
;
Structure prediction by ZEFSAII (Michael W. Deem and Ramdas Pophale) SiO2 
 PCOD9377993
Probable space group: I M A 2
;
_chemical_formula_sum "Si O2"
_cell_formula_units_Z 64
_cell_length_a 25.345844
_cell_length_b 15.134329
_cell_length_c 9.095316
_cell_angle_alpha 90.000000
_cell_angle_beta 90.000000
_cell_angle_gamma 90.000000
_cell_volume 3488.893565
_symmetry_space_group_name_H-M "I M A 2"
_symmetry_group_IT_number 46
_symmetry_cell_setting 'orthorhombic'
loop_
_space_group_symop_operation_xyz
x,y,z
-x,-y,z
1/2-x,y,z
1/2+x,-y,z
1/2+x,1/2+y,1/2+z
1/2-x,1/2-y,1/2+z
-x,1/2+y,1/2+z
x,1/2-y,1/2+z
loop_
_atom_site_type_symbol
_atom_site_label
_atom_site_fract_x
_atom_site_fract_y
_atom_site_fract_z
Si Si1 0.810455 0.849635 0.627060
Si Si2 0.600606 0.521428 0.123973
Si Si3 0.069162 0.822694 0.613060
Si Si4 0.584864 0.347227 0.767241
Si Si5 0.040250 0.178094 0.782265
Si Si6 0.354852 0.284499 0.834420
Si Si7 0.485273 0.092798 0.076436
Si Si8 0.110034 0.036953 0.282661
O O1 0.750000 0.857856 0.582643
O O2 0.839489 0.943751 0.642146
O O3 0.816695 0.789917 0.771183
O O4 0.844607 0.795191 0.507107
O O5 0.589335 0.419897 0.160388
O O6 0.567362 0.588856 0.222163
O O7 0.587570 0.536766 0.950563
O O8 0.101463 0.740776 0.681108
O O9 0.072766 0.823689 0.436476
O O10 0.010382 0.808988 0.678945
O O11 0.531167 0.380859 0.689092
O O12 0.622475 0.433667 0.757697
O O13 0.086077 0.251926 0.792282
O O14 0.021989 0.163124 0.948965
O O15 0.346911 0.385051 0.777896
O O16 0.433361 0.069397 0.167631
O O17 0.500000 0.000000 0.000731
#
# Coordination Sequence:
#
# PCOD9377993 Si02
#       8
#     8   8   8   8   8   8   8   8
#     4  10  20  36  56  79 102 129 167 213 261 313
#     4   9  20  34  50  71  99 133 170 211 260 309
#     4  11  20  33  48  69  99 138 176 213 252 305
#     4  10  21  31  45  65  94 135 178 212 248 291
#     4  11  20  30  47  74 105 138 172 208 250 306
#     4  10  20  33  52  75 102 133 167 208 258 313
#     4  10  18  28  43  66  99 138 174 204 240 293
#     4   9  18  33  46  65  97 132 168 209 251 300
#
# _framework density 18.343924999999999
#
# number of rings (size 3 to 8) (size 9 to 14) (size 15 to 20)
#    0.000    2.000    0.000    4.500    0.000    7.000 
#    0.000    0.000    0.000    0.000    0.000    8.750 
#    0.000    0.000    0.000    0.000    0.000    0.000 
#
# Total GULP energy -178346.587577 kJ/mol
# GULP energy per Si atom -5573.330862 kJ/mol
# Density = 1.830217 g / cm^3
# Si number density = 18.343925 Si / 1000 Ang^3
#
#
#
# Elastic Constant Matrix: (Units=GPa)
#
#
# Indices 1 2 3 4 5 6 
#
# 1 39.9314 22.1252 11.2612 0.0000 0.0000 0.0000
# 2 22.1252 129.2409 36.7974 0.0000 0.0000 0.0000
# 3 11.2612 36.7974 61.9295 0.0000 0.0000 0.0000
# 4 0.0000 0.0000 0.0000 29.8896 0.0000 0.0000
# 5 0.0000 0.0000 0.0000 0.0000 9.9242 0.0000
# 6 0.0000 0.0000 0.0000 0.0000 0.0000 10.1917
#
#
#
# Elastic Compliance Matrix: (Units=1/GPa)
#
#
# Indices 1 2 3 4 5 6 
#
# 1 0.028039 -0.004030 -0.002704 0.000000 0.000000 0.000000
# 2 -0.004030 0.009892 -0.005145 0.000000 0.000000 0.000000
# 3 -0.002704 -0.005145 0.019696 0.000000 0.000000 0.000000
# 4 0.000000 0.000000 0.000000 0.033456 0.000000 0.000000
# 5 0.000000 0.000000 0.000000 0.000000 0.100764 0.000000
# 6 0.000000 0.000000 0.000000 0.000000 0.000000 0.098119
#
#
# Mechanical properties :
#
#
# Convention : Reuss Voigt Hill
#
# Bulk Modulus (GPa) = 29.52561 41.27441 35.40001
# Shear Modulus (GPa) = 15.38394 20.72895 18.05645
#
# Velocity S-wave (km/s) = 2.89907 3.36522 3.14080
# Velocity P-wave (km/s) = 5.22845 6.13586 5.70024
#
# Compressibility (1/GPa) = 0.03386891
#
# Stress axis : x y z
#
# Youngs Moduli (GPa) = 35.66520 101.08863 50.77144
#
# Poissons Ratio (x) = 0.40741 0.13728
# Poissons Ratio (y) = 0.14374 0.26122
# Poissons Ratio (z) = 0.09643 0.52010
#
# Static dielectric constant tensor:
#      x y z
#    x 1.614120 0.000000 0.000000 
#    y 0.000000 1.713950 0.000000 
#    z 0.000000 0.000000 1.645450 
# 
# From -- ./inp_files/7958.got.cif
#   From: 2010.05.17/outbox.cif.g08.bks.cpg/sg46_4_cif.got.tgz:7958.got - 2010.06.03 19:58:25.
