data_PCOD9377061
_publ_section_title
;
Structure prediction by ZEFSAII (Michael W. Deem and Ramdas Pophale) SiO2 
 PCOD9377061
Probable space group: I B A 2
;
_chemical_formula_sum "Si O2"
_cell_formula_units_Z 60
_cell_length_a 24.981245
_cell_length_b 8.509324
_cell_length_c 13.116124
_cell_angle_alpha 90.000000
_cell_angle_beta 90.000000
_cell_angle_gamma 90.000000
_cell_volume 2788.140485
_symmetry_space_group_name_H-M "I B A 2"
_symmetry_group_IT_number 45
_symmetry_cell_setting 'orthorhombic'
loop_
_space_group_symop_operation_xyz
x,y,z
-x,-y,z
-x,y,1/2+z
x,-y,1/2+z
1/2+x,1/2+y,1/2+z
1/2-x,1/2-y,1/2+z
1/2-x,1/2+y,z
1/2+x,1/2-y,z
loop_
_atom_site_type_symbol
_atom_site_label
_atom_site_fract_x
_atom_site_fract_y
_atom_site_fract_z
Si Si1 0.418814 0.954113 0.992760
Si Si2 0.761551 0.523717 0.543227
Si Si3 0.000000 0.500000 0.169166
Si Si4 0.509509 0.746939 0.343979
Si Si5 0.178211 0.266914 0.952456
Si Si6 0.885353 0.075006 0.283236
Si Si7 0.673566 0.694159 0.095615
Si Si8 0.392907 0.279373 0.897577
O O1 0.461199 0.861710 0.923600
O O2 0.372270 0.829386 0.017446
O O3 0.394864 0.091620 0.919456
O O4 0.448814 0.015301 0.093665
O O5 0.785459 0.424079 0.448652
O O6 0.717404 0.644601 0.504638
O O7 0.727952 0.404133 0.612272
O O8 0.808112 0.624160 0.597130
O O9 0.006004 0.350376 0.244222
O O10 0.553896 0.622171 0.309883
O O11 0.456559 0.686436 0.400735
O O12 0.152625 0.182370 0.855501
O O13 0.870551 0.135245 0.172723
O O14 0.876144 0.889108 0.302165
O O15 0.647348 0.663874 0.985377
#
# Coordination Sequence:
#
# PCOD9377061 Si02
#       8
#     8   8   4   8   8   8   8   8
#     4  11  22  40  67  97 136 179 225 284 340 407
#     4  10  22  44  70  96 136 175 236 284 354 406
#     4  12  20  40  72  96 130 180 232 270 352 414
#     4  11  24  42  63 103 135 178 233 275 338 422
#     4  10  22  42  66  97 131 179 219 293 343 409
#     4  11  26  42  68 102 139 178 237 278 351 421
#     4  11  24  45  69 101 137 185 227 289 349 410
#     4  12  21  47  64  96 145 180 219 298 335 411
#
# _framework density 21.519717
#
# number of rings (size 3 to 8) (size 9 to 14) (size 15 to 20)
#    0.000    1.067    5.333    1.200    0.000    2.133 
#    0.000    2.667    0.000    0.000    0.000    0.000 
#    0.000    0.000    0.000    0.000    0.000    0.000 
#
# Total GULP energy -167103.275599 kJ/mol
# GULP energy per Si atom -5570.109187 kJ/mol
# Density = 2.147074 g / cm^3
# Si number density = 21.519717 Si / 1000 Ang^3
#
#
#
# Elastic Constant Matrix: (Units=GPa)
#
#
# Indices 1 2 3 4 5 6 
#
# 1 78.0289 22.0600 -1.8357 0.0000 0.0000 0.0000
# 2 22.0600 92.6324 5.8147 0.0000 0.0000 0.0000
# 3 -1.8357 5.8147 14.2247 0.0000 0.0000 0.0000
# 4 0.0000 0.0000 0.0000 7.2614 0.0000 0.0000
# 5 0.0000 0.0000 0.0000 0.0000 4.9461 0.0000
# 6 0.0000 0.0000 0.0000 0.0000 0.0000 45.9888
#
#
#
# Elastic Compliance Matrix: (Units=1/GPa)
#
#
# Indices 1 2 3 4 5 6 
#
# 1 0.013884 -0.003509 0.003226 0.000000 0.000000 0.000000
# 2 -0.003509 0.011966 -0.005344 0.000000 0.000000 0.000000
# 3 0.003226 -0.005344 0.072901 0.000000 0.000000 0.000000
# 4 0.000000 0.000000 0.000000 0.137714 0.000000 0.000000
# 5 0.000000 0.000000 0.000000 0.000000 0.202178 0.000000
# 6 0.000000 0.000000 0.000000 0.000000 0.000000 0.021744
#
#
# Mechanical properties :
#
#
# Convention : Reuss Voigt Hill
#
# Bulk Modulus (GPa) = 11.42897 26.32931 18.87914
# Shear Modulus (GPa) = 9.98388 22.22909 16.10648
#
# Velocity S-wave (km/s) = 2.15627 3.21746 2.73875
# Velocity P-wave (km/s) = 3.39437 5.10532 4.33509
#
# Compressibility (1/GPa) = 0.08749693
#
# Stress axis : x y z
#
# Youngs Moduli (GPa) = 72.02709 83.56697 13.71720
#
# Poissons Ratio (x) = 0.29322 -0.04425
# Poissons Ratio (y) = 0.25273 0.07331
# Poissons Ratio (z) = -0.23236 0.44661
#
# Static dielectric constant tensor:
#      x y z
#    x 1.810190 0.000000 0.000000 
#    y 0.000000 1.885870 0.000000 
#    z 0.000000 0.000000 1.751890 
# 
# From -- ./inp_files/4881.got.cif
#   From: 2010.05.17/outbox.cif.g08.bks.cpg/sg45_3_cif.got.tgz:4881.got - 2010.06.03 19:51:22.
