data_PCOD9377761
_publ_section_title
;
Structure prediction by ZEFSAII (Michael W. Deem and Ramdas Pophale) SiO2 
 PCOD9377761
Probable space group: I M A 2
;
_chemical_formula_sum "Si O2"
_cell_formula_units_Z 52
_cell_length_a 9.615766
_cell_length_b 32.822207
_cell_length_c 6.874416
_cell_angle_alpha 90.000000
_cell_angle_beta 90.000000
_cell_angle_gamma 90.000000
_cell_volume 2169.638985
_symmetry_space_group_name_H-M "I M A 2"
_symmetry_group_IT_number 46
_symmetry_cell_setting 'orthorhombic'
loop_
_space_group_symop_operation_xyz
x,y,z
-x,-y,z
1/2-x,y,z
1/2+x,-y,z
1/2+x,1/2+y,1/2+z
1/2-x,1/2-y,1/2+z
-x,1/2+y,1/2+z
x,1/2-y,1/2+z
loop_
_atom_site_type_symbol
_atom_site_label
_atom_site_fract_x
_atom_site_fract_y
_atom_site_fract_z
Si Si1 0.489784 0.943949 0.933310
Si Si2 0.591349 0.307924 0.800784
Si Si3 0.584369 0.040888 0.478626
Si Si4 0.750000 0.498020 0.532086
Si Si5 0.407032 0.783744 0.749980
Si Si6 0.909001 0.880753 0.394183
Si Si7 0.090616 0.143661 0.853946
O O1 0.436374 0.952972 0.712738
O O2 0.629558 0.968484 0.974356
O O3 0.519114 0.896082 0.945615
O O4 0.370593 0.963117 0.063650
O O5 0.750000 0.317939 0.736009
O O6 0.601055 0.301654 0.034042
O O7 0.479107 0.343468 0.779302
O O8 0.546242 0.263016 0.731291
O O9 0.750000 0.035905 0.450017
O O10 0.507034 0.079798 0.388174
O O11 0.500000 0.000000 0.428768
O O12 0.250000 0.781824 0.830762
O O13 0.502448 0.814877 0.867923
O O14 0.750000 0.890139 0.336796
O O15 0.903982 0.867590 0.622180
O O16 0.250000 0.148892 0.916795
#
# Coordination Sequence:
#
# PCOD9377761 Si02
#       7
#     8   8   8   4   8   8   8
#     4  10  16  23  32  50  75 110 148 180 213 260
#     4   9  17  32  47  67  88 117 148 185 223 268
#     4  11  17  23  34  52  78 113 146 181 216 263
#     4  10  16  22  32  48  74 110 146 180 216 258
#     4   9  18  30  48  65  87 116 149 182 226 266
#     4   9  18  27  40  57  82 113 146 181 221 266
#     4   9  17  26  37  56  81 111 145 182 217 263
#
# _framework density 23.967122
#
# number of rings (size 3 to 8) (size 9 to 14) (size 15 to 20)
#    0.000    2.462    3.077    0.923    2.154    2.462 
#    0.000    0.000    0.000    0.000    0.000    0.000 
#    0.000    0.000    5.231    2.615    0.000    6.154 
#
# Total GULP energy -145051.684711 kJ/mol
# GULP energy per Si atom -5578.910950 kJ/mol
# Density = 2.391257 g / cm^3
# Si number density = 23.967122 Si / 1000 Ang^3
#
#
#
# Elastic Constant Matrix: (Units=GPa)
#
#
# Indices 1 2 3 4 5 6 
#
# 1 242.4494 130.8884 27.3658 -0.0012 0.0002 -0.0002
# 2 130.8884 210.8932 27.8772 -0.0004 -0.0008 0.0000
# 3 27.3658 27.8772 77.8182 0.0032 -0.0052 0.0014
# 4 -0.0012 -0.0004 0.0032 34.2591 -0.0045 0.0007
# 5 0.0002 -0.0008 -0.0052 -0.0045 32.2515 0.0019
# 6 -0.0002 0.0000 0.0014 0.0007 0.0019 42.2309
#
#
#
# Elastic Compliance Matrix: (Units=1/GPa)
#
#
# Indices 1 2 3 4 5 6 
#
# 1 0.006256 -0.003770 -0.000849 0.000000 0.000000 0.000000
# 2 -0.003770 0.007250 -0.001271 0.000000 0.000000 0.000000
# 3 -0.000849 -0.001271 0.013605 -0.000001 0.000002 0.000000
# 4 0.000000 0.000000 -0.000001 0.029189 0.000004 0.000000
# 5 0.000000 0.000000 0.000002 0.000004 0.031006 -0.000001
# 6 0.000000 0.000000 0.000000 0.000000 -0.000001 0.023679
#
#
# Mechanical properties :
#
#
# Convention : Reuss Voigt Hill
#
# Bulk Modulus (GPa) = 65.23821 100.38042 82.80931
# Shear Modulus (GPa) = 39.10018 44.75023 41.92521
#
# Velocity S-wave (km/s) = 4.04345 4.32574 4.18698
# Velocity P-wave (km/s) = 7.00559 8.18064 7.61581
#
# Compressibility (1/GPa) = 0.01532844
#
# Stress axis : x y z
#
# Youngs Moduli (GPa) = 159.84864 137.93420 73.50490
#
# Poissons Ratio (x) = 0.52007 0.06243
# Poissons Ratio (y) = 0.60269 0.09344
# Poissons Ratio (z) = 0.13576 0.17535
#
# Static dielectric constant tensor:
#      x y z
#    x 1.810350 0.000000 0.000000 
#    y 0.000000 1.853440 0.000000 
#    z 0.000000 0.000000 2.115760 
# 
# From -- ./inp_files/9601.got.cif
#   From: 2010.05.17/outbox.cif.g08.bks.cpg/sg46_5_cif.got.tgz:9601.got - 2010.06.03 19:58:25.
