data_PCOD9377428
_publ_section_title
;
Structure prediction by ZEFSAII (Michael W. Deem and Ramdas Pophale) SiO2 
 PCOD9377428
Probable space group: I B A 2
;
_chemical_formula_sum "Si O2"
_cell_formula_units_Z 56
_cell_length_a 17.251783
_cell_length_b 10.343308
_cell_length_c 14.911288
_cell_angle_alpha 90.000000
_cell_angle_beta 90.000000
_cell_angle_gamma 90.000000
_cell_volume 2660.777763
_symmetry_space_group_name_H-M "I B A 2"
_symmetry_group_IT_number 45
_symmetry_cell_setting 'orthorhombic'
loop_
_space_group_symop_operation_xyz
x,y,z
-x,-y,z
-x,y,1/2+z
x,-y,1/2+z
1/2+x,1/2+y,1/2+z
1/2-x,1/2-y,1/2+z
1/2-x,1/2+y,z
1/2+x,1/2-y,z
loop_
_atom_site_type_symbol
_atom_site_label
_atom_site_fract_x
_atom_site_fract_y
_atom_site_fract_z
Si Si1 0.950676 0.873698 0.052400
Si Si2 0.588467 0.957788 0.281193
Si Si3 0.832267 0.018577 0.159840
Si Si4 0.904942 0.709105 0.600269
Si Si5 0.241672 0.410138 0.332731
Si Si6 0.345193 0.774914 0.929948
Si Si7 0.799613 0.493714 0.021877
O O1 0.009331 0.756576 0.073354
O O2 0.900797 0.917978 0.139157
O O3 0.894554 0.842132 0.969877
O O4 0.000000 0.000000 0.028532
O O5 0.597131 0.878945 0.188978
O O6 0.604541 0.861861 0.363651
O O7 0.500000 0.000000 0.286123
O O8 0.655751 0.067933 0.290738
O O9 0.858545 0.158506 0.121082
O O10 0.803198 0.039168 0.260382
O O11 0.759612 0.971394 0.101400
O O12 0.864154 0.617906 0.526556
O O13 0.272349 0.273214 0.370598
O O14 0.240593 0.488689 0.425220
O O15 0.329289 0.859860 0.019251
#
# Coordination Sequence:
#
# PCOD9377428 Si02
#       7
#     8   8   8   8   8   8   8
#     4  10  25  45  67 102 141 186 230 284 369 424
#     4  11  26  45  66 107 139 177 236 294 365 419
#     4  11  22  45  71  99 141 181 236 290 347 432
#     4  11  24  45  68 101 141 182 231 294 359 430
#     4  11  23  45  70 101 140 182 238 287 349 429
#     4  11  24  46  69 101 137 182 238 291 354 424
#     4  11  24  41  72 101 135 178 239 291 350 414
#
# _framework density 21.046479000000001
#
# number of rings (size 3 to 8) (size 9 to 14) (size 15 to 20)
#    0.000    1.143    4.286    0.857    6.000    0.000 
#    7.714    0.000    0.000    0.000    0.000    0.000 
#    0.000    0.000    0.000    0.000    0.000    0.000 
#
# Total GULP energy -156216.225212 kJ/mol
# GULP energy per Si atom -5579.150900 kJ/mol
# Density = 2.099858 g / cm^3
# Si number density = 21.046479 Si / 1000 Ang^3
#
#
#
# Elastic Constant Matrix: (Units=GPa)
#
#
# Indices 1 2 3 4 5 6 
#
# 1 131.4160 68.8962 28.8462 0.0000 0.0000 0.0000
# 2 68.8962 85.1792 30.5957 0.0000 0.0000 0.0000
# 3 28.8462 30.5957 76.7811 0.0000 0.0000 0.0000
# 4 0.0000 0.0000 0.0000 31.3017 0.0000 0.0000
# 5 0.0000 0.0000 0.0000 0.0000 26.4664 0.0000
# 6 0.0000 0.0000 0.0000 0.0000 0.0000 26.4555
#
#
#
# Elastic Compliance Matrix: (Units=1/GPa)
#
#
# Indices 1 2 3 4 5 6 
#
# 1 0.013257 -0.010426 -0.000826 0.000000 0.000000 0.000000
# 2 -0.010426 0.021900 -0.004810 0.000000 0.000000 0.000000
# 3 -0.000826 -0.004810 0.015251 0.000000 0.000000 0.000000
# 4 0.000000 0.000000 0.000000 0.031947 0.000000 0.000000
# 5 0.000000 0.000000 0.000000 0.000000 0.037784 0.000000
# 6 0.000000 0.000000 0.000000 0.000000 0.000000 0.037799
#
#
# Mechanical properties :
#
#
# Convention : Reuss Voigt Hill
#
# Bulk Modulus (GPa) = 54.69077 61.11696 57.90387
# Shear Modulus (GPa) = 25.48988 27.84726 26.66857
#
# Velocity S-wave (km/s) = 3.48390 3.64143 3.56354
# Velocity P-wave (km/s) = 6.49811 6.83975 6.67112
#
# Compressibility (1/GPa) = 0.01828462
#
# Stress axis : x y z
#
# Youngs Moduli (GPa) = 75.43469 45.66135 65.56939
#
# Poissons Ratio (x) = 0.47605 0.05416
# Poissons Ratio (y) = 0.78646 0.31539
# Poissons Ratio (z) = 0.06231 0.21963
#
# Static dielectric constant tensor:
#      x y z
#    x 1.820200 0.000000 0.000000 
#    y 0.000000 1.870850 0.000000 
#    z 0.000000 0.000000 1.738910 
# 
# From -- ./inp_files/6525.got.cif
#   From: 2010.05.17/outbox.cif.g08.bks.cpg/sg45_4_cif.got.tgz:6525.got - 2010.06.03 19:51:22.
