data_PCOD9377728
_publ_section_title
;
Structure prediction by ZEFSAII (Michael W. Deem and Ramdas Pophale) SiO2 
 PCOD9377728
Probable space group: I B A 2
;
_chemical_formula_sum "Si O2"
_cell_formula_units_Z 24
_cell_length_a 4.691343
_cell_length_b 19.117737
_cell_length_c 9.668545
_cell_angle_alpha 90.000000
_cell_angle_beta 90.000000
_cell_angle_gamma 90.000000
_cell_volume 867.151126
_symmetry_space_group_name_H-M "I B A 2"
_symmetry_group_IT_number 45
_symmetry_cell_setting 'orthorhombic'
loop_
_space_group_symop_operation_xyz
x,y,z
-x,-y,z
-x,y,1/2+z
x,-y,1/2+z
1/2+x,1/2+y,1/2+z
1/2-x,1/2-y,1/2+z
1/2-x,1/2+y,z
1/2+x,1/2-y,z
loop_
_atom_site_type_symbol
_atom_site_label
_atom_site_fract_x
_atom_site_fract_y
_atom_site_fract_z
Si Si1 0.500000 0.500000 0.108650
Si Si2 0.082134 0.881718 0.928435
Si Si3 0.500000 0.000000 0.804811
Si Si4 0.242186 0.795912 0.194620
O O1 0.246675 0.472257 0.202587
O O2 0.610354 0.437343 0.013891
O O3 0.897521 0.842060 0.814731
O O4 0.330671 0.934473 0.873999
O O5 0.190596 0.827463 0.043037
O O6 0.073594 0.721963 0.207596
#
# Coordination Sequence:
#
# PCOD9377728 Si02
#       4
#     4   8   4   8
#     4  12  28  50  82 128 166 224 278 376 434 520
#     4  12  28  55  85 125 172 224 294 355 443 515
#     4  12  28  50  86 126 170 222 282 374 440 516
#     4  12  30  52  85 121 172 232 288 352 424 528
#
# _framework density 27.676836000000002
#
# number of rings (size 3 to 8) (size 9 to 14) (size 15 to 20)
#    0.000    0.000    3.333    4.000    4.667    8.000 
#    0.000    0.000    0.000    0.000    0.000    0.000 
#    0.000    0.000    0.000    0.000    0.000    0.000 
#
# Total GULP energy -67334.695651 kJ/mol
# GULP energy per Si atom -5611.224638 kJ/mol
# Density = 2.761384 g / cm^3
# Si number density = 27.676836 Si / 1000 Ang^3
#
#
#
# Elastic Constant Matrix: (Units=GPa)
#
#
# Indices 1 2 3 4 5 6 
#
# 1 91.1132 15.1825 20.3242 0.0000 0.0000 0.0000
# 2 15.1825 113.6207 49.9771 0.0000 0.0000 0.0000
# 3 20.3242 49.9771 148.1916 0.0000 0.0000 0.0000
# 4 0.0000 0.0000 0.0000 57.3505 0.0000 0.0000
# 5 0.0000 0.0000 0.0000 0.0000 29.4191 0.0000
# 6 0.0000 0.0000 0.0000 0.0000 0.0000 59.4145
#
#
#
# Elastic Compliance Matrix: (Units=1/GPa)
#
#
# Indices 1 2 3 4 5 6 
#
# 1 0.011414 -0.000982 -0.001234 0.000000 0.000000 0.000000
# 2 -0.000982 0.010419 -0.003379 0.000000 0.000000 0.000000
# 3 -0.001234 -0.003379 0.008057 0.000000 0.000000 0.000000
# 4 0.000000 0.000000 0.000000 0.017437 0.000000 0.000000
# 5 0.000000 0.000000 0.000000 0.000000 0.033992 0.000000
# 6 0.000000 0.000000 0.000000 0.000000 0.000000 0.016831
#
#
# Mechanical properties :
#
#
# Convention : Reuss Voigt Hill
#
# Bulk Modulus (GPa) = 53.47897 58.21036 55.84466
# Shear Modulus (GPa) = 43.26270 47.06625 45.16448
#
# Velocity S-wave (km/s) = 3.95794 4.12826 4.04400
# Velocity P-wave (km/s) = 6.34442 6.61825 6.48278
#
# Compressibility (1/GPa) = 0.01869894
#
# Stress axis : x y z
#
# Youngs Moduli (GPa) = 87.60902 95.98081 124.11842
#
# Poissons Ratio (x) = 0.09429 0.15318
# Poissons Ratio (y) = 0.08607 0.41939
# Poissons Ratio (z) = 0.10812 0.32431
#
# Static dielectric constant tensor:
#      x y z
#    x 2.097330 0.000000 0.000000 
#    y 0.000000 2.179540 0.000000 
#    z 0.000000 0.000000 2.194770 
# 
# From -- ./inp_files/742.got.cif
#   From: 2010.05.17/outbox.cif.g08.bks.cpg/sg45_1_cif.got.tgz:742.got - 2010.06.03 19:51:22.
