data_PCOD9377007
_publ_section_title
;
Structure prediction by ZEFSAII (Michael W. Deem and Ramdas Pophale) SiO2 
 PCOD9377007
Probable space group: I B A 2
;
_chemical_formula_sum "Si O2"
_cell_formula_units_Z 60
_cell_length_a 14.591627
_cell_length_b 16.139431
_cell_length_c 12.600911
_cell_angle_alpha 90.000000
_cell_angle_beta 90.000000
_cell_angle_gamma 90.000000
_cell_volume 2967.521561
_symmetry_space_group_name_H-M "I B A 2"
_symmetry_group_IT_number 45
_symmetry_cell_setting 'orthorhombic'
loop_
_space_group_symop_operation_xyz
x,y,z
-x,-y,z
-x,y,1/2+z
x,-y,1/2+z
1/2+x,1/2+y,1/2+z
1/2-x,1/2-y,1/2+z
1/2-x,1/2+y,z
1/2+x,1/2-y,z
loop_
_atom_site_type_symbol
_atom_site_label
_atom_site_fract_x
_atom_site_fract_y
_atom_site_fract_z
Si Si1 0.085224 0.703663 0.050850
Si Si2 0.136453 0.884779 0.016415
Si Si3 0.000000 0.000000 0.136702
Si Si4 0.959571 0.639250 0.889272
Si Si5 0.847382 0.912775 0.274904
Si Si6 0.161339 0.603365 0.592820
Si Si7 0.936652 0.738960 0.221062
Si Si8 0.357290 0.064264 0.201697
O O1 0.133253 0.784810 0.006142
O O2 0.139538 0.648953 0.134471
O O3 0.999702 0.742458 0.116072
O O4 0.049093 0.638064 0.963798
O O5 0.229700 0.902735 0.080203
O O6 0.142736 0.922511 0.900024
O O7 0.047910 0.926989 0.069500
O O8 0.080251 0.034202 0.210032
O O9 0.927962 0.574729 0.799533
O O10 0.991235 0.718106 0.816180
O O11 0.879976 0.636066 0.979795
O O12 0.875715 0.818410 0.245702
O O13 0.745084 0.939019 0.245725
O O14 0.129958 0.663124 0.688941
O O15 0.122974 0.513654 0.626537
#
# Coordination Sequence:
#
# PCOD9377007 Si02
#       8
#     8   8   4   8   8   8   8   8
#     4  10  22  40  68  94 129 176 219 271 329 394
#     4  12  23  45  66  97 130 173 223 273 336 394
#     4  12  26  44  72  94 128 168 222 284 328 398
#     4  10  22  43  64  96 128 177 228 263 326 399
#     4  12  23  45  66  97 130 173 223 273 336 394
#     4  11  24  41  66  98 138 175 215 278 332 395
#     4  10  22  40  68  94 129 176 219 271 329 394
#     4  11  24  41  66  98 138 175 215 278 332 395
#
# _framework density 20.218893999999999
#
# number of rings (size 3 to 8) (size 9 to 14) (size 15 to 20)
#    0.000    1.067    5.333    1.200    0.000    6.933 
#    0.000    0.000    0.000    0.000    0.000    0.000 
#    0.000    0.000    0.000    0.000    0.000    0.000 
#
# Total GULP energy -167146.587661 kJ/mol
# GULP energy per Si atom -5571.552922 kJ/mol
# Density = 2.017287 g / cm^3
# Si number density = 20.218894 Si / 1000 Ang^3
#
#
#
# Elastic Constant Matrix: (Units=GPa)
#
#
# Indices 1 2 3 4 5 6 
#
# 1 63.6505 28.2354 40.3991 0.0000 0.0000 0.0000
# 2 28.2354 77.2995 22.2184 0.0000 0.0000 0.0000
# 3 40.3991 22.2184 88.4836 0.0000 0.0000 0.0000
# 4 0.0000 0.0000 0.0000 15.5292 0.0000 0.0000
# 5 0.0000 0.0000 0.0000 0.0000 36.7305 0.0000
# 6 0.0000 0.0000 0.0000 0.0000 0.0000 27.0924
#
#
#
# Elastic Compliance Matrix: (Units=1/GPa)
#
#
# Indices 1 2 3 4 5 6 
#
# 1 0.024605 -0.006206 -0.009675 0.000000 0.000000 0.000000
# 2 -0.006206 0.015509 -0.001061 0.000000 0.000000 0.000000
# 3 -0.009675 -0.001061 0.015985 0.000000 0.000000 0.000000
# 4 0.000000 0.000000 0.000000 0.064395 0.000000 0.000000
# 5 0.000000 0.000000 0.000000 0.000000 0.027225 0.000000
# 6 0.000000 0.000000 0.000000 0.000000 0.000000 0.036911
#
#
# Mechanical properties :
#
#
# Convention : Reuss Voigt Hill
#
# Bulk Modulus (GPa) = 45.01672 45.68217 45.34944
# Shear Modulus (GPa) = 22.13178 25.10914 23.62046
#
# Velocity S-wave (km/s) = 3.31208 3.52783 3.42166
# Velocity P-wave (km/s) = 6.07779 6.26394 6.17157
#
# Compressibility (1/GPa) = 0.02221397
#
# Stress axis : x y z
#
# Youngs Moduli (GPa) = 40.64208 64.48040 62.55718
#
# Poissons Ratio (x) = 0.40020 0.60527
# Poissons Ratio (y) = 0.25224 0.06634
# Poissons Ratio (z) = 0.39323 0.06838
#
# Static dielectric constant tensor:
#      x y z
#    x 1.699930 0.000000 0.000000 
#    y 0.000000 1.743200 0.000000 
#    z 0.000000 0.000000 1.735650 
# 
# From -- ./inp_files/4250.got.cif
#   From: 2010.05.17/outbox.cif.g08.bks.cpg/sg45_3_cif.got.tgz:4250.got - 2010.06.03 19:51:22.
