data_PCOD9377248
_publ_section_title
;
Structure prediction by ZEFSAII (Michael W. Deem and Ramdas Pophale) SiO2 
 PCOD9377248
Probable space group: I B A 2
;
_chemical_formula_sum "Si O2"
_cell_formula_units_Z 48
_cell_length_a 15.506275
_cell_length_b 12.817691
_cell_length_c 11.557808
_cell_angle_alpha 90.000000
_cell_angle_beta 90.000000
_cell_angle_gamma 90.000000
_cell_volume 2297.167986
_symmetry_space_group_name_H-M "I B A 2"
_symmetry_group_IT_number 45
_symmetry_cell_setting 'orthorhombic'
loop_
_space_group_symop_operation_xyz
x,y,z
-x,-y,z
-x,y,1/2+z
x,-y,1/2+z
1/2+x,1/2+y,1/2+z
1/2-x,1/2-y,1/2+z
1/2-x,1/2+y,z
1/2+x,1/2-y,z
loop_
_atom_site_type_symbol
_atom_site_label
_atom_site_fract_x
_atom_site_fract_y
_atom_site_fract_z
Si Si1 0.093697 0.957582 0.962940
Si Si2 0.957260 0.761999 0.341893
Si Si3 0.380921 0.186521 0.479281
Si Si4 0.116612 0.121611 0.144803
Si Si5 0.090455 0.438314 0.212508
Si Si6 0.746113 0.931328 0.319444
O O1 0.084064 0.833106 0.943441
O O2 0.176107 0.991384 0.886252
O O3 0.000000 0.000000 0.923918
O O4 0.105773 0.007752 0.089159
O O5 0.959414 0.839492 0.230476
O O6 0.905413 0.663576 0.293978
O O7 0.044509 0.710602 0.387008
O O8 0.372310 0.296719 0.542560
O O9 0.404517 0.103325 0.580278
O O10 0.298721 0.142599 0.413053
O O11 0.201277 0.129062 0.222147
O O12 0.171302 0.506005 0.254393
O O13 0.000000 0.500000 0.227202
#
# Coordination Sequence:
#
# PCOD9377248 Si02
#       6
#     8   8   8   8   8   8
#     4  11  23  46  71  99 142 188 237 288 358 415
#     4  10  23  46  71 103 140 181 238 293 348 424
#     4  11  23  46  67 107 140 187 239 291 361 418
#     4  10  24  45  67 108 136 192 241 286 359 419
#     4  11  24  44  73 108 145 186 234 288 362 430
#     4  11  25  46  70 108 143 187 236 300 348 428
#
# _framework density 20.895294
#
# number of rings (size 3 to 8) (size 9 to 14) (size 15 to 20)
#    0.000    1.333    3.333    1.000    2.333    6.667 
#    9.000    0.000    0.000    0.000    0.000    0.000 
#    0.000    0.000    0.000    0.000    0.000    0.000 
#
# Total GULP energy -133809.614892 kJ/mol
# GULP energy per Si atom -5575.400620 kJ/mol
# Density = 2.084773 g / cm^3
# Si number density = 20.895294 Si / 1000 Ang^3
#
#
#
# Elastic Constant Matrix: (Units=GPa)
#
#
# Indices 1 2 3 4 5 6 
#
# 1 142.0322 32.3234 56.5457 0.0000 0.0000 0.0000
# 2 32.3234 55.6205 41.4061 0.0000 0.0000 0.0000
# 3 56.5457 41.4061 94.2751 0.0000 0.0000 0.0000
# 4 0.0000 0.0000 0.0000 40.1678 0.0000 0.0000
# 5 0.0000 0.0000 0.0000 0.0000 45.3794 0.0000
# 6 0.0000 0.0000 0.0000 0.0000 0.0000 31.0451
#
#
#
# Elastic Compliance Matrix: (Units=1/GPa)
#
#
# Indices 1 2 3 4 5 6 
#
# 1 0.009379 -0.001876 -0.004802 0.000000 0.000000 0.000000
# 2 -0.001876 0.027088 -0.010772 0.000000 0.000000 0.000000
# 3 -0.004802 -0.010772 0.018218 0.000000 0.000000 0.000000
# 4 0.000000 0.000000 0.000000 0.024896 0.000000 0.000000
# 5 0.000000 0.000000 0.000000 0.000000 0.022036 0.000000
# 6 0.000000 0.000000 0.000000 0.000000 0.000000 0.032211
#
#
# Mechanical properties :
#
#
# Convention : Reuss Voigt Hill
#
# Bulk Modulus (GPa) = 50.53976 61.38646 55.96311
# Shear Modulus (GPa) = 28.51859 34.09532 31.30696
#
# Velocity S-wave (km/s) = 3.69837 4.04384 3.87496
# Velocity P-wave (km/s) = 6.51743 7.15859 6.84552
#
# Compressibility (1/GPa) = 0.01978640
#
# Stress axis : x y z
#
# Youngs Moduli (GPa) = 106.61855 36.91613 54.88973
#
# Poissons Ratio (x) = 0.06926 0.26356
# Poissons Ratio (y) = 0.20004 0.59127
# Poissons Ratio (z) = 0.51194 0.39766
#
# Static dielectric constant tensor:
#      x y z
#    x 1.745090 0.000000 0.000000 
#    y 0.000000 1.763950 0.000000 
#    z 0.000000 0.000000 1.787530 
# 
# From -- ./inp_files/4097.got.cif
#   From: 2010.05.17/outbox.cif.g08.bks.cpg/sg45_3_cif.got.tgz:4097.got - 2010.06.03 19:51:22.
