data_PCOD9377229
_publ_section_title
;
Structure prediction by ZEFSAII (Michael W. Deem and Ramdas Pophale) SiO2 
 PCOD9377229
Probable space group: I B A 2
;
_chemical_formula_sum "Si O2"
_cell_formula_units_Z 40
_cell_length_a 20.590441
_cell_length_b 8.908558
_cell_length_c 8.484758
_cell_angle_alpha 90.000000
_cell_angle_beta 90.000000
_cell_angle_gamma 90.000000
_cell_volume 1556.368815
_symmetry_space_group_name_H-M "I B A 2"
_symmetry_group_IT_number 45
_symmetry_cell_setting 'orthorhombic'
loop_
_space_group_symop_operation_xyz
x,y,z
-x,-y,z
-x,y,1/2+z
x,-y,1/2+z
1/2+x,1/2+y,1/2+z
1/2-x,1/2-y,1/2+z
1/2-x,1/2+y,z
1/2+x,1/2-y,z
loop_
_atom_site_type_symbol
_atom_site_label
_atom_site_fract_x
_atom_site_fract_y
_atom_site_fract_z
Si Si1 0.131459 0.898830 0.872570
Si Si2 0.687268 0.795854 0.121069
Si Si3 0.445737 0.785716 0.158509
Si Si4 0.725224 0.086891 0.941879
Si Si5 0.000000 0.500000 0.921526
Si Si6 0.000000 0.000000 0.491888
O O1 0.119196 0.793282 0.721808
O O2 0.204443 0.963352 0.865039
O O3 0.066613 0.995553 0.890381
O O4 0.133587 0.806282 0.037653
O O5 0.684808 0.835698 0.303179
O O6 0.751931 0.702659 0.075600
O O7 0.691855 0.946926 0.020744
O O8 0.473444 0.868319 0.312107
O O9 0.489980 0.650873 0.093234
O O10 0.446711 0.918650 0.031121
#
# Coordination Sequence:
#
# PCOD9377229 Si02
#       6
#     8   8   8   8   4   4
#     4  10  26  43  75 110 148 201 254 316 387 461
#     4  10  23  44  72 106 150 193 256 312 386 440
#     4  11  23  46  69 105 151 197 254 310 385 469
#     4  10  23  45  70 108 148 191 255 313 379 453
#     4  10  24  44  66 102 152 196 256 308 374 462
#     4  12  24  48  76 114 154 206 264 308 398 492
#
# _framework density 25.700849000000002
#
# number of rings (size 3 to 8) (size 9 to 14) (size 15 to 20)
#    1.200    0.400    2.000    1.800    2.800    1.600 
#    0.000    0.000    0.000    0.000    0.000    0.000 
#    0.000    0.000    0.000    0.000    0.000    0.000 
#
# Total GULP energy -111820.469581 kJ/mol
# GULP energy per Si atom -5591.023479 kJ/mol
# Density = 2.564235 g / cm^3
# Si number density = 25.700849 Si / 1000 Ang^3
#
#
#
# Elastic Constant Matrix: (Units=GPa)
#
#
# Indices 1 2 3 4 5 6 
#
# 1 97.8580 22.2482 25.0464 0.0000 0.0000 0.0000
# 2 22.2482 83.2445 29.9538 0.0000 0.0000 0.0000
# 3 25.0464 29.9538 79.5187 0.0000 0.0000 0.0000
# 4 0.0000 0.0000 0.0000 42.5400 0.0000 0.0000
# 5 0.0000 0.0000 0.0000 0.0000 37.4006 0.0000
# 6 0.0000 0.0000 0.0000 0.0000 0.0000 19.0818
#
#
#
# Elastic Compliance Matrix: (Units=1/GPa)
#
#
# Indices 1 2 3 4 5 6 
#
# 1 0.011404 -0.002031 -0.002827 0.000000 0.000000 0.000000
# 2 -0.002031 0.014258 -0.004731 0.000000 0.000000 0.000000
# 3 -0.002827 -0.004731 0.015248 0.000000 0.000000 0.000000
# 4 0.000000 0.000000 0.000000 0.023507 0.000000 0.000000
# 5 0.000000 0.000000 0.000000 0.000000 0.026738 0.000000
# 6 0.000000 0.000000 0.000000 0.000000 0.000000 0.052406
#
#
# Mechanical properties :
#
#
# Convention : Reuss Voigt Hill
#
# Bulk Modulus (GPa) = 46.01401 46.12423 46.06912
# Shear Modulus (GPa) = 29.41465 32.02933 30.72199
#
# Velocity S-wave (km/s) = 3.38672 3.53404 3.46116
# Velocity P-wave (km/s) = 5.76504 5.88541 5.82554
#
# Compressibility (1/GPa) = 0.02173251
#
# Stress axis : x y z
#
# Youngs Moduli (GPa) = 87.68749 70.13631 65.58105
#
# Poissons Ratio (x) = 0.14242 0.18540
# Poissons Ratio (y) = 0.17806 0.31028
# Poissons Ratio (z) = 0.24790 0.33183
#
# Static dielectric constant tensor:
#      x y z
#    x 2.041980 0.000000 0.000000 
#    y 0.000000 2.052360 0.000000 
#    z 0.000000 0.000000 2.021190 
# 
# From -- ./inp_files/2591.got.cif
#   From: 2010.05.17/outbox.cif.g08.bks.cpg/sg45_2_cif.got.tgz:2591.got - 2010.06.03 19:51:22.
