data_PCOD9377884
_publ_section_title
;
Structure prediction by ZEFSAII (Michael W. Deem and Ramdas Pophale) SiO2 
 PCOD9377884
Probable space group: I M A 2
;
_chemical_formula_sum "Si O2"
_cell_formula_units_Z 64
_cell_length_a 14.468041
_cell_length_b 13.136488
_cell_length_c 16.459154
_cell_angle_alpha 90.000000
_cell_angle_beta 90.000000
_cell_angle_gamma 90.000000
_cell_volume 3128.214415
_symmetry_space_group_name_H-M "I M A 2"
_symmetry_group_IT_number 46
_symmetry_cell_setting 'orthorhombic'
loop_
_space_group_symop_operation_xyz
x,y,z
-x,-y,z
1/2-x,y,z
1/2+x,-y,z
1/2+x,1/2+y,1/2+z
1/2-x,1/2-y,1/2+z
-x,1/2+y,1/2+z
x,1/2-y,1/2+z
loop_
_atom_site_type_symbol
_atom_site_label
_atom_site_fract_x
_atom_site_fract_y
_atom_site_fract_z
Si Si1 0.853770 0.362701 0.680230
Si Si2 0.359672 0.205169 0.226937
Si Si3 0.100345 0.453420 0.585923
Si Si4 0.017912 0.887543 0.333740
Si Si5 0.642285 0.289938 0.381569
Si Si6 0.639198 0.989854 0.913695
Si Si7 0.636893 0.934768 0.734094
Si Si8 0.856564 0.351853 0.189511
O O1 0.750000 0.345270 0.713377
O O2 0.843967 0.446238 0.611520
O O3 0.917602 0.402232 0.753273
O O4 0.892648 0.253222 0.651016
O O5 0.250000 0.203019 0.247161
O O6 0.376426 0.134658 0.148828
O O7 0.423750 0.162704 0.299500
O O8 0.388056 0.321496 0.207844
O O9 0.114931 0.425971 0.492672
O O10 0.000000 0.500000 0.597118
O O11 0.075421 0.806921 0.387547
O O12 0.000000 0.000000 0.368413
O O13 0.750000 0.268178 0.402555
O O14 0.608709 0.392785 0.425576
O O15 0.640977 0.324685 0.286162
O O16 0.750000 0.994697 0.907205
O O17 0.605567 0.947023 0.827826
O O18 0.750000 0.940131 0.733372
O O19 0.603657 0.034553 0.685253
O O20 0.750000 0.360097 0.162288
#
# Coordination Sequence:
#
# PCOD9377884 Si02
#       8
#     8   8   8   8   8   8   8   8
#     4  10  17  30  50  73 102 136 174 224 275 320
#     4  11  21  33  49  73 112 150 182 221 272 333
#     4  12  22  34  50  79 115 146 181 227 275 332
#     4  11  19  30  47  75 106 139 177 225 274 332
#     4   8  16  31  52  77 104 135 175 231 285 324
#     4   9  18  35  57  82 109 141 186 232 281 327
#     4   8  16  32  52  77 106 138 179 225 270 328
#     4   7  12  25  48  73  96 126 168 219 268 306
#
# _framework density 20.458953999999999
#
# number of rings (size 3 to 8) (size 9 to 14) (size 15 to 20)
#    0.000    2.500    2.500    3.750    0.000    1.500 
#    0.000    5.000    0.000    0.000    6.500    0.000 
#    0.000    0.000    0.000    0.000    0.000    0.000 
#
# Total GULP energy -178318.192976 kJ/mol
# GULP energy per Si atom -5572.443531 kJ/mol
# Density = 2.041239 g / cm^3
# Si number density = 20.458954 Si / 1000 Ang^3
#
#
#
# Elastic Constant Matrix: (Units=GPa)
#
#
# Indices 1 2 3 4 5 6 
#
# 1 80.7294 22.0315 -1.7552 0.0000 0.0000 0.0000
# 2 22.0315 173.1032 26.5520 0.0000 0.0000 0.0000
# 3 -1.7552 26.5520 29.6029 0.0000 0.0000 0.0000
# 4 0.0000 0.0000 0.0000 11.7720 0.0000 0.0000
# 5 0.0000 0.0000 0.0000 0.0000 11.6247 0.0000
# 6 0.0000 0.0000 0.0000 0.0000 0.0000 12.3775
#
#
#
# Elastic Compliance Matrix: (Units=1/GPa)
#
#
# Indices 1 2 3 4 5 6 
#
# 1 0.013005 -0.002056 0.002616 0.000000 0.000000 0.000000
# 2 -0.002056 0.007024 -0.006422 0.000000 0.000000 0.000000
# 3 0.002616 -0.006422 0.039695 0.000000 0.000000 0.000000
# 4 0.000000 0.000000 0.000000 0.084948 0.000000 0.000000
# 5 0.000000 0.000000 0.000000 0.000000 0.086023 0.000000
# 6 0.000000 0.000000 0.000000 0.000000 0.000000 0.080792
#
#
# Mechanical properties :
#
#
# Convention : Reuss Voigt Hill
#
# Bulk Modulus (GPa) = 20.83372 41.89911 31.36642
# Shear Modulus (GPa) = 14.74004 22.92864 18.83434
#
# Velocity S-wave (km/s) = 2.68707 3.35134 3.03742
# Velocity P-wave (km/s) = 4.45336 5.95813 5.25984
#
# Compressibility (1/GPa) = 0.04799911
#
# Stress axis : x y z
#
# Youngs Moduli (GPa) = 76.89267 142.37626 25.19184
#
# Poissons Ratio (x) = 0.29278 -0.06589
# Poissons Ratio (y) = 0.15812 0.16177
# Poissons Ratio (z) = -0.20112 0.91430
#
# Static dielectric constant tensor:
#      x y z
#    x 4.688010 0.000000 0.000000 
#    y 0.000000 1.794660 0.000000 
#    z 0.000000 0.000000 1.704540 
# 
# From -- ./inp_files/19621.got.cif
#   From: 2010.05.17/outbox.cif.g08.bks.cpg/sg46_10_cif.got.tgz:19621.got - 2010.06.03 19:58:25.
