data_PCOD9377369
_publ_section_title
;
Structure prediction by ZEFSAII (Michael W. Deem and Ramdas Pophale) SiO2 
 PCOD9377369
Probable space group: I B A 2
;
_chemical_formula_sum "Si O2"
_cell_formula_units_Z 48
_cell_length_a 19.889186
_cell_length_b 9.365748
_cell_length_c 10.075222
_cell_angle_alpha 90.000000
_cell_angle_beta 90.000000
_cell_angle_gamma 90.000000
_cell_volume 1876.783176
_symmetry_space_group_name_H-M "I B A 2"
_symmetry_group_IT_number 45
_symmetry_cell_setting 'orthorhombic'
loop_
_space_group_symop_operation_xyz
x,y,z
-x,-y,z
-x,y,1/2+z
x,-y,1/2+z
1/2+x,1/2+y,1/2+z
1/2-x,1/2-y,1/2+z
1/2-x,1/2+y,z
1/2+x,1/2-y,z
loop_
_atom_site_type_symbol
_atom_site_label
_atom_site_fract_x
_atom_site_fract_y
_atom_site_fract_z
Si Si1 0.623565 0.133313 0.822940
Si Si2 0.875617 0.145149 0.713300
Si Si3 0.679078 0.507768 0.963785
Si Si4 0.996210 0.168618 0.876818
Si Si5 0.768091 0.272030 0.879326
Si Si6 0.569024 0.085492 0.537341
O O1 0.610717 0.090366 0.671585
O O2 0.566115 0.250328 0.858663
O O3 0.697402 0.198888 0.840309
O O4 0.606677 0.002442 0.921739
O O5 0.861200 0.076615 0.573297
O O6 0.951881 0.186287 0.741536
O O7 0.801353 0.171351 0.992138
O O8 0.858203 0.025187 0.823572
O O9 0.747003 0.422370 0.935316
O O10 0.952279 0.258701 0.982532
O O11 0.000000 0.000000 0.906978
O O12 0.820374 0.263564 0.756510
O O13 0.500000 0.000000 0.564272
#
# Coordination Sequence:
#
# PCOD9377369 Si02
#       6
#     8   8   8   8   8   8
#     4  11  25  44  76 104 142 188 249 304 367 438
#     4  10  26  43  72  98 146 181 242 283 371 424
#     4  10  25  45  69 103 137 191 232 298 355 438
#     4  11  25  45  69 106 152 193 239 303 366 447
#     4  10  26  43  72 102 141 179 242 293 367 428
#     4  10  24  46  70 105 140 192 241 301 370 431
#
# _framework density 25.575678
#
# number of rings (size 3 to 8) (size 9 to 14) (size 15 to 20)
#    1.000    0.667    0.000    2.500    7.000    8.667 
#    0.000    0.000    0.000    0.000    0.000    0.000 
#    0.000    0.000    0.000    0.000    0.000    0.000 
#
# Total GULP energy -134412.128147 kJ/mol
# GULP energy per Si atom -5600.505339 kJ/mol
# Density = 2.551747 g / cm^3
# Si number density = 25.575678 Si / 1000 Ang^3
#
#
#
# Elastic Constant Matrix: (Units=GPa)
#
#
# Indices 1 2 3 4 5 6 
#
# 1 142.9460 44.1207 34.5167 0.0000 0.0000 0.0000
# 2 44.1207 126.3249 45.8944 0.0000 0.0000 0.0000
# 3 34.5167 45.8944 138.7089 0.0000 0.0000 0.0000
# 4 0.0000 0.0000 0.0000 21.1249 0.0000 0.0000
# 5 0.0000 0.0000 0.0000 0.0000 -0.1974 0.0000
# 6 0.0000 0.0000 0.0000 0.0000 0.0000 40.0926
#
#
#
# Elastic Compliance Matrix: (Units=1/GPa)
#
#
# Indices 1 2 3 4 5 6 
#
# 1 0.008017 -0.002359 -0.001215 0.000000 0.000000 0.000000
# 2 -0.002359 0.009692 -0.002620 0.000000 0.000000 0.000000
# 3 -0.001215 -0.002620 0.008378 0.000000 0.000000 0.000000
# 4 0.000000 0.000000 0.000000 0.047337 0.000000 0.000000
# 5 0.000000 0.000000 0.000000 0.000000 -5.066487 0.000000
# 6 0.000000 0.000000 0.000000 0.000000 0.000000 0.024942
#
#
# Mechanical properties :
#
#
# Convention : Reuss Voigt Hill
#
# Bulk Modulus (GPa) = 72.98758 73.00486 72.99622
# Shear Modulus (GPa) = -1.00986 31.10056 15.04535
#
# Velocity S-wave (km/s) = -0.62905 3.49093 2.42805
# Velocity P-wave (km/s) = 5.29832 6.69742 6.03853
#
# Compressibility (1/GPa) = 0.01370096
#
# Stress axis : x y z
#
# Youngs Moduli (GPa) = 124.73550 103.18116 119.35533
#
# Poissons Ratio (x) = 0.24338 0.14496
# Poissons Ratio (y) = 0.29423 0.31268
# Poissons Ratio (z) = 0.15149 0.27030
#
# Static dielectric constant tensor:
#      x y z
#    x 2.053980 0.000000 0.000000 
#    y 0.000000 2.042430 0.000000 
#    z 0.000000 0.000000 1.953290 
# 
# From -- ./inp_files/4608.got.cif
#   From: 2010.05.17/outbox.cif.g08.bks.cpg/sg45_3_cif.got.tgz:4608.got - 2010.06.03 19:51:22.
