data_PCOD9377392
_publ_section_title
;
Structure prediction by ZEFSAII (Michael W. Deem and Ramdas Pophale) SiO2 
 PCOD9377392
Probable space group: I B A 2
;
_chemical_formula_sum "Si O2"
_cell_formula_units_Z 28
_cell_length_a 10.283301
_cell_length_b 10.883212
_cell_length_c 10.471679
_cell_angle_alpha 90.000000
_cell_angle_beta 90.000000
_cell_angle_gamma 90.000000
_cell_volume 1171.941566
_symmetry_space_group_name_H-M "I B A 2"
_symmetry_group_IT_number 45
_symmetry_cell_setting 'orthorhombic'
loop_
_space_group_symop_operation_xyz
x,y,z
-x,-y,z
-x,y,1/2+z
x,-y,1/2+z
1/2+x,1/2+y,1/2+z
1/2-x,1/2-y,1/2+z
1/2-x,1/2+y,z
1/2+x,1/2-y,z
loop_
_atom_site_type_symbol
_atom_site_label
_atom_site_fract_x
_atom_site_fract_y
_atom_site_fract_z
Si Si1 0.115733 0.746226 0.748880
Si Si2 0.861422 0.883062 0.812173
Si Si3 0.000000 0.500000 0.635485
Si Si4 0.713819 0.547142 0.570697
O O1 0.247558 0.718576 0.824998
O O2 0.162450 0.822461 0.624520
O O3 0.001791 0.823205 0.812999
O O4 0.050122 0.616072 0.715668
O O5 0.835005 0.950170 0.677069
O O6 0.841184 0.972856 0.930661
O O7 0.870334 0.542450 0.562455
#
# Coordination Sequence:
#
# PCOD9377392 Si02
#       4
#     8   8   4   8
#     4  11  24  47  73 114 149 199 249 314 373 453
#     4  11  27  47  79 108 153 197 252 311 379 446
#     4  10  24  48  70 116 154 198 248 316 382 446
#     4  11  26  47  79 109 154 197 255 312 380 451
#
# _framework density 23.891978999999999
#
# number of rings (size 3 to 8) (size 9 to 14) (size 15 to 20)
#    0.000    1.143    2.857    0.857    4.000   13.714 
#    0.000    0.000    0.000    0.000    0.000    0.000 
#    0.000    0.000    0.000    0.000    0.000    0.000 
#
# Total GULP energy -78371.907453 kJ/mol
# GULP energy per Si atom -5597.993390 kJ/mol
# Density = 2.383760 g / cm^3
# Si number density = 23.891979 Si / 1000 Ang^3
#
#
#
# Elastic Constant Matrix: (Units=GPa)
#
#
# Indices 1 2 3 4 5 6 
#
# 1 224.7422 75.6023 76.8776 0.0000 0.0000 0.0000
# 2 75.6023 83.7144 25.7894 0.0000 0.0000 0.0000
# 3 76.8776 25.7894 114.5032 0.0000 0.0000 0.0000
# 4 0.0000 0.0000 0.0000 26.4486 0.0000 0.0000
# 5 0.0000 0.0000 0.0000 0.0000 28.7466 0.0000
# 6 0.0000 0.0000 0.0000 0.0000 0.0000 60.1984
#
#
#
# Elastic Compliance Matrix: (Units=1/GPa)
#
#
# Indices 1 2 3 4 5 6 
#
# 1 0.007721 -0.005777 -0.003883 0.000000 0.000000 0.000000
# 2 -0.005777 0.017158 0.000014 0.000000 0.000000 0.000000
# 3 -0.003883 0.000014 0.011337 0.000000 0.000000 0.000000
# 4 0.000000 0.000000 0.000000 0.037809 0.000000 0.000000
# 5 0.000000 0.000000 0.000000 0.000000 0.034787 0.000000
# 6 0.000000 0.000000 0.000000 0.000000 0.000000 0.016612
#
#
# Mechanical properties :
#
#
# Convention : Reuss Voigt Hill
#
# Bulk Modulus (GPa) = 59.08373 86.61093 72.84733
# Shear Modulus (GPa) = 33.25434 39.39143 36.32288
#
# Velocity S-wave (km/s) = 3.73481 4.06486 3.90333
# Velocity P-wave (km/s) = 6.58648 7.63941 7.13240
#
# Compressibility (1/GPa) = 0.01692513
#
# Stress axis : x y z
#
# Youngs Moduli (GPa) = 129.51752 58.28209 88.20562
#
# Poissons Ratio (x) = 0.33667 0.34248
# Poissons Ratio (y) = 0.74817 -0.00123
# Poissons Ratio (z) = 0.50289 -0.00081
#
# Static dielectric constant tensor:
#      x y z
#    x 1.888650 0.000000 0.000000 
#    y 0.000000 1.954190 0.000000 
#    z 0.000000 0.000000 1.892280 
# 
# From -- ./inp_files/1143.got.cif
#   From: 2010.05.17/outbox.cif.g08.bks.cpg/sg45_1_cif.got.tgz:1143.got - 2010.06.03 19:51:22.
