data_PCOD9377046
_publ_section_title
;
Structure prediction by ZEFSAII (Michael W. Deem and Ramdas Pophale) SiO2 
 PCOD9377046
Probable space group: I B A 2
;
_chemical_formula_sum "Si O2"
_cell_formula_units_Z 48
_cell_length_a 8.995659
_cell_length_b 10.628222
_cell_length_c 17.578986
_cell_angle_alpha 90.000000
_cell_angle_beta 90.000000
_cell_angle_gamma 90.000000
_cell_volume 1680.689248
_symmetry_space_group_name_H-M "I B A 2"
_symmetry_group_IT_number 45
_symmetry_cell_setting 'orthorhombic'
loop_
_space_group_symop_operation_xyz
x,y,z
-x,-y,z
-x,y,1/2+z
x,-y,1/2+z
1/2+x,1/2+y,1/2+z
1/2-x,1/2-y,1/2+z
1/2-x,1/2+y,z
1/2+x,1/2-y,z
loop_
_atom_site_type_symbol
_atom_site_label
_atom_site_fract_x
_atom_site_fract_y
_atom_site_fract_z
Si Si1 0.559727 0.864151 0.392300
Si Si2 0.707888 0.163947 0.562040
Si Si3 0.392417 0.385355 0.834929
Si Si4 0.466736 0.236138 0.671727
Si Si5 0.727689 0.916764 0.524009
Si Si6 0.281512 0.567478 0.704920
O O1 0.573909 0.874101 0.484769
O O2 0.747899 0.060395 0.498961
O O3 0.500000 0.000000 0.365763
O O4 0.735573 0.864719 0.375751
O O5 0.854662 0.199603 0.611788
O O6 0.577805 0.148351 0.624332
O O7 0.669732 0.296163 0.520747
O O8 0.500000 0.500000 0.860259
O O9 0.322418 0.446475 0.754899
O O10 0.483592 0.258267 0.856960
O O11 0.249646 0.049474 0.614719
O O12 0.576823 0.338234 0.709050
O O13 0.362568 0.151243 0.725811
#
# Coordination Sequence:
#
# PCOD9377046 Si02
#       6
#     8   8   8   8   8   8
#     4  12  31  60  91 126 186 255 320 396 506 607
#     4  10  22  41  75 126 177 223 296 386 485 552
#     4  12  31  60  92 128 185 255 324 392 499 613
#     4   8  20  43  75 124 180 224 285 388 481 560
#     4  10  26  47  86 127 177 227 313 394 483 567
#     4  10  24  49  84 133 177 228 314 388 489 562
#
# _framework density 28.559712000000001
#
# number of rings (size 3 to 8) (size 9 to 14) (size 15 to 20)
#    0.000    2.000    0.000    1.000   11.667    7.333 
#   15.000    3.333    0.000    0.000    0.000    0.000 
#    0.000    0.000    0.000    0.000    0.000    0.000 
#
# Total GULP energy -133902.831689 kJ/mol
# GULP energy per Si atom -5579.284654 kJ/mol
# Density = 2.849471 g / cm^3
# Si number density = 28.559712 Si / 1000 Ang^3
#
#
#
# Elastic Constant Matrix: (Units=GPa)
#
#
# Indices 1 2 3 4 5 6 
#
# 1 203.0860 97.1864 42.5260 0.0000 0.0000 0.0000
# 2 97.1864 249.5109 53.6643 0.0000 0.0000 0.0000
# 3 42.5260 53.6643 131.9462 0.0000 0.0000 0.0000
# 4 0.0000 0.0000 0.0000 39.2583 0.0000 0.0000
# 5 0.0000 0.0000 0.0000 0.0000 42.5229 0.0000
# 6 0.0000 0.0000 0.0000 0.0000 0.0000 69.4784
#
#
#
# Elastic Compliance Matrix: (Units=1/GPa)
#
#
# Indices 1 2 3 4 5 6 
#
# 1 0.006198 -0.002175 -0.001113 0.000000 0.000000 0.000000
# 2 -0.002175 0.005155 -0.001396 0.000000 0.000000 0.000000
# 3 -0.001113 -0.001396 0.008505 0.000000 0.000000 0.000000
# 4 0.000000 0.000000 0.000000 0.025472 0.000000 0.000000
# 5 0.000000 0.000000 0.000000 0.000000 0.023517 0.000000
# 6 0.000000 0.000000 0.000000 0.000000 0.000000 0.014393
#
#
# Mechanical properties :
#
#
# Convention : Reuss Voigt Hill
#
# Bulk Modulus (GPa) = 95.31852 107.92183 101.62018
# Shear Modulus (GPa) = 52.02687 56.32969 54.17828
#
# Velocity S-wave (km/s) = 4.27275 4.44593 4.36020
# Velocity P-wave (km/s) = 7.60194 8.01406 7.81072
#
# Compressibility (1/GPa) = 0.01049114
#
# Stress axis : x y z
#
# Youngs Moduli (GPa) = 161.34782 193.98282 117.57441
#
# Poissons Ratio (x) = 0.42185 0.13087
# Poissons Ratio (y) = 0.35088 0.16410
# Poissons Ratio (z) = 0.17959 0.27075
#
# Static dielectric constant tensor:
#      x y z
#    x 2.173140 0.000000 0.000000 
#    y 0.000000 2.585250 0.000000 
#    z 0.000000 0.000000 2.657360 
# 
# From -- ./inp_files/7552.got.cif
#   From: 2010.05.17/outbox.cif.g08.bks.cpg/sg45_4_cif.got.tgz:7552.got - 2010.06.03 19:51:22.
