data_PCOD9377597
_publ_section_title
;
Structure prediction by ZEFSAII (Michael W. Deem and Ramdas Pophale) SiO2 
 PCOD9377597
Probable space group: I B A 2
;
_chemical_formula_sum "Si O2"
_cell_formula_units_Z 56
_cell_length_a 5.130979
_cell_length_b 30.910744
_cell_length_c 14.690774
_cell_angle_alpha 90.000000
_cell_angle_beta 90.000000
_cell_angle_gamma 90.000000
_cell_volume 2329.991696
_symmetry_space_group_name_H-M "I B A 2"
_symmetry_group_IT_number 45
_symmetry_cell_setting 'orthorhombic'
loop_
_space_group_symop_operation_xyz
x,y,z
-x,-y,z
-x,y,1/2+z
x,-y,1/2+z
1/2+x,1/2+y,1/2+z
1/2-x,1/2-y,1/2+z
1/2-x,1/2+y,z
1/2+x,1/2-y,z
loop_
_atom_site_type_symbol
_atom_site_label
_atom_site_fract_x
_atom_site_fract_y
_atom_site_fract_z
Si Si1 0.411816 0.827345 0.240030
Si Si2 0.076833 0.124497 0.182463
Si Si3 0.491891 0.224234 0.074236
Si Si4 0.500000 0.500000 0.651398
Si Si5 0.341103 0.426709 0.850138
Si Si6 0.651665 0.574045 0.515414
Si Si7 0.456879 0.145245 0.439812
Si Si8 0.000000 0.500000 0.274878
O O1 0.622469 0.861918 0.198822
O O2 0.489211 0.785316 0.182381
O O3 0.425082 0.831547 0.349055
O O4 0.119424 0.838266 0.210536
O O5 0.038717 0.085800 0.253761
O O6 0.010473 0.109217 0.081383
O O7 0.701504 0.260922 0.051220
O O8 0.564758 0.181508 0.016696
O O9 0.648001 0.534385 0.585595
O O10 0.747514 0.487632 0.714740
O O11 0.286876 0.379619 0.895512
O O12 0.101341 0.458638 0.831882
O O13 0.527071 0.445944 0.925392
O O14 0.888884 0.603782 0.480666
#
# Coordination Sequence:
#
# PCOD9377597 Si02
#       8
#     8   8   8   4   8   8   8   4
#     4  11  24  46  75 109 147 197 251 313 380 475
#     4  11  23  44  74 106 146 199 258 311 386 453
#     4  12  28  48  77 114 156 197 245 325 400 476
#     4  12  32  46  78 108 168 204 272 326 402 456
#     4  11  27  45  80 109 159 208 271 325 393 460
#     4  12  26  47  75 112 148 214 259 331 383 472
#     4  11  27  47  79 112 152 201 267 318 388 479
#     4  12  30  52  70 116 164 218 262 342 390 462
#
# _framework density 24.034423
#
# number of rings (size 3 to 8) (size 9 to 14) (size 15 to 20)
#    0.000    0.571    4.286    1.714   12.000    1.143 
#    0.000    0.000    0.000    0.000    0.000    0.000 
#    0.000    0.000    0.000    0.000    0.000    0.000 
#
# Total GULP energy -156224.319766 kJ/mol
# GULP energy per Si atom -5579.439992 kJ/mol
# Density = 2.397972 g / cm^3
# Si number density = 24.034423 Si / 1000 Ang^3
#
#
#
# Elastic Constant Matrix: (Units=GPa)
#
#
# Indices 1 2 3 4 5 6 
#
# 1 72.9925 13.0545 27.2137 0.0000 0.0000 0.0000
# 2 13.0545 75.9007 18.5844 0.0000 0.0000 0.0000
# 3 27.2137 18.5844 126.7777 0.0000 0.0000 0.0000
# 4 0.0000 0.0000 0.0000 40.1077 0.0000 0.0000
# 5 0.0000 0.0000 0.0000 0.0000 24.9595 0.0000
# 6 0.0000 0.0000 0.0000 0.0000 0.0000 48.3537
#
#
#
# Elastic Compliance Matrix: (Units=1/GPa)
#
#
# Indices 1 2 3 4 5 6 
#
# 1 0.015145 -0.001876 -0.002976 0.000000 0.000000 0.000000
# 2 -0.001876 0.013898 -0.001635 0.000000 0.000000 0.000000
# 3 -0.002976 -0.001635 0.008766 0.000000 0.000000 0.000000
# 4 0.000000 0.000000 0.000000 0.024933 0.000000 0.000000
# 5 0.000000 0.000000 0.000000 0.000000 0.040065 0.000000
# 6 0.000000 0.000000 0.000000 0.000000 0.000000 0.020681
#
#
# Mechanical properties :
#
#
# Convention : Reuss Voigt Hill
#
# Bulk Modulus (GPa) = 40.26429 43.70844 41.98637
# Shear Modulus (GPa) = 34.54463 37.13872 35.84168
#
# Velocity S-wave (km/s) = 3.79528 3.93521 3.86588
# Velocity P-wave (km/s) = 5.99956 6.23483 6.11832
#
# Compressibility (1/GPa) = 0.02483590
#
# Stress axis : x y z
#
# Youngs Moduli (GPa) = 66.02787 71.95260 114.07390
#
# Poissons Ratio (x) = 0.13500 0.33948
# Poissons Ratio (y) = 0.12388 0.18646
# Poissons Ratio (z) = 0.19650 0.11761
#
# Static dielectric constant tensor:
#      x y z
#    x 1.995770 0.000000 0.000000 
#    y 0.000000 1.993440 0.000000 
#    z 0.000000 0.000000 1.990590 
# 
# From -- ./inp_files/5293.got.cif
#   From: 2010.05.17/outbox.cif.g08.bks.cpg/sg45_3_cif.got.tgz:5293.got - 2010.06.03 19:51:22.
