data_PCOD9377576
_publ_section_title
;
Structure prediction by ZEFSAII (Michael W. Deem and Ramdas Pophale) SiO2 
 PCOD9377576
Probable space group: I B A 2
;
_chemical_formula_sum "Si O2"
_cell_formula_units_Z 32
_cell_length_a 10.623705
_cell_length_b 14.837812
_cell_length_c 8.499493
_cell_angle_alpha 90.000000
_cell_angle_beta 90.000000
_cell_angle_gamma 90.000000
_cell_volume 1339.796649
_symmetry_space_group_name_H-M "I B A 2"
_symmetry_group_IT_number 45
_symmetry_cell_setting 'orthorhombic'
loop_
_space_group_symop_operation_xyz
x,y,z
-x,-y,z
-x,y,1/2+z
x,-y,1/2+z
1/2+x,1/2+y,1/2+z
1/2-x,1/2-y,1/2+z
1/2-x,1/2+y,z
1/2+x,1/2-y,z
loop_
_atom_site_type_symbol
_atom_site_label
_atom_site_fract_x
_atom_site_fract_y
_atom_site_fract_z
Si Si1 0.248986 0.134304 0.704390
Si Si2 0.655031 0.781994 0.392394
Si Si3 0.987340 0.133542 0.992654
Si Si4 0.698015 0.429634 0.224748
O O1 0.330219 0.169858 0.560017
O O2 0.253967 0.201263 0.851687
O O3 0.107597 0.146985 0.636485
O O4 0.259111 0.028202 0.729899
O O5 0.526545 0.727595 0.413722
O O6 0.694067 0.855694 0.261727
O O7 0.112409 0.088742 0.069797
O O8 0.904035 0.079902 0.865849
#
# Coordination Sequence:
#
# PCOD9377576 Si02
#       4
#     8   8   8   8
#     4  11  25  40  68 100 135 178 228 285 336 403
#     4  11  24  41  63 101 141 173 223 286 344 398
#     4  11  23  40  66 102 134 170 226 287 332 396
#     4  11  25  40  68 102 136 177 228 282 340 400
#
# _framework density 23.884222000000001
#
# number of rings (size 3 to 8) (size 9 to 14) (size 15 to 20)
#    0.000    1.000    5.000    0.750   10.500    0.000 
#    0.000    0.000    0.000   22.500    0.000    0.000 
#    0.000    0.000    0.000    0.000    0.000    0.000 
#
# Total GULP energy -89289.149319 kJ/mol
# GULP energy per Si atom -5580.571832 kJ/mol
# Density = 2.382986 g / cm^3
# Si number density = 23.884222 Si / 1000 Ang^3
#
#
#
# Elastic Constant Matrix: (Units=GPa)
#
#
# Indices 1 2 3 4 5 6 
#
# 1 15.2255 31.0767 0.4723 0.0000 0.0000 -0.0001
# 2 31.0767 192.6178 44.3996 0.0000 0.0000 0.0003
# 3 0.4723 44.3996 78.1256 0.0000 0.0000 -0.0015
# 4 0.0000 0.0000 0.0000 47.8192 0.0000 -0.0006
# 5 0.0000 0.0000 0.0000 0.0000 34.2375 -0.0004
# 6 -0.0001 0.0003 -0.0015 -0.0006 -0.0004-8369.1984
#
#
#
# Elastic Compliance Matrix: (Units=1/GPa)
#
#
# Indices 1 2 3 4 5 6 
#
# 1 0.104688 -0.019268 0.010318 0.000000 0.000000 0.000000
# 2 -0.019268 0.009521 -0.005294 0.000000 0.000000 0.000000
# 3 0.010318 -0.005294 0.015746 0.000000 0.000000 0.000000
# 4 0.000000 0.000000 0.000000 0.020912 0.000000 0.000000
# 5 0.000000 0.000000 0.000000 0.000000 0.029208 0.000000
# 6 0.000000 0.000000 0.000000 0.000000 0.000000 -0.000119
#
#
# Mechanical properties :
#
#
# Convention : Reuss Voigt Hill
#
# Bulk Modulus (GPa) = 9.85565 48.65181 29.25373
# Shear Modulus (GPa) = 20.63837 -1643.42699 -811.39431
#
# Velocity S-wave (km/s) = 2.94275 -26.25975 -18.45149
# Velocity P-wave (km/s) = 3.96002 29.98364 21.01591
#
# Compressibility (1/GPa) = 0.10146463
#
# Stress axis : x y z
#
# Youngs Moduli (GPa) = 9.55220 105.03381 63.50692
#
# Poissons Ratio (x) = 2.02384 -0.65524
# Poissons Ratio (y) = 0.18406 0.33622
# Poissons Ratio (z) = -0.09856 0.55608
#
# Static dielectric constant tensor:
#      x y z
#    x 1.966810 0.000000 0.000000 
#    y 0.000000 1.954420 0.000000 
#    z 0.000000 0.000000 2.000840 
# 
# From -- ./inp_files/1169.got.cif
#   From: 2010.05.17/outbox.cif.g08.bks.cpg/sg45_1_cif.got.tgz:1169.got - 2010.06.03 19:51:22.
