data_PCOD9377381
_publ_section_title
;
Structure prediction by ZEFSAII (Michael W. Deem and Ramdas Pophale) SiO2 
 PCOD9377381
Probable space group: I B A 2
;
_chemical_formula_sum "Si O2"
_cell_formula_units_Z 48
_cell_length_a 15.318542
_cell_length_b 5.292743
_cell_length_c 25.452722
_cell_angle_alpha 90.000000
_cell_angle_beta 90.000000
_cell_angle_gamma 90.000000
_cell_volume 2063.633038
_symmetry_space_group_name_H-M "I B A 2"
_symmetry_group_IT_number 45
_symmetry_cell_setting 'orthorhombic'
loop_
_space_group_symop_operation_xyz
x,y,z
-x,-y,z
-x,y,1/2+z
x,-y,1/2+z
1/2+x,1/2+y,1/2+z
1/2-x,1/2-y,1/2+z
1/2-x,1/2+y,z
1/2+x,1/2-y,z
loop_
_atom_site_type_symbol
_atom_site_label
_atom_site_fract_x
_atom_site_fract_y
_atom_site_fract_z
Si Si1 0.500000 0.000000 0.852010
Si Si2 0.801576 0.489288 0.196971
Si Si3 0.192244 0.535865 0.571465
Si Si4 0.199110 0.991940 0.351801
Si Si5 0.075615 0.850413 0.265334
Si Si6 0.000000 0.500000 0.022957
Si Si7 0.577266 0.679870 0.930507
O O1 0.471608 0.785527 0.813345
O O2 0.576208 0.918774 0.891584
O O3 0.773620 0.777608 0.208016
O O4 0.816274 0.498148 0.134353
O O5 0.879644 0.362502 0.229455
O O6 0.253608 0.778083 0.555949
O O7 0.091016 0.576576 0.552222
O O8 0.269707 0.208329 0.346085
O O9 0.161753 0.031896 0.411165
O O10 0.139193 0.026572 0.299987
O O11 0.000000 0.000000 0.234728
O O12 0.042683 0.718728 0.985894
O O13 0.500000 0.500000 0.911921
#
# Coordination Sequence:
#
# PCOD9377381 Si02
#       7
#     4   8   8   8   8   4   8
#     4  11  20  41  64  88 148 185 238 293 350 418
#     4  10  24  47  70 102 145 182 236 309 369 435
#     4  10  25  52  77 110 151 188 248 319 381 453
#     4  12  25  41  65  95 142 192 239 293 363 434
#     4  12  24  39  67 102 139 197 244 296 356 458
#     4  11  28  45  84 106 146 203 248 319 388 456
#     4  11  24  45  64  99 140 186 241 301 359 436
#
# _framework density 23.259951999999998
#
# number of rings (size 3 to 8) (size 9 to 14) (size 15 to 20)
#    0.000    1.000    3.333    2.000    7.000    2.000 
#    6.000    0.000    0.000    0.000    0.000    0.000 
#    0.000    0.000    0.000    0.000    0.000    0.000 
#
# Total GULP energy -133663.114005 kJ/mol
# GULP energy per Si atom -5569.296417 kJ/mol
# Density = 2.320701 g / cm^3
# Si number density = 23.259952 Si / 1000 Ang^3
#
#
#
# Elastic Constant Matrix: (Units=GPa)
#
#
# Indices 1 2 3 4 5 6 
#
# 1 118.9735 37.1965 49.0715 0.0000 0.0000 0.0000
# 2 37.1965 89.0560 31.9151 0.0000 0.0000 0.0000
# 3 49.0715 31.9151 81.4800 0.0000 0.0000 0.0000
# 4 0.0000 0.0000 0.0000 -76.4896 0.0000 0.0000
# 5 0.0000 0.0000 0.0000 0.0000 26.9276 0.0000
# 6 0.0000 0.0000 0.0000 0.0000 0.0000 38.4894
#
#
#
# Elastic Compliance Matrix: (Units=1/GPa)
#
#
# Indices 1 2 3 4 5 6 
#
# 1 0.011737 -0.002756 -0.005989 0.000000 0.000000 0.000000
# 2 -0.002756 0.013710 -0.003710 0.000000 0.000000 0.000000
# 3 -0.005989 -0.003710 0.017333 0.000000 0.000000 0.000000
# 4 0.000000 0.000000 0.000000 -0.013074 0.000000 0.000000
# 5 0.000000 0.000000 0.000000 0.000000 0.037137 0.000000
# 6 0.000000 0.000000 0.000000 0.000000 0.000000 0.025981
#
#
# Mechanical properties :
#
#
# Convention : Reuss Voigt Hill
#
# Bulk Modulus (GPa) = 55.96202 58.43064 57.19633
# Shear Modulus (GPa) = 40.42323 9.20725 24.81524
#
# Velocity S-wave (km/s) = 4.17332 1.99173 3.26983
# Velocity P-wave (km/s) = 6.87996 5.51947 6.23692
#
# Compressibility (1/GPa) = 0.01786926
#
# Stress axis : x y z
#
# Youngs Moduli (GPa) = 85.19940 72.94155 57.69270
#
# Poissons Ratio (x) = 0.20102 0.34554
# Poissons Ratio (y) = 0.23481 0.21405
# Poissons Ratio (z) = 0.51028 0.27063
#
# Static dielectric constant tensor:
#      x y z
#    x 2.163150 0.000000 0.000000 
#    y 0.000000 2.021790 0.000000 
#    z 0.000000 0.000000 1.854110 
# 
# From -- ./inp_files/9896.got.cif
#   From: 2010.05.17/outbox.cif.g08.bks.cpg/sg45_5_cif.got.tgz:9896.got - 2010.06.03 19:51:22.
