data_PCOD9377040
_publ_section_title
;
Structure prediction by ZEFSAII (Michael W. Deem and Ramdas Pophale) SiO2 
 PCOD9377040
Probable space group: I B A 2
;
_chemical_formula_sum "Si O2"
_cell_formula_units_Z 64
_cell_length_a 14.372290
_cell_length_b 8.259981
_cell_length_c 22.678892
_cell_angle_alpha 90.000000
_cell_angle_beta 90.000000
_cell_angle_gamma 90.000000
_cell_volume 2692.321088
_symmetry_space_group_name_H-M "I B A 2"
_symmetry_group_IT_number 45
_symmetry_cell_setting 'orthorhombic'
loop_
_space_group_symop_operation_xyz
x,y,z
-x,-y,z
-x,y,1/2+z
x,-y,1/2+z
1/2+x,1/2+y,1/2+z
1/2-x,1/2-y,1/2+z
1/2-x,1/2+y,z
1/2+x,1/2-y,z
loop_
_atom_site_type_symbol
_atom_site_label
_atom_site_fract_x
_atom_site_fract_y
_atom_site_fract_z
Si Si1 0.252278 0.439372 0.926580
Si Si2 0.952154 0.677131 0.797053
Si Si3 0.702281 0.880820 0.045543
Si Si4 0.396549 0.670024 0.920089
Si Si5 0.135824 0.690073 0.605303
Si Si6 0.724384 0.991702 0.789621
Si Si7 0.126107 0.187461 0.237680
Si Si8 0.020916 0.813301 0.032373
O O1 0.362719 0.483705 0.927915
O O2 0.201385 0.265968 0.927690
O O3 0.228980 0.495146 0.860120
O O4 0.208503 0.521262 0.984526
O O5 0.935097 0.777207 0.856918
O O6 0.853902 0.621907 0.769610
O O7 0.000000 0.500000 0.810074
O O8 0.019820 0.782202 0.756099
O O9 0.799124 0.803187 0.064623
O O10 0.627519 0.738814 0.036032
O O11 0.671460 0.007988 0.095827
O O12 0.469524 0.718146 0.970145
O O13 0.139640 0.761397 0.670471
O O14 0.032717 0.704800 0.580061
O O15 0.822386 0.024128 0.757623
O O16 0.683225 0.818247 0.775618
O O17 0.000000 0.000000 0.046965
#
# Coordination Sequence:
#
# PCOD9377040 Si02
#       8
#     8   8   8   8   8   8   8   8
#     4  11  22  42  72  99 143 177 234 286 360 426
#     4   9  22  41  66 100 136 177 233 284 348 421
#     4  12  25  45  73 101 145 191 239 303 360 435
#     4  11  24  42  69 104 143 182 234 288 363 427
#     4  12  26  47  70 102 141 193 241 292 363 429
#     4  10  22  41  69 100 133 183 232 291 352 419
#     4  11  24  44  70  98 138 185 236 289 348 427
#     4  12  28  43  67 104 140 186 240 296 361 430
#
# _framework density 23.77131
#
# number of rings (size 3 to 8) (size 9 to 14) (size 15 to 20)
#    0.000    1.000    2.500    3.375    7.000    5.000 
#    0.000    3.125    0.000    0.000    0.000    0.000 
#    0.000    0.000    0.000    0.000    0.000    0.000 
#
# Total GULP energy -178996.468173 kJ/mol
# GULP energy per Si atom -5593.639630 kJ/mol
# Density = 2.371721 g / cm^3
# Si number density = 23.771310 Si / 1000 Ang^3
#
#
#
# Elastic Constant Matrix: (Units=GPa)
#
#
# Indices 1 2 3 4 5 6 
#
# 1 92.4755 17.8163 15.9564 0.0000 0.0000 0.0000
# 2 17.8163 62.5971 10.5524 0.0000 0.0000 0.0000
# 3 15.9564 10.5524 91.0321 0.0000 0.0000 0.0000
# 4 0.0000 0.0000 0.0000 18.0285 0.0000 0.0000
# 5 0.0000 0.0000 0.0000 0.0000 19.8754 0.0000
# 6 0.0000 0.0000 0.0000 0.0000 0.0000 47.7240
#
#
#
# Elastic Compliance Matrix: (Units=1/GPa)
#
#
# Indices 1 2 3 4 5 6 
#
# 1 0.011693 -0.003042 -0.001697 0.000000 0.000000 0.000000
# 2 -0.003042 0.017085 -0.001447 0.000000 0.000000 0.000000
# 3 -0.001697 -0.001447 0.011450 0.000000 0.000000 0.000000
# 4 0.000000 0.000000 0.000000 0.055468 0.000000 0.000000
# 5 0.000000 0.000000 0.000000 0.000000 0.050313 0.000000
# 6 0.000000 0.000000 0.000000 0.000000 0.000000 0.020954
#
#
# Mechanical properties :
#
#
# Convention : Reuss Voigt Hill
#
# Bulk Modulus (GPa) = 35.89927 37.19499 36.54713
# Shear Modulus (GPa) = 26.50832 30.57757 28.54294
#
# Velocity S-wave (km/s) = 3.34299 3.59042 3.46892
# Velocity P-wave (km/s) = 5.48047 5.73316 5.60824
#
# Compressibility (1/GPa) = 0.02785572
#
# Stress axis : x y z
#
# Youngs Moduli (GPa) = 85.52487 58.53110 87.33365
#
# Poissons Ratio (x) = 0.17804 0.14820
# Poissons Ratio (y) = 0.26015 0.12640
# Poissons Ratio (z) = 0.14513 0.08471
#
# Static dielectric constant tensor:
#      x y z
#    x 1.903620 0.000000 0.000000 
#    y 0.000000 2.006550 0.000000 
#    z 0.000000 0.000000 1.852980 
# 
# From -- ./inp_files/9777.got.cif
#   From: 2010.05.17/outbox.cif.g08.bks.cpg/sg45_5_cif.got.tgz:9777.got - 2010.06.03 19:51:22.
