data_PCOD9377797
_publ_section_title
;
Structure prediction by ZEFSAII (Michael W. Deem and Ramdas Pophale) SiO2 
 PCOD9377797
Probable space group: I M A 2
;
_chemical_formula_sum "Si O2"
_cell_formula_units_Z 64
_cell_length_a 27.512200
_cell_length_b 7.758461
_cell_length_c 12.606860
_cell_angle_alpha 90.000000
_cell_angle_beta 90.000000
_cell_angle_gamma 90.000000
_cell_volume 2690.963650
_symmetry_space_group_name_H-M "I M A 2"
_symmetry_group_IT_number 46
_symmetry_cell_setting 'orthorhombic'
loop_
_space_group_symop_operation_xyz
x,y,z
-x,-y,z
1/2-x,y,z
1/2+x,-y,z
1/2+x,1/2+y,1/2+z
1/2-x,1/2-y,1/2+z
-x,1/2+y,1/2+z
x,1/2-y,1/2+z
loop_
_atom_site_type_symbol
_atom_site_label
_atom_site_fract_x
_atom_site_fract_y
_atom_site_fract_z
Si Si1 0.106230 0.386529 0.165740
Si Si2 0.306870 0.509801 0.048953
Si Si3 0.041336 0.372532 0.342445
Si Si4 0.981620 0.806641 0.543042
Si Si5 0.138708 0.607658 0.840475
Si Si6 0.304860 0.584716 0.622898
Si Si7 0.620857 0.068739 0.974690
Si Si8 0.067176 0.778263 0.179538
O O1 0.162423 0.405517 0.138139
O O2 0.080818 0.287945 0.263689
O O3 0.075322 0.311965 0.068592
O O4 0.086263 0.580936 0.188727
O O5 0.250000 0.461955 0.034160
O O6 0.306180 0.711994 0.087022
O O7 0.340410 0.501697 0.941600
O O8 0.011127 0.257698 0.424336
O O9 0.077196 0.474896 0.419251
O O10 0.000000 0.500000 0.294948
O O11 0.011926 0.712196 0.636731
O O12 0.000000 0.000000 0.546836
O O13 0.172292 0.572927 0.739294
O O14 0.142588 0.800375 0.888483
O O15 0.085033 0.618440 0.783849
O O16 0.250000 0.527454 0.625611
O O17 0.334535 0.478655 0.534027
O O18 0.596316 0.160457 0.075756
#
# Coordination Sequence:
#
# PCOD9377797 Si02
#       8
#     8   8   8   8   8   8   8   8
#     4  11  21  39  60  86 122 169 213 261 320 390
#     4  10  19  33  56  89 126 164 212 267 319 385
#     4  12  22  39  66  88 120 170 219 259 326 399
#     4  10  24  40  59  89 127 164 218 270 327 388
#     4  10  16  29  54  87 121 165 202 254 324 378
#     4   9  17  29  48  83 127 161 199 256 320 381
#     4  10  18  30  55  86 124 155 210 260 316 370
#     4  10  17  34  55  87 122 167 201 263 317 388
#
# _framework density 23.783301000000002
#
# number of rings (size 3 to 8) (size 9 to 14) (size 15 to 20)
#    0.000    1.750    6.250    1.500    0.000    0.500 
#    0.000    3.750    0.000    1.500    0.000    0.000 
#    0.000    0.000    0.000    0.000    0.000    0.000 
#
# Total GULP energy -178310.930180 kJ/mol
# GULP energy per Si atom -5572.216568 kJ/mol
# Density = 2.372917 g / cm^3
# Si number density = 23.783301 Si / 1000 Ang^3
#
#
#
# Elastic Constant Matrix: (Units=GPa)
#
#
# Indices 1 2 3 4 5 6 
#
# 1 171.9348 16.9801 48.6967 0.0000 0.0000 0.0000
# 2 16.9801 28.6385 14.9934 0.0000 0.0000 0.0000
# 3 48.6967 14.9934 125.8269 0.0000 0.0000 0.0000
# 4 0.0000 0.0000 0.0000 13.9081 0.0000 0.0000
# 5 0.0000 0.0000 0.0000 0.0000 33.4227 0.0000
# 6 0.0000 0.0000 0.0000 0.0000 0.0000 17.2592
#
#
#
# Elastic Compliance Matrix: (Units=1/GPa)
#
#
# Indices 1 2 3 4 5 6 
#
# 1 0.006737 -0.002804 -0.002273 0.000000 0.000000 0.000000
# 2 -0.002804 0.038409 -0.003491 0.000000 0.000000 0.000000
# 3 -0.002273 -0.003491 0.009243 0.000000 0.000000 0.000000
# 4 0.000000 0.000000 0.000000 0.071901 0.000000 0.000000
# 5 0.000000 0.000000 0.000000 0.000000 0.029920 0.000000
# 6 0.000000 0.000000 0.000000 0.000000 0.000000 0.057940
#
#
# Mechanical properties :
#
#
# Convention : Reuss Voigt Hill
#
# Bulk Modulus (GPa) = 26.84490 54.19340 40.51915
# Shear Modulus (GPa) = 20.51669 29.30000 24.90834
#
# Velocity S-wave (km/s) = 2.94028 3.51373 3.23972
# Velocity P-wave (km/s) = 4.77899 6.26878 5.57388
#
# Compressibility (1/GPa) = 0.03725102
#
# Stress axis : x y z
#
# Youngs Moduli (GPa) = 148.43577 26.03581 108.18783
#
# Poissons Ratio (x) = 0.07301 0.24592
# Poissons Ratio (y) = 0.41626 0.37773
# Poissons Ratio (z) = 0.33741 0.09090
#
# Static dielectric constant tensor:
#      x y z
#    x 2.037160 0.000000 0.000000 
#    y 0.000000 2.014420 0.000000 
#    z 0.000000 0.000000 1.968780 
# 
# From -- ./inp_files/13219.got.cif
#   From: 2010.05.17/outbox.cif.g08.bks.cpg/sg46_7_cif.got.tgz:13219.got - 2010.06.03 19:58:25.
