data_PCOD9377854
_publ_section_title
;
Structure prediction by ZEFSAII (Michael W. Deem and Ramdas Pophale) SiO2 
 PCOD9377854
Probable space group: I M A 2
;
_chemical_formula_sum "Si O2"
_cell_formula_units_Z 56
_cell_length_a 8.566292
_cell_length_b 13.969502
_cell_length_c 30.150164
_cell_angle_alpha 90.000000
_cell_angle_beta 90.000000
_cell_angle_gamma 90.000000
_cell_volume 3607.974647
_symmetry_space_group_name_H-M "I M A 2"
_symmetry_group_IT_number 46
_symmetry_cell_setting 'orthorhombic'
loop_
_space_group_symop_operation_xyz
x,y,z
-x,-y,z
1/2-x,y,z
1/2+x,-y,z
1/2+x,1/2+y,1/2+z
1/2-x,1/2-y,1/2+z
-x,1/2+y,1/2+z
x,1/2-y,1/2+z
loop_
_atom_site_type_symbol
_atom_site_label
_atom_site_fract_x
_atom_site_fract_y
_atom_site_fract_z
Si Si1 0.063626 0.391251 0.228200
Si Si2 0.438153 0.108717 0.914150
Si Si3 0.060766 0.294355 0.504791
Si Si4 0.937761 0.894715 0.095556
Si Si5 0.062291 0.104459 0.553525
Si Si6 0.563497 0.293077 0.140590
Si Si7 0.936381 0.390999 0.321316
O O1 0.250000 0.395171 0.229373
O O2 0.000000 0.500000 0.223248
O O3 0.004942 0.329900 0.186817
O O4 0.000524 0.350724 0.275057
O O5 0.250000 0.106015 0.912525
O O6 0.501221 0.150246 0.867664
O O7 0.500000 0.000000 0.918706
O O8 0.491613 0.167887 0.957194
O O9 0.250000 0.295359 0.503907
O O10 0.013709 0.363319 0.545517
O O11 0.013448 0.187350 0.518906
O O12 0.750000 0.892663 0.097591
O O13 0.004594 0.812704 0.127563
O O14 0.000000 0.000000 0.105455
O O15 0.250000 0.103513 0.555918
O O16 0.997273 0.138026 0.601169
O O17 0.000000 0.000000 0.542226
O O18 0.750000 0.295656 0.141770
O O19 0.750000 0.391844 0.320991
O O20 0.000000 0.500000 0.321611
#
# Coordination Sequence:
#
# PCOD9377854 Si02
#       7
#     8   8   8   8   8   8   8
#     4  11  20  32  48  68  93 123 154 189 229 276
#     4  10  17  28  44  65  91 122 152 185 225 269
#     4   8  17  30  46  66  92 122 156 190 226 269
#     4  10  19  33  49  69  95 125 157 194 231 270
#     4  10  19  33  48  67  93 123 156 194 232 273
#     4  11  21  33  48  69  93 123 157 191 229 275
#     4  10  18  29  43  64  91 120 150 185 225 272
#
# _framework density 15.521172999999999
#
# number of rings (size 3 to 8) (size 9 to 14) (size 15 to 20)
#    0.000    2.000    0.000    8.571    0.000    0.000 
#    0.000    7.857    0.000    0.000    0.000    1.000 
#    0.000    2.286    0.000    0.000    0.000    0.000 
#
# Total GULP energy -156200.335242 kJ/mol
# GULP energy per Si atom -5578.583401 kJ/mol
# Density = 1.548585 g / cm^3
# Si number density = 15.521173 Si / 1000 Ang^3
#
#
#
# Elastic Constant Matrix: (Units=GPa)
#
#
# Indices 1 2 3 4 5 6 
#
# 1 114.4735 32.8120 51.1998 0.0000 0.0000 0.0000
# 2 32.8120 87.4918 61.6275 0.0000 0.0000 0.0000
# 3 51.1998 61.6275 161.7126 0.0000 0.0000 0.0000
# 4 0.0000 0.0000 0.0000 22.3640 0.0000 0.0000
# 5 0.0000 0.0000 0.0000 0.0000 18.7828 0.0000
# 6 0.0000 0.0000 0.0000 0.0000 0.0000 22.2489
#
#
#
# Elastic Compliance Matrix: (Units=1/GPa)
#
#
# Indices 1 2 3 4 5 6 
#
# 1 0.010471 -0.002176 -0.002486 0.000000 0.000000 0.000000
# 2 -0.002176 0.016076 -0.005437 0.000000 0.000000 0.000000
# 3 -0.002486 -0.005437 0.009043 0.000000 0.000000 0.000000
# 4 0.000000 0.000000 0.000000 0.044715 0.000000 0.000000
# 5 0.000000 0.000000 0.000000 0.000000 0.053240 0.000000
# 6 0.000000 0.000000 0.000000 0.000000 0.000000 0.044946
#
#
# Mechanical properties :
#
#
# Convention : Reuss Voigt Hill
#
# Bulk Modulus (GPa) = 64.97199 72.77295 68.87247
# Shear Modulus (GPa) = 24.53143 27.21505 25.87324
#
# Velocity S-wave (km/s) = 3.97988 4.19192 4.08728
# Velocity P-wave (km/s) = 7.94169 8.39152 8.16970
#
# Compressibility (1/GPa) = 0.01539125
#
# Stress axis : x y z
#
# Youngs Moduli (GPa) = 95.49949 62.20578 110.58169
#
# Poissons Ratio (x) = 0.13535 0.27492
# Poissons Ratio (y) = 0.20780 0.60128
# Poissons Ratio (z) = 0.23742 0.33824
#
# Static dielectric constant tensor:
#      x y z
#    x 1.525980 0.000000 0.000000 
#    y 0.000000 1.442910 0.000000 
#    z 0.000000 0.000000 1.537770 
# 
# From -- ./inp_files/25255.got.cif
#   From: 2010.05.17/outbox.cif.g08.bks.cpg/sg46_13_cif.got.tgz:25255.got - 2010.06.03 19:58:25.
