data_PCOD9377752
_publ_section_title
;
Structure prediction by ZEFSAII (Michael W. Deem and Ramdas Pophale) SiO2 
 PCOD9377752
Probable space group: I M A 2
;
_chemical_formula_sum "Si O2"
_cell_formula_units_Z 28
_cell_length_a 5.470797
_cell_length_b 7.105783
_cell_length_c 33.659862
_cell_angle_alpha 90.000000
_cell_angle_beta 90.000000
_cell_angle_gamma 90.000000
_cell_volume 1308.503449
_symmetry_space_group_name_H-M "I M A 2"
_symmetry_group_IT_number 46
_symmetry_cell_setting 'orthorhombic'
loop_
_space_group_symop_operation_xyz
x,y,z
-x,-y,z
1/2-x,y,z
1/2+x,-y,z
1/2+x,1/2+y,1/2+z
1/2-x,1/2-y,1/2+z
-x,1/2+y,1/2+z
x,1/2-y,1/2+z
loop_
_atom_site_type_symbol
_atom_site_label
_atom_site_fract_x
_atom_site_fract_y
_atom_site_fract_z
Si Si1 0.750000 0.876486 0.605510
Si Si2 0.250000 0.376696 0.193292
Si Si3 0.250000 0.798954 0.813201
Si Si4 0.250000 0.270897 0.280155
Si Si5 0.250000 0.272105 0.018972
Si Si6 0.250000 0.619112 0.892986
Si Si7 0.250000 0.796455 0.486009
O O1 0.750000 0.785965 0.649436
O O2 0.750000 0.750586 0.566310
O O3 0.500000 0.000000 0.603179
O O4 0.500000 0.500000 0.195676
O O5 0.250000 0.252853 0.232770
O O6 0.496279 0.702934 0.797946
O O7 0.250000 0.786954 0.860816
O O8 0.250000 0.007231 0.793904
O O9 0.501018 0.203136 0.000296
O O10 0.250000 0.496143 0.006952
O O11 0.500000 0.500000 0.887023
O O12 0.250000 0.681191 0.938770
#
# Coordination Sequence:
#
# PCOD9377752 Si02
#       7
#     4   4   4   4   4   4   4
#     4  10  16  20  34  57  77 105 143 158 197 241
#     4  10  16  25  41  60  84 104 140 174 205 263
#     4  10  20  30  49  62  82 113 151 190 213 258
#     4  10  17  35  47  64  83 113 155 176 225 254
#     4  10  14  25  36  51  78 116 147 156 192 250
#     4  12  21  32  43  65  88 114 158 180 219 256
#     4  10  16  25  38  49  76 115 144 168 191 246
#
# _framework density 21.398491
#
# number of rings (size 3 to 8) (size 9 to 14) (size 15 to 20)
#    0.000    1.714    8.571    0.857    0.000    0.000 
#    0.000    0.000    0.000    0.000    0.000    0.000 
#    0.000    0.000    0.000    0.000  184.571    0.000 
#
# Total GULP energy -78053.716378 kJ/mol
# GULP energy per Si atom -5575.265456 kJ/mol
# Density = 2.134979 g / cm^3
# Si number density = 21.398491 Si / 1000 Ang^3
#
#
#
# Elastic Constant Matrix: (Units=GPa)
#
#
# Indices 1 2 3 4 5 6 
#
# 1 235.1794 10.4155 40.8496 0.0000 0.0000 0.0000
# 2 10.4155 63.4989 7.3408 0.0000 0.0000 0.0000
# 3 40.8496 7.3408 201.6417 0.0000 0.0000 0.0000
# 4 0.0000 0.0000 0.0000 -35.5569 0.0000 0.0000
# 5 0.0000 0.0000 0.0000 0.0000 40.8458 0.0000
# 6 0.0000 0.0000 0.0000 0.0000 0.0000 -22.6296
#
#
#
# Elastic Compliance Matrix: (Units=1/GPa)
#
#
# Indices 1 2 3 4 5 6 
#
# 1 0.004432 -0.000626 -0.000875 0.000000 0.000000 0.000000
# 2 -0.000626 0.015903 -0.000452 0.000000 0.000000 0.000000
# 3 -0.000875 -0.000452 0.005153 0.000000 0.000000 0.000000
# 4 0.000000 0.000000 0.000000 -0.028124 0.000000 0.000000
# 5 0.000000 0.000000 0.000000 0.000000 0.024482 0.000000
# 6 0.000000 0.000000 0.000000 0.000000 0.000000 -0.044190
#
#
# Mechanical properties :
#
#
# Convention : Reuss Voigt Hill
#
# Bulk Modulus (GPa) = 46.33481 68.61465 57.47473
# Shear Modulus (GPa) = -444.69702 25.97948 -209.35877
#
# Velocity S-wave (km/s) = -14.43150 3.48815 -9.90205
# Velocity P-wave (km/s) = 15.99970 6.95397 10.18904
#
# Compressibility (1/GPa) = 0.02158205
#
# Stress axis : x y z
#
# Youngs Moduli (GPa) = 225.64321 62.88033 194.06092
#
# Poissons Ratio (x) = 0.03935 0.16981
# Poissons Ratio (y) = 0.14120 0.08775
# Poissons Ratio (z) = 0.19744 0.02843
#
# Static dielectric constant tensor:
#      x y z
#    x 1.801680 0.000000 0.000000 
#    y 0.000000 1.758380 0.000000 
#    z 0.000000 0.000000 1.745510 
# 
# From -- ./inp_files/24761.got.cif
#   From: 2010.05.17/outbox.cif.g08.bks.cpg/sg46_13_cif.got.tgz:24761.got - 2010.06.03 19:58:25.
