data_PCOD9377129
_publ_section_title
;
Structure prediction by ZEFSAII (Michael W. Deem and Ramdas Pophale) SiO2 
 PCOD9377129
Probable space group: I B A 2
;
_chemical_formula_sum "Si O2"
_cell_formula_units_Z 36
_cell_length_a 19.695640
_cell_length_b 5.181336
_cell_length_c 13.881809
_cell_angle_alpha 90.000000
_cell_angle_beta 90.000000
_cell_angle_gamma 90.000000
_cell_volume 1416.634841
_symmetry_space_group_name_H-M "I B A 2"
_symmetry_group_IT_number 45
_symmetry_cell_setting 'orthorhombic'
loop_
_space_group_symop_operation_xyz
x,y,z
-x,-y,z
-x,y,1/2+z
x,-y,1/2+z
1/2+x,1/2+y,1/2+z
1/2-x,1/2-y,1/2+z
1/2-x,1/2+y,z
1/2+x,1/2-y,z
loop_
_atom_site_type_symbol
_atom_site_label
_atom_site_fract_x
_atom_site_fract_y
_atom_site_fract_z
Si Si1 0.202516 0.499999 0.039480
Si Si2 0.000000 0.000000 0.539480
Si Si3 0.604649 0.242041 0.897901
Si Si4 0.203160 0.060786 0.289478
Si Si5 0.104648 0.257962 0.681059
O O1 0.250000 0.749999 0.039480
O O2 0.152343 0.535437 0.129757
O O3 0.346343 0.510785 0.878020
O O4 0.152344 0.464561 0.949202
O O5 0.954372 0.174710 0.469196
O O6 0.045626 0.174717 0.609764
O O7 0.653655 0.489214 0.700938
O O8 0.582723 0.163502 0.789480
O O9 0.240937 0.330380 0.289477
#
# Coordination Sequence:
#
# PCOD9377129 Si02
#       5
#     8   4   8   8   8
#     4  12  25  47  80 119 157 206 276 346 426 494
#     4  12  24  54  80 124 174 234 298 320 420 532
#     4  10  26  47  80 117 166 223 275 354 413 499
#     4  10  22  45  76 111 150 200 262 338 420 468
#     4  10  26  47  80 117 166 223 275 354 413 499
#
# _framework density 25.412334999999999
#
# number of rings (size 3 to 8) (size 9 to 14) (size 15 to 20)
#    1.333    0.000    0.000    4.667    0.000    4.444 
#    0.000    4.444    0.000    0.000    0.000    0.000 
#    0.000    0.000    0.000    0.000    0.000    0.000 
#
# Total GULP energy -100826.757644 kJ/mol
# GULP energy per Si atom -5601.486536 kJ/mol
# Density = 2.535450 g / cm^3
# Si number density = 25.412335 Si / 1000 Ang^3
#
#
#
# Elastic Constant Matrix: (Units=GPa)
#
#
# Indices 1 2 3 4 5 6 
#
# 1 164.5349 72.5818 116.2958 0.0000 0.0000 0.0000
# 2 72.5818 152.6158 72.4889 0.0000 0.0000 0.0000
# 3 116.2958 72.4889 238.4688 0.0000 0.0000 0.0000
# 4 0.0000 0.0000 0.0000 30.0269 0.0000 0.0000
# 5 0.0000 0.0000 0.0000 0.0000 84.0457 0.0000
# 6 0.0000 0.0000 0.0000 0.0000 0.0000 32.7774
#
#
#
# Elastic Compliance Matrix: (Units=1/GPa)
#
#
# Indices 1 2 3 4 5 6 
#
# 1 0.010288 -0.002933 -0.004125 0.000000 0.000000 0.000000
# 2 -0.002933 0.008494 -0.001152 0.000000 0.000000 0.000000
# 3 -0.004125 -0.001152 0.006555 0.000000 0.000000 0.000000
# 4 0.000000 0.000000 0.000000 0.033304 0.000000 0.000000
# 5 0.000000 0.000000 0.000000 0.000000 0.011898 0.000000
# 6 0.000000 0.000000 0.000000 0.000000 0.000000 0.030509
#
#
# Mechanical properties :
#
#
# Convention : Reuss Voigt Hill
#
# Bulk Modulus (GPa) = 112.14686 119.81694 115.98190
# Shear Modulus (GPa) = 41.51427 48.98687 45.25057
#
# Velocity S-wave (km/s) = 4.04620 4.39530 4.22436
# Velocity P-wave (km/s) = 8.12746 8.54457 8.33863
#
# Compressibility (1/GPa) = 0.00891688
#
# Stress axis : x y z
#
# Youngs Moduli (GPa) = 97.20511 117.72504 152.54696
#
# Poissons Ratio (x) = 0.34530 0.62932
# Poissons Ratio (y) = 0.28512 0.17568
# Poissons Ratio (z) = 0.40101 0.13558
#
# Static dielectric constant tensor:
#      x y z
#    x 1.984050 0.000000 0.000000 
#    y 0.000000 1.984330 0.000000 
#    z 0.000000 0.000000 2.092900 
# 
# From -- ./inp_files/3535.got.cif
#   From: 2010.05.17/outbox.cif.g08.bks.cpg/sg45_2_cif.got.tgz:3535.got - 2010.06.03 19:51:22.
