data_PCOD9377524
_publ_section_title
;
Structure prediction by ZEFSAII (Michael W. Deem and Ramdas Pophale) SiO2 
 PCOD9377524
Probable space group: I B A 2
;
_chemical_formula_sum "Si O2"
_cell_formula_units_Z 56
_cell_length_a 15.218295
_cell_length_b 12.034758
_cell_length_c 14.017158
_cell_angle_alpha 90.000000
_cell_angle_beta 90.000000
_cell_angle_gamma 90.000000
_cell_volume 2567.221427
_symmetry_space_group_name_H-M "I B A 2"
_symmetry_group_IT_number 45
_symmetry_cell_setting 'orthorhombic'
loop_
_space_group_symop_operation_xyz
x,y,z
-x,-y,z
-x,y,1/2+z
x,-y,1/2+z
1/2+x,1/2+y,1/2+z
1/2-x,1/2-y,1/2+z
1/2-x,1/2+y,z
1/2+x,1/2-y,z
loop_
_atom_site_type_symbol
_atom_site_label
_atom_site_fract_x
_atom_site_fract_y
_atom_site_fract_z
Si Si1 0.266984 0.095687 0.395690
Si Si2 0.405857 0.447648 0.353100
Si Si3 0.694189 0.892215 0.183315
Si Si4 0.349573 0.291806 0.028536
Si Si5 0.382559 0.512001 0.141058
Si Si6 0.404385 0.946749 0.052640
Si Si7 0.452212 0.702836 0.012957
O O1 0.313265 0.124319 0.296033
O O2 0.225144 0.202803 0.448663
O O3 0.336081 0.035956 0.465771
O O4 0.181719 0.018070 0.375476
O O5 0.500000 0.500000 0.384587
O O6 0.410808 0.450104 0.238404
O O7 0.404592 0.336594 0.416274
O O8 0.668009 0.790892 0.115281
O O9 0.796049 0.917593 0.165119
O O10 0.637350 0.996264 0.145557
O O11 0.352987 0.416113 0.069795
O O12 0.446641 0.270247 0.989096
O O13 0.445307 0.600805 0.088176
O O14 0.413563 0.814001 0.058967
O O15 0.500000 0.000000 0.035162
#
# Coordination Sequence:
#
# PCOD9377524 Si02
#       7
#     8   8   8   8   8   8   8
#     4  11  25  46  75 106 146 198 250 311 379 452
#     4  11  21  42  71 111 147 180 244 307 380 442
#     4  11  26  48  69 106 145 200 251 300 376 455
#     4  12  22  46  74 104 148 185 247 320 377 443
#     4  11  24  42  72 107 145 186 246 311 373 447
#     4  12  26  50  70 102 156 207 251 310 371 470
#     4  12  23  43  76 105 148 196 243 314 386 445
#
# _framework density 21.813466999999999
#
# number of rings (size 3 to 8) (size 9 to 14) (size 15 to 20)
#    0.000    0.571    5.714    2.143    2.000    0.571 
#    2.571    0.000    0.000    0.000    0.000    0.000 
#    0.000    0.000    0.000    0.000    0.000    0.000 
#
# Total GULP energy -156473.115236 kJ/mol
# GULP energy per Si atom -5588.325544 kJ/mol
# Density = 2.176382 g / cm^3
# Si number density = 21.813467 Si / 1000 Ang^3
#
#
#
# Elastic Constant Matrix: (Units=GPa)
#
#
# Indices 1 2 3 4 5 6 
#
# 1 114.0805 17.2318 50.9517 0.0000 0.0000 0.0000
# 2 17.2318 115.7060 64.6600 0.0000 0.0000 0.0000
# 3 50.9517 64.6600 172.5710 0.0000 0.0000 0.0000
# 4 0.0000 0.0000 0.0000 32.7425 0.0000 0.0000
# 5 0.0000 0.0000 0.0000 0.0000 34.4328 0.0000
# 6 0.0000 0.0000 0.0000 0.0000 0.0000 36.7443
#
#
#
# Elastic Compliance Matrix: (Units=1/GPa)
#
#
# Indices 1 2 3 4 5 6 
#
# 1 0.010101 0.000205 -0.003059 0.000000 0.000000 0.000000
# 2 0.000205 0.010936 -0.004158 0.000000 0.000000 0.000000
# 3 -0.003059 -0.004158 0.008256 0.000000 0.000000 0.000000
# 4 0.000000 0.000000 0.000000 0.030541 0.000000 0.000000
# 5 0.000000 0.000000 0.000000 0.000000 0.029042 0.000000
# 6 0.000000 0.000000 0.000000 0.000000 0.000000 0.027215
#
#
# Mechanical properties :
#
#
# Convention : Reuss Voigt Hill
#
# Bulk Modulus (GPa) = 65.49386 74.22717 69.86052
# Shear Modulus (GPa) = 36.98092 38.75152 37.86622
#
# Velocity S-wave (km/s) = 4.12190 4.21942 4.17095
# Velocity P-wave (km/s) = 7.26244 7.60526 7.43583
#
# Compressibility (1/GPa) = 0.01526861
#
# Stress axis : x y z
#
# Youngs Moduli (GPa) = 98.99923 91.44387 121.12496
#
# Poissons Ratio (x) = -0.01877 0.37055
# Poissons Ratio (y) = -0.02032 0.50364
# Poissons Ratio (z) = 0.30287 0.38023
#
# Static dielectric constant tensor:
#      x y z
#    x 1.846290 0.000000 0.000000 
#    y 0.000000 1.805820 0.000000 
#    z 0.000000 0.000000 1.807910 
# 
# From -- ./inp_files/6516.got.cif
#   From: 2010.05.17/outbox.cif.g08.bks.cpg/sg45_4_cif.got.tgz:6516.got - 2010.06.03 19:51:22.
