data_PCOD9377382
_publ_section_title
;
Structure prediction by ZEFSAII (Michael W. Deem and Ramdas Pophale) SiO2 
 PCOD9377382
Probable space group: I B A 2
;
_chemical_formula_sum "Si O2"
_cell_formula_units_Z 44
_cell_length_a 16.783834
_cell_length_b 5.262174
_cell_length_c 23.040578
_cell_angle_alpha 90.000000
_cell_angle_beta 90.000000
_cell_angle_gamma 90.000000
_cell_volume 2034.931289
_symmetry_space_group_name_H-M "I B A 2"
_symmetry_group_IT_number 45
_symmetry_cell_setting 'orthorhombic'
loop_
_space_group_symop_operation_xyz
x,y,z
-x,-y,z
-x,y,1/2+z
x,-y,1/2+z
1/2+x,1/2+y,1/2+z
1/2-x,1/2-y,1/2+z
1/2-x,1/2+y,z
1/2+x,1/2-y,z
loop_
_atom_site_type_symbol
_atom_site_label
_atom_site_fract_x
_atom_site_fract_y
_atom_site_fract_z
Si Si1 0.199207 0.859504 0.259720
Si Si2 0.423839 0.143932 0.038025
Si Si3 0.699143 0.376576 0.622502
Si Si4 0.500000 0.500000 0.942236
Si Si5 0.696828 0.008235 0.447699
Si Si6 0.918127 0.651744 0.852349
O O1 0.264581 0.637979 0.271916
O O2 0.180774 0.855223 0.191057
O O3 0.123097 0.782073 0.297525
O O4 0.377378 0.315066 0.083862
O O5 0.500000 0.000000 0.064070
O O6 0.458285 0.303622 0.984548
O O7 0.359768 0.972790 0.003949
O O8 0.736979 0.651552 0.610726
O O9 0.560937 0.363602 0.899871
O O10 0.757508 0.774537 0.449757
O O11 0.646234 0.011523 0.388109
O O12 0.000000 0.500000 0.839795
#
# Coordination Sequence:
#
# PCOD9377382 Si02
#       6
#     8   8   8   4   8   8
#     4  10  24  47  72 100 133 176 231 283 336 403
#     4  12  25  42  66  98 140 181 221 285 338 405
#     4  10  24  47  72 100 133 176 231 283 336 403
#     4  12  24  44  62 100 148 174 226 276 338 414
#     4  12  24  40  63  93 128 176 228 266 332 396
#     4  12  25  42  66  98 140 181 221 285 338 405
#
# _framework density 21.622353
#
# number of rings (size 3 to 8) (size 9 to 14) (size 15 to 20)
#    0.000    0.727    3.636    3.273    5.091    0.727 
#    0.000    0.909    0.000    0.000    0.000    0.000 
#    0.000    0.000    0.000    0.000    0.000    0.000 
#
# Total GULP energy -123155.624805 kJ/mol
# GULP energy per Si atom -5597.982946 kJ/mol
# Density = 2.157314 g / cm^3
# Si number density = 21.622353 Si / 1000 Ang^3
#
#
#
# Elastic Constant Matrix: (Units=GPa)
#
#
# Indices 1 2 3 4 5 6 
#
# 1 72.4077 2.0696 27.7514 0.0000 0.0000 0.0000
# 2 2.0696 67.0219 1.2027 0.0000 0.0000 0.0000
# 3 27.7514 1.2027 70.8002 0.0000 0.0000 0.0000
# 4 0.0000 0.0000 0.0000 -2.5469 0.0000 0.0000
# 5 0.0000 0.0000 0.0000 0.0000 45.1926 0.0000
# 6 0.0000 0.0000 0.0000 0.0000 0.0000 17.5589
#
#
#
# Elastic Compliance Matrix: (Units=1/GPa)
#
#
# Indices 1 2 3 4 5 6 
#
# 1 0.016262 -0.000388 -0.006368 0.000000 0.000000 0.000000
# 2 -0.000388 0.014934 -0.000102 0.000000 0.000000 0.000000
# 3 -0.006368 -0.000102 0.016622 0.000000 0.000000 0.000000
# 4 0.000000 0.000000 0.000000 -0.392628 0.000000 0.000000
# 5 0.000000 0.000000 0.000000 0.000000 0.022128 0.000000
# 6 0.000000 0.000000 0.000000 0.000000 0.000000 0.056951
#
#
# Mechanical properties :
#
#
# Convention : Reuss Voigt Hill
#
# Bulk Modulus (GPa) = 29.32208 30.25303 29.78755
# Shear Modulus (GPa) = -20.77724 23.98798 1.60537
#
# Velocity S-wave (km/s) = -3.10323 3.33439 0.86260
# Velocity P-wave (km/s) = 0.86628 5.37086 3.84685
#
# Compressibility (1/GPa) = 0.03410399
#
# Stress axis : x y z
#
# Youngs Moduli (GPa) = 61.49191 66.95997 60.16149
#
# Poissons Ratio (x) = 0.02597 0.38309
# Poissons Ratio (y) = 0.02385 0.00612
# Poissons Ratio (z) = 0.39156 0.00681
#
# Static dielectric constant tensor:
#      x y z
#    x 1.858930 0.000000 0.000000 
#    y 0.000000 1.930220 0.000000 
#    z 0.000000 0.000000 1.761390 
# 
# From -- ./inp_files/9805.got.cif
#   From: 2010.05.17/outbox.cif.g08.bks.cpg/sg45_5_cif.got.tgz:9805.got - 2010.06.03 19:51:22.
