data_PCOD9377606
_publ_section_title
;
Structure prediction by ZEFSAII (Michael W. Deem and Ramdas Pophale) SiO2 
 PCOD9377606
Probable space group: I B A 2
;
_chemical_formula_sum "Si O2"
_cell_formula_units_Z 64
_cell_length_a 14.037181
_cell_length_b 16.979732
_cell_length_c 12.511990
_cell_angle_alpha 90.000000
_cell_angle_beta 90.000000
_cell_angle_gamma 90.000000
_cell_volume 2982.202430
_symmetry_space_group_name_H-M "I B A 2"
_symmetry_group_IT_number 45
_symmetry_cell_setting 'orthorhombic'
loop_
_space_group_symop_operation_xyz
x,y,z
-x,-y,z
-x,y,1/2+z
x,-y,1/2+z
1/2+x,1/2+y,1/2+z
1/2-x,1/2-y,1/2+z
1/2-x,1/2+y,z
1/2+x,1/2-y,z
loop_
_atom_site_type_symbol
_atom_site_label
_atom_site_fract_x
_atom_site_fract_y
_atom_site_fract_z
Si Si1 0.682703 0.815959 0.869300
Si Si2 0.437900 0.930151 0.215262
Si Si3 0.581611 0.820526 0.094495
Si Si4 0.755034 0.997128 0.131688
Si Si5 0.446255 0.681228 0.105965
Si Si6 0.149672 0.921564 0.435054
Si Si7 0.567362 0.565784 0.220871
Si Si8 0.264136 0.676856 0.227448
O O1 0.610175 0.863737 0.791281
O O2 0.785168 0.858214 0.873035
O O3 0.703559 0.725613 0.832351
O O4 0.642704 0.830001 0.987902
O O5 0.512986 0.889828 0.135032
O O6 0.500000 0.000000 0.271114
O O7 0.349227 0.970106 0.153902
O O8 0.511068 0.750504 0.067139
O O9 0.657586 0.803516 0.189081
O O10 0.770253 0.918767 0.208055
O O11 0.833075 0.063075 0.159389
O O12 0.780381 0.971027 0.011385
O O13 0.504594 0.643236 0.204923
O O14 0.342211 0.708097 0.143017
O O15 0.425329 0.619637 0.012990
O O16 0.093486 0.961476 0.339614
O O17 0.500000 0.500000 0.170390
#
# Coordination Sequence:
#
# PCOD9377606 Si02
#       8
#     8   8   8   8   8   8   8   8
#     4  12  25  45  73 102 141 191 235 297 363 425
#     4  12  25  47  74 105 145 192 239 303 362 433
#     4  12  26  46  73 101 143 188 244 295 356 437
#     4  11  24  48  69 104 144 179 231 305 353 427
#     4  11  25  44  67  99 136 182 230 293 349 417
#     4  11  24  44  68  98 143 177 233 289 353 429
#     4  12  24  41  71 100 137 179 232 286 357 426
#     4  11  23  47  68 101 141 177 237 299 349 423
#
# _framework density 21.460649
#
# number of rings (size 3 to 8) (size 9 to 14) (size 15 to 20)
#    0.000    0.500    8.750    0.750    3.500    2.500 
#    0.000    0.000    0.000    0.000    0.000    0.000 
#    0.000    0.000    0.000    0.000    0.000    0.000 
#
# Total GULP energy -178375.327682 kJ/mol
# GULP energy per Si atom -5574.228990 kJ/mol
# Density = 2.141180 g / cm^3
# Si number density = 21.460649 Si / 1000 Ang^3
#
#
#
# Elastic Constant Matrix: (Units=GPa)
#
#
# Indices 1 2 3 4 5 6 
#
# 1 139.0323 29.4917 12.2844 0.0000 0.0000 0.0000
# 2 29.4917 35.6097 13.1030 0.0000 0.0000 0.0000
# 3 12.2844 13.1030 54.4970 0.0000 0.0000 0.0000
# 4 0.0000 0.0000 0.0000 25.6684 0.0000 0.0000
# 5 0.0000 0.0000 0.0000 0.0000 28.9503 0.0000
# 6 0.0000 0.0000 0.0000 0.0000 0.0000 43.9564
#
#
#
# Elastic Compliance Matrix: (Units=1/GPa)
#
#
# Indices 1 2 3 4 5 6 
#
# 1 0.008729 -0.007136 -0.000252 0.000000 0.000000 0.000000
# 2 -0.007136 0.036642 -0.007201 0.000000 0.000000 0.000000
# 3 -0.000252 -0.007201 0.020138 0.000000 0.000000 0.000000
# 4 0.000000 0.000000 0.000000 0.038958 0.000000 0.000000
# 5 0.000000 0.000000 0.000000 0.000000 0.034542 0.000000
# 6 0.000000 0.000000 0.000000 0.000000 0.000000 0.022750
#
#
# Mechanical properties :
#
#
# Convention : Reuss Voigt Hill
#
# Bulk Modulus (GPa) = 27.52568 37.65525 32.59047
# Shear Modulus (GPa) = 24.62471 31.33234 27.97853
#
# Velocity S-wave (km/s) = 3.39106 3.82513 3.61461
# Velocity P-wave (km/s) = 5.30908 6.09041 5.71312
#
# Compressibility (1/GPa) = 0.03632972
#
# Stress axis : x y z
#
# Youngs Moduli (GPa) = 114.56612 27.29081 49.65772
#
# Poissons Ratio (x) = 0.19476 0.01250
# Poissons Ratio (y) = 0.81758 0.35761
# Poissons Ratio (z) = 0.02884 0.19653
#
# Static dielectric constant tensor:
#      x y z
#    x 1.747340 0.000000 0.000000 
#    y 0.000000 1.858810 0.000000 
#    z 0.000000 0.000000 1.763820 
# 
# From -- ./inp_files/4275.got.cif
#   From: 2010.05.17/outbox.cif.g08.bks.cpg/sg45_3_cif.got.tgz:4275.got - 2010.06.03 19:51:22.
