data_PCOD9377639
_publ_section_title
;
Structure prediction by ZEFSAII (Michael W. Deem and Ramdas Pophale) SiO2 
 PCOD9377639
Probable space group: I B A 2
;
_chemical_formula_sum "Si O2"
_cell_formula_units_Z 40
_cell_length_a 12.414542
_cell_length_b 12.902036
_cell_length_c 8.913559
_cell_angle_alpha 90.000000
_cell_angle_beta 90.000000
_cell_angle_gamma 90.000000
_cell_volume 1427.710307
_symmetry_space_group_name_H-M "I B A 2"
_symmetry_group_IT_number 45
_symmetry_cell_setting 'orthorhombic'
loop_
_space_group_symop_operation_xyz
x,y,z
-x,-y,z
-x,y,1/2+z
x,-y,1/2+z
1/2+x,1/2+y,1/2+z
1/2-x,1/2-y,1/2+z
1/2-x,1/2+y,z
1/2+x,1/2-y,z
loop_
_atom_site_type_symbol
_atom_site_label
_atom_site_fract_x
_atom_site_fract_y
_atom_site_fract_z
Si Si1 0.143749 0.006765 0.994960
Si Si2 0.142160 0.386588 0.003969
Si Si3 0.922763 0.156083 0.765729
Si Si4 0.763105 0.308575 0.927531
Si Si5 0.438009 0.848331 0.685648
O O1 0.197267 0.090229 0.880217
O O2 0.250972 0.946244 0.046285
O O3 0.072767 0.919239 0.911850
O O4 0.099806 0.075104 0.132282
O O5 0.174908 0.266741 0.998342
O O6 0.104654 0.406113 0.832875
O O7 0.044267 0.398704 0.115697
O O8 0.826150 0.236124 0.810133
O O9 0.022644 0.232085 0.733164
O O10 0.850714 0.339739 0.053491
#
# Coordination Sequence:
#
# PCOD9377639 Si02
#       5
#     8   8   8   8   8
#     4  11  26  50  83 118 160 216 271 333 412 489
#     4  11  27  48  82 117 161 214 269 343 411 488
#     4  11  26  49  76 117 156 214 270 331 404 489
#     4  11  24  50  78 113 167 209 266 339 418 470
#     4  12  25  53  79 116 164 208 273 332 419 483
#
# _framework density 28.016888999999999
#
# number of rings (size 3 to 8) (size 9 to 14) (size 15 to 20)
#    0.000    0.800    4.000    2.400    2.800    2.400 
#    3.600   17.000    0.000    0.000    0.000    0.000 
#    0.000    0.000    0.000    0.000    0.000    0.000 
#
# Total GULP energy -112218.279979 kJ/mol
# GULP energy per Si atom -5610.913999 kJ/mol
# Density = 2.795312 g / cm^3
# Si number density = 28.016889 Si / 1000 Ang^3
#
#
#
# Elastic Constant Matrix: (Units=GPa)
#
#
# Indices 1 2 3 4 5 6 
#
# 1 70.9941 11.7859 32.4648 0.0000 0.0000 0.0000
# 2 11.7859 123.9323 20.5123 0.0000 0.0000 0.0000
# 3 32.4648 20.5123 178.9924 0.0000 0.0000 0.0000
# 4 0.0000 0.0000 0.0000 39.6274 0.0000 0.0000
# 5 0.0000 0.0000 0.0000 0.0000 43.7159 0.0000
# 6 0.0000 0.0000 0.0000 0.0000 0.0000 80.2055
#
#
#
# Elastic Compliance Matrix: (Units=1/GPa)
#
#
# Indices 1 2 3 4 5 6 
#
# 1 0.015487 -0.001027 -0.002691 0.000000 0.000000 0.000000
# 2 -0.001027 0.008293 -0.000764 0.000000 0.000000 0.000000
# 3 -0.002691 -0.000764 0.006163 0.000000 0.000000 0.000000
# 4 0.000000 0.000000 0.000000 0.025235 0.000000 0.000000
# 5 0.000000 0.000000 0.000000 0.000000 0.022875 0.000000
# 6 0.000000 0.000000 0.000000 0.000000 0.000000 0.012468
#
#
# Mechanical properties :
#
#
# Convention : Reuss Voigt Hill
#
# Bulk Modulus (GPa) = 47.67070 55.93833 51.80451
# Shear Modulus (GPa) = 46.95799 53.32014 50.13906
#
# Velocity S-wave (km/s) = 4.09841 4.36724 4.23496
# Velocity P-wave (km/s) = 6.28076 6.74089 6.51489
#
# Compressibility (1/GPa) = 0.02097725
#
# Stress axis : x y z
#
# Youngs Moduli (GPa) = 64.57077 120.58239 162.27172
#
# Poissons Ratio (x) = 0.12388 0.43671
# Poissons Ratio (y) = 0.06634 0.12398
# Poissons Ratio (z) = 0.17377 0.09213
#
# Static dielectric constant tensor:
#      x y z
#    x 2.158920 0.000000 0.000000 
#    y 0.000000 2.183470 0.000000 
#    z 0.000000 0.000000 2.233410 
# 
# From -- ./inp_files/1628.got.cif
#   From: 2010.05.17/outbox.cif.g08.bks.cpg/sg45_1_cif.got.tgz:1628.got - 2010.06.03 19:51:22.
