data_PCOD9377840
_publ_section_title
;
Structure prediction by ZEFSAII (Michael W. Deem and Ramdas Pophale) SiO2 
 PCOD9377840
Probable space group: I M A 2
;
_chemical_formula_sum "Si O2"
_cell_formula_units_Z 56
_cell_length_a 8.683088
_cell_length_b 22.786841
_cell_length_c 18.380204
_cell_angle_alpha 90.000000
_cell_angle_beta 90.000000
_cell_angle_gamma 90.000000
_cell_volume 3636.709840
_symmetry_space_group_name_H-M "I M A 2"
_symmetry_group_IT_number 46
_symmetry_cell_setting 'orthorhombic'
loop_
_space_group_symop_operation_xyz
x,y,z
-x,-y,z
1/2-x,y,z
1/2+x,-y,z
1/2+x,1/2+y,1/2+z
1/2-x,1/2-y,1/2+z
-x,1/2+y,1/2+z
x,1/2-y,1/2+z
loop_
_atom_site_type_symbol
_atom_site_label
_atom_site_fract_x
_atom_site_fract_y
_atom_site_fract_z
Si Si1 0.934500 0.065083 0.809070
Si Si2 0.571608 0.814280 0.537232
Si Si3 0.064120 0.284041 0.735872
Si Si4 0.066012 0.841326 0.686461
Si Si5 0.566569 0.221831 0.390050
Si Si6 0.436364 0.150034 0.930187
Si Si7 0.428621 0.323124 0.585055
O O1 0.750000 0.063594 0.815835
O O2 0.973030 0.104137 0.738077
O O3 0.004594 0.099166 0.878063
O O4 0.000000 0.000000 0.803475
O O5 0.750000 0.830939 0.530279
O O6 0.491959 0.847753 0.603812
O O7 0.488410 0.815505 0.459641
O O8 0.567798 0.745519 0.561387
O O9 0.250000 0.285142 0.737100
O O10 0.997397 0.301513 0.813635
O O11 0.006865 0.322616 0.666779
O O12 0.011005 0.217333 0.719400
O O13 0.250000 0.832982 0.687017
O O14 0.250000 0.774269 0.388259
O O15 0.498163 0.287474 0.400977
O O16 0.250000 0.152445 0.930114
O O17 0.492611 0.144055 0.014170
O O18 0.250000 0.340845 0.591292
#
# Coordination Sequence:
#
# PCOD9377840 Si02
#       7
#     8   8   8   8   8   8   8
#     4  11  23  35  48  67  90 119 158 197 235 273
#     4   9  17  29  44  62  84 116 153 182 222 276
#     4  10  17  27  44  64  90 123 155 182 218 272
#     4  10  19  31  45  63  88 115 149 193 235 270
#     4  11  19  27  41  65  94 121 152 187 225 267
#     4  10  18  31  48  63  85 118 154 191 232 273
#     4   7  14  26  41  62  83 110 148 182 216 266
#
# _framework density 15.398535000000001
#
# number of rings (size 3 to 8) (size 9 to 14) (size 15 to 20)
#    0.000    2.286    1.429    5.143    0.000    1.714 
#    0.000    2.143    0.000    0.000    0.000    0.000 
#    0.000    1.143    0.000    8.286    0.000    4.000 
#
# Total GULP energy -155994.815943 kJ/mol
# GULP energy per Si atom -5571.243427 kJ/mol
# Density = 1.536349 g / cm^3
# Si number density = 15.398535 Si / 1000 Ang^3
#
#
#
# Elastic Constant Matrix: (Units=GPa)
#
#
# Indices 1 2 3 4 5 6 
#
# 1 73.1707 23.9141 51.7095 0.0000 0.0000 0.0000
# 2 23.9141 46.5322 44.3065 0.0000 0.0000 0.0000
# 3 51.7095 44.3065 176.6027 0.0000 0.0000 0.0000
# 4 0.0000 0.0000 0.0000 12.7132 0.0000 0.0000
# 5 0.0000 0.0000 0.0000 0.0000 24.6419 0.0000
# 6 0.0000 0.0000 0.0000 0.0000 0.0000 14.5351
#
#
#
# Elastic Compliance Matrix: (Units=1/GPa)
#
#
# Indices 1 2 3 4 5 6 
#
# 1 0.018298 -0.005653 -0.003940 0.000000 0.000000 0.000000
# 2 -0.005653 0.029982 -0.005867 0.000000 0.000000 0.000000
# 3 -0.003940 -0.005867 0.008288 0.000000 0.000000 0.000000
# 4 0.000000 0.000000 0.000000 0.078658 0.000000 0.000000
# 5 0.000000 0.000000 0.000000 0.000000 0.040581 0.000000
# 6 0.000000 0.000000 0.000000 0.000000 0.000000 0.068799
#
#
# Mechanical properties :
#
#
# Convention : Reuss Voigt Hill
#
# Bulk Modulus (GPa) = 38.98704 59.57398 49.28051
# Shear Modulus (GPa) = 17.60103 22.13641 19.86872
#
# Velocity S-wave (km/s) = 3.38454 3.79564 3.59597
# Velocity P-wave (km/s) = 6.37551 7.61454 7.02241
#
# Compressibility (1/GPa) = 0.02564955
#
# Stress axis : x y z
#
# Youngs Moduli (GPa) = 54.65005 33.35368 120.65935
#
# Poissons Ratio (x) = 0.18854 0.47535
# Poissons Ratio (y) = 0.30893 0.70788
# Poissons Ratio (z) = 0.21530 0.19568
#
# Static dielectric constant tensor:
#      x y z
#    x 1.517080 0.000000 0.000000 
#    y 0.000000 1.467100 0.000000 
#    z 0.000000 0.000000 1.565460 
# 
# From -- ./inp_files/21237.got.cif
#   From: 2010.05.17/outbox.cif.g08.bks.cpg/sg46_11_cif.got.tgz:21237.got - 2010.06.03 19:58:25.
