data_PCOD9377899
_publ_section_title
;
Structure prediction by ZEFSAII (Michael W. Deem and Ramdas Pophale) SiO2 
 PCOD9377899
Probable space group: I M A 2
;
_chemical_formula_sum "Si O2"
_cell_formula_units_Z 64
_cell_length_a 15.958969
_cell_length_b 16.251466
_cell_length_c 13.749327
_cell_angle_alpha 90.000000
_cell_angle_beta 90.000000
_cell_angle_gamma 90.000000
_cell_volume 3565.979282
_symmetry_space_group_name_H-M "I M A 2"
_symmetry_group_IT_number 46
_symmetry_cell_setting 'orthorhombic'
loop_
_space_group_symop_operation_xyz
x,y,z
-x,-y,z
1/2-x,y,z
1/2+x,-y,z
1/2+x,1/2+y,1/2+z
1/2-x,1/2-y,1/2+z
-x,1/2+y,1/2+z
x,1/2-y,1/2+z
loop_
_atom_site_type_symbol
_atom_site_label
_atom_site_fract_x
_atom_site_fract_y
_atom_site_fract_z
Si Si1 0.342154 0.241855 0.338370
Si Si2 0.997030 0.092288 0.643583
Si Si3 0.115636 0.071257 0.823645
Si Si4 0.973406 0.761860 0.506191
Si Si5 0.150681 0.675444 0.471147
Si Si6 0.159249 0.607887 0.255190
Si Si7 0.656233 0.842057 0.128442
Si Si8 0.403646 0.498145 0.541467
O O1 0.250000 0.217822 0.378911
O O2 0.339964 0.340773 0.323532
O O3 0.422652 0.226774 0.405921
O O4 0.351949 0.194168 0.236523
O O5 0.904783 0.121966 0.669324
O O6 0.038399 0.086868 0.750898
O O7 0.035960 0.156350 0.570397
O O8 0.000000 0.000000 0.603711
O O9 0.158365 0.990062 0.779062
O O10 0.096237 0.044782 0.934001
O O11 0.918647 0.694602 0.564180
O O12 0.070640 0.733949 0.495268
O O13 0.250000 0.699604 0.485220
O O14 0.140197 0.652879 0.356685
O O15 0.134130 0.588943 0.527164
O O16 0.250000 0.634649 0.223427
O O17 0.750000 0.818341 0.093387
O O18 0.647396 0.939788 0.114065
O O19 0.500000 0.500000 0.573403
#
# Coordination Sequence:
#
# PCOD9377899 Si02
#       8
#     8   8   8   8   8   8   8   8
#     4  11  22  36  54  84 117 147 184 233 283 338
#     4  10  21  36  55  80 109 147 187 231 275 336
#     4  10  17  31  54  84 115 138 174 226 290 340
#     4  12  22  37  60  80 114 150 192 230 287 331
#     4  10  21  35  56  86 120 149 184 231 285 340
#     4   9  18  32  53  82 111 140 173 227 288 336
#     4  11  23  35  55  86 116 150 188 226 280 344
#     4  11  18  33  58  88 118 153 180 229 286 344
#
# _framework density 17.947385000000001
#
# number of rings (size 3 to 8) (size 9 to 14) (size 15 to 20)
#    0.000    1.500    3.750    3.750    0.000    1.500 
#    0.000    1.250    0.000    0.000    0.000    0.000 
#    0.000    0.000    0.000    0.000    0.000    0.000 
#
# Total GULP energy -178265.331100 kJ/mol
# GULP energy per Si atom -5570.791597 kJ/mol
# Density = 1.790654 g / cm^3
# Si number density = 17.947385 Si / 1000 Ang^3
#
#
#
# Elastic Constant Matrix: (Units=GPa)
#
#
# Indices 1 2 3 4 5 6 
#
# 1 114.1444 12.6830 26.9742 0.0000 0.0000 0.0000
# 2 12.6830 38.4918 14.1302 0.0000 0.0000 0.0000
# 3 26.9742 14.1302 46.8999 0.0000 0.0000 0.0000
# 4 0.0000 0.0000 0.0000 21.8130 0.0000 0.0000
# 5 0.0000 0.0000 0.0000 0.0000 0.3804 0.0000
# 6 0.0000 0.0000 0.0000 0.0000 0.0000 10.0794
#
#
#
# Elastic Compliance Matrix: (Units=1/GPa)
#
#
# Indices 1 2 3 4 5 6 
#
# 1 0.010202 -0.001358 -0.005458 0.000000 0.000000 0.000000
# 2 -0.001358 0.029391 -0.008074 0.000000 0.000000 0.000000
# 3 -0.005458 -0.008074 0.026894 0.000000 0.000000 0.000000
# 4 0.000000 0.000000 0.000000 0.045844 0.000000 0.000000
# 5 0.000000 0.000000 0.000000 0.000000 2.628824 0.000000
# 6 0.000000 0.000000 0.000000 0.000000 0.000000 0.099212
#
#
# Mechanical properties :
#
#
# Convention : Reuss Voigt Hill
#
# Bulk Modulus (GPa) = 27.24342 34.12344 30.68343
# Shear Modulus (GPa) = 1.73468 16.17114 8.95291
#
# Velocity S-wave (km/s) = 0.98419 3.00497 2.23590
# Velocity P-wave (km/s) = 4.06252 5.57621 4.87843
#
# Compressibility (1/GPa) = 0.03670611
#
# Stress axis : x y z
#
# Youngs Moduli (GPa) = 98.02396 34.02406 37.18302
#
# Poissons Ratio (x) = 0.04619 0.20296
# Poissons Ratio (y) = 0.13308 0.30022
# Poissons Ratio (z) = 0.53505 0.27472
#
# Static dielectric constant tensor:
#      x y z
#    x 1.797750 0.000000 0.000000 
#    y 0.000000 1.642980 0.000000 
#    z 0.000000 0.000000 1.586970 
# 
# From -- ./inp_files/11337.got.cif
#   From: 2010.05.17/outbox.cif.g08.bks.cpg/sg46_6_cif.got.tgz:11337.got - 2010.06.03 19:58:25.
