data_PCOD9377088
_publ_section_title
;
Structure prediction by ZEFSAII (Michael W. Deem and Ramdas Pophale) SiO2 
 PCOD9377088
Probable space group: I B A 2
;
_chemical_formula_sum "Si O2"
_cell_formula_units_Z 32
_cell_length_a 18.414208
_cell_length_b 5.356997
_cell_length_c 13.434787
_cell_angle_alpha 90.000000
_cell_angle_beta 90.000000
_cell_angle_gamma 90.000000
_cell_volume 1325.272643
_symmetry_space_group_name_H-M "I B A 2"
_symmetry_group_IT_number 45
_symmetry_cell_setting 'orthorhombic'
loop_
_space_group_symop_operation_xyz
x,y,z
-x,-y,z
-x,y,1/2+z
x,-y,1/2+z
1/2+x,1/2+y,1/2+z
1/2-x,1/2-y,1/2+z
1/2-x,1/2+y,z
1/2+x,1/2-y,z
loop_
_atom_site_type_symbol
_atom_site_label
_atom_site_fract_x
_atom_site_fract_y
_atom_site_fract_z
Si Si1 0.084151 0.429488 0.653900
Si Si2 0.861513 0.923250 0.256569
Si Si3 0.577379 0.114319 0.418776
Si Si4 0.229238 0.583265 0.404332
O O1 0.127626 0.681406 0.685055
O O2 0.085736 0.369047 0.536657
O O3 0.000000 0.500000 0.677134
O O4 0.113048 0.176189 0.704657
O O5 0.910565 0.861833 0.354292
O O6 0.781076 0.929400 0.306437
O O7 0.644564 0.940309 0.384963
O O8 0.500000 0.000000 0.397627
O O9 0.248662 0.832948 0.461144
#
# Coordination Sequence:
#
# PCOD9377088 Si02
#       4
#     8   8   8   8
#     4  11  25  44  74 112 145 188 244 297 360 427
#     4  11  23  45  72 104 149 190 236 295 355 430
#     4  10  24  48  77 107 145 188 238 300 362 427
#     4  10  22  43  66  97 139 182 230 280 343 414
#
# _framework density 24.145976000000001
#
# number of rings (size 3 to 8) (size 9 to 14) (size 15 to 20)
#    0.000    1.500    0.000    4.500    0.000    8.000 
#    0.000   43.750    0.000    1.500    0.000    0.000 
#    0.000    0.000    0.000    0.000    0.000    0.000 
#
# Total GULP energy -89430.449739 kJ/mol
# GULP energy per Si atom -5589.403109 kJ/mol
# Density = 2.409102 g / cm^3
# Si number density = 24.145976 Si / 1000 Ang^3
#
#
#
# Elastic Constant Matrix: (Units=GPa)
#
#
# Indices 1 2 3 4 5 6 
#
# 1 202.4256 61.7240 37.3961 0.0000 0.0000 0.0000
# 2 61.7240 214.2678 62.5697 0.0000 0.0000 0.0000
# 3 37.3961 62.5697 175.9160 0.0000 0.0000 0.0000
# 4 0.0000 0.0000 0.0000 0.7088 0.0000 0.0000
# 5 0.0000 0.0000 0.0000 0.0000 -5.1686 0.0000
# 6 0.0000 0.0000 0.0000 0.0000 0.0000 39.2624
#
#
#
# Elastic Compliance Matrix: (Units=1/GPa)
#
#
# Indices 1 2 3 4 5 6 
#
# 1 0.005487 -0.001384 -0.000674 0.000000 0.000000 0.000000
# 2 -0.001384 0.005557 -0.001682 0.000000 0.000000 0.000000
# 3 -0.000674 -0.001682 0.006426 0.000000 0.000000 0.000000
# 4 0.000000 0.000000 0.000000 1.410835 0.000000 0.000000
# 5 0.000000 0.000000 0.000000 0.000000 -0.193474 0.000000
# 6 0.000000 0.000000 0.000000 0.000000 0.000000 0.025470
#
#
# Mechanical properties :
#
#
# Convention : Reuss Voigt Hill
#
# Bulk Modulus (GPa) = 100.10680 101.77656 100.94168
# Shear Modulus (GPa) = 3.93357 35.68847 19.81102
#
# Velocity S-wave (km/s) = 1.27774 3.84869 2.86749
# Velocity P-wave (km/s) = 6.61255 7.87349 7.27041
#
# Compressibility (1/GPa) = 0.00998933
#
# Stress axis : x y z
#
# Youngs Moduli (GPa) = 182.26431 179.95609 155.61226
#
# Poissons Ratio (x) = 0.24899 0.10491
# Poissons Ratio (y) = 0.25219 0.26179
# Poissons Ratio (z) = 0.12288 0.30275
#
# Static dielectric constant tensor:
#      x y z
#    x 1.971140 0.000000 0.000000 
#    y 0.000000 2.020940 0.000000 
#    z 0.000000 0.000000 1.934500 
# 
# From -- ./inp_files/6874.got.cif
#   From: 2010.05.17/outbox.cif.g08.bks.cpg/sg45_4_cif.got.tgz:6874.got - 2010.06.03 19:51:22.
