data_PCOD9377269
_publ_section_title
;
Structure prediction by ZEFSAII (Michael W. Deem and Ramdas Pophale) SiO2 
 PCOD9377269
Probable space group: I B A 2
;
_chemical_formula_sum "Si O2"
_cell_formula_units_Z 52
_cell_length_a 10.109556
_cell_length_b 10.216026
_cell_length_c 24.686499
_cell_angle_alpha 90.000000
_cell_angle_beta 90.000000
_cell_angle_gamma 90.000000
_cell_volume 2549.608951
_symmetry_space_group_name_H-M "I B A 2"
_symmetry_group_IT_number 45
_symmetry_cell_setting 'orthorhombic'
loop_
_space_group_symop_operation_xyz
x,y,z
-x,-y,z
-x,y,1/2+z
x,-y,1/2+z
1/2+x,1/2+y,1/2+z
1/2-x,1/2-y,1/2+z
1/2-x,1/2+y,z
1/2+x,1/2-y,z
loop_
_atom_site_type_symbol
_atom_site_label
_atom_site_fract_x
_atom_site_fract_y
_atom_site_fract_z
Si Si1 0.500000 0.000000 0.405241
Si Si2 0.017349 0.648664 0.510643
Si Si3 0.546312 0.640995 0.318640
Si Si4 0.255086 0.026314 0.141206
Si Si5 0.000000 0.500000 0.718257
Si Si6 0.500000 0.500000 0.213748
Si Si7 0.354477 0.127430 0.820046
Si Si8 0.226983 0.772443 0.066382
O O1 0.504595 0.120659 0.447213
O O2 0.621238 0.011632 0.363519
O O3 0.164530 0.696693 0.521128
O O4 0.000000 0.500000 0.534919
O O5 0.915181 0.747374 0.538857
O O6 0.500000 0.500000 0.341871
O O7 0.524077 0.620718 0.254180
O O8 0.450492 0.754947 0.337149
O O9 0.701846 0.664815 0.323242
O O10 0.387198 0.052121 0.176877
O O11 0.128645 0.029338 0.179701
O O12 0.245705 0.887297 0.110427
O O13 0.241867 0.138000 0.096633
O O14 0.090403 0.583292 0.760997
#
# Coordination Sequence:
#
# PCOD9377269 Si02
#       8
#     4   8   8   8   4   4   8   8
#     4   9  24  47  78  96 132 185 232 285 382 406
#     4  10  23  50  69 102 135 173 232 305 351 417
#     4  10  25  42  64  99 143 182 236 281 337 406
#     4  12  24  37  67 101 141 193 235 274 353 420
#     4  11  24  39  64  98 148 199 222 279 340 416
#     4  10  24  38  54 100 136 186 236 274 324 420
#     4  11  24  44  70  98 146 185 234 292 341 426
#     4  12  24  45  71 102 141 182 236 296 351 416
#
# _framework density 20.395282999999999
#
# number of rings (size 3 to 8) (size 9 to 14) (size 15 to 20)
#    0.923    0.308    3.077    1.846   10.769    1.231 
#    0.000    0.000    0.000    0.000    0.000    0.000 
#    0.000    0.000    0.000    0.000    0.000    0.000 
#
# Total GULP energy -144876.726623 kJ/mol
# GULP energy per Si atom -5572.181793 kJ/mol
# Density = 2.034886 g / cm^3
# Si number density = 20.395283 Si / 1000 Ang^3
#
#
#
# Elastic Constant Matrix: (Units=GPa)
#
#
# Indices 1 2 3 4 5 6 
#
# 1 147.5807 26.0091 20.4424 0.0000 0.0000 0.0000
# 2 26.0091 63.7978 -3.5526 0.0000 0.0000 0.0000
# 3 20.4424 -3.5526 67.7047 0.0000 0.0000 0.0000
# 4 0.0000 0.0000 0.0000 26.5439 0.0000 0.0000
# 5 0.0000 0.0000 0.0000 0.0000 19.5553 0.0000
# 6 0.0000 0.0000 0.0000 0.0000 0.0000 214.8578
#
#
#
# Elastic Compliance Matrix: (Units=1/GPa)
#
#
# Indices 1 2 3 4 5 6 
#
# 1 0.007699 -0.003278 -0.002497 0.000000 0.000000 0.000000
# 2 -0.003278 0.017116 0.001888 0.000000 0.000000 0.000000
# 3 -0.002497 0.001888 0.015623 0.000000 0.000000 0.000000
# 4 0.000000 0.000000 0.000000 0.037673 0.000000 0.000000
# 5 0.000000 0.000000 0.000000 0.000000 0.051137 0.000000
# 6 0.000000 0.000000 0.000000 0.000000 0.000000 0.004654
#
#
# Mechanical properties :
#
#
# Convention : Reuss Voigt Hill
#
# Bulk Modulus (GPa) = 30.61409 40.54233 35.57821
# Shear Modulus (GPa) = 32.77291 67.93703 50.35497
#
# Velocity S-wave (km/s) = 4.01295 5.77776 4.97425
# Velocity P-wave (km/s) = 6.04273 8.02692 7.10444
#
# Compressibility (1/GPa) = 0.03266470
#
# Stress axis : x y z
#
# Youngs Moduli (GPa) = 129.87875 58.42487 64.00847
#
# Poissons Ratio (x) = 0.19151 0.15981
# Poissons Ratio (y) = 0.42574 -0.12084
# Poissons Ratio (z) = 0.32427 -0.11030
#
# Static dielectric constant tensor:
#      x y z
#    x 1.618680 0.000000 0.000000 
#    y 0.000000 1.792770 0.000000 
#    z 0.000000 0.000000 1.718190 
# 
# From -- ./inp_files/9948.got.cif
#   From: 2010.05.17/outbox.cif.g08.bks.cpg/sg45_5_cif.got.tgz:9948.got - 2010.06.03 19:51:22.
