data_PCOD9377538
_publ_section_title
;
Structure prediction by ZEFSAII (Michael W. Deem and Ramdas Pophale) SiO2 
 PCOD9377538
Probable space group: I B A 2
;
_chemical_formula_sum "Si O2"
_cell_formula_units_Z 48
_cell_length_a 19.989117
_cell_length_b 13.984695
_cell_length_c 7.740604
_cell_angle_alpha 90.000000
_cell_angle_beta 90.000000
_cell_angle_gamma 90.000000
_cell_volume 2163.821637
_symmetry_space_group_name_H-M "I B A 2"
_symmetry_group_IT_number 45
_symmetry_cell_setting 'orthorhombic'
loop_
_space_group_symop_operation_xyz
x,y,z
-x,-y,z
-x,y,1/2+z
x,-y,1/2+z
1/2+x,1/2+y,1/2+z
1/2-x,1/2-y,1/2+z
1/2-x,1/2+y,z
1/2+x,1/2-y,z
loop_
_atom_site_type_symbol
_atom_site_label
_atom_site_fract_x
_atom_site_fract_y
_atom_site_fract_z
Si Si1 0.430788 0.202748 0.362580
Si Si2 0.321021 0.347053 0.450278
Si Si3 0.696756 0.280599 0.345612
Si Si4 0.421804 0.145115 0.761050
Si Si5 0.350431 0.951720 0.736636
Si Si6 0.740297 0.452637 0.489586
O O1 0.391572 0.303335 0.385225
O O2 0.419993 0.154188 0.551798
O O3 0.508860 0.190722 0.323780
O O4 0.397091 0.139187 0.210474
O O5 0.312657 0.330265 0.657239
O O6 0.261298 0.286766 0.364900
O O7 0.303981 0.458888 0.421679
O O8 0.636170 0.207000 0.345296
O O9 0.693851 0.359492 0.499657
O O10 0.401229 0.034959 0.800081
O O11 0.295356 0.907177 0.863191
O O12 0.295614 0.003181 0.616875
#
# Coordination Sequence:
#
# PCOD9377538 Si02
#       6
#     8   8   8   8   8   8
#     4  11  25  42  61  93 130 173 211 266 327 397
#     4  11  22  40  63  91 127 163 217 269 323 385
#     4  11  23  40  63  92 127 164 215 272 318 392
#     4  11  25  41  61  92 132 170 214 261 332 392
#     4  12  22  40  65  96 127 162 210 271 327 388
#     4  12  22  39  65  96 124 162 211 267 328 376
#
# _framework density 22.182974000000002
#
# number of rings (size 3 to 8) (size 9 to 14) (size 15 to 20)
#    0.000    0.667    6.667    1.500    2.333    2.667 
#    0.000    0.833    0.000    4.000    0.000    0.000 
#    0.000    0.000    0.000    0.000    0.000    0.000 
#
# Total GULP energy -133628.634566 kJ/mol
# GULP energy per Si atom -5567.859774 kJ/mol
# Density = 2.213248 g / cm^3
# Si number density = 22.182974 Si / 1000 Ang^3
#
#
#
# Elastic Constant Matrix: (Units=GPa)
#
#
# Indices 1 2 3 4 5 6 
#
# 1 105.5179 42.9184 21.0373 0.0000 0.0000 0.0000
# 2 42.9184 120.9458 24.0826 0.0000 0.0000 0.0000
# 3 21.0373 24.0826 42.2333 0.0000 0.0000 0.0000
# 4 0.0000 0.0000 0.0000 25.5306 0.0000 0.0000
# 5 0.0000 0.0000 0.0000 0.0000 33.4278 0.0000
# 6 0.0000 0.0000 0.0000 0.0000 0.0000 31.4925
#
#
#
# Elastic Compliance Matrix: (Units=1/GPa)
#
#
# Indices 1 2 3 4 5 6 
#
# 1 0.011612 -0.003349 -0.003874 0.000000 0.000000 0.000000
# 2 -0.003349 0.010293 -0.004201 0.000000 0.000000 0.000000
# 3 -0.003874 -0.004201 0.028003 0.000000 0.000000 0.000000
# 4 0.000000 0.000000 0.000000 0.039169 0.000000 0.000000
# 5 0.000000 0.000000 0.000000 0.000000 0.029915 0.000000
# 6 0.000000 0.000000 0.000000 0.000000 0.000000 0.031754
#
#
# Mechanical properties :
#
#
# Convention : Reuss Voigt Hill
#
# Bulk Modulus (GPa) = 36.95599 49.41929 43.18764
# Shear Modulus (GPa) = 27.38007 30.13410 28.75709
#
# Velocity S-wave (km/s) = 3.51705 3.68969 3.60440
# Velocity P-wave (km/s) = 5.76096 6.36225 6.06905
#
# Compressibility (1/GPa) = 0.02705921
#
# Stress axis : x y z
#
# Youngs Moduli (GPa) = 86.12022 97.15224 35.70983
#
# Poissons Ratio (x) = 0.32537 0.13835
# Poissons Ratio (y) = 0.28842 0.15002
# Poissons Ratio (z) = 0.33366 0.40816
#
# Static dielectric constant tensor:
#      x y z
#    x 1.864180 0.000000 0.000000 
#    y 0.000000 1.580100 0.000000 
#    z 0.000000 0.000000 2.073040 
# 
# From -- ./inp_files/1713.got.cif
#   From: 2010.05.17/outbox.cif.g08.bks.cpg/sg45_1_cif.got.tgz:1713.got - 2010.06.03 19:51:22.
