data_PCOD9377425
_publ_section_title
;
Structure prediction by ZEFSAII (Michael W. Deem and Ramdas Pophale) SiO2 
 PCOD9377425
Probable space group: I B A 2
;
_chemical_formula_sum "Si O2"
_cell_formula_units_Z 40
_cell_length_a 19.425357
_cell_length_b 9.227151
_cell_length_c 8.793689
_cell_angle_alpha 90.000000
_cell_angle_beta 90.000000
_cell_angle_gamma 90.000000
_cell_volume 1576.186992
_symmetry_space_group_name_H-M "I B A 2"
_symmetry_group_IT_number 45
_symmetry_cell_setting 'orthorhombic'
loop_
_space_group_symop_operation_xyz
x,y,z
-x,-y,z
-x,y,1/2+z
x,-y,1/2+z
1/2+x,1/2+y,1/2+z
1/2-x,1/2-y,1/2+z
1/2-x,1/2+y,z
1/2+x,1/2-y,z
loop_
_atom_site_type_symbol
_atom_site_label
_atom_site_fract_x
_atom_site_fract_y
_atom_site_fract_z
Si Si1 0.982659 0.347140 0.062830
Si Si2 0.133446 0.368627 0.791229
Si Si3 0.677922 0.571279 0.269653
Si Si4 0.223541 0.488320 0.531406
Si Si5 0.554754 0.363078 0.289134
O O1 0.932845 0.407740 0.195580
O O2 0.000000 0.500000 0.983636
O O3 0.037458 0.245057 0.149741
O O4 0.949644 0.236028 0.940801
O O5 0.125186 0.198000 0.806048
O O6 0.195600 0.398280 0.673031
O O7 0.159143 0.436867 0.947618
O O8 0.735886 0.590527 0.397930
O O9 0.631746 0.427421 0.272633
O O10 0.717343 0.585310 0.109813
O O11 0.500000 0.500000 0.291546
#
# Coordination Sequence:
#
# PCOD9377425 Si02
#       5
#     8   8   8   8   8
#     4  12  29  49  75 113 156 211 263 325 395 471
#     4  11  24  46  72 105 154 195 255 315 391 466
#     4  11  23  46  75 109 147 192 259 321 387 467
#     4  10  25  44  71 112 146 198 249 321 397 466
#     4  12  27  48  79 113 151 207 267 328 389 464
#
# _framework density 25.377697999999999
#
# number of rings (size 3 to 8) (size 9 to 14) (size 15 to 20)
#    0.000    0.800    2.000    3.600    8.400    1.600 
#    7.200    0.000    0.000    0.000    0.000    0.000 
#    0.000    0.000    0.000    0.000    0.000    0.000 
#
# Total GULP energy -111750.773686 kJ/mol
# GULP energy per Si atom -5587.538684 kJ/mol
# Density = 2.531994 g / cm^3
# Si number density = 25.377698 Si / 1000 Ang^3
#
#
#
# Elastic Constant Matrix: (Units=GPa)
#
#
# Indices 1 2 3 4 5 6 
#
# 1 92.8795 27.5517 31.9854 0.0000 0.0000 0.0000
# 2 27.5517 119.6534 32.5362 0.0000 0.0000 0.0000
# 3 31.9854 32.5362 131.6137 0.0000 0.0000 0.0000
# 4 0.0000 0.0000 0.0000 25.0827 0.0000 0.0000
# 5 0.0000 0.0000 0.0000 0.0000 41.2791 0.0000
# 6 0.0000 0.0000 0.0000 0.0000 0.0000 39.9368
#
#
#
# Elastic Compliance Matrix: (Units=1/GPa)
#
#
# Indices 1 2 3 4 5 6 
#
# 1 0.012248 -0.002156 -0.002444 0.000000 0.000000 0.000000
# 2 -0.002156 0.009339 -0.001785 0.000000 0.000000 0.000000
# 3 -0.002444 -0.001785 0.008633 0.000000 0.000000 0.000000
# 4 0.000000 0.000000 0.000000 0.039868 0.000000 0.000000
# 5 0.000000 0.000000 0.000000 0.000000 0.024225 0.000000
# 6 0.000000 0.000000 0.000000 0.000000 0.000000 0.025040
#
#
# Mechanical properties :
#
#
# Convention : Reuss Voigt Hill
#
# Bulk Modulus (GPa) = 57.30122 58.69923 58.00023
# Shear Modulus (GPa) = 36.24807 38.06460 37.15634
#
# Velocity S-wave (km/s) = 3.78344 3.87709 3.83055
# Velocity P-wave (km/s) = 6.45866 6.57441 6.51679
#
# Compressibility (1/GPa) = 0.01745163
#
# Stress axis : x y z
#
# Youngs Moduli (GPa) = 81.64856 107.07571 115.83372
#
# Poissons Ratio (x) = 0.23082 0.28305
# Poissons Ratio (y) = 0.17601 0.20675
# Poissons Ratio (z) = 0.19951 0.19111
#
# Static dielectric constant tensor:
#      x y z
#    x 2.139480 0.000000 0.000000 
#    y 0.000000 2.039100 0.000000 
#    z 0.000000 0.000000 1.984490 
# 
# From -- ./inp_files/965.got.cif
#   From: 2010.05.17/outbox.cif.g08.bks.cpg/sg45_1_cif.got.tgz:965.got - 2010.06.03 19:51:22.
