data_PCOD9377103
_publ_section_title
;
Structure prediction by ZEFSAII (Michael W. Deem and Ramdas Pophale) SiO2 
 PCOD9377103
Probable space group: I B A 2
;
_chemical_formula_sum "Si O2"
_cell_formula_units_Z 48
_cell_length_a 12.416583
_cell_length_b 13.203867
_cell_length_c 13.796572
_cell_angle_alpha 90.000000
_cell_angle_beta 90.000000
_cell_angle_gamma 90.000000
_cell_volume 2261.905355
_symmetry_space_group_name_H-M "I B A 2"
_symmetry_group_IT_number 45
_symmetry_cell_setting 'orthorhombic'
loop_
_space_group_symop_operation_xyz
x,y,z
-x,-y,z
-x,y,1/2+z
x,-y,1/2+z
1/2+x,1/2+y,1/2+z
1/2-x,1/2-y,1/2+z
1/2-x,1/2+y,z
1/2+x,1/2-y,z
loop_
_atom_site_type_symbol
_atom_site_label
_atom_site_fract_x
_atom_site_fract_y
_atom_site_fract_z
Si Si1 0.089641 0.424507 0.522870
Si Si2 0.223793 0.081884 0.506815
Si Si3 0.410359 0.424507 0.268656
Si Si4 0.674865 0.750000 0.145763
Si Si5 0.276206 0.081884 0.284712
Si Si6 0.500000 0.000000 0.333755
Si Si7 0.000000 0.000000 0.457772
O O1 0.201422 0.485651 0.527916
O O2 0.103202 0.318676 0.574630
O O3 0.053673 0.420017 0.409951
O O4 0.000000 0.500000 0.566408
O O5 0.243215 0.173379 0.579923
O O6 0.250000 0.111508 0.395763
O O7 0.098590 0.050522 0.513101
O O8 0.500000 0.500000 0.225118
O O9 0.396798 0.318676 0.216896
O O10 0.298578 0.485651 0.263610
O O11 0.446327 0.420017 0.381575
O O12 0.743215 0.826621 0.211604
O O13 0.401410 0.050522 0.278425
#
# Coordination Sequence:
#
# PCOD9377103 Si02
#       7
#     8   8   8   8   8   4   4
#     4   9  22  43  60  94 129 164 213 259 312 377
#     4  10  22  44  63  95 130 169 210 264 315 375
#     4   9  22  43  60  94 129 164 213 259 312 377
#     4  12  24  38  70  98 120 178 210 260 326 368
#     4  10  22  44  63  95 130 169 210 264 315 375
#     4   8  20  42  66  86 138 166 202 270 310 372
#     4   8  20  42  66  86 138 166 202 270 310 372
#
# _framework density 21.221046000000001
#
# number of rings (size 3 to 8) (size 9 to 14) (size 15 to 20)
#    1.000    1.333    0.000    1.000    2.333    6.667 
#    6.000    0.000    0.000    0.000    0.000    0.000 
#    0.000    0.000    0.000    0.000    0.000    0.000 
#
# Total GULP energy -133896.728664 kJ/mol
# GULP energy per Si atom -5579.030361 kJ/mol
# Density = 2.117275 g / cm^3
# Si number density = 21.221046 Si / 1000 Ang^3
#
#
#
# Elastic Constant Matrix: (Units=GPa)
#
#
# Indices 1 2 3 4 5 6 
#
# 1 115.5133 34.7838 15.5094 0.0000 0.0000 0.0000
# 2 34.7838 84.1693 33.1161 0.0000 0.0000 0.0000
# 3 15.5094 33.1161 65.9587 0.0000 0.0000 0.0000
# 4 0.0000 0.0000 0.0000 -0.2609 0.0000 0.0000
# 5 0.0000 0.0000 0.0000 0.0000 35.3325 0.0000
# 6 0.0000 0.0000 0.0000 0.0000 0.0000 17.5949
#
#
#
# Elastic Compliance Matrix: (Units=1/GPa)
#
#
# Indices 1 2 3 4 5 6 
#
# 1 0.009894 -0.003954 -0.000341 0.000000 0.000000 0.000000
# 2 -0.003954 0.016386 -0.007297 0.000000 0.000000 0.000000
# 3 -0.000341 -0.007297 0.018905 0.000000 0.000000 0.000000
# 4 0.000000 0.000000 0.000000 -3.832955 0.000001 0.000000
# 5 0.000000 0.000000 0.000000 0.000001 0.028303 0.000000
# 6 0.000000 0.000000 0.000000 0.000000 0.000000 0.056835
#
#
# Mechanical properties :
#
#
# Convention : Reuss Voigt Hill
#
# Bulk Modulus (GPa) = 45.45577 48.05110 46.75344
# Shear Modulus (GPa) = -1.36161 22.68211 10.66025
#
# Velocity S-wave (km/s) = -0.80189 3.27287 2.24373
# Velocity P-wave (km/s) = 4.53974 6.08067 5.36581
#
# Compressibility (1/GPa) = 0.02199941
#
# Stress axis : x y z
#
# Youngs Moduli (GPa) = 101.07571 61.02735 52.89646
#
# Poissons Ratio (x) = 0.24133 0.01803
# Poissons Ratio (y) = 0.39970 0.38599
# Poissons Ratio (z) = 0.03446 0.44533
#
# Static dielectric constant tensor:
#      x y z
#    x 1.756910 0.000000 0.000000 
#    y 0.000000 1.717860 0.000000 
#    z 0.000000 0.000000 1.843050 
# 
# From -- ./inp_files/6504.got.cif
#   From: 2010.05.17/outbox.cif.g08.bks.cpg/sg45_4_cif.got.tgz:6504.got - 2010.06.03 19:51:22.
