data_PCOD9377939
_publ_section_title
;
Structure prediction by ZEFSAII (Michael W. Deem and Ramdas Pophale) SiO2 
 PCOD9377939
Probable space group: I M A 2
;
_chemical_formula_sum "Si O2"
_cell_formula_units_Z 64
_cell_length_a 8.718905
_cell_length_b 27.063375
_cell_length_c 19.121202
_cell_angle_alpha 90.000000
_cell_angle_beta 90.000000
_cell_angle_gamma 90.000000
_cell_volume 4511.896103
_symmetry_space_group_name_H-M "I M A 2"
_symmetry_group_IT_number 46
_symmetry_cell_setting 'orthorhombic'
loop_
_space_group_symop_operation_xyz
x,y,z
-x,-y,z
1/2-x,y,z
1/2+x,-y,z
1/2+x,1/2+y,1/2+z
1/2-x,1/2-y,1/2+z
-x,1/2+y,1/2+z
x,1/2-y,1/2+z
loop_
_atom_site_type_symbol
_atom_site_label
_atom_site_fract_x
_atom_site_fract_y
_atom_site_fract_z
Si Si1 0.435824 0.243965 0.565930
Si Si2 0.566179 0.856965 0.327724
Si Si3 0.568398 0.298654 0.280677
Si Si4 0.934835 0.704043 0.700024
Si Si5 0.932431 0.053574 0.412220
Si Si6 0.934870 0.852099 0.655807
Si Si7 0.434362 0.053671 0.565698
Si Si8 0.934936 0.754157 0.406777
O O1 0.250000 0.242104 0.562039
O O2 0.475347 0.288845 0.618727
O O3 0.483442 0.193001 0.604243
O O4 0.490802 0.248142 0.486653
O O5 0.750000 0.864201 0.333539
O O6 0.528564 0.843529 0.246993
O O7 0.481880 0.904078 0.358607
O O8 0.527252 0.807776 0.373040
O O9 0.750000 0.301662 0.283586
O O10 0.514475 0.249756 0.238759
O O11 0.502345 0.342362 0.232544
O O12 0.501318 0.288798 0.357556
O O13 0.750000 0.711060 0.706090
O O14 0.750000 0.050102 0.417766
O O15 0.001915 0.065985 0.488582
O O16 0.000000 0.000000 0.392645
O O17 0.750000 0.849723 0.660600
O O18 0.978070 0.903582 0.620003
O O19 0.250000 0.051422 0.561718
O O20 0.500000 0.000000 0.584678
O O21 0.750000 0.750589 0.405159
#
# Coordination Sequence:
#
# PCOD9377939 Si02
#       8
#     8   8   8   8   8   8   8   8
#     4   8  13  24  43  62  77 102 141 171 191 229
#     4   9  16  27  42  59  81 110 141 171 204 240
#     4  10  18  26  38  58  83 107 135 171 204 235
#     4   8  15  28  43  58  79 107 137 167 201 243
#     4  11  21  31  43  59  82 109 139 174 208 243
#     4   9  17  30  45  58  77 109 143 169 200 243
#     4  10  19  31  46  62  82 107 137 173 209 245
#     4   9  16  27  43  60  82 111 139 166 198 242
#
# _framework density 14.184723999999999
#
# number of rings (size 3 to 8) (size 9 to 14) (size 15 to 20)
#    0.000    2.750    0.000    5.625    0.000    5.000 
#    0.000    2.500    0.000    0.000    0.000    0.000 
#    0.000    1.000    0.000    6.250    0.000    3.875 
#
# Total GULP energy -178169.377571 kJ/mol
# GULP energy per Si atom -5567.793049 kJ/mol
# Density = 1.415244 g / cm^3
# Si number density = 14.184724 Si / 1000 Ang^3
#
#
#
# Elastic Constant Matrix: (Units=GPa)
#
#
# Indices 1 2 3 4 5 6 
#
# 1 34.0213 29.7894 26.2229 0.0000 0.0000 0.0000
# 2 29.7894 76.3269 51.7877 0.0000 0.0000 0.0000
# 3 26.2229 51.7877 111.0749 0.0001 0.0000 0.0000
# 4 0.0000 0.0000 0.0001 26.2886 0.0000 0.0000
# 5 0.0000 0.0000 0.0000 0.0000 11.6967 0.0000
# 6 0.0000 0.0000 0.0000 0.0000 0.0000 18.9400
#
#
#
# Elastic Compliance Matrix: (Units=1/GPa)
#
#
# Indices 1 2 3 4 5 6 
#
# 1 0.045622 -0.015355 -0.003611 0.000000 0.000000 0.000000
# 2 -0.015355 0.024332 -0.007720 0.000000 0.000000 0.000000
# 3 -0.003611 -0.007720 0.013455 0.000000 0.000000 0.000000
# 4 0.000000 0.000000 0.000000 0.038039 0.000000 0.000000
# 5 0.000000 0.000000 0.000000 0.000000 0.085494 0.000000
# 6 0.000000 0.000000 0.000000 0.000000 0.000000 0.052798
#
#
# Mechanical properties :
#
#
# Convention : Reuss Voigt Hill
#
# Bulk Modulus (GPa) = 33.29279 48.55812 40.92545
# Shear Modulus (GPa) = 15.47385 18.95993 17.21689
#
# Velocity S-wave (km/s) = 3.30643 3.65998 3.48769
# Velocity P-wave (km/s) = 6.17240 7.22272 6.71811
#
# Compressibility (1/GPa) = 0.03003654
#
# Stress axis : x y z
#
# Youngs Moduli (GPa) = 21.91916 41.09763 74.32358
#
# Poissons Ratio (x) = 0.63107 0.26840
# Poissons Ratio (y) = 0.33658 0.57375
# Poissons Ratio (z) = 0.07916 0.31726
#
# Static dielectric constant tensor:
#      x y z
#    x 1.474200 0.000000 0.000000 
#    y 0.000000 1.455950 0.000000 
#    z 0.000000 0.000000 1.491310 
# 
# From -- ./inp_files/18678.got.cif
#   From: 2010.05.17/outbox.cif.g08.bks.cpg/sg46_10_cif.got.tgz:18678.got - 2010.06.03 19:58:25.
