data_PCOD9377238
_publ_section_title
;
Structure prediction by ZEFSAII (Michael W. Deem and Ramdas Pophale) SiO2 
 PCOD9377238
Probable space group: I B A 2
;
_chemical_formula_sum "Si O2"
_cell_formula_units_Z 60
_cell_length_a 17.342009
_cell_length_b 18.351459
_cell_length_c 7.755065
_cell_angle_alpha 90.000000
_cell_angle_beta 90.000000
_cell_angle_gamma 90.000000
_cell_volume 2468.058488
_symmetry_space_group_name_H-M "I B A 2"
_symmetry_group_IT_number 45
_symmetry_cell_setting 'orthorhombic'
loop_
_space_group_symop_operation_xyz
x,y,z
-x,-y,z
-x,y,1/2+z
x,-y,1/2+z
1/2+x,1/2+y,1/2+z
1/2-x,1/2-y,1/2+z
1/2-x,1/2+y,z
1/2+x,1/2-y,z
loop_
_atom_site_type_symbol
_atom_site_label
_atom_site_fract_x
_atom_site_fract_y
_atom_site_fract_z
Si Si1 0.652714 0.574273 0.149160
Si Si2 0.000000 0.000000 0.550268
Si Si3 0.976807 0.299244 0.521209
Si Si4 0.914313 0.143340 0.466491
Si Si5 0.317009 0.040294 0.701399
Si Si6 0.373487 0.818314 0.363787
Si Si7 0.858336 0.394412 0.330069
Si Si8 0.693138 0.336610 0.303011
O O1 0.578526 0.523160 0.142785
O O2 0.637635 0.634064 0.296822
O O3 0.725770 0.525656 0.205263
O O4 0.667248 0.613708 0.966188
O O5 0.973122 0.075500 0.464615
O O6 0.964701 0.216076 0.464142
O O7 0.929842 0.308740 0.697629
O O8 0.932941 0.349900 0.383870
O O9 0.067142 0.316866 0.521675
O O10 0.860384 0.146841 0.636710
O O11 0.333875 0.103901 0.838792
O O12 0.331277 0.074484 0.516056
O O13 0.367227 0.968335 0.722932
O O14 0.319114 0.747944 0.357082
O O15 0.783576 0.350095 0.264789
#
# Coordination Sequence:
#
# PCOD9377238 Si02
#       8
#     8   4   8   8   8   8   8   8
#     4  11  26  42  66 100 137 184 228 273 343 415
#     4  12  26  40  66 102 144 178 218 280 334 410
#     4  10  24  44  67  97 134 177 232 289 351 417
#     4  11  26  42  66 100 137 184 228 273 343 415
#     4  10  24  44  67  97 134 177 232 289 351 417
#     4  10  23  45  67  99 135 175 232 290 348 422
#     4  10  23  45  67  99 135 175 232 290 348 422
#     4  10  24  45  68  96 140 179 224 282 334 424
#
# _framework density 24.310607999999998
#
# number of rings (size 3 to 8) (size 9 to 14) (size 15 to 20)
#    0.000    1.600    0.000    2.000   16.800    1.600 
#    0.000    2.667    0.000    0.000    0.000    0.000 
#    0.000    0.000    0.000    0.000    0.000    0.000 
#
# Total GULP energy -167908.176588 kJ/mol
# GULP energy per Si atom -5596.939220 kJ/mol
# Density = 2.425528 g / cm^3
# Si number density = 24.310608 Si / 1000 Ang^3
#
#
#
# Elastic Constant Matrix: (Units=GPa)
#
#
# Indices 1 2 3 4 5 6 
#
# 1 81.9126 39.7018 -8.9602 0.0000 0.0000 0.0000
# 2 39.7018 123.2765 2.5517 0.0000 0.0000 0.0000
# 3 -8.9602 2.5517 67.2477 0.0000 0.0000 0.0000
# 4 0.0000 0.0000 0.0000 10.1589 0.0000 0.0000
# 5 0.0000 0.0000 0.0000 0.0000 20.7050 0.0000
# 6 0.0000 0.0000 0.0000 0.0000 0.0000 42.3423
#
#
#
# Elastic Compliance Matrix: (Units=1/GPa)
#
#
# Indices 1 2 3 4 5 6 
#
# 1 0.014771 -0.004801 0.002150 0.000000 0.000000 0.000000
# 2 -0.004801 0.009679 -0.001007 0.000000 0.000000 0.000000
# 3 0.002150 -0.001007 0.015195 0.000000 0.000000 0.000000
# 4 0.000000 0.000000 0.000000 0.098436 0.000000 0.000000
# 5 0.000000 0.000000 0.000000 0.000000 0.048298 0.000000
# 6 0.000000 0.000000 0.000000 0.000000 0.000000 0.023617
#
#
# Mechanical properties :
#
#
# Convention : Reuss Voigt Hill
#
# Bulk Modulus (GPa) = 30.93271 37.66928 34.30099
# Shear Modulus (GPa) = 21.92140 30.58413 26.25276
#
# Velocity S-wave (km/s) = 3.00613 3.55076 3.28973
# Velocity P-wave (km/s) = 4.98002 5.68675 5.34508
#
# Compressibility (1/GPa) = 0.03232824
#
# Stress axis : x y z
#
# Youngs Moduli (GPa) = 67.70241 103.31633 65.81061
#
# Poissons Ratio (x) = 0.49607 -0.14151
# Poissons Ratio (y) = 0.32507 0.06627
# Poissons Ratio (z) = -0.14558 0.10404
#
# Static dielectric constant tensor:
#      x y z
#    x 1.924670 0.000000 0.000000 
#    y 0.000000 1.911510 0.000000 
#    z 0.000000 0.000000 2.027710 
# 
# From -- ./inp_files/2166.got.cif
#   From: 2010.05.17/outbox.cif.g08.bks.cpg/sg45_2_cif.got.tgz:2166.got - 2010.06.03 19:51:22.
