data_PCOD9377785
_publ_section_title
;
Structure prediction by ZEFSAII (Michael W. Deem and Ramdas Pophale) SiO2 
 PCOD9377785
Probable space group: I M A 2
;
_chemical_formula_sum "Si O2"
_cell_formula_units_Z 64
_cell_length_a 14.383378
_cell_length_b 13.009483
_cell_length_c 19.018024
_cell_angle_alpha 90.000000
_cell_angle_beta 90.000000
_cell_angle_gamma 90.000000
_cell_volume 3558.658576
_symmetry_space_group_name_H-M "I M A 2"
_symmetry_group_IT_number 46
_symmetry_cell_setting 'orthorhombic'
loop_
_space_group_symop_operation_xyz
x,y,z
-x,-y,z
1/2-x,y,z
1/2+x,-y,z
1/2+x,1/2+y,1/2+z
1/2-x,1/2-y,1/2+z
-x,1/2+y,1/2+z
x,1/2-y,1/2+z
loop_
_atom_site_type_symbol
_atom_site_label
_atom_site_fract_x
_atom_site_fract_y
_atom_site_fract_z
Si Si1 0.505572 0.877489 0.419480
Si Si2 0.640323 0.398729 0.490684
Si Si3 0.146672 0.406613 0.563898
Si Si4 0.462449 0.750156 0.719253
Si Si5 0.008397 0.762128 0.564610
Si Si6 0.859847 0.224418 0.851641
Si Si7 0.892026 0.025947 0.204036
Si Si8 0.642740 0.658677 0.797947
O O1 0.505690 0.840346 0.500337
O O2 0.417759 0.822987 0.380730
O O3 0.595868 0.840867 0.375014
O O4 0.500000 0.000000 0.414595
O O5 0.750000 0.396181 0.506966
O O6 0.609247 0.514781 0.505419
O O7 0.587900 0.317429 0.539605
O O8 0.628260 0.361161 0.411574
O O9 0.250000 0.372387 0.545998
O O10 0.150026 0.476933 0.633914
O O11 0.081194 0.310319 0.573483
O O12 0.469639 0.801204 0.642874
O O13 0.410257 0.810485 0.780535
O O14 0.396240 0.648107 0.711383
O O15 0.565227 0.715589 0.748170
O O16 0.750000 0.245421 0.843316
O O17 0.856370 0.959051 0.269269
O O18 0.000000 0.000000 0.197459
O O19 0.750000 0.696042 0.795198
#
# Coordination Sequence:
#
# PCOD9377785 Si02
#       8
#     8   8   8   8   8   8   8   8
#     4  10  22  37  53  73 101 143 184 222 258 309
#     4   9  18  32  51  75 106 141 172 207 261 321
#     4  11  19  29  50  80 111 140 168 207 268 326
#     4  10  19  30  49  78 106 135 173 216 262 317
#     4  11  20  34  52  74 109 138 174 223 262 315
#     4   9  19  35  54  77 105 137 172 215 268 317
#     4  10  16  27  46  73 106 133 163 204 264 312
#     4  10  19  32  51  76 106 137 169 212 267 321
#
# _framework density 17.984304000000002
#
# number of rings (size 3 to 8) (size 9 to 14) (size 15 to 20)
#    0.000    2.000    3.750    2.625    0.000    3.500 
#    0.000    0.000    0.000    4.500    0.000    0.000 
#    0.000    0.000    0.000    0.000    0.000    0.000 
#
# Total GULP energy -178278.091030 kJ/mol
# GULP energy per Si atom -5571.190345 kJ/mol
# Density = 1.794337 g / cm^3
# Si number density = 17.984304 Si / 1000 Ang^3
#
#
#
# Elastic Constant Matrix: (Units=GPa)
#
#
# Indices 1 2 3 4 5 6 
#
# 1 98.4991 5.3086 44.8294 0.0000 0.0000 0.0000
# 2 5.3086 15.9164 16.4918 0.0000 0.0000 0.0000
# 3 44.8294 16.4918 139.1977 0.0000 0.0000 0.0000
# 4 0.0000 0.0000 0.0000 20.2901 0.0000 0.0000
# 5 0.0000 0.0000 0.0000 0.0000 7.6540 0.0000
# 6 0.0000 0.0000 0.0000 0.0000 0.0000 12.0565
#
#
#
# Elastic Compliance Matrix: (Units=1/GPa)
#
#
# Indices 1 2 3 4 5 6 
#
# 1 0.011896 0.000002 -0.003831 0.000000 0.000000 0.000000
# 2 0.000002 0.071620 -0.008486 0.000000 0.000000 0.000000
# 3 -0.003831 -0.008486 0.009423 0.000000 0.000000 0.000000
# 4 0.000000 0.000000 0.000000 0.049285 0.000000 0.000000
# 5 0.000000 0.000000 0.000000 0.000000 0.130650 0.000000
# 6 0.000000 0.000000 0.000000 0.000000 0.000000 0.082943
#
#
# Mechanical properties :
#
#
# Convention : Reuss Voigt Hill
#
# Bulk Modulus (GPa) = 14.63930 42.98586 28.81258
# Shear Modulus (GPa) = 12.40023 20.46568 16.43295
#
# Velocity S-wave (km/s) = 2.62869 3.37705 3.02609
# Velocity P-wave (km/s) = 4.16786 6.25777 5.31652
#
# Compressibility (1/GPa) = 0.06830929
#
# Stress axis : x y z
#
# Youngs Moduli (GPa) = 84.06152 13.96248 106.11888
#
# Poissons Ratio (x) = -0.00003 0.40659
# Poissons Ratio (y) = -0.00020 0.90054
# Poissons Ratio (z) = 0.32208 0.11849
#
# Static dielectric constant tensor:
#      x y z
#    x 1.640970 0.000000 0.000000 
#    y 0.000000 1.607680 0.000000 
#    z 0.000000 0.000000 1.669010 
# 
# From -- ./inp_files/19711.got.cif
#   From: 2010.05.17/outbox.cif.g08.bks.cpg/sg46_10_cif.got.tgz:19711.got - 2010.06.03 19:58:25.
