data_PCOD9377397
_publ_section_title
;
Structure prediction by ZEFSAII (Michael W. Deem and Ramdas Pophale) SiO2 
 PCOD9377397
Probable space group: I B A 2
;
_chemical_formula_sum "Si O2"
_cell_formula_units_Z 32
_cell_length_a 24.424983
_cell_length_b 5.273091
_cell_length_c 9.318644
_cell_angle_alpha 90.000000
_cell_angle_beta 90.000000
_cell_angle_gamma 90.000000
_cell_volume 1200.196227
_symmetry_space_group_name_H-M "I B A 2"
_symmetry_group_IT_number 45
_symmetry_cell_setting 'orthorhombic'
loop_
_space_group_symop_operation_xyz
x,y,z
-x,-y,z
-x,y,1/2+z
x,-y,1/2+z
1/2+x,1/2+y,1/2+z
1/2-x,1/2-y,1/2+z
1/2-x,1/2+y,z
1/2+x,1/2-y,z
loop_
_atom_site_type_symbol
_atom_site_label
_atom_site_fract_x
_atom_site_fract_y
_atom_site_fract_z
Si Si1 0.839097 0.661277 0.782010
Si Si2 0.000000 0.500000 0.881464
Si Si3 0.592685 0.832351 0.561401
Si Si4 0.000000 0.000000 0.691434
Si Si5 0.265776 0.507597 0.633867
O O1 0.879461 0.477279 0.693714
O O2 0.779937 0.525326 0.760198
O O3 0.824720 0.923101 0.696731
O O4 0.863671 0.720760 0.936021
O O5 0.948520 0.468590 0.985307
O O6 0.010747 0.248127 0.789226
O O7 0.553275 0.401657 0.104444
O O8 0.254938 0.252530 0.550532
#
# Coordination Sequence:
#
# PCOD9377397 Si02
#       5
#     8   4   8   4   8
#     4  10  24  48  82 119 165 223 266 348 425 506
#     4  12  28  56  74 120 166 212 292 356 404 518
#     4  12  26  53  83 119 165 226 280 345 437 488
#     4  12  28  56  78 120 166 216 290 358 410 514
#     4   8  20  48  69 120 160 202 275 331 405 516
#
# _framework density 26.662306999999998
#
# number of rings (size 3 to 8) (size 9 to 14) (size 15 to 20)
#    1.500    0.000    2.500    1.500    0.000    4.000 
#   13.500    0.000    0.000    0.000    0.000    0.000 
#    0.000    0.000    0.000    0.000    0.000    0.000 
#
# Total GULP energy -89418.133443 kJ/mol
# GULP energy per Si atom -5588.633340 kJ/mol
# Density = 2.660162 g / cm^3
# Si number density = 26.662307 Si / 1000 Ang^3
#
#
#
# Elastic Constant Matrix: (Units=GPa)
#
#
# Indices 1 2 3 4 5 6 
#
# 1 156.4589 33.7131 61.9889 0.0000 0.0000 0.0000
# 2 33.7131 191.0721 66.0178 0.0000 0.0000 0.0000
# 3 61.9889 66.0178 137.6074 0.0000 0.0000 0.0000
# 4 0.0000 0.0000 0.0000 36.1132 0.0000 0.0000
# 5 0.0000 0.0000 0.0000 0.0000 45.3053 0.0000
# 6 0.0000 0.0000 0.0000 0.0000 0.0000 59.8954
#
#
#
# Elastic Compliance Matrix: (Units=1/GPa)
#
#
# Indices 1 2 3 4 5 6 
#
# 1 0.007786 -0.000194 -0.003414 0.000000 0.000000 0.000000
# 2 -0.000194 0.006278 -0.002925 0.000000 0.000000 0.000000
# 3 -0.003414 -0.002925 0.010208 0.000000 0.000000 0.000000
# 4 0.000000 0.000000 0.000000 0.027691 0.000000 0.000000
# 5 0.000000 0.000000 0.000000 0.000000 0.022072 0.000000
# 6 0.000000 0.000000 0.000000 0.000000 0.000000 0.016696
#
#
# Mechanical properties :
#
#
# Convention : Reuss Voigt Hill
#
# Bulk Modulus (GPa) = 89.23364 89.84203 89.53783
# Shear Modulus (GPa) = 46.49728 49.82402 48.16065
#
# Velocity S-wave (km/s) = 4.18057 4.32754 4.25469
# Velocity P-wave (km/s) = 7.53947 7.66418 7.60208
#
# Compressibility (1/GPa) = 0.01120654
#
# Stress axis : x y z
#
# Youngs Moduli (GPa) = 128.43528 159.27687 97.96021
#
# Poissons Ratio (x) = 0.03092 0.33447
# Poissons Ratio (y) = 0.02493 0.28650
# Poissons Ratio (z) = 0.43852 0.46583
#
# Static dielectric constant tensor:
#      x y z
#    x 2.155420 0.000000 0.000000 
#    y 0.000000 2.272700 0.000000 
#    z 0.000000 0.000000 2.060640 
# 
# From -- ./inp_files/767.got.cif
#   From: 2010.05.17/outbox.cif.g08.bks.cpg/sg45_1_cif.got.tgz:767.got - 2010.06.03 19:51:22.
