data_PCOD9377549
_publ_section_title
;
Structure prediction by ZEFSAII (Michael W. Deem and Ramdas Pophale) SiO2 
 PCOD9377549
Probable space group: I B A 2
;
_chemical_formula_sum "Si O2"
_cell_formula_units_Z 56
_cell_length_a 17.001695
_cell_length_b 7.087608
_cell_length_c 19.333211
_cell_angle_alpha 90.000000
_cell_angle_beta 90.000000
_cell_angle_gamma 90.000000
_cell_volume 2329.678016
_symmetry_space_group_name_H-M "I B A 2"
_symmetry_group_IT_number 45
_symmetry_cell_setting 'orthorhombic'
loop_
_space_group_symop_operation_xyz
x,y,z
-x,-y,z
-x,y,1/2+z
x,-y,1/2+z
1/2+x,1/2+y,1/2+z
1/2-x,1/2-y,1/2+z
1/2-x,1/2+y,z
1/2+x,1/2-y,z
loop_
_atom_site_type_symbol
_atom_site_label
_atom_site_fract_x
_atom_site_fract_y
_atom_site_fract_z
Si Si1 0.089737 0.959339 0.300970
Si Si2 0.235186 0.160259 0.976853
Si Si3 0.359448 0.919449 0.757144
Si Si4 0.368307 0.728712 0.185909
Si Si5 0.805012 0.242742 0.119359
Si Si6 0.084549 0.917230 0.554729
Si Si7 0.233445 0.908480 0.873090
O O1 0.124764 0.033054 0.227802
O O2 0.141642 0.060962 0.358656
O O3 0.095123 0.734011 0.300989
O O4 0.000000 0.000000 0.306199
O O5 0.253538 0.165104 0.890784
O O6 0.248011 0.910692 0.959285
O O7 0.284276 0.152756 0.048026
O O8 0.141715 0.164948 0.995744
O O9 0.392042 0.126373 0.746186
O O10 0.351457 0.852738 0.678196
O O11 0.278261 0.919861 0.799769
O O12 0.280899 0.781568 0.157017
O O13 0.424570 0.726647 0.119167
O O14 0.858754 0.072270 0.091645
O O15 0.000000 0.000000 0.533851
#
# Coordination Sequence:
#
# PCOD9377549 Si02
#       7
#     8   8   8   8   8   8   8
#     4  12  26  44  68 106 150 185 238 309 371 425
#     4  11  24  42  70 101 137 191 248 297 356 447
#     4  12  24  42  75 104 140 191 242 299 360 445
#     4  11  22  41  69 102 142 182 244 291 361 444
#     4  11  22  42  70 103 139 191 244 304 356 438
#     4  11  24  44  71 107 147 188 244 311 376 430
#     4  12  23  45  69 103 136 192 248 295 357 445
#
# _framework density 24.037656999999999
#
# number of rings (size 3 to 8) (size 9 to 14) (size 15 to 20)
#    0.000    0.571    5.714    3.857    2.000    1.143 
#    0.000    0.000    0.000    0.000    0.000    0.000 
#    0.000    0.000    0.000    0.000    0.000    0.000 
#
# Total GULP energy -156027.983846 kJ/mol
# GULP energy per Si atom -5572.427995 kJ/mol
# Density = 2.398295 g / cm^3
# Si number density = 24.037657 Si / 1000 Ang^3
#
#
#
# Elastic Constant Matrix: (Units=GPa)
#
#
# Indices 1 2 3 4 5 6 
#
# 1 130.6814 20.7932 24.8390 0.0000 0.0000 0.0000
# 2 20.7932 78.5940 19.2203 0.0000 0.0000 0.0000
# 3 24.8390 19.2203 128.4863 0.0000 0.0000 0.0000
# 4 0.0000 0.0000 0.0000 55.0032 0.0000 0.0000
# 5 0.0000 0.0000 0.0000 0.0000 12.9095 0.0000
# 6 0.0000 0.0000 0.0000 0.0000 0.0000 24.4288
#
#
#
# Elastic Compliance Matrix: (Units=1/GPa)
#
#
# Indices 1 2 3 4 5 6 
#
# 1 0.008195 -0.001848 -0.001308 0.000000 0.000000 0.000000
# 2 -0.001848 0.013624 -0.001681 0.000000 0.000000 0.000000
# 3 -0.001308 -0.001681 0.008287 0.000000 0.000000 0.000000
# 4 0.000000 0.000000 0.000000 0.018181 0.000000 0.000000
# 5 0.000000 0.000000 0.000000 0.000000 0.077463 0.000000
# 6 0.000000 0.000000 0.000000 0.000000 0.000000 0.040935
#
#
# Mechanical properties :
#
#
# Convention : Reuss Voigt Hill
#
# Bulk Modulus (GPa) = 48.94213 51.94075 50.44144
# Shear Modulus (GPa) = 27.29731 36.66225 31.97978
#
# Velocity S-wave (km/s) = 3.37353 3.90962 3.65143
# Velocity P-wave (km/s) = 5.96482 6.48345 6.22954
#
# Compressibility (1/GPa) = 0.02043229
#
# Stress axis : x y z
#
# Youngs Moduli (GPa) = 122.02791 73.40197 120.66872
#
# Poissons Ratio (x) = 0.13567 0.15780
# Poissons Ratio (y) = 0.22554 0.20280
# Poissons Ratio (z) = 0.15958 0.12336
#
# Static dielectric constant tensor:
#      x y z
#    x 1.864040 0.000000 0.000000 
#    y 0.000000 2.689890 0.000000 
#    z 0.000000 0.000000 1.891870 
# 
# From -- ./inp_files/9188.got.cif
#   From: 2010.05.17/outbox.cif.g08.bks.cpg/sg45_5_cif.got.tgz:9188.got - 2010.06.03 19:51:22.
