data_PCOD9377748
_publ_section_title
;
Structure prediction by ZEFSAII (Michael W. Deem and Ramdas Pophale) SiO2 
 PCOD9377748
Probable space group: I B A 2
;
_chemical_formula_sum "Si O2"
_cell_formula_units_Z 32
_cell_length_a 30.000000
_cell_length_b 12.000000
_cell_length_c 9.000000
_cell_angle_alpha 90.000000
_cell_angle_beta 90.000000
_cell_angle_gamma 90.000000
_cell_volume 3240.000000
_symmetry_space_group_name_H-M "I B A 2"
_symmetry_group_IT_number 45
_symmetry_cell_setting 'orthorhombic'
loop_
_space_group_symop_operation_xyz
x,y,z
-x,-y,z
-x,y,1/2+z
x,-y,1/2+z
1/2+x,1/2+y,1/2+z
1/2-x,1/2-y,1/2+z
1/2-x,1/2+y,z
1/2+x,1/2-y,z
loop_
_atom_site_type_symbol
_atom_site_label
_atom_site_fract_x
_atom_site_fract_y
_atom_site_fract_z
Si Si1 0.267110 0.864462 0.145840
Si Si2 0.886831 0.701231 0.525551
Si Si3 0.173272 0.906234 0.014190
Si Si4 0.675549 0.349748 0.156664
Si Si5 0.111428 0.331222 0.002355
Si Si6 0.319524 0.985562 0.419818
Si Si7 0.556590 0.111219 0.271098
Si Si8 0.044975 0.357393 0.781373
O O1 0.282564 0.735296 0.138314
O O2 0.292829 0.923262 0.286194
O O3 0.214452 0.864793 0.117644
O O4 0.283811 0.945669 0.014211
O O5 0.867526 0.823884 0.555766
O O6 0.846091 0.613046 0.505205
O O7 0.914409 0.691286 0.373472
O O8 0.923575 0.663232 0.642317
O O9 0.176431 0.884779 0.833307
O O10 0.171799 0.037151 0.059188
O O11 0.638049 0.265488 0.088657
O O12 0.143313 0.413585 0.903576
O O13 0.069776 0.286544 0.907684
O O14 0.087519 0.404152 0.128007
O O15 0.507004 0.159187 0.247176
O O16 0.549380 0.986666 0.332618
#
# Coordination Sequence:
#
# PCOD9377748 Si02
#       8
#     8   8   8   8   8   8   8   8
#     4  11  25  44  68  98 137 175 229 291 347 408
#     4  12  22  40  66  98 139 182 224 284 351 414
#     4  12  27  46  69  92 136 184 245 287 341 414
#     4  11  27  47  66  97 130 187 232 290 343 411
#     4  11  21  41  67  97 144 180 221 279 350 425
#     4  11  20  41  67  99 138 178 217 274 350 419
#     4  11  20  39  64 103 149 174 222 285 354 430
#     4  11  22  34  66 110 138 179 224 280 360 432
#
# _framework density 9.8765429999999999
#
# number of rings (size 3 to 8) (size 9 to 14) (size 15 to 20)
#    0.000    0.750    5.000    3.000    3.500    3.000 
#    2.250    0.000    0.000    4.500    0.000    0.000 
#    0.000    0.000    0.000    0.000    0.000    0.000 
#
# Total GULP energy -178242.795426 kJ/mol
# GULP energy per Si atom -5570.087357 kJ/mol
# Density = 0.985406 g / cm^3
# Si number density = 9.876543 Si / 1000 Ang^3
#
#
#
# Elastic Constant Matrix: (Units=GPa)
#
#
# Indices 1 2 3 4 5 6 
#
# 1 115.8258 40.6514 41.7046 0.0000 0.0000 0.0000
# 2 40.6514 129.1406 31.3958 0.0000 0.0000 0.0000
# 3 41.7046 31.3958 71.7843 0.0000 0.0000 0.0000
# 4 0.0000 0.0000 0.0000 34.0964 0.0000 0.0000
# 5 0.0000 0.0000 0.0000 0.0000 17.6922 0.0000
# 6 0.0000 0.0000 0.0000 0.0000 0.0000 20.8982
#
#
#
# Elastic Compliance Matrix: (Units=1/GPa)
#
#
# Indices 1 2 3 4 5 6 
#
# 1 0.011462 -0.002226 -0.005686 0.000000 0.000000 0.000000
# 2 -0.002226 0.009097 -0.002686 0.000000 0.000000 0.000000
# 3 -0.005686 -0.002686 0.018408 0.000000 0.000000 0.000000
# 4 0.000000 0.000000 0.000000 0.029329 0.000000 0.000000
# 5 0.000000 0.000000 0.000000 0.000000 0.056522 0.000000
# 6 0.000000 0.000000 0.000000 0.000000 0.000000 0.047851
#
#
# Mechanical properties :
#
#
# Convention : Reuss Voigt Hill
#
# Bulk Modulus (GPa) = 56.26377 60.47272 58.36825
# Shear Modulus (GPa) = 25.02657 28.07063 26.54860
#
# Velocity S-wave (km/s) = 3.56331 3.77381 3.67007
# Velocity P-wave (km/s) = 6.74351 7.04767 6.89727
#
# Compressibility (1/GPa) = 0.01777343
#
# Stress axis : x y z
#
# Youngs Moduli (GPa) = 87.24456 109.92580 54.32306
#
# Poissons Ratio (x) = 0.24467 0.30886
# Poissons Ratio (y) = 0.19419 0.14589
# Poissons Ratio (z) = 0.49604 0.29521
#
# Static dielectric constant tensor:
#      x y z
#    x 1.748930 0.000000 0.000000 
#    y 0.000000 1.664070 0.000000 
#    z 0.000000 0.000000 1.865450 
# 
# From -- ./inp_files/2783.got.cif
#   From: 2010.05.17/outbox.ucp.g08.bks.cvg/sg45_2_cif.got.tgz:2783.got - 2010.06.11 16:34:12.
