data_PCOD9377975
_publ_section_title
;
Structure prediction by ZEFSAII (Michael W. Deem and Ramdas Pophale) SiO2 
 PCOD9377975
Probable space group: I M A 2
;
_chemical_formula_sum "Si O2"
_cell_formula_units_Z 64
_cell_length_a 8.774558
_cell_length_b 18.934005
_cell_length_c 26.883357
_cell_angle_alpha 90.000000
_cell_angle_beta 90.000000
_cell_angle_gamma 90.000000
_cell_volume 4466.334397
_symmetry_space_group_name_H-M "I M A 2"
_symmetry_group_IT_number 46
_symmetry_cell_setting 'orthorhombic'
loop_
_space_group_symop_operation_xyz
x,y,z
-x,-y,z
1/2-x,y,z
1/2+x,-y,z
1/2+x,1/2+y,1/2+z
1/2-x,1/2-y,1/2+z
-x,1/2+y,1/2+z
x,1/2-y,1/2+z
loop_
_atom_site_type_symbol
_atom_site_label
_atom_site_fract_x
_atom_site_fract_y
_atom_site_fract_z
Si Si1 0.566318 0.838112 0.154970
Si Si2 0.068826 0.922363 0.765359
Si Si3 0.932619 0.422698 0.564574
Si Si4 0.568949 0.076821 0.248929
Si Si5 0.070448 0.297178 0.211111
Si Si6 0.431402 0.076253 0.956088
Si Si7 0.931422 0.160841 0.867540
Si Si8 0.430505 0.785944 0.302222
O O1 0.750000 0.843018 0.153474
O O2 0.493724 0.867481 0.104771
O O3 0.505171 0.886412 0.200434
O O4 0.524223 0.756600 0.167210
O O5 0.250000 0.926397 0.763691
O O6 0.028609 0.885227 0.818284
O O7 0.012095 0.870928 0.721347
O O8 0.000000 0.000000 0.762677
O O9 0.750000 0.425844 0.564584
O O10 0.000000 0.500000 0.577722
O O11 0.994374 0.406392 0.509395
O O12 0.750000 0.071376 0.240582
O O13 0.544014 0.130973 0.294994
O O14 0.500000 0.000000 0.256951
O O15 0.250000 0.309614 0.207703
O O16 0.030938 0.251378 0.260124
O O17 0.250000 0.070258 0.961317
O O18 0.477119 0.132248 0.914266
O O19 0.500000 0.000000 0.940946
O O20 0.750000 0.152076 0.876455
O O21 0.959984 0.242520 0.852439
O O22 0.250000 0.772914 0.290545
#
# Coordination Sequence:
#
# PCOD9377975 Si02
#       8
#     8   8   8   8   8   8   8   8
#     4  10  19  31  45  62  84 112 144 177 211 251
#     4  10  19  29  43  62  87 115 145 177 209 248
#     4  11  21  33  47  62  83 111 142 178 213 248
#     4  10  18  28  42  62  86 114 145 176 210 249
#     4   9  17  28  43  61  83 109 139 174 211 248
#     4  11  21  32  45  62  84 110 140 176 212 248
#     4   9  17  30  45  61  81 110 144 176 209 247
#     4   8  16  29  43  58  81 111 142 174 208 247
#
# _framework density 14.329423999999999
#
# number of rings (size 3 to 8) (size 9 to 14) (size 15 to 20)
#    0.000    2.250    0.000    6.000    0.000    5.500 
#    0.000    0.000    0.000    0.000    0.000    0.000 
#    0.000    1.000    0.000    9.250    0.000    3.875 
#
# Total GULP energy -178330.637345 kJ/mol
# GULP energy per Si atom -5572.832417 kJ/mol
# Density = 1.429681 g / cm^3
# Si number density = 14.329424 Si / 1000 Ang^3
#
#
#
# Elastic Constant Matrix: (Units=GPa)
#
#
# Indices 1 2 3 4 5 6 
#
# 1 73.1939 39.7295 32.4095 0.0000 0.0000 0.0000
# 2 39.7295 96.5102 36.8849 0.0000 0.0000 0.0000
# 3 32.4095 36.8849 57.0239 0.0000 0.0000 0.0000
# 4 0.0000 0.0000 0.0000 24.0245 0.0000 0.0000
# 5 0.0000 0.0000 0.0000 0.0000 18.9766 0.0000
# 6 0.0000 0.0000 0.0000 0.0000 0.0000 21.5711
#
#
#
# Elastic Compliance Matrix: (Units=1/GPa)
#
#
# Indices 1 2 3 4 5 6 
#
# 1 0.020029 -0.005174 -0.008037 0.000000 0.000000 0.000000
# 2 -0.005174 0.015101 -0.006827 0.000000 0.000000 0.000000
# 3 -0.008037 -0.006827 0.026520 0.000000 0.000000 0.000000
# 4 0.000000 0.000000 0.000000 0.041624 0.000000 0.000000
# 5 0.000000 0.000000 0.000000 0.000000 0.052697 0.000000
# 6 0.000000 0.000000 0.000000 0.000000 0.000000 0.046358
#
#
# Mechanical properties :
#
#
# Convention : Reuss Voigt Hill
#
# Bulk Modulus (GPa) = 46.35099 49.41953 47.88526
# Shear Modulus (GPa) = 20.03230 20.76137 20.39683
#
# Velocity S-wave (km/s) = 3.74302 3.81052 3.77692
# Velocity P-wave (km/s) = 7.14823 7.34324 7.24639
#
# Compressibility (1/GPa) = 0.02157451
#
# Stress axis : x y z
#
# Youngs Moduli (GPa) = 49.92673 66.22250 37.70674
#
# Poissons Ratio (x) = 0.34261 0.30306
# Poissons Ratio (y) = 0.25830 0.25743
# Poissons Ratio (z) = 0.40127 0.45211
#
# Static dielectric constant tensor:
#      x y z
#    x 1.479270 0.000000 0.000000 
#    y 0.000000 1.487250 0.000000 
#    z 0.000000 0.000000 1.459500 
# 
# From -- ./inp_files/23297.got.cif
#   From: 2010.05.17/outbox.cif.g08.bks.cpg/sg46_12_cif.got.tgz:23297.got - 2010.06.03 19:58:25.
