data_PCOD9377221
_publ_section_title
;
Structure prediction by ZEFSAII (Michael W. Deem and Ramdas Pophale) SiO2 
 PCOD9377221
Probable space group: I B A 2
;
_chemical_formula_sum "Si O2"
_cell_formula_units_Z 64
_cell_length_a 8.464655
_cell_length_b 23.380498
_cell_length_c 14.826748
_cell_angle_alpha 90.000000
_cell_angle_beta 90.000000
_cell_angle_gamma 90.000000
_cell_volume 2934.329809
_symmetry_space_group_name_H-M "I B A 2"
_symmetry_group_IT_number 45
_symmetry_cell_setting 'orthorhombic'
loop_
_space_group_symop_operation_xyz
x,y,z
-x,-y,z
-x,y,1/2+z
x,-y,1/2+z
1/2+x,1/2+y,1/2+z
1/2-x,1/2-y,1/2+z
1/2-x,1/2+y,z
1/2+x,1/2-y,z
loop_
_atom_site_type_symbol
_atom_site_label
_atom_site_fract_x
_atom_site_fract_y
_atom_site_fract_z
Si Si1 0.615679 0.715869 0.625000
Si Si2 0.847362 0.299964 0.866184
Si Si3 0.310027 0.003276 0.070842
Si Si4 0.183473 0.915533 0.419809
Si Si5 0.125731 0.285165 0.750813
Si Si6 0.811793 0.492830 0.279281
Si Si7 0.192531 0.088743 0.429225
Si Si8 0.843402 0.794120 0.506468
O O1 0.715076 0.763410 0.569863
O O2 0.492936 0.748941 0.688382
O O3 0.745435 0.684227 0.686827
O O4 0.496186 0.682211 0.560374
O O5 0.754228 0.352904 0.906347
O O6 0.726579 0.261126 0.807612
O O7 0.000310 0.319717 0.810014
O O8 0.905415 0.256370 0.942639
O O9 0.500000 0.000000 0.068638
O O10 0.258481 0.007109 0.175083
O O11 0.247077 0.948389 0.015481
O O12 0.250313 0.056260 0.010964
O O13 0.995324 0.916490 0.419677
O O14 0.239310 0.954797 0.336150
O O15 0.767645 0.437611 0.339133
O O16 0.000000 0.500000 0.279538
O O17 0.228792 0.154704 0.448984
#
# Coordination Sequence:
#
# PCOD9377221 Si02
#       8
#     8   8   8   8   8   8   8   8
#     4   9  20  38  58  84 124 167 212 257 307 380
#     4  11  22  39  62  92 131 171 211 261 322 391
#     4  10  23  44  68  93 123 163 216 273 328 385
#     4  11  23  40  65  96 128 168 216 264 325 392
#     4   9  20  38  58  84 125 168 211 259 308 377
#     4  10  23  44  67  93 124 165 218 274 329 385
#     4  11  23  40  65  95 128 167 213 268 325 387
#     4  11  22  39  61  91 129 169 209 258 322 389
#
# _framework density 21.810773999999999
#
# number of rings (size 3 to 8) (size 9 to 14) (size 15 to 20)
#    0.000    1.750    0.000    5.250    0.000    9.000 
#    0.000   17.500    0.000    1.500    0.000    0.000 
#    0.000    0.000    0.000    0.000    0.000    0.000 
#
# Total GULP energy -178848.824853 kJ/mol
# GULP energy per Si atom -5589.025777 kJ/mol
# Density = 2.176113 g / cm^3
# Si number density = 21.810774 Si / 1000 Ang^3
#
#
#
# Elastic Constant Matrix: (Units=GPa)
#
#
# Indices 1 2 3 4 5 6 
#
# 1 109.5667 15.6590 55.0362 0.0000 0.0000 0.0000
# 2 15.6590 87.8886 42.4215 0.0000 0.0000 0.0000
# 3 55.0362 42.4215 152.1127 -0.0001 0.0000 0.0000
# 4 0.0000 0.0000 -0.0001 5.7417 0.0000 0.0000
# 5 0.0000 0.0000 0.0000 0.0000 39.9189 0.0000
# 6 0.0000 0.0000 0.0000 0.0000 0.0000 24.2772
#
#
#
# Elastic Compliance Matrix: (Units=1/GPa)
#
#
# Indices 1 2 3 4 5 6 
#
# 1 0.011154 -0.000046 -0.004023 0.000000 0.000000 0.000000
# 2 -0.000046 0.013148 -0.003650 0.000000 0.000000 0.000000
# 3 -0.004023 -0.003650 0.009048 0.000000 0.000000 0.000000
# 4 0.000000 0.000000 0.000000 0.174163 0.000000 0.000000
# 5 0.000000 0.000000 0.000000 0.000000 0.025051 0.000000
# 6 0.000000 0.000000 0.000000 0.000000 0.000000 0.041191
#
#
# Mechanical properties :
#
#
# Convention : Reuss Voigt Hill
#
# Bulk Modulus (GPa) = 55.82782 63.97793 59.90287
# Shear Modulus (GPa) = 16.93980 29.75101 23.34541
#
# Velocity S-wave (km/s) = 2.78991 3.69731 3.27519
# Velocity P-wave (km/s) = 6.00251 6.90099 6.46737
#
# Compressibility (1/GPa) = 0.01791222
#
# Stress axis : x y z
#
# Youngs Moduli (GPa) = 89.65268 76.05699 110.52605
#
# Poissons Ratio (x) = 0.00346 0.44465
# Poissons Ratio (y) = 0.00408 0.40345
# Poissons Ratio (z) = 0.36067 0.27763
#
# Static dielectric constant tensor:
#      x y z
#    x 1.780430 0.000000 0.000000 
#    y 0.000000 1.752920 0.000000 
#    z 0.000000 0.000000 1.864560 
# 
# From -- ./inp_files/5843.got.cif
#   From: 2010.05.17/outbox.cif.g08.bks.cpg/sg45_3_cif.got.tgz:5843.got - 2010.06.03 19:51:22.
