data_PCOD9377448
_publ_section_title
;
Structure prediction by ZEFSAII (Michael W. Deem and Ramdas Pophale) SiO2 
 PCOD9377448
Probable space group: I B A 2
;
_chemical_formula_sum "Si O2"
_cell_formula_units_Z 48
_cell_length_a 19.890352
_cell_length_b 4.785795
_cell_length_c 19.439933
_cell_angle_alpha 90.000000
_cell_angle_beta 90.000000
_cell_angle_gamma 90.000000
_cell_volume 1850.509523
_symmetry_space_group_name_H-M "I B A 2"
_symmetry_group_IT_number 45
_symmetry_cell_setting 'orthorhombic'
loop_
_space_group_symop_operation_xyz
x,y,z
-x,-y,z
-x,y,1/2+z
x,-y,1/2+z
1/2+x,1/2+y,1/2+z
1/2-x,1/2-y,1/2+z
1/2-x,1/2+y,z
1/2+x,1/2-y,z
loop_
_atom_site_type_symbol
_atom_site_label
_atom_site_fract_x
_atom_site_fract_y
_atom_site_fract_z
Si Si1 0.613367 0.782764 0.770950
Si Si2 0.000000 0.500000 0.871200
Si Si3 0.500000 0.500000 0.685574
Si Si4 0.610643 0.892397 0.137376
Si Si5 0.000000 0.000000 0.467808
Si Si6 0.205257 0.816704 0.890248
Si Si7 0.000000 0.500000 0.568921
Si Si8 0.702485 0.450622 0.540297
O O1 0.563317 0.580045 0.730853
O O2 0.666782 0.633126 0.819352
O O3 0.563147 0.931603 0.823192
O O4 0.637679 0.984878 0.708921
O O5 0.026481 0.230521 0.912828
O O6 0.466492 0.763892 0.647413
O O7 0.658751 0.673194 0.102018
O O8 0.578759 0.126526 0.087919
O O9 0.027404 0.239481 0.519126
O O10 0.226023 0.493598 0.890160
O O11 0.172777 0.892461 0.963885
O O12 0.728300 0.766304 0.544586
#
# Coordination Sequence:
#
# PCOD9377448 Si02
#       8
#     8   4   4   8   4   8   4   8
#     4  12  26  45  74 106 156 196 238 309 371 448
#     4  11  23  46  64 110 142 190 238 304 370 438
#     4  12  24  48  66 118 154 198 240 302 378 450
#     4  12  26  45  74 106 156 196 238 309 371 448
#     4  10  26  38  66 102 142 186 250 286 358 446
#     4  10  26  51  74 105 143 193 254 308 362 429
#     4  11  23  46  64 110 142 190 238 304 370 438
#     4  10  26  51  74 105 143 193 254 308 362 429
#
# _framework density 25.938804000000001
#
# number of rings (size 3 to 8) (size 9 to 14) (size 15 to 20)
#    0.000    1.000    3.333    1.000    9.333    1.333 
#    6.000    0.000    0.000    0.000    0.000    0.000 
#    0.000    0.000    0.000    0.000    0.000    0.000 
#
# Total GULP energy -133787.931387 kJ/mol
# GULP energy per Si atom -5574.497141 kJ/mol
# Density = 2.587977 g / cm^3
# Si number density = 25.938804 Si / 1000 Ang^3
#
#
#
# Elastic Constant Matrix: (Units=GPa)
#
#
# Indices 1 2 3 4 5 6 
#
# 1 50.4537 10.2591 23.9702 0.0000 0.0000 0.0000
# 2 10.2591 96.7708 21.7894 0.0000 0.0000 0.0000
# 3 23.9702 21.7894 119.4074 0.0000 0.0000 0.0000
# 4 0.0000 0.0000 0.0000 8.2918 0.0000 0.0000
# 5 0.0000 0.0000 0.0000 0.0000 124.6798 0.0000
# 6 0.0000 0.0000 0.0000 0.0000 0.0000 24.3113
#
#
#
# Elastic Compliance Matrix: (Units=1/GPa)
#
#
# Indices 1 2 3 4 5 6 
#
# 1 0.022090 -0.001401 -0.004179 0.000000 0.000000 0.000000
# 2 -0.001401 0.010865 -0.001701 0.000000 0.000000 0.000000
# 3 -0.004179 -0.001701 0.009524 0.000000 0.000000 0.000000
# 4 0.000000 0.000000 0.000000 0.120601 0.000000 0.000000
# 5 0.000000 0.000000 0.000000 0.000000 0.008021 0.000000
# 6 0.000000 0.000000 0.000000 0.000000 0.000000 0.041133
#
#
# Mechanical properties :
#
#
# Convention : Reuss Voigt Hill
#
# Bulk Modulus (GPa) = 35.82020 42.07436 38.94728
# Shear Modulus (GPa) = 21.17720 45.49746 33.33733
#
# Velocity S-wave (km/s) = 2.86042 4.19266 3.58890
# Velocity P-wave (km/s) = 4.97482 6.30029 5.67638
#
# Compressibility (1/GPa) = 0.02791721
#
# Stress axis : x y z
#
# Youngs Moduli (GPa) = 45.26859 92.03586 104.99735
#
# Poissons Ratio (x) = 0.12894 0.43877
# Poissons Ratio (y) = 0.06342 0.17865
# Poissons Ratio (z) = 0.18917 0.15660
#
# Static dielectric constant tensor:
#      x y z
#    x 1.555460 0.000000 0.000000 
#    y 0.000000 2.294310 0.000000 
#    z 0.000000 0.000000 2.179460 
# 
# From -- ./inp_files/9292.got.cif
#   From: 2010.05.17/outbox.cif.g08.bks.cpg/sg45_5_cif.got.tgz:9292.got - 2010.06.03 19:51:22.
