data_PCOD9377519
_publ_section_title
;
Structure prediction by ZEFSAII (Michael W. Deem and Ramdas Pophale) SiO2 
 PCOD9377519
Probable space group: I B A 2
;
_chemical_formula_sum "Si O2"
_cell_formula_units_Z 60
_cell_length_a 16.484195
_cell_length_b 9.627632
_cell_length_c 16.475866
_cell_angle_alpha 90.000000
_cell_angle_beta 90.000000
_cell_angle_gamma 90.000000
_cell_volume 2614.781937
_symmetry_space_group_name_H-M "I B A 2"
_symmetry_group_IT_number 45
_symmetry_cell_setting 'orthorhombic'
loop_
_space_group_symop_operation_xyz
x,y,z
-x,-y,z
-x,y,1/2+z
x,-y,1/2+z
1/2+x,1/2+y,1/2+z
1/2-x,1/2-y,1/2+z
1/2-x,1/2+y,z
1/2+x,1/2-y,z
loop_
_atom_site_type_symbol
_atom_site_label
_atom_site_fract_x
_atom_site_fract_y
_atom_site_fract_z
Si Si1 0.267035 0.681228 0.282200
Si Si2 0.410944 0.541811 0.780887
Si Si3 0.500000 0.000000 0.751605
Si Si4 0.835887 0.842232 0.507957
Si Si5 0.160711 0.361688 0.944580
Si Si6 0.617864 0.145118 0.369924
Si Si7 0.630058 0.195997 0.671233
Si Si8 0.424505 0.404523 0.471480
O O1 0.342596 0.576152 0.279075
O O2 0.200110 0.661649 0.353982
O O3 0.307421 0.828877 0.307304
O O4 0.220882 0.659211 0.198353
O O5 0.500000 0.500000 0.751391
O O6 0.386524 0.671519 0.727608
O O7 0.419962 0.582521 0.874562
O O8 0.458174 0.111126 0.812889
O O9 0.567079 0.076693 0.696970
O O10 0.739396 0.831608 0.499068
O O11 0.879490 0.780922 0.426861
O O12 0.870932 0.752583 0.580733
O O13 0.852108 0.006652 0.510618
O O14 0.131253 0.518443 0.932133
O O15 0.090786 0.259848 0.978843
O O16 0.500000 0.500000 0.499536
#
# Coordination Sequence:
#
# PCOD9377519 Si02
#       8
#     8   8   4   8   8   8   8   8
#     4  11  21  40  71 106 139 190 246 301 366 457
#     4  11  22  41  73 101 142 190 244 298 364 449
#     4  12  26  46  72 108 142 202 248 312 386 464
#     4  11  26  43  69 107 146 182 244 312 377 430
#     4  11  21  42  71 102 141 190 247 294 358 455
#     4  11  23  43  74 104 138 197 252 304 366 463
#     4  12  27  44  69 110 151 191 244 323 388 443
#     4  11  23  42  70 103 137 189 241 293 353 454
#
# _framework density 22.946462
#
# number of rings (size 3 to 8) (size 9 to 14) (size 15 to 20)
#    0.000    0.800    5.333    3.200    3.733    3.200 
#    0.000    0.000    0.000    0.000    0.000    0.000 
#    0.000    0.000    0.000    0.000    0.000    0.000 
#
# Total GULP energy -167470.532502 kJ/mol
# GULP energy per Si atom -5582.351083 kJ/mol
# Density = 2.289424 g / cm^3
# Si number density = 22.946462 Si / 1000 Ang^3
#
#
#
# Elastic Constant Matrix: (Units=GPa)
#
#
# Indices 1 2 3 4 5 6 
#
# 1 58.7045 25.6823 16.0358 0.0000 0.0000 0.0000
# 2 25.6823 113.0361 12.4637 0.0000 0.0000 0.0000
# 3 16.0358 12.4637 73.8137 0.0000 0.0000 0.0000
# 4 0.0000 0.0000 0.0000 19.0600 0.0000 0.0000
# 5 0.0000 0.0000 0.0000 0.0000 15.5915 0.0000
# 6 0.0000 0.0000 0.0000 0.0000 0.0000 46.6837
#
#
#
# Elastic Compliance Matrix: (Units=1/GPa)
#
#
# Indices 1 2 3 4 5 6 
#
# 1 0.019817 -0.004104 -0.003612 0.000000 0.000000 0.000000
# 2 -0.004104 0.009865 -0.000774 0.000000 0.000000 0.000000
# 3 -0.003612 -0.000774 0.014463 0.000000 0.000000 0.000000
# 4 0.000000 0.000000 0.000000 0.052466 0.000000 0.000000
# 5 0.000000 0.000000 0.000000 0.000000 0.064137 0.000000
# 6 0.000000 0.000000 0.000000 0.000000 0.000000 0.021421
#
#
# Mechanical properties :
#
#
# Convention : Reuss Voigt Hill
#
# Bulk Modulus (GPa) = 36.81392 39.32421 38.06907
# Shear Modulus (GPa) = 24.01499 29.02523 26.52011
#
# Velocity S-wave (km/s) = 3.23858 3.56042 3.40330
# Velocity P-wave (km/s) = 5.48295 5.83752 5.66301
#
# Compressibility (1/GPa) = 0.02716364
#
# Stress axis : x y z
#
# Youngs Moduli (GPa) = 50.46265 101.37297 69.14180
#
# Poissons Ratio (x) = 0.41605 0.24975
# Poissons Ratio (y) = 0.20711 0.05352
# Poissons Ratio (z) = 0.18228 0.07847
#
# Static dielectric constant tensor:
#      x y z
#    x 2.110430 0.000000 0.000000 
#    y 0.000000 1.920340 0.000000 
#    z 0.000000 0.000000 1.832590 
# 
# From -- ./inp_files/8364.got.cif
#   From: 2010.05.17/outbox.cif.g08.bks.cpg/sg45_5_cif.got.tgz:8364.got - 2010.06.03 19:51:22.
