data_PCOD9377070
_publ_section_title
;
Structure prediction by ZEFSAII (Michael W. Deem and Ramdas Pophale) SiO2 
 PCOD9377070
Probable space group: I B A 2
;
_chemical_formula_sum "Si O2"
_cell_formula_units_Z 44
_cell_length_a 5.242455
_cell_length_b 25.649205
_cell_length_c 13.870980
_cell_angle_alpha 90.000000
_cell_angle_beta 90.000000
_cell_angle_gamma 90.000000
_cell_volume 1865.158593
_symmetry_space_group_name_H-M "I B A 2"
_symmetry_group_IT_number 45
_symmetry_cell_setting 'orthorhombic'
loop_
_space_group_symop_operation_xyz
x,y,z
-x,-y,z
-x,y,1/2+z
x,-y,1/2+z
1/2+x,1/2+y,1/2+z
1/2-x,1/2-y,1/2+z
1/2-x,1/2+y,z
1/2+x,1/2-y,z
loop_
_atom_site_type_symbol
_atom_site_label
_atom_site_fract_x
_atom_site_fract_y
_atom_site_fract_z
Si Si1 0.600354 0.116519 0.084750
Si Si2 0.901023 0.103581 0.463453
Si Si3 0.798412 0.774275 0.650695
Si Si4 0.172627 0.780981 0.382429
Si Si5 0.000000 0.000000 0.344812
Si Si6 0.247464 0.517385 0.662049
O O1 0.316442 0.104641 0.047053
O O2 0.650636 0.174826 0.116479
O O3 0.701329 0.078506 0.170019
O O4 0.809603 0.106016 0.002262
O O5 0.848062 0.158140 0.408344
O O6 0.903076 0.050375 0.401526
O O7 0.594878 0.729518 0.620536
O O8 0.814674 0.776269 0.766501
O O9 0.427650 0.751859 0.417473
O O10 0.219527 0.012089 0.263927
O O11 0.500000 0.500000 0.607505
O O12 0.000000 0.500000 0.605988
#
# Coordination Sequence:
#
# PCOD9377070 Si02
#       6
#     8   8   8   8   4   8
#     4  12  26  42  66 102 136 174 220 282 349 402
#     4  12  27  41  69 102 140 176 216 293 352 404
#     4  10  22  42  68  94 130 176 227 269 322 408
#     4  10  22  44  68  98 134 180 229 275 331 407
#     4  10  28  46  70  96 134 180 236 274 338 418
#     4  10  24  45  69  92 122 185 221 280 316 410
#
# _framework density 23.590487
#
# number of rings (size 3 to 8) (size 9 to 14) (size 15 to 20)
#    0.545    0.727    0.000    4.364    6.364    4.364 
#    6.545    0.000    0.000    0.000    0.000    0.000 
#    0.000    0.000    0.000    0.000    0.000    0.000 
#
# Total GULP energy -122735.166748 kJ/mol
# GULP energy per Si atom -5578.871216 kJ/mol
# Density = 2.353679 g / cm^3
# Si number density = 23.590487 Si / 1000 Ang^3
#
#
#
# Elastic Constant Matrix: (Units=GPa)
#
#
# Indices 1 2 3 4 5 6 
#
# 1 152.6963 45.6212 20.8215 0.0000 0.0000 0.0000
# 2 45.6212 141.1449 15.5651 0.0000 0.0000 0.0000
# 3 20.8215 15.5651 50.1067 0.0000 0.0000 0.0000
# 4 0.0000 0.0000 0.0000 48.4337 0.0000 0.0000
# 5 0.0000 0.0000 0.0000 0.0000 17.8216 0.0000
# 6 0.0000 0.0000 0.0000 0.0000 0.0000 33.3613
#
#
#
# Elastic Compliance Matrix: (Units=1/GPa)
#
#
# Indices 1 2 3 4 5 6 
#
# 1 0.007530 -0.002163 -0.002457 0.000000 0.000000 0.000000
# 2 -0.002163 0.007958 -0.001573 0.000000 0.000000 0.000000
# 3 -0.002457 -0.001573 0.021467 0.000000 0.000000 0.000000
# 4 0.000000 0.000000 0.000000 0.020647 0.000000 0.000000
# 5 0.000000 0.000000 0.000000 0.000000 0.056112 0.000000
# 6 0.000000 0.000000 0.000000 0.000000 0.000000 0.029975
#
#
# Mechanical properties :
#
#
# Convention : Reuss Voigt Hill
#
# Bulk Modulus (GPa) = 40.70285 56.44038 48.57161
# Shear Modulus (GPa) = 30.43879 37.38602 33.91240
#
# Velocity S-wave (km/s) = 3.59597 3.98526 3.79561
# Velocity P-wave (km/s) = 5.87645 6.71963 6.31214
#
# Compressibility (1/GPa) = 0.02456830
#
# Stress axis : x y z
#
# Youngs Moduli (GPa) = 132.79777 125.66741 46.58279
#
# Poissons Ratio (x) = 0.27181 0.11446
# Poissons Ratio (y) = 0.28724 0.07328
# Poissons Ratio (z) = 0.32632 0.19769
#
# Static dielectric constant tensor:
#      x y z
#    x 1.982090 0.000000 0.000000 
#    y 0.000000 1.981760 0.000000 
#    z 0.000000 0.000000 1.922500 
# 
# From -- ./inp_files/5151.got.cif
#   From: 2010.05.17/outbox.cif.g08.bks.cpg/sg45_3_cif.got.tgz:5151.got - 2010.06.03 19:51:22.
