data_PCOD9377203
_publ_section_title
;
Structure prediction by ZEFSAII (Michael W. Deem and Ramdas Pophale) SiO2 
 PCOD9377203
Probable space group: I B A 2
;
_chemical_formula_sum "Si O2"
_cell_formula_units_Z 36
_cell_length_a 5.218839
_cell_length_b 13.166907
_cell_length_c 23.145286
_cell_angle_alpha 90.000000
_cell_angle_beta 90.000000
_cell_angle_gamma 90.000000
_cell_volume 1590.450727
_symmetry_space_group_name_H-M "I B A 2"
_symmetry_group_IT_number 45
_symmetry_cell_setting 'orthorhombic'
loop_
_space_group_symop_operation_xyz
x,y,z
-x,-y,z
-x,y,1/2+z
x,-y,1/2+z
1/2+x,1/2+y,1/2+z
1/2-x,1/2-y,1/2+z
1/2-x,1/2+y,z
1/2+x,1/2-y,z
loop_
_atom_site_type_symbol
_atom_site_label
_atom_site_fract_x
_atom_site_fract_y
_atom_site_fract_z
Si Si1 0.500000 0.000000 0.108210
Si Si2 0.252074 0.434400 0.932873
Si Si3 0.661401 0.691410 0.824040
Si Si4 0.258419 0.063058 0.219867
Si Si5 0.258775 0.186517 0.543083
O O1 0.332707 0.069025 0.152520
O O2 0.673012 0.078077 0.072283
O O3 0.500000 0.500000 0.948884
O O4 0.273112 0.400228 0.866715
O O5 0.000000 0.500000 0.942002
O O6 0.239932 0.337207 0.974620
O O7 0.369794 0.721676 0.836118
O O8 0.712760 0.661809 0.757686
O O9 0.500000 0.000000 0.244908
O O10 0.000000 0.000000 0.224897
O O11 0.485646 0.265064 0.557947
#
# Coordination Sequence:
#
# PCOD9377203 Si02
#       5
#     4   8   8   8   8
#     4  10  28  46  72  98 148 186 242 294 352 414
#     4  12  24  44  73  98 140 187 226 288 363 424
#     4  12  24  41  67 104 140 172 232 292 345 425
#     4  10  23  43  66  91 134 181 233 270 350 411
#     4  12  27  45  72 106 139 184 241 294 354 420
#
# _framework density 22.635093999999999
#
# number of rings (size 3 to 8) (size 9 to 14) (size 15 to 20)
#    0.667    0.000    1.111    6.667    3.111    1.778 
#    0.000    0.000    0.000    0.000    0.000    0.000 
#    0.000    0.000    0.000    0.000    0.000    0.000 
#
# Total GULP energy -100638.679725 kJ/mol
# GULP energy per Si atom -5591.037762 kJ/mol
# Density = 2.258358 g / cm^3
# Si number density = 22.635094 Si / 1000 Ang^3
#
#
#
# Elastic Constant Matrix: (Units=GPa)
#
#
# Indices 1 2 3 4 5 6 
#
# 1 124.3378 18.5966 16.4865 0.0000 0.0000 0.0000
# 2 18.5966 44.4041 21.7800 0.0000 0.0000 0.0000
# 3 16.4865 21.7800 80.9305 0.0000 0.0000 0.0000
# 4 0.0000 0.0000 0.0000 48.4916 0.0000 0.0000
# 5 0.0000 0.0000 0.0000 0.0000 37.4844 0.0000
# 6 0.0000 0.0000 0.0000 0.0000 0.0000 39.2847
#
#
#
# Elastic Compliance Matrix: (Units=1/GPa)
#
#
# Indices 1 2 3 4 5 6 
#
# 1 0.008637 -0.003173 -0.000906 0.000000 0.000000 0.000000
# 2 -0.003173 0.027111 -0.006650 0.000000 0.000000 0.000000
# 3 -0.000906 -0.006650 0.014330 0.000000 0.000000 0.000000
# 4 0.000000 0.000000 0.000000 0.020622 0.000000 0.000000
# 5 0.000000 0.000000 0.000000 0.000000 0.026678 0.000000
# 6 0.000000 0.000000 0.000000 0.000000 0.000000 0.025455
#
#
# Mechanical properties :
#
#
# Convention : Reuss Voigt Hill
#
# Bulk Modulus (GPa) = 34.93843 40.37765 37.65804
# Shear Modulus (GPa) = 32.50316 37.90610 35.20463
#
# Velocity S-wave (km/s) = 3.79352 4.09670 3.94802
# Velocity P-wave (km/s) = 5.88700 6.34465 6.12010
#
# Compressibility (1/GPa) = 0.02862178
#
# Stress axis : x y z
#
# Youngs Moduli (GPa) = 115.77732 36.88531 69.78211
#
# Poissons Ratio (x) = 0.11704 0.06319
# Poissons Ratio (y) = 0.36738 0.46403
# Poissons Ratio (z) = 0.10484 0.24528
#
# Static dielectric constant tensor:
#      x y z
#    x 1.799790 0.000000 0.000000 
#    y 0.000000 1.796880 0.000000 
#    z 0.000000 0.000000 1.835340 
# 
# From -- ./inp_files/9389.got.cif
#   From: 2010.05.17/outbox.cif.g08.bks.cpg/sg45_5_cif.got.tgz:9389.got - 2010.06.03 19:51:22.
