data_PCOD9377897
_publ_section_title
;
Structure prediction by ZEFSAII (Michael W. Deem and Ramdas Pophale) SiO2 
 PCOD9377897
Probable space group: I M A 2
;
_chemical_formula_sum "Si O2"
_cell_formula_units_Z 56
_cell_length_a 23.632413
_cell_length_b 18.266124
_cell_length_c 6.968486
_cell_angle_alpha 90.000000
_cell_angle_beta 90.000000
_cell_angle_gamma 90.000000
_cell_volume 3008.104374
_symmetry_space_group_name_H-M "I M A 2"
_symmetry_group_IT_number 46
_symmetry_cell_setting 'orthorhombic'
loop_
_space_group_symop_operation_xyz
x,y,z
-x,-y,z
1/2-x,y,z
1/2+x,-y,z
1/2+x,1/2+y,1/2+z
1/2-x,1/2-y,1/2+z
-x,1/2+y,1/2+z
x,1/2-y,1/2+z
loop_
_atom_site_type_symbol
_atom_site_label
_atom_site_fract_x
_atom_site_fract_y
_atom_site_fract_z
Si Si1 0.686280 0.897722 0.182990
Si Si2 0.140411 0.412978 0.072418
Si Si3 0.975075 0.741476 0.883574
Si Si4 0.983450 0.397093 0.372584
Si Si5 0.487560 0.078957 0.437835
Si Si6 0.599164 0.981660 0.943029
Si Si7 0.385072 0.251810 0.142847
O O1 0.750000 0.896393 0.106687
O O2 0.686476 0.916140 0.408746
O O3 0.654737 0.820221 0.143915
O O4 0.645476 0.958743 0.094410
O O5 0.132120 0.470553 0.241838
O O6 0.143882 0.331287 0.156858
O O7 0.079710 0.417179 0.966027
O O8 0.000023 0.659445 0.856355
O O9 0.957938 0.757469 0.637201
O O10 0.016727 0.810778 0.894654
O O11 0.902228 0.745895 0.891097
O O12 0.932152 0.441277 0.464740
O O13 0.045797 0.424328 0.443746
O O14 0.984015 0.420800 0.148521
O O15 0.500000 0.000000 0.344575
#
# Coordination Sequence:
#
# PCOD9377897 Si02
#       7
#     8   8   8   8   8   8   8
#     4  12  25  37  51  79 112 155 208 241 274 340
#     4  10  20  37  53  70 108 146 196 231 270 330
#     4  11  18  31  53  77 115 145 182 226 283 339
#     4  10  17  33  56  81 110 151 187 234 293 353
#     4  10  17  31  54  79 110 157 180 220 286 352
#     4  10  20  38  56  77 108 144 195 237 290 340
#     4  11  18  33  48  69 108 150 191 233 268 320
#
# _framework density 18.616375000000001
#
# number of rings (size 3 to 8) (size 9 to 14) (size 15 to 20)
#    0.000    1.429   11.429    0.000    0.000    1.143 
#    5.143    0.000    0.000    0.000    0.000    0.000 
#    0.000    4.571    0.000    0.000    0.000    0.000 
#
# Total GULP energy -155955.924026 kJ/mol
# GULP energy per Si atom -5569.854429 kJ/mol
# Density = 1.857400 g / cm^3
# Si number density = 18.616375 Si / 1000 Ang^3
#
#
#
# Elastic Constant Matrix: (Units=GPa)
#
#
# Indices 1 2 3 4 5 6 
#
# 1 80.2511 48.9985 34.5044 0.0000 0.0000 0.0000
# 2 48.9985 135.2797 34.3040 0.0000 0.0000 0.0000
# 3 34.5044 34.3040 90.5893 0.0000 0.0000 0.0000
# 4 0.0000 0.0000 0.0000 26.1861 0.0000 0.0000
# 5 0.0000 0.0000 0.0000 0.0000 17.5173 0.0000
# 6 0.0000 0.0000 0.0000 0.0000 0.0000 12.6878
#
#
#
# Elastic Compliance Matrix: (Units=1/GPa)
#
#
# Indices 1 2 3 4 5 6 
#
# 1 0.017683 -0.005196 -0.004768 0.000000 0.000000 0.000000
# 2 -0.005196 0.009704 -0.001696 0.000000 0.000000 0.000000
# 3 -0.004768 -0.001696 0.013497 0.000000 0.000000 0.000000
# 4 0.000000 0.000000 0.000000 0.038188 0.000000 0.000000
# 5 0.000000 0.000000 0.000000 0.000000 0.057087 0.000000
# 6 0.000000 0.000000 0.000000 0.000000 0.000000 0.078816
#
#
# Mechanical properties :
#
#
# Convention : Reuss Voigt Hill
#
# Bulk Modulus (GPa) = 56.92947 60.19264 58.56105
# Shear Modulus (GPa) = 20.47931 23.83244 22.15587
#
# Velocity S-wave (km/s) = 3.32033 3.58185 3.45357
# Velocity P-wave (km/s) = 6.73395 7.03630 6.88679
#
# Compressibility (1/GPa) = 0.01756559
#
# Stress axis : x y z
#
# Youngs Moduli (GPa) = 56.55073 103.05010 74.09098
#
# Poissons Ratio (x) = 0.53544 0.35325
# Poissons Ratio (y) = 0.29383 0.12563
# Poissons Ratio (z) = 0.26962 0.17473
#
# Static dielectric constant tensor:
#      x y z
#    x 1.592470 0.000000 0.000000 
#    y 0.000000 1.625170 0.000000 
#    z 0.000000 0.000000 2.031370 
# 
# From -- ./inp_files/7507.got.cif
#   From: 2010.05.17/outbox.cif.g08.bks.cpg/sg46_4_cif.got.tgz:7507.got - 2010.06.03 19:58:25.
