data_PCOD9377121
_publ_section_title
;
Structure prediction by ZEFSAII (Michael W. Deem and Ramdas Pophale) SiO2 
 PCOD9377121
Probable space group: I B A 2
;
_chemical_formula_sum "Si O2"
_cell_formula_units_Z 56
_cell_length_a 14.481336
_cell_length_b 11.322769
_cell_length_c 14.532885
_cell_angle_alpha 90.000000
_cell_angle_beta 90.000000
_cell_angle_gamma 90.000000
_cell_volume 2382.940039
_symmetry_space_group_name_H-M "I B A 2"
_symmetry_group_IT_number 45
_symmetry_cell_setting 'orthorhombic'
loop_
_space_group_symop_operation_xyz
x,y,z
-x,-y,z
-x,y,1/2+z
x,-y,1/2+z
1/2+x,1/2+y,1/2+z
1/2-x,1/2-y,1/2+z
1/2-x,1/2+y,z
1/2+x,1/2-y,z
loop_
_atom_site_type_symbol
_atom_site_label
_atom_site_fract_x
_atom_site_fract_y
_atom_site_fract_z
Si Si1 0.290099 0.639894 0.400480
Si Si2 0.971100 0.728094 0.680298
Si Si3 0.602076 0.096284 0.061370
Si Si4 0.573606 0.109643 0.869428
Si Si5 0.173160 0.341413 0.536689
Si Si6 0.415291 0.436866 0.739956
Si Si7 0.800658 0.034097 0.087662
O O1 0.186491 0.593909 0.375267
O O2 0.299429 0.770589 0.445424
O O3 0.349262 0.627677 0.310005
O O4 0.332514 0.561248 0.483937
O O5 0.942782 0.696975 0.784162
O O6 0.885166 0.732731 0.610372
O O7 0.035589 0.841737 0.675087
O O8 0.062848 0.664253 0.472313
O O9 0.537175 0.122311 0.145698
O O10 0.611108 0.960816 0.025083
O O11 0.708201 0.116150 0.091655
O O12 0.500000 0.000000 0.858241
O O13 0.262056 0.399767 0.583486
O O14 0.500000 0.500000 0.791061
O O15 0.362086 0.531480 0.677528
#
# Coordination Sequence:
#
# PCOD9377121 Si02
#       7
#     8   8   8   8   8   8   8
#     4  11  26  47  72 104 150 194 243 311 376 445
#     4  12  25  42  77 109 145 190 252 314 367 456
#     4   9  23  43  75 105 142 180 243 313 373 422
#     4  11  24  44  73 114 139 187 252 312 377 438
#     4  10  22  45  70 108 139 189 241 310 377 428
#     4  12  29  47  67 109 149 204 244 292 382 464
#     4   9  24  47  70  97 145 185 245 303 362 438
#
# _framework density 23.500381000000001
#
# number of rings (size 3 to 8) (size 9 to 14) (size 15 to 20)
#    0.857    0.571    0.000    3.857   10.000    2.857 
#    2.571    0.000    0.000    0.000    0.000    0.000 
#    0.000    0.000    0.000    0.000    0.000    0.000 
#
# Total GULP energy -155998.978870 kJ/mol
# GULP energy per Si atom -5571.392102 kJ/mol
# Density = 2.344689 g / cm^3
# Si number density = 23.500381 Si / 1000 Ang^3
#
#
#
# Elastic Constant Matrix: (Units=GPa)
#
#
# Indices 1 2 3 4 5 6 
#
# 1 80.6101 7.3571 37.7965 0.0000 0.0000 0.0000
# 2 7.3571 45.1617 -9.5046 0.0000 0.0000 0.0000
# 3 37.7965 -9.5046 93.2952 0.0000 0.0000 0.0000
# 4 0.0000 0.0000 0.0000 36.4370 0.0000 0.0000
# 5 0.0000 0.0000 0.0000 0.0000 39.9930 0.0000
# 6 0.0000 0.0000 0.0000 0.0000 0.0000 26.5092
#
#
#
# Elastic Compliance Matrix: (Units=1/GPa)
#
#
# Indices 1 2 3 4 5 6 
#
# 1 0.016011 -0.004061 -0.006900 0.000000 0.000000 0.000000
# 2 -0.004061 0.023658 0.004055 0.000000 0.000000 0.000000
# 3 -0.006900 0.004055 0.013927 0.000000 0.000000 0.000000
# 4 0.000000 0.000000 0.000000 0.027445 0.000000 0.000000
# 5 0.000000 0.000000 0.000000 0.000000 0.025004 0.000000
# 6 0.000000 0.000000 0.000000 0.000000 0.000000 0.037723
#
#
# Mechanical properties :
#
#
# Convention : Reuss Voigt Hill
#
# Bulk Modulus (GPa) = 25.13519 32.26279 28.69899
# Shear Modulus (GPa) = 29.26696 32.81572 31.04134
#
# Velocity S-wave (km/s) = 3.53283 3.74089 3.63834
# Velocity P-wave (km/s) = 5.23068 5.69363 5.46706
#
# Compressibility (1/GPa) = 0.03978486
#
# Stress axis : x y z
#
# Youngs Moduli (GPa) = 62.45542 42.26974 71.80139
#
# Poissons Ratio (x) = 0.17164 0.49545
# Poissons Ratio (y) = 0.25361 -0.29117
# Poissons Ratio (z) = 0.43096 -0.17141
#
# Static dielectric constant tensor:
#      x y z
#    x 1.968020 0.000000 0.000000 
#    y 0.000000 2.054350 0.000000 
#    z 0.000000 0.000000 1.837500 
# 
# From -- ./inp_files/6521.got.cif
#   From: 2010.05.17/outbox.cif.g08.bks.cpg/sg45_4_cif.got.tgz:6521.got - 2010.06.03 19:51:22.
