data_PCOD9377233
_publ_section_title
;
Structure prediction by ZEFSAII (Michael W. Deem and Ramdas Pophale) SiO2 
 PCOD9377233
Probable space group: I B A 2
;
_chemical_formula_sum "Si O2"
_cell_formula_units_Z 64
_cell_length_a 27.821169
_cell_length_b 10.923707
_cell_length_c 9.199110
_cell_angle_alpha 90.000000
_cell_angle_beta 90.000000
_cell_angle_gamma 90.000000
_cell_volume 2795.704267
_symmetry_space_group_name_H-M "I B A 2"
_symmetry_group_IT_number 45
_symmetry_cell_setting 'orthorhombic'
loop_
_space_group_symop_operation_xyz
x,y,z
-x,-y,z
-x,y,1/2+z
x,-y,1/2+z
1/2+x,1/2+y,1/2+z
1/2-x,1/2-y,1/2+z
1/2-x,1/2+y,z
1/2+x,1/2-y,z
loop_
_atom_site_type_symbol
_atom_site_label
_atom_site_fract_x
_atom_site_fract_y
_atom_site_fract_z
Si Si1 0.648313 0.549332 0.508530
Si Si2 0.552138 0.281230 0.655216
Si Si3 0.851984 0.345513 0.107420
Si Si4 0.697505 0.769766 0.637663
Si Si5 0.579869 0.475222 0.264531
Si Si6 0.530534 0.785630 0.835064
Si Si7 0.280296 0.673176 0.453711
Si Si8 0.120455 0.564219 0.795963
O O1 0.679764 0.671533 0.517898
O O2 0.600513 0.538705 0.410227
O O3 0.627652 0.541482 0.670204
O O4 0.682784 0.438504 0.465416
O O5 0.608869 0.259234 0.640591
O O6 0.546913 0.424873 0.685235
O O7 0.523599 0.210538 0.779329
O O8 0.530409 0.229106 0.507529
O O9 0.858397 0.436321 0.241350
O O10 0.803528 0.283517 0.050203
O O11 0.870271 0.419193 0.966459
O O12 0.722614 0.713060 0.784197
O O13 0.732269 0.856986 0.543676
O O14 0.651791 0.837554 0.706218
O O15 0.555410 0.343776 0.286597
O O16 0.564724 0.895452 0.779842
#
# Coordination Sequence:
#
# PCOD9377233 Si02
#       8
#     8   8   8   8   8   8   8   8
#     4  12  23  44  70  95 136 175 215 273 336 393
#     4  11  25  41  65  97 131 170 216 271 331 395
#     4  10  23  45  64  89 128 171 216 271 320 390
#     4  11  26  43  67  98 132 174 220 275 331 396
#     4  12  22  42  69  95 133 171 215 269 336 395
#     4  11  24  42  63  96 133 167 217 273 328 399
#     4  11  25  44  65  97 133 170 224 274 330 397
#     4  10  23  45  64  89 128 170 218 268 323 387
#
# _framework density 22.892264000000001
#
# number of rings (size 3 to 8) (size 9 to 14) (size 15 to 20)
#    0.000    1.000    5.000    1.125    5.250    4.500 
#    0.000    2.500    0.000    0.000    0.000    0.000 
#    0.000    0.000    0.000    0.000    0.000    0.000 
#
# Total GULP energy -178676.207707 kJ/mol
# GULP energy per Si atom -5583.631491 kJ/mol
# Density = 2.284016 g / cm^3
# Si number density = 22.892264 Si / 1000 Ang^3
#
#
#
# Elastic Constant Matrix: (Units=GPa)
#
#
# Indices 1 2 3 4 5 6 
#
# 1 46.4567 -11.1798 12.9394 0.0000 0.0000 0.0000
# 2 -11.1798 41.5248 20.1574 0.0000 0.0000 0.0000
# 3 12.9394 20.1574 28.8049 0.0000 0.0000 0.0000
# 4 0.0000 0.0000 0.0000 20.3720 0.0000 0.0000
# 5 0.0000 0.0000 0.0000 0.0000 18.8947 0.0000
# 6 0.0000 0.0000 0.0000 0.0000 0.0000 13.2714
#
#
#
# Elastic Compliance Matrix: (Units=1/GPa)
#
#
# Indices 1 2 3 4 5 6 
#
# 1 0.038893 0.028702 -0.037557 0.000000 0.000000 0.000000
# 2 0.028702 0.057653 -0.053238 0.000000 0.000000 0.000000
# 3 -0.037557 -0.053238 0.088843 0.000000 0.000000 0.000000
# 4 0.000000 0.000000 0.000000 0.049087 0.000000 0.000000
# 5 0.000000 0.000000 0.000000 0.000000 0.052925 0.000000
# 6 0.000000 0.000000 0.000000 0.000000 0.000000 0.075350
#
#
# Mechanical properties :
#
#
# Convention : Reuss Voigt Hill
#
# Bulk Modulus (GPa) = 16.33893 17.84672 17.09283
# Shear Modulus (GPa) = 9.85537 16.83225 13.34381
#
# Velocity S-wave (km/s) = 2.07713 2.71455 2.41694
# Velocity P-wave (km/s) = 3.59241 4.19975 3.90790
#
# Compressibility (1/GPa) = 0.06120351
#
# Stress axis : x y z
#
# Youngs Moduli (GPa) = 25.71142 17.34514 11.25582
#
# Poissons Ratio (x) = -0.49785 0.42273
# Poissons Ratio (y) = -0.73798 0.59924
# Poissons Ratio (z) = 0.96564 0.92343
#
# Static dielectric constant tensor:
#      x y z
#    x 1.887410 0.000000 0.000000 
#    y 0.000000 1.904000 0.000000 
#    z 0.000000 0.000000 1.855800 
# 
# From -- ./inp_files/1496.got.cif
#   From: 2010.05.17/outbox.cif.g08.bks.cpg/sg45_1_cif.got.tgz:1496.got - 2010.06.03 19:51:22.
