data_PCOD9377844
_publ_section_title
;
Structure prediction by ZEFSAII (Michael W. Deem and Ramdas Pophale) SiO2 
 PCOD9377844
Probable space group: I M A 2
;
_chemical_formula_sum "Si O2"
_cell_formula_units_Z 56
_cell_length_a 24.965140
_cell_length_b 15.362656
_cell_length_c 8.646838
_cell_angle_alpha 90.000000
_cell_angle_beta 90.000000
_cell_angle_gamma 90.000000
_cell_volume 3316.329196
_symmetry_space_group_name_H-M "I M A 2"
_symmetry_group_IT_number 46
_symmetry_cell_setting 'orthorhombic'
loop_
_space_group_symop_operation_xyz
x,y,z
-x,-y,z
1/2-x,y,z
1/2+x,-y,z
1/2+x,1/2+y,1/2+z
1/2-x,1/2-y,1/2+z
-x,1/2+y,1/2+z
x,1/2-y,1/2+z
loop_
_atom_site_type_symbol
_atom_site_label
_atom_site_fract_x
_atom_site_fract_y
_atom_site_fract_z
Si Si1 0.418432 0.000989 0.280690
Si Si2 0.599291 0.419353 0.096464
Si Si3 0.691188 0.407516 0.326202
Si Si4 0.310556 0.939481 0.180136
Si Si5 0.143958 0.778917 0.361439
Si Si6 0.029041 0.688807 0.303973
Si Si7 0.000099 0.861397 0.147681
O O1 0.451665 0.079722 0.209258
O O2 0.418884 0.986404 0.464977
O O3 0.356003 0.003792 0.240719
O O4 0.447129 0.914740 0.206662
O O5 0.642826 0.445633 0.224570
O O6 0.546350 0.383749 0.180644
O O7 0.631887 0.340837 0.008721
O O8 0.750000 0.419872 0.254580
O O9 0.690157 0.447440 0.496416
O O10 0.682249 0.304543 0.360677
O O11 0.250000 0.950206 0.239434
O O12 0.332700 0.844852 0.233672
O O13 0.086228 0.734764 0.337539
O O14 0.996463 0.766563 0.225030
O O15 0.005475 0.651474 0.463152
#
# Coordination Sequence:
#
# PCOD9377844 Si02
#       7
#     8   8   8   8   8   8   8
#     4  10  21  36  49  77 102 145 174 224 259 328
#     4  10  19  30  49  70 108 136 181 217 266 305
#     4  10  19  27  42  70 100 141 184 214 245 304
#     4  10  19  32  47  69 107 146 179 212 259 315
#     4  10  17  27  46  71 104 139 175 209 249 310
#     4  11  18  33  53  77  97 143 168 223 263 319
#     4  11  20  35  56  73 109 134 181 216 276 316
#
# _framework density 16.886140000000001
#
# number of rings (size 3 to 8) (size 9 to 14) (size 15 to 20)
#    0.000    1.714    4.286    3.857    0.000    4.000 
#    0.000   10.000    0.000    0.000    0.000    1.000 
#    0.000    0.000    0.000    0.000    0.000    0.000 
#
# Total GULP energy -155956.102955 kJ/mol
# GULP energy per Si atom -5569.860820 kJ/mol
# Density = 1.684771 g / cm^3
# Si number density = 16.886140 Si / 1000 Ang^3
#
#
#
# Elastic Constant Matrix: (Units=GPa)
#
#
# Indices 1 2 3 4 5 6 
#
# 1 99.4510 43.1799 41.0156 0.0000 0.0000 0.0000
# 2 43.1799 43.9634 39.3080 0.0000 0.0000 0.0000
# 3 41.0156 39.3080 111.8428 0.0000 0.0000 0.0000
# 4 0.0000 0.0000 0.0000 12.8518 0.0000 0.0000
# 5 0.0000 0.0000 0.0000 0.0000 20.9939 0.0000
# 6 0.0000 0.0000 0.0000 0.0000 0.0000 8.8738
#
#
#
# Elastic Compliance Matrix: (Units=1/GPa)
#
#
# Indices 1 2 3 4 5 6 
#
# 1 0.017555 -0.016749 -0.000551 0.000000 0.000000 0.000000
# 2 -0.016749 0.049150 -0.011132 0.000000 0.000000 0.000000
# 3 -0.000551 -0.011132 0.013056 0.000000 0.000000 0.000000
# 4 0.000000 0.000000 0.000000 0.077810 0.000000 0.000000
# 5 0.000000 0.000000 0.000000 0.000000 0.047633 0.000000
# 6 0.000000 0.000000 0.000000 0.000000 0.000000 0.112691
#
#
# Mechanical properties :
#
#
# Convention : Reuss Voigt Hill
#
# Bulk Modulus (GPa) = 43.67563 55.80715 49.74139
# Shear Modulus (GPa) = 13.07566 17.32749 15.20158
#
# Velocity S-wave (km/s) = 2.78572 3.20681 3.00365
# Velocity P-wave (km/s) = 6.02228 6.84342 6.44594
#
# Compressibility (1/GPa) = 0.02289607
#
# Stress axis : x y z
#
# Youngs Moduli (GPa) = 56.96504 20.34604 76.59552
#
# Poissons Ratio (x) = 0.34077 0.04222
# Poissons Ratio (y) = 0.95410 0.85264
# Poissons Ratio (z) = 0.03140 0.22649
#
# Static dielectric constant tensor:
#      x y z
#    x 1.596960 0.000000 0.000000 
#    y 0.000000 1.584430 0.000000 
#    z 0.000000 0.000000 1.632800 
# 
# From -- ./inp_files/7991.got.cif
#   From: 2010.05.17/outbox.cif.g08.bks.cpg/sg46_4_cif.got.tgz:7991.got - 2010.06.03 19:58:25.
