data_PCOD9377295
_publ_section_title
;
Structure prediction by ZEFSAII (Michael W. Deem and Ramdas Pophale) SiO2 
 PCOD9377295
Probable space group: I B A 2
;
_chemical_formula_sum "Si O2"
_cell_formula_units_Z 56
_cell_length_a 14.707972
_cell_length_b 18.656996
_cell_length_c 8.643055
_cell_angle_alpha 90.000000
_cell_angle_beta 90.000000
_cell_angle_gamma 90.000000
_cell_volume 2371.711118
_symmetry_space_group_name_H-M "I B A 2"
_symmetry_group_IT_number 45
_symmetry_cell_setting 'orthorhombic'
loop_
_space_group_symop_operation_xyz
x,y,z
-x,-y,z
-x,y,1/2+z
x,-y,1/2+z
1/2+x,1/2+y,1/2+z
1/2-x,1/2-y,1/2+z
1/2-x,1/2+y,z
1/2+x,1/2-y,z
loop_
_atom_site_type_symbol
_atom_site_label
_atom_site_fract_x
_atom_site_fract_y
_atom_site_fract_z
Si Si1 0.961121 0.760143 0.614470
Si Si2 0.409746 0.589182 0.472203
Si Si3 0.121709 0.280452 0.930889
Si Si4 0.209700 0.322765 0.477771
Si Si5 0.500000 0.500000 0.713518
Si Si6 0.500000 0.000000 0.555772
Si Si7 0.224036 0.593825 0.292998
Si Si8 0.630978 0.057180 0.297675
O O1 0.949576 0.839744 0.548613
O O2 0.936251 0.755655 0.793709
O O3 0.885099 0.713028 0.526926
O O4 0.060613 0.729257 0.581339
O O5 0.419992 0.527230 0.601404
O O6 0.467974 0.563180 0.325347
O O7 0.309305 0.598919 0.406973
O O8 0.144084 0.360413 0.874700
O O9 0.215740 0.237510 0.945283
O O10 0.241238 0.369859 0.626167
O O11 0.191206 0.373492 0.330708
O O12 0.428334 0.957521 0.451659
O O13 0.556640 0.945590 0.662790
O O14 0.193732 0.512249 0.273045
#
# Coordination Sequence:
#
# PCOD9377295 Si02
#       8
#     8   8   8   8   4   4   8   8
#     4  11  26  46  76 103 142 191 236 298 364 422
#     4  11  24  48  68 109 137 191 233 304 351 434
#     4  11  27  47  74 105 146 189 243 297 361 432
#     4  11  26  48  71 109 141 194 240 296 358 433
#     4  10  26  42  78 100 144 184 248 284 368 422
#     4  10  24  42  68 106 138 184 236 290 362 422
#     4  11  26  45  69 106 145 187 236 303 359 428
#     4  11  24  44  71 102 144 185 236 297 352 433
#
# _framework density 23.611643999999998
#
# number of rings (size 3 to 8) (size 9 to 14) (size 15 to 20)
#    0.000    1.143    2.857    0.857   10.000    3.429 
#    0.000    0.000    0.000    0.000    0.000    0.000 
#    0.000    0.000    0.000    0.000    0.000    0.000 
#
# Total GULP energy -156963.719738 kJ/mol
# GULP energy per Si atom -5605.847134 kJ/mol
# Density = 2.355790 g / cm^3
# Si number density = 23.611644 Si / 1000 Ang^3
#
#
#
# Elastic Constant Matrix: (Units=GPa)
#
#
# Indices 1 2 3 4 5 6 
#
# 1 65.8979 7.4369 11.2349 0.0000 0.0000 0.0000
# 2 7.4369 85.3068 15.0510 0.0000 0.0000 0.0000
# 3 11.2349 15.0510 85.4609 0.0000 0.0000 0.0000
# 4 0.0000 0.0000 0.0000 35.3431 0.0000 0.0000
# 5 0.0000 0.0000 0.0000 0.0000 36.3600 0.0000
# 6 0.0000 0.0000 0.0000 0.0000 0.0000 22.2195
#
#
#
# Elastic Compliance Matrix: (Units=1/GPa)
#
#
# Indices 1 2 3 4 5 6 
#
# 1 0.015610 -0.001031 -0.001871 0.000000 0.000000 0.000000
# 2 -0.001031 0.012166 -0.002007 0.000000 0.000000 0.000000
# 3 -0.001871 -0.002007 0.012301 0.000000 0.000000 0.000000
# 4 0.000000 0.000000 0.000000 0.028294 0.000000 0.000000
# 5 0.000000 0.000000 0.000000 0.000000 0.027503 0.000000
# 6 0.000000 0.000000 0.000000 0.000000 0.000000 0.045005
#
#
# Mechanical properties :
#
#
# Convention : Reuss Voigt Hill
#
# Bulk Modulus (GPa) = 33.04687 33.79014 33.41851
# Shear Modulus (GPa) = 31.09770 32.31403 31.70587
#
# Velocity S-wave (km/s) = 3.63305 3.70342 3.66841
# Velocity P-wave (km/s) = 5.62363 5.71218 5.66808
#
# Compressibility (1/GPa) = 0.03026005
#
# Stress axis : x y z
#
# Youngs Moduli (GPa) = 64.06046 82.19361 81.29636
#
# Poissons Ratio (x) = 0.08473 0.15208
# Poissons Ratio (y) = 0.06604 0.16318
# Poissons Ratio (z) = 0.11983 0.16498
#
# Static dielectric constant tensor:
#      x y z
#    x 1.860320 0.000000 0.000000 
#    y 0.000000 1.888970 0.000000 
#    z 0.000000 0.000000 1.906950 
# 
# From -- ./inp_files/1855.got.cif
#   From: 2010.05.17/outbox.cif.g08.bks.cpg/sg45_1_cif.got.tgz:1855.got - 2010.06.03 19:51:22.
