data_PCOD9377715
_publ_section_title
;
Structure prediction by ZEFSAII (Michael W. Deem and Ramdas Pophale) SiO2 
 PCOD9377715
Probable space group: I B A 2
;
_chemical_formula_sum "Si O2"
_cell_formula_units_Z 40
_cell_length_a 22.096600
_cell_length_b 8.696075
_cell_length_c 7.495938
_cell_angle_alpha 90.000000
_cell_angle_beta 90.000000
_cell_angle_gamma 90.000000
_cell_volume 1440.372153
_symmetry_space_group_name_H-M "I B A 2"
_symmetry_group_IT_number 45
_symmetry_cell_setting 'orthorhombic'
loop_
_space_group_symop_operation_xyz
x,y,z
-x,-y,z
-x,y,1/2+z
x,-y,1/2+z
1/2+x,1/2+y,1/2+z
1/2-x,1/2-y,1/2+z
1/2-x,1/2+y,z
1/2+x,1/2-y,z
loop_
_atom_site_type_symbol
_atom_site_label
_atom_site_fract_x
_atom_site_fract_y
_atom_site_fract_z
Si Si1 0.800126 0.861199 0.607510
Si Si2 0.134939 0.160810 0.966742
Si Si3 0.443890 0.113621 0.916952
Si Si4 0.975393 0.168545 0.219834
Si Si5 0.680312 0.869941 0.788203
O O1 0.827860 0.795371 0.789396
O O2 0.737602 0.938296 0.681493
O O3 0.795074 0.733826 0.452777
O O4 0.843108 0.991849 0.526152
O O5 0.066551 0.157763 0.895116
O O6 0.151669 0.263005 0.134919
O O7 0.468902 0.220294 0.760340
O O8 0.378951 0.042006 0.866590
O O9 0.500000 0.000000 0.953159
O O10 0.437577 0.236458 0.074833
O O11 0.000000 0.000000 0.178502
#
# Coordination Sequence:
#
# PCOD9377715 Si02
#       5
#     8   8   8   8   8
#     4  12  25  47  80 120 158 219 284 357 428 496
#     4  12  26  48  80 118 157 211 291 359 423 506
#     4  12  28  53  79 123 175 226 277 352 444 518
#     4  12  27  49  85 121 161 220 290 358 423 504
#     4  12  26  51  79 118 172 215 281 353 429 527
#
# _framework density 27.770600999999999
#
# number of rings (size 3 to 8) (size 9 to 14) (size 15 to 20)
#    0.000    0.000    6.000    3.600    2.800    0.000 
#   14.400    1.000    0.000    0.000    0.000    0.000 
#    0.000    0.000    0.000    0.000    0.000    0.000 
#
# Total GULP energy -112160.851852 kJ/mol
# GULP energy per Si atom -5608.042593 kJ/mol
# Density = 2.770739 g / cm^3
# Si number density = 27.770601 Si / 1000 Ang^3
#
#
#
# Elastic Constant Matrix: (Units=GPa)
#
#
# Indices 1 2 3 4 5 6 
#
# 1 177.5742 38.7657 54.6557 0.0000 0.0000 0.0000
# 2 38.7657 113.0579 52.9360 0.0000 0.0000 0.0000
# 3 54.6557 52.9360 193.9833 0.0000 0.0000 0.0000
# 4 0.0000 0.0000 0.0000 79.4925 0.0000 0.0000
# 5 0.0000 0.0000 0.0000 0.0000 67.5824 0.0000
# 6 0.0000 0.0000 0.0000 0.0000 0.0000 38.9534
#
#
#
# Elastic Compliance Matrix: (Units=1/GPa)
#
#
# Indices 1 2 3 4 5 6 
#
# 1 0.006394 -0.001546 -0.001379 0.000000 0.000000 0.000000
# 2 -0.001546 0.010515 -0.002434 0.000000 0.000000 0.000000
# 3 -0.001379 -0.002434 0.006208 0.000000 0.000000 0.000000
# 4 0.000000 0.000000 0.000000 0.012580 0.000000 0.000000
# 5 0.000000 0.000000 0.000000 0.000000 0.014797 0.000000
# 6 0.000000 0.000000 0.000000 0.000000 0.000000 0.025672
#
#
# Mechanical properties :
#
#
# Convention : Reuss Voigt Hill
#
# Bulk Modulus (GPa) = 80.66304 86.37005 83.51654
# Shear Modulus (GPa) = 54.93547 59.75618 57.34582
#
# Velocity S-wave (km/s) = 4.45251 4.64376 4.54914
# Velocity P-wave (km/s) = 7.45267 7.74089 7.59815
#
# Compressibility (1/GPa) = 0.01239725
#
# Stress axis : x y z
#
# Youngs Moduli (GPa) = 156.40610 95.10457 161.08593
#
# Poissons Ratio (x) = 0.14707 0.22221
# Poissons Ratio (y) = 0.24186 0.39203
# Poissons Ratio (z) = 0.21575 0.23145
#
# Static dielectric constant tensor:
#      x y z
#    x 2.248030 0.000000 0.000000 
#    y 0.000000 1.873550 0.000000 
#    z 0.000000 0.000000 2.137180 
# 
# From -- ./inp_files/2454.got.cif
#   From: 2010.05.17/outbox.cif.g08.bks.cpg/sg45_2_cif.got.tgz:2454.got - 2010.06.03 19:51:22.
