data_PCOD9377495
_publ_section_title
;
Structure prediction by ZEFSAII (Michael W. Deem and Ramdas Pophale) SiO2 
 PCOD9377495
Probable space group: I B A 2
;
_chemical_formula_sum "Si O2"
_cell_formula_units_Z 64
_cell_length_a 8.005177
_cell_length_b 23.345479
_cell_length_c 15.125955
_cell_angle_alpha 90.000000
_cell_angle_beta 90.000000
_cell_angle_gamma 90.000000
_cell_volume 2826.809434
_symmetry_space_group_name_H-M "I B A 2"
_symmetry_group_IT_number 45
_symmetry_cell_setting 'orthorhombic'
loop_
_space_group_symop_operation_xyz
x,y,z
-x,-y,z
-x,y,1/2+z
x,-y,1/2+z
1/2+x,1/2+y,1/2+z
1/2-x,1/2-y,1/2+z
1/2-x,1/2+y,z
1/2+x,1/2-y,z
loop_
_atom_site_type_symbol
_atom_site_label
_atom_site_fract_x
_atom_site_fract_y
_atom_site_fract_z
Si Si1 0.296859 0.503439 0.619410
Si Si2 0.368520 0.787331 0.951812
Si Si3 0.851538 0.703385 0.331881
Si Si4 0.806784 0.910231 0.768771
Si Si5 0.788973 0.087448 0.767436
Si Si6 0.204251 0.998318 0.916253
Si Si7 0.103346 0.213029 0.577508
Si Si8 0.672697 0.296289 0.196908
O O1 0.500000 0.500000 0.617217
O O2 0.254000 0.559631 0.677249
O O3 0.240350 0.451508 0.683294
O O4 0.237855 0.501081 0.518013
O O5 0.275512 0.738140 0.895083
O O6 0.497116 0.820216 0.890375
O O7 0.228366 0.818602 0.010454
O O8 0.487069 0.753574 0.018874
O O9 0.762625 0.653021 0.279869
O O10 0.912177 0.753167 0.266045
O O11 0.008195 0.911290 0.772752
O O12 0.748587 0.948142 0.853245
O O13 0.738959 0.056656 0.858519
O O14 0.737929 0.152245 0.747116
O O15 0.000000 0.000000 0.919285
O O16 0.207669 0.256086 0.639329
O O17 0.971972 0.177456 0.634550
#
# Coordination Sequence:
#
# PCOD9377495 Si02
#       8
#     8   8   8   8   8   8   8   8
#     4   8  15  29  48  72 107 146 187 242 298 342
#     4   9  20  36  52  75 113 153 193 234 279 353
#     4  11  20  34  55  82 118 155 189 236 299 361
#     4   9  17  29  48  78 112 148 189 239 298 354
#     4   9  17  29  48  78 113 148 190 236 293 353
#     4   8  15  29  48  73 109 148 189 245 302 346
#     4   9  20  36  52  75 112 152 194 234 279 348
#     4  11  20  34  55  81 116 154 188 234 292 353
#
# _framework density 22.640367000000001
#
# number of rings (size 3 to 8) (size 9 to 14) (size 15 to 20)
#    0.000    2.750    0.000    3.750    0.000    3.000 
#    0.000   15.000    0.000    0.000    0.000   14.000 
#    0.000  114.000    0.000    2.000    0.000    0.000 
#
# Total GULP energy -178586.022058 kJ/mol
# GULP energy per Si atom -5580.813189 kJ/mol
# Density = 2.258884 g / cm^3
# Si number density = 22.640367 Si / 1000 Ang^3
#
#
#
# Elastic Constant Matrix: (Units=GPa)
#
#
# Indices 1 2 3 4 5 6 
#
# 1 44.7148 -4.6922 29.0645 0.0000 0.0000 0.0000
# 2 -4.6922 85.9746 46.4733 0.0000 0.0000 0.0000
# 3 29.0645 46.4733 169.7352 0.0000 0.0000 0.0000
# 4 0.0000 0.0000 0.0000 22.8348 0.0000 0.0000
# 5 0.0000 0.0000 0.0000 0.0000 42.6422 0.0000
# 6 0.0000 0.0000 0.0000 0.0000 0.0000 12.7424
#
#
#
# Elastic Compliance Matrix: (Units=1/GPa)
#
#
# Indices 1 2 3 4 5 6 
#
# 1 0.026629 0.004599 -0.005819 0.000000 0.000000 0.000000
# 2 0.004599 0.014446 -0.004743 0.000000 0.000000 0.000000
# 3 -0.005819 -0.004743 0.008186 0.000000 0.000000 0.000000
# 4 0.000000 0.000000 0.000000 0.043793 0.000000 0.000000
# 5 0.000000 0.000000 0.000000 0.000000 0.023451 0.000000
# 6 0.000000 0.000000 0.000000 0.000000 0.000000 0.078478
#
#
# Mechanical properties :
#
#
# Convention : Reuss Voigt Hill
#
# Bulk Modulus (GPa) = 26.78426 49.12399 37.95413
# Shear Modulus (GPa) = 22.79420 30.94917 26.87168
#
# Velocity S-wave (km/s) = 3.17645 3.70129 3.44887
# Velocity P-wave (km/s) = 5.03081 6.32540 5.71488
#
# Compressibility (1/GPa) = 0.03733536
#
# Stress axis : x y z
#
# Youngs Moduli (GPa) = 37.55335 69.22337 122.15269
#
# Poissons Ratio (x) = -0.31834 0.71079
# Poissons Ratio (y) = -0.17270 0.57934
# Poissons Ratio (z) = 0.21852 0.32831
#
# Static dielectric constant tensor:
#      x y z
#    x 1.860500 0.000000 0.000000 
#    y 0.000000 1.792250 0.000000 
#    z 0.000000 0.000000 1.895700 
# 
# From -- ./inp_files/5844.got.cif
#   From: 2010.05.17/outbox.cif.g08.bks.cpg/sg45_3_cif.got.tgz:5844.got - 2010.06.03 19:51:22.
