data_PCOD9377592
_publ_section_title
;
Structure prediction by ZEFSAII (Michael W. Deem and Ramdas Pophale) SiO2 
 PCOD9377592
Probable space group: I B A 2
;
_chemical_formula_sum "Si O2"
_cell_formula_units_Z 32
_cell_length_a 8.329327
_cell_length_b 17.892122
_cell_length_c 8.837759
_cell_angle_alpha 90.000000
_cell_angle_beta 90.000000
_cell_angle_gamma 90.000000
_cell_volume 1317.085345
_symmetry_space_group_name_H-M "I B A 2"
_symmetry_group_IT_number 45
_symmetry_cell_setting 'orthorhombic'
loop_
_space_group_symop_operation_xyz
x,y,z
-x,-y,z
-x,y,1/2+z
x,-y,1/2+z
1/2+x,1/2+y,1/2+z
1/2-x,1/2-y,1/2+z
1/2-x,1/2+y,z
1/2+x,1/2-y,z
loop_
_atom_site_type_symbol
_atom_site_label
_atom_site_fract_x
_atom_site_fract_y
_atom_site_fract_z
Si Si1 0.128261 0.432748 0.391970
Si Si2 0.174427 0.013898 0.609114
Si Si3 0.214801 0.208719 0.814373
Si Si4 0.617012 0.667074 0.971632
O O1 0.209390 0.457819 0.236904
O O2 0.129578 0.343287 0.361465
O O3 0.338878 0.302734 0.140232
O O4 0.000000 0.500000 0.421001
O O5 0.150723 0.078927 0.484582
O O6 0.251780 0.942919 0.531843
O O7 0.000000 0.000000 0.675332
O O8 0.266352 0.292255 0.853731
O O9 0.062428 0.184253 0.915760
#
# Coordination Sequence:
#
# PCOD9377592 Si02
#       4
#     8   8   8   8
#     4  11  25  43  69 104 139 183 232 295 352 417
#     4  11  23  44  71  98 139 187 231 287 352 425
#     4  11  25  46  69 103 143 186 238 290 354 424
#     4  11  25  44  69 103 137 191 233 291 354 418
#
# _framework density 24.296071000000001
#
# number of rings (size 3 to 8) (size 9 to 14) (size 15 to 20)
#    0.000    1.000    2.500    3.000    7.000    2.000 
#    0.000    0.000    0.000    0.000    0.000    0.000 
#    0.000    0.000    0.000    0.000    0.000    0.000 
#
# Total GULP energy -89351.290343 kJ/mol
# GULP energy per Si atom -5584.455646 kJ/mol
# Density = 2.424077 g / cm^3
# Si number density = 24.296071 Si / 1000 Ang^3
#
#
#
# Elastic Constant Matrix: (Units=GPa)
#
#
# Indices 1 2 3 4 5 6 
#
# 1 85.7133 0.2528 2.1814 0.0000 0.0000 0.0000
# 2 0.2528 29.5921 12.8336 -0.0001 0.0000 0.0000
# 3 2.1814 12.8336 67.1616 0.0001 0.0001 -0.0001
# 4 0.0000 -0.0001 0.0001 39.7369 0.0000 0.0000
# 5 0.0000 0.0000 0.0001 0.0000 34.7590 0.0000
# 6 0.0000 0.0000 -0.0001 0.0000 0.0000 31.3050
#
#
#
# Elastic Compliance Matrix: (Units=1/GPa)
#
#
# Indices 1 2 3 4 5 6 
#
# 1 0.011677 0.000071 -0.000393 0.000000 0.000000 0.000000
# 2 0.000071 0.036847 -0.007043 0.000000 0.000000 0.000000
# 3 -0.000393 -0.007043 0.016248 0.000000 0.000000 0.000000
# 4 0.000000 0.000000 0.000000 0.025165 0.000000 0.000000
# 5 0.000000 0.000000 0.000000 0.000000 0.028770 0.000000
# 6 0.000000 0.000000 0.000000 0.000000 0.000000 0.031944
#
#
# Mechanical properties :
#
#
# Convention : Reuss Voigt Hill
#
# Bulk Modulus (GPa) = 19.98374 23.66695 21.82534
# Shear Modulus (GPa) = 27.46331 32.30680 29.88506
#
# Velocity S-wave (km/s) = 3.36573 3.65048 3.51099
# Velocity P-wave (km/s) = 4.83189 5.24692 5.04368
#
# Compressibility (1/GPa) = 0.05004070
#
# Stress axis : x y z
#
# Youngs Moduli (GPa) = 85.64149 27.13948 61.54578
#
# Poissons Ratio (x) = -0.00192 0.02417
# Poissons Ratio (y) = -0.00604 0.43348
# Poissons Ratio (z) = 0.03363 0.19115
#
# Static dielectric constant tensor:
#      x y z
#    x 1.998330 0.000000 0.000000 
#    y 0.000000 2.040270 0.000000 
#    z 0.000000 0.000000 1.881640 
# 
# From -- ./inp_files/3113.got.cif
#   From: 2010.05.17/outbox.cif.g08.bks.cpg/sg45_2_cif.got.tgz:3113.got - 2010.06.03 19:51:22.
