data_PCOD9377602
_publ_section_title
;
Structure prediction by ZEFSAII (Michael W. Deem and Ramdas Pophale) SiO2 
 PCOD9377602
Probable space group: I B A 2
;
_chemical_formula_sum "Si O2"
_cell_formula_units_Z 60
_cell_length_a 15.917466
_cell_length_b 9.288415
_cell_length_c 19.062663
_cell_angle_alpha 90.000000
_cell_angle_beta 90.000000
_cell_angle_gamma 90.000000
_cell_volume 2818.377170
_symmetry_space_group_name_H-M "I B A 2"
_symmetry_group_IT_number 45
_symmetry_cell_setting 'orthorhombic'
loop_
_space_group_symop_operation_xyz
x,y,z
-x,-y,z
-x,y,1/2+z
x,-y,1/2+z
1/2+x,1/2+y,1/2+z
1/2-x,1/2-y,1/2+z
1/2-x,1/2+y,z
1/2+x,1/2-y,z
loop_
_atom_site_type_symbol
_atom_site_label
_atom_site_fract_x
_atom_site_fract_y
_atom_site_fract_z
Si Si1 0.742865 0.326518 0.198660
Si Si2 0.880665 0.265825 0.501568
Si Si3 0.362920 0.201590 0.909523
Si Si4 0.000000 0.500000 0.936260
Si Si5 0.091374 0.044693 0.119018
Si Si6 0.807974 0.225687 0.056669
Si Si7 0.401354 0.469931 0.378285
Si Si8 0.748767 0.568654 0.292108
O O1 0.656160 0.401780 0.177191
O O2 0.796976 0.317100 0.127951
O O3 0.776348 0.411551 0.266291
O O4 0.728622 0.166896 0.226061
O O5 0.934347 0.403755 0.479991
O O6 0.920975 0.176858 0.565432
O O7 0.786164 0.304998 0.526687
O O8 0.883509 0.150431 0.437522
O O9 0.448746 0.118647 0.892332
O O10 0.363829 0.372492 0.896899
O O11 0.294165 0.124556 0.861715
O O12 0.350125 0.189755 0.992879
O O13 0.138762 0.915879 0.076954
O O14 0.000000 0.000000 0.145100
O O15 0.500000 0.500000 0.370468
O O16 0.349873 0.424190 0.309759
#
# Coordination Sequence:
#
# PCOD9377602 Si02
#       8
#     8   8   8   4   8   8   8   8
#     4  11  26  46  68 104 142 187 241 287 364 427
#     4  11  24  41  69 108 149 179 238 302 363 425
#     4  12  26  43  72 106 141 186 242 293 362 421
#     4  12  28  40  64 116 150 172 232 318 356 414
#     4  11  23  45  72 104 143 192 244 293 357 440
#     4  11  24  44  77 104 137 194 236 298 357 436
#     4  12  24  45  72 105 139 190 243 297 355 431
#     4  12  26  47  69 104 144 191 234 294 359 440
#
# _framework density 21.288847000000001
#
# number of rings (size 3 to 8) (size 9 to 14) (size 15 to 20)
#    0.000    0.533    6.667    1.200    7.467    0.533 
#    0.000    1.333    0.000    0.800    0.000    0.000 
#    0.000    0.000    0.000    0.000    0.000    0.000 
#
# Total GULP energy -167581.544546 kJ/mol
# GULP energy per Si atom -5586.051485 kJ/mol
# Density = 2.124039 g / cm^3
# Si number density = 21.288847 Si / 1000 Ang^3
#
#
#
# Elastic Constant Matrix: (Units=GPa)
#
#
# Indices 1 2 3 4 5 6 
#
# 1 86.9737 32.1294 17.5453 0.0000 0.0000 0.0000
# 2 32.1294 100.1590 16.2825 0.0000 0.0000 0.0000
# 3 17.5453 16.2825 69.9767 0.0000 0.0000 0.0000
# 4 0.0000 0.0000 0.0000 26.0274 0.0000 0.0000
# 5 0.0000 0.0000 0.0000 0.0000 5.7296 0.0000
# 6 0.0000 0.0000 0.0000 0.0000 0.0000 31.2000
#
#
#
# Elastic Compliance Matrix: (Units=1/GPa)
#
#
# Indices 1 2 3 4 5 6 
#
# 1 0.013439 -0.003911 -0.002459 0.000000 0.000000 0.000000
# 2 -0.003911 0.011515 -0.001699 0.000000 0.000000 0.000000
# 3 -0.002459 -0.001699 0.015302 0.000000 0.000000 0.000000
# 4 0.000000 0.000000 0.000000 0.038421 0.000000 0.000000
# 5 0.000000 0.000000 0.000000 0.000000 0.174533 0.000000
# 6 0.000000 0.000000 0.000000 0.000000 0.000000 0.032051
#
#
# Mechanical properties :
#
#
# Convention : Reuss Voigt Hill
#
# Bulk Modulus (GPa) = 41.46366 43.22486 42.34426
# Shear Modulus (GPa) = 16.15828 25.33486 20.74657
#
# Velocity S-wave (km/s) = 2.75799 3.45346 3.12513
# Velocity P-wave (km/s) = 5.44619 6.02079 5.74068
#
# Compressibility (1/GPa) = 0.02411751
#
# Stress axis : x y z
#
# Youngs Moduli (GPa) = 74.41197 86.84400 65.34923
#
# Poissons Ratio (x) = 0.33966 0.16072
# Poissons Ratio (y) = 0.29103 0.11101
# Poissons Ratio (z) = 0.18301 0.14752
#
# Static dielectric constant tensor:
#      x y z
#    x 1.790740 0.000000 0.000000 
#    y 0.000000 1.767650 0.000000 
#    z 0.000000 0.000000 1.771520 
# 
# From -- ./inp_files/8368.got.cif
#   From: 2010.05.17/outbox.cif.g08.bks.cpg/sg45_5_cif.got.tgz:8368.got - 2010.06.03 19:51:22.
