data_PCOD9377188
_publ_section_title
;
Structure prediction by ZEFSAII (Michael W. Deem and Ramdas Pophale) SiO2 
 PCOD9377188
Probable space group: I B A 2
;
_chemical_formula_sum "Si O2"
_cell_formula_units_Z 64
_cell_length_a 14.761009
_cell_length_b 9.821136
_cell_length_c 20.904789
_cell_angle_alpha 90.000000
_cell_angle_beta 90.000000
_cell_angle_gamma 90.000000
_cell_volume 3030.564688
_symmetry_space_group_name_H-M "I B A 2"
_symmetry_group_IT_number 45
_symmetry_cell_setting 'orthorhombic'
loop_
_space_group_symop_operation_xyz
x,y,z
-x,-y,z
-x,y,1/2+z
x,-y,1/2+z
1/2+x,1/2+y,1/2+z
1/2-x,1/2-y,1/2+z
1/2-x,1/2+y,z
1/2+x,1/2-y,z
loop_
_atom_site_type_symbol
_atom_site_label
_atom_site_fract_x
_atom_site_fract_y
_atom_site_fract_z
Si Si1 0.994804 0.151032 0.731730
Si Si2 0.428667 0.615711 0.873614
Si Si3 0.218208 0.610745 0.103842
Si Si4 0.407548 0.079716 0.425590
Si Si5 0.478079 0.849698 0.625609
Si Si6 0.763282 0.518075 0.327653
Si Si7 0.666941 0.164319 0.056644
Si Si8 0.784612 0.774116 0.240589
O O1 0.042270 0.252704 0.684183
O O2 0.891860 0.199852 0.736104
O O3 0.039804 0.143524 0.800695
O O4 0.000000 0.000000 0.703748
O O5 0.500000 0.500000 0.898228
O O6 0.429249 0.763465 0.906328
O O7 0.326450 0.557697 0.868055
O O8 0.282336 0.692620 0.056131
O O9 0.221313 0.446875 0.099659
O O10 0.243415 0.672454 0.173573
O O11 0.113930 0.641807 0.086300
O O12 0.346044 0.095860 0.488262
O O13 0.500000 0.000000 0.439816
O O14 0.351958 0.996115 0.371723
O O15 0.567429 0.810484 0.586648
O O16 0.500000 0.000000 0.651290
O O17 0.769699 0.622643 0.267771
O O18 0.750786 0.370544 0.296855
#
# Coordination Sequence:
#
# PCOD9377188 Si02
#       8
#     8   8   8   8   8   8   8   8
#     4  11  22  38  66  98 145 172 219 288 356 420
#     4  11  24  46  67 102 140 184 234 295 355 421
#     4  11  24  43  72  98 139 182 229 296 352 418
#     4  12  28  48  73  98 141 192 243 293 352 426
#     4  10  23  42  63  96 135 178 228 280 345 416
#     4  12  25  43  68 103 141 187 236 285 356 424
#     4  11  26  49  68 102 135 184 241 287 351 422
#     4  12  23  41  69 104 144 178 232 293 356 429
#
# _framework density 21.118175999999998
#
# number of rings (size 3 to 8) (size 9 to 14) (size 15 to 20)
#    0.000    0.750    5.000    3.375    5.250    0.500 
#    2.250    0.625    0.000    0.000    0.000    0.000 
#    0.000    0.000    0.000    0.000    0.000    0.000 
#
# Total GULP energy -178780.930967 kJ/mol
# GULP energy per Si atom -5586.904093 kJ/mol
# Density = 2.107011 g / cm^3
# Si number density = 21.118176 Si / 1000 Ang^3
#
#
#
# Elastic Constant Matrix: (Units=GPa)
#
#
# Indices 1 2 3 4 5 6 
#
# 1 63.7378 28.3376 -16.2629 0.0000 0.0000 0.0000
# 2 28.3376 83.6140 11.4607 0.0000 0.0000 0.0000
# 3 -16.2629 11.4607 35.0322 0.0000 0.0000 0.0000
# 4 0.0000 0.0000 0.0000 132.8546 0.0000 0.0000
# 5 0.0000 0.0000 0.0000 0.0000 25.9162 0.0000
# 6 0.0000 0.0000 0.0000 0.0000 0.0000 33.6667
#
#
#
# Elastic Compliance Matrix: (Units=1/GPa)
#
#
# Indices 1 2 3 4 5 6 
#
# 1 0.023808 -0.010033 0.014335 0.000000 0.000000 0.000000
# 2 -0.010033 0.016750 -0.010137 0.000000 0.000000 0.000000
# 3 0.014335 -0.010137 0.038516 0.000000 0.000000 0.000000
# 4 0.000000 0.000000 0.000000 0.007527 0.000000 0.000000
# 5 0.000000 0.000000 0.000000 0.000000 0.038586 0.000000
# 6 0.000000 0.000000 0.000000 0.000000 0.000000 0.029703
#
#
# Mechanical properties :
#
#
# Convention : Reuss Voigt Hill
#
# Bulk Modulus (GPa) = 14.83664 25.49499 20.16581
# Shear Modulus (GPa) = 26.45101 49.07739 37.76420
#
# Velocity S-wave (km/s) = 3.54294 4.82596 4.23334
# Velocity P-wave (km/s) = 4.87620 6.56901 5.78486
#
# Compressibility (1/GPa) = 0.06740072
#
# Stress axis : x y z
#
# Youngs Moduli (GPa) = 42.00336 59.70276 25.96322
#
# Poissons Ratio (x) = 0.59902 -0.37217
# Poissons Ratio (y) = 0.42144 0.26320
# Poissons Ratio (z) = -0.60210 0.60523
#
# Static dielectric constant tensor:
#      x y z
#    x 1.796300 0.000000 0.000000 
#    y 0.000000 1.738490 0.000000 
#    z 0.000000 0.000000 1.774620 
# 
# From -- ./inp_files/9784.got.cif
#   From: 2010.05.17/outbox.cif.g08.bks.cpg/sg45_5_cif.got.tgz:9784.got - 2010.06.03 19:51:22.
