data_PCOD9377925
_publ_section_title
;
Structure prediction by ZEFSAII (Michael W. Deem and Ramdas Pophale) SiO2 
 PCOD9377925
Probable space group: I M A 2
;
_chemical_formula_sum "Si O2"
_cell_formula_units_Z 56
_cell_length_a 14.158303
_cell_length_b 19.737485
_cell_length_c 9.394157
_cell_angle_alpha 90.000000
_cell_angle_beta 90.000000
_cell_angle_gamma 90.000000
_cell_volume 2625.190533
_symmetry_space_group_name_H-M "I M A 2"
_symmetry_group_IT_number 46
_symmetry_cell_setting 'orthorhombic'
loop_
_space_group_symop_operation_xyz
x,y,z
-x,-y,z
1/2-x,y,z
1/2+x,-y,z
1/2+x,1/2+y,1/2+z
1/2-x,1/2-y,1/2+z
-x,1/2+y,1/2+z
x,1/2-y,1/2+z
loop_
_atom_site_type_symbol
_atom_site_label
_atom_site_fract_x
_atom_site_fract_y
_atom_site_fract_z
Si Si1 0.643340 0.843473 0.095530
Si Si2 0.903888 0.458039 0.843187
Si Si3 0.496002 0.859105 0.553787
Si Si4 0.356114 0.268899 0.887196
Si Si5 0.458544 0.571386 0.554182
Si Si6 0.148588 0.029317 0.617268
Si Si7 0.860208 0.115928 0.776787
O O1 0.750000 0.873595 0.110232
O O2 0.635832 0.787039 0.221015
O O3 0.637965 0.808114 0.940851
O O4 0.552669 0.890860 0.111381
O O5 0.882751 0.441051 0.680893
O O6 0.000000 0.500000 0.826785
O O7 0.846799 0.504143 0.952628
O O8 0.930036 0.391491 0.931743
O O9 0.565208 0.808019 0.476101
O O10 0.563086 0.918049 0.620817
O O11 0.424802 0.836729 0.676925
O O12 0.250000 0.292055 0.929403
O O13 0.500000 0.500000 0.499355
O O14 0.407671 0.611563 0.429872
O O15 0.250000 0.059383 0.658419
O O16 0.134698 0.960572 0.708285
O O17 0.750000 0.134361 0.779224
#
# Coordination Sequence:
#
# PCOD9377925 Si02
#       7
#     8   8   8   8   8   8   8
#     4  10  23  41  61  94 129 160 198 246 303 373
#     4   8  16  29  48  74 108 144 194 240 294 348
#     4  10  17  34  57  82 111 158 199 243 300 354
#     4  10  21  38  61  92 125 157 195 238 299 374
#     4  11  21  37  57  86 121 165 202 252 311 360
#     4   9  17  31  52  83 116 151 195 250 306 364
#     4  10  22  36  52  79 119 159 207 257 300 354
#
# _framework density 21.331783999999999
#
# number of rings (size 3 to 8) (size 9 to 14) (size 15 to 20)
#    0.000    2.286    1.429    2.571    2.000    1.143 
#    0.000    0.714    0.000    0.857    0.000    0.000 
#    0.000    0.000    0.000    0.000    0.000    0.000 
#
# Total GULP energy -156092.582915 kJ/mol
# GULP energy per Si atom -5574.735104 kJ/mol
# Density = 2.128323 g / cm^3
# Si number density = 21.331784 Si / 1000 Ang^3
#
#
#
# Elastic Constant Matrix: (Units=GPa)
#
#
# Indices 1 2 3 4 5 6 
#
# 1 103.4269 3.2509 24.3146 0.0000 0.0000 0.0000
# 2 3.2509 10.4611 -6.5950 0.0000 0.0000 0.0000
# 3 24.3146 -6.5950 91.9396 0.0000 0.0000 0.0000
# 4 0.0000 0.0000 0.0000 12.6703 0.0000 0.0000
# 5 0.0000 0.0000 0.0000 0.0000 11.3480 0.0000
# 6 0.0000 0.0000 0.0000 0.0000 0.0000 13.0113
#
#
#
# Elastic Compliance Matrix: (Units=1/GPa)
#
#
# Indices 1 2 3 4 5 6 
#
# 1 0.010582 -0.005292 -0.003178 0.000000 0.000000 0.000000
# 2 -0.005292 0.102767 0.008771 0.000000 0.000000 0.000000
# 3 -0.003178 0.008771 0.012346 0.000000 0.000000 0.000000
# 4 0.000000 0.000000 0.000000 0.078925 0.000000 0.000000
# 5 0.000000 0.000000 0.000000 0.000000 0.088121 0.000000
# 6 0.000000 0.000000 0.000000 0.000000 0.000000 0.076856
#
#
# Mechanical properties :
#
#
# Convention : Reuss Voigt Hill
#
# Bulk Modulus (GPa) = 7.91783 27.52983 17.72383
# Shear Modulus (GPa) = 12.16264 19.72973 15.94618
#
# Velocity S-wave (km/s) = 2.39040 3.04451 2.73707
# Velocity P-wave (km/s) = 3.36727 5.02915 4.27965
#
# Compressibility (1/GPa) = 0.12629722
#
# Stress axis : x y z
#
# Youngs Moduli (GPa) = 94.49866 9.73077 80.99528
#
# Poissons Ratio (x) = 0.05150 0.25742
# Poissons Ratio (y) = 0.50010 -0.71043
# Poissons Ratio (z) = 0.30034 -0.08535
#
# Static dielectric constant tensor:
#      x y z
#    x 1.703740 0.000000 0.000000 
#    y 0.000000 1.789890 0.000000 
#    z 0.000000 0.000000 1.827100 
# 
# From -- ./inp_files/5925.got.cif
#   From: 2010.05.17/outbox.cif.g08.bks.cpg/sg46_3_cif.got.tgz:5925.got - 2010.06.03 19:58:25.
