data_PCOD9377276
_publ_section_title
;
Structure prediction by ZEFSAII (Michael W. Deem and Ramdas Pophale) SiO2 
 PCOD9377276
Probable space group: I B A 2
;
_chemical_formula_sum "Si O2"
_cell_formula_units_Z 64
_cell_length_a 10.709224
_cell_length_b 30.736183
_cell_length_c 9.208334
_cell_angle_alpha 90.000000
_cell_angle_beta 90.000000
_cell_angle_gamma 90.000000
_cell_volume 3031.021377
_symmetry_space_group_name_H-M "I B A 2"
_symmetry_group_IT_number 45
_symmetry_cell_setting 'orthorhombic'
loop_
_space_group_symop_operation_xyz
x,y,z
-x,-y,z
-x,y,1/2+z
x,-y,1/2+z
1/2+x,1/2+y,1/2+z
1/2-x,1/2-y,1/2+z
1/2-x,1/2+y,z
1/2+x,1/2-y,z
loop_
_atom_site_type_symbol
_atom_site_label
_atom_site_fract_x
_atom_site_fract_y
_atom_site_fract_z
Si Si1 0.394655 0.549570 0.023180
Si Si2 0.625168 0.662715 0.070699
Si Si3 0.274038 0.786166 0.496422
Si Si4 0.190899 0.725287 0.703188
Si Si5 0.521360 0.844176 0.147434
Si Si6 0.840152 0.963760 0.367727
Si Si7 0.890303 0.139379 0.386100
Si Si8 0.149007 0.612279 0.422288
O O1 0.376853 0.540241 0.195736
O O2 0.325819 0.513063 0.925079
O O3 0.539428 0.550033 0.966472
O O4 0.350152 0.596762 0.973930
O O5 0.675755 0.707988 0.138631
O O6 0.592051 0.633599 0.213737
O O7 0.511301 0.659884 0.961267
O O8 0.741066 0.642601 0.984254
O O9 0.167980 0.764775 0.594181
O O10 0.308049 0.754968 0.363290
O O11 0.386593 0.808116 0.580357
O O12 0.217494 0.826136 0.407617
O O13 0.092700 0.686286 0.699572
O O14 0.594600 0.869015 0.273185
O O15 0.463161 0.879786 0.037203
O O16 0.719394 0.933843 0.399688
#
# Coordination Sequence:
#
# PCOD9377276 Si02
#       8
#     8   8   8   8   8   8   8   8
#     4  11  22  39  67 109 148 177 226 289 361 431
#     4  10  24  40  65  99 136 179 225 292 351 424
#     4  11  25  42  68  95 134 185 223 295 351 415
#     4  10  25  43  62  99 131 179 236 292 343 417
#     4  11  24  47  68  96 138 188 245 288 354 424
#     4  11  23  39  69 107 144 191 221 296 361 426
#     4  11  23  41  65 102 141 177 229 286 359 424
#     4  11  24  45  71  96 135 190 241 286 356 430
#
# _framework density 21.114996000000001
#
# number of rings (size 3 to 8) (size 9 to 14) (size 15 to 20)
#    0.000    1.250    2.500    3.000    8.750    0.000 
#    0.000    0.000    0.000    6.000    0.000    0.000 
#    0.000    0.000    0.000    0.000    0.000    0.000 
#
# Total GULP energy -178461.101146 kJ/mol
# GULP energy per Si atom -5576.909411 kJ/mol
# Density = 2.106694 g / cm^3
# Si number density = 21.114996 Si / 1000 Ang^3
#
#
#
# Elastic Constant Matrix: (Units=GPa)
#
#
# Indices 1 2 3 4 5 6 
#
# 1 68.3082 24.7474 47.0282 0.0005 0.0001 -0.0005
# 2 24.7474 49.1872 35.4062 -0.0007 -0.0007 0.0001
# 3 47.0282 35.4062 153.1527 -0.0022 -0.0015 -0.0013
# 4 0.0005 -0.0007 -0.0022 29.0550 -0.0004 0.0005
# 5 0.0001 -0.0007 -0.0015 -0.0004 40.0092 -0.0008
# 6 -0.0005 0.0001 -0.0013 0.0005 -0.0008 34.5837
#
#
#
# Elastic Compliance Matrix: (Units=1/GPa)
#
#
# Indices 1 2 3 4 5 6 
#
# 1 0.020337 -0.006882 -0.004654 -0.000001 0.000000 0.000000
# 2 -0.006882 0.026718 -0.004063 0.000000 0.000000 0.000000
# 3 -0.004654 -0.004063 0.008898 0.000001 0.000000 0.000000
# 4 -0.000001 0.000000 0.000001 0.034418 0.000000 -0.000001
# 5 0.000000 0.000000 0.000000 0.000000 0.024994 0.000001
# 6 0.000000 0.000000 0.000000 -0.000001 0.000001 0.028915
#
#
# Mechanical properties :
#
#
# Convention : Reuss Voigt Hill
#
# Bulk Modulus (GPa) = 40.39742 53.89019 47.14380
# Shear Modulus (GPa) = 27.21386 31.62732 29.42059
#
# Velocity S-wave (km/s) = 3.59394 3.87442 3.73681
# Velocity P-wave (km/s) = 6.03287 6.75222 6.40265
#
# Compressibility (1/GPa) = 0.02475406
#
# Stress axis : x y z
#
# Youngs Moduli (GPa) = 49.17184 37.42788 112.38662
#
# Poissons Ratio (x) = 0.25758 0.52302
# Poissons Ratio (y) = 0.33841 0.45668
# Poissons Ratio (z) = 0.22883 0.15209
#
# Static dielectric constant tensor:
#      x y z
#    x 1.757020 0.000000 0.000000 
#    y 0.000000 1.869760 0.000000 
#    z 0.000000 0.000000 1.846180 
# 
# From -- ./inp_files/1510.got.cif
#   From: 2010.05.17/outbox.cif.g08.bks.cpg/sg45_1_cif.got.tgz:1510.got - 2010.06.03 19:51:22.
