data_PCOD9377682
_publ_section_title
;
Structure prediction by ZEFSAII (Michael W. Deem and Ramdas Pophale) SiO2 
 PCOD9377682
Probable space group: I B A 2
;
_chemical_formula_sum "Si O2"
_cell_formula_units_Z 40
_cell_length_a 7.564136
_cell_length_b 22.934296
_cell_length_c 9.071647
_cell_angle_alpha 90.000000
_cell_angle_beta 90.000000
_cell_angle_gamma 90.000000
_cell_volume 1573.732394
_symmetry_space_group_name_H-M "I B A 2"
_symmetry_group_IT_number 45
_symmetry_cell_setting 'orthorhombic'
loop_
_space_group_symop_operation_xyz
x,y,z
-x,-y,z
-x,y,1/2+z
x,-y,1/2+z
1/2+x,1/2+y,1/2+z
1/2-x,1/2-y,1/2+z
1/2-x,1/2+y,z
1/2+x,1/2-y,z
loop_
_atom_site_type_symbol
_atom_site_label
_atom_site_fract_x
_atom_site_fract_y
_atom_site_fract_z
Si Si1 0.453998 0.061424 0.241270
Si Si2 0.291740 0.227407 0.819427
Si Si3 0.664541 0.386542 0.745330
Si Si4 0.381229 0.446198 0.945079
Si Si5 0.617494 0.816721 0.140700
O O1 0.641275 0.089136 0.294013
O O2 0.308587 0.045455 0.365358
O O3 0.374897 0.113409 0.140873
O O4 0.500000 0.000000 0.165443
O O5 0.137195 0.180390 0.790994
O O6 0.428462 0.204269 0.697896
O O7 0.238345 0.291512 0.772044
O O8 0.347995 0.214599 0.985902
O O9 0.512820 0.422571 0.822396
O O10 0.651723 0.399480 0.572947
O O11 0.500000 0.500000 0.008207
#
# Coordination Sequence:
#
# PCOD9377682 Si02
#       5
#     8   8   8   8   8
#     4  11  27  50  79 117 164 216 274 345 421 503
#     4  11  27  49  77 116 159 214 272 344 417 499
#     4  11  29  46  77 115 159 208 275 342 413 495
#     4  12  27  49  77 116 157 216 277 338 413 496
#     4  11  27  48  80 115 162 214 274 340 423 496
#
# _framework density 25.417280000000002
#
# number of rings (size 3 to 8) (size 9 to 14) (size 15 to 20)
#    0.000    0.800    2.000    1.800   19.600    0.800 
#    0.000    0.000    0.000    0.000    0.000    0.000 
#    0.000    0.000    0.000    0.000    0.000    0.000 
#
# Total GULP energy -111873.754368 kJ/mol
# GULP energy per Si atom -5593.687718 kJ/mol
# Density = 2.535943 g / cm^3
# Si number density = 25.417280 Si / 1000 Ang^3
#
#
#
# Elastic Constant Matrix: (Units=GPa)
#
#
# Indices 1 2 3 4 5 6 
#
# 1 116.3989 17.3554 24.5974 -0.0002 0.0001 -0.0002
# 2 17.3554 138.0132 45.3239 0.0002 0.0000 0.0001
# 3 24.5974 45.3239 147.6725 -0.0139 -0.0053 -0.0075
# 4 -0.0002 0.0002 -0.0139 23.7121 -0.0017 -0.0026
# 5 0.0001 0.0000 -0.0053 -0.0017 19.5918 -0.0011
# 6 -0.0002 0.0001 -0.0075 -0.0026 -0.0011 22.3937
#
#
#
# Elastic Compliance Matrix: (Units=1/GPa)
#
#
# Indices 1 2 3 4 5 6 
#
# 1 0.008966 -0.000708 -0.001276 -0.000001 0.000000 0.000000
# 2 -0.000708 0.008114 -0.002372 -0.000001 -0.000001 -0.000001
# 3 -0.001276 -0.002372 0.007712 0.000005 0.000002 0.000003
# 4 -0.000001 -0.000001 0.000005 0.042173 0.000004 0.000005
# 5 0.000000 -0.000001 0.000002 0.000004 0.051042 0.000003
# 6 0.000000 -0.000001 0.000003 0.000005 0.000003 0.044655
#
#
# Mechanical properties :
#
#
# Convention : Reuss Voigt Hill
#
# Bulk Modulus (GPa) = 62.19299 64.07090 63.13194
# Shear Modulus (GPa) = 28.29081 34.12670 31.20876
#
# Velocity S-wave (km/s) = 3.33987 3.66820 3.50788
# Velocity P-wave (km/s) = 6.27653 6.57292 6.42644
#
# Compressibility (1/GPa) = 0.01607898
#
# Stress axis : x y z
#
# Youngs Moduli (GPa) = 111.52699 123.24603 129.66120
#
# Poissons Ratio (x) = 0.08732 0.16546
# Poissons Ratio (y) = 0.07901 0.30760
# Poissons Ratio (z) = 0.14232 0.29238
#
# Static dielectric constant tensor:
#      x y z
#    x 2.083950 0.000000 0.000000 
#    y 0.000000 2.138800 0.000000 
#    z 0.000000 0.000000 1.939380 
# 
# From -- ./inp_files/954.got.cif
#   From: 2010.05.17/outbox.cif.g08.bks.cpg/sg45_1_cif.got.tgz:954.got - 2010.06.03 19:51:22.
