data_PCOD9377458
_publ_section_title
;
Structure prediction by ZEFSAII (Michael W. Deem and Ramdas Pophale) SiO2 
 PCOD9377458
Probable space group: I B A 2
;
_chemical_formula_sum "Si O2"
_cell_formula_units_Z 32
_cell_length_a 4.967722
_cell_length_b 22.838685
_cell_length_c 10.788955
_cell_angle_alpha 90.000000
_cell_angle_beta 90.000000
_cell_angle_gamma 90.000000
_cell_volume 1224.074245
_symmetry_space_group_name_H-M "I B A 2"
_symmetry_group_IT_number 45
_symmetry_cell_setting 'orthorhombic'
loop_
_space_group_symop_operation_xyz
x,y,z
-x,-y,z
-x,y,1/2+z
x,-y,1/2+z
1/2+x,1/2+y,1/2+z
1/2-x,1/2-y,1/2+z
1/2-x,1/2+y,z
1/2+x,1/2-y,z
loop_
_atom_site_type_symbol
_atom_site_label
_atom_site_fract_x
_atom_site_fract_y
_atom_site_fract_z
Si Si1 0.965959 0.791018 0.481460
Si Si2 0.325855 0.883608 0.409190
Si Si3 0.000000 0.000000 0.167726
Si Si4 0.500000 0.000000 0.835126
Si Si5 0.226754 0.374752 0.132045
O O1 0.716352 0.750245 0.454466
O O2 0.922831 0.818487 0.618461
O O3 0.038041 0.852161 0.414276
O O4 0.510024 0.863914 0.523157
O O5 0.408338 0.873423 0.266812
O O6 0.346622 0.953253 0.419326
O O7 0.125297 0.938278 0.114988
O O8 0.744139 0.978057 0.248827
#
# Coordination Sequence:
#
# PCOD9377458 Si02
#       5
#     8   8   4   4   8
#     4  12  28  52  75 114 160 221 272 327 393 485
#     4  11  28  50  85 122 165 210 277 335 423 483
#     4  10  26  46  82 122 170 208 266 328 430 494
#     4  10  26  46  80 124 166 212 260 340 416 504
#     4  11  28  50  87 121 167 211 272 344 415 495
#
# _framework density 26.142202999999999
#
# number of rings (size 3 to 8) (size 9 to 14) (size 15 to 20)
#    0.000    1.000    2.500    0.000   17.500    3.000 
#    0.000    0.000    0.000    0.000    0.000    0.000 
#    0.000    0.000    0.000    0.000    0.000    0.000 
#
# Total GULP energy -89213.375769 kJ/mol
# GULP energy per Si atom -5575.835986 kJ/mol
# Density = 2.608270 g / cm^3
# Si number density = 26.142203 Si / 1000 Ang^3
#
#
#
# Elastic Constant Matrix: (Units=GPa)
#
#
# Indices 1 2 3 4 5 6 
#
# 1 129.7179 0.7816 31.7134 0.0000 0.0000 0.0000
# 2 0.7816 69.1549 -5.7652 0.0000 0.0000 0.0000
# 3 31.7134 -5.7652 111.5918 0.0000 0.0000 0.0000
# 4 0.0000 0.0000 0.0000 25.3826 0.0000 0.0000
# 5 0.0000 0.0000 0.0000 0.0000 35.8683 0.0000
# 6 0.0000 0.0000 0.0000 0.0000 0.0000 63.7118
#
#
#
# Elastic Compliance Matrix: (Units=1/GPa)
#
#
# Indices 1 2 3 4 5 6 
#
# 1 0.008290 -0.000291 -0.002371 0.000000 0.000000 0.000000
# 2 -0.000291 0.014533 0.000834 0.000000 0.000000 0.000000
# 3 -0.002371 0.000834 0.009678 0.000000 0.000000 0.000000
# 4 0.000000 0.000000 0.000000 0.039397 0.000000 0.000000
# 5 0.000000 0.000000 0.000000 0.000000 0.027880 0.000000
# 6 0.000000 0.000000 0.000000 0.000000 0.000000 0.015696
#
#
# Mechanical properties :
#
#
# Convention : Reuss Voigt Hill
#
# Bulk Modulus (GPa) = 34.66930 40.43603 37.55267
# Shear Modulus (GPa) = 38.83595 43.90819 41.37207
#
# Velocity S-wave (km/s) = 3.85848 4.10273 3.98248
# Velocity P-wave (km/s) = 5.75683 6.15991 5.96178
#
# Compressibility (1/GPa) = 0.02884396
#
# Stress axis : x y z
#
# Youngs Moduli (GPa) = 120.62016 68.80851 103.32548
#
# Poissons Ratio (x) = 0.02005 0.24500
# Poissons Ratio (y) = 0.03515 -0.08614
# Poissons Ratio (z) = 0.28601 -0.05736
#
# Static dielectric constant tensor:
#      x y z
#    x 2.182590 0.000000 0.000000 
#    y 0.000000 2.187920 0.000000 
#    z 0.000000 0.000000 2.100410 
# 
# From -- ./inp_files/2884.got.cif
#   From: 2010.05.17/outbox.cif.g08.bks.cpg/sg45_2_cif.got.tgz:2884.got - 2010.06.03 19:51:22.
