data_PCOD9377968
_publ_section_title
;
Structure prediction by ZEFSAII (Michael W. Deem and Ramdas Pophale) SiO2 
 PCOD9377968
Probable space group: I M A 2
;
_chemical_formula_sum "Si O2"
_cell_formula_units_Z 64
_cell_length_a 8.617954
_cell_length_b 18.957651
_cell_length_c 27.274930
_cell_angle_alpha 90.000000
_cell_angle_beta 90.000000
_cell_angle_gamma 90.000000
_cell_volume 4456.073444
_symmetry_space_group_name_H-M "I M A 2"
_symmetry_group_IT_number 46
_symmetry_cell_setting 'orthorhombic'
loop_
_space_group_symop_operation_xyz
x,y,z
-x,-y,z
1/2-x,y,z
1/2+x,-y,z
1/2+x,1/2+y,1/2+z
1/2-x,1/2-y,1/2+z
-x,1/2+y,1/2+z
x,1/2-y,1/2+z
loop_
_atom_site_type_symbol
_atom_site_label
_atom_site_fract_x
_atom_site_fract_y
_atom_site_fract_z
Si Si1 0.065078 0.921689 0.835400
Si Si2 0.928930 0.704522 0.878907
Si Si3 0.936791 0.577472 0.524419
Si Si4 0.062245 0.078587 0.318274
Si Si5 0.560808 0.661140 0.429635
Si Si6 0.428947 0.295328 0.277851
Si Si7 0.934922 0.165122 0.225693
Si Si8 0.936661 0.578416 0.636743
O O1 0.250000 0.923254 0.838105
O O2 0.998880 0.889717 0.886373
O O3 0.011758 0.867830 0.792658
O O4 0.000000 0.000000 0.828105
O O5 0.750000 0.691961 0.893134
O O6 0.995313 0.629355 0.862632
O O7 0.996755 0.759453 0.917920
O O8 0.929418 0.749522 0.828303
O O9 0.750000 0.574653 0.523631
O O10 0.986462 0.631682 0.482409
O O11 0.983109 0.594062 0.580350
O O12 0.000000 0.500000 0.512292
O O13 0.250000 0.079442 0.317751
O O14 0.003853 0.114254 0.268035
O O15 0.000000 0.000000 0.322442
O O16 0.750000 0.661600 0.426712
O O17 0.250000 0.308119 0.264818
O O18 0.508645 0.244194 0.238465
O O19 0.750000 0.162130 0.227627
O O20 0.996128 0.134766 0.174523
O O21 0.750000 0.577348 0.640053
O O22 0.000000 0.500000 0.648613
#
# Coordination Sequence:
#
# PCOD9377968 Si02
#       8
#     8   8   8   8   8   8   8   8
#     4  11  20  29  42  63  88 116 146 176 208 248
#     4   7  13  25  41  57  77 103 132 164 204 246
#     4   9  18  29  43  60  81 108 141 178 215 251
#     4  10  18  28  41  59  82 111 141 173 208 246
#     4   9  16  29  45  61  81 110 144 178 214 254
#     4   9  17  31  46  61  82 109 138 173 210 248
#     4  11  20  30  44  62  82 109 141 173 209 255
#     4  10  19  31  43  59  82 110 142 179 216 252
#
# _framework density 14.362420999999999
#
# number of rings (size 3 to 8) (size 9 to 14) (size 15 to 20)
#    0.000    2.500    0.000    5.625    0.000    2.000 
#    0.000    0.625    0.000    0.000    0.000    0.000 
#    0.000    1.000    0.000    6.500    0.000    2.125 
#
# Total GULP energy -178264.014725 kJ/mol
# GULP energy per Si atom -5570.750460 kJ/mol
# Density = 1.432973 g / cm^3
# Si number density = 14.362421 Si / 1000 Ang^3
#
#
#
# Elastic Constant Matrix: (Units=GPa)
#
#
# Indices 1 2 3 4 5 6 
#
# 1 62.2124 30.3448 23.0926 0.0000 0.0000 0.0000
# 2 30.3448 109.8629 52.6663 0.0000 0.0000 0.0000
# 3 23.0926 52.6663 78.9117 0.0000 0.0000 0.0000
# 4 0.0000 0.0000 0.0000 28.0117 0.0000 0.0000
# 5 0.0000 0.0000 0.0000 0.0000 13.7044 0.0000
# 6 0.0000 0.0000 0.0000 0.0000 0.0000 21.5256
#
#
#
# Elastic Compliance Matrix: (Units=1/GPa)
#
#
# Indices 1 2 3 4 5 6 
#
# 1 0.019058 -0.003809 -0.003035 0.000000 0.000000 0.000000
# 2 -0.003809 0.014146 -0.008326 0.000000 0.000000 0.000000
# 3 -0.003035 -0.008326 0.019118 0.000000 0.000000 0.000000
# 4 0.000000 0.000000 0.000000 0.035699 0.000000 0.000000
# 5 0.000000 0.000000 0.000000 0.000000 0.072969 0.000000
# 6 0.000000 0.000000 0.000000 0.000000 0.000000 0.046456
#
#
# Mechanical properties :
#
#
# Convention : Reuss Voigt Hill
#
# Bulk Modulus (GPa) = 45.49385 51.46602 48.47993
# Shear Modulus (GPa) = 20.39860 22.30723 21.35291
#
# Velocity S-wave (km/s) = 3.77274 3.94530 3.85999
# Velocity P-wave (km/s) = 7.12197 7.52765 7.32762
#
# Compressibility (1/GPa) = 0.02198099
#
# Stress axis : x y z
#
# Youngs Moduli (GPa) = 52.47006 70.69188 52.30767
#
# Poissons Ratio (x) = 0.26928 0.15875
# Poissons Ratio (y) = 0.19987 0.43553
# Poissons Ratio (z) = 0.15925 0.58861
#
# Static dielectric constant tensor:
#      x y z
#    x 1.486670 0.000000 0.000000 
#    y 0.000000 1.479520 0.000000 
#    z 0.000000 0.000000 1.470730 
# 
# From -- ./inp_files/24410.got.cif
#   From: 2010.05.17/outbox.cif.g08.bks.cpg/sg46_13_cif.got.tgz:24410.got - 2010.06.03 19:58:25.
