data_PCOD9377851
_publ_section_title
;
Structure prediction by ZEFSAII (Michael W. Deem and Ramdas Pophale) SiO2 
 PCOD9377851
Probable space group: I M A 2
;
_chemical_formula_sum "Si O2"
_cell_formula_units_Z 52
_cell_length_a 8.442858
_cell_length_b 27.358039
_cell_length_c 10.146327
_cell_angle_alpha 90.000000
_cell_angle_beta 90.000000
_cell_angle_gamma 90.000000
_cell_volume 2343.599000
_symmetry_space_group_name_H-M "I M A 2"
_symmetry_group_IT_number 46
_symmetry_cell_setting 'orthorhombic'
loop_
_space_group_symop_operation_xyz
x,y,z
-x,-y,z
1/2-x,y,z
1/2+x,-y,z
1/2+x,1/2+y,1/2+z
1/2-x,1/2-y,1/2+z
-x,1/2+y,1/2+z
x,1/2-y,1/2+z
loop_
_atom_site_type_symbol
_atom_site_label
_atom_site_fract_x
_atom_site_fract_y
_atom_site_fract_z
Si Si1 0.563019 0.054594 0.642360
Si Si2 0.750000 0.202681 0.803040
Si Si3 0.750000 0.191229 0.086283
Si Si4 0.074015 0.151111 0.531192
Si Si5 0.074160 0.151686 0.076813
Si Si6 0.063095 0.447665 0.432851
Si Si7 0.085086 0.287409 0.303388
Si Si8 0.750000 0.307293 0.020074
O O1 0.750000 0.056920 0.616946
O O2 0.468630 0.095072 0.559924
O O3 0.527124 0.064357 0.797097
O O4 0.500000 0.000000 0.616494
O O5 0.750000 0.170561 0.934501
O O6 0.590212 0.234175 0.802287
O O7 0.750000 0.170906 0.670881
O O8 0.583565 0.173091 0.143536
O O9 0.750000 0.249314 0.053370
O O10 0.250000 0.155990 0.471654
O O11 0.086016 0.178998 0.673072
O O12 0.918060 0.174909 0.464848
O O13 0.250000 0.156508 0.137904
O O14 0.046353 0.095500 0.037763
O O15 0.086612 0.181164 0.937410
O O16 0.250000 0.451473 0.400071
O O17 0.000000 0.500000 0.479788
O O18 0.250000 0.258452 0.301097
#
# Coordination Sequence:
#
# PCOD9377851 Si02
#       8
#     8   4   4   8   8   8   8   4
#     4  11  19  25  37  58  86 117 156 187 214 256
#     4   8  16  28  42  58  80 104 134 188 214 252
#     4  10  20  30  48  62  82 114 152 188 225 263
#     4  10  17  28  42  56  82 111 142 186 220 253
#     4   9  17  27  40  56  80 110 144 183 217 255
#     4  10  18  25  35  57  84 116 155 187 216 256
#     4   8  13  22  37  53  72 103 139 166 208 245
#     4  10  20  32  44  68  80 112 158 184 225 271
#
# _framework density 22.188096000000002
#
# number of rings (size 3 to 8) (size 9 to 14) (size 15 to 20)
#    0.000    2.462    2.308    2.769    2.154    0.615 
#    0.000    0.000    0.000    0.000    0.000    0.000 
#    0.000    0.000    0.000    1.385    0.615    0.000 
#
# Total GULP energy -144909.379253 kJ/mol
# GULP energy per Si atom -5573.437664 kJ/mol
# Density = 2.213759 g / cm^3
# Si number density = 22.188096 Si / 1000 Ang^3
#
#
#
# Elastic Constant Matrix: (Units=GPa)
#
#
# Indices 1 2 3 4 5 6 
#
# 1 279.9744 63.2958 4.2354 0.0007 0.0003 0.0085
# 2 63.2958 121.9277 10.8635 0.0022 0.0002 0.0133
# 3 4.2354 10.8635 40.1177 -0.0061 -0.0019 -0.0325
# 4 0.0007 0.0022 -0.0061 22.9621 -0.0003 -0.0134
# 5 0.0003 0.0002 -0.0019 -0.0003 -37.1975 0.0078
# 6 0.0085 0.0133 -0.0325 -0.0134 0.0078 702.0099
#
#
#
# Elastic Compliance Matrix: (Units=1/GPa)
#
#
# Indices 1 2 3 4 5 6 
#
# 1 0.004048 -0.002114 0.000145 0.000000 0.000000 0.000000
# 2 -0.002114 0.009509 -0.002352 -0.000001 0.000000 0.000000
# 3 0.000145 -0.002352 0.025548 0.000007 -0.000001 0.000001
# 4 0.000000 -0.000001 0.000007 0.043550 0.000000 0.000001
# 5 0.000000 0.000000 -0.000001 0.000000 -0.026884 0.000000
# 6 0.000000 0.000000 0.000001 0.000001 0.000000 0.001424
#
#
# Mechanical properties :
#
#
# Convention : Reuss Voigt Hill
#
# Bulk Modulus (GPa) = 32.82664 66.53437 49.68051
# Shear Modulus (GPa) = 65.79742 161.79657 113.79700
#
# Velocity S-wave (km/s) = 5.45149 8.54861 7.16929
# Velocity P-wave (km/s) = 7.37915 11.29114 9.53787
#
# Compressibility (1/GPa) = 0.03046306
#
# Stress axis : x y z
#
# Youngs Moduli (GPa) = 247.06558 105.16803 39.14181
#
# Poissons Ratio (x) = 0.22234 -0.00568
# Poissons Ratio (y) = 0.52232 0.09205
# Poissons Ratio (z) = -0.03587 0.24732
#
# Static dielectric constant tensor:
#      x y z
#    x 1.922110 0.000000 0.000000 
#    y 0.000000 1.782590 0.000000 
#    z 0.000000 0.000000 1.873740 
# 
# From -- ./inp_files/14124.got.cif
#   From: 2010.05.17/outbox.cif.g08.bks.cpg/sg46_8_cif.got.tgz:14124.got - 2010.06.03 19:58:25.
