data_PCOD9377245
_publ_section_title
;
Structure prediction by ZEFSAII (Michael W. Deem and Ramdas Pophale) SiO2 
 PCOD9377245
Probable space group: I B A 2
;
_chemical_formula_sum "Si O2"
_cell_formula_units_Z 56
_cell_length_a 12.568039
_cell_length_b 15.747112
_cell_length_c 12.749880
_cell_angle_alpha 90.000000
_cell_angle_beta 90.000000
_cell_angle_gamma 90.000000
_cell_volume 2523.332802
_symmetry_space_group_name_H-M "I B A 2"
_symmetry_group_IT_number 45
_symmetry_cell_setting 'orthorhombic'
loop_
_space_group_symop_operation_xyz
x,y,z
-x,-y,z
-x,y,1/2+z
x,-y,1/2+z
1/2+x,1/2+y,1/2+z
1/2-x,1/2-y,1/2+z
1/2-x,1/2+y,z
1/2+x,1/2-y,z
loop_
_atom_site_type_symbol
_atom_site_label
_atom_site_fract_x
_atom_site_fract_y
_atom_site_fract_z
Si Si1 0.000000 0.500000 0.307461
Si Si2 0.340726 0.641108 0.930105
Si Si3 0.000000 0.000000 0.976846
Si Si4 0.157794 0.750696 0.630779
Si Si5 0.962809 0.636525 0.654895
Si Si6 0.719939 0.807645 0.315490
Si Si7 0.350351 0.965834 0.477205
Si Si8 0.703288 0.394110 0.529121
O O1 0.029919 0.423849 0.231922
O O2 0.907616 0.479049 0.388694
O O3 0.428219 0.568160 0.913661
O O4 0.344005 0.728196 0.865973
O O5 0.226958 0.597360 0.915627
O O6 0.340337 0.670266 0.051670
O O7 0.913967 0.062746 0.035328
O O8 0.179728 0.775492 0.749300
O O9 0.252971 0.684950 0.597335
O O10 0.040970 0.710798 0.621280
O O11 0.859156 0.656250 0.725562
O O12 0.927882 0.587225 0.550855
O O13 0.769260 0.863201 0.410122
O O14 0.281790 0.027289 0.549771
#
# Coordination Sequence:
#
# PCOD9377245 Si02
#       8
#     4   8   4   8   8   8   8   8
#     4  12  22  38  66 100 124 170 214 286 330 400
#     4  10  24  43  66  93 135 179 216 279 332 402
#     4  10  24  44  72  94 136 188 218 270 352 402
#     4  11  24  43  67 100 134 172 226 280 330 410
#     4  12  25  39  70  98 128 178 224 271 352 396
#     4  11  24  44  65  99 133 174 227 277 334 413
#     4  11  22  43  63  96 132 166 221 277 337 400
#     4  10  23  46  67  98 138 174 222 283 333 407
#
# _framework density 22.192871
#
# number of rings (size 3 to 8) (size 9 to 14) (size 15 to 20)
#    0.000    1.143    2.857    3.000    6.000    0.000 
#    0.000    1.429    0.000    0.000    0.000    0.000 
#    0.000    0.000    0.000    0.000    0.000    0.000 
#
# Total GULP energy -156187.311276 kJ/mol
# GULP energy per Si atom -5578.118260 kJ/mol
# Density = 2.214236 g / cm^3
# Si number density = 22.192871 Si / 1000 Ang^3
#
#
#
# Elastic Constant Matrix: (Units=GPa)
#
#
# Indices 1 2 3 4 5 6 
#
# 1 85.5456 17.5932 22.3995 0.0000 0.0000 0.0000
# 2 17.5932 66.4735 9.3826 0.0000 0.0000 0.0000
# 3 22.3995 9.3826 34.8588 0.0001 0.0000 0.0000
# 4 0.0000 0.0000 0.0001 28.8132 0.0000 0.0000
# 5 0.0000 0.0000 0.0000 0.0000 18.6000 0.0000
# 6 0.0000 0.0000 0.0000 0.0000 0.0000 36.0969
#
#
#
# Elastic Compliance Matrix: (Units=1/GPa)
#
#
# Indices 1 2 3 4 5 6 
#
# 1 0.014480 -0.002619 -0.008600 0.000000 0.000000 0.000000
# 2 -0.002619 0.016111 -0.002654 0.000000 0.000000 0.000000
# 3 -0.008600 -0.002654 0.034928 0.000000 0.000000 0.000000
# 4 0.000000 0.000000 0.000000 0.034706 0.000000 0.000000
# 5 0.000000 0.000000 0.000000 0.000000 0.053764 0.000000
# 6 0.000000 0.000000 0.000000 0.000000 0.000000 0.027703
#
#
# Mechanical properties :
#
#
# Convention : Reuss Voigt Hill
#
# Bulk Modulus (GPa) = 26.47293 31.73650 29.10472
# Shear Modulus (GPa) = 22.51973 25.86886 24.19429
#
# Velocity S-wave (km/s) = 3.18894 3.41785 3.30537
# Velocity P-wave (km/s) = 5.05109 5.46872 5.26405
#
# Compressibility (1/GPa) = 0.03777443
#
# Stress axis : x y z
#
# Youngs Moduli (GPa) = 69.06086 62.06865 28.63070
#
# Poissons Ratio (x) = 0.16253 0.24622
# Poissons Ratio (y) = 0.18084 0.07598
# Poissons Ratio (z) = 0.59391 0.16472
#
# Static dielectric constant tensor:
#      x y z
#    x 1.855020 0.000000 0.000000 
#    y 0.000000 1.831500 0.000000 
#    z 0.000000 0.000000 1.761400 
# 
# From -- ./inp_files/6191.got.cif
#   From: 2010.05.17/outbox.cif.g08.bks.cpg/sg45_4_cif.got.tgz:6191.got - 2010.06.03 19:51:22.
