data_PCOD9377124
_publ_section_title
;
Structure prediction by ZEFSAII (Michael W. Deem and Ramdas Pophale) SiO2 
 PCOD9377124
Probable space group: I B A 2
;
_chemical_formula_sum "Si O2"
_cell_formula_units_Z 40
_cell_length_a 8.427191
_cell_length_b 13.994503
_cell_length_c 13.252373
_cell_angle_alpha 90.000000
_cell_angle_beta 90.000000
_cell_angle_gamma 90.000000
_cell_volume 1562.909992
_symmetry_space_group_name_H-M "I B A 2"
_symmetry_group_IT_number 45
_symmetry_cell_setting 'orthorhombic'
loop_
_space_group_symop_operation_xyz
x,y,z
-x,-y,z
-x,y,1/2+z
x,-y,1/2+z
1/2+x,1/2+y,1/2+z
1/2-x,1/2-y,1/2+z
1/2-x,1/2+y,z
1/2+x,1/2-y,z
loop_
_atom_site_type_symbol
_atom_site_label
_atom_site_fract_x
_atom_site_fract_y
_atom_site_fract_z
Si Si1 0.358232 0.641295 0.228790
Si Si2 0.311575 0.974069 0.136066
Si Si3 0.405792 0.216501 0.557909
Si Si4 0.160997 0.790695 0.338088
Si Si5 0.868171 0.424296 0.945887
O O1 0.300042 0.534244 0.209633
O O2 0.422940 0.691088 0.126938
O O3 0.207927 0.704408 0.264959
O O4 0.495242 0.660983 0.309831
O O5 0.500000 0.000000 0.152845
O O6 0.304859 0.860558 0.122248
O O7 0.264876 0.013754 0.023659
O O8 0.340393 0.246766 0.449933
O O9 0.557708 0.155488 0.521357
O O10 0.292997 0.872469 0.351074
O O11 0.000000 0.500000 0.911666
#
# Coordination Sequence:
#
# PCOD9377124 Si02
#       5
#     8   8   8   8   8
#     4  12  25  42  78 120 157 206 275 334 401 498
#     4   9  20  44  73 104 154 212 254 320 406 482
#     4  10  22  45  71 106 163 206 257 328 417 474
#     4  12  23  42  76 119 156 208 270 334 409 499
#     4   9  19  43  74 104 148 220 255 318 410 483
#
# _framework density 25.593285000000002
#
# number of rings (size 3 to 8) (size 9 to 14) (size 15 to 20)
#    0.000    2.000    4.000    2.400    0.000    0.000 
#    7.200    3.000    4.400    0.000    0.000    1.400 
#    0.000    0.000    0.000    0.000    0.000    0.000 
#
# Total GULP energy -111871.801915 kJ/mol
# GULP energy per Si atom -5593.590096 kJ/mol
# Density = 2.553503 g / cm^3
# Si number density = 25.593285 Si / 1000 Ang^3
#
#
#
# Elastic Constant Matrix: (Units=GPa)
#
#
# Indices 1 2 3 4 5 6 
#
# 1 81.3254 41.5549 20.8652 0.0000 0.0000 0.0000
# 2 41.5549 119.4477 43.5407 0.0000 0.0000 0.0000
# 3 20.8652 43.5407 96.5771 0.0000 0.0000 0.0000
# 4 0.0000 0.0000 0.0000 54.3009 0.0000 0.0000
# 5 0.0000 0.0000 0.0000 0.0000 15.6127 0.0000
# 6 0.0000 0.0000 0.0000 0.0000 0.0000 18.1412
#
#
#
# Elastic Compliance Matrix: (Units=1/GPa)
#
#
# Indices 1 2 3 4 5 6 
#
# 1 0.015046 -0.004846 -0.001066 0.000000 0.000000 0.000000
# 2 -0.004846 0.011579 -0.004173 0.000000 0.000000 0.000000
# 3 -0.001066 -0.004173 0.012466 0.000000 0.000000 0.000000
# 4 0.000000 0.000000 0.000000 0.018416 0.000000 0.000000
# 5 0.000000 0.000000 0.000000 0.000000 0.064050 0.000000
# 6 0.000000 0.000000 0.000000 0.000000 0.000000 0.055123
#
#
# Mechanical properties :
#
#
# Convention : Reuss Voigt Hill
#
# Bulk Modulus (GPa) = 52.85163 56.58576 54.71869
# Shear Modulus (GPa) = 24.61148 30.37027 27.49088
#
# Velocity S-wave (km/s) = 3.10439 3.44852 3.28097
# Velocity P-wave (km/s) = 5.79181 6.16555 5.98160
#
# Compressibility (1/GPa) = 0.01892089
#
# Stress axis : x y z
#
# Youngs Moduli (GPa) = 66.46375 86.36397 80.21691
#
# Poissons Ratio (x) = 0.41850 0.08551
# Poissons Ratio (y) = 0.32207 0.33477
# Poissons Ratio (z) = 0.07085 0.36042
#
# Static dielectric constant tensor:
#      x y z
#    x 2.128740 0.000000 0.000000 
#    y 0.000000 2.022200 0.000000 
#    z 0.000000 0.000000 2.006540 
# 
# From -- ./inp_files/5473.got.cif
#   From: 2010.05.17/outbox.cif.g08.bks.cpg/sg45_3_cif.got.tgz:5473.got - 2010.06.03 19:51:22.
