data_PCOD9377094
_publ_section_title
;
Structure prediction by ZEFSAII (Michael W. Deem and Ramdas Pophale) SiO2 
 PCOD9377094
Probable space group: I B A 2
;
_chemical_formula_sum "Si O2"
_cell_formula_units_Z 64
_cell_length_a 8.664628
_cell_length_b 14.790765
_cell_length_c 21.123501
_cell_angle_alpha 90.000000
_cell_angle_beta 90.000000
_cell_angle_gamma 90.000000
_cell_volume 2707.113461
_symmetry_space_group_name_H-M "I B A 2"
_symmetry_group_IT_number 45
_symmetry_cell_setting 'orthorhombic'
loop_
_space_group_symop_operation_xyz
x,y,z
-x,-y,z
-x,y,1/2+z
x,-y,1/2+z
1/2+x,1/2+y,1/2+z
1/2-x,1/2-y,1/2+z
1/2-x,1/2+y,z
1/2+x,1/2-y,z
loop_
_atom_site_type_symbol
_atom_site_label
_atom_site_fract_x
_atom_site_fract_y
_atom_site_fract_z
Si Si1 0.601707 0.612636 0.963070
Si Si2 0.246069 0.430525 0.227149
Si Si3 0.613476 0.893611 0.213941
Si Si4 0.094836 0.358126 0.571890
Si Si5 0.732629 0.342709 0.588765
Si Si6 0.580277 0.722872 0.290745
Si Si7 0.755453 0.560894 0.446205
Si Si8 0.670694 0.771942 0.877034
O O1 0.424707 0.590448 0.948591
O O2 0.730519 0.545094 0.933721
O O3 0.631392 0.712510 0.937470
O O4 0.628818 0.605770 0.037690
O O5 0.245792 0.538324 0.237537
O O6 0.279723 0.390732 0.156917
O O7 0.359446 0.375612 0.272588
O O8 0.062494 0.412301 0.236176
O O9 0.616962 0.908428 0.138668
O O10 0.630599 0.790587 0.235406
O O11 0.175744 0.261068 0.584121
O O12 0.165585 0.412839 0.513051
O O13 0.910740 0.345001 0.566164
O O14 0.406205 0.738188 0.311712
O O15 0.653247 0.747823 0.358607
O O16 0.841276 0.622661 0.394519
#
# Coordination Sequence:
#
# PCOD9377094 Si02
#       8
#     8   8   8   8   8   8   8   8
#     4  11  25  46  69 100 138 176 230 292 347 419
#     4  10  22  43  69 101 136 177 228 289 347 412
#     4  10  22  43  69 101 135 176 229 286 349 419
#     4  11  22  39  71 102 138 178 224 284 358 417
#     4  11  22  39  71 101 138 180 224 285 356 420
#     4  12  24  45  70  95 137 183 233 281 343 411
#     4  11  25  46  69 101 136 179 230 288 353 412
#     4  12  26  45  68  97 136 183 233 282 343 408
#
# _framework density 23.641417000000001
#
# number of rings (size 3 to 8) (size 9 to 14) (size 15 to 20)
#    0.000    1.000    5.000    1.500    1.750    2.500 
#    2.250    0.000    0.000    0.000    0.000    0.000 
#    0.000    0.000    0.000    0.000    0.000    0.000 
#
# Total GULP energy -178618.670657 kJ/mol
# GULP energy per Si atom -5581.833458 kJ/mol
# Density = 2.358761 g / cm^3
# Si number density = 23.641417 Si / 1000 Ang^3
#
#
#
# Elastic Constant Matrix: (Units=GPa)
#
#
# Indices 1 2 3 4 5 6 
#
# 1 50.3947 22.8746 26.5535 0.0000 0.0000 0.0000
# 2 22.8746 94.8782 10.6269 0.0000 0.0000 0.0000
# 3 26.5535 10.6269 70.4845 0.0000 0.0000 0.0000
# 4 0.0000 0.0000 0.0000 14.1994 0.0000 0.0000
# 5 0.0000 0.0000 0.0000 0.0000 34.9171 0.0000
# 6 0.0000 0.0000 0.0000 0.0000 0.0000 36.8826
#
#
#
# Elastic Compliance Matrix: (Units=1/GPa)
#
#
# Indices 1 2 3 4 5 6 
#
# 1 0.027342 -0.005532 -0.009467 0.000000 0.000000 0.000000
# 2 -0.005532 0.011840 0.000299 0.000000 0.000000 0.000000
# 3 -0.009467 0.000299 0.017709 0.000000 0.000000 0.000000
# 4 0.000000 0.000000 0.000000 0.070425 0.000000 0.000000
# 5 0.000000 0.000000 0.000000 0.000000 0.028639 0.000000
# 6 0.000000 0.000000 0.000000 0.000000 0.000000 0.027113
#
#
# Mechanical properties :
#
#
# Convention : Reuss Voigt Hill
#
# Bulk Modulus (GPa) = 36.37404 37.31859 36.84632
# Shear Modulus (GPa) = 22.55992 27.57999 25.06996
#
# Velocity S-wave (km/s) = 3.09245 3.41925 3.25995
# Velocity P-wave (km/s) = 5.30756 5.60428 5.45793
#
# Compressibility (1/GPa) = 0.02749213
#
# Stress axis : x y z
#
# Youngs Moduli (GPa) = 36.57332 84.45915 56.46920
#
# Poissons Ratio (x) = 0.46721 0.53457
# Poissons Ratio (y) = 0.20232 -0.01688
# Poissons Ratio (z) = 0.34622 -0.02524
#
# Static dielectric constant tensor:
#      x y z
#    x 1.845150 0.000000 0.000000 
#    y 0.000000 1.963140 0.000000 
#    z 0.000000 0.000000 1.907370 
# 
# From -- ./inp_files/9601.got.cif
#   From: 2010.05.17/outbox.cif.g08.bks.cpg/sg45_5_cif.got.tgz:9601.got - 2010.06.03 19:51:22.
