data_PCOD9377751
_publ_section_title
;
Structure prediction by ZEFSAII (Michael W. Deem and Ramdas Pophale) SiO2 
 PCOD9377751
Probable space group: I M A 2
;
_chemical_formula_sum "Si O2"
_cell_formula_units_Z 56
_cell_length_a 18.468061
_cell_length_b 6.729854
_cell_length_c 19.046094
_cell_angle_alpha 90.000000
_cell_angle_beta 90.000000
_cell_angle_gamma 90.000000
_cell_volume 2367.188631
_symmetry_space_group_name_H-M "I M A 2"
_symmetry_group_IT_number 46
_symmetry_cell_setting 'orthorhombic'
loop_
_space_group_symop_operation_xyz
x,y,z
-x,-y,z
1/2-x,y,z
1/2+x,-y,z
1/2+x,1/2+y,1/2+z
1/2-x,1/2-y,1/2+z
-x,1/2+y,1/2+z
x,1/2-y,1/2+z
loop_
_atom_site_type_symbol
_atom_site_label
_atom_site_fract_x
_atom_site_fract_y
_atom_site_fract_z
Si Si1 0.982655 0.765129 0.994040
Si Si2 0.668503 0.405527 0.650003
Si Si3 0.605857 0.750000 0.244040
Si Si4 0.519639 0.260235 0.342390
Si Si5 0.168502 0.594472 0.338077
Si Si6 0.980361 0.260235 0.645690
Si Si7 0.668659 0.594309 0.494040
O O1 0.016025 0.695757 0.922301
O O2 0.896085 0.748388 0.994040
O O3 0.016026 0.695757 0.065778
O O4 0.000000 0.000000 0.994040
O O5 0.750000 0.330746 0.659760
O O6 0.653592 0.595246 0.700142
O O7 0.603365 0.255425 0.666762
O O8 0.661033 0.472684 0.567549
O O9 0.546557 0.835336 0.299685
O O10 0.653592 0.595246 0.287938
O O11 0.546558 0.664664 0.188394
O O12 0.500000 0.500000 0.338981
O O13 0.603365 0.255425 0.321318
O O14 0.250000 0.669253 0.328320
O O15 0.161033 0.527316 0.420531
O O16 0.000000 0.500000 0.649099
O O17 0.750000 0.677695 0.494040
#
# Coordination Sequence:
#
# PCOD9377751 Si02
#       7
#     8   8   8   8   8   8   8
#     4  10  12  26  40  58  84 108 135 167 211 253
#     4  10  18  28  42  65  90 111 135 173 214 248
#     4  10  17  26  41  62  86 114 142 166 201 256
#     4   9  16  26  42  60  84 113 139 168 206 250
#     4  10  18  28  42  65  90 111 135 173 214 248
#     4   9  16  26  42  60  84 113 139 168 206 250
#     4  10  16  24  42  64  86 106 130 170 220 256
#
# _framework density 23.656756000000001
#
# number of rings (size 3 to 8) (size 9 to 14) (size 15 to 20)
#    0.000    2.286    8.571    0.429    0.000    0.000 
#    0.000    0.714    0.000    0.000    0.000   36.000 
#    0.000    0.000    0.000    0.000    0.000    0.000 
#
# Total GULP energy -156279.248723 kJ/mol
# GULP energy per Si atom -5581.401740 kJ/mol
# Density = 2.360291 g / cm^3
# Si number density = 23.656756 Si / 1000 Ang^3
#
#
#
# Elastic Constant Matrix: (Units=GPa)
#
#
# Indices 1 2 3 4 5 6 
#
# 1 217.3379 17.9620 33.6903 0.0000 0.0000 0.0000
# 2 17.9620 79.9714 10.2373 0.0000 0.0000 0.0000
# 3 33.6903 10.2373 193.8324 0.0000 0.0000 0.0000
# 4 0.0000 0.0000 0.0000 3.7417 0.0000 0.0000
# 5 0.0000 0.0000 0.0000 0.0000 32.9017 0.0000
# 6 0.0000 0.0000 0.0000 0.0000 0.0000 25.3079
#
#
#
# Elastic Compliance Matrix: (Units=1/GPa)
#
#
# Indices 1 2 3 4 5 6 
#
# 1 0.004803 -0.000979 -0.000783 0.000000 0.000000 0.000000
# 2 -0.000979 0.012789 -0.000505 0.000000 0.000000 0.000000
# 3 -0.000783 -0.000505 0.005322 0.000000 0.000000 0.000000
# 4 0.000000 0.000000 0.000000 0.267255 0.000000 0.000000
# 5 0.000000 0.000000 0.000000 0.000000 0.030394 0.000000
# 6 0.000000 0.000000 0.000000 0.000000 0.000000 0.039513
#
#
# Mechanical properties :
#
#
# Convention : Reuss Voigt Hill
#
# Bulk Modulus (GPa) = 54.40712 68.32455 61.36584
# Shear Modulus (GPa) = 13.48664 41.00708 27.24686
#
# Velocity S-wave (km/s) = 2.39026 4.16795 3.39744
# Velocity P-wave (km/s) = 5.53771 7.21850 6.43324
#
# Compressibility (1/GPa) = 0.01837995
#
# Stress axis : x y z
#
# Youngs Moduli (GPa) = 208.18524 78.19244 187.90227
#
# Poissons Ratio (x) = 0.07652 0.14717
# Poissons Ratio (y) = 0.20373 0.09496
# Poissons Ratio (z) = 0.16305 0.03952
#
# Static dielectric constant tensor:
#      x y z
#    x 1.899480 0.000000 0.000000 
#    y 0.000000 1.995760 0.000000 
#    z 0.000000 0.000000 1.939500 
# 
# From -- ./inp_files/19991.got.cif
#   From: 2010.05.17/outbox.cif.g08.bks.cpg/sg46_10_cif.got.tgz:19991.got - 2010.06.03 19:58:25.
