data_PCOD9377781
_publ_section_title
;
Structure prediction by ZEFSAII (Michael W. Deem and Ramdas Pophale) SiO2 
 PCOD9377781
Probable space group: I M A 2
;
_chemical_formula_sum "Si O2"
_cell_formula_units_Z 56
_cell_length_a 18.947692
_cell_length_b 14.466935
_cell_length_c 12.963000
_cell_angle_alpha 90.000000
_cell_angle_beta 90.000000
_cell_angle_gamma 90.000000
_cell_volume 3553.353115
_symmetry_space_group_name_H-M "I M A 2"
_symmetry_group_IT_number 46
_symmetry_cell_setting 'orthorhombic'
loop_
_space_group_symop_operation_xyz
x,y,z
-x,-y,z
1/2-x,y,z
1/2+x,-y,z
1/2+x,1/2+y,1/2+z
1/2-x,1/2-y,1/2+z
-x,1/2+y,1/2+z
x,1/2-y,1/2+z
loop_
_atom_site_type_symbol
_atom_site_label
_atom_site_fract_x
_atom_site_fract_y
_atom_site_fract_z
Si Si1 0.827959 0.388364 0.892170
Si Si2 0.528309 0.896256 0.515707
Si Si3 0.435687 0.754160 0.134757
Si Si4 0.976517 0.098388 0.285972
Si Si5 0.330461 0.032436 0.582328
Si Si6 0.667117 0.115299 0.752749
Si Si7 0.169825 0.822516 0.974500
O O1 0.750000 0.403385 0.845992
O O2 0.894175 0.406577 0.819514
O O3 0.831176 0.282702 0.930473
O O4 0.834038 0.453906 0.992565
O O5 0.481119 0.818210 0.568722
O O6 0.519229 0.887282 0.392613
O O7 0.500000 0.000000 0.541381
O O8 0.608655 0.895729 0.554385
O O9 0.483047 0.816941 0.208591
O O10 0.381376 0.693625 0.202452
O O11 0.388907 0.820727 0.062108
O O12 0.000000 0.000000 0.241866
O O13 0.250000 0.067632 0.583665
O O14 0.344820 0.978900 0.689516
O O15 0.750000 0.139500 0.737640
O O16 0.654756 0.113651 0.875290
O O17 0.250000 0.840073 0.011484
#
# Coordination Sequence:
#
# PCOD9377781 Si02
#       7
#     8   8   8   8   8   8   8
#     4  10  16  26  47  74  99 124 157 198 249 303
#     4  11  18  33  52  76  98 130 168 207 246 295
#     4  12  19  29  49  71 105 139 164 200 252 294
#     4  11  21  34  49  71 105 133 168 209 248 292
#     4  10  18  30  51  75  99 125 161 210 252 287
#     4  10  17  26  45  76 105 128 159 198 249 311
#     4  10  18  27  43  74 107 134 158 191 247 320
#
# _framework density 15.759762
#
# number of rings (size 3 to 8) (size 9 to 14) (size 15 to 20)
#    0.000    1.429    8.571    0.429    0.000    0.571 
#    0.000    0.000    6.286    1.714    0.000    0.000 
#    0.000    0.000    0.000    0.000    0.000    0.000 
#
# Total GULP energy -156111.040224 kJ/mol
# GULP energy per Si atom -5575.394294 kJ/mol
# Density = 1.572389 g / cm^3
# Si number density = 15.759762 Si / 1000 Ang^3
#
#
#
# Elastic Constant Matrix: (Units=GPa)
#
#
# Indices 1 2 3 4 5 6 
#
# 1 70.8571 19.0413 28.4415 0.0000 0.0000 0.0000
# 2 19.0413 38.3647 28.3920 0.0000 0.0000 0.0000
# 3 28.4415 28.3920 57.9444 0.0000 0.0000 0.0000
# 4 0.0000 0.0000 0.0000 24.7849 0.0000 0.0000
# 5 0.0000 0.0000 0.0000 0.0000 19.0710 0.0000
# 6 0.0000 0.0000 0.0000 0.0000 0.0000 18.7009
#
#
#
# Elastic Compliance Matrix: (Units=1/GPa)
#
#
# Indices 1 2 3 4 5 6 
#
# 1 0.017911 -0.003740 -0.006959 0.000000 0.000000 0.000000
# 2 -0.003740 0.041676 -0.018585 0.000000 0.000000 0.000000
# 3 -0.006959 -0.018585 0.029780 0.000000 0.000000 0.000000
# 4 0.000000 0.000000 0.000000 0.040347 0.000000 0.000000
# 5 0.000000 0.000000 0.000000 0.000000 0.052436 0.000000
# 6 0.000000 0.000000 0.000000 0.000000 0.000000 0.053473
#
#
# Mechanical properties :
#
#
# Convention : Reuss Voigt Hill
#
# Bulk Modulus (GPa) = 32.46808 35.43509 33.95159
# Shear Modulus (GPa) = 16.42265 18.59743 17.51004
#
# Velocity S-wave (km/s) = 3.23160 3.43892 3.33687
# Velocity P-wave (km/s) = 5.87971 6.18883 6.03625
#
# Compressibility (1/GPa) = 0.03079948
#
# Stress axis : x y z
#
# Youngs Moduli (GPa) = 55.83092 23.99486 33.57930
#
# Poissons Ratio (x) = 0.08973 0.23369
# Poissons Ratio (y) = 0.20878 0.62407
# Poissons Ratio (z) = 0.38854 0.44594
#
# Static dielectric constant tensor:
#      x y z
#    x 1.557100 0.000000 0.000000 
#    y 0.000000 1.505700 0.000000 
#    z 0.000000 0.000000 1.554000 
# 
# From -- ./inp_files/12004.got.cif
#   From: 2010.05.17/outbox.cif.g08.bks.cpg/sg46_7_cif.got.tgz:12004.got - 2010.06.03 19:58:25.
