data_PCOD9377080
_publ_section_title
;
Structure prediction by ZEFSAII (Michael W. Deem and Ramdas Pophale) SiO2 
 PCOD9377080
Probable space group: I B A 2
;
_chemical_formula_sum "Si O2"
_cell_formula_units_Z 40
_cell_length_a 4.988532
_cell_length_b 22.212299
_cell_length_c 14.773176
_cell_angle_alpha 90.000000
_cell_angle_beta 90.000000
_cell_angle_gamma 90.000000
_cell_volume 1636.967832
_symmetry_space_group_name_H-M "I B A 2"
_symmetry_group_IT_number 45
_symmetry_cell_setting 'orthorhombic'
loop_
_space_group_symop_operation_xyz
x,y,z
-x,-y,z
-x,y,1/2+z
x,-y,1/2+z
1/2+x,1/2+y,1/2+z
1/2-x,1/2-y,1/2+z
1/2-x,1/2+y,z
1/2+x,1/2-y,z
loop_
_atom_site_type_symbol
_atom_site_label
_atom_site_fract_x
_atom_site_fract_y
_atom_site_fract_z
Si Si1 0.500000 0.000000 0.842240
Si Si2 0.739382 0.623553 0.515421
Si Si3 0.442455 0.205936 0.650626
Si Si4 0.500000 0.500000 0.476115
Si Si5 0.964978 0.628234 0.819137
Si Si6 0.920239 0.794827 0.406982
O O1 0.490808 0.060685 0.784406
O O2 0.752126 0.012978 0.908474
O O3 0.942759 0.652411 0.586639
O O4 0.611082 0.557764 0.530729
O O5 0.489378 0.667792 0.496868
O O6 0.891547 0.625307 0.417677
O O7 0.172706 0.243736 0.641376
O O8 0.420601 0.175622 0.748992
O O9 0.662032 0.652566 0.836278
O O10 0.664063 0.751666 0.402860
#
# Coordination Sequence:
#
# PCOD9377080 Si02
#       6
#     4   8   8   4   8   8
#     4  10  22  42  74 102 134 182 246 290 366 438
#     4  11  25  47  74 106 147 194 248 309 372 440
#     4  12  30  44  68 109 149 190 249 302 366 453
#     4  10  22  42  74 104 132 188 242 298 362 444
#     4  11  25  47  72 105 142 194 241 303 371 438
#     4  12  22  36  68  97 133 186 229 287 364 427
#
# _framework density 24.435421999999999
#
# number of rings (size 3 to 8) (size 9 to 14) (size 15 to 20)
#    0.000    0.800    4.000    2.400    5.600    0.000 
#    0.000    7.000    0.000    0.000    0.000    0.000 
#    0.000    0.000    0.000    0.000    0.000    0.000 
#
# Total GULP energy -111682.291533 kJ/mol
# GULP energy per Si atom -5584.114577 kJ/mol
# Density = 2.437981 g / cm^3
# Si number density = 24.435422 Si / 1000 Ang^3
#
#
#
# Elastic Constant Matrix: (Units=GPa)
#
#
# Indices 1 2 3 4 5 6 
#
# 1 153.7974 41.4916 14.0809 0.0000 0.0000 0.0000
# 2 41.4916 181.5483 42.8452 0.0000 0.0000 0.0000
# 3 14.0809 42.8452 63.7499 0.0000 0.0000 0.0000
# 4 0.0000 0.0000 0.0000 31.0850 0.0000 0.0000
# 5 0.0000 0.0000 0.0000 0.0000 12.9463 0.0000
# 6 0.0000 0.0000 0.0000 0.0000 0.0000 42.9015
#
#
#
# Elastic Compliance Matrix: (Units=1/GPa)
#
#
# Indices 1 2 3 4 5 6 
#
# 1 0.006946 -0.001456 -0.000555 0.000000 0.000000 0.000000
# 2 -0.001456 0.006852 -0.004283 0.000000 0.000000 0.000000
# 3 -0.000555 -0.004283 0.018688 0.000000 0.000000 0.000000
# 4 0.000000 0.000000 0.000000 0.032170 0.000000 0.000000
# 5 0.000000 0.000000 0.000000 0.000000 0.077242 0.000000
# 6 0.000000 0.000000 0.000000 0.000000 0.000000 0.023309
#
#
# Mechanical properties :
#
#
# Convention : Reuss Voigt Hill
#
# Bulk Modulus (GPa) = 50.26324 66.21456 58.23890
# Shear Modulus (GPa) = 27.11076 37.43175 32.27126
#
# Velocity S-wave (km/s) = 3.33451 3.91815 3.63805
# Velocity P-wave (km/s) = 5.95313 6.90114 6.44459
#
# Compressibility (1/GPa) = 0.01989526
#
# Stress axis : x y z
#
# Youngs Moduli (GPa) = 143.97180 145.94533 53.51097
#
# Poissons Ratio (x) = 0.21255 0.02972
# Poissons Ratio (y) = 0.20967 0.22921
# Poissons Ratio (z) = 0.07996 0.62514
#
# Static dielectric constant tensor:
#      x y z
#    x 2.022410 0.000000 0.000000 
#    y 0.000000 2.033850 0.000000 
#    z 0.000000 0.000000 1.975570 
# 
# From -- ./inp_files/5127.got.cif
#   From: 2010.05.17/outbox.cif.g08.bks.cpg/sg45_3_cif.got.tgz:5127.got - 2010.06.03 19:51:22.
