data_PCOD9377262
_publ_section_title
;
Structure prediction by ZEFSAII (Michael W. Deem and Ramdas Pophale) SiO2 
 PCOD9377262
Probable space group: I B A 2
;
_chemical_formula_sum "Si O2"
_cell_formula_units_Z 32
_cell_length_a 10.241081
_cell_length_b 9.722240
_cell_length_c 13.492003
_cell_angle_alpha 90.000000
_cell_angle_beta 90.000000
_cell_angle_gamma 90.000000
_cell_volume 1343.348108
_symmetry_space_group_name_H-M "I B A 2"
_symmetry_group_IT_number 45
_symmetry_cell_setting 'orthorhombic'
loop_
_space_group_symop_operation_xyz
x,y,z
-x,-y,z
-x,y,1/2+z
x,-y,1/2+z
1/2+x,1/2+y,1/2+z
1/2-x,1/2-y,1/2+z
1/2-x,1/2+y,z
1/2+x,1/2-y,z
loop_
_atom_site_type_symbol
_atom_site_label
_atom_site_fract_x
_atom_site_fract_y
_atom_site_fract_z
Si Si1 0.845917 0.476016 0.393960
Si Si2 0.275787 0.235357 0.773737
Si Si3 0.949044 0.846715 0.118550
Si Si4 0.289763 0.299287 0.061540
O O1 0.812622 0.363255 0.307730
O O2 0.793261 0.624080 0.358741
O O3 0.768170 0.407643 0.485283
O O4 0.000000 0.500000 0.408821
O O5 0.413058 0.293700 0.728972
O O6 0.219867 0.155947 0.677638
O O7 0.058165 0.763295 0.056396
O O8 0.811305 0.825861 0.064642
O O9 0.000000 0.000000 0.115148
#
# Coordination Sequence:
#
# PCOD9377262 Si02
#       4
#     8   8   8   8
#     4  12  27  46  80 122 163 217 283 350 424 503
#     4  10  26  46  78 114 166 208 274 343 416 501
#     4  10  23  47  77 113 160 212 270 344 418 492
#     4  10  26  45  77 111 161 211 269 341 414 500
#
# _framework density 23.821076999999999
#
# number of rings (size 3 to 8) (size 9 to 14) (size 15 to 20)
#    1.500    0.000    0.000    3.000    7.000    1.000 
#    0.000    1.250    0.000    0.000    0.000    0.000 
#    0.000    0.000    0.000    0.000    0.000    0.000 
#
# Total GULP energy -89209.989791 kJ/mol
# GULP energy per Si atom -5575.624362 kJ/mol
# Density = 2.376686 g / cm^3
# Si number density = 23.821077 Si / 1000 Ang^3
#
#
#
# Elastic Constant Matrix: (Units=GPa)
#
#
# Indices 1 2 3 4 5 6 
#
# 1 107.0283 38.7196 38.9490 0.0000 0.0000 0.0000
# 2 38.7196 133.4360 43.1508 0.0000 0.0000 0.0000
# 3 38.9490 43.1508 122.1115 0.0000 0.0000 0.0000
# 4 0.0000 0.0000 0.0000 40.6111 0.0000 0.0000
# 5 0.0000 0.0000 0.0000 0.0000 25.6385 0.0000
# 6 0.0000 0.0000 0.0000 0.0000 0.0000 48.2071
#
#
#
# Elastic Compliance Matrix: (Units=1/GPa)
#
#
# Indices 1 2 3 4 5 6 
#
# 1 0.011194 -0.002364 -0.002735 0.000000 0.000000 0.000000
# 2 -0.002364 0.008960 -0.002412 0.000000 0.000000 0.000000
# 3 -0.002735 -0.002412 0.009914 0.000000 0.000000 0.000000
# 4 0.000000 0.000000 0.000000 0.024624 0.000000 0.000000
# 5 0.000000 0.000000 0.000000 0.000000 0.039004 0.000000
# 6 0.000000 0.000000 0.000000 0.000000 0.000000 0.020744
#
#
# Mechanical properties :
#
#
# Convention : Reuss Voigt Hill
#
# Bulk Modulus (GPa) = 66.46388 67.13497 66.79943
# Shear Modulus (GPa) = 37.18101 39.00842 38.09472
#
# Velocity S-wave (km/s) = 3.95504 4.05107 4.00334
# Velocity P-wave (km/s) = 6.98701 7.07995 7.03363
#
# Compressibility (1/GPa) = 0.01504577
#
# Stress axis : x y z
#
# Youngs Moduli (GPa) = 89.33540 111.60452 100.86632
#
# Poissons Ratio (x) = 0.26379 0.27588
# Poissons Ratio (y) = 0.21116 0.24333
# Poissons Ratio (z) = 0.24435 0.26923
#
# Static dielectric constant tensor:
#      x y z
#    x 2.047150 0.000000 0.000000 
#    y 0.000000 1.906440 0.000000 
#    z 0.000000 0.000000 1.988210 
# 
# From -- ./inp_files/5931.got.cif
#   From: 2010.05.17/outbox.cif.g08.bks.cpg/sg45_3_cif.got.tgz:5931.got - 2010.06.03 19:51:22.
