data_PCOD9377862
_publ_section_title
;
Structure prediction by ZEFSAII (Michael W. Deem and Ramdas Pophale) SiO2 
 PCOD9377862
Probable space group: I M A 2
;
_chemical_formula_sum "Si O2"
_cell_formula_units_Z 56
_cell_length_a 17.007906
_cell_length_b 9.922333
_cell_length_c 13.767538
_cell_angle_alpha 90.000000
_cell_angle_beta 90.000000
_cell_angle_gamma 90.000000
_cell_volume 2323.383650
_symmetry_space_group_name_H-M "I M A 2"
_symmetry_group_IT_number 46
_symmetry_cell_setting 'orthorhombic'
loop_
_space_group_symop_operation_xyz
x,y,z
-x,-y,z
1/2-x,y,z
1/2+x,-y,z
1/2+x,1/2+y,1/2+z
1/2-x,1/2-y,1/2+z
-x,1/2+y,1/2+z
x,1/2-y,1/2+z
loop_
_atom_site_type_symbol
_atom_site_label
_atom_site_fract_x
_atom_site_fract_y
_atom_site_fract_z
Si Si1 0.607831 0.269474 0.253310
Si Si2 0.337183 0.721331 0.457445
Si Si3 0.407682 0.031246 0.241369
Si Si4 0.947681 0.862911 0.830981
Si Si5 0.844225 0.533786 0.159560
Si Si6 0.154947 0.028009 0.445323
Si Si7 0.911431 0.550605 0.534656
O O1 0.659216 0.318902 0.344180
O O2 0.631277 0.117568 0.230023
O O3 0.517220 0.268362 0.290692
O O4 0.621977 0.380461 0.171133
O O5 0.250000 0.744701 0.494379
O O6 0.374402 0.871036 0.452753
O O7 0.369477 0.590593 0.510202
O O8 0.379344 0.087173 0.345193
O O9 0.386989 0.105302 0.140393
O O10 0.500000 0.000000 0.247509
O O11 0.883701 0.885816 0.747772
O O12 0.000000 0.000000 0.837704
O O13 0.911847 0.854772 0.939432
O O14 0.750000 0.530920 0.167279
O O15 0.865062 0.585125 0.051432
O O16 0.250000 0.028831 0.435393
O O17 0.000000 0.500000 0.548965
#
# Coordination Sequence:
#
# PCOD9377862 Si02
#       7
#     8   8   8   8   8   8   8
#     4  10  18  32  49  77 106 136 171 216 259 304
#     4  10  17  28  49  75 101 132 163 201 257 313
#     4  10  22  34  51  72 106 143 181 206 255 315
#     4   9  17  30  51  73 104 133 164 209 266 297
#     4  10  18  31  53  78 104 130 167 216 267 315
#     4   9  20  34  48  72 104 133 165 209 260 312
#     4  10  17  31  47  71 106 137 165 211 255 303
#
# _framework density 24.102779999999999
#
# number of rings (size 3 to 8) (size 9 to 14) (size 15 to 20)
#    0.000    2.286    4.286    1.286    0.000    2.857 
#    0.000    0.000    0.000    0.857    0.000    0.000 
#    0.000    0.000    0.000    0.000    0.000    0.000 
#
# Total GULP energy -156193.066663 kJ/mol
# GULP energy per Si atom -5578.323809 kJ/mol
# Density = 2.404792 g / cm^3
# Si number density = 24.102780 Si / 1000 Ang^3
#
#
#
# Elastic Constant Matrix: (Units=GPa)
#
#
# Indices 1 2 3 4 5 6 
#
# 1 69.4361 5.0791 56.1445 0.0000 0.0000 0.0000
# 2 5.0791 70.5755 41.3495 0.0000 0.0000 0.0000
# 3 56.1445 41.3495 268.3399 0.0000 0.0000 0.0000
# 4 0.0000 0.0000 0.0000 22.5787 0.0000 0.0000
# 5 0.0000 0.0000 0.0000 0.0000 36.0860 0.0000
# 6 0.0000 0.0000 0.0000 0.0000 0.0000 15.9856
#
#
#
# Elastic Compliance Matrix: (Units=1/GPa)
#
#
# Indices 1 2 3 4 5 6 
#
# 1 0.017394 0.000968 -0.003789 0.000000 0.000000 0.000000
# 2 0.000968 0.015629 -0.002611 0.000000 0.000000 0.000000
# 3 -0.003789 -0.002611 0.004922 0.000000 0.000000 0.000000
# 4 0.000000 0.000000 0.000000 0.044290 0.000000 0.000000
# 5 0.000000 0.000000 0.000000 0.000000 0.027712 0.000000
# 6 0.000000 0.000000 0.000000 0.000000 0.000000 0.062556
#
#
# Mechanical properties :
#
#
# Convention : Reuss Voigt Hill
#
# Bulk Modulus (GPa) = 36.92488 68.16644 52.54566
# Shear Modulus (GPa) = 25.98848 35.31529 30.65189
#
# Velocity S-wave (km/s) = 3.28721 3.83194 3.56998
# Velocity P-wave (km/s) = 5.45534 6.92252 6.23226
#
# Compressibility (1/GPa) = 0.02708201
#
# Stress axis : x y z
#
# Youngs Moduli (GPa) = 57.49022 63.98257 203.18571
#
# Poissons Ratio (x) = -0.06193 0.76977
# Poissons Ratio (y) = -0.05564 0.53049
# Poissons Ratio (z) = 0.21780 0.16705
#
# Static dielectric constant tensor:
#      x y z
#    x 1.881030 0.000000 0.000000 
#    y 0.000000 2.082660 0.000000 
#    z 0.000000 0.000000 1.992960 
# 
# From -- ./inp_files/16063.got.cif
#   From: 2010.05.17/outbox.cif.g08.bks.cpg/sg46_9_cif.got.tgz:16063.got - 2010.06.03 19:58:25.
