data_PCOD9377315
_publ_section_title
;
Structure prediction by ZEFSAII (Michael W. Deem and Ramdas Pophale) SiO2 
 PCOD9377315
Probable space group: I B A 2
;
_chemical_formula_sum "Si O2"
_cell_formula_units_Z 56
_cell_length_a 14.079941
_cell_length_b 14.049350
_cell_length_c 12.128751
_cell_angle_alpha 90.000000
_cell_angle_beta 90.000000
_cell_angle_gamma 90.000000
_cell_volume 2399.236982
_symmetry_space_group_name_H-M "I B A 2"
_symmetry_group_IT_number 45
_symmetry_cell_setting 'orthorhombic'
loop_
_space_group_symop_operation_xyz
x,y,z
-x,-y,z
-x,y,1/2+z
x,-y,1/2+z
1/2+x,1/2+y,1/2+z
1/2-x,1/2-y,1/2+z
1/2-x,1/2+y,z
1/2+x,1/2-y,z
loop_
_atom_site_type_symbol
_atom_site_label
_atom_site_fract_x
_atom_site_fract_y
_atom_site_fract_z
Si Si1 0.873510 0.240194 0.481270
Si Si2 0.094243 0.435434 0.303370
Si Si3 0.019248 0.886197 0.109115
Si Si4 0.295402 0.625650 0.460032
Si Si5 0.972647 0.270434 0.271378
Si Si6 0.213177 0.612084 0.226347
Si Si7 0.241761 0.590946 0.975349
O O1 0.796311 0.320393 0.511535
O O2 0.954071 0.280890 0.401374
O O3 0.807214 0.166344 0.412818
O O4 0.931052 0.173828 0.563141
O O5 0.173369 0.504362 0.248277
O O6 0.138498 0.408911 0.421476
O O7 0.000000 0.500000 0.313087
O O8 0.062074 0.338267 0.243448
O O9 0.028330 0.837455 0.229195
O O10 0.108591 0.858707 0.029495
O O11 0.000000 0.000000 0.110276
O O12 0.283832 0.641598 0.326638
O O13 0.280632 0.513855 0.467864
O O14 0.878828 0.321048 0.225895
O O15 0.247636 0.618411 0.102595
#
# Coordination Sequence:
#
# PCOD9377315 Si02
#       7
#     8   8   8   8   8   8   8
#     4  11  26  45  66 101 138 185 234 283 347 424
#     4   9  21  41  67 109 137 174 233 303 349 407
#     4  12  26  48  71 104 140 192 234 292 360 420
#     4  10  24  47  67 100 142 178 240 291 342 433
#     4  10  24  43  66 104 142 181 241 282 354 426
#     4   9  21  42  72 104 137 181 234 295 353 413
#     4  11  22  43  70  98 138 183 229 291 358 405
#
# _framework density 23.340751999999998
#
# number of rings (size 3 to 8) (size 9 to 14) (size 15 to 20)
#    0.000    1.714    1.429    1.714    6.000    5.714 
#    2.571    0.000    0.000    0.000    0.000    0.000 
#    0.000    0.000    0.000    0.000    0.000    0.000 
#
# Total GULP energy -156129.742835 kJ/mol
# GULP energy per Si atom -5576.062244 kJ/mol
# Density = 2.328763 g / cm^3
# Si number density = 23.340752 Si / 1000 Ang^3
#
#
#
# Elastic Constant Matrix: (Units=GPa)
#
#
# Indices 1 2 3 4 5 6 
#
# 1 64.1113 3.7968 24.9028 0.0000 0.0000 0.0000
# 2 3.7968 83.7788 -1.1688 0.0000 0.0000 0.0000
# 3 24.9028 -1.1688 58.3668 0.0000 0.0000 0.0000
# 4 0.0000 0.0000 0.0000 31.1335 0.0000 0.0000
# 5 0.0000 0.0000 0.0000 0.0000 22.9025 0.0000
# 6 0.0000 0.0000 0.0000 0.0000 0.0000 24.3076
#
#
#
# Elastic Compliance Matrix: (Units=1/GPa)
#
#
# Indices 1 2 3 4 5 6 
#
# 1 0.018774 -0.000963 -0.008029 0.000000 0.000000 0.000000
# 2 -0.000963 0.011989 0.000651 0.000000 0.000000 0.000000
# 3 -0.008029 0.000651 0.020572 0.000000 0.000000 0.000000
# 4 0.000000 0.000000 0.000000 0.032120 0.000000 0.000000
# 5 0.000000 0.000000 0.000000 0.000000 0.043663 0.000000
# 6 0.000000 0.000000 0.000000 0.000000 0.000000 0.041139
#
#
# Mechanical properties :
#
#
# Convention : Reuss Voigt Hill
#
# Bulk Modulus (GPa) = 28.85835 29.03538 28.94686
# Shear Modulus (GPa) = 25.44658 27.58380 26.51519
#
# Velocity S-wave (km/s) = 3.30543 3.44144 3.37412
# Velocity P-wave (km/s) = 5.19217 5.31584 5.25437
#
# Compressibility (1/GPa) = 0.03465202
#
# Stress axis : x y z
#
# Youngs Moduli (GPa) = 53.26594 83.41043 48.61016
#
# Poissons Ratio (x) = 0.08031 0.39030
# Poissons Ratio (y) = 0.05129 -0.03164
# Poissons Ratio (z) = 0.42769 -0.05429
#
# Static dielectric constant tensor:
#      x y z
#    x 1.992100 0.000000 0.000000 
#    y 0.000000 1.878250 0.000000 
#    z 0.000000 0.000000 1.971420 
# 
# From -- ./inp_files/4150.got.cif
#   From: 2010.05.17/outbox.cif.g08.bks.cpg/sg45_3_cif.got.tgz:4150.got - 2010.06.03 19:51:22.
