data_PCOD9377437
_publ_section_title
;
Structure prediction by ZEFSAII (Michael W. Deem and Ramdas Pophale) SiO2 
 PCOD9377437
Probable space group: I B A 2
;
_chemical_formula_sum "Si O2"
_cell_formula_units_Z 48
_cell_length_a 9.333720
_cell_length_b 17.920512
_cell_length_c 12.314995
_cell_angle_alpha 90.000000
_cell_angle_beta 90.000000
_cell_angle_gamma 90.000000
_cell_volume 2059.868147
_symmetry_space_group_name_H-M "I B A 2"
_symmetry_group_IT_number 45
_symmetry_cell_setting 'orthorhombic'
loop_
_space_group_symop_operation_xyz
x,y,z
-x,-y,z
-x,y,1/2+z
x,-y,1/2+z
1/2+x,1/2+y,1/2+z
1/2-x,1/2-y,1/2+z
1/2-x,1/2+y,z
1/2+x,1/2-y,z
loop_
_atom_site_type_symbol
_atom_site_label
_atom_site_fract_x
_atom_site_fract_y
_atom_site_fract_z
Si Si1 0.155180 0.023956 0.353010
Si Si2 0.760249 0.393936 0.971769
Si Si3 0.798471 0.748591 0.355285
Si Si4 0.606894 0.070181 0.689099
Si Si5 0.568621 0.638576 0.020826
Si Si6 0.456432 0.245708 0.211451
O O1 0.258354 0.068618 0.272261
O O2 0.124330 0.058227 0.474279
O O3 0.236581 0.947190 0.370817
O O4 0.000000 0.000000 0.305918
O O5 0.843058 0.323630 0.923974
O O6 0.603209 0.367536 0.011216
O O7 0.837430 0.438128 0.066658
O O8 0.848389 0.814639 0.430103
O O9 0.633329 0.743707 0.322615
O O10 0.878533 0.757398 0.241190
O O11 0.554727 0.157151 0.685922
O O12 0.500000 0.000000 0.712619
O O13 0.592053 0.688639 0.129081
#
# Coordination Sequence:
#
# PCOD9377437 Si02
#       6
#     8   8   8   8   8   8
#     4  10  25  47  75 102 144 194 248 307 365 448
#     4  11  25  47  71 106 147 194 247 304 374 446
#     4  12  24  45  72 105 144 185 244 304 364 438
#     4  12  26  46  70 109 149 193 241 308 379 441
#     4  11  24  46  75 106 140 194 251 302 365 444
#     4  12  26  43  76 108 144 190 243 306 370 440
#
# _framework density 23.302461999999998
#
# number of rings (size 3 to 8) (size 9 to 14) (size 15 to 20)
#    0.000    0.667    5.000    2.000    0.000    6.667 
#    0.000    0.000    0.000    0.000    0.000    0.000 
#    0.000    0.000    0.000    0.000    0.000    0.000 
#
# Total GULP energy -133742.742534 kJ/mol
# GULP energy per Si atom -5572.614272 kJ/mol
# Density = 2.324942 g / cm^3
# Si number density = 23.302462 Si / 1000 Ang^3
#
#
#
# Elastic Constant Matrix: (Units=GPa)
#
#
# Indices 1 2 3 4 5 6 
#
# 1 55.1733 21.5582 31.4755 0.0000 0.0000 0.0000
# 2 21.5582 99.0812 17.8776 0.0000 0.0000 0.0000
# 3 31.4755 17.8776 48.1201 0.0000 0.0000 0.0000
# 4 0.0000 0.0000 0.0000 44.5637 0.0000 0.0000
# 5 0.0000 0.0000 0.0000 0.0000 17.0345 0.0000
# 6 0.0000 0.0000 0.0000 0.0000 0.0000 33.1999
#
#
#
# Elastic Compliance Matrix: (Units=1/GPa)
#
#
# Indices 1 2 3 4 5 6 
#
# 1 0.029822 -0.003182 -0.018324 0.000000 0.000000 0.000000
# 2 -0.003182 0.011158 -0.002064 0.000000 0.000000 0.000000
# 3 -0.018324 -0.002064 0.033534 0.000000 0.000000 0.000000
# 4 0.000000 0.000000 0.000000 0.022440 0.000000 0.000000
# 5 0.000000 0.000000 0.000000 0.000000 0.058704 0.000000
# 6 0.000000 0.000000 0.000000 0.000000 0.000000 0.030121
#
#
# Mechanical properties :
#
#
# Convention : Reuss Voigt Hill
#
# Bulk Modulus (GPa) = 36.53259 38.24413 37.38836
# Shear Modulus (GPa) = 20.65747 27.72386 24.19067
#
# Velocity S-wave (km/s) = 2.98063 3.45300 3.22548
# Velocity P-wave (km/s) = 5.24949 5.68729 5.47277
#
# Compressibility (1/GPa) = 0.02737282
#
# Stress axis : x y z
#
# Youngs Moduli (GPa) = 33.53235 89.62581 29.82041
#
# Poissons Ratio (x) = 0.28522 0.54644
# Poissons Ratio (y) = 0.10671 0.06154
# Poissons Ratio (z) = 0.61446 0.18495
#
# Static dielectric constant tensor:
#      x y z
#    x 1.981000 0.000000 0.000000 
#    y 0.000000 1.862540 0.000000 
#    z 0.000000 0.000000 1.884020 
# 
# From -- ./inp_files/5622.got.cif
#   From: 2010.05.17/outbox.cif.g08.bks.cpg/sg45_3_cif.got.tgz:5622.got - 2010.06.03 19:51:22.
