data_PCOD9377582
_publ_section_title
;
Structure prediction by ZEFSAII (Michael W. Deem and Ramdas Pophale) SiO2 
 PCOD9377582
Probable space group: I B A 2
;
_chemical_formula_sum "Si O2"
_cell_formula_units_Z 48
_cell_length_a 9.984516
_cell_length_b 8.114477
_cell_length_c 23.754766
_cell_angle_alpha 90.000000
_cell_angle_beta 90.000000
_cell_angle_gamma 90.000000
_cell_volume 1924.590366
_symmetry_space_group_name_H-M "I B A 2"
_symmetry_group_IT_number 45
_symmetry_cell_setting 'orthorhombic'
loop_
_space_group_symop_operation_xyz
x,y,z
-x,-y,z
-x,y,1/2+z
x,-y,1/2+z
1/2+x,1/2+y,1/2+z
1/2-x,1/2-y,1/2+z
1/2-x,1/2+y,z
1/2+x,1/2-y,z
loop_
_atom_site_type_symbol
_atom_site_label
_atom_site_fract_x
_atom_site_fract_y
_atom_site_fract_z
Si Si1 0.325032 0.401943 0.610720
Si Si2 0.908693 0.200108 0.734798
Si Si3 0.425756 0.757423 0.568355
Si Si4 0.841634 0.374691 0.945324
Si Si5 0.173588 0.131150 0.780497
Si Si6 0.093716 0.740847 0.401972
O O1 0.370734 0.376651 0.674891
O O2 0.366130 0.575764 0.583056
O O3 0.416591 0.264410 0.579047
O O4 0.166843 0.373036 0.606971
O O5 0.819502 0.351895 0.753763
O O6 0.066638 0.221392 0.739761
O O7 0.866539 0.059387 0.779601
O O8 0.396095 0.828595 0.506712
O O9 0.869190 0.556222 0.921667
O O10 0.682806 0.350266 0.943683
O O11 0.933208 0.253813 0.906434
O O12 0.148283 0.209869 0.841096
#
# Coordination Sequence:
#
# PCOD9377582 Si02
#       6
#     8   8   8   8   8   8
#     4  11  23  42  66  98 131 168 212 261 318 384
#     4  11  23  42  66  98 131 168 212 261 318 384
#     4  11  23  41  64  92 130 170 210 264 318 375
#     4  11  24  42  63  92 125 165 214 262 313 375
#     4  11  23  41  64  92 130 170 210 264 318 375
#     4  11  24  42  63  92 125 165 214 262 313 375
#
# _framework density 24.940370000000001
#
# number of rings (size 3 to 8) (size 9 to 14) (size 15 to 20)
#    0.000    1.000    0.000    8.000    0.000    7.333 
#    0.000    3.333    0.000    0.000    0.000    0.000 
#    0.000    0.000    0.000    0.000    0.000    0.000 
#
# Total GULP energy -134206.909592 kJ/mol
# GULP energy per Si atom -5591.954566 kJ/mol
# Density = 2.488360 g / cm^3
# Si number density = 24.940370 Si / 1000 Ang^3
#
#
#
# Elastic Constant Matrix: (Units=GPa)
#
#
# Indices 1 2 3 4 5 6 
#
# 1 35.9358 -3.2651 -21.0015 0.0000 0.0000 0.0000
# 2 -3.2651 63.0334 17.4324 0.0000 0.0000 0.0000
# 3 -21.0015 17.4324 140.3044 0.0000 0.0000 0.0000
# 4 0.0000 0.0000 0.0000 25.5257 0.0000 0.0000
# 5 0.0000 0.0000 0.0000 0.0000 35.6739 0.0000
# 6 0.0000 0.0000 0.0000 0.0000 0.0000 43.3813
#
#
#
# Elastic Compliance Matrix: (Units=1/GPa)
#
#
# Indices 1 2 3 4 5 6 
#
# 1 0.030502 0.000329 0.004525 0.000000 0.000000 0.000000
# 2 0.000329 0.016433 -0.001993 0.000000 0.000000 0.000000
# 3 0.004525 -0.001993 0.008052 0.000000 0.000000 0.000000
# 4 0.000000 0.000000 0.000000 0.039176 0.000000 0.000000
# 5 0.000000 0.000000 0.000000 0.000000 0.028032 0.000000
# 6 0.000000 0.000000 0.000000 0.000000 0.000000 0.023051
#
#
# Mechanical properties :
#
#
# Convention : Reuss Voigt Hill
#
# Bulk Modulus (GPa) = 16.47223 25.06725 20.76974
# Shear Modulus (GPa) = 31.29691 37.32337 34.31014
#
# Velocity S-wave (km/s) = 3.54626 3.87266 3.71305
# Velocity P-wave (km/s) = 4.83600 5.48356 5.16993
#
# Compressibility (1/GPa) = 0.06070824
#
# Stress axis : x y z
#
# Youngs Moduli (GPa) = 32.78516 60.85437 124.18923
#
# Poissons Ratio (x) = -0.01999 -0.56193
# Poissons Ratio (y) = -0.01077 0.24745
# Poissons Ratio (z) = -0.14835 0.12125
#
# Static dielectric constant tensor:
#      x y z
#    x 2.082680 0.000000 0.000000 
#    y 0.000000 2.034200 0.000000 
#    z 0.000000 0.000000 1.995250 
# 
# From -- ./inp_files/9667.got.cif
#   From: 2010.05.17/outbox.cif.g08.bks.cpg/sg45_5_cif.got.tgz:9667.got - 2010.06.03 19:51:22.
