data_PCOD9377551
_publ_section_title
;
Structure prediction by ZEFSAII (Michael W. Deem and Ramdas Pophale) SiO2 
 PCOD9377551
Probable space group: I B A 2
;
_chemical_formula_sum "Si O2"
_cell_formula_units_Z 64
_cell_length_a 14.112615
_cell_length_b 20.959301
_cell_length_c 9.579697
_cell_angle_alpha 90.000000
_cell_angle_beta 90.000000
_cell_angle_gamma 90.000000
_cell_volume 2833.583803
_symmetry_space_group_name_H-M "I B A 2"
_symmetry_group_IT_number 45
_symmetry_cell_setting 'orthorhombic'
loop_
_space_group_symop_operation_xyz
x,y,z
-x,-y,z
-x,y,1/2+z
x,-y,1/2+z
1/2+x,1/2+y,1/2+z
1/2-x,1/2-y,1/2+z
1/2-x,1/2+y,z
1/2+x,1/2-y,z
loop_
_atom_site_type_symbol
_atom_site_label
_atom_site_fract_x
_atom_site_fract_y
_atom_site_fract_z
Si Si1 0.768546 0.487010 0.462170
Si Si2 0.156508 0.298343 0.796524
Si Si3 0.048969 0.651837 0.873784
Si Si4 0.952847 0.566468 0.106821
Si Si5 0.518428 0.426109 0.265009
Si Si6 0.099838 0.890631 0.031038
Si Si7 0.313052 0.256437 0.994768
Si Si8 0.264429 0.575916 0.193878
O O1 0.864389 0.453781 0.512106
O O2 0.682664 0.442521 0.516766
O O3 0.759352 0.484175 0.295489
O O4 0.758940 0.554808 0.537515
O O5 0.046407 0.309606 0.829625
O O6 0.209768 0.267967 0.929281
O O7 0.180613 0.257826 0.658920
O O8 0.202477 0.366898 0.755706
O O9 0.020977 0.608173 0.006888
O O10 0.073635 0.607531 0.741955
O O11 0.131256 0.700408 0.915818
O O12 0.000000 0.500000 0.153191
O O13 0.500000 0.500000 0.233400
O O14 0.516977 0.415442 0.429830
O O15 0.624588 0.410043 0.213594
O O16 0.440403 0.386036 0.185102
O O17 0.133818 0.823327 0.974506
#
# Coordination Sequence:
#
# PCOD9377551 Si02
#       8
#     8   8   8   8   8   8   8   8
#     4  11  24  43  69 100 147 177 232 295 358 426
#     4  12  27  52  71 105 146 189 248 298 358 437
#     4  12  27  49  73 108 144 189 244 297 364 437
#     4  12  26  46  76 104 144 185 237 301 366 434
#     4  11  22  41  69  99 142 178 232 294 353 420
#     4  11  25  44  65 105 136 188 234 287 356 415
#     4  12  29  47  76 101 146 197 239 299 358 425
#     4  11  24  43  69 103 142 181 233 295 358 425
#
# _framework density 22.586238999999999
#
# number of rings (size 3 to 8) (size 9 to 14) (size 15 to 20)
#    0.000    0.500    6.250    1.500    8.750    1.000 
#    0.000    0.000    0.000    0.000    0.000    0.000 
#    0.000    0.000    0.000    0.000    0.000    0.000 
#
# Total GULP energy -179167.523801 kJ/mol
# GULP energy per Si atom -5598.985119 kJ/mol
# Density = 2.253483 g / cm^3
# Si number density = 22.586239 Si / 1000 Ang^3
#
#
#
# Elastic Constant Matrix: (Units=GPa)
#
#
# Indices 1 2 3 4 5 6 
#
# 1 50.8561 2.3697 -9.6789 0.0000 0.0000 0.0000
# 2 2.3697 53.4963 16.6122 0.0000 0.0000 0.0000
# 3 -9.6789 16.6122 49.7899 0.0000 0.0000 0.0000
# 4 0.0000 0.0000 0.0000 41.2152 0.0000 0.0000
# 5 0.0000 0.0000 0.0000 0.0000 35.0099 0.0000
# 6 0.0000 0.0000 0.0000 0.0000 0.0000 24.0456
#
#
#
# Elastic Compliance Matrix: (Units=1/GPa)
#
#
# Indices 1 2 3 4 5 6 
#
# 1 0.020695 -0.002416 0.004829 0.000000 0.000000 0.000000
# 2 -0.002416 0.021136 -0.007522 0.000000 0.000000 0.000000
# 3 0.004829 -0.007522 0.023533 0.000000 0.000000 0.000000
# 4 0.000000 0.000000 0.000000 0.024263 0.000000 0.000000
# 5 0.000000 0.000000 0.000000 0.000000 0.028563 0.000000
# 6 0.000000 0.000000 0.000000 0.000000 0.000000 0.041588
#
#
# Mechanical properties :
#
#
# Convention : Reuss Voigt Hill
#
# Bulk Modulus (GPa) = 18.13369 19.19426 18.66398
# Shear Modulus (GPa) = 26.54258 29.71008 28.12633
#
# Velocity S-wave (km/s) = 3.43179 3.63079 3.53269
# Velocity P-wave (km/s) = 4.87329 5.10818 4.99212
#
# Compressibility (1/GPa) = 0.05514597
#
# Stress axis : x y z
#
# Youngs Moduli (GPa) = 48.32080 47.31353 42.49405
#
# Poissons Ratio (x) = 0.11433 -0.20521
# Poissons Ratio (y) = 0.11676 0.31962
# Poissons Ratio (z) = -0.23335 0.35587
#
# Static dielectric constant tensor:
#      x y z
#    x 1.829090 0.000000 0.000000 
#    y 0.000000 1.844720 0.000000 
#    z 0.000000 0.000000 1.834190 
# 
# From -- ./inp_files/1931.got.cif
#   From: 2010.05.17/outbox.cif.g08.bks.cpg/sg45_1_cif.got.tgz:1931.got - 2010.06.03 19:51:22.
