data_PCOD9377041
_publ_section_title
;
Structure prediction by ZEFSAII (Michael W. Deem and Ramdas Pophale) SiO2 
 PCOD9377041
Probable space group: I B A 2
;
_chemical_formula_sum "Si O2"
_cell_formula_units_Z 56
_cell_length_a 5.100398
_cell_length_b 31.723012
_cell_length_c 14.778346
_cell_angle_alpha 90.000000
_cell_angle_beta 90.000000
_cell_angle_gamma 90.000000
_cell_volume 2391.136190
_symmetry_space_group_name_H-M "I B A 2"
_symmetry_group_IT_number 45
_symmetry_cell_setting 'orthorhombic'
loop_
_space_group_symop_operation_xyz
x,y,z
-x,-y,z
-x,y,1/2+z
x,-y,1/2+z
1/2+x,1/2+y,1/2+z
1/2-x,1/2-y,1/2+z
1/2-x,1/2+y,z
1/2+x,1/2-y,z
loop_
_atom_site_type_symbol
_atom_site_label
_atom_site_fract_x
_atom_site_fract_y
_atom_site_fract_z
Si Si1 0.530057 0.639095 0.582970
Si Si2 0.879012 0.724316 0.255559
Si Si3 0.745231 0.346799 0.265385
Si Si4 0.256634 0.972069 0.211589
Si Si5 0.358321 0.679717 0.910003
Si Si6 0.462186 0.916773 0.047542
Si Si7 0.903413 0.590493 0.354129
O O1 0.529192 0.649958 0.688099
O O2 0.599889 0.677910 0.516754
O O3 0.260653 0.619332 0.547710
O O4 0.762348 0.604124 0.576661
O O5 0.097381 0.758274 0.227526
O O6 0.014244 0.680650 0.225993
O O7 0.821719 0.714866 0.362976
O O8 0.626030 0.322680 0.351954
O O9 0.854094 0.391761 0.296027
O O10 0.355651 0.950419 0.119020
O O11 0.500000 0.000000 0.244610
O O12 0.776577 0.063277 0.288604
O O13 0.000000 0.000000 0.198000
O O14 0.233858 0.633650 0.887641
O O15 0.502959 0.932456 0.945120
#
# Coordination Sequence:
#
# PCOD9377041 Si02
#       7
#     8   8   8   8   8   8   8
#     4  11  23  38  70 100 130 166 232 291 329 396
#     4  11  23  41  65  92 139 181 214 274 340 400
#     4  11  21  41  71 100 131 178 235 280 339 400
#     4  12  27  44  67  99 140 184 224 283 359 419
#     4  10  22  41  69 102 126 179 233 275 335 401
#     4  11  23  43  66  96 134 172 226 289 340 401
#     4  10  23  42  70  99 132 180 232 286 336 411
#
# _framework density 23.419829
#
# number of rings (size 3 to 8) (size 9 to 14) (size 15 to 20)
#    0.000    1.143    4.286    1.714    4.000    0.571 
#    0.000    2.857    0.000    0.000    0.000    0.000 
#    0.000    0.000    0.000    0.000    0.000    0.000 
#
# Total GULP energy -156437.280418 kJ/mol
# GULP energy per Si atom -5587.045729 kJ/mol
# Density = 2.336652 g / cm^3
# Si number density = 23.419829 Si / 1000 Ang^3
#
#
#
# Elastic Constant Matrix: (Units=GPa)
#
#
# Indices 1 2 3 4 5 6 
#
# 1 114.9644 26.8519 6.4974 0.0000 0.0000 0.0000
# 2 26.8519 50.3789 28.7448 0.0000 0.0000 0.0000
# 3 6.4974 28.7448 102.0104 0.0000 0.0000 0.0000
# 4 0.0000 0.0000 0.0000 17.4787 0.0000 0.0000
# 5 0.0000 0.0000 0.0000 0.0000 20.0396 0.0000
# 6 0.0000 0.0000 0.0000 0.0000 0.0000 43.7440
#
#
#
# Elastic Compliance Matrix: (Units=1/GPa)
#
#
# Indices 1 2 3 4 5 6 
#
# 1 0.010026 -0.005933 0.001033 0.000000 0.000000 0.000000
# 2 -0.005933 0.027164 -0.007276 0.000000 0.000000 0.000000
# 3 0.001033 -0.007276 0.011787 0.000000 0.000000 0.000000
# 4 0.000000 0.000000 0.000000 0.057213 0.000000 0.000000
# 5 0.000000 0.000000 0.000000 0.000000 0.049901 0.000000
# 6 0.000000 0.000000 0.000000 0.000000 0.000000 0.022860
#
#
# Mechanical properties :
#
#
# Convention : Reuss Voigt Hill
#
# Bulk Modulus (GPa) = 40.61036 43.50466 42.05751
# Shear Modulus (GPa) = 23.63936 29.93643 26.78789
#
# Velocity S-wave (km/s) = 3.18051 3.57914 3.38570
# Velocity P-wave (km/s) = 5.55566 5.97467 5.76897
#
# Compressibility (1/GPa) = 0.02462426
#
# Stress axis : x y z
#
# Youngs Moduli (GPa) = 99.74288 36.81383 84.83595
#
# Poissons Ratio (x) = 0.21843 -0.08766
# Poissons Ratio (y) = 0.59181 0.61730
# Poissons Ratio (z) = -0.10307 0.26787
#
# Static dielectric constant tensor:
#      x y z
#    x 1.929730 0.000000 0.000000 
#    y 0.000000 2.062100 0.000000 
#    z 0.000000 0.000000 1.907970 
# 
# From -- ./inp_files/5263.got.cif
#   From: 2010.05.17/outbox.cif.g08.bks.cpg/sg45_3_cif.got.tgz:5263.got - 2010.06.03 19:51:22.
