data_PCOD9377472
_publ_section_title
;
Structure prediction by ZEFSAII (Michael W. Deem and Ramdas Pophale) SiO2 
 PCOD9377472
Probable space group: I B A 2
;
_chemical_formula_sum "Si O2"
_cell_formula_units_Z 60
_cell_length_a 14.037685
_cell_length_b 8.272876
_cell_length_c 25.082336
_cell_angle_alpha 90.000000
_cell_angle_beta 90.000000
_cell_angle_gamma 90.000000
_cell_volume 2912.862530
_symmetry_space_group_name_H-M "I B A 2"
_symmetry_group_IT_number 45
_symmetry_cell_setting 'orthorhombic'
loop_
_space_group_symop_operation_xyz
x,y,z
-x,-y,z
-x,y,1/2+z
x,-y,1/2+z
1/2+x,1/2+y,1/2+z
1/2-x,1/2-y,1/2+z
1/2-x,1/2+y,z
1/2+x,1/2-y,z
loop_
_atom_site_type_symbol
_atom_site_label
_atom_site_fract_x
_atom_site_fract_y
_atom_site_fract_z
Si Si1 0.877034 0.317842 0.744910
Si Si2 0.000000 0.500000 0.093856
Si Si3 0.757699 0.260368 0.936764
Si Si4 0.972226 0.184192 0.167177
Si Si5 0.409538 0.306748 0.852693
Si Si6 0.610850 0.980649 0.490667
Si Si7 0.623577 0.340422 0.840496
Si Si8 0.319344 0.178381 0.230488
O O1 0.971039 0.240831 0.720271
O O2 0.881787 0.327115 0.809188
O O3 0.792768 0.199762 0.727798
O O4 0.856550 0.496701 0.723164
O O5 0.008342 0.668323 0.126098
O O6 0.910573 0.521143 0.053541
O O7 0.845693 0.177220 0.905091
O O8 0.817679 0.375314 0.975277
O O9 0.702201 0.335670 0.886367
O O10 0.673645 0.166988 0.967715
O O11 0.864315 0.203095 0.186632
O O12 0.000000 0.000000 0.152111
O O13 0.521183 0.288015 0.863775
O O14 0.391655 0.475602 0.822400
O O15 0.500000 0.000000 0.468640
O O16 0.653081 0.234892 0.790162
#
# Coordination Sequence:
#
# PCOD9377472 Si02
#       8
#     8   4   8   8   8   8   8   8
#     4  12  24  40  64 104 151 197 242 293 364 459
#     4  10  26  58  70 108 138 186 264 326 374 442
#     4  12  22  46  68 100 146 192 236 318 368 442
#     4  12  24  50  77 103 144 189 239 316 382 437
#     4  11  23  37  61 100 147 192 239 282 366 460
#     4  10  26  50  74 103 144 185 260 320 383 436
#     4  11  23  37  61 100 147 192 239 282 366 460
#     4  12  24  40  64 104 151 197 242 293 364 459
#
# _framework density 20.598295
#
# number of rings (size 3 to 8) (size 9 to 14) (size 15 to 20)
#    0.400    0.267    5.333    3.200    1.867    0.000 
#    4.800    0.000    0.000    0.000    0.000    0.000 
#    0.000    0.000    0.000    0.000    0.000    0.000 
#
# Total GULP energy -167186.554622 kJ/mol
# GULP energy per Si atom -5572.885154 kJ/mol
# Density = 2.055141 g / cm^3
# Si number density = 20.598295 Si / 1000 Ang^3
#
#
#
# Elastic Constant Matrix: (Units=GPa)
#
#
# Indices 1 2 3 4 5 6 
#
# 1 103.7132 0.9986 21.7108 0.0000 0.0000 0.0000
# 2 0.9986 79.1839 32.2859 0.0000 0.0000 0.0000
# 3 21.7108 32.2859 87.5636 0.0000 0.0000 0.0000
# 4 0.0000 0.0000 0.0000 35.2819 0.0000 0.0000
# 5 0.0000 0.0000 0.0000 0.0000 28.3938 0.0000
# 6 0.0000 0.0000 0.0000 0.0000 0.0000 25.5789
#
#
#
# Elastic Compliance Matrix: (Units=1/GPa)
#
#
# Indices 1 2 3 4 5 6 
#
# 1 0.010246 0.001067 -0.002934 0.000000 0.000000 0.000000
# 2 0.001067 0.014974 -0.005786 0.000000 0.000000 0.000000
# 3 -0.002934 -0.005786 0.014281 0.000000 0.000000 0.000000
# 4 0.000000 0.000000 0.000000 0.028343 0.000000 0.000000
# 5 0.000000 0.000000 0.000000 0.000000 0.035219 0.000000
# 6 0.000000 0.000000 0.000000 0.000000 0.000000 0.039095
#
#
# Mechanical properties :
#
#
# Convention : Reuss Voigt Hill
#
# Bulk Modulus (GPa) = 41.32911 42.27235 41.80073
# Shear Modulus (GPa) = 30.20622 32.21527 31.21074
#
# Velocity S-wave (km/s) = 3.83357 3.95901 3.89679
# Velocity P-wave (km/s) = 6.30102 6.43934 6.37056
#
# Compressibility (1/GPa) = 0.02419602
#
# Stress axis : x y z
#
# Youngs Moduli (GPa) = 97.60047 66.78039 70.02310
#
# Poissons Ratio (x) = -0.07125 0.20543
# Poissons Ratio (y) = -0.10414 0.40514
# Poissons Ratio (z) = 0.28634 0.38638
#
# Static dielectric constant tensor:
#      x y z
#    x 1.750620 0.000000 0.000000 
#    y 0.000000 1.783680 0.000000 
#    z 0.000000 0.000000 1.732560 
# 
# From -- ./inp_files/9767.got.cif
#   From: 2010.05.17/outbox.cif.g08.bks.cpg/sg45_5_cif.got.tgz:9767.got - 2010.06.03 19:51:22.
