data_PCOD9377434
_publ_section_title
;
Structure prediction by ZEFSAII (Michael W. Deem and Ramdas Pophale) SiO2 
 PCOD9377434
Probable space group: I B A 2
;
_chemical_formula_sum "Si O2"
_cell_formula_units_Z 60
_cell_length_a 13.278531
_cell_length_b 12.128241
_cell_length_c 18.028443
_cell_angle_alpha 90.000000
_cell_angle_beta 90.000000
_cell_angle_gamma 90.000000
_cell_volume 2903.394643
_symmetry_space_group_name_H-M "I B A 2"
_symmetry_group_IT_number 45
_symmetry_cell_setting 'orthorhombic'
loop_
_space_group_symop_operation_xyz
x,y,z
-x,-y,z
-x,y,1/2+z
x,-y,1/2+z
1/2+x,1/2+y,1/2+z
1/2-x,1/2-y,1/2+z
1/2-x,1/2+y,z
1/2+x,1/2-y,z
loop_
_atom_site_type_symbol
_atom_site_label
_atom_site_fract_x
_atom_site_fract_y
_atom_site_fract_z
Si Si1 0.948941 0.394653 0.479690
Si Si2 0.000000 0.000000 0.899930
Si Si3 0.096574 0.567632 0.315117
Si Si4 0.078457 0.178039 0.782367
Si Si5 0.918254 0.140877 0.653481
Si Si6 0.232492 0.967305 0.214644
Si Si7 0.563316 0.325722 0.515145
Si Si8 0.219340 0.323851 0.088698
O O1 0.906416 0.447327 0.403610
O O2 0.853783 0.344297 0.520615
O O3 0.000000 0.500000 0.519440
O O4 0.026139 0.290259 0.478511
O O5 0.946077 0.911712 0.846029
O O6 0.067728 0.922524 0.953584
O O7 0.082085 0.697676 0.308749
O O8 0.196088 0.529450 0.272120
O O9 0.000000 0.500000 0.285060
O O10 0.994891 0.176859 0.717669
O O11 0.186401 0.142398 0.750716
O O12 0.865132 0.033132 0.686115
O O13 0.826585 0.223130 0.635257
O O14 0.981899 0.136043 0.577366
O O15 0.289254 0.930376 0.141099
O O16 0.667957 0.309037 0.558564
#
# Coordination Sequence:
#
# PCOD9377434 Si02
#       8
#     8   4   8   8   8   8   8   8
#     4  10  25  47  66 102 143 183 232 294 362 431
#     4  12  24  42  70 102 140 192 232 310 360 416
#     4  11  26  49  70 102 147 188 232 302 358 432
#     4  12  24  46  72 106 143 186 241 291 369 431
#     4  11  24  44  69 103 142 179 238 297 354 423
#     4  12  24  42  69 104 138 189 237 292 355 432
#     4  11  24  46  70 103 142 184 243 296 359 435
#     4  11  25  41  72 104 132 195 232 296 356 432
#
# _framework density 20.665465000000001
#
# number of rings (size 3 to 8) (size 9 to 14) (size 15 to 20)
#    0.000    0.800    4.000    2.400    3.733    1.600 
#    4.800    0.000    0.000    0.000    0.000    0.000 
#    0.000    0.000    0.000    0.000    0.000    0.000 
#
# Total GULP energy -167462.850241 kJ/mol
# GULP energy per Si atom -5582.095008 kJ/mol
# Density = 2.061843 g / cm^3
# Si number density = 20.665465 Si / 1000 Ang^3
#
#
#
# Elastic Constant Matrix: (Units=GPa)
#
#
# Indices 1 2 3 4 5 6 
#
# 1 91.3405 38.9657 37.7307 0.0000 0.0000 0.0000
# 2 38.9657 79.6613 2.0708 0.0000 0.0000 0.0000
# 3 37.7307 2.0708 73.3421 0.0000 0.0000 0.0000
# 4 0.0000 0.0000 0.0000 38.6182 0.0000 0.0000
# 5 0.0000 0.0000 0.0000 0.0000 2.5393 0.0000
# 6 0.0000 0.0000 0.0000 0.0000 0.0000 29.1259
#
#
#
# Elastic Compliance Matrix: (Units=1/GPa)
#
#
# Indices 1 2 3 4 5 6 
#
# 1 0.018558 -0.008836 -0.009298 0.000000 0.000000 0.000000
# 2 -0.008836 0.016769 0.004072 0.000000 0.000000 0.000000
# 3 -0.009298 0.004072 0.018303 0.000000 0.000000 0.000000
# 4 0.000000 0.000000 0.000000 0.025895 0.000000 0.000000
# 5 0.000000 0.000000 0.000000 0.000000 0.393815 0.000000
# 6 0.000000 0.000000 0.000000 0.000000 0.000000 0.034334
#
#
# Mechanical properties :
#
#
# Convention : Reuss Voigt Hill
#
# Bulk Modulus (GPa) = 39.20426 44.65315 41.92870
# Shear Modulus (GPa) = 9.18613 25.09510 17.14061
#
# Velocity S-wave (km/s) = 2.11064 3.48853 2.88311
# Velocity P-wave (km/s) = 4.99518 6.15475 5.60504
#
# Compressibility (1/GPa) = 0.02550743
#
# Stress axis : x y z
#
# Youngs Moduli (GPa) = 53.88488 59.63284 54.63607
#
# Poissons Ratio (x) = 0.52691 0.50799
# Poissons Ratio (y) = 0.47612 -0.22248
# Poissons Ratio (z) = 0.50100 -0.24283
#
# Static dielectric constant tensor:
#      x y z
#    x 1.728980 0.000000 0.000000 
#    y 0.000000 1.881540 0.000000 
#    z 0.000000 0.000000 1.773850 
# 
# From -- ./inp_files/9099.got.cif
#   From: 2010.05.17/outbox.cif.g08.bks.cpg/sg45_5_cif.got.tgz:9099.got - 2010.06.03 19:51:22.
