data_PCOD9377163
_publ_section_title
;
Structure prediction by ZEFSAII (Michael W. Deem and Ramdas Pophale) SiO2 
 PCOD9377163
Probable space group: I B A 2
;
_chemical_formula_sum "Si O2"
_cell_formula_units_Z 40
_cell_length_a 24.509154
_cell_length_b 10.825357
_cell_length_c 5.404578
_cell_angle_alpha 90.000000
_cell_angle_beta 90.000000
_cell_angle_gamma 90.000000
_cell_volume 1433.944482
_symmetry_space_group_name_H-M "I B A 2"
_symmetry_group_IT_number 45
_symmetry_cell_setting 'orthorhombic'
loop_
_space_group_symop_operation_xyz
x,y,z
-x,-y,z
-x,y,1/2+z
x,-y,1/2+z
1/2+x,1/2+y,1/2+z
1/2-x,1/2-y,1/2+z
1/2-x,1/2+y,z
1/2+x,1/2-y,z
loop_
_atom_site_type_symbol
_atom_site_label
_atom_site_fract_x
_atom_site_fract_y
_atom_site_fract_z
Si Si1 0.562417 0.039467 0.947080
Si Si2 0.626021 0.257671 0.125822
Si Si3 0.524246 0.363319 0.061619
Si Si4 0.307403 0.203629 0.125151
Si Si5 0.771301 0.966410 0.617524
O O1 0.574487 0.165372 0.088797
O O2 0.500000 0.000000 0.913024
O O3 0.586760 0.045904 0.669497
O O4 0.588880 0.378290 0.117375
O O5 0.661259 0.229323 0.881783
O O6 0.656776 0.226645 0.378866
O O7 0.500000 0.500000 0.033103
O O8 0.508829 0.306338 0.793858
O O9 0.264033 0.319152 0.118597
O O10 0.278668 0.067598 0.119084
O O11 0.801629 0.001241 0.866861
#
# Coordination Sequence:
#
# PCOD9377163 Si02
#       5
#     8   8   8   8   8
#     4  10  23  40  66 103 150 201 248 311 379 444
#     4  12  26  46  78 118 150 204 272 313 373 496
#     4  10  23  45  72 102 156 203 246 309 390 449
#     4  12  28  50  81 119 154 208 264 325 397 470
#     4  12  26  53  83 112 158 206 252 332 419 459
#
# _framework density 27.895084000000001
#
# number of rings (size 3 to 8) (size 9 to 14) (size 15 to 20)
#    0.000    0.800    0.000    6.000    5.600    4.800 
#   21.600    0.000    0.000    0.000    0.000    0.000 
#    0.000    0.000    0.000    0.000    0.000    0.000 
#
# Total GULP energy -111694.920903 kJ/mol
# GULP energy per Si atom -5584.746045 kJ/mol
# Density = 2.783159 g / cm^3
# Si number density = 27.895084 Si / 1000 Ang^3
#
#
#
# Elastic Constant Matrix: (Units=GPa)
#
#
# Indices 1 2 3 4 5 6 
#
# 1 118.0234 58.4375 39.7466 0.0000 0.0000 0.0000
# 2 58.4375 119.7666 17.0885 0.0000 0.0000 0.0000
# 3 39.7466 17.0885 244.0667 0.0001 0.0000 0.0000
# 4 0.0000 0.0000 0.0001 42.4100 0.0000 0.0000
# 5 0.0000 0.0000 0.0000 0.0000 30.1478 0.0000
# 6 0.0000 0.0000 0.0000 0.0000 0.0000 59.5402
#
#
#
# Elastic Compliance Matrix: (Units=1/GPa)
#
#
# Indices 1 2 3 4 5 6 
#
# 1 0.011706 -0.005495 -0.001522 0.000000 0.000000 0.000000
# 2 -0.005495 0.011013 0.000124 0.000000 0.000000 0.000000
# 3 -0.001522 0.000124 0.004336 0.000000 0.000000 0.000000
# 4 0.000000 0.000000 0.000000 0.023579 0.000000 0.000000
# 5 0.000000 0.000000 0.000000 0.000000 0.033170 0.000000
# 6 0.000000 0.000000 0.000000 0.000000 0.000000 0.016795
#
#
# Mechanical properties :
#
#
# Convention : Reuss Voigt Hill
#
# Bulk Modulus (GPa) = 75.35645 79.15576 77.25611
# Shear Modulus (GPa) = 42.08473 50.85855 46.47164
#
# Velocity S-wave (km/s) = 3.88839 4.27454 4.08603
# Velocity P-wave (km/s) = 6.87257 7.26636 7.07221
#
# Compressibility (1/GPa) = 0.01327026
#
# Stress axis : x y z
#
# Youngs Moduli (GPa) = 85.42742 90.80309 230.60729
#
# Poissons Ratio (x) = 0.49892 0.35090
# Poissons Ratio (y) = 0.46938 -0.02853
# Poissons Ratio (z) = 0.12999 -0.01123
#
# Static dielectric constant tensor:
#      x y z
#    x 2.427180 0.000000 0.000000 
#    y 0.000000 2.700870 0.000000 
#    z 0.000000 0.000000 2.348010 
# 
# From -- ./inp_files/658.got.cif
#   From: 2010.05.17/outbox.cif.g08.bks.cpg/sg45_1_cif.got.tgz:658.got - 2010.06.03 19:51:22.
