data_PCOD9377971
_publ_section_title
;
Structure prediction by ZEFSAII (Michael W. Deem and Ramdas Pophale) SiO2 
 PCOD9377971
Probable space group: I M A 2
;
_chemical_formula_sum "Si O2"
_cell_formula_units_Z 64
_cell_length_a 8.585912
_cell_length_b 18.956253
_cell_length_c 27.373682
_cell_angle_alpha 90.000000
_cell_angle_beta 90.000000
_cell_angle_gamma 90.000000
_cell_volume 4455.250700
_symmetry_space_group_name_H-M "I M A 2"
_symmetry_group_IT_number 46
_symmetry_cell_setting 'orthorhombic'
loop_
_space_group_symop_operation_xyz
x,y,z
-x,-y,z
1/2-x,y,z
1/2+x,-y,z
1/2+x,1/2+y,1/2+z
1/2-x,1/2-y,1/2+z
-x,1/2+y,1/2+z
x,1/2-y,1/2+z
loop_
_atom_site_type_symbol
_atom_site_label
_atom_site_fract_x
_atom_site_fract_y
_atom_site_fract_z
Si Si1 0.435011 0.078631 0.794480
Si Si2 0.564734 0.578058 0.773212
Si Si3 0.937130 0.168499 0.886048
Si Si4 0.938237 0.422045 0.589181
Si Si5 0.561613 0.333530 0.681343
Si Si6 0.434707 0.799589 0.736444
Si Si7 0.564189 0.712896 0.827797
Si Si8 0.937904 0.077776 0.977928
O O1 0.250000 0.077572 0.799759
O O2 0.506832 0.116887 0.842334
O O3 0.481591 0.126984 0.748008
O O4 0.500000 0.000000 0.790401
O O5 0.500000 0.500000 0.779080
O O6 0.750000 0.574528 0.767734
O O7 0.497862 0.615859 0.724743
O O8 0.530462 0.630688 0.818631
O O9 0.750000 0.172824 0.884304
O O10 0.986531 0.133899 0.937196
O O11 0.008890 0.245434 0.875467
O O12 0.750000 0.424306 0.589851
O O13 0.989388 0.365890 0.629764
O O14 0.988040 0.405930 0.533535
O O15 0.000000 0.500000 0.601723
O O16 0.750000 0.334330 0.683099
O O17 0.513532 0.252813 0.692964
O O18 0.250000 0.811671 0.733204
O O19 0.473767 0.752627 0.784203
O O20 0.750000 0.723465 0.821484
O O21 0.750000 0.075078 0.977390
O O22 0.000000 0.000000 0.965363
#
# Coordination Sequence:
#
# PCOD9377971 Si02
#       8
#     8   8   8   8   8   8   8   8
#     4  11  20  29  41  58  80 106 133 164 197 234
#     4  10  19  28  40  58  81 106 134 164 196 233
#     4  10  18  28  42  59  78 105 136 166 198 234
#     4   9  17  29  41  57  80 106 135 167 197 227
#     4   9  17  28  43  59  79 107 136 164 196 231
#     4   9  16  27  41  58  78 102 131 162 195 233
#     4   9  17  28  40  56  77 103 131 162 197 234
#     4   9  18  29  41  57  79 105 135 167 198 228
#
# _framework density 14.365072
#
# number of rings (size 3 to 8) (size 9 to 14) (size 15 to 20)
#    0.000    2.500    0.000    4.875    0.000    5.500 
#    0.000    0.000    0.000    0.000    0.000    0.000 
#    0.000    1.000    0.000    4.250    0.000    2.750 
#
# Total GULP energy -178223.552577 kJ/mol
# GULP energy per Si atom -5569.486018 kJ/mol
# Density = 1.433238 g / cm^3
# Si number density = 14.365072 Si / 1000 Ang^3
#
#
#
# Elastic Constant Matrix: (Units=GPa)
#
#
# Indices 1 2 3 4 5 6 
#
# 1 28.3568 20.2902 12.2080 0.0000 0.0000 0.0000
# 2 20.2902 96.3815 44.0270 0.0000 0.0000 0.0000
# 3 12.2080 44.0270 72.8050 0.0000 0.0000 0.0000
# 4 0.0000 0.0000 0.0000 26.0657 0.0000 0.0000
# 5 0.0000 0.0000 0.0000 0.0000 17.0683 0.0000
# 6 0.0000 0.0000 0.0000 0.0000 0.0000 22.0111
#
#
#
# Elastic Compliance Matrix: (Units=1/GPa)
#
#
# Indices 1 2 3 4 5 6 
#
# 1 0.041804 -0.007735 -0.002332 0.000000 0.000000 0.000000
# 2 -0.007735 0.015767 -0.008237 0.000000 0.000000 0.000000
# 3 -0.002332 -0.008237 0.019108 0.000000 0.000000 0.000000
# 4 0.000000 0.000000 0.000000 0.038365 0.000000 0.000000
# 5 0.000000 0.000000 0.000000 0.000000 0.058588 0.000000
# 6 0.000000 0.000000 0.000000 0.000000 0.000000 0.045432
#
#
# Mechanical properties :
#
#
# Convention : Reuss Voigt Hill
#
# Bulk Modulus (GPa) = 24.95712 38.95485 31.95599
# Shear Modulus (GPa) = 18.58541 21.09689 19.84115
#
# Velocity S-wave (km/s) = 3.60083 3.83642 3.72049
# Velocity P-wave (km/s) = 5.89060 6.84111 6.38357
#
# Compressibility (1/GPa) = 0.04006872
#
# Stress axis : x y z
#
# Youngs Moduli (GPa) = 23.92139 63.42467 52.33479
#
# Poissons Ratio (x) = 0.49061 0.12204
# Poissons Ratio (y) = 0.18504 0.43111
# Poissons Ratio (z) = 0.05578 0.52246
#
# Static dielectric constant tensor:
#      x y z
#    x 1.477530 0.000000 0.000000 
#    y 0.000000 1.485010 0.000000 
#    z 0.000000 0.000000 1.483220 
# 
# From -- ./inp_files/24412.got.cif
#   From: 2010.05.17/outbox.cif.g08.bks.cpg/sg46_13_cif.got.tgz:24412.got - 2010.06.03 19:58:25.
