data_PCOD9377556
_publ_section_title
;
Structure prediction by ZEFSAII (Michael W. Deem and Ramdas Pophale) SiO2 
 PCOD9377556
Probable space group: I B A 2
;
_chemical_formula_sum "Si O2"
_cell_formula_units_Z 48
_cell_length_a 9.723271
_cell_length_b 16.506680
_cell_length_c 14.066602
_cell_angle_alpha 90.000000
_cell_angle_beta 90.000000
_cell_angle_gamma 90.000000
_cell_volume 2257.674471
_symmetry_space_group_name_H-M "I B A 2"
_symmetry_group_IT_number 45
_symmetry_cell_setting 'orthorhombic'
loop_
_space_group_symop_operation_xyz
x,y,z
-x,-y,z
-x,y,1/2+z
x,-y,1/2+z
1/2+x,1/2+y,1/2+z
1/2-x,1/2-y,1/2+z
1/2-x,1/2+y,z
1/2+x,1/2-y,z
loop_
_atom_site_type_symbol
_atom_site_label
_atom_site_fract_x
_atom_site_fract_y
_atom_site_fract_z
Si Si1 0.356392 0.383915 0.666340
Si Si2 0.853483 0.834874 0.642667
Si Si3 0.717364 0.788522 0.997854
Si Si4 0.943719 0.416217 0.877180
Si Si5 0.679200 0.204847 0.809891
Si Si6 0.153676 0.532827 0.678509
O O1 0.518821 0.394461 0.659100
O O2 0.312911 0.324200 0.580623
O O3 0.310744 0.340858 0.764792
O O4 0.261762 0.462462 0.657326
O O5 0.872035 0.779888 0.549981
O O6 0.854426 0.773479 0.731991
O O7 0.711546 0.884901 0.631971
O O8 0.628871 0.861173 0.954355
O O9 0.792670 0.747198 0.909569
O O10 0.846431 0.445272 0.790898
O O11 0.000000 0.500000 0.919431
O O12 0.060041 0.361416 0.825721
O O13 0.000000 0.500000 0.657090
#
# Coordination Sequence:
#
# PCOD9377556 Si02
#       6
#     8   8   8   8   8   8
#     4  11  24  42  68 105 141 188 232 297 363 416
#     4  11  25  43  70 104 146 183 238 297 355 427
#     4  11  25  41  68 107 143 188 235 294 353 429
#     4  11  22  44  70 102 136 191 239 290 350 428
#     4  11  22  42  70 100 145 186 238 287 359 418
#     4  11  23  46  73  97 136 191 240 289 357 424
#
# _framework density 21.260815000000001
#
# number of rings (size 3 to 8) (size 9 to 14) (size 15 to 20)
#    0.000    1.000    5.000    2.500    2.333    3.333 
#    0.000    0.000    3.667    0.000    0.000    0.000 
#    0.000    0.000    0.000    0.000    0.000    0.000 
#
# Total GULP energy -134116.024117 kJ/mol
# GULP energy per Si atom -5588.167672 kJ/mol
# Density = 2.121242 g / cm^3
# Si number density = 21.260815 Si / 1000 Ang^3
#
#
#
# Elastic Constant Matrix: (Units=GPa)
#
#
# Indices 1 2 3 4 5 6 
#
# 1 85.9889 38.0720 9.3346 0.0000 0.0000 0.0000
# 2 38.0720 121.3409 26.8706 0.0000 0.0000 0.0000
# 3 9.3346 26.8706 98.4517 0.0000 0.0000 0.0000
# 4 0.0000 0.0000 0.0000 40.1720 0.0000 0.0000
# 5 0.0000 0.0000 0.0000 0.0000 -5.2535 0.0000
# 6 0.0000 0.0000 0.0000 0.0000 0.0000 32.7592
#
#
#
# Elastic Compliance Matrix: (Units=1/GPa)
#
#
# Indices 1 2 3 4 5 6 
#
# 1 0.013507 -0.004209 -0.000132 0.000000 0.000000 0.000000
# 2 -0.004209 0.010083 -0.002353 0.000000 0.000000 0.000000
# 3 -0.000132 -0.002353 0.010812 0.000000 0.000000 0.000000
# 4 0.000000 0.000000 0.000000 0.024893 0.000000 0.000000
# 5 0.000000 0.000000 0.000000 0.000000 -0.190349 0.000000
# 6 0.000000 0.000000 0.000000 0.000000 0.000000 0.030526
#
#
# Mechanical properties :
#
#
# Convention : Reuss Voigt Hill
#
# Bulk Modulus (GPa) = 47.58568 50.48176 49.03372
# Shear Modulus (GPa) = -62.39366 28.96917 -16.71225
#
# Velocity S-wave (km/s) = -5.42314 3.69529 -2.80672
# Velocity P-wave (km/s) = 4.09677 6.48093 3.55098
#
# Compressibility (1/GPa) = 0.02101472
#
# Stress axis : x y z
#
# Youngs Moduli (GPa) = 74.03457 99.17838 92.49021
#
# Poissons Ratio (x) = 0.41742 0.01220
# Poissons Ratio (y) = 0.31160 0.21762
# Poissons Ratio (z) = 0.00977 0.23335
#
# Static dielectric constant tensor:
#      x y z
#    x 1.803180 0.000000 0.000000 
#    y 0.000000 1.796360 0.000000 
#    z 0.000000 0.000000 1.745690 
# 
# From -- ./inp_files/5601.got.cif
#   From: 2010.05.17/outbox.cif.g08.bks.cpg/sg45_3_cif.got.tgz:5601.got - 2010.06.03 19:51:22.
