data_PCOD9377463
_publ_section_title
;
Structure prediction by ZEFSAII (Michael W. Deem and Ramdas Pophale) SiO2 
 PCOD9377463
Probable space group: I B A 2
;
_chemical_formula_sum "Si O2"
_cell_formula_units_Z 60
_cell_length_a 22.780094
_cell_length_b 10.970064
_cell_length_c 11.566422
_cell_angle_alpha 90.000000
_cell_angle_beta 90.000000
_cell_angle_gamma 90.000000
_cell_volume 2890.438322
_symmetry_space_group_name_H-M "I B A 2"
_symmetry_group_IT_number 45
_symmetry_cell_setting 'orthorhombic'
loop_
_space_group_symop_operation_xyz
x,y,z
-x,-y,z
-x,y,1/2+z
x,-y,1/2+z
1/2+x,1/2+y,1/2+z
1/2-x,1/2-y,1/2+z
1/2-x,1/2+y,z
1/2+x,1/2-y,z
loop_
_atom_site_type_symbol
_atom_site_label
_atom_site_fract_x
_atom_site_fract_y
_atom_site_fract_z
Si Si1 0.142361 0.314159 0.593830
Si Si2 0.836138 0.169217 0.859615
Si Si3 0.379439 0.597045 0.914748
Si Si4 0.411582 0.291902 0.642110
Si Si5 0.533669 0.744063 0.245202
Si Si6 0.500000 0.000000 0.862657
Si Si7 0.300110 0.198174 0.331469
Si Si8 0.387187 0.053983 0.492848
O O1 0.152796 0.250158 0.472446
O O2 0.079914 0.271574 0.644343
O O3 0.187357 0.283632 0.696118
O O4 0.144690 0.458939 0.575176
O O5 0.864545 0.223719 0.743779
O O6 0.766215 0.159425 0.849268
O O7 0.867204 0.038889 0.875197
O O8 0.431011 0.664720 0.840905
O O9 0.320537 0.676639 0.892839
O O10 0.394514 0.604554 0.050090
O O11 0.474824 0.316235 0.697483
O O12 0.410983 0.168870 0.565025
O O13 0.513483 0.876332 0.293409
O O14 0.557671 0.983070 0.939606
O O15 0.345056 0.101786 0.390469
#
# Coordination Sequence:
#
# PCOD9377463 Si02
#       8
#     8   8   8   8   8   4   8   8
#     4  11  25  44  72 108 137 185 239 294 361 423
#     4  12  29  44  76 103 141 198 242 286 367 433
#     4  10  26  51  66 104 145 187 239 294 359 425
#     4  11  25  44  72 104 140 189 236 293 362 418
#     4  11  23  45  71 106 146 179 234 296 357 425
#     4  12  18  42  72 106 144 178 234 290 360 420
#     4  10  26  48  68 103 140 187 235 301 356 418
#     4  11  23  42  72 106 141 182 234 301 355 420
#
# _framework density 20.758096999999999
#
# number of rings (size 3 to 8) (size 9 to 14) (size 15 to 20)
#    0.000    1.067    4.000    2.400   13.067    0.533 
#    0.000    0.000    0.000    0.000    0.000    0.000 
#    0.000    0.000    0.000    0.000    0.000    0.000 
#
# Total GULP energy -167722.397789 kJ/mol
# GULP energy per Si atom -5590.746593 kJ/mol
# Density = 2.071085 g / cm^3
# Si number density = 20.758097 Si / 1000 Ang^3
#
#
#
# Elastic Constant Matrix: (Units=GPa)
#
#
# Indices 1 2 3 4 5 6 
#
# 1 123.8869 28.7549 62.3932 0.0000 0.0000 0.0000
# 2 28.7549 37.5674 2.5546 0.0000 0.0000 0.0000
# 3 62.3932 2.5546 116.8251 0.0000 0.0000 0.0000
# 4 0.0000 0.0000 0.0000 12.5682 0.0000 0.0000
# 5 0.0000 0.0000 0.0000 0.0000 10.7318 0.0000
# 6 0.0000 0.0000 0.0000 0.0000 0.0000 27.0722
#
#
#
# Elastic Compliance Matrix: (Units=1/GPa)
#
#
# Indices 1 2 3 4 5 6 
#
# 1 0.014172 -0.010348 -0.007342 0.000000 0.000000 0.000000
# 2 -0.010348 0.034214 0.004778 0.000000 0.000000 0.000000
# 3 -0.007342 0.004778 0.012377 0.000000 0.000000 0.000000
# 4 0.000000 0.000000 0.000000 0.079566 0.000000 0.000000
# 5 0.000000 0.000000 0.000000 0.000000 0.093181 0.000000
# 6 0.000000 0.000000 0.000000 0.000000 0.000000 0.036938
#
#
# Mechanical properties :
#
#
# Convention : Reuss Voigt Hill
#
# Bulk Modulus (GPa) = 28.62146 51.74275 40.18211
# Shear Modulus (GPa) = 16.23810 22.37955 19.30882
#
# Velocity S-wave (km/s) = 2.79991 3.28702 3.05320
# Velocity P-wave (km/s) = 4.92653 6.27588 5.64169
#
# Compressibility (1/GPa) = 0.03493882
#
# Stress axis : x y z
#
# Youngs Moduli (GPa) = 70.56401 29.22746 80.79715
#
# Poissons Ratio (x) = 0.30244 0.59324
# Poissons Ratio (y) = 0.73019 -0.38608
# Poissons Ratio (z) = 0.51811 -0.13966
#
# Static dielectric constant tensor:
#      x y z
#    x 1.736980 0.000000 0.000000 
#    y 0.000000 1.755980 0.000000 
#    z 0.000000 0.000000 1.749060 
# 
# From -- ./inp_files/4669.got.cif
#   From: 2010.05.17/outbox.cif.g08.bks.cpg/sg45_3_cif.got.tgz:4669.got - 2010.06.03 19:51:22.
