data_PCOD9377875
_publ_section_title
;
Structure prediction by ZEFSAII (Michael W. Deem and Ramdas Pophale) SiO2 
 PCOD9377875
Probable space group: I M A 2
;
_chemical_formula_sum "Si O2"
_cell_formula_units_Z 52
_cell_length_a 13.470576
_cell_length_b 11.663319
_cell_length_c 19.999994
_cell_angle_alpha 90.000000
_cell_angle_beta 90.000000
_cell_angle_gamma 90.000000
_cell_volume 3142.231557
_symmetry_space_group_name_H-M "I M A 2"
_symmetry_group_IT_number 46
_symmetry_cell_setting 'orthorhombic'
loop_
_space_group_symop_operation_xyz
x,y,z
-x,-y,z
1/2-x,y,z
1/2+x,-y,z
1/2+x,1/2+y,1/2+z
1/2-x,1/2-y,1/2+z
-x,1/2+y,1/2+z
x,1/2-y,1/2+z
loop_
_atom_site_type_symbol
_atom_site_label
_atom_site_fract_x
_atom_site_fract_y
_atom_site_fract_z
Si Si1 0.500000 0.500000 0.335901
Si Si2 0.636082 0.311686 0.636453
Si Si3 0.631090 0.814029 0.913687
Si Si4 0.632809 0.194714 0.774094
Si Si5 0.522118 0.628210 0.825736
Si Si6 0.964082 0.868594 0.052439
Si Si7 0.133783 0.430452 0.688718
O O1 0.427028 0.419953 0.379210
O O2 0.428949 0.582767 0.293439
O O3 0.750000 0.314231 0.614452
O O4 0.623630 0.220257 0.695151
O O5 0.562718 0.301088 0.574464
O O6 0.615571 0.434996 0.672248
O O7 0.750000 0.824421 0.908891
O O8 0.591362 0.701670 0.875000
O O9 0.594856 0.818209 0.990353
O O10 0.750000 0.188098 0.790068
O O11 0.578272 0.299195 0.812714
O O12 0.500000 0.500000 0.850386
O O13 0.575802 0.612468 0.753685
O O14 0.899110 0.870280 0.120133
O O15 0.000000 0.000000 0.038356
O O16 0.250000 0.415914 0.700725
#
# Coordination Sequence:
#
# PCOD9377875 Si02
#       7
#     4   8   8   8   8   8   8
#     4  10  22  38  54  80 112 146 182 220 266 330
#     4   9  17  30  55  84 107 136 176 226 278 317
#     4  11  23  37  55  79 113 151 182 218 271 327
#     4  10  19  34  57  81 109 142 178 224 275 323
#     4  11  20  35  55  84 111 141 180 231 272 321
#     4  10  18  34  50  81 111 146 179 226 270 317
#     4  10  17  29  53  83 112 137 175 225 274 319
#
# _framework density 16.548746999999999
#
# number of rings (size 3 to 8) (size 9 to 14) (size 15 to 20)
#    0.000    1.846    3.846    1.846    0.000    1.231 
#    0.000    0.769    1.692    0.000    0.000    0.000 
#    0.000    0.000    0.000    0.000    0.000    0.000 
#
# Total GULP energy -144974.565709 kJ/mol
# GULP energy per Si atom -5575.944835 kJ/mol
# Density = 1.651108 g / cm^3
# Si number density = 16.548747 Si / 1000 Ang^3
#
#
#
# Elastic Constant Matrix: (Units=GPa)
#
#
# Indices 1 2 3 4 5 6 
#
# 1 159.2346 58.4413 67.2834 0.0000 0.0000 0.0000
# 2 58.4413 91.2514 46.8531 0.0000 0.0000 0.0000
# 3 67.2834 46.8531 97.9824 0.0000 0.0000 0.0000
# 4 0.0000 0.0000 0.0000 16.9426 0.0000 0.0000
# 5 0.0000 0.0000 0.0000 0.0000 28.7548 0.0000
# 6 0.0000 0.0000 0.0000 0.0000 0.0000 19.6637
#
#
#
# Elastic Compliance Matrix: (Units=1/GPa)
#
#
# Indices 1 2 3 4 5 6 
#
# 1 0.009708 -0.003704 -0.004895 0.000000 0.000000 0.000000
# 2 -0.003704 0.015938 -0.005078 0.000000 0.000000 0.000000
# 3 -0.004895 -0.005078 0.015995 0.000000 0.000000 0.000000
# 4 0.000000 0.000000 0.000000 0.059023 0.000000 0.000000
# 5 0.000000 0.000000 0.000000 0.000000 0.034777 0.000000
# 6 0.000000 0.000000 0.000000 0.000000 0.000000 0.050855
#
#
# Mechanical properties :
#
#
# Convention : Reuss Voigt Hill
#
# Bulk Modulus (GPa) = 69.99047 77.06932 73.52990
# Shear Modulus (GPa) = 22.89246 24.79825 23.84535
#
# Velocity S-wave (km/s) = 3.72336 3.87524 3.80006
# Velocity P-wave (km/s) = 7.80191 8.16673 7.98641
#
# Compressibility (1/GPa) = 0.01428766
#
# Stress axis : x y z
#
# Youngs Moduli (GPa) = 103.00965 62.74278 62.51778
#
# Poissons Ratio (x) = 0.23239 0.30603
# Poissons Ratio (y) = 0.38154 0.31745
# Poissons Ratio (z) = 0.50425 0.31860
#
# Static dielectric constant tensor:
#      x y z
#    x 1.576230 0.000000 0.000000 
#    y 0.000000 1.557720 0.000000 
#    z 0.000000 0.000000 1.546690 
# 
# From -- ./inp_files/19535.got.cif
#   From: 2010.05.17/outbox.cif.g08.bks.cpg/sg46_10_cif.got.tgz:19535.got - 2010.06.03 19:58:25.
