data_PCOD9377228
_publ_section_title
;
Structure prediction by ZEFSAII (Michael W. Deem and Ramdas Pophale) SiO2 
 PCOD9377228
Probable space group: I B A 2
;
_chemical_formula_sum "Si O2"
_cell_formula_units_Z 56
_cell_length_a 20.289852
_cell_length_b 9.240184
_cell_length_c 13.077430
_cell_angle_alpha 90.000000
_cell_angle_beta 90.000000
_cell_angle_gamma 90.000000
_cell_volume 2451.782284
_symmetry_space_group_name_H-M "I B A 2"
_symmetry_group_IT_number 45
_symmetry_cell_setting 'orthorhombic'
loop_
_space_group_symop_operation_xyz
x,y,z
-x,-y,z
-x,y,1/2+z
x,-y,1/2+z
1/2+x,1/2+y,1/2+z
1/2-x,1/2-y,1/2+z
1/2-x,1/2+y,z
1/2+x,1/2-y,z
loop_
_atom_site_type_symbol
_atom_site_label
_atom_site_fract_x
_atom_site_fract_y
_atom_site_fract_z
Si Si1 0.867602 0.897158 0.533570
Si Si2 0.642331 0.052640 0.786998
Si Si3 0.209751 0.987295 0.726693
Si Si4 0.037793 0.360412 0.611226
Si Si5 0.489430 0.348439 0.759576
Si Si6 0.856766 0.235634 0.839973
Si Si7 0.123311 0.157350 0.888532
O O1 0.924334 0.774467 0.555371
O O2 0.825362 0.816191 0.445618
O O3 0.823865 0.933010 0.631848
O O4 0.885797 0.057386 0.488814
O O5 0.712622 0.026449 0.733601
O O6 0.590729 0.087309 0.696585
O O7 0.644538 0.175277 0.875284
O O8 0.626378 0.901786 0.840049
O O9 0.183917 0.823114 0.743899
O O10 0.179366 0.075218 0.822481
O O11 0.000000 0.500000 0.561862
O O12 0.982975 0.278727 0.679035
O O13 0.500000 0.500000 0.702734
O O14 0.425540 0.349758 0.829180
O O15 0.553341 0.336160 0.830031
#
# Coordination Sequence:
#
# PCOD9377228 Si02
#       7
#     8   8   8   8   8   8   8
#     4  11  23  47  69 106 142 192 251 295 365 459
#     4  11  23  46  71  99 143 193 239 306 385 435
#     4  11  22  45  70  96 143 191 241 301 368 449
#     4  11  23  45  71 103 143 188 240 312 375 443
#     4  11  18  42  68  94 138 188 233 290 376 443
#     4  11  24  43  69 104 140 188 243 307 367 443
#     4  10  23  44  69  99 144 192 233 307 373 443
#
# _framework density 22.840527999999999
#
# number of rings (size 3 to 8) (size 9 to 14) (size 15 to 20)
#    0.000    1.143    7.143    0.857    0.000    0.000 
#   25.714    0.000    0.000    0.000    0.000    0.000 
#    0.000    0.000    0.000    0.000    0.000    0.000 
#
# Total GULP energy -156024.066126 kJ/mol
# GULP energy per Si atom -5572.288076 kJ/mol
# Density = 2.278854 g / cm^3
# Si number density = 22.840528 Si / 1000 Ang^3
#
#
#
# Elastic Constant Matrix: (Units=GPa)
#
#
# Indices 1 2 3 4 5 6 
#
# 1 66.5074 27.3048 9.3349 0.0000 0.0000 0.0000
# 2 27.3048 171.3233 42.5949 0.0000 0.0000 0.0000
# 3 9.3349 42.5949 69.9379 0.0000 0.0000 0.0000
# 4 0.0000 0.0000 0.0000 29.7143 0.0000 0.0000
# 5 0.0000 0.0000 0.0000 0.0000 5.0695 0.0000
# 6 0.0000 0.0000 0.0000 0.0000 0.0000 23.8749
#
#
#
# Elastic Compliance Matrix: (Units=1/GPa)
#
#
# Indices 1 2 3 4 5 6 
#
# 1 0.016117 -0.002397 -0.000691 0.000000 0.000000 0.000000
# 2 -0.002397 0.007235 -0.004086 0.000000 0.000000 0.000000
# 3 -0.000691 -0.004086 0.016879 0.000000 0.000000 0.000000
# 4 0.000000 0.000000 0.000000 0.033654 0.000000 0.000000
# 5 0.000000 0.000000 0.000000 0.000000 0.197257 0.000000
# 6 0.000000 0.000000 0.000000 0.000000 0.000000 0.041885
#
#
# Mechanical properties :
#
#
# Convention : Reuss Voigt Hill
#
# Bulk Modulus (GPa) = 38.63683 51.80421 45.22052
# Shear Modulus (GPa) = 14.88078 26.96734 20.92406
#
# Velocity S-wave (km/s) = 2.55523 3.43983 3.02999
# Velocity P-wave (km/s) = 5.06540 6.20537 5.66414
#
# Compressibility (1/GPa) = 0.02588204
#
# Stress axis : x y z
#
# Youngs Moduli (GPa) = 62.04642 138.21932 59.24353
#
# Poissons Ratio (x) = 0.33128 0.04097
# Poissons Ratio (y) = 0.14871 0.24209
# Poissons Ratio (z) = 0.04290 0.56482
#
# Static dielectric constant tensor:
#      x y z
#    x 1.844940 0.000000 0.000000 
#    y 0.000000 2.003470 0.000000 
#    z 0.000000 0.000000 1.893230 
# 
# From -- ./inp_files/6942.got.cif
#   From: 2010.05.17/outbox.cif.g08.bks.cpg/sg45_4_cif.got.tgz:6942.got - 2010.06.03 19:51:22.
