data_PCOD9377747
_publ_section_title
;
Structure prediction by ZEFSAII (Michael W. Deem and Ramdas Pophale) SiO2 
 PCOD9377747
Probable space group: I B A 2
;
_chemical_formula_sum "Si O2"
_cell_formula_units_Z 20
_cell_length_a 9.000000
_cell_length_b 18.000000
_cell_length_c 12.000000
_cell_angle_alpha 90.000000
_cell_angle_beta 90.000000
_cell_angle_gamma 90.000000
_cell_volume 1944.000000
_symmetry_space_group_name_H-M "I B A 2"
_symmetry_group_IT_number 45
_symmetry_cell_setting 'orthorhombic'
loop_
_space_group_symop_operation_xyz
x,y,z
-x,-y,z
-x,y,1/2+z
x,-y,1/2+z
1/2+x,1/2+y,1/2+z
1/2-x,1/2-y,1/2+z
1/2-x,1/2+y,z
1/2+x,1/2-y,z
loop_
_atom_site_type_symbol
_atom_site_label
_atom_site_fract_x
_atom_site_fract_y
_atom_site_fract_z
Si Si1 0.266419 0.689645 0.659870
Si Si2 0.332849 0.468023 0.820578
Si Si3 0.914316 0.419811 0.498847
Si Si4 0.217188 0.380077 0.385875
Si Si5 0.883259 0.849811 0.116275
O O1 0.152042 0.631720 0.598103
O O2 0.253128 0.682123 0.794311
O O3 0.211426 0.773488 0.632176
O O4 0.438823 0.670064 0.624964
O O5 0.500000 0.500000 0.845544
O O6 0.231426 0.431610 0.919049
O O7 0.241927 0.545248 0.811725
O O8 0.347309 0.412124 0.713588
O O9 0.000000 0.500000 0.527527
O O10 0.048829 0.378729 0.432854
O O11 0.327315 0.378911 0.494079
#
# Coordination Sequence:
#
# PCOD9377747 Si02
#       5
#     8   8   8   8   8
#     4  12  28  49  76 110 157 197 253 315 386 451
#     4  11  24  48  77 106 150 199 255 312 368 448
#     4  10  26  46  80 108 150 196 260 310 378 446
#     4  11  27  48  77 111 150 200 253 312 380 446
#     4  12  29  48  77 113 153 201 256 309 385 457
#
# _framework density 10.288066000000001
#
# number of rings (size 3 to 8) (size 9 to 14) (size 15 to 20)
#    0.000    0.800    2.000    2.400   14.000    1.600 
#    0.000    0.000    0.000    0.000    0.000    0.000 
#    0.000    0.000    0.000    0.000    0.000    0.000 
#
# Total GULP energy -111620.896134 kJ/mol
# GULP energy per Si atom -5581.044807 kJ/mol
# Density = 1.026465 g / cm^3
# Si number density = 10.288066 Si / 1000 Ang^3
#
#
#
# Elastic Constant Matrix: (Units=GPa)
#
#
# Indices 1 2 3 4 5 6 
#
# 1 172.1304 33.3622 64.3268 0.0000 0.0000 0.0000
# 2 33.3622 120.9870 64.9470 0.0001 0.0000 0.0000
# 3 64.3268 64.9470 129.6788 0.0001 0.0000 0.0000
# 4 0.0000 0.0001 0.0001 44.1722 0.0000 0.0000
# 5 0.0000 0.0000 0.0000 0.0000 36.9146 0.0000
# 6 0.0000 0.0000 0.0000 0.0000 0.0000 49.4558
#
#
#
# Elastic Compliance Matrix: (Units=1/GPa)
#
#
# Indices 1 2 3 4 5 6 
#
# 1 0.007132 -0.000092 -0.003492 0.000000 0.000000 0.000000
# 2 -0.000092 0.011306 -0.005616 0.000000 0.000000 0.000000
# 3 -0.003492 -0.005616 0.012256 0.000000 0.000000 0.000000
# 4 0.000000 0.000000 0.000000 0.022639 0.000000 0.000000
# 5 0.000000 0.000000 0.000000 0.000000 0.027090 0.000000
# 6 0.000000 0.000000 0.000000 0.000000 0.000000 0.020220
#
#
# Mechanical properties :
#
#
# Convention : Reuss Voigt Hill
#
# Bulk Modulus (GPa) = 81.34473 83.11869 82.23171
# Shear Modulus (GPa) = 40.60366 43.45253 42.02809
#
# Velocity S-wave (km/s) = 4.44705 4.60041 4.52438
# Velocity P-wave (km/s) = 8.12328 8.28865 8.20638
#
# Compressibility (1/GPa) = 0.01229336
#
# Stress axis : x y z
#
# Youngs Moduli (GPa) = 140.20644 88.45028 81.59064
#
# Poissons Ratio (x) = 0.00817 0.28489
# Poissons Ratio (y) = 0.01295 0.45825
# Poissons Ratio (z) = 0.48956 0.49678
#
# Static dielectric constant tensor:
#      x y z
#    x 1.733250 0.000000 0.000000 
#    y 0.000000 1.799960 0.000000 
#    z 0.000000 0.000000 1.751460 
# 
# From -- ./inp_files/3144.got.cif
#   From: 2010.05.17/outbox.ucp.g08.bks.cvg/sg45_2_cif.got.tgz:3144.got - 2010.06.11 16:34:12.
