data_PCOD9377984
_publ_section_title
;
Structure prediction by ZEFSAII (Michael W. Deem and Ramdas Pophale) SiO2 
 PCOD9377984
Probable space group: I M A 2
;
_chemical_formula_sum "Si O2"
_cell_formula_units_Z 56
_cell_length_a 8.649988
_cell_length_b 13.956641
_cell_length_c 30.510883
_cell_angle_alpha 90.000000
_cell_angle_beta 90.000000
_cell_angle_gamma 90.000000
_cell_volume 3683.419551
_symmetry_space_group_name_H-M "I M A 2"
_symmetry_group_IT_number 46
_symmetry_cell_setting 'orthorhombic'
loop_
_space_group_symop_operation_xyz
x,y,z
-x,-y,z
1/2-x,y,z
1/2+x,-y,z
1/2+x,1/2+y,1/2+z
1/2-x,1/2-y,1/2+z
-x,1/2+y,1/2+z
x,1/2-y,1/2+z
loop_
_atom_site_type_symbol
_atom_site_label
_atom_site_fract_x
_atom_site_fract_y
_atom_site_fract_z
Si Si1 0.565248 0.602900 0.522200
Si Si2 0.563812 0.107978 0.292660
Si Si3 0.936706 0.202831 0.107274
Si Si4 0.437139 0.891740 0.197085
Si Si5 0.564854 0.102963 0.560609
Si Si6 0.564687 0.702228 0.975138
Si Si7 0.435937 0.608558 0.888780
O O1 0.500000 0.500000 0.509269
O O2 0.750000 0.598750 0.523898
O O3 0.502634 0.632635 0.570073
O O4 0.520208 0.690139 0.489956
O O5 0.750000 0.105388 0.292723
O O6 0.515744 0.148337 0.245151
O O7 0.517541 0.147568 0.340337
O O8 0.500000 0.000000 0.292458
O O9 0.750000 0.197581 0.105520
O O10 0.987834 0.170421 0.155457
O O11 0.981580 0.310406 0.093074
O O12 0.250000 0.896224 0.196217
O O13 0.500000 0.000000 0.192814
O O14 0.750000 0.099342 0.558683
O O15 0.501023 0.132621 0.512873
O O16 0.500000 0.000000 0.573517
O O17 0.750000 0.695405 0.975221
O O18 0.500378 0.671140 0.928364
O O19 0.500000 0.500000 0.892836
O O20 0.250000 0.604843 0.891259
#
# Coordination Sequence:
#
# PCOD9377984 Si02
#       7
#     8   8   8   8   8   8   8
#     4  10  20  32  46  63  86 113 141 174 210 247
#     4   8  15  26  40  59  84 111 139 169 205 247
#     4   9  18  30  45  64  86 113 144 174 208 248
#     4   9  16  27  42  62  87 113 140 170 204 246
#     4  10  19  31  45  62  85 113 143 177 212 248
#     4  10  20  32  45  63  85 112 143 174 209 250
#     4  10  18  28  43  63  87 115 143 174 210 250
#
# _framework density 15.203263
#
# number of rings (size 3 to 8) (size 9 to 14) (size 15 to 20)
#    0.000    2.571    0.000    2.571    0.000    4.571 
#    0.000    0.000    0.000    0.000    0.000    1.000 
#    0.000    4.571    0.000    0.000    0.000    0.286 
#
# Total GULP energy -155979.484415 kJ/mol
# GULP energy per Si atom -5570.695872 kJ/mol
# Density = 1.516866 g / cm^3
# Si number density = 15.203263 Si / 1000 Ang^3
#
#
#
# Elastic Constant Matrix: (Units=GPa)
#
#
# Indices 1 2 3 4 5 6 
#
# 1 23.3243 20.1753 27.1127 0.0000 0.0000 0.0000
# 2 20.1753 75.7329 53.7451 0.0000 0.0000 0.0000
# 3 27.1127 53.7451 160.4182 0.0000 0.0000 0.0000
# 4 0.0000 0.0000 0.0000 20.5767 0.0000 0.0000
# 5 0.0000 0.0000 0.0000 0.0000 12.3952 0.0000
# 6 0.0000 0.0000 0.0000 0.0000 0.0000 21.9928
#
#
#
# Elastic Compliance Matrix: (Units=1/GPa)
#
#
# Indices 1 2 3 4 5 6 
#
# 1 0.060202 -0.011567 -0.006299 0.000000 0.000000 0.000000
# 2 -0.011567 0.019546 -0.004593 0.000000 0.000000 0.000000
# 3 -0.006299 -0.004593 0.008837 0.000000 0.000000 0.000000
# 4 0.000000 0.000000 0.000000 0.048599 0.000000 0.000000
# 5 0.000000 0.000000 0.000000 0.000000 0.080676 0.000000
# 6 0.000000 0.000000 0.000000 0.000000 0.000000 0.045470
#
#
# Mechanical properties :
#
#
# Convention : Reuss Voigt Hill
#
# Bulk Modulus (GPa) = 22.90189 51.28240 37.09214
# Shear Modulus (GPa) = 15.48927 21.55576 18.52252
#
# Velocity S-wave (km/s) = 3.19535 3.76950 3.49424
# Velocity P-wave (km/s) = 5.35819 7.26292 6.38201
#
# Compressibility (1/GPa) = 0.04366453
#
# Stress axis : x y z
#
# Youngs Moduli (GPa) = 16.61079 51.16239 113.15647
#
# Poissons Ratio (x) = 0.59181 0.71283
# Poissons Ratio (y) = 0.19214 0.51977
# Poissons Ratio (z) = 0.10464 0.23501
#
# Static dielectric constant tensor:
#      x y z
#    x 1.509410 0.000000 0.000000 
#    y 0.000000 1.481680 0.000000 
#    z 0.000000 0.000000 1.533830 
# 
# From -- ./inp_files/25236.got.cif
#   From: 2010.05.17/outbox.cif.g08.bks.cpg/sg46_13_cif.got.tgz:25236.got - 2010.06.03 19:58:25.
