data_PCOD9377237
_publ_section_title
;
Structure prediction by ZEFSAII (Michael W. Deem and Ramdas Pophale) SiO2 
 PCOD9377237
Probable space group: I B A 2
;
_chemical_formula_sum "Si O2"
_cell_formula_units_Z 40
_cell_length_a 12.294486
_cell_length_b 23.992708
_cell_length_c 5.366009
_cell_angle_alpha 90.000000
_cell_angle_beta 90.000000
_cell_angle_gamma 90.000000
_cell_volume 1582.854670
_symmetry_space_group_name_H-M "I B A 2"
_symmetry_group_IT_number 45
_symmetry_cell_setting 'orthorhombic'
loop_
_space_group_symop_operation_xyz
x,y,z
-x,-y,z
-x,y,1/2+z
x,-y,1/2+z
1/2+x,1/2+y,1/2+z
1/2-x,1/2-y,1/2+z
1/2-x,1/2+y,z
1/2+x,1/2-y,z
loop_
_atom_site_type_symbol
_atom_site_label
_atom_site_fract_x
_atom_site_fract_y
_atom_site_fract_z
Si Si1 0.259321 0.386091 0.322480
Si Si2 0.060955 0.173670 0.119623
Si Si3 0.957117 0.563913 0.512035
Si Si4 0.625125 0.479002 0.533945
Si Si5 0.194044 0.272177 0.094559
O O1 0.327915 0.356977 0.541834
O O2 0.164529 0.426761 0.416547
O O3 0.345364 0.420895 0.159509
O O4 0.204987 0.336649 0.162338
O O5 0.079934 0.240252 0.108774
O O6 0.018926 0.159324 0.391750
O O7 0.000000 0.500000 0.539860
O O8 0.971511 0.589018 0.786534
O O9 0.500000 0.500000 0.503649
O O10 0.669831 0.481081 0.254372
O O11 0.260168 0.242217 0.321457
#
# Coordination Sequence:
#
# PCOD9377237 Si02
#       5
#     8   8   8   8   8
#     4  11  26  45  78 101 150 200 237 307 387 431
#     4  11  25  43  72 111 148 181 239 299 371 454
#     4  10  25  45  66  98 136 186 253 300 347 423
#     4  10  25  42  65 105 148 186 246 295 364 452
#     4  10  23  45  67 103 141 189 243 293 358 448
#
# _framework density 25.270797999999999
#
# number of rings (size 3 to 8) (size 9 to 14) (size 15 to 20)
#    0.000    1.600    0.000    2.400   11.200    9.600 
#    0.000    0.000    0.000    0.000    0.000    0.000 
#    0.000    0.000    0.000    0.000    0.000    0.000 
#
# Total GULP energy -111729.457600 kJ/mol
# GULP energy per Si atom -5586.472880 kJ/mol
# Density = 2.521328 g / cm^3
# Si number density = 25.270798 Si / 1000 Ang^3
#
#
#
# Elastic Constant Matrix: (Units=GPa)
#
#
# Indices 1 2 3 4 5 6 
#
# 1 88.1668 52.1872 14.7736 -0.0001 0.0020 -0.0020
# 2 52.1872 117.9949 15.1974 0.0196 -0.0040 -0.0003
# 3 14.7736 15.1974 134.0460 0.0521 -0.0741 -0.0116
# 4 -0.0001 0.0196 0.0521 41.1541 -0.0163 0.0021
# 5 0.0020 -0.0040 -0.0741 -0.0163 40.2255 0.0058
# 6 -0.0020 -0.0003 -0.0116 0.0021 0.0058 54.5336
#
#
#
# Elastic Compliance Matrix: (Units=1/GPa)
#
#
# Indices 1 2 3 4 5 6 
#
# 1 0.015481 -0.006726 -0.000944 0.000004 -0.000003 0.000000
# 2 -0.006726 0.011522 -0.000565 -0.000005 0.000000 0.000000
# 3 -0.000944 -0.000565 0.007628 -0.000009 0.000014 0.000002
# 4 0.000004 -0.000005 -0.000009 0.024299 0.000010 -0.000001
# 5 -0.000003 0.000000 0.000014 0.000010 0.024860 -0.000003
# 6 0.000000 0.000000 0.000002 -0.000001 -0.000003 0.018337
#
#
# Mechanical properties :
#
#
# Convention : Reuss Voigt Hill
#
# Bulk Modulus (GPa) = 55.05687 56.05821 55.55754
# Shear Modulus (GPa) = 40.11202 44.38595 42.24899
#
# Velocity S-wave (km/s) = 3.98840 4.19550 4.09326
# Velocity P-wave (km/s) = 6.56078 6.76024 6.66126
#
# Compressibility (1/GPa) = 0.01816304
#
# Stress axis : x y z
#
# Youngs Moduli (GPa) = 64.59442 86.78807 131.09226
#
# Poissons Ratio (x) = 0.58370 0.12371
# Poissons Ratio (y) = 0.43443 0.07408
# Poissons Ratio (z) = 0.06096 0.04904
#
# Static dielectric constant tensor:
#      x y z
#    x 1.794360 0.000080 0.000060 
#    y 0.000080 2.012800 -0.000030 
#    z 0.000060 -0.000030 2.004140 
# 
# From -- ./inp_files/86.got.cif
#   From: 2010.05.17/outbox.cif.g08.bks.cpg/sg45_1_cif.got.tgz:86.got - 2010.06.03 19:51:22.
