data_PCOD9377996
_publ_section_title
;
Structure prediction by ZEFSAII (Michael W. Deem and Ramdas Pophale) SiO2 
 PCOD9377996
Probable space group: I M A 2
;
_chemical_formula_sum "Si O2"
_cell_formula_units_Z 56
_cell_length_a 8.762190
_cell_length_b 13.969097
_cell_length_c 30.118316
_cell_angle_alpha 90.000000
_cell_angle_beta 90.000000
_cell_angle_gamma 90.000000
_cell_volume 3686.478326
_symmetry_space_group_name_H-M "I M A 2"
_symmetry_group_IT_number 46
_symmetry_cell_setting 'orthorhombic'
loop_
_space_group_symop_operation_xyz
x,y,z
-x,-y,z
1/2-x,y,z
1/2+x,-y,z
1/2+x,1/2+y,1/2+z
1/2-x,1/2-y,1/2+z
-x,1/2+y,1/2+z
x,1/2-y,1/2+z
loop_
_atom_site_type_symbol
_atom_site_label
_atom_site_fract_x
_atom_site_fract_y
_atom_site_fract_z
Si Si1 0.433101 0.607579 0.364270
Si Si2 0.567310 0.607155 0.553562
Si Si3 0.933456 0.712889 0.280033
Si Si4 0.434263 0.298962 0.646661
Si Si5 0.567387 0.896865 0.690773
Si Si6 0.932289 0.103874 0.233135
Si Si7 0.432316 0.607250 0.463142
O O1 0.500000 0.500000 0.360485
O O2 0.250000 0.602255 0.359818
O O3 0.503160 0.672542 0.325929
O O4 0.468178 0.646210 0.414028
O O5 0.500000 0.500000 0.558420
O O6 0.750000 0.600248 0.550535
O O7 0.526794 0.666989 0.597361
O O8 0.503307 0.651006 0.507685
O O9 0.750000 0.719483 0.280975
O O10 0.976345 0.639663 0.240121
O O11 0.002805 0.814698 0.265898
O O12 0.250000 0.306959 0.652258
O O13 0.477496 0.189511 0.657864
O O14 0.511853 0.364648 0.683999
O O15 0.750000 0.903945 0.689771
O O16 0.500000 0.000000 0.680769
O O17 0.750000 0.102124 0.234649
O O18 0.000000 0.000000 0.243406
O O19 0.500000 0.500000 0.462294
O O20 0.250000 0.603035 0.467799
#
# Coordination Sequence:
#
# PCOD9377996 Si02
#       7
#     8   8   8   8   8   8   8
#     4  10  19  30  45  67  94 124 154 187 227 272
#     4  10  18  28  44  64  89 119 150 185 225 269
#     4  10  20  33  48  67  92 121 153 189 226 268
#     4   9  19  33  46  65  92 121 153 188 226 269
#     4   9  18  31  45  63  89 117 147 183 221 260
#     4  11  21  33  49  68  92 121 153 188 225 269
#     4   9  17  28  42  62  90 119 149 184 223 269
#
# _framework density 15.190649000000001
#
# number of rings (size 3 to 8) (size 9 to 14) (size 15 to 20)
#    0.000    2.286    0.000    5.571    0.000    8.000 
#    0.000    0.000    0.000    0.000    0.000    1.000 
#    0.000    4.571    0.000    0.000    0.000    0.000 
#
# Total GULP energy -156115.065208 kJ/mol
# GULP energy per Si atom -5575.538043 kJ/mol
# Density = 1.515607 g / cm^3
# Si number density = 15.190649 Si / 1000 Ang^3
#
#
#
# Elastic Constant Matrix: (Units=GPa)
#
#
# Indices 1 2 3 4 5 6 
#
# 1 62.4645 35.6121 55.6012 0.0000 0.0000 0.0000
# 2 35.6121 89.2835 62.4677 0.0000 0.0000 0.0000
# 3 55.6012 62.4677 155.5281 0.0000 0.0000 0.0000
# 4 0.0000 0.0000 0.0000 23.1548 0.0000 0.0000
# 5 0.0000 0.0000 0.0000 0.0000 36.4491 0.0000
# 6 0.0000 0.0000 0.0000 0.0000 0.0000 24.3219
#
#
#
# Elastic Compliance Matrix: (Units=1/GPa)
#
#
# Indices 1 2 3 4 5 6 
#
# 1 0.025100 -0.005193 -0.006888 0.000000 0.000000 0.000000
# 2 -0.005193 0.016652 -0.004832 0.000000 0.000000 0.000000
# 3 -0.006888 -0.004832 0.010833 0.000000 0.000000 0.000000
# 4 0.000000 0.000000 0.000000 0.043188 0.000000 0.000000
# 5 0.000000 0.000000 0.000000 0.000000 0.027435 0.000000
# 6 0.000000 0.000000 0.000000 0.000000 0.000000 0.041115
#
#
# Mechanical properties :
#
#
# Convention : Reuss Voigt Hill
#
# Bulk Modulus (GPa) = 53.30289 68.29312 60.79801
# Shear Modulus (GPa) = 24.46158 27.02483 25.74321
#
# Velocity S-wave (km/s) = 4.01721 4.22245 4.12111
# Velocity P-wave (km/s) = 7.52880 8.29621 7.92180
#
# Compressibility (1/GPa) = 0.01876071
#
# Stress axis : x y z
#
# Youngs Moduli (GPa) = 39.83987 60.05230 92.31187
#
# Poissons Ratio (x) = 0.31183 0.63583
# Poissons Ratio (y) = 0.20687 0.44605
# Poissons Ratio (z) = 0.27441 0.29017
#
# Static dielectric constant tensor:
#      x y z
#    x 1.509140 0.000000 0.000000 
#    y 0.000000 1.477020 0.000000 
#    z 0.000000 0.000000 1.525810 
# 
# From -- ./inp_files/25243.got.cif
#   From: 2010.05.17/outbox.cif.g08.bks.cpg/sg46_13_cif.got.tgz:25243.got - 2010.06.03 19:58:25.
