data_PCOD9377510
_publ_section_title
;
Structure prediction by ZEFSAII (Michael W. Deem and Ramdas Pophale) SiO2 
 PCOD9377510
Probable space group: I B A 2
;
_chemical_formula_sum "Si O2"
_cell_formula_units_Z 64
_cell_length_a 7.711705
_cell_length_b 20.336889
_cell_length_c 17.427111
_cell_angle_alpha 90.000000
_cell_angle_beta 90.000000
_cell_angle_gamma 90.000000
_cell_volume 2733.130216
_symmetry_space_group_name_H-M "I B A 2"
_symmetry_group_IT_number 45
_symmetry_cell_setting 'orthorhombic'
loop_
_space_group_symop_operation_xyz
x,y,z
-x,-y,z
-x,y,1/2+z
x,-y,1/2+z
1/2+x,1/2+y,1/2+z
1/2-x,1/2-y,1/2+z
1/2-x,1/2+y,z
1/2+x,1/2-y,z
loop_
_atom_site_type_symbol
_atom_site_label
_atom_site_fract_x
_atom_site_fract_y
_atom_site_fract_z
Si Si1 0.225066 0.545641 0.803240
Si Si2 0.834098 0.828079 0.035106
Si Si3 0.274934 0.545641 0.103700
Si Si4 0.165902 0.328079 0.371834
Si Si5 0.626088 0.917923 0.629903
Si Si6 0.992385 0.779760 0.787954
Si Si7 0.507615 0.220239 0.618987
Si Si8 0.873912 0.082077 0.777038
O O1 0.134909 0.594162 0.863235
O O2 0.147085 0.565077 0.720210
O O3 0.430836 0.562576 0.801128
O O4 0.232483 0.466947 0.814552
O O5 0.865091 0.905838 0.043705
O O6 0.694080 0.810590 0.101153
O O7 0.982444 0.777217 0.056325
O O8 0.750001 0.815508 0.953470
O O9 0.267517 0.466947 0.092389
O O10 0.352916 0.565077 0.186730
O O11 0.069164 0.562576 0.105812
O O12 0.017556 0.277217 0.350616
O O13 0.305920 0.310590 0.305788
O O14 0.630733 0.839934 0.614647
O O15 0.996785 0.750000 0.703470
O O16 0.130733 0.839934 0.792293
#
# Coordination Sequence:
#
# PCOD9377510 Si02
#       8
#     8   8   8   8   8   8   8   8
#     4   9  18  34  54  80 108 142 184 235 281 329
#     4  11  23  37  55  83 121 153 185 239 300 346
#     4   9  18  34  54  80 108 142 184 235 281 329
#     4  11  23  37  55  83 121 153 185 239 300 346
#     4   9  18  32  56  81 105 139 191 238 267 327
#     4  11  21  36  59  86 113 153 200 239 279 348
#     4  11  21  36  59  86 113 153 200 239 279 348
#     4   9  18  32  56  81 105 139 191 238 267 327
#
# _framework density 23.416373
#
# number of rings (size 3 to 8) (size 9 to 14) (size 15 to 20)
#    0.000    2.000    2.500    1.500    3.500    0.000 
#    0.000    1.250    0.000   24.000    0.000    0.000 
#    0.000    0.000    0.000    0.000    0.000    0.000 
#
# Total GULP energy -178583.438758 kJ/mol
# GULP energy per Si atom -5580.732461 kJ/mol
# Density = 2.336308 g / cm^3
# Si number density = 23.416373 Si / 1000 Ang^3
#
#
#
# Elastic Constant Matrix: (Units=GPa)
#
#
# Indices 1 2 3 4 5 6 
#
# 1 43.2064 32.3819 -2.2687 0.0000 0.0000 0.0000
# 2 32.3819 114.0640 13.6956 0.0000 0.0000 0.0000
# 3 -2.2687 13.6956 53.4679 0.0000 0.0000 0.0000
# 4 0.0000 0.0000 0.0000 18.5059 0.0000 0.0000
# 5 0.0000 0.0000 0.0000 0.0000 13.3197 0.0000
# 6 0.0000 0.0000 0.0000 0.0000 0.0000 21.1386
#
#
#
# Elastic Compliance Matrix: (Units=1/GPa)
#
#
# Indices 1 2 3 4 5 6 
#
# 1 0.030046 -0.008959 0.003570 0.000000 0.000000 0.000000
# 2 -0.008959 0.011716 -0.003381 0.000000 0.000000 0.000000
# 3 0.003570 -0.003381 0.019720 0.000000 0.000000 0.000000
# 4 0.000000 0.000000 0.000000 0.054037 0.000000 0.000000
# 5 0.000000 0.000000 0.000000 0.000000 0.075077 0.000000
# 6 0.000000 0.000000 0.000000 0.000000 0.000000 0.047307
#
#
# Mechanical properties :
#
#
# Convention : Reuss Voigt Hill
#
# Bulk Modulus (GPa) = 22.75694 33.15066 27.95380
# Shear Modulus (GPa) = 18.51226 21.72146 20.11686
#
# Velocity S-wave (km/s) = 2.81476 3.04899 2.93421
# Velocity P-wave (km/s) = 4.50592 5.15586 4.84181
#
# Compressibility (1/GPa) = 0.04394264
#
# Stress axis : x y z
#
# Youngs Moduli (GPa) = 33.28197 85.35162 50.70907
#
# Poissons Ratio (x) = 0.76462 -0.18101
# Poissons Ratio (y) = 0.29816 0.17146
# Poissons Ratio (z) = -0.11880 0.28859
#
# Static dielectric constant tensor:
#      x y z
#    x 1.909990 0.000000 0.000000 
#    y 0.000000 2.131770 0.000000 
#    z 0.000000 0.000000 1.805830 
# 
# From -- ./inp_files/7769.got.cif
#   From: 2010.05.17/outbox.cif.g08.bks.cpg/sg45_4_cif.got.tgz:7769.got - 2010.06.03 19:51:22.
