data_PCOD9377412
_publ_section_title
;
Structure prediction by ZEFSAII (Michael W. Deem and Ramdas Pophale) SiO2 
 PCOD9377412
Probable space group: I B A 2
;
_chemical_formula_sum "Si O2"
_cell_formula_units_Z 64
_cell_length_a 11.133721
_cell_length_b 16.297276
_cell_length_c 14.077483
_cell_angle_alpha 90.000000
_cell_angle_beta 90.000000
_cell_angle_gamma 90.000000
_cell_volume 2554.349775
_symmetry_space_group_name_H-M "I B A 2"
_symmetry_group_IT_number 45
_symmetry_cell_setting 'orthorhombic'
loop_
_space_group_symop_operation_xyz
x,y,z
-x,-y,z
-x,y,1/2+z
x,-y,1/2+z
1/2+x,1/2+y,1/2+z
1/2-x,1/2-y,1/2+z
1/2-x,1/2+y,z
1/2+x,1/2-y,z
loop_
_atom_site_type_symbol
_atom_site_label
_atom_site_fract_x
_atom_site_fract_y
_atom_site_fract_z
Si Si1 0.500994 0.388238 0.829530
Si Si2 0.801740 0.948870 0.967372
Si Si3 0.260941 0.614813 0.586550
Si Si4 0.685919 0.294741 0.424119
Si Si5 0.945412 0.372405 0.946592
Si Si6 0.971255 0.092257 0.617540
Si Si7 0.395753 0.794718 0.794419
Si Si8 0.980006 0.592620 0.156647
O O1 0.603919 0.443136 0.879063
O O2 0.398086 0.373328 0.906953
O O3 0.443401 0.414255 0.729194
O O4 0.548597 0.295335 0.810048
O O5 0.674854 0.922343 0.923740
O O6 0.864361 0.885539 0.044996
O O7 0.766069 0.026778 0.033446
O O8 0.226073 0.683147 0.509507
O O9 0.398115 0.635017 0.615768
O O10 0.161246 0.613928 0.668033
O O11 0.606390 0.219383 0.455406
O O12 0.758999 0.283775 0.327111
O O13 0.042853 0.361918 0.864710
O O14 0.997586 0.406381 0.043795
O O15 0.000000 0.000000 0.583134
O O16 0.431576 0.837519 0.696584
O O17 0.000000 0.500000 0.192130
#
# Coordination Sequence:
#
# PCOD9377412 Si02
#       8
#     8   8   8   8   8   8   8   8
#     4  11  25  42  69  99 138 186 228 292 365 423
#     4  11  23  45  68  97 141 184 237 290 352 437
#     4  11  24  44  71  99 138 182 235 290 357 426
#     4  11  24  44  69  98 140 183 232 293 356 429
#     4  11  25  47  69  97 142 191 237 292 363 436
#     4  10  25  40  64 104 134 176 232 289 358 423
#     4  11  27  44  67 107 136 183 245 291 362 436
#     4  12  27  46  72 106 140 191 241 300 370 433
#
# _framework density 25.055299000000002
#
# number of rings (size 3 to 8) (size 9 to 14) (size 15 to 20)
#    0.000    1.000    5.000    0.000    7.000    2.500 
#    0.000    0.000    0.000    0.000    0.000    0.000 
#    0.000    0.000    0.000    0.000    0.000    0.000 
#
# Total GULP energy -178622.819718 kJ/mol
# GULP energy per Si atom -5581.963116 kJ/mol
# Density = 2.499827 g / cm^3
# Si number density = 25.055299 Si / 1000 Ang^3
#
#
#
# Elastic Constant Matrix: (Units=GPa)
#
#
# Indices 1 2 3 4 5 6 
#
# 1 63.9224 3.1861 2.0983 0.0000 0.0000 0.0000
# 2 3.1861 76.2768 2.5955 -0.0001 0.0000 0.0000
# 3 2.0983 2.5955 81.5193 -0.0001 0.0000 0.0000
# 4 0.0000 -0.0001 -0.0001 33.3559 0.0000 0.0000
# 5 0.0000 0.0000 0.0000 0.0000 31.1307 0.0000
# 6 0.0000 0.0000 0.0000 0.0000 0.0000 26.0164
#
#
#
# Elastic Compliance Matrix: (Units=1/GPa)
#
#
# Indices 1 2 3 4 5 6 
#
# 1 0.015689 -0.000642 -0.000383 0.000000 0.000000 0.000000
# 2 -0.000642 0.013151 -0.000402 0.000000 0.000000 0.000000
# 3 -0.000383 -0.000402 0.012290 0.000000 0.000000 0.000000
# 4 0.000000 0.000000 0.000000 0.029980 0.000000 0.000000
# 5 0.000000 0.000000 0.000000 0.000000 0.032123 0.000000
# 6 0.000000 0.000000 0.000000 0.000000 0.000000 0.038437
#
#
# Mechanical properties :
#
#
# Convention : Reuss Voigt Hill
#
# Bulk Modulus (GPa) = 26.12787 26.38647 26.25717
# Shear Modulus (GPa) = 31.79007 32.35653 32.07330
#
# Velocity S-wave (km/s) = 3.56588 3.59751 3.58173
# Velocity P-wave (km/s) = 5.23495 5.27354 5.25428
#
# Compressibility (1/GPa) = 0.03827331
#
# Stress axis : x y z
#
# Youngs Moduli (GPa) = 63.74066 76.04184 81.36889
#
# Poissons Ratio (x) = 0.04884 0.03119
# Poissons Ratio (y) = 0.04094 0.03272
# Poissons Ratio (z) = 0.02444 0.03058
#
# Static dielectric constant tensor:
#      x y z
#    x 2.074830 0.000000 0.000000 
#    y 0.000000 1.968630 0.000000 
#    z 0.000000 0.000000 2.028020 
# 
# From -- ./inp_files/6271.got.cif
#   From: 2010.05.17/outbox.cif.g08.bks.cpg/sg45_4_cif.got.tgz:6271.got - 2010.06.03 19:51:22.
