data_PCOD9377697
_publ_section_title
;
Structure prediction by ZEFSAII (Michael W. Deem and Ramdas Pophale) SiO2 
 PCOD9377697
Probable space group: I B A 2
;
_chemical_formula_sum "Si O2"
_cell_formula_units_Z 60
_cell_length_a 6.637733
_cell_length_b 27.530971
_cell_length_c 14.874036
_cell_angle_alpha 90.000000
_cell_angle_beta 90.000000
_cell_angle_gamma 90.000000
_cell_volume 2718.129452
_symmetry_space_group_name_H-M "I B A 2"
_symmetry_group_IT_number 45
_symmetry_cell_setting 'orthorhombic'
loop_
_space_group_symop_operation_xyz
x,y,z
-x,-y,z
-x,y,1/2+z
x,-y,1/2+z
1/2+x,1/2+y,1/2+z
1/2-x,1/2-y,1/2+z
1/2-x,1/2+y,z
1/2+x,1/2-y,z
loop_
_atom_site_type_symbol
_atom_site_label
_atom_site_fract_x
_atom_site_fract_y
_atom_site_fract_z
Si Si1 0.542103 0.257875 0.735740
Si Si2 0.500000 0.000000 0.289721
Si Si3 0.210893 0.759634 0.878980
Si Si4 0.126490 0.044277 0.400854
Si Si5 0.620566 0.548387 0.222218
Si Si6 0.126652 0.696455 0.057326
Si Si7 0.500759 0.351450 0.641534
Si Si8 0.258493 0.853953 0.974199
O O1 0.289796 0.253073 0.759479
O O2 0.533573 0.229753 0.637402
O O3 0.559138 0.315991 0.721530
O O4 0.669733 0.974581 0.351611
O O5 0.358314 0.963833 0.231154
O O6 0.462067 0.751520 0.854740
O O7 0.213829 0.730355 0.976610
O O8 0.210946 0.818016 0.893125
O O9 0.195430 0.090985 0.455591
O O10 0.971150 0.059095 0.321463
O O11 0.000000 0.000000 0.446830
O O12 0.500000 0.500000 0.192814
O O13 0.559006 0.593841 0.163310
O O14 0.277041 0.661393 0.111894
O O15 0.982225 0.658733 0.005260
O O16 0.627681 0.335548 0.556379
#
# Coordination Sequence:
#
# PCOD9377697 Si02
#       8
#     8   4   8   8   8   8   8   8
#     4  12  23  42  69  94 142 198 232 297 360 426
#     4   8  18  42  68  94 132 164 234 296 340 450
#     4  12  23  42  68  94 141 196 234 292 361 426
#     4   9  21  41  68  97 131 174 234 291 358 436
#     4   9  21  42  69  98 131 177 236 294 356 432
#     4  12  26  45  64 105 147 180 251 296 348 447
#     4  12  25  42  65  99 144 184 238 297 357 429
#     4  12  25  41  64  99 138 182 234 295 353 430
#
# _framework density 22.074002
#
# number of rings (size 3 to 8) (size 9 to 14) (size 15 to 20)
#    0.000    1.333    4.000    3.200    0.000    5.867 
#    0.000    0.667    0.000    0.000    0.000    0.000 
#    0.000    0.000    0.000    0.000    0.000    0.000 
#
# Total GULP energy -167214.943464 kJ/mol
# GULP energy per Si atom -5573.831449 kJ/mol
# Density = 2.202376 g / cm^3
# Si number density = 22.074002 Si / 1000 Ang^3
#
#
#
# Elastic Constant Matrix: (Units=GPa)
#
#
# Indices 1 2 3 4 5 6 
#
# 1 123.7281 66.8813 58.1925 0.0000 0.0000 0.0000
# 2 66.8813 166.4188 55.8526 0.0000 0.0000 0.0000
# 3 58.1925 55.8526 119.8698 -0.0001 0.0000 -0.0001
# 4 0.0000 0.0000 -0.0001 63.8610 0.0000 0.0000
# 5 0.0000 0.0000 0.0000 0.0000 47.5890 0.0000
# 6 0.0000 0.0000 -0.0001 0.0000 0.0000 16.2778
#
#
#
# Elastic Compliance Matrix: (Units=1/GPa)
#
#
# Indices 1 2 3 4 5 6 
#
# 1 0.011875 -0.003363 -0.004197 0.000000 0.000000 0.000000
# 2 -0.003363 0.008075 -0.002130 0.000000 0.000000 0.000000
# 3 -0.004197 -0.002130 0.011373 0.000000 0.000000 0.000000
# 4 0.000000 0.000000 0.000000 0.015659 0.000000 0.000000
# 5 0.000000 0.000000 0.000000 0.000000 0.021013 0.000000
# 6 0.000000 0.000000 0.000000 0.000000 0.000000 0.061434
#
#
# Mechanical properties :
#
#
# Convention : Reuss Voigt Hill
#
# Bulk Modulus (GPa) = 83.74584 85.76327 84.75456
# Shear Modulus (GPa) = 32.72459 40.81823 36.77141
#
# Velocity S-wave (km/s) = 3.85449 4.30484 4.08588
# Velocity P-wave (km/s) = 7.60464 7.97784 7.79347
#
# Compressibility (1/GPa) = 0.01194089
#
# Stress axis : x y z
#
# Youngs Moduli (GPa) = 84.21371 123.83164 87.93131
#
# Poissons Ratio (x) = 0.41650 0.36909
# Poissons Ratio (y) = 0.28325 0.18728
# Poissons Ratio (z) = 0.35349 0.26375
#
# Static dielectric constant tensor:
#      x y z
#    x 1.946770 0.000000 0.000000 
#    y 0.000000 1.760460 0.000000 
#    z 0.000000 0.000000 1.922850 
# 
# From -- ./inp_files/8543.got.cif
#   From: 2010.05.17/outbox.cif.g08.bks.cpg/sg45_5_cif.got.tgz:8543.got - 2010.06.03 19:51:22.
