data_PCOD9377991
_publ_section_title
;
Structure prediction by ZEFSAII (Michael W. Deem and Ramdas Pophale) SiO2 
 PCOD9377991
Probable space group: I M A 2
;
_chemical_formula_sum "Si O2"
_cell_formula_units_Z 56
_cell_length_a 8.689596
_cell_length_b 22.505734
_cell_length_c 18.231878
_cell_angle_alpha 90.000000
_cell_angle_beta 90.000000
_cell_angle_gamma 90.000000
_cell_volume 3565.530642
_symmetry_space_group_name_H-M "I M A 2"
_symmetry_group_IT_number 46
_symmetry_cell_setting 'orthorhombic'
loop_
_space_group_symop_operation_xyz
x,y,z
-x,-y,z
1/2-x,y,z
1/2+x,-y,z
1/2+x,1/2+y,1/2+z
1/2-x,1/2-y,1/2+z
-x,1/2+y,1/2+z
x,1/2-y,1/2+z
loop_
_atom_site_type_symbol
_atom_site_label
_atom_site_fract_x
_atom_site_fract_y
_atom_site_fract_z
Si Si1 0.567511 0.852324 0.607730
Si Si2 0.066308 0.346605 0.350304
Si Si3 0.434020 0.189361 0.452863
Si Si4 0.432262 0.934222 0.730138
Si Si5 0.067157 0.682992 0.498846
Si Si6 0.566320 0.714026 0.648953
Si Si7 0.433747 0.782898 0.306559
O O1 0.750000 0.862287 0.619875
O O2 0.537115 0.854994 0.520412
O O3 0.473140 0.897532 0.656777
O O4 0.535190 0.784279 0.632843
O O5 0.250000 0.341811 0.349042
O O6 0.009306 0.398027 0.296742
O O7 0.007579 0.355173 0.433551
O O8 0.996927 0.284075 0.320945
O O9 0.250000 0.200606 0.451195
O O10 0.519800 0.249956 0.475808
O O11 0.494881 0.176954 0.371606
O O12 0.250000 0.936094 0.740648
O O13 0.500000 0.000000 0.725638
O O14 0.250000 0.676499 0.498850
O O15 0.999335 0.677094 0.580319
O O16 0.750000 0.707512 0.652610
O O17 0.489481 0.698709 0.726136
O O18 0.250000 0.782203 0.311430
#
# Coordination Sequence:
#
# PCOD9377991 Si02
#       7
#     8   8   8   8   8   8   8
#     4   9  18  32  48  64  87 120 156 192 234 278
#     4  11  20  33  48  63  89 122 156 192 236 280
#     4   9  17  29  44  62  88 121 153 185 228 279
#     4  12  24  36  51  69  91 120 160 202 241 278
#     4  10  18  28  43  65  90 117 154 191 227 274
#     4  10  18  29  45  65  93 126 156 187 230 279
#     4  11  19  27  43  68  94 122 157 192 228 273
#
# _framework density 15.705938
#
# number of rings (size 3 to 8) (size 9 to 14) (size 15 to 20)
#    0.000    1.714    1.429    8.571    0.000    2.857 
#    0.000    0.000    0.000    0.000    0.000    0.000 
#    0.000    1.143    0.000    8.000    0.000    6.286 
#
# Total GULP energy -156181.518768 kJ/mol
# GULP energy per Si atom -5577.911385 kJ/mol
# Density = 1.567019 g / cm^3
# Si number density = 15.705938 Si / 1000 Ang^3
#
#
#
# Elastic Constant Matrix: (Units=GPa)
#
#
# Indices 1 2 3 4 5 6 
#
# 1 121.0522 28.4737 58.6784 0.0000 0.0000 0.0000
# 2 28.4737 37.0807 28.2627 0.0000 0.0000 0.0000
# 3 58.6784 28.2627 146.6204 0.0000 0.0000 0.0000
# 4 0.0000 0.0000 0.0000 8.9518 0.0000 0.0000
# 5 0.0000 0.0000 0.0000 0.0000 30.8198 0.0000
# 6 0.0000 0.0000 0.0000 0.0000 0.0000 16.1684
#
#
#
# Elastic Compliance Matrix: (Units=1/GPa)
#
#
# Indices 1 2 3 4 5 6 
#
# 1 0.011331 -0.006148 -0.003350 0.000000 0.000000 0.000000
# 2 -0.006148 0.034948 -0.004276 0.000000 0.000000 0.000000
# 3 -0.003350 -0.004276 0.008985 0.000000 0.000000 0.000000
# 4 0.000000 0.000000 0.000000 0.111709 0.000000 0.000000
# 5 0.000000 0.000000 0.000000 0.000000 0.032447 0.000000
# 6 0.000000 0.000000 0.000000 0.000000 0.000000 0.061849
#
#
# Mechanical properties :
#
#
# Convention : Reuss Voigt Hill
#
# Bulk Modulus (GPa) = 36.07889 59.50922 47.79406
# Shear Modulus (GPa) = 16.77545 23.81057 20.29301
#
# Velocity S-wave (km/s) = 3.27172 3.89784 3.59842
# Velocity P-wave (km/s) = 6.10685 7.63082 6.91097
#
# Compressibility (1/GPa) = 0.02771704
#
# Stress axis : x y z
#
# Youngs Moduli (GPa) = 88.25682 28.61369 111.29457
#
# Poissons Ratio (x) = 0.17590 0.37279
# Poissons Ratio (y) = 0.54257 0.47594
# Poissons Ratio (z) = 0.29562 0.12236
#
# Static dielectric constant tensor:
#      x y z
#    x 1.519130 0.000000 0.000000 
#    y 0.000000 1.484140 0.000000 
#    z 0.000000 0.000000 1.579550 
# 
# From -- ./inp_files/18483.got.cif
#   From: 2010.05.17/outbox.cif.g08.bks.cpg/sg46_10_cif.got.tgz:18483.got - 2010.06.03 19:58:25.
