data_PCOD9377390
_publ_section_title
;
Structure prediction by ZEFSAII (Michael W. Deem and Ramdas Pophale) SiO2 
 PCOD9377390
Probable space group: I B A 2
;
_chemical_formula_sum "Si O2"
_cell_formula_units_Z 60
_cell_length_a 15.598561
_cell_length_b 8.529488
_cell_length_c 20.732371
_cell_angle_alpha 90.000000
_cell_angle_beta 90.000000
_cell_angle_gamma 90.000000
_cell_volume 2758.395083
_symmetry_space_group_name_H-M "I B A 2"
_symmetry_group_IT_number 45
_symmetry_cell_setting 'orthorhombic'
loop_
_space_group_symop_operation_xyz
x,y,z
-x,-y,z
-x,y,1/2+z
x,-y,1/2+z
1/2+x,1/2+y,1/2+z
1/2-x,1/2-y,1/2+z
1/2-x,1/2+y,z
1/2+x,1/2-y,z
loop_
_atom_site_type_symbol
_atom_site_label
_atom_site_fract_x
_atom_site_fract_y
_atom_site_fract_z
Si Si1 0.477697 0.834554 0.543860
Si Si2 0.403027 0.568024 0.455584
Si Si3 0.580251 0.200772 0.683413
Si Si4 0.159612 0.127875 0.313639
Si Si5 0.000000 0.000000 0.736305
Si Si6 0.234390 0.891008 0.132990
Si Si7 0.667919 0.972694 0.757936
Si Si8 0.341694 0.667060 0.055979
O O1 0.418333 0.717498 0.502638
O O2 0.437958 0.871604 0.613520
O O3 0.565041 0.742521 0.558204
O O4 0.500000 0.000000 0.510767
O O5 0.500000 0.500000 0.444558
O O6 0.358439 0.613654 0.389327
O O7 0.346073 0.435107 0.490938
O O8 0.515122 0.342968 0.695508
O O9 0.672632 0.279407 0.673236
O O10 0.588498 0.089189 0.745275
O O11 0.151569 0.308861 0.292526
O O12 0.084995 0.028683 0.278381
O O13 0.251803 0.059919 0.291626
O O14 0.307036 0.934542 0.183750
O O15 0.273964 0.804076 0.070852
O O16 0.179572 0.040321 0.111199
#
# Coordination Sequence:
#
# PCOD9377390 Si02
#       8
#     8   8   8   8   4   8   8   8
#     4  11  25  43  69 103 135 176 225 288 346 405
#     4  10  24  48  69  94 134 184 237 280 326 407
#     4  12  24  40  69 103 139 169 225 284 355 414
#     4  12  25  48  68  95 140 188 232 281 334 410
#     4  12  26  42  70 100 136 192 224 280 348 408
#     4  12  21  40  65 102 140 170 216 285 356 406
#     4  12  25  43  68 104 141 177 225 290 347 415
#     4  11  24  40  69  98 136 180 222 279 348 407
#
# _framework density 21.75178
#
# number of rings (size 3 to 8) (size 9 to 14) (size 15 to 20)
#    0.000    0.533    6.000    1.600    4.667    1.067 
#    2.400    1.333    0.000    0.000    0.000    0.000 
#    0.000    0.000    0.000    0.000    0.000    0.000 
#
# Total GULP energy -167720.446039 kJ/mol
# GULP energy per Si atom -5590.681535 kJ/mol
# Density = 2.170227 g / cm^3
# Si number density = 21.751780 Si / 1000 Ang^3
#
#
#
# Elastic Constant Matrix: (Units=GPa)
#
#
# Indices 1 2 3 4 5 6 
#
# 1 64.3268 32.5741 41.0098 0.0000 0.0000 0.0000
# 2 32.5741 115.4037 50.8643 0.0000 0.0000 0.0000
# 3 41.0098 50.8643 114.1900 0.0000 0.0000 0.0000
# 4 0.0000 0.0000 0.0000 21.9845 0.0000 0.0000
# 5 0.0000 0.0000 0.0000 0.0000 26.4857 0.0000
# 6 0.0000 0.0000 0.0000 0.0000 0.0000 39.3064
#
#
#
# Elastic Compliance Matrix: (Units=1/GPa)
#
#
# Indices 1 2 3 4 5 6 
#
# 1 0.021101 -0.003255 -0.006128 0.000000 0.000000 0.000000
# 2 -0.003255 0.011284 -0.003857 0.000000 0.000000 0.000000
# 3 -0.006128 -0.003857 0.012676 0.000000 0.000000 0.000000
# 4 0.000000 0.000000 0.000000 0.045487 0.000000 0.000000
# 5 0.000000 0.000000 0.000000 0.000000 0.037756 0.000000
# 6 0.000000 0.000000 0.000000 0.000000 0.000000 0.025441
#
#
# Mechanical properties :
#
#
# Convention : Reuss Voigt Hill
#
# Bulk Modulus (GPa) = 53.82058 60.31299 57.06678
# Shear Modulus (GPa) = 26.82122 28.85348 27.83735
#
# Velocity S-wave (km/s) = 3.51530 3.64605 3.58127
# Velocity P-wave (km/s) = 6.42443 6.74633 6.58734
#
# Compressibility (1/GPa) = 0.01858025
#
# Stress axis : x y z
#
# Youngs Moduli (GPa) = 47.39179 88.62006 78.88672
#
# Poissons Ratio (x) = 0.28845 0.48343
# Poissons Ratio (y) = 0.15426 0.30430
# Poissons Ratio (z) = 0.29043 0.34184
#
# Static dielectric constant tensor:
#      x y z
#    x 1.842090 0.000000 0.000000 
#    y 0.000000 1.908460 0.000000 
#    z 0.000000 0.000000 1.753380 
# 
# From -- ./inp_files/8347.got.cif
#   From: 2010.05.17/outbox.cif.g08.bks.cpg/sg45_5_cif.got.tgz:8347.got - 2010.06.03 19:51:22.
