data_PCOD9377812
_publ_section_title
;
Structure prediction by ZEFSAII (Michael W. Deem and Ramdas Pophale) SiO2 
 PCOD9377812
Probable space group: I M A 2
;
_chemical_formula_sum "Si O2"
_cell_formula_units_Z 28
_cell_length_a 13.800921
_cell_length_b 7.714715
_cell_length_c 10.056480
_cell_angle_alpha 90.000000
_cell_angle_beta 90.000000
_cell_angle_gamma 90.000000
_cell_volume 1070.715158
_symmetry_space_group_name_H-M "I M A 2"
_symmetry_group_IT_number 46
_symmetry_cell_setting 'orthorhombic'
loop_
_space_group_symop_operation_xyz
x,y,z
-x,-y,z
1/2-x,y,z
1/2+x,-y,z
1/2+x,1/2+y,1/2+z
1/2-x,1/2-y,1/2+z
-x,1/2+y,1/2+z
x,1/2-y,1/2+z
loop_
_atom_site_type_symbol
_atom_site_label
_atom_site_fract_x
_atom_site_fract_y
_atom_site_fract_z
Si Si1 0.250000 0.141738 0.318871
Si Si2 0.572031 0.722508 0.197461
Si Si3 0.544299 0.172679 0.971677
Si Si4 0.250000 0.568229 0.371403
Si Si5 0.750000 0.011213 0.598933
O O1 0.349455 0.125129 0.235428
O O2 0.250000 0.349994 0.374115
O O3 0.250000 0.007894 0.440776
O O4 0.516572 0.697511 0.336766
O O5 0.488560 0.702697 0.087358
O O6 0.652837 0.590501 0.142659
O O7 0.500000 0.000000 0.035158
O O8 0.654867 0.138850 0.941913
O O9 0.250000 0.647062 0.220485
#
# Coordination Sequence:
#
# PCOD9377812 Si02
#       5
#     4   8   8   4   4
#     4  10  18  37  65  98 110 159 223 273 295 370
#     4  10  21  33  64  89 124 159 209 263 312 373
#     4  12  21  41  59  91 125 170 205 261 325 371
#     4  10  22  34  64  85 127 172 200 257 331 383
#     4  10  16  35  61  97 111 155 223 262 300 367
#
# _framework density 26.150746999999999
#
# number of rings (size 3 to 8) (size 9 to 14) (size 15 to 20)
#    0.000    1.714    8.571    0.000    0.000    2.286 
#    0.000    4.286    0.000    0.000    0.000    0.000 
#    0.000    0.000    0.000    0.000    0.000    0.000 
#
# Total GULP energy -77941.077342 kJ/mol
# GULP energy per Si atom -5567.219810 kJ/mol
# Density = 2.609123 g / cm^3
# Si number density = 26.150747 Si / 1000 Ang^3
#
#
#
# Elastic Constant Matrix: (Units=GPa)
#
#
# Indices 1 2 3 4 5 6 
#
# 1 203.2843 17.8349 88.1584 0.0000 0.0000 0.0000
# 2 17.8349 40.9588 25.8302 0.0000 0.0000 0.0000
# 3 88.1584 25.8302 166.2925 0.0000 0.0000 0.0000
# 4 0.0000 0.0000 0.0000 5.7554 0.0000 0.0000
# 5 0.0000 0.0000 0.0000 0.0000 574.6852 0.0000
# 6 0.0000 0.0000 0.0000 0.0000 0.0000 39.1315
#
#
#
# Elastic Compliance Matrix: (Units=1/GPa)
#
#
# Indices 1 2 3 4 5 6 
#
# 1 0.006407 -0.000718 -0.003285 0.000000 0.000000 0.000000
# 2 -0.000718 0.027147 -0.003836 0.000000 0.000000 0.000000
# 3 -0.003285 -0.003836 0.008351 0.000000 0.000000 0.000000
# 4 0.000000 0.000000 0.000000 0.173749 0.000000 0.000000
# 5 0.000000 0.000000 0.000000 0.000000 0.001740 0.000000
# 6 0.000000 0.000000 0.000000 0.000000 0.000000 0.025555
#
#
# Mechanical properties :
#
#
# Convention : Reuss Voigt Hill
#
# Bulk Modulus (GPa) = 38.12991 74.90918 56.51954
# Shear Modulus (GPa) = 18.70081 142.49522 80.59802
#
# Velocity S-wave (km/s) = 2.67707 7.38974 5.55765
# Velocity P-wave (km/s) = 4.91610 10.07563 7.92737
#
# Compressibility (1/GPa) = 0.02622613
#
# Stress axis : x y z
#
# Youngs Moduli (GPa) = 156.08376 36.83701 119.74848
#
# Poissons Ratio (x) = 0.02645 0.39337
# Poissons Ratio (y) = 0.11209 0.45935
# Poissons Ratio (z) = 0.51273 0.14131
#
# Static dielectric constant tensor:
#      x y z
#    x 1.616590 0.000000 0.000000 
#    y 0.000000 2.406610 0.000000 
#    z 0.000000 0.000000 2.125790 
# 
# From -- ./inp_files/4175.got.cif
#   From: 2010.05.17/outbox.cif.g08.bks.cpg/sg46_3_cif.got.tgz:4175.got - 2010.06.03 19:58:25.
