data_PCOD9377705
_publ_section_title
;
Structure prediction by ZEFSAII (Michael W. Deem and Ramdas Pophale) SiO2 
 PCOD9377705
Probable space group: I B A 2
;
_chemical_formula_sum "Si O2"
_cell_formula_units_Z 32
_cell_length_a 14.298647
_cell_length_b 4.632425
_cell_length_c 18.805948
_cell_angle_alpha 90.000000
_cell_angle_beta 90.000000
_cell_angle_gamma 90.000000
_cell_volume 1245.657285
_symmetry_space_group_name_H-M "I B A 2"
_symmetry_group_IT_number 45
_symmetry_cell_setting 'orthorhombic'
loop_
_space_group_symop_operation_xyz
x,y,z
-x,-y,z
-x,y,1/2+z
x,-y,1/2+z
1/2+x,1/2+y,1/2+z
1/2-x,1/2-y,1/2+z
1/2-x,1/2+y,z
1/2+x,1/2-y,z
loop_
_atom_site_type_symbol
_atom_site_label
_atom_site_fract_x
_atom_site_fract_y
_atom_site_fract_z
Si Si1 0.183950 0.598006 0.691700
Si Si2 0.686717 0.499985 0.452719
Si Si3 0.433609 0.750261 0.325149
Si Si4 0.063841 0.740280 0.076601
O O1 0.218561 0.925116 0.684706
O O2 0.132844 0.596859 0.767467
O O3 0.116206 0.455225 0.634470
O O4 0.713958 0.833381 0.451645
O O5 0.627209 0.405969 0.384996
O O6 0.633594 0.398655 0.522968
O O7 0.500000 0.500000 0.292386
O O8 0.500000 0.000000 0.355299
O O9 0.000000 0.500000 0.037348
O O10 0.000000 0.000000 0.106803
#
# Coordination Sequence:
#
# PCOD9377705 Si02
#       4
#     8   8   8   8
#     4  12  25  44  67  98 136 182 232 284 341 410
#     4  12  24  44  70 102 138 180 228 286 349 416
#     4  12  25  44  69 101 138 182 231 288 349 415
#     4  12  25  44  69 101 138 182 231 288 349 415
#
# _framework density 25.689247999999999
#
# number of rings (size 3 to 8) (size 9 to 14) (size 15 to 20)
#    0.000    0.000    0.000   11.250    0.000    2.000 
#    0.000    0.000    0.000    0.000    0.000    0.000 
#    0.000    0.000    0.000    0.000    0.000    0.000 
#
# Total GULP energy -89770.768809 kJ/mol
# GULP energy per Si atom -5610.673051 kJ/mol
# Density = 2.563078 g / cm^3
# Si number density = 25.689248 Si / 1000 Ang^3
#
#
#
# Elastic Constant Matrix: (Units=GPa)
#
#
# Indices 1 2 3 4 5 6 
#
# 1 98.0934 27.4814 40.2077 0.0000 0.0000 0.0000
# 2 27.4814 106.2743 5.9238 0.0000 0.0000 0.0000
# 3 40.2077 5.9238 126.6734 0.0000 0.0000 0.0000
# 4 0.0000 0.0000 0.0000 30.4705 0.0000 0.0000
# 5 0.0000 0.0000 0.0000 0.0000 47.0830 0.0000
# 6 0.0000 0.0000 0.0000 0.0000 0.0000 63.7802
#
#
#
# Elastic Compliance Matrix: (Units=1/GPa)
#
#
# Indices 1 2 3 4 5 6 
#
# 1 0.012635 -0.003052 -0.003868 0.000000 0.000000 0.000000
# 2 -0.003052 0.010171 0.000493 0.000000 0.000000 0.000000
# 3 -0.003868 0.000493 0.009099 0.000000 0.000000 0.000000
# 4 0.000000 0.000000 0.000000 0.032819 0.000000 0.000000
# 5 0.000000 0.000000 0.000000 0.000000 0.021239 0.000000
# 6 0.000000 0.000000 0.000000 0.000000 0.000000 0.015679
#
#
# Mechanical properties :
#
#
# Convention : Reuss Voigt Hill
#
# Bulk Modulus (GPa) = 52.48748 53.14076 52.81412
# Shear Modulus (GPa) = 41.37542 45.42861 43.40202
#
# Velocity S-wave (km/s) = 4.01760 4.20979 4.11481
# Velocity P-wave (km/s) = 6.48055 6.66038 6.57108
#
# Compressibility (1/GPa) = 0.01905216
#
# Stress axis : x y z
#
# Youngs Moduli (GPa) = 79.14765 98.31637 109.90325
#
# Poissons Ratio (x) = 0.30002 0.42507
# Poissons Ratio (y) = 0.24153 -0.05418
# Poissons Ratio (z) = 0.30612 -0.04847
#
# Static dielectric constant tensor:
#      x y z
#    x 2.042950 0.000000 0.000000 
#    y 0.000000 1.944040 0.000000 
#    z 0.000000 0.000000 1.957730 
# 
# From -- ./inp_files/8082.got.cif
#   From: 2010.05.17/outbox.cif.g08.bks.cpg/sg45_5_cif.got.tgz:8082.got - 2010.06.03 19:51:22.
