data_PCOD9377838
_publ_section_title
;
Structure prediction by ZEFSAII (Michael W. Deem and Ramdas Pophale) SiO2 
 PCOD9377838
Probable space group: I M A 2
;
_chemical_formula_sum "Si O2"
_cell_formula_units_Z 56
_cell_length_a 8.667723
_cell_length_b 22.780092
_cell_length_c 18.385080
_cell_angle_alpha 90.000000
_cell_angle_beta 90.000000
_cell_angle_gamma 90.000000
_cell_volume 3630.162127
_symmetry_space_group_name_H-M "I M A 2"
_symmetry_group_IT_number 46
_symmetry_cell_setting 'orthorhombic'
loop_
_space_group_symop_operation_xyz
x,y,z
-x,-y,z
1/2-x,y,z
1/2+x,-y,z
1/2+x,1/2+y,1/2+z
1/2-x,1/2-y,1/2+z
-x,1/2+y,1/2+z
x,1/2-y,1/2+z
loop_
_atom_site_type_symbol
_atom_site_label
_atom_site_fract_x
_atom_site_fract_y
_atom_site_fract_z
Si Si1 0.564946 0.565332 0.506460
Si Si2 0.933850 0.280972 0.094553
Si Si3 0.937464 0.846979 0.134949
Si Si4 0.071730 0.177016 0.289458
Si Si5 0.433614 0.843547 0.892839
Si Si6 0.436421 0.217010 0.439890
Si Si7 0.071572 0.314850 0.243184
O O1 0.500000 0.500000 0.507853
O O2 0.750000 0.564449 0.500614
O O3 0.523961 0.600972 0.580038
O O4 0.496245 0.602634 0.439900
O O5 0.750000 0.280932 0.093155
O O6 0.993828 0.214114 0.105719
O O7 0.994721 0.316973 0.164153
O O8 0.001072 0.302208 0.017799
O O9 0.750000 0.840383 0.136414
O O10 0.993290 0.855389 0.218366
O O11 0.250000 0.158411 0.296208
O O12 0.006338 0.178247 0.370994
O O13 0.069423 0.245675 0.265620
O O14 0.250000 0.839466 0.898361
O O15 0.507081 0.783531 0.924809
O O16 0.484608 0.847020 0.808640
O O17 0.250000 0.217489 0.439753
O O18 0.250000 0.332828 0.240216
#
# Coordination Sequence:
#
# PCOD9377838 Si02
#       7
#     8   8   8   8   8   8   8
#     4  11  22  34  49  66  89 121 160 199 237 275
#     4  11  19  26  41  66  93 119 151 188 224 266
#     4   9  17  31  47  60  82 118 155 189 230 275
#     4   7  13  25  42  61  79 108 149 183 213 264
#     4  11  20  31  46  65  89 115 151 194 235 273
#     4  10  17  27  43  63  90 123 153 180 221 275
#     4   9  17  30  45  61  85 118 152 181 222 277
#
# _framework density 15.426308000000001
#
# number of rings (size 3 to 8) (size 9 to 14) (size 15 to 20)
#    0.000    2.286    1.429    5.571    0.000    0.571 
#    0.000    0.714    0.000    0.000    0.000    0.000 
#    0.000    1.143    0.000    8.000    0.000    3.714 
#
# Total GULP energy -155998.351820 kJ/mol
# GULP energy per Si atom -5571.369708 kJ/mol
# Density = 1.539120 g / cm^3
# Si number density = 15.426308 Si / 1000 Ang^3
#
#
#
# Elastic Constant Matrix: (Units=GPa)
#
#
# Indices 1 2 3 4 5 6 
#
# 1 72.4340 20.3232 46.8070 0.0000 0.0000 0.0000
# 2 20.3232 46.2224 42.3263 0.0000 0.0000 0.0000
# 3 46.8070 42.3263 176.0965 0.0000 0.0000 0.0000
# 4 0.0000 0.0000 0.0000 13.0901 0.0000 0.0000
# 5 0.0000 0.0000 0.0000 0.0000 17.2122 0.0000
# 6 0.0000 0.0000 0.0000 0.0000 0.0000 14.5295
#
#
#
# Elastic Compliance Matrix: (Units=1/GPa)
#
#
# Indices 1 2 3 4 5 6 
#
# 1 0.017328 -0.004361 -0.003558 0.000000 0.000000 0.000000
# 2 -0.004361 0.028838 -0.005772 0.000000 0.000000 0.000000
# 3 -0.003558 -0.005772 0.008012 0.000000 0.000000 0.000000
# 4 0.000000 0.000000 0.000000 0.076393 0.000000 0.000000
# 5 0.000000 0.000000 0.000000 0.000000 0.058098 0.000000
# 6 0.000000 0.000000 0.000000 0.000000 0.000000 0.068826
#
#
# Mechanical properties :
#
#
# Convention : Reuss Voigt Hill
#
# Bulk Modulus (GPa) = 37.31944 57.07398 47.19671
# Shear Modulus (GPa) = 17.01786 21.31946 19.16866
#
# Velocity S-wave (km/s) = 3.32501 3.72159 3.52887
# Velocity P-wave (km/s) = 6.24383 7.45286 6.87497
#
# Compressibility (1/GPa) = 0.02679569
#
# Stress axis : x y z
#
# Youngs Moduli (GPa) = 57.70920 34.67687 124.81700
#
# Poissons Ratio (x) = 0.15123 0.44406
# Poissons Ratio (y) = 0.25168 0.72046
# Poissons Ratio (z) = 0.20531 0.20016
#
# Static dielectric constant tensor:
#      x y z
#    x 1.516040 0.000000 0.000000 
#    y 0.000000 1.468960 0.000000 
#    z 0.000000 0.000000 1.569220 
# 
# From -- ./inp_files/18447.got.cif
#   From: 2010.05.17/outbox.cif.g08.bks.cpg/sg46_10_cif.got.tgz:18447.got - 2010.06.03 19:58:25.
