data_PCOD9377204
_publ_section_title
;
Structure prediction by ZEFSAII (Michael W. Deem and Ramdas Pophale) SiO2 
 PCOD9377204
Probable space group: I B A 2
;
_chemical_formula_sum "Si O2"
_cell_formula_units_Z 48
_cell_length_a 10.429279
_cell_length_b 14.015779
_cell_length_c 16.343514
_cell_angle_alpha 90.000000
_cell_angle_beta 90.000000
_cell_angle_gamma 90.000000
_cell_volume 2389.004490
_symmetry_space_group_name_H-M "I B A 2"
_symmetry_group_IT_number 45
_symmetry_cell_setting 'orthorhombic'
loop_
_space_group_symop_operation_xyz
x,y,z
-x,-y,z
-x,y,1/2+z
x,-y,1/2+z
1/2+x,1/2+y,1/2+z
1/2-x,1/2-y,1/2+z
1/2-x,1/2+y,z
1/2+x,1/2-y,z
loop_
_atom_site_type_symbol
_atom_site_label
_atom_site_fract_x
_atom_site_fract_y
_atom_site_fract_z
Si Si1 0.355896 0.028948 0.838260
Si Si2 0.687649 0.648155 0.814278
Si Si3 0.092108 0.712221 0.946035
Si Si4 0.732240 0.327514 0.711699
Si Si5 0.158328 0.742684 0.550359
Si Si6 0.462675 0.396988 0.655272
O O1 0.372898 0.108345 0.909290
O O2 0.280920 0.085908 0.767303
O O3 0.500000 0.000000 0.812828
O O4 0.276706 0.931894 0.856200
O O5 0.594690 0.707211 0.874652
O O6 0.764704 0.732289 0.767410
O O7 0.611197 0.597363 0.741245
O O8 0.207376 0.746444 0.004429
O O9 0.956324 0.709409 0.991777
O O10 0.824425 0.318233 0.633070
O O11 0.591299 0.340134 0.676133
O O12 0.118898 0.844716 0.586953
O O13 0.500000 0.500000 0.625163
#
# Coordination Sequence:
#
# PCOD9377204 Si02
#       6
#     8   8   8   8   8   8
#     4  11  24  42  66  98 125 167 222 265 319 383
#     4  10  24  39  70  91 126 169 216 267 319 375
#     4  11  25  43  66  95 135 174 207 263 330 387
#     4  10  23  43  66  93 128 167 219 269 316 380
#     4  11  24  44  66  92 137 174 205 264 330 383
#     4  11  22  42  68  97 123 168 226 265 317 382
#
# _framework density 20.092051999999999
#
# number of rings (size 3 to 8) (size 9 to 14) (size 15 to 20)
#    0.000    1.333    3.333    1.000   11.667    1.333 
#    3.000    0.000    0.000    0.000    0.000    0.000 
#    0.000    0.000    0.000    0.000    0.000    0.000 
#
# Total GULP energy -134008.060233 kJ/mol
# GULP energy per Si atom -5583.669176 kJ/mol
# Density = 2.004632 g / cm^3
# Si number density = 20.092052 Si / 1000 Ang^3
#
#
#
# Elastic Constant Matrix: (Units=GPa)
#
#
# Indices 1 2 3 4 5 6 
#
# 1 58.3388 20.0706 3.1932 0.0000 0.0000 0.0000
# 2 20.0706 81.7898 30.2295 0.0000 0.0000 0.0000
# 3 3.1932 30.2295 62.6879 0.0000 0.0000 0.0000
# 4 0.0000 0.0000 0.0000 7.7350 0.0000 0.0000
# 5 0.0000 0.0000 0.0000 0.0000 32.8877 0.0000
# 6 0.0000 0.0000 0.0000 0.0000 0.0000 23.4971
#
#
#
# Elastic Compliance Matrix: (Units=1/GPa)
#
#
# Indices 1 2 3 4 5 6 
#
# 1 0.018844 -0.005195 0.001545 0.000000 0.000000 0.000000
# 2 -0.005195 0.016311 -0.007601 0.000000 0.000000 0.000000
# 3 0.001545 -0.007601 0.019539 0.000000 0.000000 0.000000
# 4 0.000000 0.000000 0.000000 0.129283 0.000000 0.000000
# 5 0.000000 0.000000 0.000000 0.000000 0.030407 0.000000
# 6 0.000000 0.000000 0.000000 0.000000 0.000000 0.042558
#
#
# Mechanical properties :
#
#
# Convention : Reuss Voigt Hill
#
# Bulk Modulus (GPa) = 31.06370 34.42258 32.74314
# Shear Modulus (GPa) = 17.23112 22.77883 20.00498
#
# Velocity S-wave (km/s) = 2.93167 3.37073 3.15884
# Velocity P-wave (km/s) = 5.19171 5.68496 5.44392
#
# Compressibility (1/GPa) = 0.03219191
#
# Stress axis : x y z
#
# Youngs Moduli (GPa) = 53.06718 61.30992 51.18091
#
# Poissons Ratio (x) = 0.31853 -0.07910
# Poissons Ratio (y) = 0.27570 0.38901
# Poissons Ratio (z) = -0.08201 0.46600
#
# Static dielectric constant tensor:
#      x y z
#    x 1.697140 0.000000 0.000000 
#    y 0.000000 1.695460 0.000000 
#    z 0.000000 0.000000 1.711030 
# 
# From -- ./inp_files/6483.got.cif
#   From: 2010.05.17/outbox.cif.g08.bks.cpg/sg45_4_cif.got.tgz:6483.got - 2010.06.03 19:51:22.
