data_PCOD9377171
_publ_section_title
;
Structure prediction by ZEFSAII (Michael W. Deem and Ramdas Pophale) SiO2 
 PCOD9377171
Probable space group: I B A 2
;
_chemical_formula_sum "Si O2"
_cell_formula_units_Z 36
_cell_length_a 11.367422
_cell_length_b 4.917635
_cell_length_c 26.715030
_cell_angle_alpha 90.000000
_cell_angle_beta 90.000000
_cell_angle_gamma 90.000000
_cell_volume 1493.392412
_symmetry_space_group_name_H-M "I B A 2"
_symmetry_group_IT_number 45
_symmetry_cell_setting 'orthorhombic'
loop_
_space_group_symop_operation_xyz
x,y,z
-x,-y,z
-x,y,1/2+z
x,-y,1/2+z
1/2+x,1/2+y,1/2+z
1/2-x,1/2-y,1/2+z
1/2-x,1/2+y,z
1/2+x,1/2-y,z
loop_
_atom_site_type_symbol
_atom_site_label
_atom_site_fract_x
_atom_site_fract_y
_atom_site_fract_z
Si Si1 0.500000 0.500000 0.908130
Si Si2 0.500000 0.500000 0.073490
Si Si3 0.665396 0.815932 0.334441
Si Si4 0.835970 0.692125 0.723047
Si Si5 0.827830 0.766295 0.490698
Si Si6 0.000000 0.500000 0.638032
O O1 0.428064 0.712391 0.874279
O O2 0.407954 0.344121 0.943610
O O3 0.401263 0.357733 0.039172
O O4 0.553051 0.243904 0.104443
O O5 0.778632 0.614391 0.338897
O O6 0.610522 0.788729 0.278692
O O7 0.756871 0.428473 0.720114
O O8 0.920273 0.672569 0.676173
O O9 0.788982 0.453874 0.489558
#
# Coordination Sequence:
#
# PCOD9377171 Si02
#       6
#     4   4   8   8   8   4
#     4  11  24  41  70  98 128 173 220 265 320 386
#     4  11  26  41  66  98 126 169 220 269 332 386
#     4  10  23  41  62  93 130 169 210 257 315 377
#     4  10  23  41  62  92 130 168 210 260 315 375
#     4  11  25  45  66  95 132 168 214 273 330 390
#     4  12  24  42  68  98 126 170 224 268 320 386
#
# _framework density 24.106190999999999
#
# number of rings (size 3 to 8) (size 9 to 14) (size 15 to 20)
#    0.000    1.333    0.000    4.000    0.000   16.889 
#    0.000    0.000    0.000    0.000    0.000    0.000 
#    0.000    0.000    0.000    0.000    0.000    0.000 
#
# Total GULP energy -100849.662114 kJ/mol
# GULP energy per Si atom -5602.759006 kJ/mol
# Density = 2.405132 g / cm^3
# Si number density = 24.106191 Si / 1000 Ang^3
#
#
#
# Elastic Constant Matrix: (Units=GPa)
#
#
# Indices 1 2 3 4 5 6 
#
# 1 48.8876 -3.7704 37.7479 0.0000 0.0000 0.0000
# 2 -3.7704 112.3940 21.3365 0.0000 0.0000 0.0000
# 3 37.7479 21.3365 141.1615 0.0000 0.0000 0.0000
# 4 0.0000 0.0000 0.0000 35.9603 0.0000 0.0000
# 5 0.0000 0.0000 0.0000 0.0000 1.4704 0.0000
# 6 0.0000 0.0000 0.0000 0.0000 0.0000 33.4403
#
#
#
# Elastic Compliance Matrix: (Units=1/GPa)
#
#
# Indices 1 2 3 4 5 6 
#
# 1 0.026336 0.002286 -0.007388 0.000000 0.000000 0.000000
# 2 0.002286 0.009359 -0.002026 0.000000 0.000000 0.000000
# 3 -0.007388 -0.002026 0.009366 0.000000 0.000000 0.000000
# 4 0.000000 0.000000 0.000000 0.027808 0.000000 0.000000
# 5 0.000000 0.000000 0.000000 0.000000 0.680099 0.000000
# 6 0.000000 0.000000 0.000000 0.000000 0.000000 0.029904
#
#
# Mechanical properties :
#
#
# Convention : Reuss Voigt Hill
#
# Bulk Modulus (GPa) = 32.46263 45.89682 39.17973
# Shear Modulus (GPa) = 6.19275 30.64947 18.42111
#
# Velocity S-wave (km/s) = 1.60453 3.56959 2.76735
# Velocity P-wave (km/s) = 4.11442 6.00583 5.14774
#
# Compressibility (1/GPa) = 0.03080465
#
# Stress axis : x y z
#
# Youngs Moduli (GPa) = 37.97098 106.85436 106.77026
#
# Poissons Ratio (x) = -0.24427 0.78882
# Poissons Ratio (y) = -0.08680 0.21630
# Poissons Ratio (z) = 0.28053 0.21647
#
# Static dielectric constant tensor:
#      x y z
#    x 1.967740 0.000000 0.000000 
#    y 0.000000 1.858760 0.000000 
#    z 0.000000 0.000000 1.966880 
# 
# From -- ./inp_files/9395.got.cif
#   From: 2010.05.17/outbox.cif.g08.bks.cpg/sg45_5_cif.got.tgz:9395.got - 2010.06.03 19:51:22.
