data_PCOD9377654
_publ_section_title
;
Structure prediction by ZEFSAII (Michael W. Deem and Ramdas Pophale) SiO2 
 PCOD9377654
Probable space group: I B A 2
;
_chemical_formula_sum "Si O2"
_cell_formula_units_Z 52
_cell_length_a 12.850697
_cell_length_b 9.385859
_cell_length_c 20.156918
_cell_angle_alpha 90.000000
_cell_angle_beta 90.000000
_cell_angle_gamma 90.000000
_cell_volume 2431.223240
_symmetry_space_group_name_H-M "I B A 2"
_symmetry_group_IT_number 45
_symmetry_cell_setting 'orthorhombic'
loop_
_space_group_symop_operation_xyz
x,y,z
-x,-y,z
-x,y,1/2+z
x,-y,1/2+z
1/2+x,1/2+y,1/2+z
1/2-x,1/2-y,1/2+z
1/2-x,1/2+y,z
1/2+x,1/2-y,z
loop_
_atom_site_type_symbol
_atom_site_label
_atom_site_fract_x
_atom_site_fract_y
_atom_site_fract_z
Si Si1 0.406770 0.072707 0.033950
Si Si2 0.702918 0.645525 0.334938
Si Si3 0.500000 0.500000 0.271496
Si Si4 0.745952 0.047343 0.134642
Si Si5 0.903096 0.895380 0.522454
Si Si6 0.671831 0.303534 0.217570
Si Si7 0.707496 0.912802 0.423257
O O1 0.434235 0.231688 0.015769
O O2 0.500000 0.000000 0.072528
O O3 0.309703 0.055269 0.081874
O O4 0.380848 0.977092 0.970172
O O5 0.593849 0.576333 0.311654
O O6 0.767766 0.730442 0.278816
O O7 0.773673 0.518674 0.362599
O O8 0.685967 0.756559 0.395286
O O9 0.557791 0.368997 0.233119
O O10 0.850949 0.089652 0.095486
O O11 0.682487 0.186289 0.158666
O O12 0.768195 0.946802 0.196523
O O13 0.812684 0.916394 0.467732
O O14 0.000000 0.000000 0.514615
#
# Coordination Sequence:
#
# PCOD9377654 Si02
#       7
#     8   8   4   8   8   8   8
#     4  11  26  42  67 107 137 188 236 291 365 434
#     4  12  25  47  72 105 143 191 244 305 359 441
#     4  12  28  44  82 104 136 208 254 280 394 442
#     4  11  25  46  71  98 149 180 230 308 362 420
#     4  11  26  42  73 104 136 191 237 289 367 437
#     4  12  25  47  72 105 143 191 244 305 359 441
#     4  11  25  46  71  98 149 180 230 308 362 420
#
# _framework density 21.38841
#
# number of rings (size 3 to 8) (size 9 to 14) (size 15 to 20)
#    0.000    0.615    6.154    0.000    6.462    2.462 
#    0.000    1.538    0.000    0.000    0.000    0.000 
#    0.000    0.000    0.000    0.000    0.000    0.000 
#
# Total GULP energy -145176.543359 kJ/mol
# GULP energy per Si atom -5583.713206 kJ/mol
# Density = 2.133973 g / cm^3
# Si number density = 21.388410 Si / 1000 Ang^3
#
#
#
# Elastic Constant Matrix: (Units=GPa)
#
#
# Indices 1 2 3 4 5 6 
#
# 1 79.8722 36.4701 18.9379 0.0000 0.0000 0.0000
# 2 36.4701 132.5368 25.3816 0.0000 0.0000 0.0000
# 3 18.9379 25.3816 68.7394 0.0000 0.0000 0.0000
# 4 0.0000 0.0000 0.0000 34.8375 0.0000 0.0000
# 5 0.0000 0.0000 0.0000 0.0000 14.7107 0.0000
# 6 0.0000 0.0000 0.0000 0.0000 0.0000 46.7539
#
#
#
# Elastic Compliance Matrix: (Units=1/GPa)
#
#
# Indices 1 2 3 4 5 6 
#
# 1 0.014793 -0.003540 -0.002768 0.000000 0.000000 0.000000
# 2 -0.003540 0.008967 -0.002335 0.000000 0.000000 0.000000
# 3 -0.002768 -0.002335 0.016173 0.000000 0.000000 0.000000
# 4 0.000000 0.000000 0.000000 0.028705 0.000000 0.000000
# 5 0.000000 0.000000 0.000000 0.000000 0.067978 0.000000
# 6 0.000000 0.000000 0.000000 0.000000 0.000000 0.021389
#
#
# Mechanical properties :
#
#
# Convention : Reuss Voigt Hill
#
# Bulk Modulus (GPa) = 44.16182 49.19197 46.67689
# Shear Modulus (GPa) = 27.34637 32.61765 29.98201
#
# Velocity S-wave (km/s) = 3.57958 3.90938 3.74811
# Velocity P-wave (km/s) = 6.14629 6.58991 6.37196
#
# Compressibility (1/GPa) = 0.02264399
#
# Stress axis : x y z
#
# Youngs Moduli (GPa) = 67.59978 111.52565 61.83258
#
# Poissons Ratio (x) = 0.39485 0.17117
# Poissons Ratio (y) = 0.23933 0.14441
# Poissons Ratio (z) = 0.18713 0.26046
#
# Static dielectric constant tensor:
#      x y z
#    x 1.769770 0.000000 0.000000 
#    y 0.000000 1.796000 0.000000 
#    z 0.000000 0.000000 1.826890 
# 
# From -- ./inp_files/9154.got.cif
#   From: 2010.05.17/outbox.cif.g08.bks.cpg/sg45_5_cif.got.tgz:9154.got - 2010.06.03 19:51:22.
