data_PCOD9377120
_publ_section_title
;
Structure prediction by ZEFSAII (Michael W. Deem and Ramdas Pophale) SiO2 
 PCOD9377120
Probable space group: I B A 2
;
_chemical_formula_sum "Si O2"
_cell_formula_units_Z 64
_cell_length_a 13.792389
_cell_length_b 17.644320
_cell_length_c 10.935909
_cell_angle_alpha 90.000000
_cell_angle_beta 90.000000
_cell_angle_gamma 90.000000
_cell_volume 2661.333562
_symmetry_space_group_name_H-M "I B A 2"
_symmetry_group_IT_number 45
_symmetry_cell_setting 'orthorhombic'
loop_
_space_group_symop_operation_xyz
x,y,z
-x,-y,z
-x,y,1/2+z
x,-y,1/2+z
1/2+x,1/2+y,1/2+z
1/2-x,1/2-y,1/2+z
1/2-x,1/2+y,z
1/2+x,1/2-y,z
loop_
_atom_site_type_symbol
_atom_site_label
_atom_site_fract_x
_atom_site_fract_y
_atom_site_fract_z
Si Si1 0.837377 0.312631 0.964510
Si Si2 0.539823 0.421352 0.664050
Si Si3 0.888635 0.300738 0.693880
Si Si4 0.903195 0.549234 0.603430
Si Si5 0.719657 0.867914 0.295676
Si Si6 0.142498 0.852134 0.569883
Si Si7 0.245358 0.578000 0.564058
Si Si8 0.906494 0.244734 0.205643
O O1 0.859186 0.281926 0.832197
O O2 0.908471 0.381067 0.007439
O O3 0.730355 0.349950 0.974630
O O4 0.856062 0.250267 0.071200
O O5 0.500000 0.500000 0.722176
O O6 0.457070 0.398681 0.563018
O O7 0.647353 0.436223 0.613982
O O8 0.555579 0.339907 0.733488
O O9 0.880274 0.235816 0.592243
O O10 0.820836 0.369045 0.651433
O O11 0.004045 0.303211 0.705673
O O12 0.861611 0.577649 0.734289
O O13 0.816863 0.497443 0.553217
O O14 0.000000 0.500000 0.612686
O O15 0.807131 0.874317 0.199085
O O16 0.750289 0.887485 0.429895
O O17 0.672591 0.784136 0.290559
#
# Coordination Sequence:
#
# PCOD9377120 Si02
#       8
#     8   8   8   8   8   8   8   8
#     4  10  22  45  69  98 146 177 234 299 356 427
#     4  11  23  47  70  99 148 183 248 294 362 447
#     4  11  24  39  73 104 134 181 242 290 365 428
#     4  10  23  43  67 102 145 185 222 291 371 437
#     4  10  23  43  70  98 144 181 240 300 359 430
#     4   9  22  46  67  96 135 189 233 298 353 427
#     4  12  25  41  70 109 139 189 247 298 367 449
#     4   9  22  44  71 106 137 187 233 298 372 437
#
# _framework density 24.048093000000001
#
# number of rings (size 3 to 8) (size 9 to 14) (size 15 to 20)
#    0.000    2.000    0.000    4.500    8.750    0.500 
#    2.250    0.625    0.000    0.000    0.000    0.000 
#    0.000    0.000    0.000    0.000    0.000    0.000 
#
# Total GULP energy -178654.884039 kJ/mol
# GULP energy per Si atom -5582.965126 kJ/mol
# Density = 2.399336 g / cm^3
# Si number density = 24.048093 Si / 1000 Ang^3
#
#
#
# Elastic Constant Matrix: (Units=GPa)
#
#
# Indices 1 2 3 4 5 6 
#
# 1 165.3307 30.9996 8.7728 0.0000 0.0000 0.0000
# 2 30.9996 106.9408 -0.9399 0.0000 0.0000 0.0000
# 3 8.7728 -0.9399 47.9085 0.0000 0.0000 0.0000
# 4 0.0000 0.0000 0.0000 15.3203 0.0000 0.0000
# 5 0.0000 0.0000 0.0000 0.0000 11.5660 0.0000
# 6 0.0000 0.0000 0.0000 0.0000 0.0000 35.7657
#
#
#
# Elastic Compliance Matrix: (Units=1/GPa)
#
#
# Indices 1 2 3 4 5 6 
#
# 1 0.006467 -0.001885 -0.001221 0.000000 0.000000 0.000000
# 2 -0.001885 0.009902 0.000540 0.000000 0.000000 0.000000
# 3 -0.001221 0.000540 0.021107 0.000000 0.000000 0.000000
# 4 0.000000 0.000000 0.000000 0.065273 0.000000 0.000000
# 5 0.000000 0.000000 0.000000 0.000000 0.086460 0.000000
# 6 0.000000 0.000000 0.000000 0.000000 0.000000 0.027960
#
#
# Mechanical properties :
#
#
# Convention : Reuss Voigt Hill
#
# Bulk Modulus (GPa) = 30.91917 44.20500 37.56209
# Shear Modulus (GPa) = 21.45149 31.28689 26.36919
#
# Velocity S-wave (km/s) = 2.98992 3.61087 3.31496
# Velocity P-wave (km/s) = 4.98042 5.98384 5.50504
#
# Compressibility (1/GPa) = 0.03234240
#
# Stress axis : x y z
#
# Youngs Moduli (GPa) = 154.63652 100.98749 47.37694
#
# Poissons Ratio (x) = 0.19039 0.05785
# Poissons Ratio (y) = 0.29154 -0.02556
# Poissons Ratio (z) = 0.18884 -0.05448
#
# Static dielectric constant tensor:
#      x y z
#    x 1.971510 0.000000 0.000000 
#    y 0.000000 2.013940 0.000000 
#    z 0.000000 0.000000 1.855290 
# 
# From -- ./inp_files/4286.got.cif
#   From: 2010.05.17/outbox.cif.g08.bks.cpg/sg45_3_cif.got.tgz:4286.got - 2010.06.03 19:51:22.
