data_PCOD9377219
_publ_section_title
;
Structure prediction by ZEFSAII (Michael W. Deem and Ramdas Pophale) SiO2 
 PCOD9377219
Probable space group: I B A 2
;
_chemical_formula_sum "Si O2"
_cell_formula_units_Z 48
_cell_length_a 5.602724
_cell_length_b 26.497750
_cell_length_c 12.909674
_cell_angle_alpha 90.000000
_cell_angle_beta 90.000000
_cell_angle_gamma 90.000000
_cell_volume 1916.564778
_symmetry_space_group_name_H-M "I B A 2"
_symmetry_group_IT_number 45
_symmetry_cell_setting 'orthorhombic'
loop_
_space_group_symop_operation_xyz
x,y,z
-x,-y,z
-x,y,1/2+z
x,-y,1/2+z
1/2+x,1/2+y,1/2+z
1/2-x,1/2-y,1/2+z
1/2-x,1/2+y,z
1/2+x,1/2-y,z
loop_
_atom_site_type_symbol
_atom_site_label
_atom_site_fract_x
_atom_site_fract_y
_atom_site_fract_z
Si Si1 0.763939 0.126362 0.444100
Si Si2 0.002286 0.617131 0.151762
Si Si3 0.429458 0.945213 0.822562
Si Si4 0.394861 0.738183 0.963636
Si Si5 0.069160 0.274137 0.736877
Si Si6 0.142287 0.050944 0.536878
O O1 0.572290 0.132539 0.535254
O O2 0.645719 0.092398 0.355338
O O3 0.872573 0.180948 0.423125
O O4 0.960253 0.093114 0.500221
O O5 0.185135 0.586836 0.228153
O O6 0.972499 0.671523 0.202957
O O7 0.799207 0.575493 0.127757
O O8 0.294108 0.956977 0.930498
O O9 0.500000 0.000000 0.782962
O O10 0.647858 0.746512 0.018592
O O11 0.416244 0.772972 0.862224
O O12 0.349497 0.264034 0.709862
O O13 0.000000 0.000000 0.563567
#
# Coordination Sequence:
#
# PCOD9377219 Si02
#       6
#     8   8   8   8   8   8
#     4  11  26  46  73 107 152 200 251 323 395 468
#     4  11  28  44  76 111 153 202 264 327 398 478
#     4  11  24  46  72 104 146 201 254 317 396 474
#     4  10  23  43  75 104 148 202 252 311 387 467
#     4  10  23  44  70 107 153 196 256 319 383 471
#     4  11  26  49  73 106 153 197 258 328 397 475
#
# _framework density 25.044810999999999
#
# number of rings (size 3 to 8) (size 9 to 14) (size 15 to 20)
#    0.000    1.333    1.667    2.000   14.000    2.667 
#    0.000    0.000    0.000    0.000    0.000    0.000 
#    0.000    0.000    0.000    0.000    0.000    0.000 
#
# Total GULP energy -134007.927887 kJ/mol
# GULP energy per Si atom -5583.663662 kJ/mol
# Density = 2.498781 g / cm^3
# Si number density = 25.044811 Si / 1000 Ang^3
#
#
#
# Elastic Constant Matrix: (Units=GPa)
#
#
# Indices 1 2 3 4 5 6 
#
# 1 129.7654 41.4867 20.8590 0.0000 0.0000 0.0000
# 2 41.4867 163.4044 30.6950 0.0000 0.0000 0.0000
# 3 20.8590 30.6950 89.7693 0.0000 0.0000 0.0000
# 4 0.0000 0.0000 0.0000 41.0927 0.0000 0.0000
# 5 0.0000 0.0000 0.0000 0.0000 7.7353 0.0000
# 6 0.0000 0.0000 0.0000 0.0000 0.0000 16.1432
#
#
#
# Elastic Compliance Matrix: (Units=1/GPa)
#
#
# Indices 1 2 3 4 5 6 
#
# 1 0.008532 -0.001917 -0.001327 0.000000 0.000000 0.000000
# 2 -0.001917 0.006971 -0.001938 0.000000 0.000000 0.000000
# 3 -0.001327 -0.001938 0.012111 0.000000 0.000000 0.000000
# 4 0.000000 0.000000 0.000000 0.024335 0.000000 0.000000
# 5 0.000000 0.000000 0.000000 0.000000 0.129278 0.000000
# 6 0.000000 0.000000 0.000000 0.000000 0.000000 0.061946
#
#
# Mechanical properties :
#
#
# Convention : Reuss Voigt Hill
#
# Bulk Modulus (GPa) = 57.97306 63.22449 60.59877
# Shear Modulus (GPa) = 19.28366 32.32078 25.80222
#
# Velocity S-wave (km/s) = 2.77784 3.59628 3.21322
# Velocity P-wave (km/s) = 5.78675 6.52255 6.16563
#
# Compressibility (1/GPa) = 0.01724939
#
# Stress axis : x y z
#
# Youngs Moduli (GPa) = 117.20004 143.46084 82.57157
#
# Poissons Ratio (x) = 0.27501 0.10958
# Poissons Ratio (y) = 0.22467 0.16002
# Poissons Ratio (z) = 0.15554 0.27803
#
# Static dielectric constant tensor:
#      x y z
#    x 2.612820 0.000000 0.000000 
#    y 0.000000 1.898330 0.000000 
#    z 0.000000 0.000000 2.161840 
# 
# From -- ./inp_files/5184.got.cif
#   From: 2010.05.17/outbox.cif.g08.bks.cpg/sg45_3_cif.got.tgz:5184.got - 2010.06.03 19:51:22.
