data_PCOD9377894
_publ_section_title
;
Structure prediction by ZEFSAII (Michael W. Deem and Ramdas Pophale) SiO2 
 PCOD9377894
Probable space group: I M A 2
;
_chemical_formula_sum "Si O2"
_cell_formula_units_Z 64
_cell_length_a 16.944871
_cell_length_b 12.204108
_cell_length_c 18.852047
_cell_angle_alpha 90.000000
_cell_angle_beta 90.000000
_cell_angle_gamma 90.000000
_cell_volume 3898.547437
_symmetry_space_group_name_H-M "I M A 2"
_symmetry_group_IT_number 46
_symmetry_cell_setting 'orthorhombic'
loop_
_space_group_symop_operation_xyz
x,y,z
-x,-y,z
1/2-x,y,z
1/2+x,-y,z
1/2+x,1/2+y,1/2+z
1/2-x,1/2-y,1/2+z
-x,1/2+y,1/2+z
x,1/2-y,1/2+z
loop_
_atom_site_type_symbol
_atom_site_label
_atom_site_fract_x
_atom_site_fract_y
_atom_site_fract_z
Si Si1 0.423695 0.332674 0.394030
Si Si2 0.965952 0.876161 0.200064
Si Si3 0.658694 0.279565 0.497357
Si Si4 0.843948 0.403770 0.891918
Si Si5 0.840210 0.058979 0.859893
Si Si6 0.657732 0.632412 0.827614
Si Si7 0.496111 0.369368 0.543014
Si Si8 0.568946 0.266922 0.293844
O O1 0.392154 0.453764 0.377762
O O2 0.360195 0.243040 0.370191
O O3 0.450839 0.321682 0.475175
O O4 0.499229 0.307722 0.345389
O O5 0.894193 0.869466 0.255877
O O6 0.951317 0.853690 0.117320
O O7 0.029355 0.785399 0.225273
O O8 0.000000 0.000000 0.204947
O O9 0.750000 0.282979 0.524555
O O10 0.640434 0.158109 0.466269
O O11 0.657435 0.359139 0.427880
O O12 0.585765 0.321755 0.544576
O O13 0.750000 0.392985 0.881813
O O14 0.865534 0.529532 0.877875
O O15 0.887562 0.333296 0.832407
O O16 0.750000 0.026145 0.848697
O O17 0.872319 0.130138 0.793821
O O18 0.750000 0.622899 0.810790
O O19 0.500000 0.500000 0.530961
#
# Coordination Sequence:
#
# PCOD9377894 Si02
#       8
#     8   8   8   8   8   8   8   8
#     4  11  19  31  54  76 105 135 177 216 260 309
#     4  10  21  33  52  77 109 140 171 207 269 322
#     4   9  17  30  50  75 104 133 164 219 267 303
#     4   9  16  29  51  76 100 130 176 221 262 300
#     4  10  18  30  49  78 102 130 174 220 264 302
#     4  10  21  36  53  77 106 140 177 219 263 315
#     4  11  19  34  50  78 111 141 167 213 264 326
#     4  10  17  31  52  75  99 134 171 219 261 302
#
# _framework density 16.416371000000002
#
# number of rings (size 3 to 8) (size 9 to 14) (size 15 to 20)
#    0.000    2.000    5.000    1.875    0.000    0.000 
#    0.000    5.000    0.000    6.000    0.000    5.250 
#    0.000    0.000    0.000    0.000    0.000    0.000 
#
# Total GULP energy -178184.163444 kJ/mol
# GULP energy per Si atom -5568.255108 kJ/mol
# Density = 1.637901 g / cm^3
# Si number density = 16.416371 Si / 1000 Ang^3
#
#
#
# Elastic Constant Matrix: (Units=GPa)
#
#
# Indices 1 2 3 4 5 6 
#
# 1 44.5766 14.5460 22.0601 0.0000 0.0000 0.0000
# 2 14.5460 68.0137 22.8099 0.0000 0.0000 0.0000
# 3 22.0601 22.8099 70.4255 0.0000 0.0000 0.0000
# 4 0.0000 0.0000 0.0000 14.5491 0.0000 0.0000
# 5 0.0000 0.0000 0.0000 0.0000 15.4270 0.0000
# 6 0.0000 0.0000 0.0000 0.0000 0.0000 25.2160
#
#
#
# Elastic Compliance Matrix: (Units=1/GPa)
#
#
# Indices 1 2 3 4 5 6 
#
# 1 0.027201 -0.003321 -0.007445 0.000000 0.000000 0.000000
# 2 -0.003321 0.016900 -0.004434 0.000000 0.000000 0.000000
# 3 -0.007445 -0.004434 0.017967 0.000000 0.000000 0.000000
# 4 0.000000 0.000000 0.000000 0.068733 0.000000 0.000000
# 5 0.000000 0.000000 0.000000 0.000000 0.064822 0.000000
# 6 0.000000 0.000000 0.000000 0.000000 0.000000 0.039657
#
#
# Mechanical properties :
#
#
# Convention : Reuss Voigt Hill
#
# Bulk Modulus (GPa) = 31.57531 33.53863 32.55697
# Shear Modulus (GPa) = 18.10050 19.27841 18.68946
#
# Velocity S-wave (km/s) = 3.32413 3.43058 3.37777
# Velocity P-wave (km/s) = 5.83171 6.01383 5.92347
#
# Compressibility (1/GPa) = 0.03167032
#
# Stress axis : x y z
#
# Youngs Moduli (GPa) = 36.76300 59.17171 55.65625
#
# Poissons Ratio (x) = 0.19649 0.41436
# Poissons Ratio (y) = 0.12208 0.24675
# Poissons Ratio (z) = 0.27370 0.26234
#
# Static dielectric constant tensor:
#      x y z
#    x 1.579040 0.000000 0.000000 
#    y 0.000000 1.564000 0.000000 
#    z 0.000000 0.000000 1.533690 
# 
# From -- ./inp_files/19615.got.cif
#   From: 2010.05.17/outbox.cif.g08.bks.cpg/sg46_10_cif.got.tgz:19615.got - 2010.06.03 19:58:25.
