data_PCOD9377302
_publ_section_title
;
Structure prediction by ZEFSAII (Michael W. Deem and Ramdas Pophale) SiO2 
 PCOD9377302
Probable space group: I B A 2
;
_chemical_formula_sum "Si O2"
_cell_formula_units_Z 48
_cell_length_a 26.243765
_cell_length_b 8.672427
_cell_length_c 8.967347
_cell_angle_alpha 90.000000
_cell_angle_beta 90.000000
_cell_angle_gamma 90.000000
_cell_volume 2040.942496
_symmetry_space_group_name_H-M "I B A 2"
_symmetry_group_IT_number 45
_symmetry_cell_setting 'orthorhombic'
loop_
_space_group_symop_operation_xyz
x,y,z
-x,-y,z
-x,y,1/2+z
x,-y,1/2+z
1/2+x,1/2+y,1/2+z
1/2-x,1/2-y,1/2+z
1/2-x,1/2+y,z
1/2+x,1/2-y,z
loop_
_atom_site_type_symbol
_atom_site_label
_atom_site_fract_x
_atom_site_fract_y
_atom_site_fract_z
Si Si1 0.000000 0.000000 0.168180
Si Si2 0.500000 0.000000 0.250731
Si Si3 0.765896 0.443604 0.934354
Si Si4 0.102239 0.888963 0.836050
Si Si5 0.958239 0.306883 0.007877
Si Si6 0.797920 0.283204 0.237624
Si Si7 0.660123 0.507191 0.096532
O O1 0.050060 0.052493 0.261104
O O2 0.982412 0.150674 0.074799
O O3 0.509644 0.136625 0.365876
O O4 0.457775 0.063306 0.135236
O O5 0.798817 0.579811 0.859358
O O6 0.746997 0.327101 0.804304
O O7 0.789118 0.358699 0.076550
O O8 0.713179 0.505777 0.009576
O O9 0.094280 0.731923 0.926820
O O10 0.146681 0.875699 0.714589
O O11 0.118223 0.001016 0.969288
O O12 0.842197 0.160020 0.200514
#
# Coordination Sequence:
#
# PCOD9377302 Si02
#       7
#     4   4   8   8   8   8   8
#     4  12  24  42  80 102 134 204 260 296 368 440
#     4  10  24  42  70 100 144 180 252 300 378 438
#     4  12  23  44  75 105 146 187 239 290 373 460
#     4  12  25  42  70 107 144 181 254 307 351 429
#     4  11  23  43  71 104 136 193 246 302 364 440
#     4  12  23  44  75 106 139 196 234 293 376 445
#     4  12  25  42  71 109 145 181 243 318 350 423
#
# _framework density 23.518547000000002
#
# number of rings (size 3 to 8) (size 9 to 14) (size 15 to 20)
#    0.000    0.333    8.333    0.500    0.000    0.000 
#    0.000    1.667    0.000    0.000    0.000    0.000 
#    0.000    0.000    0.000    0.000    0.000    0.000 
#
# Total GULP energy -133795.513690 kJ/mol
# GULP energy per Si atom -5574.813070 kJ/mol
# Density = 2.346502 g / cm^3
# Si number density = 23.518547 Si / 1000 Ang^3
#
#
#
# Elastic Constant Matrix: (Units=GPa)
#
#
# Indices 1 2 3 4 5 6 
#
# 1 45.6873 20.9112 52.5519 0.0000 0.0000 0.0000
# 2 20.9112 93.4934 54.1704 0.0000 0.0000 0.0000
# 3 52.5519 54.1704 170.1680 0.0000 0.0000 0.0000
# 4 0.0000 0.0000 0.0000 59.2805 0.0000 0.0000
# 5 0.0000 0.0000 0.0000 0.0000 29.4149 0.0000
# 6 0.0000 0.0000 0.0000 0.0000 0.0000 24.8875
#
#
#
# Elastic Compliance Matrix: (Units=1/GPa)
#
#
# Indices 1 2 3 4 5 6 
#
# 1 0.034213 -0.001877 -0.009968 0.000000 0.000000 0.000000
# 2 -0.001877 0.013218 -0.003628 0.000000 0.000000 0.000000
# 3 -0.009968 -0.003628 0.010110 0.000000 0.000000 0.000000
# 4 0.000000 0.000000 0.000000 0.016869 0.000000 0.000000
# 5 0.000000 0.000000 0.000000 0.000000 0.033996 0.000000
# 6 0.000000 0.000000 0.000000 0.000000 0.000000 0.040181
#
#
# Mechanical properties :
#
#
# Convention : Reuss Voigt Hill
#
# Bulk Modulus (GPa) = 37.60158 62.73509 50.16833
# Shear Modulus (GPa) = 26.53953 34.83091 30.68522
#
# Velocity S-wave (km/s) = 3.36289 3.85255 3.61602
# Velocity P-wave (km/s) = 5.57687 6.82071 6.22991
#
# Compressibility (1/GPa) = 0.02659463
#
# Stress axis : x y z
#
# Youngs Moduli (GPa) = 29.22861 75.65530 98.91176
#
# Poissons Ratio (x) = 0.14197 0.98600
# Poissons Ratio (y) = 0.05485 0.35887
# Poissons Ratio (z) = 0.29136 0.27449
#
# Static dielectric constant tensor:
#      x y z
#    x 1.966380 0.000000 0.000000 
#    y 0.000000 1.998510 0.000000 
#    z 0.000000 0.000000 1.902310 
# 
# From -- ./inp_files/2748.got.cif
#   From: 2010.05.17/outbox.cif.g08.bks.cpg/sg45_2_cif.got.tgz:2748.got - 2010.06.03 19:51:22.
