data_PCOD9377877
_publ_section_title
;
Structure prediction by ZEFSAII (Michael W. Deem and Ramdas Pophale) SiO2 
 PCOD9377877
Probable space group: I M A 2
;
_chemical_formula_sum "Si O2"
_cell_formula_units_Z 40
_cell_length_a 17.481316
_cell_length_b 12.535394
_cell_length_c 9.620557
_cell_angle_alpha 90.000000
_cell_angle_beta 90.000000
_cell_angle_gamma 90.000000
_cell_volume 2108.202525
_symmetry_space_group_name_H-M "I M A 2"
_symmetry_group_IT_number 46
_symmetry_cell_setting 'orthorhombic'
loop_
_space_group_symop_operation_xyz
x,y,z
-x,-y,z
1/2-x,y,z
1/2+x,-y,z
1/2+x,1/2+y,1/2+z
1/2-x,1/2-y,1/2+z
-x,1/2+y,1/2+z
x,1/2-y,1/2+z
loop_
_atom_site_type_symbol
_atom_site_label
_atom_site_fract_x
_atom_site_fract_y
_atom_site_fract_z
Si Si1 0.483814 0.173922 0.120880
Si Si2 0.957284 0.097108 0.592683
Si Si3 0.380455 0.652637 0.829709
Si Si4 0.605587 0.389310 0.383149
Si Si5 0.333367 0.029110 0.120980
O O1 0.486223 0.302002 0.109093
O O2 0.535577 0.152056 0.256777
O O3 0.404234 0.111490 0.130013
O O4 0.534316 0.135869 0.987874
O O5 0.888450 0.127056 0.491227
O O6 0.926273 0.061982 0.741918
O O7 0.000000 0.000000 0.523144
O O8 0.356983 0.777235 0.832073
O O9 0.338308 0.563323 0.739485
O O10 0.657440 0.465731 0.475466
O O11 0.250000 0.080959 0.129432
#
# Coordination Sequence:
#
# PCOD9377877 Si02
#       5
#     8   8   8   8   8
#     4   9  18  33  52  76 102 135 182 218 256 315
#     4  10  17  29  56  80  96 122 172 237 271 290
#     4   9  18  33  54  77 100 133 180 227 259 296
#     4   9  18  33  54  77 100 133 180 227 259 296
#     4  11  21  34  52  76 113 149 172 205 262 333
#
# _framework density 18.973510000000001
#
# number of rings (size 3 to 8) (size 9 to 14) (size 15 to 20)
#    0.000    2.400    0.000    6.000    0.000    0.800 
#    0.000    1.000    0.000   30.000    0.000    0.000 
#    0.000    0.000    0.000    0.000    0.000    0.000 
#
# Total GULP energy -111368.955455 kJ/mol
# GULP energy per Si atom -5568.447773 kJ/mol
# Density = 1.893032 g / cm^3
# Si number density = 18.973510 Si / 1000 Ang^3
#
#
#
# Elastic Constant Matrix: (Units=GPa)
#
#
# Indices 1 2 3 4 5 6 
#
# 1 79.9401 29.7367 4.4504 0.0000 0.0000 0.0000
# 2 29.7367 57.9861 11.7393 0.0000 0.0000 0.0000
# 3 4.4504 11.7393 89.6950 0.0000 0.0000 0.0000
# 4 0.0000 0.0000 0.0000 23.6498 0.0000 0.0000
# 5 0.0000 0.0000 0.0000 0.0000 0.5267 0.0000
# 6 0.0000 0.0000 0.0000 0.0000 0.0000 7.6369
#
#
#
# Elastic Compliance Matrix: (Units=1/GPa)
#
#
# Indices 1 2 3 4 5 6 
#
# 1 0.015465 -0.007987 0.000278 0.000000 0.000000 0.000000
# 2 -0.007987 0.021840 -0.002462 0.000000 0.000000 0.000000
# 3 0.000278 -0.002462 0.011457 0.000000 0.000000 0.000000
# 4 0.000000 0.000000 0.000000 0.042284 0.000000 0.000000
# 5 0.000000 0.000000 0.000000 0.000000 1.898436 0.000000
# 6 0.000000 0.000000 0.000000 0.000000 0.000000 0.130943
#
#
# Mechanical properties :
#
#
# Convention : Reuss Voigt Hill
#
# Bulk Modulus (GPa) = 35.18666 35.49713 35.34190
# Shear Modulus (GPa) = 2.32532 18.47568 10.40050
#
# Velocity S-wave (km/s) = 1.10825 3.12390 2.34382
# Velocity P-wave (km/s) = 4.49700 5.63570 5.09824
#
# Compressibility (1/GPa) = 0.02841986
#
# Stress axis : x y z
#
# Youngs Moduli (GPa) = 64.66210 45.78759 87.28023
#
# Poissons Ratio (x) = 0.36571 -0.02427
# Poissons Ratio (y) = 0.51647 0.21490
# Poissons Ratio (z) = -0.01798 0.11274
#
# Static dielectric constant tensor:
#      x y z
#    x 1.696070 0.000000 0.000000 
#    y 0.000000 1.722600 0.000000 
#    z 0.000000 0.000000 1.667020 
# 
# From -- ./inp_files/5413.got.cif
#   From: 2010.05.17/outbox.cif.g08.bks.cpg/sg46_3_cif.got.tgz:5413.got - 2010.06.03 19:58:25.
