data_PCOD9377982
_publ_section_title
;
Structure prediction by ZEFSAII (Michael W. Deem and Ramdas Pophale) SiO2 
 PCOD9377982
Probable space group: I M A 2
;
_chemical_formula_sum "Si O2"
_cell_formula_units_Z 64
_cell_length_a 8.882768
_cell_length_b 27.263275
_cell_length_c 18.812132
_cell_angle_alpha 90.000000
_cell_angle_beta 90.000000
_cell_angle_gamma 90.000000
_cell_volume 4555.796966
_symmetry_space_group_name_H-M "I M A 2"
_symmetry_group_IT_number 46
_symmetry_cell_setting 'orthorhombic'
loop_
_space_group_symop_operation_xyz
x,y,z
-x,-y,z
1/2-x,y,z
1/2+x,-y,z
1/2+x,1/2+y,1/2+z
1/2-x,1/2-y,1/2+z
-x,1/2+y,1/2+z
x,1/2-y,1/2+z
loop_
_atom_site_type_symbol
_atom_site_label
_atom_site_fract_x
_atom_site_fract_y
_atom_site_fract_z
Si Si1 0.424265 0.300204 0.700440
Si Si2 0.069565 0.648277 0.243506
Si Si3 0.932058 0.743535 0.483658
Si Si4 0.069084 0.752692 0.828196
Si Si5 0.077214 0.303314 0.114973
Si Si6 0.068677 0.848074 0.068606
Si Si7 0.068189 0.552165 0.326215
Si Si8 0.069210 0.948037 0.991634
O O1 0.250000 0.313422 0.712119
O O2 0.508850 0.288349 0.773622
O O3 0.426041 0.248563 0.657293
O O4 0.506101 0.337639 0.647394
O O5 0.250000 0.647347 0.242366
O O6 0.026749 0.694500 0.293439
O O7 0.016230 0.597602 0.278192
O O8 0.012306 0.659350 0.164363
O O9 0.750000 0.740427 0.484866
O O10 0.977495 0.787991 0.536778
O O11 0.993952 0.751064 0.404981
O O12 0.000133 0.693757 0.517152
O O13 0.250000 0.750672 0.833405
O O14 0.250000 0.319466 0.110297
O O15 0.250000 0.843755 0.067873
O O16 0.025239 0.901390 0.038757
O O17 0.250000 0.549706 0.323031
O O18 0.026348 0.560847 0.408971
O O19 0.000000 0.500000 0.304637
O O20 0.250000 0.951860 0.993910
O O21 0.000000 0.000000 0.013800
#
# Coordination Sequence:
#
# PCOD9377982 Si02
#       8
#     8   8   8   8   8   8   8   8
#     4   9  17  29  42  59  83 109 137 171 207 247
#     4   9  17  28  42  58  79 106 137 170 204 239
#     4  10  19  29  41  60  85 112 140 173 208 246
#     4  10  18  28  43  62  83 110 141 173 207 246
#     4   8  16  28  40  56  79 105 135 167 201 240
#     4  10  18  29  44  61  82 111 144 176 209 248
#     4   9  17  29  41  57  80 106 136 171 206 239
#     4   9  18  30  43  59  82 109 140 177 212 245
#
# _framework density 14.048037000000001
#
# number of rings (size 3 to 8) (size 9 to 14) (size 15 to 20)
#    0.000    2.750    0.000    3.000    0.000    7.500 
#    0.000    2.500    0.000    0.000    0.000    0.000 
#    0.000    1.000    0.000    5.000    0.000    4.875 
#
# Total GULP energy -178248.111053 kJ/mol
# GULP energy per Si atom -5570.253470 kJ/mol
# Density = 1.401606 g / cm^3
# Si number density = 14.048037 Si / 1000 Ang^3
#
#
#
# Elastic Constant Matrix: (Units=GPa)
#
#
# Indices 1 2 3 4 5 6 
#
# 1 40.6334 33.1514 39.3824 0.0000 0.0000 0.0000
# 2 33.1514 95.9522 64.9256 0.0000 0.0000 0.0000
# 3 39.3824 64.9256 118.2342 0.0000 0.0000 0.0000
# 4 0.0000 0.0000 0.0000 26.2490 0.0000 0.0000
# 5 0.0000 0.0000 0.0000 0.0000 25.2798 0.0000
# 6 0.0000 0.0000 0.0000 0.0000 0.0000 20.5201
#
#
#
# Elastic Compliance Matrix: (Units=1/GPa)
#
#
# Indices 1 2 3 4 5 6 
#
# 1 0.039506 -0.007551 -0.009012 0.000000 0.000000 0.000000
# 2 -0.007551 0.018027 -0.007384 0.000000 0.000000 0.000000
# 3 -0.009012 -0.007384 0.015514 0.000000 0.000000 0.000000
# 4 0.000000 0.000000 0.000000 0.038097 0.000000 0.000000
# 5 0.000000 0.000000 0.000000 0.000000 0.039557 0.000000
# 6 0.000000 0.000000 0.000000 0.000000 0.000000 0.048733
#
#
# Mechanical properties :
#
#
# Convention : Reuss Voigt Hill
#
# Bulk Modulus (GPa) = 39.75751 58.85985 49.30868
# Shear Modulus (GPa) = 19.55316 22.23382 20.89349
#
# Velocity S-wave (km/s) = 3.73484 3.98263 3.86072
# Velocity P-wave (km/s) = 6.85283 7.94597 7.41956
#
# Compressibility (1/GPa) = 0.02515248
#
# Stress axis : x y z
#
# Youngs Moduli (GPa) = 25.31269 55.47218 64.45586
#
# Poissons Ratio (x) = 0.41887 0.58091
# Poissons Ratio (y) = 0.19114 0.47594
# Poissons Ratio (z) = 0.22813 0.40961
#
# Static dielectric constant tensor:
#      x y z
#    x 1.474720 0.000000 0.000000 
#    y 0.000000 1.444480 0.000000 
#    z 0.000000 0.000000 1.461410 
# 
# From -- ./inp_files/14717.got.cif
#   From: 2010.05.17/outbox.cif.g08.bks.cpg/sg46_8_cif.got.tgz:14717.got - 2010.06.03 19:58:25.
