data_PCOD9377207
_publ_section_title
;
Structure prediction by ZEFSAII (Michael W. Deem and Ramdas Pophale) SiO2 
 PCOD9377207
Probable space group: I B A 2
;
_chemical_formula_sum "Si O2"
_cell_formula_units_Z 48
_cell_length_a 15.062234
_cell_length_b 13.824364
_cell_length_c 11.333957
_cell_angle_alpha 90.000000
_cell_angle_beta 90.000000
_cell_angle_gamma 90.000000
_cell_volume 2360.022325
_symmetry_space_group_name_H-M "I B A 2"
_symmetry_group_IT_number 45
_symmetry_cell_setting 'orthorhombic'
loop_
_space_group_symop_operation_xyz
x,y,z
-x,-y,z
-x,y,1/2+z
x,-y,1/2+z
1/2+x,1/2+y,1/2+z
1/2-x,1/2-y,1/2+z
1/2-x,1/2+y,z
1/2+x,1/2-y,z
loop_
_atom_site_type_symbol
_atom_site_label
_atom_site_fract_x
_atom_site_fract_y
_atom_site_fract_z
Si Si1 0.163865 0.008654 0.334830
Si Si2 0.168544 0.403484 0.713774
Si Si3 0.122218 0.342776 0.453780
Si Si4 0.500000 0.000000 0.332331
Si Si5 0.128894 0.137400 0.548902
Si Si6 0.500000 0.500000 0.687059
Si Si7 0.286920 0.309069 0.285595
O O1 0.249357 0.030858 0.255079
O O2 0.172136 0.066707 0.454378
O O3 0.076247 0.044871 0.268662
O O4 0.155019 0.892862 0.349067
O O5 0.167348 0.385564 0.573029
O O6 0.076818 0.451815 0.753519
O O7 0.180865 0.301545 0.784020
O O8 0.092245 0.236005 0.493030
O O9 0.192605 0.322501 0.348778
O O10 0.047730 0.416907 0.409879
O O11 0.049271 0.079448 0.609425
O O12 0.201766 0.164089 0.647789
#
# Coordination Sequence:
#
# PCOD9377207 Si02
#       7
#     8   8   8   4   8   4   8
#     4  11  22  43  68  95 137 177 229 286 340 405
#     4  11  25  46  67 101 137 187 227 281 349 411
#     4  11  24  45  66 102 138 179 231 283 339 417
#     4  12  26  44  70 104 142 182 234 284 348 412
#     4  10  23  43  67 100 133 175 231 282 345 403
#     4  10  24  38  66 104 130 176 226 290 340 406
#     4  10  23  43  68  96 131 179 229 276 341 407
#
# _framework density 20.338789999999999
#
# number of rings (size 3 to 8) (size 9 to 14) (size 15 to 20)
#    0.000    1.333    3.333    1.000    4.667    5.333 
#    3.000    0.000    0.000    0.000    0.000    0.000 
#    0.000    0.000    0.000    0.000    0.000    0.000 
#
# Total GULP energy -133948.854638 kJ/mol
# GULP energy per Si atom -5581.202277 kJ/mol
# Density = 2.029250 g / cm^3
# Si number density = 20.338790 Si / 1000 Ang^3
#
#
#
# Elastic Constant Matrix: (Units=GPa)
#
#
# Indices 1 2 3 4 5 6 
#
# 1 119.9987 33.0105 57.1739 0.0000 0.0000 0.0000
# 2 33.0105 115.5275 52.1023 0.0000 0.0000 0.0000
# 3 57.1739 52.1023 87.7041 0.0000 0.0000 0.0000
# 4 0.0000 0.0000 0.0000 21.1634 0.0000 0.0000
# 5 0.0000 0.0000 0.0000 0.0000 27.2630 0.0000
# 6 0.0000 0.0000 0.0000 0.0000 0.0000 33.7831
#
#
#
# Elastic Compliance Matrix: (Units=1/GPa)
#
#
# Indices 1 2 3 4 5 6 
#
# 1 0.012089 0.000136 -0.007962 0.000000 0.000000 0.000000
# 2 0.000136 0.011825 -0.007114 0.000000 0.000000 0.000000
# 3 -0.007962 -0.007114 0.020819 0.000000 0.000000 0.000000
# 4 0.000000 0.000000 0.000000 0.047251 0.000000 0.000000
# 5 0.000000 0.000000 0.000000 0.000000 0.036680 0.000000
# 6 0.000000 0.000000 0.000000 0.000000 0.000000 0.029601
#
#
# Mechanical properties :
#
#
# Convention : Reuss Voigt Hill
#
# Bulk Modulus (GPa) = 67.32153 67.53375 67.42764
# Shear Modulus (GPa) = 25.89385 28.50480 27.19933
#
# Velocity S-wave (km/s) = 3.57196 3.74772 3.66090
# Velocity P-wave (km/s) = 7.08405 7.21136 7.14799
#
# Compressibility (1/GPa) = 0.01485409
#
# Stress axis : x y z
#
# Youngs Moduli (GPa) = 82.71661 84.56417 48.03382
#
# Poissons Ratio (x) = -0.01154 0.38245
# Poissons Ratio (y) = -0.01129 0.34171
# Poissons Ratio (z) = 0.65860 0.60159
#
# Static dielectric constant tensor:
#      x y z
#    x 1.698940 0.000000 0.000000 
#    y 0.000000 1.758300 0.000000 
#    z 0.000000 0.000000 1.741970 
# 
# From -- ./inp_files/4109.got.cif
#   From: 2010.05.17/outbox.cif.g08.bks.cpg/sg45_3_cif.got.tgz:4109.got - 2010.06.03 19:51:22.
