data_PCOD9377500
_publ_section_title
;
Structure prediction by ZEFSAII (Michael W. Deem and Ramdas Pophale) SiO2 
 PCOD9377500
Probable space group: I B A 2
;
_chemical_formula_sum "Si O2"
_cell_formula_units_Z 56
_cell_length_a 11.773196
_cell_length_b 17.056961
_cell_length_c 14.587654
_cell_angle_alpha 90.000000
_cell_angle_beta 90.000000
_cell_angle_gamma 90.000000
_cell_volume 2929.418936
_symmetry_space_group_name_H-M "I B A 2"
_symmetry_group_IT_number 45
_symmetry_cell_setting 'orthorhombic'
loop_
_space_group_symop_operation_xyz
x,y,z
-x,-y,z
-x,y,1/2+z
x,-y,1/2+z
1/2+x,1/2+y,1/2+z
1/2-x,1/2-y,1/2+z
1/2-x,1/2+y,z
1/2+x,1/2-y,z
loop_
_atom_site_type_symbol
_atom_site_label
_atom_site_fract_x
_atom_site_fract_y
_atom_site_fract_z
Si Si1 0.704507 0.031881 0.538930
Si Si2 0.455975 0.414029 0.536754
Si Si3 0.945604 0.380668 0.889746
Si Si4 0.071747 0.195012 0.389589
Si Si5 0.955705 0.085955 0.242579
Si Si6 0.286299 0.095513 0.389660
Si Si7 0.704195 0.031855 0.240427
O O1 0.819368 0.083306 0.541011
O O2 0.610181 0.077640 0.479130
O O3 0.738044 0.956555 0.478723
O O4 0.672266 0.999847 0.639577
O O5 0.500000 0.500000 0.503401
O O6 0.506841 0.345348 0.474929
O O7 0.500449 0.405947 0.639579
O O8 0.926882 0.288095 0.889575
O O9 0.890194 0.422506 0.800289
O O10 0.080194 0.390269 0.889958
O O11 0.202269 0.167747 0.389668
O O12 0.006941 0.154629 0.304218
O O13 0.819086 0.083271 0.238824
O O14 0.000000 0.000000 0.275767
O O15 0.262471 0.043711 0.300295
#
# Coordination Sequence:
#
# PCOD9377500 Si02
#       7
#     8   8   8   8   8   8   8
#     4  11  21  43  70  92 125 171 228 267 312 392
#     4  11  20  39  68 103 121 168 231 266 322 382
#     4  11  29  40  60 101 132 174 216 263 352 395
#     4  12  23  42  63  96 142 169 206 289 336 381
#     4  11  20  39  68 103 121 168 231 266 322 382
#     4  11  23  41  61  92 126 173 224 255 325 400
#     4  11  21  43  70  92 125 171 228 267 312 392
#
# _framework density 19.116419
#
# number of rings (size 3 to 8) (size 9 to 14) (size 15 to 20)
#    0.000    0.857    5.714    3.857    4.000    2.286 
#    5.143    2.857    0.000    0.000    0.000    0.000 
#    0.000    0.000    0.000    0.000    0.000    0.000 
#
# Total GULP energy -156417.841904 kJ/mol
# GULP energy per Si atom -5586.351497 kJ/mol
# Density = 1.907291 g / cm^3
# Si number density = 19.116419 Si / 1000 Ang^3
#
#
#
# Elastic Constant Matrix: (Units=GPa)
#
#
# Indices 1 2 3 4 5 6 
#
# 1 169.1429 37.0203 47.5763 0.0000 0.0000 0.0000
# 2 37.0203 103.4305 48.0406 0.0000 0.0000 0.0000
# 3 47.5763 48.0406 145.0465 0.0000 0.0000 0.0000
# 4 0.0000 0.0000 0.0000 11.6881 0.0000 0.0000
# 5 0.0000 0.0000 0.0000 0.0000 12.9568 0.0000
# 6 0.0000 0.0000 0.0000 0.0000 0.0000 -6.6159
#
#
#
# Elastic Compliance Matrix: (Units=1/GPa)
#
#
# Indices 1 2 3 4 5 6 
#
# 1 0.006740 -0.001637 -0.001668 0.000000 0.000000 0.000000
# 2 -0.001637 0.011824 -0.003379 0.000000 0.000000 0.000000
# 3 -0.001668 -0.003379 0.008561 0.000000 0.000000 0.000000
# 4 0.000000 0.000000 0.000000 0.085557 0.000000 0.000000
# 5 0.000000 0.000000 0.000000 0.000000 0.077179 0.000000
# 6 0.000000 0.000000 0.000000 0.000000 0.000000 -0.151150
#
#
# Mechanical properties :
#
#
# Convention : Reuss Voigt Hill
#
# Bulk Modulus (GPa) = 72.70245 75.87714 74.28980
# Shear Modulus (GPa) = 88.23789 22.60466 55.42127
#
# Velocity S-wave (km/s) = 6.80135 3.44244 5.39021
# Velocity P-wave (km/s) = 9.98959 7.45512 8.81393
#
# Compressibility (1/GPa) = 0.01375469
#
# Stress axis : x y z
#
# Youngs Moduli (GPa) = 148.37183 84.57451 116.81205
#
# Poissons Ratio (x) = 0.13848 0.19489
# Poissons Ratio (y) = 0.24295 0.39472
# Poissons Ratio (z) = 0.24754 0.28578
#
# Static dielectric constant tensor:
#      x y z
#    x 1.684220 0.000000 0.000000 
#    y 0.000000 1.631170 0.000000 
#    z 0.000000 0.000000 1.672200 
# 
# From -- ./inp_files/6167.got.cif
#   From: 2010.05.17/outbox.cif.g08.bks.cpg/sg45_4_cif.got.tgz:6167.got - 2010.06.03 19:51:22.
