data_PCOD9377387
_publ_section_title
;
Structure prediction by ZEFSAII (Michael W. Deem and Ramdas Pophale) SiO2 
 PCOD9377387
Probable space group: I B A 2
;
_chemical_formula_sum "Si O2"
_cell_formula_units_Z 40
_cell_length_a 13.973840
_cell_length_b 13.581185
_cell_length_c 8.411333
_cell_angle_alpha 90.000000
_cell_angle_beta 90.000000
_cell_angle_gamma 90.000000
_cell_volume 1596.313764
_symmetry_space_group_name_H-M "I B A 2"
_symmetry_group_IT_number 45
_symmetry_cell_setting 'orthorhombic'
loop_
_space_group_symop_operation_xyz
x,y,z
-x,-y,z
-x,y,1/2+z
x,-y,1/2+z
1/2+x,1/2+y,1/2+z
1/2-x,1/2-y,1/2+z
1/2-x,1/2+y,z
1/2+x,1/2-y,z
loop_
_atom_site_type_symbol
_atom_site_label
_atom_site_fract_x
_atom_site_fract_y
_atom_site_fract_z
Si Si1 0.545521 0.710658 0.345390
Si Si2 0.151027 0.853564 0.753707
Si Si3 0.719362 0.289889 0.601556
Si Si4 0.500000 0.000000 0.848281
Si Si5 0.500000 0.500000 0.840182
Si Si6 0.405231 0.882742 0.089823
O O1 0.441953 0.716958 0.264159
O O2 0.626046 0.709296 0.210010
O O3 0.535137 0.600583 0.423378
O O4 0.566903 0.793602 0.472559
O O5 0.227155 0.816380 0.623195
O O6 0.096578 0.959169 0.752089
O O7 0.199183 0.827293 0.923797
O O8 0.800735 0.365203 0.660145
O O9 0.523303 0.912247 0.729119
O O10 0.412658 0.973902 0.964588
#
# Coordination Sequence:
#
# PCOD9377387 Si02
#       6
#     8   8   8   4   4   8
#     4  10  24  47  75 110 158 206 262 332 414 473
#     4  10  25  45  75 113 156 210 264 324 404 485
#     4  12  24  45  77 113 150 209 265 325 393 489
#     4  10  26  48  80 110 152 210 262 342 418 474
#     4   8  24  48  72 114 162 214 244 328 416 488
#     4  11  24  48  75 115 153 205 269 336 401 491
#
# _framework density 25.057729999999999
#
# number of rings (size 3 to 8) (size 9 to 14) (size 15 to 20)
#    1.200    0.400    2.000    1.200    5.600    2.400 
#    3.600    0.000    0.000    0.000    0.000    0.000 
#    0.000    0.000    0.000    0.000    0.000    0.000 
#
# Total GULP energy -111488.300893 kJ/mol
# GULP energy per Si atom -5574.415045 kJ/mol
# Density = 2.500070 g / cm^3
# Si number density = 25.057730 Si / 1000 Ang^3
#
#
#
# Elastic Constant Matrix: (Units=GPa)
#
#
# Indices 1 2 3 4 5 6 
#
# 1 128.9681 5.8555 12.7527 0.0000 0.0000 0.0000
# 2 5.8555 103.1480 0.5670 0.0000 0.0000 0.0000
# 3 12.7527 0.5670 81.7224 0.0000 0.0000 0.0000
# 4 0.0000 0.0000 0.0000 26.6957 0.0000 0.0000
# 5 0.0000 0.0000 0.0000 0.0000 14.5798 0.0000
# 6 0.0000 0.0000 0.0000 0.0000 0.0000 43.4988
#
#
#
# Elastic Compliance Matrix: (Units=1/GPa)
#
#
# Indices 1 2 3 4 5 6 
#
# 1 0.007895 -0.000441 -0.001229 0.000000 0.000000 0.000000
# 2 -0.000441 0.009720 0.000001 0.000000 0.000000 0.000000
# 3 -0.001229 0.000001 0.012428 0.000000 0.000000 0.000000
# 4 0.000000 0.000000 0.000000 0.037459 0.000000 0.000000
# 5 0.000000 0.000000 0.000000 0.000000 0.068588 0.000000
# 6 0.000000 0.000000 0.000000 0.000000 0.000000 0.022989
#
#
# Mechanical properties :
#
#
# Convention : Reuss Voigt Hill
#
# Bulk Modulus (GPa) = 37.44536 39.13210 38.28873
# Shear Modulus (GPa) = 29.18517 36.59908 32.89212
#
# Velocity S-wave (km/s) = 3.41650 3.82591 3.62699
# Velocity P-wave (km/s) = 5.52624 5.93022 5.73179
#
# Compressibility (1/GPa) = 0.02670558
#
# Stress axis : x y z
#
# Youngs Moduli (GPa) = 126.65556 102.88215 80.46139
#
# Poissons Ratio (x) = 0.04542 0.09889
# Poissons Ratio (y) = 0.05591 -0.00012
# Poissons Ratio (z) = 0.15566 -0.00015
#
# Static dielectric constant tensor:
#      x y z
#    x 2.017630 0.000000 0.000000 
#    y 0.000000 2.137630 0.000000 
#    z 0.000000 0.000000 2.020560 
# 
# From -- ./inp_files/1642.got.cif
#   From: 2010.05.17/outbox.cif.g08.bks.cpg/sg45_1_cif.got.tgz:1642.got - 2010.06.03 19:51:22.
