data_PCOD9377903
_publ_section_title
;
Structure prediction by ZEFSAII (Michael W. Deem and Ramdas Pophale) SiO2 
 PCOD9377903
Probable space group: I M A 2
;
_chemical_formula_sum "Si O2"
_cell_formula_units_Z 32
_cell_length_a 10.727312
_cell_length_b 23.388818
_cell_length_c 4.687219
_cell_angle_alpha 90.000000
_cell_angle_beta 90.000000
_cell_angle_gamma 90.000000
_cell_volume 1176.019254
_symmetry_space_group_name_H-M "I M A 2"
_symmetry_group_IT_number 46
_symmetry_cell_setting 'orthorhombic'
loop_
_space_group_symop_operation_xyz
x,y,z
-x,-y,z
1/2-x,y,z
1/2+x,-y,z
1/2+x,1/2+y,1/2+z
1/2-x,1/2-y,1/2+z
-x,1/2+y,1/2+z
x,1/2-y,1/2+z
loop_
_atom_site_type_symbol
_atom_site_label
_atom_site_fract_x
_atom_site_fract_y
_atom_site_fract_z
Si Si1 0.250000 0.290785 0.621930
Si Si2 0.110178 0.961509 0.141981
Si Si3 0.390587 0.709666 0.940501
Si Si4 0.250000 0.036846 0.711831
Si Si5 0.547371 0.630511 0.335455
O O1 0.250000 0.231402 0.443354
O O2 0.366436 0.328823 0.528885
O O3 0.250000 0.965098 0.297319
O O4 0.053040 0.901839 0.039983
O O5 0.000000 0.000000 0.275943
O O6 0.144675 0.994088 0.853286
O O7 0.250000 0.688056 0.979050
O O8 0.403279 0.768886 0.119320
O O9 0.480339 0.665687 0.089461
O O10 0.140658 0.086236 0.680826
#
# Coordination Sequence:
#
# PCOD9377903 Si02
#       5
#     4   8   8   4   8
#     4  11  24  40  60  92 126 162 208 255 306 376
#     4   8  14  27  48  82 124 154 208 252 310 367
#     4  10  21  36  55  84 116 150 195 243 294 360
#     4   7  16  28  48  84 118 144 202 243 298 358
#     4  10  17  31  55  84 118 160 197 248 311 358
#
# _framework density 27.210439999999998
#
# number of rings (size 3 to 8) (size 9 to 14) (size 15 to 20)
#    0.750    2.000    0.000    2.250    0.000    0.000 
#    0.000    0.000    0.000    0.000    0.000  122.500 
#    0.000    0.000    0.000    0.000    0.000    0.000 
#
# Total GULP energy -89077.476076 kJ/mol
# GULP energy per Si atom -5567.342255 kJ/mol
# Density = 2.714851 g / cm^3
# Si number density = 27.210440 Si / 1000 Ang^3
#
#
#
# Elastic Constant Matrix: (Units=GPa)
#
#
# Indices 1 2 3 4 5 6 
#
# 1 206.7738 38.8328 25.0449 0.0278 -0.0035 -0.0018
# 2 38.8328 79.5905 -9.3799 0.0695 -0.0100 -0.0102
# 3 25.0449 -9.3799 90.0952 0.2023 -0.0165 -0.0246
# 4 0.0278 0.0695 0.2023 296.8846 -0.0109 -0.0409
# 5 -0.0035 -0.0100 -0.0165 -0.0109 53.4261 0.0048
# 6 -0.0018 -0.0102 -0.0246 -0.0409 0.0048 99.8737
#
#
#
# Elastic Compliance Matrix: (Units=1/GPa)
#
#
# Indices 1 2 3 4 5 6 
#
# 1 0.005619 -0.002962 -0.001870 0.000001 -0.000001 -0.000001
# 2 -0.002962 0.014282 0.002310 -0.000005 0.000003 0.000002
# 3 -0.001870 0.002310 0.011860 -0.000008 0.000004 0.000003
# 4 0.000001 -0.000005 -0.000008 0.003368 0.000001 0.000001
# 5 -0.000001 0.000003 0.000004 0.000001 0.018717 -0.000001
# 6 -0.000001 0.000002 0.000003 0.000001 -0.000001 0.010013
#
#
# Mechanical properties :
#
#
# Convention : Reuss Voigt Hill
#
# Bulk Modulus (GPa) = 37.43008 53.93944 45.68476
# Shear Modulus (GPa) = 64.26019 111.50099 87.88059
#
# Velocity S-wave (km/s) = 4.86490 6.40829 5.68918
# Velocity P-wave (km/s) = 6.73365 8.63835 7.74478
#
# Compressibility (1/GPa) = 0.02671648
#
# Stress axis : x y z
#
# Youngs Moduli (GPa) = 177.96713 70.01941 84.31809
#
# Poissons Ratio (x) = 0.20740 0.15771
# Poissons Ratio (y) = 0.52714 -0.19480
# Poissons Ratio (z) = 0.33286 -0.16176
#
# Static dielectric constant tensor:
#      x y z
#    x 2.185090 0.000050 0.000030 
#    y 0.000050 1.682070 -0.000110 
#    z 0.000030 -0.000110 2.313580 
# 
# From -- ./inp_files/661.got.cif
#   From: 2010.05.17/outbox.cif.g08.bks.cpg/sg46_1_cif.got.tgz:661.got - 2010.06.03 19:58:25.
