data_PCOD9377155
_publ_section_title
;
Structure prediction by ZEFSAII (Michael W. Deem and Ramdas Pophale) SiO2 
 PCOD9377155
Probable space group: I B A 2
;
_chemical_formula_sum "Si O2"
_cell_formula_units_Z 56
_cell_length_a 8.239887
_cell_length_b 15.326963
_cell_length_c 19.769575
_cell_angle_alpha 90.000000
_cell_angle_beta 90.000000
_cell_angle_gamma 90.000000
_cell_volume 2496.747927
_symmetry_space_group_name_H-M "I B A 2"
_symmetry_group_IT_number 45
_symmetry_cell_setting 'orthorhombic'
loop_
_space_group_symop_operation_xyz
x,y,z
-x,-y,z
-x,y,1/2+z
x,-y,1/2+z
1/2+x,1/2+y,1/2+z
1/2-x,1/2-y,1/2+z
1/2-x,1/2+y,z
1/2+x,1/2-y,z
loop_
_atom_site_type_symbol
_atom_site_label
_atom_site_fract_x
_atom_site_fract_y
_atom_site_fract_z
Si Si1 0.749037 0.834314 0.012540
Si Si2 0.814863 0.036306 0.742090
Si Si3 0.269581 0.877163 0.152735
Si Si4 0.910536 0.799345 0.156946
Si Si5 0.691880 0.525492 0.018905
Si Si6 0.737901 0.117749 0.877563
Si Si7 0.492530 0.743149 0.420902
O O1 0.832925 0.807142 0.082153
O O2 0.710063 0.935431 0.019568
O O3 0.602993 0.774119 0.988135
O O4 0.872577 0.822146 0.949810
O O5 0.820381 0.129114 0.703379
O O6 0.740419 0.053249 0.815206
O O7 0.724271 0.962911 0.698773
O O8 0.000000 0.000000 0.748701
O O9 0.396141 0.802865 0.172889
O O10 0.263725 0.911279 0.075795
O O11 0.095475 0.829944 0.160077
O O12 0.500000 0.500000 0.032974
O O13 0.711845 0.569606 0.946507
O O14 0.574092 0.171848 0.888963
O O15 0.876297 0.192318 0.869977
#
# Coordination Sequence:
#
# PCOD9377155 Si02
#       7
#     8   8   8   8   8   8   8
#     4  11  20  39  66  97 129 169 217 278 330 395
#     4  10  23  42  66  95 131 180 225 262 332 410
#     4  11  22  42  68  98 131 173 226 271 330 398
#     4  11  21  39  67  94 131 172 217 274 328 394
#     4  12  20  37  67  95 130 174 222 274 332 393
#     4  11  23  41  65  93 131 172 220 275 330 398
#     4  10  23  39  62  99 126 167 222 274 336 389
#
# _framework density 22.429175000000001
#
# number of rings (size 3 to 8) (size 9 to 14) (size 15 to 20)
#    0.000    1.143    4.286    3.429    0.000    2.857 
#    2.571    0.714    3.143    0.000    0.000    0.000 
#    0.000    0.000    0.000    0.000    0.000    0.000 
#
# Total GULP energy -156637.462196 kJ/mol
# GULP energy per Si atom -5594.195078 kJ/mol
# Density = 2.237813 g / cm^3
# Si number density = 22.429175 Si / 1000 Ang^3
#
#
#
# Elastic Constant Matrix: (Units=GPa)
#
#
# Indices 1 2 3 4 5 6 
#
# 1 24.0749 4.7090 12.3320 0.0000 0.0000 0.0000
# 2 4.7090 93.5409 37.0506 0.0000 0.0000 0.0000
# 3 12.3320 37.0506 112.8983 0.0000 0.0000 0.0000
# 4 0.0000 0.0000 0.0000 26.6760 0.0000 0.0000
# 5 0.0000 0.0000 0.0000 0.0000 10.0072 0.0000
# 6 0.0000 0.0000 0.0000 0.0000 0.0000 27.0672
#
#
#
# Elastic Compliance Matrix: (Units=1/GPa)
#
#
# Indices 1 2 3 4 5 6 
#
# 1 0.044009 -0.000358 -0.004690 0.000000 0.000000 0.000000
# 2 -0.000358 0.012291 -0.003994 0.000000 0.000000 0.000000
# 3 -0.004690 -0.003994 0.010681 0.000000 0.000000 0.000000
# 4 0.000000 0.000000 0.000000 0.037487 0.000000 0.000000
# 5 0.000000 0.000000 0.000000 0.000000 0.099928 0.000000
# 6 0.000000 0.000000 0.000000 0.000000 0.000000 0.036945
#
#
# Mechanical properties :
#
#
# Convention : Reuss Voigt Hill
#
# Bulk Modulus (GPa) = 20.45138 37.63304 29.04221
# Shear Modulus (GPa) = 18.13407 24.51157 21.32282
#
# Velocity S-wave (km/s) = 2.84650 3.30940 3.08664
# Velocity P-wave (km/s) = 4.46559 5.60517 5.06751
#
# Compressibility (1/GPa) = 0.04889645
#
# Stress axis : x y z
#
# Youngs Moduli (GPa) = 22.72248 81.36249 93.62714
#
# Poissons Ratio (x) = 0.02912 0.43908
# Poissons Ratio (y) = 0.00813 0.37399
# Poissons Ratio (z) = 0.10656 0.32500
#
# Static dielectric constant tensor:
#      x y z
#    x 1.891840 0.000000 0.000000 
#    y 0.000000 1.850310 0.000000 
#    z 0.000000 0.000000 1.797930 
# 
# From -- ./inp_files/8864.got.cif
#   From: 2010.05.17/outbox.cif.g08.bks.cpg/sg45_5_cif.got.tgz:8864.got - 2010.06.03 19:51:22.
