data_PCOD9377058
_publ_section_title
;
Structure prediction by ZEFSAII (Michael W. Deem and Ramdas Pophale) SiO2 
 PCOD9377058
Probable space group: I B A 2
;
_chemical_formula_sum "Si O2"
_cell_formula_units_Z 56
_cell_length_a 14.645492
_cell_length_b 8.456690
_cell_length_c 19.504692
_cell_angle_alpha 90.000000
_cell_angle_beta 90.000000
_cell_angle_gamma 90.000000
_cell_volume 2415.702637
_symmetry_space_group_name_H-M "I B A 2"
_symmetry_group_IT_number 45
_symmetry_cell_setting 'orthorhombic'
loop_
_space_group_symop_operation_xyz
x,y,z
-x,-y,z
-x,y,1/2+z
x,-y,1/2+z
1/2+x,1/2+y,1/2+z
1/2-x,1/2-y,1/2+z
1/2-x,1/2+y,z
1/2+x,1/2-y,z
loop_
_atom_site_type_symbol
_atom_site_label
_atom_site_fract_x
_atom_site_fract_y
_atom_site_fract_z
Si Si1 0.949471 0.329966 0.767810
Si Si2 0.260706 0.073678 0.984909
Si Si3 0.510041 0.684798 0.896842
Si Si4 0.815399 0.678351 0.885765
Si Si5 0.778496 0.152649 0.740205
Si Si6 0.113064 0.163213 0.537082
Si Si7 0.388738 0.658987 0.692262
O O1 0.923518 0.276019 0.845347
O O2 0.851561 0.297831 0.732676
O O3 0.000000 0.500000 0.763719
O O4 0.023121 0.207339 0.736346
O O5 0.232036 0.169758 0.917945
O O6 0.319475 0.936598 0.951106
O O7 0.317055 0.189335 0.032855
O O8 0.172191 0.991907 0.017622
O O9 0.500000 0.500000 0.880786
O O10 0.418036 0.770809 0.874809
O O11 0.541120 0.692496 0.975754
O O12 0.762614 0.628313 0.817308
O O13 0.688325 0.203625 0.698570
O O14 0.835898 0.998301 0.717845
O O15 0.079164 0.145659 0.613780
#
# Coordination Sequence:
#
# PCOD9377058 Si02
#       7
#     8   8   8   8   8   8   8
#     4  12  28  47  72 111 146 191 253 313 380 455
#     4  10  22  42  66 104 140 191 243 305 371 446
#     4  12  25  45  70 106 148 189 248 314 374 449
#     4  11  23  41  74 105 141 189 249 309 373 436
#     4  12  25  45  77 105 148 198 249 316 377 454
#     4  11  25  45  70 104 149 194 248 302 380 453
#     4  12  26  49  73 107 149 203 249 306 383 462
#
# _framework density 23.181661999999999
#
# number of rings (size 3 to 8) (size 9 to 14) (size 15 to 20)
#    0.000    0.571    2.857    5.571    4.000    1.143 
#    7.714    0.000    0.000    0.000    0.000    0.000 
#    0.000    0.000    0.000    0.000    0.000    0.000 
#
# Total GULP energy -156472.873558 kJ/mol
# GULP energy per Si atom -5588.316913 kJ/mol
# Density = 2.312890 g / cm^3
# Si number density = 23.181662 Si / 1000 Ang^3
#
#
#
# Elastic Constant Matrix: (Units=GPa)
#
#
# Indices 1 2 3 4 5 6 
#
# 1 106.6122 16.1423 33.4544 0.0000 0.0000 0.0000
# 2 16.1423 63.3912 20.2487 0.0000 0.0000 0.0000
# 3 33.4544 20.2487 144.5044 0.0000 0.0000 0.0000
# 4 0.0000 0.0000 0.0000 29.7235 0.0000 0.0000
# 5 0.0000 0.0000 0.0000 0.0000 30.3483 0.0000
# 6 0.0000 0.0000 0.0000 0.0000 0.0000 41.6117
#
#
#
# Elastic Compliance Matrix: (Units=1/GPa)
#
#
# Indices 1 2 3 4 5 6 
#
# 1 0.010341 -0.001956 -0.002120 0.000000 0.000000 0.000000
# 2 -0.001956 0.016884 -0.001913 0.000000 0.000000 0.000000
# 3 -0.002120 -0.001913 0.007679 0.000000 0.000000 0.000000
# 4 0.000000 0.000000 0.000000 0.033643 0.000000 0.000000
# 5 0.000000 0.000000 0.000000 0.000000 0.032951 0.000000
# 6 0.000000 0.000000 0.000000 0.000000 0.000000 0.024032
#
#
# Mechanical properties :
#
#
# Convention : Reuss Voigt Hill
#
# Bulk Modulus (GPa) = 43.61834 50.46652 47.04243
# Shear Modulus (GPa) = 34.44693 36.64754 35.54724
#
# Velocity S-wave (km/s) = 3.85899 3.98035 3.92014
# Velocity P-wave (km/s) = 6.22194 6.55298 6.38960
#
# Compressibility (1/GPa) = 0.02292614
#
# Stress axis : x y z
#
# Youngs Moduli (GPa) = 96.70035 59.22681 130.22410
#
# Poissons Ratio (x) = 0.11586 0.27608
# Poissons Ratio (y) = 0.18916 0.24912
# Poissons Ratio (z) = 0.20501 0.11330
#
# Static dielectric constant tensor:
#      x y z
#    x 1.929280 0.000000 0.000000 
#    y 0.000000 1.920180 0.000000 
#    z 0.000000 0.000000 1.902400 
# 
# From -- ./inp_files/9172.got.cif
#   From: 2010.05.17/outbox.cif.g08.bks.cpg/sg45_5_cif.got.tgz:9172.got - 2010.06.03 19:51:22.
