data_PCOD9377827
_publ_section_title
;
Structure prediction by ZEFSAII (Michael W. Deem and Ramdas Pophale) SiO2 
 PCOD9377827
Probable space group: I M A 2
;
_chemical_formula_sum "Si O2"
_cell_formula_units_Z 40
_cell_length_a 8.598777
_cell_length_b 7.838441
_cell_length_c 27.904254
_cell_angle_alpha 90.000000
_cell_angle_beta 90.000000
_cell_angle_gamma 90.000000
_cell_volume 1880.774796
_symmetry_space_group_name_H-M "I M A 2"
_symmetry_group_IT_number 46
_symmetry_cell_setting 'orthorhombic'
loop_
_space_group_symop_operation_xyz
x,y,z
-x,-y,z
1/2-x,y,z
1/2+x,-y,z
1/2+x,1/2+y,1/2+z
1/2-x,1/2-y,1/2+z
-x,1/2+y,1/2+z
x,1/2-y,1/2+z
loop_
_atom_site_type_symbol
_atom_site_label
_atom_site_fract_x
_atom_site_fract_y
_atom_site_fract_z
Si Si1 0.063484 0.695128 0.356550
Si Si2 0.436589 0.805047 0.751928
Si Si3 0.564703 0.804346 0.653594
Si Si4 0.064596 0.690688 0.055816
Si Si5 0.064669 0.190502 0.954045
O O1 0.250000 0.689345 0.361156
O O2 0.023911 0.771504 0.304236
O O3 0.000000 0.500000 0.354394
O O4 0.993213 0.777273 0.404657
O O5 0.250000 0.810108 0.747338
O O6 0.508181 0.725422 0.703845
O O7 0.500000 0.000000 0.753459
O O8 0.750000 0.809960 0.651745
O O9 0.499826 0.723352 0.604466
O O10 0.500000 0.000000 0.654898
O O11 0.250000 0.695621 0.056655
O O12 0.000000 0.500000 0.058770
O O13 0.003200 0.750558 0.004580
O O14 0.250000 0.195455 0.955617
O O15 0.000000 0.000000 0.949985
#
# Coordination Sequence:
#
# PCOD9377827 Si02
#       5
#     8   8   8   8   8
#     4   9  16  26  41  63  91 123 157 195 239 285
#     4   9  15  23  37  59  88 120 153 190 236 285
#     4  10  17  26  41  63  91 122 156 194 239 287
#     4  11  21  35  52  72  99 130 165 204 246 291
#     4  11  21  34  51  73 100 131 166 203 245 290
#
# _framework density 21.267831000000001
#
# number of rings (size 3 to 8) (size 9 to 14) (size 15 to 20)
#    0.000    2.000    0.000   10.200    0.000    2.400 
#    0.000    0.000    0.000    0.000    0.000    1.400 
#    0.000    9.600    0.000    0.000    0.000    0.000 
#
# Total GULP energy -111515.458677 kJ/mol
# GULP energy per Si atom -5575.772934 kJ/mol
# Density = 2.121942 g / cm^3
# Si number density = 21.267831 Si / 1000 Ang^3
#
#
#
# Elastic Constant Matrix: (Units=GPa)
#
#
# Indices 1 2 3 4 5 6 
#
# 1 194.8214 4.3360 112.1994 0.0000 0.0000 0.0000
# 2 4.3360 17.5015 21.6431 0.0000 0.0000 0.0000
# 3 112.1994 21.6431 300.2056 0.0000 0.0000 0.0000
# 4 0.0000 0.0000 0.0000 13.3156 0.0000 0.0000
# 5 0.0000 0.0000 0.0000 0.0000 43.4777 0.0000
# 6 0.0000 0.0000 0.0000 0.0000 0.0000 9.0313
#
#
#
# Elastic Compliance Matrix: (Units=1/GPa)
#
#
# Indices 1 2 3 4 5 6 
#
# 1 0.006579 0.001549 -0.002570 0.000000 0.000000 0.000000
# 2 0.001549 0.063095 -0.005128 0.000000 0.000000 0.000000
# 3 -0.002570 -0.005128 0.004661 0.000000 0.000000 0.000000
# 4 0.000000 0.000000 0.000000 0.075100 0.000000 0.000000
# 5 0.000000 0.000000 0.000000 0.000000 0.023000 0.000000
# 6 0.000000 0.000000 0.000000 0.000000 0.000000 0.110726
#
#
# Mechanical properties :
#
#
# Convention : Reuss Voigt Hill
#
# Bulk Modulus (GPa) = 16.11943 87.65396 51.88670
# Shear Modulus (GPa) = 15.81580 38.12158 26.96869
#
# Velocity S-wave (km/s) = 2.72995 4.23833 3.56483
# Velocity P-wave (km/s) = 4.18719 8.07806 6.43380
#
# Compressibility (1/GPa) = 0.06203694
#
# Stress axis : x y z
#
# Youngs Moduli (GPa) = 152.00422 15.84903 214.52779
#
# Poissons Ratio (x) = -0.02455 0.55143
# Poissons Ratio (y) = -0.23542 1.10003
# Poissons Ratio (z) = 0.39071 0.08127
#
# Static dielectric constant tensor:
#      x y z
#    x 1.701670 0.000000 0.000000 
#    y 0.000000 1.828930 0.000000 
#    z 0.000000 0.000000 1.951870 
# 
# From -- ./inp_files/24121.got.cif
#   From: 2010.05.17/outbox.cif.g08.bks.cpg/sg46_13_cif.got.tgz:24121.got - 2010.06.03 19:58:25.
