data_PCOD9377370
_publ_section_title
;
Structure prediction by ZEFSAII (Michael W. Deem and Ramdas Pophale) SiO2 
 PCOD9377370
Probable space group: I B A 2
;
_chemical_formula_sum "Si O2"
_cell_formula_units_Z 60
_cell_length_a 17.883812
_cell_length_b 17.743362
_cell_length_c 8.805418
_cell_angle_alpha 90.000000
_cell_angle_beta 90.000000
_cell_angle_gamma 90.000000
_cell_volume 2794.125996
_symmetry_space_group_name_H-M "I B A 2"
_symmetry_group_IT_number 45
_symmetry_cell_setting 'orthorhombic'
loop_
_space_group_symop_operation_xyz
x,y,z
-x,-y,z
-x,y,1/2+z
x,-y,1/2+z
1/2+x,1/2+y,1/2+z
1/2-x,1/2-y,1/2+z
1/2-x,1/2+y,z
1/2+x,1/2-y,z
loop_
_atom_site_type_symbol
_atom_site_label
_atom_site_fract_x
_atom_site_fract_y
_atom_site_fract_z
Si Si1 0.352447 0.974706 0.322280
Si Si2 0.735016 0.194542 0.712084
Si Si3 0.741637 0.457668 0.073901
Si Si4 0.899375 0.361068 0.398177
Si Si5 0.605142 0.567767 0.983727
Si Si6 0.852219 0.240539 0.924750
Si Si7 0.044522 0.660385 0.731172
Si Si8 0.500000 0.500000 0.227615
O O1 0.293789 0.935363 0.433564
O O2 0.417458 0.918653 0.276755
O O3 0.299576 0.000571 0.184957
O O4 0.387059 0.048935 0.400263
O O5 0.779282 0.119797 0.656948
O O6 0.680034 0.172347 0.849934
O O7 0.794041 0.250243 0.785368
O O8 0.685290 0.225113 0.574792
O O9 0.674379 0.511538 0.021918
O O10 0.931137 0.329357 0.556362
O O11 0.956645 0.344965 0.260913
O O12 0.545269 0.557644 0.120076
O O13 0.632369 0.652876 0.961474
O O14 0.561090 0.539858 0.834502
O O15 0.924728 0.279871 0.853762
#
# Coordination Sequence:
#
# PCOD9377370 Si02
#       8
#     8   8   8   8   8   8   8   4
#     4  11  22  38  67  96 131 175 228 277 326 406
#     4  11  25  44  66 101 136 181 227 286 338 414
#     4  11  22  42  68  98 130 175 231 278 333 402
#     4  11  25  43  66  94 139 185 231 272 340 405
#     4  11  24  44  70 100 129 176 223 287 335 409
#     4  12  26  43  69 100 139 178 231 282 353 399
#     4  12  25  42  64  98 140 184 221 282 339 410
#     4  10  24  46  70  96 132 170 232 278 346 394
#
# _framework density 21.473618999999999
#
# number of rings (size 3 to 8) (size 9 to 14) (size 15 to 20)
#    0.000    0.800    2.667    5.200    3.733    4.267 
#    0.000    2.667    0.000    0.000    0.000    0.000 
#    0.000    0.000    0.000    0.000    0.000    0.000 
#
# Total GULP energy -167697.715977 kJ/mol
# GULP energy per Si atom -5589.923866 kJ/mol
# Density = 2.142474 g / cm^3
# Si number density = 21.473619 Si / 1000 Ang^3
#
#
#
# Elastic Constant Matrix: (Units=GPa)
#
#
# Indices 1 2 3 4 5 6 
#
# 1 72.3265 19.7380 16.9224 0.0000 0.0000 0.0000
# 2 19.7380 69.8669 30.0003 0.0000 0.0000 0.0000
# 3 16.9224 30.0003 106.9744 0.0000 0.0000 0.0000
# 4 0.0000 0.0000 0.0000 11.9969 0.0000 0.0000
# 5 0.0000 0.0000 0.0000 0.0000 38.8836 0.0000
# 6 0.0000 0.0000 0.0000 0.0000 0.0000 19.7138
#
#
#
# Elastic Compliance Matrix: (Units=1/GPa)
#
#
# Indices 1 2 3 4 5 6 
#
# 1 0.015153 -0.003697 -0.001360 0.000000 0.000000 0.000000
# 2 -0.003697 0.017174 -0.004232 0.000000 0.000000 0.000000
# 3 -0.001360 -0.004232 0.010750 0.000000 0.000000 0.000000
# 4 0.000000 0.000000 0.000000 0.083355 0.000000 0.000000
# 5 0.000000 0.000000 0.000000 0.000000 0.025718 0.000000
# 6 0.000000 0.000000 0.000000 0.000000 0.000000 0.050726
#
#
# Mechanical properties :
#
#
# Convention : Reuss Voigt Hill
#
# Bulk Modulus (GPa) = 40.81630 42.49879 41.65754
# Shear Modulus (GPa) = 21.77504 26.28599 24.03052
#
# Velocity S-wave (km/s) = 3.18785 3.50252 3.34888
# Velocity P-wave (km/s) = 5.70953 6.01589 5.86471
#
# Compressibility (1/GPa) = 0.02450002
#
# Stress axis : x y z
#
# Youngs Moduli (GPa) = 65.99202 58.22645 93.02362
#
# Poissons Ratio (x) = 0.21525 0.12655
# Poissons Ratio (y) = 0.24396 0.39364
# Poissons Ratio (z) = 0.08977 0.24639
#
# Static dielectric constant tensor:
#      x y z
#    x 1.721650 0.000000 0.000000 
#    y 0.000000 1.757600 0.000000 
#    z 0.000000 0.000000 1.827910 
# 
# From -- ./inp_files/2161.got.cif
#   From: 2010.05.17/outbox.cif.g08.bks.cpg/sg45_2_cif.got.tgz:2161.got - 2010.06.03 19:51:22.
