data_PCOD9377729
_publ_section_title
;
Structure prediction by ZEFSAII (Michael W. Deem and Ramdas Pophale) SiO2 
 PCOD9377729
Probable space group: I B A 2
;
_chemical_formula_sum "Si O2"
_cell_formula_units_Z 36
_cell_length_a 24.413262
_cell_length_b 4.686698
_cell_length_c 9.602798
_cell_angle_alpha 90.000000
_cell_angle_beta 90.000000
_cell_angle_gamma 90.000000
_cell_volume 1098.728968
_symmetry_space_group_name_H-M "I B A 2"
_symmetry_group_IT_number 45
_symmetry_cell_setting 'orthorhombic'
loop_
_space_group_symop_operation_xyz
x,y,z
-x,-y,z
-x,y,1/2+z
x,-y,1/2+z
1/2+x,1/2+y,1/2+z
1/2-x,1/2-y,1/2+z
1/2-x,1/2+y,z
1/2+x,1/2-y,z
loop_
_atom_site_type_symbol
_atom_site_label
_atom_site_fract_x
_atom_site_fract_y
_atom_site_fract_z
Si Si1 0.323112 0.932277 0.834090
Si Si2 0.403648 0.470822 0.944796
Si Si3 0.418563 0.007253 0.641230
Si Si4 0.000000 0.000000 0.242818
Si Si5 0.251576 0.320359 0.084692
O O1 0.355587 0.640703 0.866090
O O2 0.373606 0.084099 0.757611
O O3 0.281432 0.954761 0.457809
O O4 0.279333 0.912409 0.705380
O O5 0.453988 0.378053 0.846516
O O6 0.386765 0.192244 0.029901
O O7 0.430565 0.707330 0.052645
O O8 0.466167 0.779613 0.684129
O O9 0.203214 0.075855 0.085522
#
# Coordination Sequence:
#
# PCOD9377729 Si02
#       5
#     8   8   8   4   8
#     4  12  28  54  87 134 193 255 324 399 482 584
#     4  12  29  51  85 131 183 244 316 401 486 579
#     4  12  29  53  86 132 185 245 319 403 484 582
#     4  12  30  56  90 128 180 244 318 402 496 584
#     4  12  28  50  83 126 183 254 321 393 474 569
#
# _framework density 32.765134000000003
#
# number of rings (size 3 to 8) (size 9 to 14) (size 15 to 20)
#    0.000    0.000    0.000    7.333    0.000   18.667 
#    0.000    0.000    0.000    0.000    0.000    0.000 
#    0.000    0.000    0.000    0.000    0.000    0.000 
#
# Total GULP energy -100377.666605 kJ/mol
# GULP energy per Si atom -5576.537034 kJ/mol
# Density = 3.269056 g / cm^3
# Si number density = 32.765134 Si / 1000 Ang^3
#
#
#
# Elastic Constant Matrix: (Units=GPa)
#
#
# Indices 1 2 3 4 5 6 
#
# 1 234.2400 48.1138 91.1857 0.0000 0.0000 0.0000
# 2 48.1138 295.6325 -15.7309 0.0000 0.0000 0.0000
# 3 91.1857 -15.7309 182.3864 0.0000 0.0000 0.0000
# 4 0.0000 0.0000 0.0000 28.1902 0.0000 0.0000
# 5 0.0000 0.0000 0.0000 0.0000 55.6210 0.0000
# 6 0.0000 0.0000 0.0000 0.0000 0.0000 77.8734
#
#
#
# Elastic Compliance Matrix: (Units=1/GPa)
#
#
# Indices 1 2 3 4 5 6 
#
# 1 0.005618 -0.001069 -0.002901 0.000000 0.000000 0.000000
# 2 -0.001069 0.003601 0.000845 0.000000 0.000000 0.000000
# 3 -0.002901 0.000845 0.007006 0.000000 0.000000 0.000000
# 4 0.000000 0.000000 0.000000 0.035473 0.000000 0.000000
# 5 0.000000 0.000000 0.000000 0.000000 0.017979 0.000000
# 6 0.000000 0.000000 0.000000 0.000000 0.000000 0.012841
#
#
# Mechanical properties :
#
#
# Convention : Reuss Voigt Hill
#
# Bulk Modulus (GPa) = 100.23914 106.59959 103.41936
# Shear Modulus (GPa) = 54.29261 71.58295 62.93778
#
# Velocity S-wave (km/s) = 4.07507 4.67918 4.38754
# Velocity P-wave (km/s) = 7.26645 7.86117 7.56965
#
# Compressibility (1/GPa) = 0.00997614
#
# Stress axis : x y z
#
# Youngs Moduli (GPa) = 178.00237 277.66514 142.73346
#
# Poissons Ratio (x) = 0.29673 0.41405
# Poissons Ratio (y) = 0.19023 -0.12060
# Poissons Ratio (z) = 0.51637 -0.23460
#
# Static dielectric constant tensor:
#      x y z
#    x 2.651820 0.000000 0.000000 
#    y 0.000000 3.136020 0.000000 
#    z 0.000000 0.000000 3.042470 
# 
# From -- ./inp_files/4909.got.cif
#   From: 2010.05.17/outbox.cif.g08.bks.cpg/sg45_3_cif.got.tgz:4909.got - 2010.06.03 19:51:22.
