data_PCOD9377579
_publ_section_title
;
Structure prediction by ZEFSAII (Michael W. Deem and Ramdas Pophale) SiO2 
 PCOD9377579
Probable space group: I B A 2
;
_chemical_formula_sum "Si O2"
_cell_formula_units_Z 48
_cell_length_a 9.178948
_cell_length_b 21.198435
_cell_length_c 10.793849
_cell_angle_alpha 90.000000
_cell_angle_beta 90.000000
_cell_angle_gamma 90.000000
_cell_volume 2100.259934
_symmetry_space_group_name_H-M "I B A 2"
_symmetry_group_IT_number 45
_symmetry_cell_setting 'orthorhombic'
loop_
_space_group_symop_operation_xyz
x,y,z
-x,-y,z
-x,y,1/2+z
x,-y,1/2+z
1/2+x,1/2+y,1/2+z
1/2-x,1/2-y,1/2+z
1/2-x,1/2+y,z
1/2+x,1/2-y,z
loop_
_atom_site_type_symbol
_atom_site_label
_atom_site_fract_x
_atom_site_fract_y
_atom_site_fract_z
Si Si1 0.215008 0.854156 0.367510
Si Si2 0.842000 0.737531 0.008536
Si Si3 0.467616 0.843892 0.806248
Si Si4 0.668955 0.480304 0.002374
Si Si5 0.836039 0.471778 0.256764
Si Si6 0.072867 0.788995 0.170357
O O1 0.243874 0.782170 0.412778
O O2 0.370129 0.871718 0.308017
O O3 0.180518 0.906209 0.468661
O O4 0.083151 0.844582 0.270071
O O5 0.730665 0.713827 0.109492
O O6 0.955050 0.788191 0.063148
O O7 0.919489 0.678898 0.943193
O O8 0.359304 0.896147 0.754357
O O9 0.458578 0.778814 0.731792
O O10 0.500000 0.500000 0.008943
O O11 0.749868 0.512143 0.883796
O O12 0.750327 0.492783 0.132838
O O13 0.000000 0.500000 0.259477
#
# Coordination Sequence:
#
# PCOD9377579 Si02
#       6
#     8   8   8   8   8   8
#     4  11  24  44  69 103 142 190 241 302 374 449
#     4  11  23  40  69 103 143 183 232 301 367 442
#     4  11  24  43  70 104 138 188 248 296 364 452
#     4  12  29  51  74 112 151 195 257 329 390 448
#     4  12  27  49  82 105 144 204 263 313 381 464
#     4  11  23  40  68 103 140 184 233 298 368 442
#
# _framework density 22.854316000000001
#
# number of rings (size 3 to 8) (size 9 to 14) (size 15 to 20)
#    0.000    0.667    5.000    2.000    0.000    6.667 
#    0.000    0.000    0.000    0.000    0.000    0.000 
#    0.000    0.000    0.000    0.000    0.000    0.000 
#
# Total GULP energy -134098.204392 kJ/mol
# GULP energy per Si atom -5587.425183 kJ/mol
# Density = 2.280230 g / cm^3
# Si number density = 22.854316 Si / 1000 Ang^3
#
#
#
# Elastic Constant Matrix: (Units=GPa)
#
#
# Indices 1 2 3 4 5 6 
#
# 1 66.9855 5.9090 48.9401 -0.0002 0.0006 0.0000
# 2 5.9090 60.4349 8.7949 -0.0002 0.0002 0.0000
# 3 48.9401 8.7949 117.1649 -0.0005 0.0003 -0.0002
# 4 -0.0002 -0.0002 -0.0005 32.5831 0.0001 0.0000
# 5 0.0006 0.0002 0.0003 0.0001 30.9774 0.0000
# 6 0.0000 0.0000 -0.0002 0.0000 0.0000 2.2728
#
#
#
# Elastic Compliance Matrix: (Units=1/GPa)
#
#
# Indices 1 2 3 4 5 6 
#
# 1 0.021524 -0.000805 -0.008930 0.000000 0.000000 0.000000
# 2 -0.000805 0.016760 -0.000922 0.000000 0.000000 0.000000
# 3 -0.008930 -0.000922 0.012334 0.000000 0.000000 0.000001
# 4 0.000000 0.000000 0.000000 0.030691 0.000000 0.000000
# 5 0.000000 0.000000 0.000000 0.000000 0.032282 0.000000
# 6 0.000000 0.000000 0.000001 0.000000 0.000000 0.439982
#
#
# Mechanical properties :
#
#
# Convention : Reuss Voigt Hill
#
# Bulk Modulus (GPa) = 34.12499 41.31927 37.72213
# Shear Modulus (GPa) = 8.55205 25.22942 16.89074
#
# Velocity S-wave (km/s) = 1.93652 3.32614 2.72152
# Velocity P-wave (km/s) = 4.46812 5.73320 5.13973
#
# Compressibility (1/GPa) = 0.02930404
#
# Stress axis : x y z
#
# Youngs Moduli (GPa) = 46.45949 59.66739 81.07424
#
# Poissons Ratio (x) = 0.04803 0.72401
# Poissons Ratio (y) = 0.03740 0.07474
# Poissons Ratio (z) = 0.41490 0.05500
#
# Static dielectric constant tensor:
#      x y z
#    x 1.858380 0.000000 0.000000 
#    y 0.000000 1.820840 0.000000 
#    z 0.000000 0.000000 2.142950 
# 
# From -- ./inp_files/3271.got.cif
#   From: 2010.05.17/outbox.cif.g08.bks.cpg/sg45_2_cif.got.tgz:3271.got - 2010.06.03 19:51:22.
