data_PCOD9377423
_publ_section_title
;
Structure prediction by ZEFSAII (Michael W. Deem and Ramdas Pophale) SiO2 
 PCOD9377423
Probable space group: I B A 2
;
_chemical_formula_sum "Si O2"
_cell_formula_units_Z 64
_cell_length_a 9.531752
_cell_length_b 24.286680
_cell_length_c 11.239715
_cell_angle_alpha 90.000000
_cell_angle_beta 90.000000
_cell_angle_gamma 90.000000
_cell_volume 2601.933448
_symmetry_space_group_name_H-M "I B A 2"
_symmetry_group_IT_number 45
_symmetry_cell_setting 'orthorhombic'
loop_
_space_group_symop_operation_xyz
x,y,z
-x,-y,z
-x,y,1/2+z
x,-y,1/2+z
1/2+x,1/2+y,1/2+z
1/2-x,1/2-y,1/2+z
1/2-x,1/2+y,z
1/2+x,1/2-y,z
loop_
_atom_site_type_symbol
_atom_site_label
_atom_site_fract_x
_atom_site_fract_y
_atom_site_fract_z
Si Si1 0.837321 0.494804 0.420490
Si Si2 0.534425 0.189238 0.844650
Si Si3 0.760464 0.893730 0.263712
Si Si4 0.493605 0.614879 0.423685
Si Si5 0.909839 0.745739 0.104848
Si Si6 0.148299 0.177144 0.611691
Si Si7 0.875786 0.029689 0.591100
Si Si8 0.774150 0.615986 0.332011
O O1 0.811960 0.442165 0.339306
O O2 0.738561 0.489275 0.535164
O O3 0.786775 0.550555 0.351808
O O4 0.000000 0.500000 0.451032
O O5 0.675391 0.161183 0.791933
O O6 0.467925 0.218397 0.727979
O O7 0.420355 0.141949 0.870562
O O8 0.551102 0.222631 0.970279
O O9 0.924783 0.894016 0.296934
O O10 0.774075 0.920732 0.134842
O O11 0.367988 0.646438 0.487765
O O12 0.528944 0.559285 0.491676
O O13 0.644653 0.642209 0.406143
O O14 0.744154 0.731955 0.108499
O O15 0.985760 0.804260 0.123340
O O16 0.226844 0.136051 0.701106
O O17 0.000000 0.000000 0.666716
#
# Coordination Sequence:
#
# PCOD9377423 Si02
#       8
#     8   8   8   8   8   8   8   8
#     4  11  24  45  70 103 148 200 252 309 387 466
#     4  11  26  50  74 110 148 193 252 319 384 464
#     4  12  25  43  72 102 147 195 244 317 379 463
#     4  11  24  45  69  98 145 188 248 310 383 457
#     4  11  28  47  77 107 148 191 254 312 394 460
#     4  11  26  47  73 107 146 195 246 326 382 468
#     4  11  26  41  68 106 143 196 250 312 384 471
#     4  10  25  44  70 107 148 190 252 305 383 461
#
# _framework density 24.597093000000001
#
# number of rings (size 3 to 8) (size 9 to 14) (size 15 to 20)
#    0.000    1.000    3.750    0.750   12.250    2.500 
#    0.000    0.000    0.000    0.000    0.000    0.000 
#    0.000    0.000    0.000    0.000    0.000    0.000 
#
# Total GULP energy -178287.416975 kJ/mol
# GULP energy per Si atom -5571.481780 kJ/mol
# Density = 2.454111 g / cm^3
# Si number density = 24.597093 Si / 1000 Ang^3
#
#
#
# Elastic Constant Matrix: (Units=GPa)
#
#
# Indices 1 2 3 4 5 6 
#
# 1 129.8511 1.6113 13.3343 -0.0001 -0.0001 0.0000
# 2 1.6113 47.1305 9.2767 -0.0001 -0.0001 0.0000
# 3 13.3343 9.2767 71.4439 -0.0003 0.0000 0.0001
# 4 -0.0001 -0.0001 -0.0003 19.8569 0.0000 0.0000
# 5 -0.0001 -0.0001 0.0000 0.0000 33.0462 0.0000
# 6 0.0000 0.0000 0.0001 0.0000 0.0000 38.9719
#
#
#
# Elastic Compliance Matrix: (Units=1/GPa)
#
#
# Indices 1 2 3 4 5 6 
#
# 1 0.007852 0.000021 -0.001468 0.000000 0.000000 0.000000
# 2 0.000021 0.021774 -0.002831 0.000000 0.000000 0.000000
# 3 -0.001468 -0.002831 0.014639 0.000000 0.000000 0.000000
# 4 0.000000 0.000000 0.000000 0.050360 0.000000 0.000000
# 5 0.000000 0.000000 0.000000 0.000000 0.030261 0.000000
# 6 0.000000 0.000000 0.000000 0.000000 0.000000 0.025659
#
#
# Mechanical properties :
#
#
# Convention : Reuss Voigt Hill
#
# Bulk Modulus (GPa) = 28.00563 32.98555 30.49559
# Shear Modulus (GPa) = 29.23897 33.32190 31.28043
#
# Velocity S-wave (km/s) = 3.45152 3.68463 3.56998
# Velocity P-wave (km/s) = 5.22441 5.61618 5.42383
#
# Compressibility (1/GPa) = 0.03570711
#
# Stress axis : x y z
#
# Youngs Moduli (GPa) = 127.36213 45.92587 68.31246
#
# Poissons Ratio (x) = -0.00094 0.10029
# Poissons Ratio (y) = -0.00261 0.19340
# Poissons Ratio (z) = 0.18698 0.13002
#
# Static dielectric constant tensor:
#      x y z
#    x 1.946580 0.000000 0.000000 
#    y 0.000000 2.039430 0.000000 
#    z 0.000000 0.000000 2.125990 
# 
# From -- ./inp_files/3422.got.cif
#   From: 2010.05.17/outbox.cif.g08.bks.cpg/sg45_2_cif.got.tgz:3422.got - 2010.06.03 19:51:22.
