data_PCOD9377453
_publ_section_title
;
Structure prediction by ZEFSAII (Michael W. Deem and Ramdas Pophale) SiO2 
 PCOD9377453
Probable space group: I B A 2
;
_chemical_formula_sum "Si O2"
_cell_formula_units_Z 64
_cell_length_a 22.333358
_cell_length_b 9.675346
_cell_length_c 13.687355
_cell_angle_alpha 90.000000
_cell_angle_beta 90.000000
_cell_angle_gamma 90.000000
_cell_volume 2957.604265
_symmetry_space_group_name_H-M "I B A 2"
_symmetry_group_IT_number 45
_symmetry_cell_setting 'orthorhombic'
loop_
_space_group_symop_operation_xyz
x,y,z
-x,-y,z
-x,y,1/2+z
x,-y,1/2+z
1/2+x,1/2+y,1/2+z
1/2-x,1/2-y,1/2+z
1/2-x,1/2+y,z
1/2+x,1/2-y,z
loop_
_atom_site_type_symbol
_atom_site_label
_atom_site_fract_x
_atom_site_fract_y
_atom_site_fract_z
Si Si1 0.512746 0.339378 0.310540
Si Si2 0.353997 0.708801 0.274807
Si Si3 0.383224 0.950034 0.123684
Si Si4 0.766646 0.539070 0.016606
Si Si5 0.020777 0.646728 0.466838
Si Si6 0.558617 0.226685 0.640568
Si Si7 0.173076 0.093189 0.686855
Si Si8 0.766376 0.210315 0.380563
O O1 0.500000 0.500000 0.316369
O O2 0.582427 0.310082 0.327867
O O3 0.469387 0.257721 0.383659
O O4 0.496134 0.282442 0.204288
O O5 0.361791 0.832735 0.197565
O O6 0.338491 0.564987 0.220297
O O7 0.300562 0.748870 0.346842
O O8 0.324887 0.016229 0.073054
O O9 0.425180 0.883995 0.040322
O O10 0.419605 0.074580 0.173591
O O11 0.720933 0.593470 0.098946
O O12 0.788410 0.661467 0.945148
O O13 0.736442 0.422710 0.950180
O O14 0.000000 0.500000 0.423515
O O15 0.966223 0.703871 0.532463
O O16 0.612245 0.334477 0.651809
O O17 0.197686 0.174593 0.782026
#
# Coordination Sequence:
#
# PCOD9377453 Si02
#       8
#     8   8   8   8   8   8   8   8
#     4  12  27  46  72 106 144 194 236 294 363 429
#     4  12  26  47  71 103 144 191 237 299 361 426
#     4  11  25  45  75 102 143 188 236 299 358 426
#     4  12  27  46  75 105 144 192 239 299 371 427
#     4  10  26  45  70 107 139 184 243 292 355 432
#     4  11  26  48  71 103 140 190 239 295 360 420
#     4  12  27  49  73 103 149 191 242 301 362 437
#     4  12  28  46  70 111 143 187 248 297 362 442
#
# _framework density 21.639137000000002
#
# number of rings (size 3 to 8) (size 9 to 14) (size 15 to 20)
#    0.000    0.500    5.000    1.500   12.250    1.500 
#    0.000    0.000    0.000    0.000    0.000    0.000 
#    0.000    0.000    0.000    0.000    0.000    0.000 
#
# Total GULP energy -179104.229332 kJ/mol
# GULP energy per Si atom -5597.007167 kJ/mol
# Density = 2.158989 g / cm^3
# Si number density = 21.639137 Si / 1000 Ang^3
#
#
#
# Elastic Constant Matrix: (Units=GPa)
#
#
# Indices 1 2 3 4 5 6 
#
# 1 63.4973 -30.4591 -2.4676 0.0000 0.0000 0.0000
# 2 -30.4591 75.0585 21.5428 0.0000 0.0000 0.0000
# 3 -2.4676 21.5428 52.3060 0.0000 0.0000 0.0000
# 4 0.0000 0.0000 0.0000 25.4973 0.0000 0.0000
# 5 0.0000 0.0000 0.0000 0.0000 13.1155 0.0000
# 6 0.0000 0.0000 0.0000 0.0000 0.0000 29.9587
#
#
#
# Elastic Compliance Matrix: (Units=1/GPa)
#
#
# Indices 1 2 3 4 5 6 
#
# 1 0.019887 0.008847 -0.002705 0.000000 0.000000 0.000000
# 2 0.008847 0.019045 -0.007426 0.000000 0.000000 0.000000
# 3 -0.002705 -0.007426 0.022049 0.000000 0.000000 0.000000
# 4 0.000000 0.000000 0.000000 0.039220 0.000000 0.000000
# 5 0.000000 0.000000 0.000000 0.000000 0.076246 0.000000
# 6 0.000000 0.000000 0.000000 0.000000 0.000000 0.033379
#
#
# Mechanical properties :
#
#
# Convention : Reuss Voigt Hill
#
# Bulk Modulus (GPa) = 17.11999 18.67711 17.89855
# Shear Modulus (GPa) = 21.56418 27.19734 24.38076
#
# Velocity S-wave (km/s) = 3.16022 3.54907 3.36027
# Velocity P-wave (km/s) = 4.60920 5.04425 4.83162
#
# Compressibility (1/GPa) = 0.05841126
#
# Stress axis : x y z
#
# Youngs Moduli (GPa) = 50.28325 52.50854 45.35304
#
# Poissons Ratio (x) = -0.46454 0.12270
# Poissons Ratio (y) = -0.44485 0.33681
# Poissons Ratio (z) = 0.13604 0.38995
#
# Static dielectric constant tensor:
#      x y z
#    x 1.780730 0.000000 0.000000 
#    y 0.000000 1.766180 0.000000 
#    z 0.000000 0.000000 1.761360 
# 
# From -- ./inp_files/5856.got.cif
#   From: 2010.05.17/outbox.cif.g08.bks.cpg/sg45_3_cif.got.tgz:5856.got - 2010.06.03 19:51:22.
