data_PCOD9377539
_publ_section_title
;
Structure prediction by ZEFSAII (Michael W. Deem and Ramdas Pophale) SiO2 
 PCOD9377539
Probable space group: I B A 2
;
_chemical_formula_sum "Si O2"
_cell_formula_units_Z 48
_cell_length_a 8.596916
_cell_length_b 29.696173
_cell_length_c 8.134072
_cell_angle_alpha 90.000000
_cell_angle_beta 90.000000
_cell_angle_gamma 90.000000
_cell_volume 2076.592017
_symmetry_space_group_name_H-M "I B A 2"
_symmetry_group_IT_number 45
_symmetry_cell_setting 'orthorhombic'
loop_
_space_group_symop_operation_xyz
x,y,z
-x,-y,z
-x,y,1/2+z
x,-y,1/2+z
1/2+x,1/2+y,1/2+z
1/2-x,1/2-y,1/2+z
1/2-x,1/2+y,z
1/2+x,1/2-y,z
loop_
_atom_site_type_symbol
_atom_site_label
_atom_site_fract_x
_atom_site_fract_y
_atom_site_fract_z
Si Si1 0.788997 0.033972 0.711120
Si Si2 0.877218 0.385003 0.327671
Si Si3 0.287949 0.697000 0.198559
Si Si4 0.709370 0.139042 0.198167
Si Si5 0.620880 0.279077 0.828000
Si Si6 0.876274 0.943212 0.839338
O O1 0.646859 0.063081 0.779035
O O2 0.824967 0.047757 0.524991
O O3 0.940833 0.047925 0.817378
O O4 0.784104 0.980258 0.730143
O O5 0.766294 0.354368 0.212843
O O6 0.825121 0.375072 0.512425
O O7 0.052198 0.369114 0.299427
O O8 0.442985 0.706974 0.302421
O O9 0.151988 0.728087 0.273638
O O10 0.325270 0.711165 0.012925
O O11 0.772108 0.189422 0.212862
O O12 0.837108 0.106161 0.276662
#
# Coordination Sequence:
#
# PCOD9377539 Si02
#       6
#     8   8   8   8   8   8
#     4  11  22  40  64  93 125 164 208 257 310 369
#     4  12  25  43  64  92 126 165 208 257 310 369
#     4  12  25  44  67  95 127 165 207 255 308 367
#     4  12  25  43  64  92 126 165 208 257 310 369
#     4  12  25  44  67  95 127 165 207 255 308 367
#     4  11  22  40  64  93 125 164 208 257 310 369
#
# _framework density 23.114796999999999
#
# number of rings (size 3 to 8) (size 9 to 14) (size 15 to 20)
#    0.000    0.333    0.000   12.000    0.000    0.667 
#    0.000    3.333    0.000    0.000    0.000    0.000 
#    0.000    0.000    0.000    0.000    0.000    0.000 
#
# Total GULP energy -134576.076054 kJ/mol
# GULP energy per Si atom -5607.336502 kJ/mol
# Density = 2.306219 g / cm^3
# Si number density = 23.114797 Si / 1000 Ang^3
#
#
#
# Elastic Constant Matrix: (Units=GPa)
#
#
# Indices 1 2 3 4 5 6 
#
# 1 60.8296 -0.6041 -34.2966 0.0001 -0.0001 -0.0002
# 2 -0.6041 68.4205 -10.6768 0.0005 0.0000 -0.0002
# 3 -34.2966 -10.6768 102.0456 -0.0014 0.0017 0.0002
# 4 0.0001 0.0005 -0.0014 31.8825 0.0001 -0.0005
# 5 -0.0001 0.0000 0.0017 0.0001 20.5879 0.0002
# 6 -0.0002 -0.0002 0.0002 -0.0005 0.0002 16.2702
#
#
#
# Elastic Compliance Matrix: (Units=1/GPa)
#
#
# Indices 1 2 3 4 5 6 
#
# 1 0.020391 0.001270 0.006986 0.000000 0.000000 0.000000
# 2 0.001270 0.014937 0.001990 0.000000 0.000000 0.000000
# 3 0.006986 0.001990 0.012356 0.000000 -0.000001 0.000000
# 4 0.000000 0.000000 0.000000 0.031365 0.000000 0.000001
# 5 0.000000 0.000000 -0.000001 0.000000 0.048572 0.000000
# 6 0.000000 0.000000 0.000000 0.000001 0.000000 0.061462
#
#
# Mechanical properties :
#
#
# Convention : Reuss Voigt Hill
#
# Bulk Modulus (GPa) = 14.66797 15.57119 15.11958
# Shear Modulus (GPa) = 26.13470 32.20632 29.17051
#
# Velocity S-wave (km/s) = 3.36616 3.73677 3.55630
# Velocity P-wave (km/s) = 4.63330 5.03677 4.83924
#
# Compressibility (1/GPa) = 0.06817576
#
# Stress axis : x y z
#
# Youngs Moduli (GPa) = 49.04164 66.94692 80.93445
#
# Poissons Ratio (x) = -0.08504 -0.56541
# Poissons Ratio (y) = -0.06229 -0.16104
# Poissons Ratio (z) = -0.34261 -0.13321
#
# Static dielectric constant tensor:
#      x y z
#    x 1.823130 0.000000 0.000000 
#    y 0.000000 1.820470 0.000000 
#    z 0.000000 0.000000 1.837100 
# 
# From -- ./inp_files/1053.got.cif
#   From: 2010.05.17/outbox.cif.g08.bks.cpg/sg45_1_cif.got.tgz:1053.got - 2010.06.03 19:51:22.
