data_PCOD9377669
_publ_section_title
;
Structure prediction by ZEFSAII (Michael W. Deem and Ramdas Pophale) SiO2 
 PCOD9377669
Probable space group: I B A 2
;
_chemical_formula_sum "Si O2"
_cell_formula_units_Z 28
_cell_length_a 7.745990
_cell_length_b 12.405623
_cell_length_c 12.111387
_cell_angle_alpha 90.000000
_cell_angle_beta 90.000000
_cell_angle_gamma 90.000000
_cell_volume 1163.829584
_symmetry_space_group_name_H-M "I B A 2"
_symmetry_group_IT_number 45
_symmetry_cell_setting 'orthorhombic'
loop_
_space_group_symop_operation_xyz
x,y,z
-x,-y,z
-x,y,1/2+z
x,-y,1/2+z
1/2+x,1/2+y,1/2+z
1/2-x,1/2-y,1/2+z
1/2-x,1/2+y,z
1/2+x,1/2-y,z
loop_
_atom_site_type_symbol
_atom_site_label
_atom_site_fract_x
_atom_site_fract_y
_atom_site_fract_z
Si Si1 0.823536 0.567042 0.810420
Si Si2 0.844450 0.824938 0.096629
Si Si3 0.008353 0.371058 0.017711
Si Si4 0.500000 0.500000 0.952918
O O1 0.731681 0.620300 0.705992
O O2 0.669525 0.505637 0.875976
O O3 0.000000 0.500000 0.783776
O O4 0.894975 0.648660 0.902982
O O5 0.902606 0.702099 0.110740
O O6 0.683990 0.828868 0.013988
O O7 0.988097 0.898047 0.036310
O O8 0.000000 0.500000 0.034694
#
# Coordination Sequence:
#
# PCOD9377669 Si02
#       4
#     8   8   8   4
#     4  11  25  50  79 117 165 217 273 344 419 496
#     4  12  26  47  82 113 164 219 277 341 423 491
#     4  11  25  50  74 118 163 211 274 346 402 503
#     4  12  24  50  80 124 160 210 284 342 410 512
#
# _framework density 24.058505
#
# number of rings (size 3 to 8) (size 9 to 14) (size 15 to 20)
#    0.000    0.571    5.714    3.429    0.000    4.571 
#   10.286    0.000    0.000    0.000    0.000    0.000 
#    0.000    0.000    0.000    0.000    0.000    0.000 
#
# Total GULP energy -78170.013053 kJ/mol
# GULP energy per Si atom -5583.572361 kJ/mol
# Density = 2.400375 g / cm^3
# Si number density = 24.058505 Si / 1000 Ang^3
#
#
#
# Elastic Constant Matrix: (Units=GPa)
#
#
# Indices 1 2 3 4 5 6 
#
# 1 113.0693 66.2792 48.1359 0.0000 0.0000 0.0000
# 2 66.2792 163.6836 62.5421 0.0000 0.0000 0.0000
# 3 48.1359 62.5421 147.9165 0.0000 0.0000 0.0000
# 4 0.0000 0.0000 0.0000 35.1822 0.0000 0.0000
# 5 0.0000 0.0000 0.0000 0.0000 39.5859 0.0000
# 6 0.0000 0.0000 0.0000 0.0000 0.0000 47.9099
#
#
#
# Elastic Compliance Matrix: (Units=1/GPa)
#
#
# Indices 1 2 3 4 5 6 
#
# 1 0.012190 -0.004079 -0.002242 0.000000 0.000000 0.000000
# 2 -0.004079 0.008652 -0.002331 0.000000 0.000000 0.000000
# 3 -0.002242 -0.002331 0.008476 0.000000 0.000000 0.000000
# 4 0.000000 0.000000 0.000000 0.028423 0.000000 0.000000
# 5 0.000000 0.000000 0.000000 0.000000 0.025262 0.000000
# 6 0.000000 0.000000 0.000000 0.000000 0.000000 0.020873
#
#
# Mechanical properties :
#
#
# Convention : Reuss Voigt Hill
#
# Bulk Modulus (GPa) = 83.24172 86.50932 84.87552
# Shear Modulus (GPa) = 39.94157 41.04975 40.49566
#
# Velocity S-wave (km/s) = 4.07896 4.13516 4.10715
# Velocity P-wave (km/s) = 7.54047 7.67042 7.60572
#
# Compressibility (1/GPa) = 0.01201321
#
# Stress axis : x y z
#
# Youngs Moduli (GPa) = 82.03558 115.58521 117.98542
#
# Poissons Ratio (x) = 0.47150 0.26453
# Poissons Ratio (y) = 0.33464 0.27497
# Poissons Ratio (z) = 0.18393 0.26938
#
# Static dielectric constant tensor:
#      x y z
#    x 1.953950 0.000000 0.000000 
#    y 0.000000 1.972420 0.000000 
#    z 0.000000 0.000000 1.964690 
# 
# From -- ./inp_files/5344.got.cif
#   From: 2010.05.17/outbox.cif.g08.bks.cpg/sg45_3_cif.got.tgz:5344.got - 2010.06.03 19:51:22.
