data_PCOD9377745
_publ_section_title
;
Structure prediction by ZEFSAII (Michael W. Deem and Ramdas Pophale) SiO2 
 PCOD9377745
Probable space group: I B A 2
;
_chemical_formula_sum "Si O2"
_cell_formula_units_Z 30
_cell_length_a 9.000000
_cell_length_b 27.000000
_cell_length_c 12.000000
_cell_angle_alpha 90.000000
_cell_angle_beta 90.000000
_cell_angle_gamma 90.000000
_cell_volume 2916.000000
_symmetry_space_group_name_H-M "I B A 2"
_symmetry_group_IT_number 45
_symmetry_cell_setting 'orthorhombic'
loop_
_space_group_symop_operation_xyz
x,y,z
-x,-y,z
-x,y,1/2+z
x,-y,1/2+z
1/2+x,1/2+y,1/2+z
1/2-x,1/2-y,1/2+z
1/2-x,1/2+y,z
1/2+x,1/2-y,z
loop_
_atom_site_type_symbol
_atom_site_label
_atom_site_fract_x
_atom_site_fract_y
_atom_site_fract_z
Si Si1 0.210013 0.077119 0.908860
Si Si2 0.042922 0.174422 0.823900
Si Si3 0.414698 0.922633 0.621789
Si Si4 0.214560 0.530472 0.673851
Si Si5 0.000000 0.000000 0.038005
Si Si6 0.137939 0.756191 0.128275
Si Si7 0.795146 0.334442 0.276929
Si Si8 0.602694 0.226809 0.968595
O O1 0.142323 0.129288 0.868193
O O2 0.269150 0.048952 0.799887
O O3 0.337364 0.085160 0.001872
O O4 0.085944 0.041358 0.965221
O O5 0.090645 0.197037 0.703378
O O6 0.065550 0.221913 0.904702
O O7 0.873073 0.155426 0.816535
O O8 0.591344 0.933593 0.616940
O O9 0.365918 0.878106 0.703640
O O10 0.346875 0.974324 0.668265
O O11 0.374163 0.527369 0.612695
O O12 0.221080 0.716328 0.205408
O O13 0.235554 0.771304 0.022942
O O14 0.002919 0.725387 0.075233
O O15 0.899103 0.317712 0.380271
#
# Coordination Sequence:
#
# PCOD9377745 Si02
#       8
#     8   8   8   8   4   8   8   8
#     4  11  25  44  72 100 140 186 228 292 364 424
#     4  11  25  41  68  99 135 178 235 286 352 435
#     4  10  25  46  70 103 144 179 232 296 356 426
#     4  10  24  47  70 103 140 180 238 289 353 432
#     4  10  24  44  74 104 138 186 236 290 352 432
#     4  11  23  43  67  95 139 179 232 287 349 419
#     4  11  24  42  69 101 133 181 235 288 351 434
#     4  11  23  43  66  95 134 182 223 291 352 415
#
# _framework density 10.288066000000001
#
# number of rings (size 3 to 8) (size 9 to 14) (size 15 to 20)
#    0.000    1.333    2.667    1.200    5.600    7.467 
#    2.400    0.000    0.000    0.000    0.000    0.000 
#    0.000    0.000    0.000    0.000    0.000    0.000 
#
# Total GULP energy -167667.040779 kJ/mol
# GULP energy per Si atom -5588.901359 kJ/mol
# Density = 1.026465 g / cm^3
# Si number density = 10.288066 Si / 1000 Ang^3
#
#
#
# Elastic Constant Matrix: (Units=GPa)
#
#
# Indices 1 2 3 4 5 6 
#
# 1 130.1807 43.1618 64.9318 0.0000 0.0000 0.0001
# 2 43.1618 87.4969 54.1804 0.0000 0.0001 0.0001
# 3 64.9318 54.1804 123.9207 -0.0001 0.0002 0.0003
# 4 0.0000 0.0000 -0.0001 46.3514 0.0000 0.0000
# 5 0.0000 0.0001 0.0002 0.0000 33.3573 0.0000
# 6 0.0001 0.0001 0.0003 0.0000 0.0000 19.8498
#
#
#
# Elastic Compliance Matrix: (Units=1/GPa)
#
#
# Indices 1 2 3 4 5 6 
#
# 1 0.010783 -0.002496 -0.004559 0.000000 0.000000 0.000000
# 2 -0.002496 0.016250 -0.005797 0.000000 0.000000 0.000000
# 3 -0.004559 -0.005797 0.012993 0.000000 0.000000 0.000000
# 4 0.000000 0.000000 0.000000 0.021574 0.000000 0.000000
# 5 0.000000 0.000000 0.000000 0.000000 0.029978 0.000000
# 6 0.000000 0.000000 0.000000 0.000000 0.000000 0.050378
#
#
# Mechanical properties :
#
#
# Convention : Reuss Voigt Hill
#
# Bulk Modulus (GPa) = 69.82145 74.01625 71.91885
# Shear Modulus (GPa) = 28.99653 31.86665 30.43159
#
# Velocity S-wave (km/s) = 3.75805 3.93965 3.84992
# Velocity P-wave (km/s) = 7.26894 7.53289 7.40209
#
# Compressibility (1/GPa) = 0.01432225
#
# Stress axis : x y z
#
# Youngs Moduli (GPa) = 92.73779 61.53886 76.96619
#
# Poissons Ratio (x) = 0.15363 0.35086
# Poissons Ratio (y) = 0.23151 0.44615
# Poissons Ratio (z) = 0.42276 0.35672
#
# Static dielectric constant tensor:
#      x y z
#    x 1.784500 0.000000 0.000000 
#    y 0.000000 1.686800 0.000000 
#    z 0.000000 0.000000 1.744990 
# 
# From -- ./inp_files/3360.got.cif
#   From: 2010.05.17/outbox.ucp.g08.bks.cvg/sg45_2_cif.got.tgz:3360.got - 2010.06.11 16:34:12.
