data_PCOD9377509
_publ_section_title
;
Structure prediction by ZEFSAII (Michael W. Deem and Ramdas Pophale) SiO2 
 PCOD9377509
Probable space group: I B A 2
;
_chemical_formula_sum "Si O2"
_cell_formula_units_Z 32
_cell_length_a 21.984440
_cell_length_b 10.600010
_cell_length_c 5.000188
_cell_angle_alpha 90.000000
_cell_angle_beta 90.000000
_cell_angle_gamma 90.000000
_cell_volume 1165.220230
_symmetry_space_group_name_H-M "I B A 2"
_symmetry_group_IT_number 45
_symmetry_cell_setting 'orthorhombic'
loop_
_space_group_symop_operation_xyz
x,y,z
-x,-y,z
-x,y,1/2+z
x,-y,1/2+z
1/2+x,1/2+y,1/2+z
1/2-x,1/2-y,1/2+z
1/2-x,1/2+y,z
1/2+x,1/2-y,z
loop_
_atom_site_type_symbol
_atom_site_label
_atom_site_fract_x
_atom_site_fract_y
_atom_site_fract_z
Si Si1 0.425984 0.437147 0.840870
Si Si2 0.325583 0.171981 0.143836
Si Si3 0.457889 0.159108 0.027966
Si Si4 0.805392 0.849919 0.150380
O O1 0.446470 0.450107 0.533843
O O2 0.354193 0.442831 0.780686
O O3 0.440851 0.307323 0.986574
O O4 0.391841 0.107199 0.122059
O O5 0.262643 0.096863 0.183724
O O6 0.324331 0.282090 0.371519
O O7 0.311905 0.233267 0.856842
O O8 0.509823 0.132415 0.245798
#
# Coordination Sequence:
#
# PCOD9377509 Si02
#       4
#     8   8   8   8
#     4  11  21  32  45  65  94 127 160 190 223 274
#     4   9  17  31  49  66  86 116 156 203 248 278
#     4  11  21  32  45  65  94 127 160 190 223 274
#     4   9  17  31  49  66  86 116 156 203 248 278
#
# _framework density 27.462617000000002
#
# number of rings (size 3 to 8) (size 9 to 14) (size 15 to 20)
#    0.000    2.000    0.000    7.500    0.000    3.000 
#    0.000    0.000    0.000    0.000    0.000    0.000 
#    0.000    6.000    0.000    0.000    0.000    0.000 
#
# Total GULP energy -89315.204079 kJ/mol
# GULP energy per Si atom -5582.200255 kJ/mol
# Density = 2.740011 g / cm^3
# Si number density = 27.462617 Si / 1000 Ang^3
#
#
#
# Elastic Constant Matrix: (Units=GPa)
#
#
# Indices 1 2 3 4 5 6 
#
# 1 247.7227 22.7241 7.6430 0.0000 0.0000 0.0000
# 2 22.7241 56.4442 51.8714 0.0000 0.0000 0.0000
# 3 7.6430 51.8714 151.0400 0.0000 0.0000 0.0000
# 4 0.0000 0.0000 0.0000 -16.9710 0.0000 0.0000
# 5 0.0000 0.0000 0.0000 0.0000 39.5861 0.0000
# 6 0.0000 0.0000 0.0000 0.0000 0.0000 26.2453
#
#
#
# Elastic Compliance Matrix: (Units=1/GPa)
#
#
# Indices 1 2 3 4 5 6 
#
# 1 0.004222 -0.002196 0.000541 0.000000 0.000000 0.000000
# 2 -0.002196 0.027029 -0.009172 0.000000 0.000000 0.000000
# 3 0.000541 -0.009172 0.009743 0.000000 0.000000 0.000000
# 4 0.000000 0.000000 0.000000 -0.058924 0.000000 0.000000
# 5 0.000000 0.000000 0.000000 0.000000 0.025261 0.000000
# 6 0.000000 0.000000 0.000000 0.000000 0.000000 0.038102
#
#
# Mechanical properties :
#
#
# Convention : Reuss Voigt Hill
#
# Bulk Modulus (GPa) = 51.70750 68.85377 60.28064
# Shear Modulus (GPa) = 67.99513 34.63665 51.31589
#
# Velocity S-wave (km/s) = 4.98126 3.55523 4.32739
# Velocity P-wave (km/s) = 7.20785 6.47913 6.85318
#
# Compressibility (1/GPa) = 0.01933955
#
# Stress axis : x y z
#
# Youngs Moduli (GPa) = 236.87821 36.99672 102.63603
#
# Poissons Ratio (x) = 0.08126 -0.05550
# Poissons Ratio (y) = 0.52030 0.94133
# Poissons Ratio (z) = -0.12808 0.33932
#
# Static dielectric constant tensor:
#      x y z
#    x 2.248460 0.000000 0.000000 
#    y 0.000000 2.167240 0.000000 
#    z 0.000000 0.000000 2.081510 
# 
# From -- ./inp_files/12.got.cif
#   From: 2010.05.17/outbox.cif.g08.bks.cpg/sg45_1_cif.got.tgz:12.got - 2010.06.03 19:51:22.
