data_PCOD9377567
_publ_section_title
;
Structure prediction by ZEFSAII (Michael W. Deem and Ramdas Pophale) SiO2 
 PCOD9377567
Probable space group: I B A 2
;
_chemical_formula_sum "Si O2"
_cell_formula_units_Z 44
_cell_length_a 8.771305
_cell_length_b 14.250650
_cell_length_c 16.648851
_cell_angle_alpha 90.000000
_cell_angle_beta 90.000000
_cell_angle_gamma 90.000000
_cell_volume 2081.053059
_symmetry_space_group_name_H-M "I B A 2"
_symmetry_group_IT_number 45
_symmetry_cell_setting 'orthorhombic'
loop_
_space_group_symop_operation_xyz
x,y,z
-x,-y,z
-x,y,1/2+z
x,-y,1/2+z
1/2+x,1/2+y,1/2+z
1/2-x,1/2-y,1/2+z
1/2-x,1/2+y,z
1/2+x,1/2-y,z
loop_
_atom_site_type_symbol
_atom_site_label
_atom_site_fract_x
_atom_site_fract_y
_atom_site_fract_z
Si Si1 0.998077 0.823537 0.055180
Si Si2 0.729292 0.457789 0.144924
Si Si3 0.677151 0.682969 0.783726
Si Si4 0.360040 0.661791 0.713478
Si Si5 0.000000 0.500000 0.527092
Si Si6 0.693029 0.833830 0.461038
O O1 0.899171 0.908880 0.089774
O O2 0.069251 0.781337 0.137517
O O3 0.891603 0.754141 0.003756
O O4 0.146583 0.852339 0.005476
O O5 0.749015 0.392026 0.222419
O O6 0.683232 0.559741 0.179429
O O7 0.872969 0.461305 0.087292
O O8 0.496574 0.660703 0.778868
O O9 0.714952 0.784925 0.747738
O O10 0.757692 0.679516 0.869409
O O11 0.078910 0.579835 0.474019
#
# Coordination Sequence:
#
# PCOD9377567 Si02
#       6
#     8   8   8   8   4   8
#     4  11  22  46  70 100 140 187 242 286 362 423
#     4  11  26  46  74 101 140 193 248 294 349 447
#     4  11  25  44  68 102 145 184 233 297 368 415
#     4  11  23  46  72 102 134 195 241 291 357 441
#     4  12  26  44  70 108 140 190 250 290 354 438
#     4  12  25  44  70 110 145 189 233 308 368 422
#
# _framework density 21.143141
#
# number of rings (size 3 to 8) (size 9 to 14) (size 15 to 20)
#    0.000    0.727    1.818    7.636    2.545    0.727 
#   13.091    0.000    0.000    0.000    0.000    0.000 
#    0.000    0.000    0.000    0.000    0.000    0.000 
#
# Total GULP energy -122953.226685 kJ/mol
# GULP energy per Si atom -5588.783031 kJ/mol
# Density = 2.109502 g / cm^3
# Si number density = 21.143141 Si / 1000 Ang^3
#
#
#
# Elastic Constant Matrix: (Units=GPa)
#
#
# Indices 1 2 3 4 5 6 
#
# 1 104.0515 45.1059 56.7616 0.0000 0.0000 0.0000
# 2 45.1059 123.5312 79.4157 0.0000 0.0000 0.0000
# 3 56.7616 79.4157 114.9116 0.0000 0.0000 0.0000
# 4 0.0000 0.0000 0.0000 4.1039 0.0000 0.0000
# 5 0.0000 0.0000 0.0000 0.0000 27.9914 0.0000
# 6 0.0000 0.0000 0.0000 0.0000 0.0000 22.7687
#
#
#
# Elastic Compliance Matrix: (Units=1/GPa)
#
#
# Indices 1 2 3 4 5 6 
#
# 1 0.013243 -0.001134 -0.005758 0.000000 0.000000 0.000000
# 2 -0.001134 0.014664 -0.009575 0.000000 0.000000 0.000000
# 3 -0.005758 -0.009575 0.018164 0.000000 0.000000 0.000000
# 4 0.000000 0.000000 0.000000 0.243672 0.000000 0.000000
# 5 0.000000 0.000000 0.000000 0.000000 0.035725 0.000000
# 6 0.000000 0.000000 0.000000 0.000000 0.000000 0.043920
#
#
# Mechanical properties :
#
#
# Convention : Reuss Voigt Hill
#
# Bulk Modulus (GPa) = 76.11290 78.34007 77.22648
# Shear Modulus (GPa) = 12.29405 21.72021 17.00713
#
# Velocity S-wave (km/s) = 2.41398 3.20862 2.83924
# Velocity P-wave (km/s) = 6.62169 7.13160 6.88137
#
# Compressibility (1/GPa) = 0.01313838
#
# Stress axis : x y z
#
# Youngs Moduli (GPa) = 75.51035 68.19224 55.05546
#
# Poissons Ratio (x) = 0.07733 0.31701
# Poissons Ratio (y) = 0.08562 0.52713
# Poissons Ratio (z) = 0.43478 0.65291
#
# Static dielectric constant tensor:
#      x y z
#    x 1.817350 0.000000 0.000000 
#    y 0.000000 1.780760 0.000000 
#    z 0.000000 0.000000 1.763500 
# 
# From -- ./inp_files/7518.got.cif
#   From: 2010.05.17/outbox.cif.g08.bks.cpg/sg45_4_cif.got.tgz:7518.got - 2010.06.03 19:51:22.
