data_PCOD9377360
_publ_section_title
;
Structure prediction by ZEFSAII (Michael W. Deem and Ramdas Pophale) SiO2 
 PCOD9377360
Probable space group: I B A 2
;
_chemical_formula_sum "Si O2"
_cell_formula_units_Z 40
_cell_length_a 14.535315
_cell_length_b 7.622938
_cell_length_c 14.323745
_cell_angle_alpha 90.000000
_cell_angle_beta 90.000000
_cell_angle_gamma 90.000000
_cell_volume 1587.096801
_symmetry_space_group_name_H-M "I B A 2"
_symmetry_group_IT_number 45
_symmetry_cell_setting 'orthorhombic'
loop_
_space_group_symop_operation_xyz
x,y,z
-x,-y,z
-x,y,1/2+z
x,-y,1/2+z
1/2+x,1/2+y,1/2+z
1/2-x,1/2-y,1/2+z
1/2-x,1/2+y,z
1/2+x,1/2-y,z
loop_
_atom_site_type_symbol
_atom_site_label
_atom_site_fract_x
_atom_site_fract_y
_atom_site_fract_z
Si Si1 0.346903 0.897410 0.402630
Si Si2 0.280211 0.230374 0.716955
Si Si3 0.401929 0.582048 0.719489
Si Si4 0.515530 0.211945 0.546163
Si Si5 0.676190 0.239120 0.009514
O O1 0.339753 0.873628 0.293141
O O2 0.426175 0.784234 0.451323
O O3 0.252549 0.845460 0.455610
O O4 0.359376 0.091270 0.439386
O O5 0.330993 0.418010 0.714254
O O6 0.284453 0.169120 0.608758
O O7 0.176120 0.220666 0.756571
O O8 0.500000 0.500000 0.757119
O O9 0.567561 0.308153 0.629040
O O10 0.421121 0.320200 0.536694
O O11 0.500000 0.000000 0.569008
#
# Coordination Sequence:
#
# PCOD9377360 Si02
#       5
#     8   8   8   8   8
#     4  11  25  45  71 107 148 205 267 332 405 490
#     4  12  26  46  77 112 155 213 278 339 418 490
#     4  12  26  46  77 114 157 215 269 343 408 491
#     4  10  24  45  74 108 149 204 263 329 417 482
#     4  11  23  45  70 102 154 199 257 337 400 485
#
# _framework density 25.203251999999999
#
# number of rings (size 3 to 8) (size 9 to 14) (size 15 to 20)
#    0.000    0.800    4.000    2.400    2.800    1.600 
#    0.000    8.000    0.000    0.000    0.000    0.000 
#    0.000    0.000    0.000    0.000    0.000    0.000 
#
# Total GULP energy -111501.383502 kJ/mol
# GULP energy per Si atom -5575.069175 kJ/mol
# Density = 2.514589 g / cm^3
# Si number density = 25.203252 Si / 1000 Ang^3
#
#
#
# Elastic Constant Matrix: (Units=GPa)
#
#
# Indices 1 2 3 4 5 6 
#
# 1 167.3912 17.2182 -7.0250 0.0000 0.0000 0.0000
# 2 17.2182 86.9042 27.3608 0.0000 0.0000 0.0000
# 3 -7.0250 27.3608 117.3621 0.0000 0.0000 0.0000
# 4 0.0000 0.0000 0.0000 30.7795 0.0000 0.0000
# 5 0.0000 0.0000 0.0000 0.0000 19.4157 0.0000
# 6 0.0000 0.0000 0.0000 0.0000 0.0000 31.8773
#
#
#
# Elastic Compliance Matrix: (Units=1/GPa)
#
#
# Indices 1 2 3 4 5 6 
#
# 1 0.006152 -0.001440 0.000704 0.000000 0.000000 0.000000
# 2 -0.001440 0.012756 -0.003060 0.000000 0.000000 0.000000
# 3 0.000704 -0.003060 0.009276 0.000000 0.000000 0.000000
# 4 0.000000 0.000000 0.000000 0.032489 0.000000 0.000000
# 5 0.000000 0.000000 0.000000 0.000000 0.051505 0.000000
# 6 0.000000 0.000000 0.000000 0.000000 0.000000 0.031370
#
#
# Mechanical properties :
#
#
# Convention : Reuss Voigt Hill
#
# Bulk Modulus (GPa) = 48.56543 49.64060 49.10302
# Shear Modulus (GPa) = 31.64474 38.68808 35.16641
#
# Velocity S-wave (km/s) = 3.54726 3.92221 3.73944
# Velocity P-wave (km/s) = 6.00739 6.34433 6.17816
#
# Compressibility (1/GPa) = 0.02059078
#
# Stress axis : x y z
#
# Youngs Moduli (GPa) = 162.55539 78.39620 107.80323
#
# Poissons Ratio (x) = 0.11293 -0.07590
# Poissons Ratio (y) = 0.23416 0.32988
# Poissons Ratio (z) = -0.11445 0.23989
#
# Static dielectric constant tensor:
#      x y z
#    x 2.195190 0.000000 0.000000 
#    y 0.000000 2.140580 0.000000 
#    z 0.000000 0.000000 1.968970 
# 
# From -- ./inp_files/6392.got.cif
#   From: 2010.05.17/outbox.cif.g08.bks.cpg/sg45_4_cif.got.tgz:6392.got - 2010.06.03 19:51:22.
