data_PCOD9377743
_publ_section_title
;
Structure prediction by ZEFSAII (Michael W. Deem and Ramdas Pophale) SiO2 
 PCOD9377743
Probable space group: I B A 2
;
_chemical_formula_sum "Si O2"
_cell_formula_units_Z 28
_cell_length_a 15.000000
_cell_length_b 21.000000
_cell_length_c 9.000000
_cell_angle_alpha 90.000000
_cell_angle_beta 90.000000
_cell_angle_gamma 90.000000
_cell_volume 2835.000000
_symmetry_space_group_name_H-M "I B A 2"
_symmetry_group_IT_number 45
_symmetry_cell_setting 'orthorhombic'
loop_
_space_group_symop_operation_xyz
x,y,z
-x,-y,z
-x,y,1/2+z
x,-y,1/2+z
1/2+x,1/2+y,1/2+z
1/2-x,1/2-y,1/2+z
1/2-x,1/2+y,z
1/2+x,1/2-y,z
loop_
_atom_site_type_symbol
_atom_site_label
_atom_site_fract_x
_atom_site_fract_y
_atom_site_fract_z
Si Si1 0.937729 0.440900 0.406780
Si Si2 0.522501 0.578484 0.616032
Si Si3 0.716220 0.409993 0.965381
Si Si4 0.883453 0.862301 0.403596
Si Si5 0.750020 0.469126 0.285153
Si Si6 0.868516 0.293553 0.924812
Si Si7 0.483622 0.151440 0.657419
O O1 0.847265 0.470546 0.352046
O O2 0.928749 0.389813 0.538223
O O3 0.000000 0.500000 0.451142
O O4 0.974295 0.400351 0.268268
O O5 0.500000 0.500000 0.627657
O O6 0.610607 0.594589 0.512954
O O7 0.550210 0.614868 0.768459
O O8 0.436421 0.613082 0.547836
O O9 0.751825 0.448580 0.111871
O O10 0.714916 0.459943 0.826787
O O11 0.781364 0.345139 0.941934
O O12 0.801942 0.910916 0.367976
O O13 0.857976 0.785686 0.418612
O O14 0.919258 0.308617 0.768071
O O15 0.938519 0.312171 0.060112
#
# Coordination Sequence:
#
# PCOD9377743 Si02
#       7
#     8   8   8   8   8   8   8
#     4  11  22  37  62  93 128 178 225 276 334 407
#     4  11  23  47  74 104 137 183 240 305 354 412
#     4  11  25  42  70  98 144 172 235 292 352 417
#     4  11  25  45  72 100 136 182 233 290 358 423
#     4  11  24  43  64 100 130 180 230 289 342 418
#     4  11  23  47  64 103 139 183 226 285 354 429
#     4  10  22  40  63  89 137 179 220 274 341 420
#
# _framework density 9.8765429999999999
#
# number of rings (size 3 to 8) (size 9 to 14) (size 15 to 20)
#    0.000    1.143    2.857    3.429    6.000    0.000 
#   10.286    0.000    0.000    0.000    0.000    0.000 
#    0.000    0.000    0.000    0.000    0.000    0.000 
#
# Total GULP energy -155909.630531 kJ/mol
# GULP energy per Si atom -5568.201090 kJ/mol
# Density = 0.985406 g / cm^3
# Si number density = 9.876543 Si / 1000 Ang^3
#
#
#
# Elastic Constant Matrix: (Units=GPa)
#
#
# Indices 1 2 3 4 5 6 
#
# 1 58.8672 16.7383 2.8498 0.0000 0.0000 0.0000
# 2 16.7383 153.9653 17.1013 0.0000 0.0000 0.0000
# 3 2.8498 17.1013 73.7948 0.0000 0.0000 0.0000
# 4 0.0000 0.0000 0.0000 35.5665 0.0000 0.0000
# 5 0.0000 0.0000 0.0000 0.0000 25.3772 0.0000
# 6 0.0000 0.0000 0.0000 0.0000 0.0000 37.1047
#
#
#
# Elastic Compliance Matrix: (Units=1/GPa)
#
#
# Indices 1 2 3 4 5 6 
#
# 1 0.017533 -0.001879 -0.000242 0.000000 0.000000 0.000000
# 2 -0.001879 0.006868 -0.001519 0.000000 0.000000 0.000000
# 3 -0.000242 -0.001519 0.013912 0.000000 0.000000 0.000000
# 4 0.000000 0.000000 0.000000 0.028116 0.000000 0.000000
# 5 0.000000 0.000000 0.000000 0.000000 0.039406 0.000000
# 6 0.000000 0.000000 0.000000 0.000000 0.000000 0.026951
#
#
# Mechanical properties :
#
#
# Convention : Reuss Voigt Hill
#
# Bulk Modulus (GPa) = 32.22269 40.00068 36.11169
# Shear Modulus (GPa) = 33.24225 36.27220 34.75722
#
# Velocity S-wave (km/s) = 4.10675 4.28983 4.19929
# Velocity P-wave (km/s) = 6.23180 6.69561 6.46787
#
# Compressibility (1/GPa) = 0.03103403
#
# Stress axis : x y z
#
# Youngs Moduli (GPa) = 57.03384 145.60277 71.87809
#
# Poissons Ratio (x) = 0.27363 0.01737
# Poissons Ratio (y) = 0.10718 0.10918
# Poissons Ratio (z) = 0.01378 0.22117
#
# Static dielectric constant tensor:
#      x y z
#    x 1.765350 0.000000 0.000000 
#    y 0.000000 1.700740 0.000000 
#    z 0.000000 0.000000 1.759450 
# 
# From -- ./inp_files/1814.got.cif
#   From: 2010.05.17/outbox.ucp.g08.bks.cvg/sg45_1_cif.got.tgz:1814.got - 2010.06.11 16:34:12.
