data_PCOD9377319
_publ_section_title
;
Structure prediction by ZEFSAII (Michael W. Deem and Ramdas Pophale) SiO2 
 PCOD9377319
Probable space group: I B A 2
;
_chemical_formula_sum "Si O2"
_cell_formula_units_Z 56
_cell_length_a 15.074680
_cell_length_b 11.747591
_cell_length_c 14.970322
_cell_angle_alpha 90.000000
_cell_angle_beta 90.000000
_cell_angle_gamma 90.000000
_cell_volume 2651.111915
_symmetry_space_group_name_H-M "I B A 2"
_symmetry_group_IT_number 45
_symmetry_cell_setting 'orthorhombic'
loop_
_space_group_symop_operation_xyz
x,y,z
-x,-y,z
-x,y,1/2+z
x,-y,1/2+z
1/2+x,1/2+y,1/2+z
1/2-x,1/2-y,1/2+z
1/2-x,1/2+y,z
1/2+x,1/2-y,z
loop_
_atom_site_type_symbol
_atom_site_label
_atom_site_fract_x
_atom_site_fract_y
_atom_site_fract_z
Si Si1 0.276486 0.044759 0.334520
Si Si2 0.721023 0.448060 0.660750
Si Si3 0.368808 0.244442 0.248881
Si Si4 0.635381 0.997641 0.518795
Si Si5 0.983160 0.338937 0.105100
Si Si6 0.406092 0.436909 0.389387
Si Si7 0.425955 0.597303 0.090513
O O1 0.295057 0.171144 0.299610
O O2 0.344771 0.019476 0.414693
O O3 0.283564 0.965391 0.246678
O O4 0.176634 0.018365 0.366643
O O5 0.673438 0.326801 0.673183
O O6 0.775953 0.464553 0.571360
O O7 0.648898 0.550393 0.657202
O O8 0.437676 0.156670 0.203196
O O9 0.408587 0.332935 0.319811
O O10 0.562434 0.916698 0.566619
O O11 0.598628 0.124033 0.540699
O O12 0.025025 0.214285 0.108504
O O13 0.500000 0.500000 0.385596
O O14 0.389905 0.393894 0.489764
O O15 0.500000 0.500000 0.091090
#
# Coordination Sequence:
#
# PCOD9377319 Si02
#       7
#     8   8   8   8   8   8   8
#     4  11  24  47  70 101 149 185 248 307 361 451
#     4  11  24  43  71 101 142 185 245 304 375 440
#     4  11  24  43  69 109 137 194 248 298 372 433
#     4  11  25  49  67 105 145 195 242 301 379 440
#     4  11  25  44  73 100 146 192 240 299 370 444
#     4  10  24  43  69 106 142 187 246 301 362 437
#     4  11  22  45  70 101 141 190 240 304 361 440
#
# _framework density 21.123211000000001
#
# number of rings (size 3 to 8) (size 9 to 14) (size 15 to 20)
#    0.000    1.143    4.286    0.857    6.000    0.000 
#   23.143    0.000    0.000    0.000    0.000    0.000 
#    0.000    0.000    0.000    0.000    0.000    0.000 
#
# Total GULP energy -156122.774304 kJ/mol
# GULP energy per Si atom -5575.813368 kJ/mol
# Density = 2.107513 g / cm^3
# Si number density = 21.123211 Si / 1000 Ang^3
#
#
#
# Elastic Constant Matrix: (Units=GPa)
#
#
# Indices 1 2 3 4 5 6 
#
# 1 54.4055 26.3539 42.8887 0.0000 0.0000 0.0000
# 2 26.3539 72.2474 20.3100 0.0000 0.0000 0.0000
# 3 42.8887 20.3100 106.6370 0.0000 0.0000 0.0000
# 4 0.0000 0.0000 0.0000 10.0068 0.0000 0.0000
# 5 0.0000 0.0000 0.0000 0.0000 30.7578 0.0000
# 6 0.0000 0.0000 0.0000 0.0000 0.0000 33.7244
#
#
#
# Elastic Compliance Matrix: (Units=1/GPa)
#
#
# Indices 1 2 3 4 5 6 
#
# 1 0.030941 -0.008229 -0.010877 0.000000 0.000000 0.000000
# 2 -0.008229 0.016813 0.000107 0.000000 0.000000 0.000000
# 3 -0.010877 0.000107 0.013732 0.000000 0.000000 0.000000
# 4 0.000000 0.000000 0.000000 0.099932 0.000000 0.000000
# 5 0.000000 0.000000 0.000000 0.000000 0.032512 0.000000
# 6 0.000000 0.000000 0.000000 0.000000 0.000000 0.029652
#
#
# Mechanical properties :
#
#
# Convention : Reuss Voigt Hill
#
# Bulk Modulus (GPa) = 42.57337 45.82168 44.19753
# Shear Modulus (GPa) = 18.55917 24.48026 21.51971
#
# Velocity S-wave (km/s) = 2.96736 3.40800 3.19528
# Velocity P-wave (km/s) = 5.65145 6.10128 5.88066
#
# Compressibility (1/GPa) = 0.02348886
#
# Stress axis : x y z
#
# Youngs Moduli (GPa) = 32.31956 59.47860 72.82354
#
# Poissons Ratio (x) = 0.48943 0.79210
# Poissons Ratio (y) = 0.26595 -0.00782
# Poissons Ratio (z) = 0.35154 -0.00639
#
# Static dielectric constant tensor:
#      x y z
#    x 1.821610 0.000000 0.000000 
#    y 0.000000 1.789200 0.000000 
#    z 0.000000 0.000000 1.768550 
# 
# From -- ./inp_files/6184.got.cif
#   From: 2010.05.17/outbox.cif.g08.bks.cpg/sg45_4_cif.got.tgz:6184.got - 2010.06.03 19:51:22.
