data_PCOD9377312
_publ_section_title
;
Structure prediction by ZEFSAII (Michael W. Deem and Ramdas Pophale) SiO2 
 PCOD9377312
Probable space group: I B A 2
;
_chemical_formula_sum "Si O2"
_cell_formula_units_Z 28
_cell_length_a 9.224876
_cell_length_b 14.337917
_cell_length_c 8.413381
_cell_angle_alpha 90.000000
_cell_angle_beta 90.000000
_cell_angle_gamma 90.000000
_cell_volume 1112.800099
_symmetry_space_group_name_H-M "I B A 2"
_symmetry_group_IT_number 45
_symmetry_cell_setting 'orthorhombic'
loop_
_space_group_symop_operation_xyz
x,y,z
-x,-y,z
-x,y,1/2+z
x,-y,1/2+z
1/2+x,1/2+y,1/2+z
1/2-x,1/2-y,1/2+z
1/2-x,1/2+y,z
1/2+x,1/2-y,z
loop_
_atom_site_type_symbol
_atom_site_label
_atom_site_fract_x
_atom_site_fract_y
_atom_site_fract_z
Si Si1 0.410107 0.713308 0.915150
Si Si2 0.781107 0.555537 0.548041
Si Si3 0.695977 0.657786 0.063594
Si Si4 0.000000 0.500000 0.792263
O O1 0.337790 0.632916 0.024793
O O2 0.354367 0.696182 0.735644
O O3 0.580390 0.697581 0.936537
O O4 0.349959 0.805871 0.999135
O O5 0.706454 0.454204 0.565491
O O6 0.884930 0.555516 0.395424
O O7 0.897002 0.565673 0.688160
#
# Coordination Sequence:
#
# PCOD9377312 Si02
#       4
#     8   8   8   4
#     4  12  29  47  74 105 144 187 237 293 354 421
#     4  11  25  46  74 102 146 184 236 286 358 410
#     4  12  29  47  74 105 144 187 237 293 354 421
#     4  10  24  42  78 106 136 184 238 290 348 422
#
# _framework density 25.161752
#
# number of rings (size 3 to 8) (size 9 to 14) (size 15 to 20)
#    0.000    0.571    2.857    2.571   16.000    2.286 
#    0.000    0.000    0.000    0.000    0.000    0.000 
#    0.000    0.000    0.000    0.000    0.000    0.000 
#
# Total GULP energy -78495.423547 kJ/mol
# GULP energy per Si atom -5606.815968 kJ/mol
# Density = 2.510448 g / cm^3
# Si number density = 25.161752 Si / 1000 Ang^3
#
#
#
# Elastic Constant Matrix: (Units=GPa)
#
#
# Indices 1 2 3 4 5 6 
#
# 1 98.0179 -5.2895 14.4074 0.0000 0.0000 0.0000
# 2 -5.2895 82.3226 7.8593 0.0000 0.0000 0.0000
# 3 14.4074 7.8593 126.3658 0.0000 0.0001 0.0000
# 4 0.0000 0.0000 0.0000 19.3036 0.0000 0.0000
# 5 0.0000 0.0000 0.0001 0.0000 35.8139 0.0000
# 6 0.0000 0.0000 0.0000 0.0000 0.0000 35.6445
#
#
#
# Elastic Compliance Matrix: (Units=1/GPa)
#
#
# Indices 1 2 3 4 5 6 
#
# 1 0.010427 0.000788 -0.001238 0.000000 0.000000 0.000000
# 2 0.000788 0.012279 -0.000854 0.000000 0.000000 0.000000
# 3 -0.001238 -0.000854 0.008108 0.000000 0.000000 0.000000
# 4 0.000000 0.000000 0.000000 0.051804 0.000000 0.000000
# 5 0.000000 0.000000 0.000000 0.000000 0.027922 0.000000
# 6 0.000000 0.000000 0.000000 0.000000 0.000000 0.028055
#
#
# Mechanical properties :
#
#
# Convention : Reuss Voigt Hill
#
# Bulk Modulus (GPa) = 35.45171 37.85119 36.65145
# Shear Modulus (GPa) = 33.19973 37.46767 35.33370
#
# Velocity S-wave (km/s) = 3.63637 3.86304 3.75141
# Velocity P-wave (km/s) = 5.63480 5.91381 5.77599
#
# Compressibility (1/GPa) = 0.02820738
#
# Stress axis : x y z
#
# Youngs Moduli (GPa) = 95.90773 81.43683 123.33886
#
# Poissons Ratio (x) = -0.06418 0.15267
# Poissons Ratio (y) = -0.07559 0.10528
# Poissons Ratio (z) = 0.11871 0.06951
#
# Static dielectric constant tensor:
#      x y z
#    x 1.915710 0.000000 0.000000 
#    y 0.000000 1.980410 0.000000 
#    z 0.000000 0.000000 2.025940 
# 
# From -- ./inp_files/863.got.cif
#   From: 2010.05.17/outbox.cif.g08.bks.cpg/sg45_1_cif.got.tgz:863.got - 2010.06.03 19:51:22.
