data_PCOD9377117
_publ_section_title
;
Structure prediction by ZEFSAII (Michael W. Deem and Ramdas Pophale) SiO2 
 PCOD9377117
Probable space group: I B A 2
;
_chemical_formula_sum "Si O2"
_cell_formula_units_Z 64
_cell_length_a 9.335355
_cell_length_b 26.338345
_cell_length_c 13.335846
_cell_angle_alpha 90.000000
_cell_angle_beta 90.000000
_cell_angle_gamma 90.000000
_cell_volume 3278.988485
_symmetry_space_group_name_H-M "I B A 2"
_symmetry_group_IT_number 45
_symmetry_cell_setting 'orthorhombic'
loop_
_space_group_symop_operation_xyz
x,y,z
-x,-y,z
-x,y,1/2+z
x,-y,1/2+z
1/2+x,1/2+y,1/2+z
1/2-x,1/2-y,1/2+z
1/2-x,1/2+y,z
1/2+x,1/2-y,z
loop_
_atom_site_type_symbol
_atom_site_label
_atom_site_fract_x
_atom_site_fract_y
_atom_site_fract_z
Si Si1 0.705581 0.941084 0.137030
Si Si2 0.397765 0.951863 0.859997
Si Si3 0.489326 0.380104 0.605589
Si Si4 0.849536 0.971201 0.513185
Si Si5 0.163136 0.807624 0.455674
Si Si6 0.098332 0.280670 0.112148
Si Si7 0.954217 0.366980 0.985262
Si Si8 0.384454 0.288822 0.228661
O O1 0.629637 0.949607 0.241965
O O2 0.851913 0.909091 0.149358
O O3 0.754841 0.992764 0.084027
O O4 0.608249 0.908564 0.062146
O O5 0.468400 0.899687 0.899731
O O6 0.500000 0.000000 0.883065
O O7 0.246938 0.959579 0.916967
O O8 0.607264 0.420617 0.572595
O O9 0.437804 0.350385 0.505734
O O10 0.542580 0.339328 0.685067
O O11 0.000000 0.000000 0.489421
O O12 0.157216 0.761586 0.534529
O O13 0.320454 0.832782 0.447841
O O14 0.109350 0.788637 0.348276
O O15 0.221661 0.290322 0.192198
O O16 0.963874 0.257631 0.172942
O O17 0.056420 0.329562 0.047524
#
# Coordination Sequence:
#
# PCOD9377117 Si02
#       8
#     8   8   8   8   8   8   8   8
#     4  10  24  43  65  96 138 170 220 275 323 395
#     4  12  26  40  70 102 130 182 221 268 339 396
#     4   9  22  44  65  98 131 174 218 277 322 397
#     4  10  22  45  67  94 136 173 219 274 324 393
#     4  10  24  43  66  97 134 166 223 278 328 400
#     4  11  24  45  65  98 131 172 223 275 332 400
#     4  11  24  46  64  95 138 170 218 278 330 388
#     4  11  24  40  70  97 129 173 220 269 341 396
#
# _framework density 19.518214
#
# number of rings (size 3 to 8) (size 9 to 14) (size 15 to 20)
#    0.000    1.500    2.500    0.750    7.000    2.500 
#    0.000    0.000    0.000    0.000    0.000    0.000 
#    0.000    0.000    0.000    0.000    0.000    0.000 
#
# Total GULP energy -178860.289482 kJ/mol
# GULP energy per Si atom -5589.384046 kJ/mol
# Density = 1.947379 g / cm^3
# Si number density = 19.518214 Si / 1000 Ang^3
#
#
#
# Elastic Constant Matrix: (Units=GPa)
#
#
# Indices 1 2 3 4 5 6 
#
# 1 59.3508 18.9041 31.3710 0.0000 -0.0001 0.0001
# 2 18.9041 78.5540 19.8595 -0.0001 -0.0001 0.0000
# 3 31.3710 19.8595 95.7621 0.0000 -0.0006 0.0001
# 4 0.0000 -0.0001 0.0000 15.4161 -0.0001 0.0000
# 5 -0.0001 -0.0001 -0.0006 -0.0001 17.3192 0.0001
# 6 0.0001 0.0000 0.0001 0.0000 0.0001 23.1482
#
#
#
# Elastic Compliance Matrix: (Units=1/GPa)
#
#
# Indices 1 2 3 4 5 6 
#
# 1 0.021273 -0.003543 -0.006234 0.000000 0.000000 0.000000
# 2 -0.003543 0.014025 -0.001748 0.000000 0.000000 0.000000
# 3 -0.006234 -0.001748 0.012847 0.000000 0.000000 0.000000
# 4 0.000000 0.000000 0.000000 0.064867 0.000000 0.000000
# 5 0.000000 0.000000 0.000000 0.000000 0.057739 0.000000
# 6 0.000000 0.000000 0.000000 0.000000 0.000000 0.043200
#
#
# Mechanical properties :
#
#
# Convention : Reuss Voigt Hill
#
# Bulk Modulus (GPa) = 39.84924 41.54845 40.69884
# Shear Modulus (GPa) = 20.37776 22.07886 21.22831
#
# Velocity S-wave (km/s) = 3.23466 3.36697 3.30148
# Velocity P-wave (km/s) = 5.86613 6.03726 5.95231
#
# Compressibility (1/GPa) = 0.02509458
#
# Stress axis : x y z
#
# Youngs Moduli (GPa) = 47.00881 71.30313 77.83806
#
# Poissons Ratio (x) = 0.25264 0.48524
# Poissons Ratio (y) = 0.16656 0.13604
# Poissons Ratio (z) = 0.29305 0.12462
#
# Static dielectric constant tensor:
#      x y z
#    x 1.870790 0.000000 0.000000 
#    y 0.000000 1.673640 0.000000 
#    z 0.000000 0.000000 1.626440 
# 
# From -- ./inp_files/3414.got.cif
#   From: 2010.05.17/outbox.cif.g08.bks.cpg/sg45_2_cif.got.tgz:3414.got - 2010.06.03 19:51:22.
