data_PCOD9377786
_publ_section_title
;
Structure prediction by ZEFSAII (Michael W. Deem and Ramdas Pophale) SiO2 
 PCOD9377786
Probable space group: I M A 2
;
_chemical_formula_sum "Si O2"
_cell_formula_units_Z 32
_cell_length_a 18.760936
_cell_length_b 9.473869
_cell_length_c 8.096281
_cell_angle_alpha 90.000000
_cell_angle_beta 90.000000
_cell_angle_gamma 90.000000
_cell_volume 1439.022055
_symmetry_space_group_name_H-M "I M A 2"
_symmetry_group_IT_number 46
_symmetry_cell_setting 'orthorhombic'
loop_
_space_group_symop_operation_xyz
x,y,z
-x,-y,z
1/2-x,y,z
1/2+x,-y,z
1/2+x,1/2+y,1/2+z
1/2-x,1/2-y,1/2+z
-x,1/2+y,1/2+z
x,1/2-y,1/2+z
loop_
_atom_site_type_symbol
_atom_site_label
_atom_site_fract_x
_atom_site_fract_y
_atom_site_fract_z
Si Si1 0.916392 0.974923 0.400920
Si Si2 0.665837 0.954290 0.716858
Si Si3 0.330306 0.715019 0.762769
Si Si4 0.667727 0.937823 0.087369
O O1 0.882740 0.906879 0.564809
O O2 0.883339 0.132010 0.381130
O O3 0.885640 0.898789 0.235663
O O4 0.000000 0.000000 0.405511
O O5 0.750000 0.930363 0.683292
O O6 0.655459 0.123422 0.729304
O O7 0.649442 0.898733 0.900655
O O8 0.250000 0.700644 0.829624
O O9 0.332193 0.610078 0.603293
O O10 0.750000 0.894851 0.122303
#
# Coordination Sequence:
#
# PCOD9377786 Si02
#       4
#     8   8   8   8
#     4  10  19  27  38  63  98 122 136 170 227 276
#     4  10  16  27  47  65  84 114 152 186 210 251
#     4   8  15  28  44  64  87 113 149 183 211 251
#     4   8  16  26  39  58  81 111 146 177 208 248
#
# _framework density 22.237325999999999
#
# number of rings (size 3 to 8) (size 9 to 14) (size 15 to 20)
#    1.500    1.500    0.000    3.000    0.000    5.000 
#    0.000    0.000    0.000    0.000    0.000    0.000 
#    0.000   18.000    0.000    0.000    0.000    0.000 
#
# Total GULP energy -89163.448999 kJ/mol
# GULP energy per Si atom -5572.715562 kJ/mol
# Density = 2.218671 g / cm^3
# Si number density = 22.237326 Si / 1000 Ang^3
#
#
#
# Elastic Constant Matrix: (Units=GPa)
#
#
# Indices 1 2 3 4 5 6 
#
# 1 120.1824 4.4448 132.2740 0.0000 0.0000 0.0000
# 2 4.4448 92.5875 17.6873 0.0000 0.0000 0.0000
# 3 132.2740 17.6873 212.9269 0.0000 0.0000 0.0000
# 4 0.0000 0.0000 0.0000 21.8197 0.0000 0.0000
# 5 0.0000 0.0000 0.0000 0.0000 6.8363 0.0000
# 6 0.0000 0.0000 0.0000 0.0000 0.0000 -4.8512
#
#
#
# Elastic Compliance Matrix: (Units=1/GPa)
#
#
# Indices 1 2 3 4 5 6 
#
# 1 0.026637 0.001913 -0.016706 0.000000 0.000000 0.000000
# 2 0.001913 0.011112 -0.002111 0.000000 0.000000 0.000000
# 3 -0.016706 -0.002111 0.015250 0.000000 0.000000 0.000000
# 4 0.000000 0.000000 0.000000 0.045830 0.000000 0.000000
# 5 0.000000 0.000000 0.000000 0.000000 0.146278 0.000000
# 6 0.000000 0.000000 0.000000 0.000000 0.000000 -0.206134
#
#
# Mechanical properties :
#
#
# Convention : Reuss Voigt Hill
#
# Bulk Modulus (GPa) = 52.11175 81.61210 66.86192
# Shear Modulus (GPa) = 63.14732 22.84700 42.99716
#
# Velocity S-wave (km/s) = 5.33466 3.20881 4.40199
# Velocity P-wave (km/s) = 7.83773 7.10695 7.48127
#
# Compressibility (1/GPa) = 0.01918953
#
# Stress axis : x y z
#
# Youngs Moduli (GPa) = 37.54165 89.99201 65.57340
#
# Poissons Ratio (x) = -0.17213 1.09549
# Poissons Ratio (y) = -0.07181 0.13844
# Poissons Ratio (z) = 0.62718 0.19000
#
# Static dielectric constant tensor:
#      x y z
#    x 1.754260 0.000000 0.000000 
#    y 0.000000 1.900080 0.000000 
#    z 0.000000 0.000000 1.896080 
# 
# From -- ./inp_files/5310.got.cif
#   From: 2010.05.17/outbox.cif.g08.bks.cpg/sg46_3_cif.got.tgz:5310.got - 2010.06.03 19:58:25.
