data_PCOD9377672
_publ_section_title
;
Structure prediction by ZEFSAII (Michael W. Deem and Ramdas Pophale) SiO2 
 PCOD9377672
Probable space group: I B A 2
;
_chemical_formula_sum "Si O2"
_cell_formula_units_Z 40
_cell_length_a 9.898037
_cell_length_b 9.524096
_cell_length_c 20.167773
_cell_angle_alpha 90.000000
_cell_angle_beta 90.000000
_cell_angle_gamma 90.000000
_cell_volume 1901.213028
_symmetry_space_group_name_H-M "I B A 2"
_symmetry_group_IT_number 45
_symmetry_cell_setting 'orthorhombic'
loop_
_space_group_symop_operation_xyz
x,y,z
-x,-y,z
-x,y,1/2+z
x,-y,1/2+z
1/2+x,1/2+y,1/2+z
1/2-x,1/2-y,1/2+z
1/2-x,1/2+y,z
1/2+x,1/2-y,z
loop_
_atom_site_type_symbol
_atom_site_label
_atom_site_fract_x
_atom_site_fract_y
_atom_site_fract_z
Si Si1 0.689896 0.585116 0.810280
Si Si2 0.159544 0.024665 0.665696
Si Si3 0.087619 0.197135 0.858082
Si Si4 0.748685 0.729398 0.581310
Si Si5 0.996990 0.333336 0.495564
O O1 0.711392 0.519019 0.737875
O O2 0.811988 0.685615 0.829736
O O3 0.547321 0.669421 0.814373
O O4 0.666466 0.451745 0.858758
O O5 0.197396 0.179943 0.643089
O O6 0.217760 0.923763 0.609156
O O7 0.000000 0.000000 0.666896
O O8 0.039660 0.247911 0.929729
O O9 0.615419 0.798649 0.550753
O O10 0.861106 0.718600 0.524691
O O11 0.000000 0.500000 0.482483
#
# Coordination Sequence:
#
# PCOD9377672 Si02
#       5
#     8   8   8   8   8
#     4  11  26  48  72 109 140 191 235 297 362 418
#     4  12  24  46  73 104 148 180 240 296 355 425
#     4  11  26  46  72 103 145 184 239 292 354 425
#     4  12  26  45  74 103 141 191 231 295 355 420
#     4  12  27  46  70 106 142 187 240 289 357 427
#
# _framework density 21.039200000000001
#
# number of rings (size 3 to 8) (size 9 to 14) (size 15 to 20)
#    0.000    0.400    6.000    2.400    5.600    3.200 
#    0.000    0.000    0.000    0.000    0.000    0.000 
#    0.000    0.000    0.000    0.000    0.000    0.000 
#
# Total GULP energy -111961.358672 kJ/mol
# GULP energy per Si atom -5598.067934 kJ/mol
# Density = 2.099131 g / cm^3
# Si number density = 21.039200 Si / 1000 Ang^3
#
#
#
# Elastic Constant Matrix: (Units=GPa)
#
#
# Indices 1 2 3 4 5 6 
#
# 1 54.6267 18.3653 16.0012 0.0000 0.0000 0.0000
# 2 18.3653 86.3502 21.9812 0.0000 0.0000 0.0000
# 3 16.0012 21.9812 57.2178 0.0000 0.0000 0.0000
# 4 0.0000 0.0000 0.0000 22.8830 0.0000 0.0000
# 5 0.0000 0.0000 0.0000 0.0000 107.7933 0.0000
# 6 0.0000 0.0000 0.0000 0.0000 0.0000 34.8573
#
#
#
# Elastic Compliance Matrix: (Units=1/GPa)
#
#
# Indices 1 2 3 4 5 6 
#
# 1 0.020732 -0.003251 -0.004549 0.000000 0.000000 0.000000
# 2 -0.003251 0.013346 -0.004218 0.000000 0.000000 0.000000
# 3 -0.004549 -0.004218 0.020369 0.000000 0.000000 0.000000
# 4 0.000000 0.000000 0.000000 0.043701 0.000000 0.000000
# 5 0.000000 0.000000 0.000000 0.000000 0.009277 0.000000
# 6 0.000000 0.000000 0.000000 0.000000 0.000000 0.028688
#
#
# Mechanical properties :
#
#
# Convention : Reuss Voigt Hill
#
# Bulk Modulus (GPa) = 32.88244 34.54335 33.71290
# Shear Modulus (GPa) = 29.36241 42.56317 35.96279
#
# Velocity S-wave (km/s) = 3.73983 4.50270 4.13888
# Velocity P-wave (km/s) = 5.85760 6.59444 6.23691
#
# Compressibility (1/GPa) = 0.03041137
#
# Stress axis : x y z
#
# Youngs Moduli (GPa) = 48.23563 74.92910 49.09305
#
# Poissons Ratio (x) = 0.24362 0.22330
# Poissons Ratio (y) = 0.15683 0.20707
# Poissons Ratio (z) = 0.21940 0.31604
#
# Static dielectric constant tensor:
#      x y z
#    x 1.731030 0.000000 0.000000 
#    y 0.000000 1.794670 0.000000 
#    z 0.000000 0.000000 1.743300 
# 
# From -- ./inp_files/7839.got.cif
#   From: 2010.05.17/outbox.cif.g08.bks.cpg/sg45_4_cif.got.tgz:7839.got - 2010.06.03 19:51:22.
