data_PCOD9377456
_publ_section_title
;
Structure prediction by ZEFSAII (Michael W. Deem and Ramdas Pophale) SiO2 
 PCOD9377456
Probable space group: I B A 2
;
_chemical_formula_sum "Si O2"
_cell_formula_units_Z 48
_cell_length_a 17.302674
_cell_length_b 13.293064
_cell_length_c 8.823813
_cell_angle_alpha 90.000000
_cell_angle_beta 90.000000
_cell_angle_gamma 90.000000
_cell_volume 2029.525987
_symmetry_space_group_name_H-M "I B A 2"
_symmetry_group_IT_number 45
_symmetry_cell_setting 'orthorhombic'
loop_
_space_group_symop_operation_xyz
x,y,z
-x,-y,z
-x,y,1/2+z
x,-y,1/2+z
1/2+x,1/2+y,1/2+z
1/2-x,1/2-y,1/2+z
1/2-x,1/2+y,z
1/2+x,1/2-y,z
loop_
_atom_site_type_symbol
_atom_site_label
_atom_site_fract_x
_atom_site_fract_y
_atom_site_fract_z
Si Si1 0.000000 0.500000 0.893430
Si Si2 0.579158 0.130917 0.644072
Si Si3 0.000000 0.000000 0.120145
Si Si4 0.272900 0.940729 0.739486
Si Si5 0.120710 0.842251 0.219694
Si Si6 0.364453 0.349536 0.560611
Si Si7 0.717449 0.142180 0.079964
O O1 0.942565 0.558240 0.783030
O O2 0.963028 0.414786 0.999977
O O3 0.670614 0.120859 0.629320
O O4 0.566567 0.244934 0.693883
O O5 0.934228 0.062529 0.203959
O O6 0.052393 0.092747 0.051357
O O7 0.188544 0.914007 0.674969
O O8 0.295005 0.055096 0.703737
O O9 0.286224 0.904088 0.910539
O O10 0.159564 0.846747 0.384539
O O11 0.191450 0.834880 0.102472
O O12 0.343948 0.232839 0.603734
#
# Coordination Sequence:
#
# PCOD9377456 Si02
#       7
#     4   8   4   8   8   8   8
#     4  10  26  46  72 108 154 194 260 324 396 474
#     4  11  24  48  73 110 149 205 252 329 399 476
#     4  12  30  48  82 110 166 212 268 328 396 474
#     4  12  25  45  80 109 156 201 265 332 389 474
#     4  12  27  48  73 113 155 203 267 325 403 471
#     4  12  26  51  76 115 155 214 264 332 397 479
#     4  12  25  48  77 117 152 203 265 331 396 475
#
# _framework density 23.650842999999998
#
# number of rings (size 3 to 8) (size 9 to 14) (size 15 to 20)
#    0.000    0.333    5.000    2.500    2.333    2.667 
#    3.000    0.000    0.000    0.000    0.000    0.000 
#    0.000    0.000    0.000    0.000    0.000    0.000 
#
# Total GULP energy -133873.787210 kJ/mol
# GULP energy per Si atom -5578.074467 kJ/mol
# Density = 2.359701 g / cm^3
# Si number density = 23.650843 Si / 1000 Ang^3
#
#
#
# Elastic Constant Matrix: (Units=GPa)
#
#
# Indices 1 2 3 4 5 6 
#
# 1 84.7439 54.4518 27.3326 0.0000 0.0000 0.0000
# 2 54.4518 189.1095 49.9905 0.0000 0.0000 0.0000
# 3 27.3326 49.9905 60.6120 0.0000 0.0000 0.0000
# 4 0.0000 0.0000 0.0000 29.0695 0.0000 0.0000
# 5 0.0000 0.0000 0.0000 0.0000 18.2162 0.0000
# 6 0.0000 0.0000 0.0000 0.0000 0.0000 44.7920
#
#
#
# Elastic Compliance Matrix: (Units=1/GPa)
#
#
# Indices 1 2 3 4 5 6 
#
# 1 0.015259 -0.003293 -0.004165 0.000000 0.000000 0.000000
# 2 -0.003293 0.007473 -0.004678 0.000000 0.000000 0.000000
# 3 -0.004165 -0.004678 0.022235 0.000000 0.000000 0.000000
# 4 0.000000 0.000000 0.000000 0.034400 0.000000 0.000000
# 5 0.000000 0.000000 0.000000 0.000000 0.054896 0.000000
# 6 0.000000 0.000000 0.000000 0.000000 0.000000 0.022325
#
#
# Mechanical properties :
#
#
# Convention : Reuss Voigt Hill
#
# Bulk Modulus (GPa) = 48.32221 66.44613 57.38417
# Shear Modulus (GPa) = 26.62963 31.92825 29.27894
#
# Velocity S-wave (km/s) = 3.35916 3.67820 3.52229
# Velocity P-wave (km/s) = 5.95996 6.79665 6.39201
#
# Compressibility (1/GPa) = 0.02069442
#
# Stress axis : x y z
#
# Youngs Moduli (GPa) = 65.53326 133.81956 44.97335
#
# Poissons Ratio (x) = 0.44062 0.18734
# Poissons Ratio (y) = 0.21578 0.21041
# Poissons Ratio (z) = 0.27298 0.62607
#
# Static dielectric constant tensor:
#      x y z
#    x 1.810430 0.000000 0.000000 
#    y 0.000000 2.214370 0.000000 
#    z 0.000000 0.000000 1.863400 
# 
# From -- ./inp_files/2094.got.cif
#   From: 2010.05.17/outbox.cif.g08.bks.cpg/sg45_2_cif.got.tgz:2094.got - 2010.06.03 19:51:22.
