data_PCOD9377861
_publ_section_title
;
Structure prediction by ZEFSAII (Michael W. Deem and Ramdas Pophale) SiO2 
 PCOD9377861
Probable space group: I M A 2
;
_chemical_formula_sum "Si O2"
_cell_formula_units_Z 64
_cell_length_a 8.652602
_cell_length_b 30.995488
_cell_length_c 14.973742
_cell_angle_alpha 90.000000
_cell_angle_beta 90.000000
_cell_angle_gamma 90.000000
_cell_volume 4015.832146
_symmetry_space_group_name_H-M "I M A 2"
_symmetry_group_IT_number 46
_symmetry_cell_setting 'orthorhombic'
loop_
_space_group_symop_operation_xyz
x,y,z
-x,-y,z
1/2-x,y,z
1/2+x,-y,z
1/2+x,1/2+y,1/2+z
1/2-x,1/2-y,1/2+z
-x,1/2+y,1/2+z
x,1/2-y,1/2+z
loop_
_atom_site_type_symbol
_atom_site_label
_atom_site_fract_x
_atom_site_fract_y
_atom_site_fract_z
Si Si1 0.065436 0.276389 0.062280
Si Si2 0.068572 0.371799 0.385947
Si Si3 0.933231 0.453438 0.470404
Si Si4 0.927821 0.674134 0.577012
Si Si5 0.939288 0.795119 0.758494
Si Si6 0.062595 0.207225 0.363031
Si Si7 0.065973 0.452943 0.668722
Si Si8 0.569839 0.131238 0.244105
O O1 0.250000 0.284820 0.061132
O O2 0.046942 0.224940 0.068976
O O3 0.006076 0.295104 0.155944
O O4 0.006374 0.291077 0.965675
O O5 0.250000 0.381259 0.369854
O O6 0.058785 0.346602 0.480019
O O7 0.012743 0.337901 0.311778
O O8 0.979025 0.416142 0.401379
O O9 0.750000 0.456152 0.481082
O O10 0.000000 0.500000 0.443930
O O11 0.006103 0.443224 0.567933
O O12 0.750000 0.667089 0.608979
O O13 0.041520 0.653348 0.647799
O O14 0.750000 0.794657 0.759115
O O15 0.985425 0.750848 0.809530
O O16 0.250000 0.207494 0.362789
O O17 0.004551 0.164550 0.313681
O O18 0.250000 0.454286 0.666101
O O19 0.000000 0.500000 0.692248
O O20 0.009097 0.415392 0.734269
O O21 0.750000 0.126103 0.262033
#
# Coordination Sequence:
#
# PCOD9377861 Si02
#       8
#     8   8   8   8   8   8   8   8
#     4   9  16  28  49  75  98 128 173 216 249 288
#     4  10  18  29  48  74 101 135 171 206 247 294
#     4  11  21  33  49  72 101 132 165 204 248 300
#     4  10  17  28  49  71  97 132 172 210 244 287
#     4   9  16  27  48  75 100 129 171 213 248 293
#     4  10  18  31  51  72  96 131 173 211 246 292
#     4  11  21  35  53  74 100 130 163 202 247 299
#     4  12  23  33  46  71 103 137 170 204 247 297
#
# _framework density 15.936921
#
# number of rings (size 3 to 8) (size 9 to 14) (size 15 to 20)
#    0.000    1.750    3.750    4.125    0.000    0.000 
#    0.000    1.250    0.000    0.000    0.000    0.875 
#    0.000    4.000    0.000    0.000    0.000    0.000 
#
# Total GULP energy -178521.284018 kJ/mol
# GULP energy per Si atom -5578.790126 kJ/mol
# Density = 1.590065 g / cm^3
# Si number density = 15.936921 Si / 1000 Ang^3
#
#
#
# Elastic Constant Matrix: (Units=GPa)
#
#
# Indices 1 2 3 4 5 6 
#
# 1 62.8105 31.9912 26.6162 0.0003 0.0000 0.0000
# 2 31.9912 103.9850 65.1933 0.0004 0.0001 0.0000
# 3 26.6162 65.1933 93.9865 0.0011 0.0002 0.0001
# 4 0.0003 0.0004 0.0011 21.2708 0.0002 0.0001
# 5 0.0000 0.0001 0.0002 0.0002 7.7036 0.0000
# 6 0.0000 0.0000 0.0001 0.0001 0.0000 21.5157
#
#
#
# Elastic Compliance Matrix: (Units=1/GPa)
#
#
# Indices 1 2 3 4 5 6 
#
# 1 0.019172 -0.004414 -0.002368 0.000000 0.000000 0.000000
# 2 -0.004414 0.018033 -0.011259 0.000000 0.000000 0.000000
# 3 -0.002368 -0.011259 0.019120 -0.000001 0.000000 0.000000
# 4 0.000000 0.000000 -0.000001 0.047013 -0.000001 0.000000
# 5 0.000000 0.000000 0.000000 -0.000001 0.129809 0.000000
# 6 0.000000 0.000000 0.000000 0.000000 0.000000 0.046478
#
#
# Mechanical properties :
#
#
# Convention : Reuss Voigt Hill
#
# Bulk Modulus (GPa) = 49.39544 56.48702 52.94123
# Shear Modulus (GPa) = 15.50606 19.23010 17.36808
#
# Velocity S-wave (km/s) = 3.12262 3.47744 3.30480
# Velocity P-wave (km/s) = 6.63797 7.18641 6.91763
#
# Compressibility (1/GPa) = 0.02024478
#
# Stress axis : x y z
#
# Youngs Moduli (GPa) = 52.15824 55.45253 52.30139
#
# Poissons Ratio (x) = 0.24477 0.12384
# Poissons Ratio (y) = 0.23023 0.58885
# Poissons Ratio (z) = 0.12350 0.62433
#
# Static dielectric constant tensor:
#      x y z
#    x 1.545120 0.000000 0.000000 
#    y 0.000000 1.533360 0.000000 
#    z 0.000000 0.000000 1.534130 
# 
# From -- ./inp_files/14760.got.cif
#   From: 2010.05.17/outbox.cif.g08.bks.cpg/sg46_8_cif.got.tgz:14760.got - 2010.06.03 19:58:25.
