data_PCOD9377746
_publ_section_title
;
Structure prediction by ZEFSAII (Michael W. Deem and Ramdas Pophale) SiO2 
 PCOD9377746
Probable space group: I B A 2
;
_chemical_formula_sum "Si O2"
_cell_formula_units_Z 30
_cell_length_a 27.000000
_cell_length_b 12.000000
_cell_length_c 9.000000
_cell_angle_alpha 90.000000
_cell_angle_beta 90.000000
_cell_angle_gamma 90.000000
_cell_volume 2916.000000
_symmetry_space_group_name_H-M "I B A 2"
_symmetry_group_IT_number 45
_symmetry_cell_setting 'orthorhombic'
loop_
_space_group_symop_operation_xyz
x,y,z
-x,-y,z
-x,y,1/2+z
x,-y,1/2+z
1/2+x,1/2+y,1/2+z
1/2-x,1/2-y,1/2+z
1/2-x,1/2+y,z
1/2+x,1/2-y,z
loop_
_atom_site_type_symbol
_atom_site_label
_atom_site_fract_x
_atom_site_fract_y
_atom_site_fract_z
Si Si1 0.208273 0.131837 0.297170
Si Si2 0.459674 0.642470 0.403789
Si Si3 0.420399 0.047825 0.383283
Si Si4 0.500000 0.000000 0.632809
Si Si5 0.825073 0.687194 0.783362
Si Si6 0.555746 0.597422 0.551128
Si Si7 0.170566 0.091994 0.965454
Si Si8 0.132643 0.692992 0.946491
O O1 0.268808 0.139548 0.313427
O O2 0.175266 0.241454 0.348058
O O3 0.185276 0.028006 0.393242
O O4 0.199093 0.110608 0.121354
O O5 0.516371 0.669324 0.453074
O O6 0.451095 0.530850 0.500192
O O7 0.454853 0.617401 0.226702
O O8 0.416356 0.728134 0.446898
O O9 0.459254 0.058928 0.522579
O O10 0.459629 0.057841 0.244760
O O11 0.372661 0.129951 0.367554
O O12 0.391754 0.925946 0.393169
O O13 0.819759 0.813750 0.841627
O O14 0.841877 0.680576 0.609627
O O15 0.613187 0.612237 0.511221
#
# Coordination Sequence:
#
# PCOD9377746 Si02
#       8
#     8   8   8   4   8   8   8   8
#     4  12  28  49  76 109 151 196 246 316 369 441
#     4  11  24  39  70 104 151 193 236 302 367 444
#     4  11  26  49  76 111 149 195 255 306 375 452
#     4  10  24  50  78 106 150 196 246 314 374 446
#     4  12  30  47  78 109 145 200 249 311 367 446
#     4  11  22  42  66 107 147 191 240 296 368 441
#     4  12  26  49  75 107 150 192 248 302 378 443
#     4  12  26  49  73 110 149 197 252 308 372 446
#
# _framework density 10.288066000000001
#
# number of rings (size 3 to 8) (size 9 to 14) (size 15 to 20)
#    0.000    0.533    4.000    3.200    9.333    3.200 
#    0.000    0.000    0.000    0.000    0.000    0.000 
#    0.000    0.000    0.000    0.000    0.000    0.000 
#
# Total GULP energy -167419.304515 kJ/mol
# GULP energy per Si atom -5580.643484 kJ/mol
# Density = 1.026465 g / cm^3
# Si number density = 10.288066 Si / 1000 Ang^3
#
#
#
# Elastic Constant Matrix: (Units=GPa)
#
#
# Indices 1 2 3 4 5 6 
#
# 1 193.9750 30.0706 28.0288 0.0000 0.0000 0.0000
# 2 30.0706 94.2255 18.1567 0.0000 0.0000 0.0000
# 3 28.0288 18.1567 111.8758 0.0000 0.0000 0.0000
# 4 0.0000 0.0000 0.0000 24.6756 0.0000 0.0000
# 5 0.0000 0.0000 0.0000 0.0000 52.2022 0.0000
# 6 0.0000 0.0000 0.0000 0.0000 0.0000 32.3511
#
#
#
# Elastic Compliance Matrix: (Units=1/GPa)
#
#
# Indices 1 2 3 4 5 6 
#
# 1 0.005561 -0.001555 -0.001141 0.000000 0.000000 0.000000
# 2 -0.001555 0.011390 -0.001459 0.000000 0.000000 0.000000
# 3 -0.001141 -0.001459 0.009461 0.000000 0.000000 0.000000
# 4 0.000000 0.000000 0.000000 0.040526 0.000000 0.000000
# 5 0.000000 0.000000 0.000000 0.000000 0.019156 0.000000
# 6 0.000000 0.000000 0.000000 0.000000 0.000000 0.030911
#
#
# Mechanical properties :
#
#
# Convention : Reuss Voigt Hill
#
# Bulk Modulus (GPa) = 55.23991 61.39871 58.31931
# Shear Modulus (GPa) = 38.06638 43.43379 40.75008
#
# Velocity S-wave (km/s) = 4.30586 4.59942 4.45506
# Velocity P-wave (km/s) = 7.18508 7.62304 7.40730
#
# Compressibility (1/GPa) = 0.01810285
#
# Stress axis : x y z
#
# Youngs Moduli (GPa) = 179.81694 87.79470 105.69581
#
# Poissons Ratio (x) = 0.13651 0.12059
# Poissons Ratio (y) = 0.27960 0.15421
# Poissons Ratio (z) = 0.20516 0.12809
#
# Static dielectric constant tensor:
#      x y z
#    x 1.775420 0.000000 0.000000 
#    y 0.000000 1.768630 0.000000 
#    z 0.000000 0.000000 1.738320 
# 
# From -- ./inp_files/2632.got.cif
#   From: 2010.05.17/outbox.ucp.g08.bks.cvg/sg45_2_cif.got.tgz:2632.got - 2010.06.11 16:34:12.
