data_PCOD9377954
_publ_section_title
;
Structure prediction by ZEFSAII (Michael W. Deem and Ramdas Pophale) SiO2 
 PCOD9377954
Probable space group: I M A 2
;
_chemical_formula_sum "Si O2"
_cell_formula_units_Z 64
_cell_length_a 9.264109
_cell_length_b 34.877204
_cell_length_c 13.965826
_cell_angle_alpha 90.000000
_cell_angle_beta 90.000000
_cell_angle_gamma 90.000000
_cell_volume 4512.445241
_symmetry_space_group_name_H-M "I M A 2"
_symmetry_group_IT_number 46
_symmetry_cell_setting 'orthorhombic'
loop_
_space_group_symop_operation_xyz
x,y,z
-x,-y,z
1/2-x,y,z
1/2+x,-y,z
1/2+x,1/2+y,1/2+z
1/2-x,1/2-y,1/2+z
-x,1/2+y,1/2+z
x,1/2-y,1/2+z
loop_
_atom_site_type_symbol
_atom_site_label
_atom_site_fract_x
_atom_site_fract_y
_atom_site_fract_z
Si Si1 0.084240 0.537978 0.676770
Si Si2 0.078375 0.729649 0.948877
Si Si3 0.078428 0.384796 0.672971
Si Si4 0.077683 0.734984 0.168601
Si Si5 0.079494 0.688089 0.355358
Si Si6 0.916867 0.461727 0.443687
Si Si7 0.923001 0.804713 0.271171
Si Si8 0.921860 0.883562 0.945867
O O1 0.250000 0.537112 0.707682
O O2 0.082642 0.537456 0.560202
O O3 0.000000 0.500000 0.708870
O O4 0.006520 0.577385 0.704722
O O5 0.250000 0.723056 0.934591
O O6 0.051622 0.774057 0.919792
O O7 0.989064 0.703883 0.875350
O O8 0.042875 0.723983 0.060012
O O9 0.250000 0.391694 0.682235
O O10 0.040222 0.346755 0.731532
O O11 0.049823 0.378128 0.559817
O O12 0.250000 0.743323 0.173446
O O13 0.049245 0.702061 0.247056
O O14 0.991669 0.772483 0.202191
O O15 0.250000 0.678971 0.363509
O O16 0.986223 0.652527 0.389982
O O17 0.750000 0.461470 0.413030
O O18 0.000000 0.500000 0.411569
O O19 0.999900 0.422972 0.416054
O O20 0.750000 0.800885 0.272364
O O21 0.750000 0.886713 0.933187
#
# Coordination Sequence:
#
# PCOD9377954 Si02
#       8
#     8   8   8   8   8   8   8   8
#     4   9  16  25  39  57  78 107 139 169 202 241
#     4   9  18  32  47  61  81 111 144 177 213 254
#     4   9  18  29  39  56  84 113 140 171 205 243
#     4   9  18  32  47  61  81 111 144 177 213 253
#     4   9  17  28  42  61  82 105 137 175 211 246
#     4   9  16  26  39  56  79 107 138 169 202 241
#     4  10  19  29  43  64  87 110 139 177 216 251
#     4  10  18  27  40  58  82 112 142 171 204 243
#
# _framework density 14.182995999999999
#
# number of rings (size 3 to 8) (size 9 to 14) (size 15 to 20)
#    0.000    2.750    0.000    3.000    0.000    7.000 
#    0.000    0.000    0.000    0.000    0.000    0.000 
#    0.000    1.000    0.000    5.250    0.000    4.500 
#
# Total GULP energy -178323.419887 kJ/mol
# GULP energy per Si atom -5572.606871 kJ/mol
# Density = 1.415072 g / cm^3
# Si number density = 14.182996 Si / 1000 Ang^3
#
#
#
# Elastic Constant Matrix: (Units=GPa)
#
#
# Indices 1 2 3 4 5 6 
#
# 1 82.5516 84.1377 43.5052 -0.0001 0.0000 0.0000
# 2 84.1377 137.7873 51.9682 0.0002 0.0000 0.0000
# 3 43.5052 51.9682 69.4825 0.0009 0.0000 0.0000
# 4 -0.0001 0.0002 0.0009 18.3658 0.0000 0.0000
# 5 0.0000 0.0000 0.0000 0.0000 16.4880 0.0001
# 6 0.0000 0.0000 0.0000 0.0000 0.0001 30.2707
#
#
#
# Elastic Compliance Matrix: (Units=1/GPa)
#
#
# Indices 1 2 3 4 5 6 
#
# 1 0.035216 -0.018370 -0.008311 0.000001 0.000000 0.000000
# 2 -0.018370 0.019691 -0.003226 0.000000 0.000000 0.000000
# 3 -0.008311 -0.003226 0.022008 -0.000001 0.000000 0.000000
# 4 0.000001 0.000000 -0.000001 0.054449 0.000000 0.000000
# 5 0.000000 0.000000 0.000000 0.000000 0.060650 0.000000
# 6 0.000000 0.000000 0.000000 0.000000 0.000000 0.033035
#
#
# Mechanical properties :
#
#
# Convention : Reuss Voigt Hill
#
# Bulk Modulus (GPa) = 58.46809 72.11597 65.29203
# Shear Modulus (GPa) = 17.20792 20.37226 18.79009
#
# Velocity S-wave (km/s) = 3.48699 3.79408 3.64377
# Velocity P-wave (km/s) = 7.58457 8.37559 7.98988
#
# Compressibility (1/GPa) = 0.01710335
#
# Stress axis : x y z
#
# Youngs Moduli (GPa) = 28.39623 50.78343 45.43703
#
# Poissons Ratio (x) = 0.93287 0.37761
# Poissons Ratio (y) = 0.52163 0.14658
# Poissons Ratio (z) = 0.23599 0.16383
#
# Static dielectric constant tensor:
#      x y z
#    x 1.474260 0.000000 0.000000 
#    y 0.000000 1.449170 0.000000 
#    z 0.000000 0.000000 1.449950 
# 
# From -- ./inp_files/14735.got.cif
#   From: 2010.05.17/outbox.cif.g08.bks.cpg/sg46_8_cif.got.tgz:14735.got - 2010.06.03 19:58:25.
