data_PCOD9377474
_publ_section_title
;
Structure prediction by ZEFSAII (Michael W. Deem and Ramdas Pophale) SiO2 
 PCOD9377474
Probable space group: I B A 2
;
_chemical_formula_sum "Si O2"
_cell_formula_units_Z 40
_cell_length_a 26.406302
_cell_length_b 5.424187
_cell_length_c 9.766083
_cell_angle_alpha 90.000000
_cell_angle_beta 90.000000
_cell_angle_gamma 90.000000
_cell_volume 1398.822632
_symmetry_space_group_name_H-M "I B A 2"
_symmetry_group_IT_number 45
_symmetry_cell_setting 'orthorhombic'
loop_
_space_group_symop_operation_xyz
x,y,z
-x,-y,z
-x,y,1/2+z
x,-y,1/2+z
1/2+x,1/2+y,1/2+z
1/2-x,1/2-y,1/2+z
1/2-x,1/2+y,z
1/2+x,1/2-y,z
loop_
_atom_site_type_symbol
_atom_site_label
_atom_site_fract_x
_atom_site_fract_y
_atom_site_fract_z
Si Si1 0.836119 0.016002 0.909960
Si Si2 0.635504 0.213396 0.649919
Si Si3 0.081235 0.680384 0.781120
Si Si4 0.000000 0.000000 0.163800
Si Si5 0.000000 0.500000 0.988907
Si Si6 0.261405 0.000940 0.095960
O O1 0.846308 0.799172 0.801028
O O2 0.863123 0.240963 0.830221
O O3 0.778340 0.012489 0.968441
O O4 0.868232 0.044504 0.052923
O O5 0.680555 0.061528 0.575184
O O6 0.590777 0.019841 0.663061
O O7 0.047902 0.528474 0.888255
O O8 0.049268 0.931434 0.754376
O O9 0.999302 0.245815 0.073421
O O10 0.242189 0.243712 0.172482
#
# Coordination Sequence:
#
# PCOD9377474 Si02
#       6
#     8   8   8   4   4   8
#     4  11  29  52  89 129 184 242 312 382 469 563
#     4  11  29  53  91 132 186 247 317 386 472 566
#     4  12  30  53  89 140 178 250 316 396 475 576
#     4  12  30  54  90 126 188 236 308 394 476 560
#     4  12  30  54  86 130 186 238 308 390 484 556
#     4  10  26  50  79 123 171 238 295 370 446 543
#
# _framework density 28.595473999999999
#
# number of rings (size 3 to 8) (size 9 to 14) (size 15 to 20)
#    0.000    0.800    0.000    2.400   22.400    6.400 
#    0.000    0.000    0.000    0.000    0.000    0.000 
#    0.000    0.000    0.000    0.000    0.000    0.000 
#
# Total GULP energy -111802.907320 kJ/mol
# GULP energy per Si atom -5590.145366 kJ/mol
# Density = 2.853039 g / cm^3
# Si number density = 28.595474 Si / 1000 Ang^3
#
#
#
# Elastic Constant Matrix: (Units=GPa)
#
#
# Indices 1 2 3 4 5 6 
#
# 1 159.6068 74.9665 67.6291 0.0000 0.0000 0.0000
# 2 74.9665 222.7924 71.6806 0.0000 0.0000 0.0000
# 3 67.6291 71.6806 138.4255 0.0000 0.0000 0.0000
# 4 0.0000 0.0000 0.0000 47.8211 0.0000 0.0000
# 5 0.0000 0.0000 0.0000 0.0000 61.8864 0.0000
# 6 0.0000 0.0000 0.0000 0.0000 0.0000 64.5595
#
#
#
# Elastic Compliance Matrix: (Units=1/GPa)
#
#
# Indices 1 2 3 4 5 6 
#
# 1 0.008477 -0.001824 -0.003197 0.000000 0.000000 0.000000
# 2 -0.001824 0.005778 -0.002101 0.000000 0.000000 0.000000
# 3 -0.003197 -0.002101 0.009874 0.000000 0.000000 0.000000
# 4 0.000000 0.000000 0.000000 0.020911 0.000000 0.000000
# 5 0.000000 0.000000 0.000000 0.000000 0.016159 0.000000
# 6 0.000000 0.000000 0.000000 0.000000 0.000000 0.015490
#
#
# Mechanical properties :
#
#
# Convention : Reuss Voigt Hill
#
# Bulk Modulus (GPa) = 101.16082 105.48635 103.32359
# Shear Modulus (GPa) = 53.06343 55.28995 54.17669
#
# Velocity S-wave (km/s) = 4.31241 4.40195 4.35741
# Velocity P-wave (km/s) = 7.76203 7.92499 7.84394
#
# Compressibility (1/GPa) = 0.00988525
#
# Stress axis : x y z
#
# Youngs Moduli (GPa) = 117.97181 173.06651 101.27579
#
# Poissons Ratio (x) = 0.31562 0.32378
# Poissons Ratio (y) = 0.21514 0.21279
# Poissons Ratio (z) = 0.37715 0.36363
#
# Static dielectric constant tensor:
#      x y z
#    x 2.251590 0.000000 0.000000 
#    y 0.000000 2.236140 0.000000 
#    z 0.000000 0.000000 2.282670 
# 
# From -- ./inp_files/4923.got.cif
#   From: 2010.05.17/outbox.cif.g08.bks.cpg/sg45_3_cif.got.tgz:4923.got - 2010.06.03 19:51:22.
