data_PCOD9377436
_publ_section_title
;
Structure prediction by ZEFSAII (Michael W. Deem and Ramdas Pophale) SiO2 
 PCOD9377436
Probable space group: I B A 2
;
_chemical_formula_sum "Si O2"
_cell_formula_units_Z 60
_cell_length_a 11.849608
_cell_length_b 10.594535
_cell_length_c 19.770043
_cell_angle_alpha 90.000000
_cell_angle_beta 90.000000
_cell_angle_gamma 90.000000
_cell_volume 2481.952682
_symmetry_space_group_name_H-M "I B A 2"
_symmetry_group_IT_number 45
_symmetry_cell_setting 'orthorhombic'
loop_
_space_group_symop_operation_xyz
x,y,z
-x,-y,z
-x,y,1/2+z
x,-y,1/2+z
1/2+x,1/2+y,1/2+z
1/2-x,1/2-y,1/2+z
1/2-x,1/2+y,z
1/2+x,1/2-y,z
loop_
_atom_site_type_symbol
_atom_site_label
_atom_site_fract_x
_atom_site_fract_y
_atom_site_fract_z
Si Si1 0.397665 0.915095 0.200560
Si Si2 0.500000 0.500000 0.234324
Si Si3 0.604920 0.907890 0.915262
Si Si4 0.044574 0.780776 0.145567
Si Si5 0.669263 0.927427 0.073763
Si Si6 0.913223 0.113502 0.528114
Si Si7 0.797036 0.944813 0.806970
Si Si8 0.524268 0.345311 0.887391
O O1 0.457020 0.782011 0.196817
O O2 0.290502 0.921532 0.247575
O O3 0.500000 0.000000 0.228169
O O4 0.374134 0.962850 0.123615
O O5 0.433623 0.410676 0.181929
O O6 0.391949 0.546279 0.280141
O O7 0.715926 0.956548 0.873352
O O8 0.571464 0.763008 0.892963
O O9 0.500000 0.000000 0.898899
O O10 0.620275 0.914455 0.997362
O O11 0.147324 0.694800 0.121692
O O12 0.972493 0.791887 0.078079
O O13 0.800121 0.938925 0.059131
O O14 0.902030 0.176606 0.455404
O O15 0.000000 0.000000 0.523454
O O16 0.887652 0.834580 0.825574
O O17 0.500000 0.500000 0.891899
#
# Coordination Sequence:
#
# PCOD9377436 Si02
#       8
#     8   4   8   8   8   8   8   8
#     4  10  25  47  74 109 152 201 262 327 394 472
#     4  12  28  48  72 116 150 222 254 318 404 496
#     4  12  27  50  81 117 153 210 269 341 414 477
#     4  11  24  45  72 106 155 194 263 322 389 477
#     4  11  24  48  76 114 151 201 264 342 396 475
#     4  11  23  43  72 110 149 194 256 324 397 477
#     4  12  27  51  75 112 161 207 261 329 397 507
#     4  11  26  50  73 113 158 204 267 323 409 490
#
# _framework density 24.174515
#
# number of rings (size 3 to 8) (size 9 to 14) (size 15 to 20)
#    0.000    0.800    4.000    2.400    3.733    2.133 
#    4.800    0.000    0.000    0.000    0.000    0.000 
#    0.000    0.000    0.000    0.000    0.000    0.000 
#
# Total GULP energy -167106.800746 kJ/mol
# GULP energy per Si atom -5570.226692 kJ/mol
# Density = 2.411949 g / cm^3
# Si number density = 24.174515 Si / 1000 Ang^3
#
#
#
# Elastic Constant Matrix: (Units=GPa)
#
#
# Indices 1 2 3 4 5 6 
#
# 1 157.5993 17.8235 53.6252 0.0000 0.0000 0.0000
# 2 17.8235 62.8851 30.2494 0.0000 0.0000 0.0000
# 3 53.6252 30.2494 147.2736 0.0000 0.0000 0.0000
# 4 0.0000 0.0000 0.0000 10.0866 0.0000 0.0000
# 5 0.0000 0.0000 0.0000 0.0000 49.4303 0.0000
# 6 0.0000 0.0000 0.0000 0.0000 0.0000 20.8569
#
#
#
# Elastic Compliance Matrix: (Units=1/GPa)
#
#
# Indices 1 2 3 4 5 6 
#
# 1 0.007286 -0.000875 -0.002473 0.000000 0.000000 0.000000
# 2 -0.000875 0.017751 -0.003327 0.000000 0.000000 0.000000
# 3 -0.002473 -0.003327 0.008374 0.000000 0.000000 0.000000
# 4 0.000000 0.000000 0.000000 0.099141 0.000000 0.000000
# 5 0.000000 0.000000 0.000000 0.000000 0.020231 0.000000
# 6 0.000000 0.000000 0.000000 0.000000 0.000000 0.047946
#
#
# Mechanical properties :
#
#
# Convention : Reuss Voigt Hill
#
# Bulk Modulus (GPa) = 49.85283 63.46159 56.65721
# Shear Modulus (GPa) = 22.64847 33.81208 28.23028
#
# Velocity S-wave (km/s) = 3.06416 3.74393 3.42097
# Velocity P-wave (km/s) = 5.76069 6.70804 6.25234
#
# Compressibility (1/GPa) = 0.02005904
#
# Stress axis : x y z
#
# Youngs Moduli (GPa) = 137.25513 56.33619 119.41777
#
# Poissons Ratio (x) = 0.04932 0.29533
# Poissons Ratio (y) = 0.12015 0.39732
# Poissons Ratio (z) = 0.33944 0.18744
#
# Static dielectric constant tensor:
#      x y z
#    x 1.905260 0.000000 0.000000 
#    y 0.000000 1.909130 0.000000 
#    z 0.000000 0.000000 2.027480 
# 
# From -- ./inp_files/9092.got.cif
#   From: 2010.05.17/outbox.cif.g08.bks.cpg/sg45_5_cif.got.tgz:9092.got - 2010.06.03 19:51:22.
