data_PCOD9377481
_publ_section_title
;
Structure prediction by ZEFSAII (Michael W. Deem and Ramdas Pophale) SiO2 
 PCOD9377481
Probable space group: I B A 2
;
_chemical_formula_sum "Si O2"
_cell_formula_units_Z 20
_cell_length_a 4.807435
_cell_length_b 17.129475
_cell_length_c 8.256222
_cell_angle_alpha 90.000000
_cell_angle_beta 90.000000
_cell_angle_gamma 90.000000
_cell_volume 679.890285
_symmetry_space_group_name_H-M "I B A 2"
_symmetry_group_IT_number 45
_symmetry_cell_setting 'orthorhombic'
loop_
_space_group_symop_operation_xyz
x,y,z
-x,-y,z
-x,y,1/2+z
x,-y,1/2+z
1/2+x,1/2+y,1/2+z
1/2-x,1/2-y,1/2+z
1/2-x,1/2+y,z
1/2+x,1/2-y,z
loop_
_atom_site_type_symbol
_atom_site_label
_atom_site_fract_x
_atom_site_fract_y
_atom_site_fract_z
Si Si1 0.500000 0.000000 0.664181
Si Si2 0.739833 0.195670 0.739531
Si Si3 0.319355 0.397642 0.422883
O O1 0.643787 0.931108 0.768897
O O2 0.261865 0.967209 0.546812
O O3 0.433330 0.228236 0.765751
O O4 0.761030 0.170889 0.553128
O O5 0.881386 0.128679 0.851093
#
# Coordination Sequence:
#
# PCOD9377481 Si02
#       3
#     4   8   8
#     4  10  26  52  84 124 170 224 276 346 420 504
#     4  12  27  49  78 113 157 214 272 336 404 484
#     4  11  26  49  80 120 166 217 280 340 416 497
#
# _framework density 29.416506999999999
#
# number of rings (size 3 to 8) (size 9 to 14) (size 15 to 20)
#    0.000    0.800    0.000    4.800    0.000   17.600 
#    0.000    0.000    0.000    0.000    0.000    0.000 
#    0.000    0.000    0.000    0.000    0.000    0.000 
#
# Total GULP energy -55932.242677 kJ/mol
# GULP energy per Si atom -5593.224268 kJ/mol
# Density = 2.934955 g / cm^3
# Si number density = 29.416507 Si / 1000 Ang^3
#
#
#
# Elastic Constant Matrix: (Units=GPa)
#
#
# Indices 1 2 3 4 5 6 
#
# 1 62.9999 53.7247 59.0143 -0.0001 0.0002 0.0000
# 2 53.7247 183.8809 86.2012 0.0002 0.0001 0.0001
# 3 59.0143 86.2012 237.6354 0.0010 -0.0003 -0.0005
# 4 -0.0001 0.0002 0.0010 29.5145 0.0001 0.0003
# 5 0.0002 0.0001 -0.0003 0.0001 58.9481 0.0001
# 6 0.0000 0.0001 -0.0005 0.0003 0.0001 58.5473
#
#
#
# Elastic Compliance Matrix: (Units=1/GPa)
#
#
# Indices 1 2 3 4 5 6 
#
# 1 0.024096 -0.005103 -0.004133 0.000000 0.000000 0.000000
# 2 -0.005103 0.007633 -0.001502 0.000000 0.000000 0.000000
# 3 -0.004133 -0.001502 0.005779 0.000000 0.000000 0.000000
# 4 0.000000 0.000000 0.000000 0.033882 0.000000 0.000000
# 5 0.000000 0.000000 0.000000 0.000000 0.016964 0.000000
# 6 0.000000 0.000000 0.000000 0.000000 0.000000 0.017080
#
#
# Mechanical properties :
#
#
# Convention : Reuss Voigt Hill
#
# Bulk Modulus (GPa) = 62.36883 98.04408 80.20645
# Shear Modulus (GPa) = 37.80614 48.44038 43.12326
#
# Velocity S-wave (km/s) = 3.58886 4.06237 3.83293
# Velocity P-wave (km/s) = 6.19849 7.44350 6.84934
#
# Compressibility (1/GPa) = 0.01603365
#
# Stress axis : x y z
#
# Youngs Moduli (GPa) = 41.50061 131.00790 173.03259
#
# Poissons Ratio (x) = 0.66849 0.71515
# Poissons Ratio (y) = 0.21176 0.25984
# Poissons Ratio (z) = 0.17152 0.19673
#
# Static dielectric constant tensor:
#      x y z
#    x 2.279950 0.000000 0.000000 
#    y 0.000000 3.171850 0.000000 
#    z 0.000000 0.000000 2.196560 
# 
# From -- ./inp_files/728.got.cif
#   From: 2010.05.17/outbox.cif.g08.bks.cpg/sg45_1_cif.got.tgz:728.got - 2010.06.03 19:51:22.
