data_PCOD9377970
_publ_section_title
;
Structure prediction by ZEFSAII (Michael W. Deem and Ramdas Pophale) SiO2 
 PCOD9377970
Probable space group: I M A 2
;
_chemical_formula_sum "Si O2"
_cell_formula_units_Z 64
_cell_length_a 8.707685
_cell_length_b 19.329335
_cell_length_c 21.955667
_cell_angle_alpha 90.000000
_cell_angle_beta 90.000000
_cell_angle_gamma 90.000000
_cell_volume 3695.440876
_symmetry_space_group_name_H-M "I M A 2"
_symmetry_group_IT_number 46
_symmetry_cell_setting 'orthorhombic'
loop_
_space_group_symop_operation_xyz
x,y,z
-x,-y,z
1/2-x,y,z
1/2+x,-y,z
1/2+x,1/2+y,1/2+z
1/2-x,1/2-y,1/2+z
-x,1/2+y,1/2+z
x,1/2-y,1/2+z
loop_
_atom_site_type_symbol
_atom_site_label
_atom_site_fract_x
_atom_site_fract_y
_atom_site_fract_z
Si Si1 0.566876 0.072310 0.882580
Si Si2 0.564233 0.219209 0.833312
Si Si3 0.427378 0.428055 0.826403
Si Si4 0.564119 0.723593 0.959965
Si Si5 0.425821 0.427260 0.973389
Si Si6 0.929643 0.176572 0.239445
Si Si7 0.933476 0.924636 0.140431
Si Si8 0.435120 0.372438 0.507787
O O1 0.750000 0.068578 0.884118
O O2 0.521309 0.139273 0.843075
O O3 0.506598 0.087755 0.950688
O O4 0.500000 0.000000 0.860617
O O5 0.750000 0.225194 0.836983
O O6 0.495334 0.259509 0.891845
O O7 0.516963 0.250309 0.767827
O O8 0.500000 0.500000 0.806020
O O9 0.250000 0.419354 0.806201
O O10 0.426672 0.427708 0.899437
O O11 0.537644 0.371400 0.798033
O O12 0.750000 0.718844 0.956357
O O13 0.507425 0.649614 0.985994
O O14 0.524069 0.791169 0.999790
O O15 0.500000 0.500000 0.993137
O O16 0.250000 0.428332 0.994517
O O17 0.750000 0.179867 0.224707
O O18 0.014732 0.136744 0.185445
O O19 0.750000 0.929331 0.141648
O O20 0.983926 0.904183 0.072062
O O21 0.000000 0.000000 0.156966
O O22 0.250000 0.377279 0.503670
#
# Coordination Sequence:
#
# PCOD9377970 Si02
#       8
#     8   8   8   8   8   8   8   8
#     4  10  19  32  51  76 102 127 155 193 242 293
#     4   9  19  32  47  69  96 124 156 194 239 289
#     4  10  18  28  41  61  88 123 158 191 227 271
#     4   9  16  30  49  70  94 123 159 198 243 288
#     4   9  17  26  40  63  92 123 153 187 228 277
#     4  11  21  33  48  66  92 127 162 200 238 278
#     4  11  23  37  51  70  96 130 169 206 240 280
#     4   9  19  34  53  73  96 127 164 205 245 286
#
# _framework density 17.318638
#
# number of rings (size 3 to 8) (size 9 to 14) (size 15 to 20)
#    0.000    2.250    1.250    2.250    0.000    4.000 
#    0.000    0.000    0.000    0.000    0.000    0.875 
#    0.000    6.000    0.000    0.000    0.000    0.125 
#
# Total GULP energy -178287.600888 kJ/mol
# GULP energy per Si atom -5571.487528 kJ/mol
# Density = 1.727922 g / cm^3
# Si number density = 17.318638 Si / 1000 Ang^3
#
#
#
# Elastic Constant Matrix: (Units=GPa)
#
#
# Indices 1 2 3 4 5 6 
#
# 1 20.3715 22.7110 12.9541 0.0000 0.0000 0.0000
# 2 22.7110 133.2116 30.2704 0.0000 0.0000 0.0000
# 3 12.9541 30.2704 57.6599 0.0000 0.0000 0.0000
# 4 0.0000 0.0000 0.0000 9.5069 0.0000 0.0000
# 5 0.0000 0.0000 0.0000 0.0000 12.9643 0.0000
# 6 0.0000 0.0000 0.0000 0.0000 0.0000 22.4917
#
#
#
# Elastic Compliance Matrix: (Units=1/GPa)
#
#
# Indices 1 2 3 4 5 6 
#
# 1 0.065344 -0.008862 -0.010028 0.000000 0.000000 0.000000
# 2 -0.008862 0.009725 -0.003115 0.000000 0.000000 0.000000
# 3 -0.010028 -0.003115 0.021231 0.000000 0.000000 0.000000
# 4 0.000000 0.000000 0.000000 0.105187 0.000000 0.000000
# 5 0.000000 0.000000 0.000000 0.000000 0.077135 0.000000
# 6 0.000000 0.000000 0.000000 0.000000 0.000000 0.044461
#
#
# Mechanical properties :
#
#
# Convention : Reuss Voigt Hill
#
# Bulk Modulus (GPa) = 19.12355 38.12377 28.62366
# Shear Modulus (GPa) = 13.00310 18.67975 15.84143
#
# Velocity S-wave (km/s) = 2.74307 3.28776 3.02769
# Velocity P-wave (km/s) = 4.59334 6.03932 5.36527
#
# Compressibility (1/GPa) = 0.05229155
#
# Stress axis : x y z
#
# Youngs Moduli (GPa) = 15.30353 102.82306 47.10026
#
# Poissons Ratio (x) = 0.91118 0.47234
# Poissons Ratio (y) = 0.13561 0.14671
# Poissons Ratio (z) = 0.15347 0.32027
#
# Static dielectric constant tensor:
#      x y z
#    x 1.590740 0.000000 0.000000 
#    y 0.000000 1.666080 0.000000 
#    z 0.000000 0.000000 1.577750 
# 
# From -- ./inp_files/23328.got.cif
#   From: 2010.05.17/outbox.cif.g08.bks.cpg/sg46_12_cif.got.tgz:23328.got - 2010.06.03 19:58:25.
