data_PCOD9377230
_publ_section_title
;
Structure prediction by ZEFSAII (Michael W. Deem and Ramdas Pophale) SiO2 
 PCOD9377230
Probable space group: I B A 2
;
_chemical_formula_sum "Si O2"
_cell_formula_units_Z 28
_cell_length_a 8.130159
_cell_length_b 13.367532
_cell_length_c 9.862367
_cell_angle_alpha 90.000000
_cell_angle_beta 90.000000
_cell_angle_gamma 90.000000
_cell_volume 1071.843629
_symmetry_space_group_name_H-M "I B A 2"
_symmetry_group_IT_number 45
_symmetry_cell_setting 'orthorhombic'
loop_
_space_group_symop_operation_xyz
x,y,z
-x,-y,z
-x,y,1/2+z
x,-y,1/2+z
1/2+x,1/2+y,1/2+z
1/2-x,1/2-y,1/2+z
1/2-x,1/2+y,z
1/2+x,1/2-y,z
loop_
_atom_site_type_symbol
_atom_site_label
_atom_site_fract_x
_atom_site_fract_y
_atom_site_fract_z
Si Si1 0.500000 0.500000 0.857870
Si Si2 0.681759 0.685284 0.230216
Si Si3 0.318823 0.891490 0.866397
Si Si4 0.029182 0.638383 0.106113
O O1 0.433593 0.595600 0.775680
O O2 0.334518 0.453781 0.925185
O O3 0.704939 0.771534 0.344890
O O4 0.857057 0.648646 0.183320
O O5 0.600864 0.749629 0.109302
O O6 0.352585 0.921849 0.708746
O O7 0.480538 0.898411 0.959086
#
# Coordination Sequence:
#
# PCOD9377230 Si02
#       4
#     4   8   8   8
#     4  12  24  48  78 120 152 228 274 326 420 512
#     4  10  23  44  72 110 162 203 270 334 406 481
#     4  10  24  47  78 113 157 212 271 347 397 495
#     4  10  23  45  74 107 165 206 262 342 413 461
#
# _framework density 26.123214000000001
#
# number of rings (size 3 to 8) (size 9 to 14) (size 15 to 20)
#    1.714    0.000    2.857    0.000    8.000    2.286 
#    0.000    2.857    0.000    1.714    0.000    0.000 
#    0.000    0.000    0.000    0.000    0.000    0.000 
#
# Total GULP energy -78180.890058 kJ/mol
# GULP energy per Si atom -5584.349290 kJ/mol
# Density = 2.606376 g / cm^3
# Si number density = 26.123214 Si / 1000 Ang^3
#
#
#
# Elastic Constant Matrix: (Units=GPa)
#
#
# Indices 1 2 3 4 5 6 
#
# 1 99.8961 34.2306 22.2612 0.0000 0.0000 0.0000
# 2 34.2306 185.3318 30.7458 0.0003 0.0001 -0.0001
# 3 22.2612 30.7458 112.3689 0.0005 0.0001 -0.0001
# 4 0.0000 0.0003 0.0005 -16.3229 0.0001 -0.0001
# 5 0.0000 0.0001 0.0001 0.0001 21.7282 0.0000
# 6 0.0000 -0.0001 -0.0001 -0.0001 0.0000 61.6125
#
#
#
# Elastic Compliance Matrix: (Units=1/GPa)
#
#
# Indices 1 2 3 4 5 6 
#
# 1 0.010988 -0.001748 -0.001699 0.000000 0.000000 0.000000
# 2 -0.001748 0.005930 -0.001276 0.000000 0.000000 0.000000
# 3 -0.001699 -0.001276 0.009585 0.000000 0.000000 0.000000
# 4 0.000000 0.000000 0.000000 -0.061264 0.000000 0.000000
# 5 0.000000 0.000000 0.000000 0.000000 0.046023 0.000000
# 6 0.000000 0.000000 0.000000 0.000000 0.000000 0.016230
#
#
# Mechanical properties :
#
#
# Convention : Reuss Voigt Hill
#
# Bulk Modulus (GPa) = 58.62422 63.56358 61.09390
# Shear Modulus (GPa) = 117.30393 34.09417 75.69905
#
# Velocity S-wave (km/s) = 6.70832 3.61658 5.38893
# Velocity P-wave (km/s) = 9.08252 6.46719 7.88406
#
# Compressibility (1/GPa) = 0.01705780
#
# Stress axis : x y z
#
# Youngs Moduli (GPa) = 91.01030 168.62657 104.32966
#
# Poissons Ratio (x) = 0.29470 0.17721
# Poissons Ratio (y) = 0.15905 0.13316
# Poissons Ratio (z) = 0.15459 0.21523
#
# Static dielectric constant tensor:
#      x y z
#    x 2.051340 0.000000 0.000000 
#    y 0.000000 2.101980 0.000000 
#    z 0.000000 0.000000 2.147360 
# 
# From -- ./inp_files/3027.got.cif
#   From: 2010.05.17/outbox.cif.g08.bks.cpg/sg45_2_cif.got.tgz:3027.got - 2010.06.03 19:51:22.
