data_PCOD9377222
_publ_section_title
;
Structure prediction by ZEFSAII (Michael W. Deem and Ramdas Pophale) SiO2 
 PCOD9377222
Probable space group: I B A 2
;
_chemical_formula_sum "Si O2"
_cell_formula_units_Z 40
_cell_length_a 8.903005
_cell_length_b 17.478813
_cell_length_c 11.300283
_cell_angle_alpha 90.000000
_cell_angle_beta 90.000000
_cell_angle_gamma 90.000000
_cell_volume 1758.481781
_symmetry_space_group_name_H-M "I B A 2"
_symmetry_group_IT_number 45
_symmetry_cell_setting 'orthorhombic'
loop_
_space_group_symop_operation_xyz
x,y,z
-x,-y,z
-x,y,1/2+z
x,-y,1/2+z
1/2+x,1/2+y,1/2+z
1/2-x,1/2-y,1/2+z
1/2-x,1/2+y,z
1/2+x,1/2-y,z
loop_
_atom_site_type_symbol
_atom_site_label
_atom_site_fract_x
_atom_site_fract_y
_atom_site_fract_z
Si Si1 0.262025 0.844872 0.654750
Si Si2 0.356128 0.033744 0.971873
Si Si3 0.716122 0.716253 0.969097
Si Si4 0.485661 0.832992 0.336027
Si Si5 0.389861 0.425787 0.873503
O O1 0.264853 0.910451 0.555972
O O2 0.249010 0.764081 0.587201
O O3 0.428000 0.836674 0.712780
O O4 0.146382 0.877991 0.753356
O O5 0.418290 0.085178 0.865921
O O6 0.500000 0.000000 0.038485
O O7 0.258817 0.967540 0.917656
O O8 0.645370 0.773639 0.870438
O O9 0.877626 0.687954 0.924413
O O10 0.598623 0.644348 0.969359
O O11 0.500000 0.500000 0.861815
#
# Coordination Sequence:
#
# PCOD9377222 Si02
#       5
#     8   8   8   8   8
#     4  10  24  44  71  99 139 196 231 285 381 434
#     4  11  22  43  70  99 140 180 233 296 361 436
#     4  10  23  44  70  99 141 183 242 294 354 452
#     4  10  23  44  67  98 138 182 234 290 353 445
#     4  11  26  48  70 107 147 182 244 317 366 433
#
# _framework density 22.746893
#
# number of rings (size 3 to 8) (size 9 to 14) (size 15 to 20)
#    0.000    1.600    4.000    0.000    8.400    7.200 
#    3.600    0.000    0.000    0.000    0.000    0.000 
#    0.000    0.000    0.000    0.000    0.000    0.000 
#
# Total GULP energy -111426.794542 kJ/mol
# GULP energy per Si atom -5571.339727 kJ/mol
# Density = 2.269512 g / cm^3
# Si number density = 22.746893 Si / 1000 Ang^3
#
#
#
# Elastic Constant Matrix: (Units=GPa)
#
#
# Indices 1 2 3 4 5 6 
#
# 1 47.9725 33.6110 14.9250 0.0000 0.0000 0.0000
# 2 33.6110 171.6820 47.2140 0.0000 0.0000 0.0000
# 3 14.9250 47.2140 74.3304 0.0001 0.0000 0.0000
# 4 0.0000 0.0000 0.0001 28.0554 0.0000 0.0000
# 5 0.0000 0.0000 0.0000 0.0000 20.7187 0.0000
# 6 0.0000 0.0000 0.0000 0.0000 0.0000 53.3653
#
#
#
# Elastic Compliance Matrix: (Units=1/GPa)
#
#
# Indices 1 2 3 4 5 6 
#
# 1 0.024470 -0.004167 -0.002266 0.000000 0.000000 0.000000
# 2 -0.004167 0.007767 -0.004097 0.000000 0.000000 0.000000
# 3 -0.002266 -0.004097 0.016511 0.000000 0.000000 0.000000
# 4 0.000000 0.000000 0.000000 0.035644 0.000000 0.000000
# 5 0.000000 0.000000 0.000000 0.000000 0.048265 0.000000
# 6 0.000000 0.000000 0.000000 0.000000 0.000000 0.018739
#
#
# Mechanical properties :
#
#
# Convention : Reuss Voigt Hill
#
# Bulk Modulus (GPa) = 36.11806 53.94279 45.03042
# Shear Modulus (GPa) = 27.51990 33.64353 30.58172
#
# Velocity S-wave (km/s) = 3.48204 3.85000 3.67063
# Velocity P-wave (km/s) = 5.66382 6.59766 6.14849
#
# Compressibility (1/GPa) = 0.02768698
#
# Stress axis : x y z
#
# Youngs Moduli (GPa) = 40.86606 128.74512 60.56625
#
# Poissons Ratio (x) = 0.53653 0.13726
# Poissons Ratio (y) = 0.17030 0.24814
# Poissons Ratio (z) = 0.09262 0.52746
#
# Static dielectric constant tensor:
#      x y z
#    x 1.891530 0.000000 0.000000 
#    y 0.000000 1.987110 0.000000 
#    z 0.000000 0.000000 1.865600 
# 
# From -- ./inp_files/3134.got.cif
#   From: 2010.05.17/outbox.cif.g08.bks.cpg/sg45_2_cif.got.tgz:3134.got - 2010.06.03 19:51:22.
