data_PCOD9377275
_publ_section_title
;
Structure prediction by ZEFSAII (Michael W. Deem and Ramdas Pophale) SiO2 
 PCOD9377275
Probable space group: I B A 2
;
_chemical_formula_sum "Si O2"
_cell_formula_units_Z 52
_cell_length_a 24.480292
_cell_length_b 12.587868
_cell_length_c 8.664910
_cell_angle_alpha 90.000000
_cell_angle_beta 90.000000
_cell_angle_gamma 90.000000
_cell_volume 2670.132606
_symmetry_space_group_name_H-M "I B A 2"
_symmetry_group_IT_number 45
_symmetry_cell_setting 'orthorhombic'
loop_
_space_group_symop_operation_xyz
x,y,z
-x,-y,z
-x,y,1/2+z
x,-y,1/2+z
1/2+x,1/2+y,1/2+z
1/2-x,1/2-y,1/2+z
1/2-x,1/2+y,z
1/2+x,1/2-y,z
loop_
_atom_site_type_symbol
_atom_site_label
_atom_site_fract_x
_atom_site_fract_y
_atom_site_fract_z
Si Si1 0.056882 0.128096 0.377900
Si Si2 0.261752 0.492016 0.268035
Si Si3 0.822536 0.866780 0.519761
Si Si4 0.070073 0.449145 0.588767
Si Si5 0.000000 0.000000 0.131150
Si Si6 0.193568 0.381940 0.517984
Si Si7 0.526095 0.861760 0.769481
O O1 0.115632 0.129633 0.458140
O O2 0.016606 0.095527 0.517518
O O3 0.042155 0.240329 0.299359
O O4 0.048025 0.039740 0.244719
O O5 0.288327 0.566884 0.395585
O O6 0.214985 0.422317 0.351991
O O7 0.234004 0.566496 0.141427
O O8 0.307387 0.420021 0.183583
O O9 0.805340 0.744485 0.523548
O O10 0.132895 0.420750 0.563072
O O11 0.041192 0.418829 0.429082
O O12 0.060379 0.570668 0.642406
O O13 0.036555 0.379423 0.715727
#
# Coordination Sequence:
#
# PCOD9377275 Si02
#       7
#     8   8   8   8   4   8   8
#     4  11  22  41  64  90 124 170 205 261 309 373
#     4  10  24  41  65  90 123 157 216 262 312 373
#     4  11  22  42  65  89 123 163 206 263 319 366
#     4  11  22  38  61  93 129 165 202 251 308 384
#     4  10  24  40  62  90 128 160 224 252 302 376
#     4  11  22  41  65  92 123 162 205 262 316 371
#     4  11  22  38  61  91 130 165 203 249 312 377
#
# _framework density 19.474688
#
# number of rings (size 3 to 8) (size 9 to 14) (size 15 to 20)
#    0.000    1.231    1.538    5.538    0.000    0.000 
#    0.000    0.000    6.769    0.000    0.000    0.000 
#    0.000    0.000    0.000    0.000    0.000    0.000 
#
# Total GULP energy -145087.181071 kJ/mol
# GULP energy per Si atom -5580.276195 kJ/mol
# Density = 1.943036 g / cm^3
# Si number density = 19.474688 Si / 1000 Ang^3
#
#
#
# Elastic Constant Matrix: (Units=GPa)
#
#
# Indices 1 2 3 4 5 6 
#
# 1 95.8388 44.9441 24.8506 0.0000 0.0000 0.0000
# 2 44.9441 137.4310 45.6763 0.0000 0.0000 0.0000
# 3 24.8506 45.6763 102.2198 0.0000 0.0000 0.0000
# 4 0.0000 0.0000 0.0000 34.9919 0.0000 0.0000
# 5 0.0000 0.0000 0.0000 0.0000 38.1389 0.0000
# 6 0.0000 0.0000 0.0000 0.0000 0.0000 24.1578
#
#
#
# Elastic Compliance Matrix: (Units=1/GPa)
#
#
# Indices 1 2 3 4 5 6 
#
# 1 0.012498 -0.003614 -0.001423 0.000000 0.000000 0.000000
# 2 -0.003614 0.009591 -0.003407 0.000000 0.000000 0.000000
# 3 -0.001423 -0.003407 0.011651 0.000000 0.000000 0.000000
# 4 0.000000 0.000000 0.000000 0.028578 0.000000 0.000000
# 5 0.000000 0.000000 0.000000 0.000000 0.026220 0.000000
# 6 0.000000 0.000000 0.000000 0.000000 0.000000 0.041395
#
#
# Mechanical properties :
#
#
# Convention : Reuss Voigt Hill
#
# Bulk Modulus (GPa) = 59.34359 62.93686 61.14023
# Shear Modulus (GPa) = 32.80009 34.12562 33.46286
#
# Velocity S-wave (km/s) = 4.10840 4.19060 4.14970
# Velocity P-wave (km/s) = 7.28311 7.47009 7.37719
#
# Compressibility (1/GPa) = 0.01685102
#
# Stress axis : x y z
#
# Youngs Moduli (GPa) = 80.01163 104.26839 85.82783
#
# Poissons Ratio (x) = 0.37685 0.12217
# Poissons Ratio (y) = 0.28918 0.29240
# Poissons Ratio (z) = 0.11389 0.35523
#
# Static dielectric constant tensor:
#      x y z
#    x 1.688580 0.000000 0.000000 
#    y 0.000000 1.695910 0.000000 
#    z 0.000000 0.000000 1.698500 
# 
# From -- ./inp_files/2618.got.cif
#   From: 2010.05.17/outbox.cif.g08.bks.cpg/sg45_2_cif.got.tgz:2618.got - 2010.06.03 19:51:22.
