data_PCOD9377974
_publ_section_title
;
Structure prediction by ZEFSAII (Michael W. Deem and Ramdas Pophale) SiO2 
 PCOD9377974
Probable space group: I M A 2
;
_chemical_formula_sum "Si O2"
_cell_formula_units_Z 56
_cell_length_a 8.749888
_cell_length_b 13.949408
_cell_length_c 30.362649
_cell_angle_alpha 90.000000
_cell_angle_beta 90.000000
_cell_angle_gamma 90.000000
_cell_volume 3705.936128
_symmetry_space_group_name_H-M "I M A 2"
_symmetry_group_IT_number 46
_symmetry_cell_setting 'orthorhombic'
loop_
_space_group_symop_operation_xyz
x,y,z
-x,-y,z
1/2-x,y,z
1/2+x,-y,z
1/2+x,1/2+y,1/2+z
1/2-x,1/2-y,1/2+z
-x,1/2+y,1/2+z
x,1/2-y,1/2+z
loop_
_atom_site_type_symbol
_atom_site_label
_atom_site_fract_x
_atom_site_fract_y
_atom_site_fract_z
Si Si1 0.433370 0.392395 0.387390
Si Si2 0.433342 0.892118 0.977703
Si Si3 0.565348 0.298097 0.664976
Si Si4 0.933969 0.701067 0.295502
Si Si5 0.932763 0.602343 0.750042
Si Si6 0.432533 0.602208 0.210588
Si Si7 0.065794 0.607213 0.574579
O O1 0.500000 0.500000 0.382471
O O2 0.250000 0.398804 0.389892
O O3 0.496713 0.349454 0.433164
O O4 0.476823 0.331388 0.344444
O O5 0.250000 0.895094 0.973778
O O6 0.500000 0.000000 0.978680
O O7 0.474657 0.852215 0.026061
O O8 0.750000 0.304877 0.667674
O O9 0.495307 0.367337 0.702027
O O10 0.522002 0.189923 0.678528
O O11 0.516980 0.329926 0.616290
O O12 0.750000 0.693026 0.291625
O O13 0.976268 0.809806 0.282354
O O14 0.007845 0.632512 0.258866
O O15 0.750000 0.596677 0.748348
O O16 0.000000 0.500000 0.762986
O O17 0.500000 0.500000 0.197819
O O18 0.250000 0.596616 0.211524
O O19 0.250000 0.599934 0.575588
O O20 0.000000 0.500000 0.578874
#
# Coordination Sequence:
#
# PCOD9377974 Si02
#       7
#     8   8   8   8   8   8   8
#     4  10  18  28  42  61  85 112 139 170 206 246
#     4   9  16  26  40  59  83 110 137 168 205 247
#     4   9  18  31  45  63  85 113 145 174 207 248
#     4   9  19  32  45  62  85 113 144 174 208 248
#     4  10  19  31  45  63  87 113 141 175 210 247
#     4  10  19  30  45  63  86 113 142 176 211 247
#     4   9  17  28  42  61  86 112 139 169 204 245
#
# _framework density 15.110892
#
# number of rings (size 3 to 8) (size 9 to 14) (size 15 to 20)
#    0.000    2.571    0.000    3.429    0.000    5.714 
#    0.000    0.000    0.000    0.000    0.000    1.000 
#    0.000    6.857    0.000    0.000    0.000    0.000 
#
# Total GULP energy -156011.843186 kJ/mol
# GULP energy per Si atom -5571.851542 kJ/mol
# Density = 1.507650 g / cm^3
# Si number density = 15.110892 Si / 1000 Ang^3
#
#
#
# Elastic Constant Matrix: (Units=GPa)
#
#
# Indices 1 2 3 4 5 6 
#
# 1 25.6586 21.7651 33.7688 0.0000 0.0000 0.0000
# 2 21.7651 74.4869 51.8450 0.0000 0.0000 0.0000
# 3 33.7688 51.8450 154.8924 0.0000 0.0000 0.0000
# 4 0.0000 0.0000 0.0000 19.5278 0.0000 0.0000
# 5 0.0000 0.0000 0.0000 0.0000 17.3323 0.0000
# 6 0.0000 0.0000 0.0000 0.0000 0.0000 21.3187
#
#
#
# Elastic Compliance Matrix: (Units=1/GPa)
#
#
# Indices 1 2 3 4 5 6 
#
# 1 0.061047 -0.011179 -0.009568 0.000000 0.000000 0.000000
# 2 -0.011179 0.019550 -0.004107 0.000000 0.000000 0.000000
# 3 -0.009568 -0.004107 0.009916 0.000000 0.000000 0.000000
# 4 0.000000 0.000000 0.000000 0.051209 0.000000 0.000000
# 5 0.000000 0.000000 0.000000 0.000000 0.057696 0.000000
# 6 0.000000 0.000000 0.000000 0.000000 0.000000 0.046907
#
#
# Mechanical properties :
#
#
# Convention : Reuss Voigt Hill
#
# Bulk Modulus (GPa) = 24.50493 52.19952 38.35222
# Shear Modulus (GPa) = 16.14810 21.47971 18.81390
#
# Velocity S-wave (km/s) = 3.27255 3.77433 3.53236
# Velocity P-wave (km/s) = 5.52552 7.32212 6.48632
#
# Compressibility (1/GPa) = 0.04080812
#
# Stress axis : x y z
#
# Youngs Moduli (GPa) = 16.38071 51.15124 100.84233
#
# Poissons Ratio (x) = 0.57181 0.96481
# Poissons Ratio (y) = 0.18312 0.41411
# Poissons Ratio (z) = 0.15672 0.21005
#
# Static dielectric constant tensor:
#      x y z
#    x 1.507500 0.000000 0.000000 
#    y 0.000000 1.485030 0.000000 
#    z 0.000000 0.000000 1.527320 
# 
# From -- ./inp_files/25240.got.cif
#   From: 2010.05.17/outbox.cif.g08.bks.cpg/sg46_13_cif.got.tgz:25240.got - 2010.06.03 19:58:25.
