data_PCOD9377922
_publ_section_title
;
Structure prediction by ZEFSAII (Michael W. Deem and Ramdas Pophale) SiO2 
 PCOD9377922
Probable space group: I M A 2
;
_chemical_formula_sum "Si O2"
_cell_formula_units_Z 44
_cell_length_a 15.016563
_cell_length_b 8.824739
_cell_length_c 15.337391
_cell_angle_alpha 90.000000
_cell_angle_beta 90.000000
_cell_angle_gamma 90.000000
_cell_volume 2032.468864
_symmetry_space_group_name_H-M "I M A 2"
_symmetry_group_IT_number 46
_symmetry_cell_setting 'orthorhombic'
loop_
_space_group_symop_operation_xyz
x,y,z
-x,-y,z
1/2-x,y,z
1/2+x,-y,z
1/2+x,1/2+y,1/2+z
1/2-x,1/2-y,1/2+z
-x,1/2+y,1/2+z
x,1/2-y,1/2+z
loop_
_atom_site_type_symbol
_atom_site_label
_atom_site_fract_x
_atom_site_fract_y
_atom_site_fract_z
Si Si1 0.750000 0.570966 0.100600
Si Si2 0.250000 0.811978 0.740355
Si Si3 0.250000 0.209128 0.881493
Si Si4 0.903563 0.070084 0.496759
Si Si5 0.914864 0.406055 0.547029
Si Si6 0.250000 0.398603 0.585513
Si Si7 0.250000 0.563098 0.860134
Si Si8 0.399803 0.515903 0.342073
O O1 0.750000 0.413626 0.154519
O O2 0.657571 0.551923 0.047579
O O3 0.750000 0.740985 0.139385
O O4 0.250000 0.635654 0.764637
O O5 0.161020 0.869948 0.788746
O O6 0.250000 0.383837 0.861634
O O7 0.160353 0.134925 0.843145
O O8 0.250000 0.165781 0.984613
O O9 0.917555 0.224124 0.552838
O O10 0.838074 0.109406 0.415802
O O11 0.000000 0.000000 0.474235
O O12 0.833250 0.489989 0.592031
O O13 0.906813 0.434271 0.442793
O O14 0.000000 0.500000 0.577033
O O15 0.500000 0.500000 0.308015
#
# Coordination Sequence:
#
# PCOD9377922 Si02
#       8
#     4   4   4   8   8   4   4   8
#     4  11  24  38  59  85 127 166 201 256 323 391
#     4  11  22  40  55  84 123 167 203 251 318 385
#     4   9  18  31  56  86 120 145 194 261 308 371
#     4  11  22  37  60  92 123 158 209 267 317 367
#     4  10  19  32  59  88 113 145 198 262 311 359
#     4  10  17  34  54  84 120 156 200 253 312 379
#     4  11  21  35  58  89 124 156 206 261 311 370
#     4   9  19  34  57  83 115 152 201 251 309 365
#
# _framework density 21.648546
#
# number of rings (size 3 to 8) (size 9 to 14) (size 15 to 20)
#    0.000    1.818    3.636    2.727    5.091    0.727 
#    0.000    3.636    0.000    1.091    0.000    0.000 
#    0.000    0.000    0.000    0.000    0.000    0.000 
#
# Total GULP energy -122661.766677 kJ/mol
# GULP energy per Si atom -5575.534849 kJ/mol
# Density = 2.159927 g / cm^3
# Si number density = 21.648546 Si / 1000 Ang^3
#
#
#
# Elastic Constant Matrix: (Units=GPa)
#
#
# Indices 1 2 3 4 5 6 
#
# 1 210.3266 52.3518 22.2393 0.0000 0.0000 0.0000
# 2 52.3518 139.6743 -3.4028 0.0000 0.0000 0.0000
# 3 22.2393 -3.4028 30.1578 0.0000 0.0000 0.0000
# 4 0.0000 0.0000 0.0000 18.0177 0.0000 0.0000
# 5 0.0000 0.0000 0.0000 0.0000 -5.3578 0.0000
# 6 0.0000 0.0000 0.0000 0.0000 0.0000 203.4493
#
#
#
# Elastic Compliance Matrix: (Units=1/GPa)
#
#
# Indices 1 2 3 4 5 6 
#
# 1 0.005803 -0.002286 -0.004537 0.000000 0.000000 0.000000
# 2 -0.002286 0.008079 0.002597 0.000000 0.000000 0.000000
# 3 -0.004537 0.002597 0.036798 0.000000 0.000000 0.000000
# 4 0.000000 0.000000 0.000000 0.055501 0.000000 0.000000
# 5 0.000000 0.000000 0.000000 0.000000 -0.186643 0.000000
# 6 0.000000 0.000000 0.000000 0.000000 0.000000 0.004915
#
#
# Mechanical properties :
#
#
# Convention : Reuss Voigt Hill
#
# Bulk Modulus (GPa) = 23.68047 58.05948 40.86998
# Shear Modulus (GPa) = -94.30740 63.81985 -15.24377
#
# Velocity S-wave (km/s) = -6.60738 5.43544 -2.65646
# Velocity P-wave (km/s) = 6.87369 8.14060 3.08396
#
# Compressibility (1/GPa) = 0.04222888
#
# Stress axis : x y z
#
# Youngs Moduli (GPa) = 172.31894 123.77034 27.17543
#
# Poissons Ratio (x) = 0.28290 0.12330
# Poissons Ratio (y) = 0.39386 -0.07058
# Poissons Ratio (z) = 0.78187 -0.32145
#
# Static dielectric constant tensor:
#      x y z
#    x 1.855840 0.000000 0.000000 
#    y 0.000000 1.809430 0.000000 
#    z 0.000000 0.000000 1.851760 
# 
# From -- ./inp_files/19367.got.cif
#   From: 2010.05.17/outbox.cif.g08.bks.cpg/sg46_10_cif.got.tgz:19367.got - 2010.06.03 19:58:25.
