data_PCOD9377634
_publ_section_title
;
Structure prediction by ZEFSAII (Michael W. Deem and Ramdas Pophale) SiO2 
 PCOD9377634
Probable space group: I B A 2
;
_chemical_formula_sum "Si O2"
_cell_formula_units_Z 56
_cell_length_a 14.559721
_cell_length_b 14.955373
_cell_length_c 10.191031
_cell_angle_alpha 90.000000
_cell_angle_beta 90.000000
_cell_angle_gamma 90.000000
_cell_volume 2219.056831
_symmetry_space_group_name_H-M "I B A 2"
_symmetry_group_IT_number 45
_symmetry_cell_setting 'orthorhombic'
loop_
_space_group_symop_operation_xyz
x,y,z
-x,-y,z
-x,y,1/2+z
x,-y,1/2+z
1/2+x,1/2+y,1/2+z
1/2-x,1/2-y,1/2+z
1/2-x,1/2+y,z
1/2+x,1/2-y,z
loop_
_atom_site_type_symbol
_atom_site_label
_atom_site_fract_x
_atom_site_fract_y
_atom_site_fract_z
Si Si1 0.300929 0.139937 0.260510
Si Si2 0.142135 0.673834 0.879383
Si Si3 0.814075 0.807215 0.581298
Si Si4 0.538168 0.093521 0.959634
Si Si5 0.000645 0.106635 0.978623
Si Si6 0.404358 0.662338 0.227561
Si Si7 0.171791 0.452279 0.170190
O O1 0.312757 0.239385 0.203329
O O2 0.376958 0.127199 0.372472
O O3 0.191827 0.122070 0.282351
O O4 0.320807 0.058502 0.159513
O O5 0.110890 0.733114 0.754286
O O6 0.178432 0.581490 0.820892
O O7 0.048245 0.658748 0.958541
O O8 0.208402 0.736209 0.964773
O O9 0.912153 0.848199 0.546301
O O10 0.748676 0.891690 0.600790
O O11 0.500000 0.000000 0.903386
O O12 0.576553 0.073482 0.102815
O O13 0.081276 0.140363 0.075262
O O14 0.986714 0.131362 0.824751
O O15 0.000000 0.000000 0.987745
#
# Coordination Sequence:
#
# PCOD9377634 Si02
#       7
#     8   8   8   8   8   8   8
#     4  12  26  48  75 109 153 196 251 316 382 453
#     4  11  25  46  69 105 148 191 247 306 377 447
#     4  11  26  48  72 107 150 197 255 308 384 448
#     4  12  26  43  73 109 148 194 248 308 377 458
#     4  11  24  47  75 108 149 199 254 309 377 462
#     4  11  25  46  74 110 151 195 251 314 385 450
#     4  12  27  46  74 107 151 196 250 312 380 454
#
# _framework density 25.235948
#
# number of rings (size 3 to 8) (size 9 to 14) (size 15 to 20)
#    0.000    0.571    2.857    4.714    8.000    0.000 
#    2.571    0.000    0.000    0.000    0.000    0.000 
#    0.000    0.000    0.000    0.000    0.000    0.000 
#
# Total GULP energy -156547.533689 kJ/mol
# GULP energy per Si atom -5590.983346 kJ/mol
# Density = 2.517851 g / cm^3
# Si number density = 25.235948 Si / 1000 Ang^3
#
#
#
# Elastic Constant Matrix: (Units=GPa)
#
#
# Indices 1 2 3 4 5 6 
#
# 1 76.0849 20.4572 26.0280 0.0000 0.0000 0.0000
# 2 20.4572 111.1693 2.9420 0.0000 0.0000 0.0000
# 3 26.0280 2.9420 80.5322 0.0000 0.0000 0.0000
# 4 0.0000 0.0000 0.0000 39.7108 0.0000 0.0000
# 5 0.0000 0.0000 0.0000 0.0000 42.6879 0.0000
# 6 0.0000 0.0000 0.0000 0.0000 0.0000 39.9487
#
#
#
# Elastic Compliance Matrix: (Units=1/GPa)
#
#
# Indices 1 2 3 4 5 6 
#
# 1 0.015565 -0.002734 -0.004931 0.000000 0.000000 0.000000
# 2 -0.002734 0.009484 0.000537 0.000000 0.000000 0.000000
# 3 -0.004931 0.000537 0.013991 0.000000 0.000000 0.000000
# 4 0.000000 0.000000 0.000000 0.025182 0.000000 0.000000
# 5 0.000000 0.000000 0.000000 0.000000 0.023426 0.000000
# 6 0.000000 0.000000 0.000000 0.000000 0.000000 0.025032
#
#
# Mechanical properties :
#
#
# Convention : Reuss Voigt Hill
#
# Bulk Modulus (GPa) = 40.34585 40.73785 40.54185
# Shear Modulus (GPa) = 36.98299 39.02676 38.00487
#
# Velocity S-wave (km/s) = 3.83232 3.93679 3.88491
# Velocity P-wave (km/s) = 5.96694 6.06978 6.01858
#
# Compressibility (1/GPa) = 0.02478570
#
# Stress axis : x y z
#
# Youngs Moduli (GPa) = 64.24664 105.43923 71.47255
#
# Poissons Ratio (x) = 0.28825 0.35241
# Poissons Ratio (y) = 0.17564 -0.03839
# Poissons Ratio (z) = 0.31678 -0.05663
#
# Static dielectric constant tensor:
#      x y z
#    x 1.991350 0.000000 0.000000 
#    y 0.000000 1.994650 0.000000 
#    z 0.000000 0.000000 2.116100 
# 
# From -- ./inp_files/4145.got.cif
#   From: 2010.05.17/outbox.cif.g08.bks.cpg/sg45_3_cif.got.tgz:4145.got - 2010.06.03 19:51:22.
