data_PCOD9377946
_publ_section_title
;
Structure prediction by ZEFSAII (Michael W. Deem and Ramdas Pophale) SiO2 
 PCOD9377946
Probable space group: I M A 2
;
_chemical_formula_sum "Si O2"
_cell_formula_units_Z 64
_cell_length_a 20.929873
_cell_length_b 18.026542
_cell_length_c 8.927824
_cell_angle_alpha 90.000000
_cell_angle_beta 90.000000
_cell_angle_gamma 90.000000
_cell_volume 3368.407596
_symmetry_space_group_name_H-M "I M A 2"
_symmetry_group_IT_number 46
_symmetry_cell_setting 'orthorhombic'
loop_
_space_group_symop_operation_xyz
x,y,z
-x,-y,z
1/2-x,y,z
1/2+x,-y,z
1/2+x,1/2+y,1/2+z
1/2-x,1/2-y,1/2+z
-x,1/2+y,1/2+z
x,1/2-y,1/2+z
loop_
_atom_site_type_symbol
_atom_site_label
_atom_site_fract_x
_atom_site_fract_y
_atom_site_fract_z
Si Si1 0.979647 0.677874 0.538160
Si Si2 0.676369 0.151796 0.930400
Si Si3 0.676039 0.508886 0.851491
Si Si4 0.417315 0.593944 0.680941
Si Si5 0.322171 0.893181 0.617605
Si Si6 0.407645 0.713049 0.938295
Si Si7 0.824277 0.671849 0.978827
Si Si8 0.398716 0.221688 0.762875
O O1 0.939157 0.715246 0.672711
O O2 0.939928 0.674527 0.383035
O O3 0.016090 0.602777 0.589977
O O4 0.034113 0.738742 0.498857
O O5 0.750000 0.161739 0.967026
O O6 0.670118 0.093998 0.793629
O O7 0.645336 0.229363 0.879347
O O8 0.636827 0.125101 0.071054
O O9 0.750000 0.497413 0.792915
O O10 0.617431 0.478241 0.750645
O O11 0.668140 0.594339 0.892519
O O12 0.672965 0.462343 0.006480
O O13 0.426475 0.653727 0.813491
O O14 0.250000 0.862397 0.598703
O O15 0.374159 0.834170 0.567070
O O16 0.750000 0.681384 0.016800
O O17 0.847902 0.735854 0.866974
O O18 0.865785 0.675386 0.130321
#
# Coordination Sequence:
#
# PCOD9377946 Si02
#       8
#     8   8   8   8   8   8   8   8
#     4  10  19  34  53  84 117 154 191 235 284 341
#     4  10  18  26  41  72 109 149 202 252 279 309
#     4   9  19  37  58  81 115 155 195 235 288 352
#     4  10  19  31  51  78 113 160 198 230 279 339
#     4   9  18  30  46  73 111 153 196 240 280 332
#     4  10  18  28  47  72 105 156 201 237 277 327
#     4  10  21  41  68  94 112 137 184 250 321 374
#     4  10  21  37  63  90 116 139 186 242 306 358
#
# _framework density 19.000077000000001
#
# number of rings (size 3 to 8) (size 9 to 14) (size 15 to 20)
#    0.000    2.250    1.250    2.625    1.750    2.500 
#    0.000    3.125    0.000    9.000    0.000    0.000 
#    0.000    0.000    0.000    0.000    0.000    0.000 
#
# Total GULP energy -178289.769816 kJ/mol
# GULP energy per Si atom -5571.555307 kJ/mol
# Density = 1.895683 g / cm^3
# Si number density = 19.000077 Si / 1000 Ang^3
#
#
#
# Elastic Constant Matrix: (Units=GPa)
#
#
# Indices 1 2 3 4 5 6 
#
# 1 85.8729 25.1051 27.7335 0.0000 0.0000 0.0000
# 2 25.1051 41.6236 9.8677 0.0000 0.0000 0.0000
# 3 27.7335 9.8677 66.7811 0.0000 0.0000 0.0000
# 4 0.0000 0.0000 0.0000 1.9653 0.0000 0.0000
# 5 0.0000 0.0000 0.0000 0.0000 32.4421 0.0000
# 6 0.0000 0.0000 0.0000 0.0000 0.0000 19.7400
#
#
#
# Elastic Compliance Matrix: (Units=1/GPa)
#
#
# Indices 1 2 3 4 5 6 
#
# 1 0.015781 -0.008254 -0.005334 0.000000 0.000000 0.000000
# 2 -0.008254 0.029214 -0.000889 0.000000 0.000000 0.000000
# 3 -0.005334 -0.000889 0.017321 0.000000 0.000000 0.000000
# 4 0.000000 0.000000 0.000000 0.508823 0.000000 0.000000
# 5 0.000000 0.000000 0.000000 0.000000 0.030824 0.000000
# 6 0.000000 0.000000 0.000000 0.000000 0.000000 0.050659
#
#
# Mechanical properties :
#
#
# Convention : Reuss Voigt Hill
#
# Bulk Modulus (GPa) = 29.97422 35.52114 32.74768
# Shear Modulus (GPa) = 7.21818 19.60090 13.40954
#
# Velocity S-wave (km/s) = 1.95122 3.21537 2.65950
# Velocity P-wave (km/s) = 4.57017 5.70269 5.16755
#
# Compressibility (1/GPa) = 0.03336201
#
# Stress axis : x y z
#
# Youngs Moduli (GPa) = 63.36839 34.23049 57.73394
#
# Poissons Ratio (x) = 0.28252 0.30795
# Poissons Ratio (y) = 0.52301 0.05133
# Poissons Ratio (z) = 0.33801 0.03043
#
# Static dielectric constant tensor:
#      x y z
#    x 1.688630 0.000000 0.000000 
#    y 0.000000 1.648490 0.000000 
#    z 0.000000 0.000000 1.671730 
# 
# From -- ./inp_files/7575.got.cif
#   From: 2010.05.17/outbox.cif.g08.bks.cpg/sg46_4_cif.got.tgz:7575.got - 2010.06.03 19:58:25.
