data_PCOD9377525
_publ_section_title
;
Structure prediction by ZEFSAII (Michael W. Deem and Ramdas Pophale) SiO2 
 PCOD9377525
Probable space group: I B A 2
;
_chemical_formula_sum "Si O2"
_cell_formula_units_Z 56
_cell_length_a 15.029426
_cell_length_b 12.188040
_cell_length_c 14.109530
_cell_angle_alpha 90.000000
_cell_angle_beta 90.000000
_cell_angle_gamma 90.000000
_cell_volume 2584.573056
_symmetry_space_group_name_H-M "I B A 2"
_symmetry_group_IT_number 45
_symmetry_cell_setting 'orthorhombic'
loop_
_space_group_symop_operation_xyz
x,y,z
-x,-y,z
-x,y,1/2+z
x,-y,1/2+z
1/2+x,1/2+y,1/2+z
1/2-x,1/2-y,1/2+z
1/2-x,1/2+y,z
1/2+x,1/2-y,z
loop_
_atom_site_type_symbol
_atom_site_label
_atom_site_fract_x
_atom_site_fract_y
_atom_site_fract_z
Si Si1 0.844470 0.135308 0.477700
Si Si2 0.155651 0.364440 0.081747
Si Si3 0.661474 0.969300 0.933074
Si Si4 0.161164 0.031092 0.626309
Si Si5 0.249408 0.868346 0.779830
Si Si6 0.095427 0.196106 0.770295
Si Si7 0.905221 0.304433 0.789143
O O1 0.861065 0.249856 0.529772
O O2 0.739123 0.109126 0.473167
O O3 0.878341 0.142111 0.370761
O O4 0.882211 0.037165 0.541662
O O5 0.260979 0.390731 0.086297
O O6 0.121664 0.357813 0.188639
O O7 0.117952 0.462494 0.017657
O O8 0.597554 0.896333 0.869568
O O9 0.712083 0.055746 0.863610
O O10 0.097309 0.104353 0.689678
O O11 0.211399 0.944568 0.696008
O O12 0.329342 0.787748 0.749171
O O13 0.169121 0.788285 0.810470
O O14 0.000589 0.250971 0.779731
#
# Coordination Sequence:
#
# PCOD9377525 Si02
#       7
#     8   8   8   8   8   8   8
#     4  11  21  42  72 102 137 181 241 293 353 441
#     4  11  21  42  72 102 137 181 241 293 353 441
#     4  11  22  42  74 101 136 197 233 287 370 433
#     4  11  22  42  74 101 136 197 233 287 370 433
#     4  12  20  46  72  94 148 184 238 296 364 438
#     4  12  25  44  71 106 145 186 237 306 365 429
#     4  12  25  44  71 106 145 186 237 306 365 429
#
# _framework density 21.667020999999998
#
# number of rings (size 3 to 8) (size 9 to 14) (size 15 to 20)
#    0.000    0.571    8.571    0.000    0.000    1.143 
#    0.000   10.000    0.000    0.000    0.000    0.000 
#    0.000    0.000    0.000    0.000    0.000    0.000 
#
# Total GULP energy -156730.772767 kJ/mol
# GULP energy per Si atom -5597.527599 kJ/mol
# Density = 2.161771 g / cm^3
# Si number density = 21.667021 Si / 1000 Ang^3
#
#
#
# Elastic Constant Matrix: (Units=GPa)
#
#
# Indices 1 2 3 4 5 6 
#
# 1 79.0865 50.3859 -0.8578 0.0000 0.0000 0.0000
# 2 50.3859 94.2743 37.9222 0.0000 0.0000 0.0000
# 3 -0.8578 37.9222 62.7796 0.0000 0.0000 0.0000
# 4 0.0000 0.0000 0.0000 47.9895 0.0000 0.0000
# 5 0.0000 0.0000 0.0000 0.0000 7.8750 0.0000
# 6 0.0000 0.0000 0.0000 0.0000 0.0000 23.1001
#
#
#
# Elastic Compliance Matrix: (Units=1/GPa)
#
#
# Indices 1 2 3 4 5 6 
#
# 1 0.023383 -0.016678 0.010394 0.000000 0.000000 0.000000
# 2 -0.016678 0.025908 -0.015878 0.000000 0.000000 0.000000
# 3 0.010394 -0.015878 0.025662 0.000000 0.000000 0.000000
# 4 0.000000 0.000000 0.000000 0.020838 0.000000 0.000000
# 5 0.000000 0.000000 0.000000 0.000000 0.126985 0.000000
# 6 0.000000 0.000000 0.000000 0.000000 0.000000 0.043290
#
#
# Mechanical properties :
#
#
# Convention : Reuss Voigt Hill
#
# Bulk Modulus (GPa) = 32.64903 45.67122 39.16012
# Shear Modulus (GPa) = 15.59582 25.70560 20.65071
#
# Velocity S-wave (km/s) = 2.68581 3.44814 3.09057
# Velocity P-wave (km/s) = 4.97186 6.08090 5.55413
#
# Compressibility (1/GPa) = 0.03062878
#
# Stress axis : x y z
#
# Youngs Moduli (GPa) = 42.76647 38.59793 38.96844
#
# Poissons Ratio (x) = 0.64375 -0.40504
# Poissons Ratio (y) = 0.71327 0.61873
# Poissons Ratio (z) = -0.44452 0.61285
#
# Static dielectric constant tensor:
#      x y z
#    x 1.753450 0.000000 0.000000 
#    y 0.000000 1.806400 0.000000 
#    z 0.000000 0.000000 1.813620 
# 
# From -- ./inp_files/6165.got.cif
#   From: 2010.05.17/outbox.cif.g08.bks.cpg/sg45_4_cif.got.tgz:6165.got - 2010.06.03 19:51:22.
