data_PCOD9377092
_publ_section_title
;
Structure prediction by ZEFSAII (Michael W. Deem and Ramdas Pophale) SiO2 
 PCOD9377092
Probable space group: I B A 2
;
_chemical_formula_sum "Si O2"
_cell_formula_units_Z 64
_cell_length_a 8.827882
_cell_length_b 24.789604
_cell_length_c 14.297883
_cell_angle_alpha 90.000000
_cell_angle_beta 90.000000
_cell_angle_gamma 90.000000
_cell_volume 3128.944411
_symmetry_space_group_name_H-M "I B A 2"
_symmetry_group_IT_number 45
_symmetry_cell_setting 'orthorhombic'
loop_
_space_group_symop_operation_xyz
x,y,z
-x,-y,z
-x,y,1/2+z
x,-y,1/2+z
1/2+x,1/2+y,1/2+z
1/2-x,1/2-y,1/2+z
1/2-x,1/2+y,z
1/2+x,1/2-y,z
loop_
_atom_site_type_symbol
_atom_site_label
_atom_site_fract_x
_atom_site_fract_y
_atom_site_fract_z
Si Si1 0.169227 0.519492 0.720260
Si Si2 0.871016 0.119729 0.831985
Si Si3 0.108040 0.897737 0.166497
Si Si4 0.358872 0.313886 0.011698
Si Si5 0.181421 0.004786 0.402974
Si Si6 0.933186 0.728035 0.080544
Si Si7 0.281051 0.824672 0.659327
Si Si8 0.822295 0.938549 0.087356
O O1 0.229611 0.574309 0.673816
O O2 0.216865 0.525332 0.827014
O O3 0.268473 0.470930 0.678081
O O4 0.000000 0.500000 0.706145
O O5 0.762818 0.153636 0.762385
O O6 0.014709 0.106032 0.763869
O O7 0.792527 0.067662 0.879644
O O8 0.916281 0.153607 0.922804
O O9 0.112576 0.841736 0.112502
O O10 0.002845 0.933408 0.097850
O O11 0.179539 0.305754 0.015483
O O12 0.448911 0.258679 0.014517
O O13 0.218410 0.975685 0.500082
O O14 0.000000 0.000000 0.387891
O O15 0.826914 0.773459 0.131799
O O16 0.044539 0.693536 0.147175
O O17 0.242547 0.877374 0.593955
#
# Coordination Sequence:
#
# PCOD9377092 Si02
#       8
#     8   8   8   8   8   8   8   8
#     4  12  25  39  60  98 135 165 215 273 333 407
#     4  11  22  40  72  97 129 176 235 275 339 412
#     4  11  22  43  67  95 131 183 224 271 341 411
#     4  11  23  42  68  99 130 174 226 281 341 406
#     4  12  22  40  67  94 127 173 226 262 322 421
#     4  10  23  43  67  96 132 173 230 282 342 396
#     4  10  22  43  68  95 135 176 223 284 340 396
#     4  11  22  42  67  92 131 178 217 270 332 399
#
# _framework density 20.454181999999999
#
# number of rings (size 3 to 8) (size 9 to 14) (size 15 to 20)
#    0.000    1.000    6.250    2.625    1.750    1.500 
#    2.250    0.000    0.000    0.000    0.000    0.000 
#    0.000    0.000    0.000    0.000    0.000    0.000 
#
# Total GULP energy -178368.867213 kJ/mol
# GULP energy per Si atom -5574.027100 kJ/mol
# Density = 2.040763 g / cm^3
# Si number density = 20.454182 Si / 1000 Ang^3
#
#
#
# Elastic Constant Matrix: (Units=GPa)
#
#
# Indices 1 2 3 4 5 6 
#
# 1 81.2953 11.6030 17.0225 0.0000 0.0000 0.0000
# 2 11.6030 63.4108 35.9322 0.0000 0.0000 0.0000
# 3 17.0225 35.9322 94.0831 -0.0001 0.0000 0.0000
# 4 0.0000 0.0000 -0.0001 32.6377 0.0000 0.0000
# 5 0.0000 0.0000 0.0000 0.0000 7.0178 0.0000
# 6 0.0000 0.0000 0.0000 0.0000 0.0000 25.4131
#
#
#
# Elastic Compliance Matrix: (Units=1/GPa)
#
#
# Indices 1 2 3 4 5 6 
#
# 1 0.012871 -0.001322 -0.001824 0.000000 0.000000 0.000000
# 2 -0.001322 0.020261 -0.007499 0.000000 0.000000 0.000000
# 3 -0.001824 -0.007499 0.013823 0.000000 0.000000 0.000000
# 4 0.000000 0.000000 0.000000 0.030639 0.000000 0.000000
# 5 0.000000 0.000000 0.000000 0.000000 0.142496 0.000000
# 6 0.000000 0.000000 0.000000 0.000000 0.000000 0.039350
#
#
# Mechanical properties :
#
#
# Convention : Reuss Voigt Hill
#
# Bulk Modulus (GPa) = 38.96173 40.87831 39.92002
# Shear Modulus (GPa) = 17.28393 24.62913 20.95653
#
# Velocity S-wave (km/s) = 2.91005 3.47380 3.20435
# Velocity P-wave (km/s) = 5.51188 6.00986 5.76625
#
# Compressibility (1/GPa) = 0.02566621
#
# Stress axis : x y z
#
# Youngs Moduli (GPa) = 77.69153 49.35480 72.34312
#
# Poissons Ratio (x) = 0.06523 0.13196
# Poissons Ratio (y) = 0.10268 0.54251
# Poissons Ratio (z) = 0.14172 0.37012
#
# Static dielectric constant tensor:
#      x y z
#    x 1.750800 0.000000 0.000000 
#    y 0.000000 1.799600 0.000000 
#    z 0.000000 0.000000 1.730830 
# 
# From -- ./inp_files/5875.got.cif
#   From: 2010.05.17/outbox.cif.g08.bks.cpg/sg45_3_cif.got.tgz:5875.got - 2010.06.03 19:51:22.
