data_PCOD9377326
_publ_section_title
;
Structure prediction by ZEFSAII (Michael W. Deem and Ramdas Pophale) SiO2 
 PCOD9377326
Probable space group: I B A 2
;
_chemical_formula_sum "Si O2"
_cell_formula_units_Z 60
_cell_length_a 8.477083
_cell_length_b 11.170007
_cell_length_c 26.802419
_cell_angle_alpha 90.000000
_cell_angle_beta 90.000000
_cell_angle_gamma 90.000000
_cell_volume 2537.896302
_symmetry_space_group_name_H-M "I B A 2"
_symmetry_group_IT_number 45
_symmetry_cell_setting 'orthorhombic'
loop_
_space_group_symop_operation_xyz
x,y,z
-x,-y,z
-x,y,1/2+z
x,-y,1/2+z
1/2+x,1/2+y,1/2+z
1/2-x,1/2-y,1/2+z
1/2-x,1/2+y,z
1/2+x,1/2-y,z
loop_
_atom_site_type_symbol
_atom_site_label
_atom_site_fract_x
_atom_site_fract_y
_atom_site_fract_z
Si Si1 0.275388 0.575895 0.368490
Si Si2 0.785060 0.398687 0.950465
Si Si3 0.027973 0.239156 0.649219
Si Si4 0.846893 0.414667 0.066626
Si Si5 0.037260 0.759537 0.393998
Si Si6 0.813997 0.533773 0.271540
Si Si7 0.264107 0.290889 0.720749
Si Si8 0.000000 0.000000 0.107339
O O1 0.247229 0.526640 0.424558
O O2 0.444766 0.636404 0.365807
O O3 0.237546 0.474289 0.329205
O O4 0.153155 0.683636 0.359769
O O5 0.916905 0.333510 0.917819
O O6 0.629892 0.321404 0.939402
O O7 0.835478 0.398099 0.007329
O O8 0.088923 0.304069 0.599710
O O9 0.087497 0.296102 0.700288
O O10 0.846421 0.228357 0.666324
O O11 0.072291 0.102315 0.641698
O O12 0.662401 0.452107 0.079951
O O13 0.000000 0.500000 0.075596
O O14 0.715539 0.421568 0.246140
O O15 0.782954 0.668085 0.251715
O O16 0.000000 0.500000 0.268688
#
# Coordination Sequence:
#
# PCOD9377326 Si02
#       8
#     8   8   8   8   8   8   8   4
#     4  11  25  46  73 108 152 203 261 328 401 481
#     4  11  25  47  71 111 150 202 256 327 400 491
#     4  12  26  51  75 112 154 202 263 340 399 494
#     4  12  29  46  82 116 159 210 271 333 418 489
#     4  10  24  43  75 101 155 198 253 324 401 472
#     4  12  28  48  79 116 159 210 273 335 411 498
#     4  12  27  49  80 111 159 210 267 338 412 478
#     4  12  28  48  82 112 156 206 270 324 424 480
#
# _framework density 23.641628999999998
#
# number of rings (size 3 to 8) (size 9 to 14) (size 15 to 20)
#    0.000    0.533    2.667    4.000   11.200    1.067 
#    2.400    0.000    0.000    0.000    0.000    0.000 
#    0.000    0.000    0.000    0.000    0.000    0.000 
#
# Total GULP energy -167264.885675 kJ/mol
# GULP energy per Si atom -5575.496189 kJ/mol
# Density = 2.358782 g / cm^3
# Si number density = 23.641629 Si / 1000 Ang^3
#
#
#
# Elastic Constant Matrix: (Units=GPa)
#
#
# Indices 1 2 3 4 5 6 
#
# 1 80.5593 14.6126 8.1873 0.0000 0.0000 0.0000
# 2 14.6126 92.5337 39.8482 0.0000 0.0000 0.0000
# 3 8.1873 39.8482 102.3405 0.0000 0.0000 0.0000
# 4 0.0000 0.0000 0.0000 16.4159 0.0000 0.0000
# 5 0.0000 0.0000 0.0000 0.0000 80.1073 0.0000
# 6 0.0000 0.0000 0.0000 0.0000 0.0000 39.0059
#
#
#
# Elastic Compliance Matrix: (Units=1/GPa)
#
#
# Indices 1 2 3 4 5 6 
#
# 1 0.012786 -0.001897 -0.000284 0.000000 0.000000 0.000000
# 2 -0.001897 0.013265 -0.005013 0.000000 0.000000 0.000000
# 3 -0.000284 -0.005013 0.011746 0.000000 0.000000 0.000000
# 4 0.000000 0.000000 0.000000 0.060917 0.000000 0.000000
# 5 0.000000 0.000000 0.000000 0.000000 0.012483 0.000000
# 6 0.000000 0.000000 0.000000 0.000000 0.000000 0.025637
#
#
# Mechanical properties :
#
#
# Convention : Reuss Voigt Hill
#
# Bulk Modulus (GPa) = 42.71918 44.52555 43.62237
# Shear Modulus (GPa) = 31.44130 41.29150 36.36640
#
# Velocity S-wave (km/s) = 3.65075 4.18372 3.92629
# Velocity P-wave (km/s) = 5.98994 6.49711 6.24867
#
# Compressibility (1/GPa) = 0.02340869
#
# Stress axis : x y z
#
# Youngs Moduli (GPa) = 78.20961 75.38453 85.13460
#
# Poissons Ratio (x) = 0.14298 0.02421
# Poissons Ratio (y) = 0.14834 0.42681
# Poissons Ratio (z) = 0.02224 0.37793
#
# Static dielectric constant tensor:
#      x y z
#    x 2.041440 0.000000 0.000000 
#    y 0.000000 3.195680 0.000000 
#    z 0.000000 0.000000 1.878470 
# 
# From -- ./inp_files/9977.got.cif
#   From: 2010.05.17/outbox.cif.g08.bks.cpg/sg45_5_cif.got.tgz:9977.got - 2010.06.03 19:51:22.
