data_PCOD9377628
_publ_section_title
;
Structure prediction by ZEFSAII (Michael W. Deem and Ramdas Pophale) SiO2 
 PCOD9377628
Probable space group: I B A 2
;
_chemical_formula_sum "Si O2"
_cell_formula_units_Z 56
_cell_length_a 10.643482
_cell_length_b 19.504534
_cell_length_c 11.451825
_cell_angle_alpha 90.000000
_cell_angle_beta 90.000000
_cell_angle_gamma 90.000000
_cell_volume 2377.354855
_symmetry_space_group_name_H-M "I B A 2"
_symmetry_group_IT_number 45
_symmetry_cell_setting 'orthorhombic'
loop_
_space_group_symop_operation_xyz
x,y,z
-x,-y,z
-x,y,1/2+z
x,-y,1/2+z
1/2+x,1/2+y,1/2+z
1/2-x,1/2-y,1/2+z
1/2-x,1/2+y,z
1/2+x,1/2-y,z
loop_
_atom_site_type_symbol
_atom_site_label
_atom_site_fract_x
_atom_site_fract_y
_atom_site_fract_z
Si Si1 0.142441 0.891163 0.037430
Si Si2 0.445237 0.293791 0.624802
Si Si3 0.500000 0.500000 0.402616
Si Si4 0.741649 0.179206 0.424917
Si Si5 0.500000 0.000000 0.196650
Si Si6 0.238444 0.173274 0.312696
Si Si7 0.952888 0.350123 0.121603
Si Si8 0.240224 0.955096 0.267927
O O1 0.209369 0.936551 0.134461
O O2 0.082423 0.823250 0.095151
O O3 0.230904 0.869704 0.930908
O O4 0.027238 0.935169 0.984873
O O5 0.353132 0.312160 0.518711
O O6 0.390386 0.331827 0.738365
O O7 0.448963 0.211644 0.641144
O O8 0.377388 0.494109 0.322887
O O9 0.744316 0.247948 0.350619
O O10 0.616088 0.168278 0.500977
O O11 0.752554 0.114400 0.341569
O O12 0.496933 0.071335 0.124952
O O13 0.627970 0.005505 0.270912
O O14 0.351911 0.156195 0.226624
#
# Coordination Sequence:
#
# PCOD9377628 Si02
#       8
#     8   8   4   8   4   8   8   8
#     4  12  25  45  77 110 147 200 261 332 391 459
#     4  11  24  46  75 109 142 199 274 330 383 451
#     4  12  26  50  80 110 150 204 268 332 388 466
#     4  11  25  46  77 110 148 202 262 329 385 458
#     4  12  30  50  74 116 170 212 242 318 406 498
#     4  11  25  44  72 108 148 199 259 326 382 462
#     4  11  26  47  73 108 159 201 257 315 395 479
#     4  12  28  50  77 114 157 208 263 319 396 480
#
# _framework density 23.555591
#
# number of rings (size 3 to 8) (size 9 to 14) (size 15 to 20)
#    0.000    0.571    2.857    3.857    8.000    2.857 
#    0.000    0.000    0.000    0.000    0.000    0.000 
#    0.000    0.000    0.000    0.000    0.000    0.000 
#
# Total GULP energy -156892.127323 kJ/mol
# GULP energy per Si atom -5603.290262 kJ/mol
# Density = 2.350198 g / cm^3
# Si number density = 23.555591 Si / 1000 Ang^3
#
#
#
# Elastic Constant Matrix: (Units=GPa)
#
#
# Indices 1 2 3 4 5 6 
#
# 1 96.0710 27.0206 27.8956 0.0001 0.0000 0.0000
# 2 27.0206 135.4056 27.4319 0.0000 0.0000 -0.0001
# 3 27.8956 27.4319 99.6024 0.0000 0.0000 -0.0001
# 4 0.0001 0.0000 0.0000 25.2549 0.0000 -0.0001
# 5 0.0000 0.0000 0.0000 0.0000 12.8546 0.0000
# 6 0.0000 -0.0001 -0.0001 -0.0001 0.0000 21.8055
#
#
#
# Elastic Compliance Matrix: (Units=1/GPa)
#
#
# Indices 1 2 3 4 5 6 
#
# 1 0.011719 -0.001772 -0.002794 0.000000 0.000000 0.000000
# 2 -0.001772 0.008090 -0.001732 0.000000 0.000000 0.000000
# 3 -0.002794 -0.001732 0.011299 0.000000 0.000000 0.000000
# 4 0.000000 0.000000 0.000000 0.039596 0.000000 0.000000
# 5 0.000000 0.000000 0.000000 0.000000 0.077793 0.000000
# 6 0.000000 0.000000 0.000000 0.000000 0.000000 0.045860
#
#
# Mechanical properties :
#
#
# Convention : Reuss Voigt Hill
#
# Bulk Modulus (GPa) = 54.01961 55.08615 54.55288
# Shear Modulus (GPa) = 23.46054 28.56506 26.01280
#
# Velocity S-wave (km/s) = 3.15932 3.48611 3.32673
# Velocity P-wave (km/s) = 6.02420 6.29606 6.16163
#
# Compressibility (1/GPa) = 0.01851180
#
# Stress axis : x y z
#
# Youngs Moduli (GPa) = 85.33344 123.61352 88.50093
#
# Poissons Ratio (x) = 0.21910 0.24726
# Poissons Ratio (y) = 0.15125 0.15325
# Poissons Ratio (z) = 0.23841 0.21405
#
# Static dielectric constant tensor:
#      x y z
#    x 1.923720 0.000000 0.000000 
#    y 0.000000 1.891800 0.000000 
#    z 0.000000 0.000000 1.863640 
# 
# From -- ./inp_files/3796.got.cif
#   From: 2010.05.17/outbox.cif.g08.bks.cpg/sg45_2_cif.got.tgz:3796.got - 2010.06.03 19:51:22.
