data_PCOD9377314
_publ_section_title
;
Structure prediction by ZEFSAII (Michael W. Deem and Ramdas Pophale) SiO2 
 PCOD9377314
Probable space group: I B A 2
;
_chemical_formula_sum "Si O2"
_cell_formula_units_Z 40
_cell_length_a 5.174742
_cell_length_b 32.886727
_cell_length_c 9.474774
_cell_angle_alpha 90.000000
_cell_angle_beta 90.000000
_cell_angle_gamma 90.000000
_cell_volume 1612.420142
_symmetry_space_group_name_H-M "I B A 2"
_symmetry_group_IT_number 45
_symmetry_cell_setting 'orthorhombic'
loop_
_space_group_symop_operation_xyz
x,y,z
-x,-y,z
-x,y,1/2+z
x,-y,1/2+z
1/2+x,1/2+y,1/2+z
1/2-x,1/2-y,1/2+z
1/2-x,1/2+y,z
1/2+x,1/2-y,z
loop_
_atom_site_type_symbol
_atom_site_label
_atom_site_fract_x
_atom_site_fract_y
_atom_site_fract_z
Si Si1 0.000000 0.500000 0.990840
Si Si2 0.168243 0.275946 0.423590
Si Si3 0.336184 0.432840 0.354560
Si Si4 0.491056 0.169033 0.669595
Si Si5 0.000000 0.000000 0.023189
Si Si6 0.984691 0.879968 0.108270
O O1 0.910014 0.460750 0.897442
O O2 0.762338 0.497731 0.101185
O O3 0.957547 0.240247 0.404774
O O4 0.105114 0.311397 0.313835
O O5 0.111972 0.294963 0.575912
O O6 0.551480 0.463164 0.416195
O O7 0.367647 0.394362 0.459100
O O8 0.397814 0.417252 0.199700
O O9 0.232726 0.149821 0.598427
O O10 0.731490 0.138131 0.686817
#
# Coordination Sequence:
#
# PCOD9377314 Si02
#       6
#     4   8   8   8   4   8
#     4   8  20  40  66  86 128 160 244 252 332 372
#     4  12  24  45  73  94 134 171 220 265 324 379
#     4  10  24  43  65  96 124 184 208 286 318 389
#     4  12  26  43  64 105 130 173 216 269 320 417
#     4   8  20  38  64  90 120 162 238 264 316 382
#     4  12  26  40  70  92 146 165 222 261 356 380
#
# _framework density 24.807431000000001
#
# number of rings (size 3 to 8) (size 9 to 14) (size 15 to 20)
#    1.200    0.000    0.000    6.000    5.600    0.800 
#    0.000    2.000    0.000    0.000    0.000    0.000 
#    0.000    0.000    0.000    0.000    0.000    0.000 
#
# Total GULP energy -111468.771280 kJ/mol
# GULP energy per Si atom -5573.438564 kJ/mol
# Density = 2.475097 g / cm^3
# Si number density = 24.807431 Si / 1000 Ang^3
#
#
#
# Elastic Constant Matrix: (Units=GPa)
#
#
# Indices 1 2 3 4 5 6 
#
# 1 166.1362 16.2322 3.6358 0.0000 0.0000 0.0000
# 2 16.2322 69.5612 13.7790 0.0001 0.0000 0.0000
# 3 3.6358 13.7790 68.2463 -0.0001 0.0000 0.0000
# 4 0.0000 0.0001 -0.0001 34.3020 0.0000 0.0000
# 5 0.0000 0.0000 0.0000 0.0000 21.4445 0.0000
# 6 0.0000 0.0000 0.0000 0.0000 0.0000 48.1819
#
#
#
# Elastic Compliance Matrix: (Units=1/GPa)
#
#
# Indices 1 2 3 4 5 6 
#
# 1 0.006160 -0.001430 -0.000040 0.000000 0.000000 0.000000
# 2 -0.001430 0.015306 -0.003014 0.000000 0.000000 0.000000
# 3 -0.000040 -0.003014 0.015263 0.000000 0.000000 0.000000
# 4 0.000000 0.000000 0.000000 0.029153 0.000000 0.000000
# 5 0.000000 0.000000 0.000000 0.000000 0.046632 0.000000
# 6 0.000000 0.000000 0.000000 0.000000 0.000000 0.020755
#
#
# Mechanical properties :
#
#
# Convention : Reuss Voigt Hill
#
# Bulk Modulus (GPa) = 36.01911 41.24865 38.63388
# Shear Modulus (GPa) = 33.00543 38.80544 35.90544
#
# Velocity S-wave (km/s) = 3.65151 3.95937 3.80855
# Velocity P-wave (km/s) = 5.68586 6.12909 5.91164
#
# Compressibility (1/GPa) = 0.02776304
#
# Stress axis : x y z
#
# Youngs Moduli (GPa) = 162.34563 65.33179 65.51579
#
# Poissons Ratio (x) = 0.09339 0.00259
# Poissons Ratio (y) = 0.23208 0.19748
# Poissons Ratio (z) = 0.00642 0.19693
#
# Static dielectric constant tensor:
#      x y z
#    x 1.990480 0.000000 0.000000 
#    y 0.000000 2.098390 0.000000 
#    z 0.000000 0.000000 1.919230 
# 
# From -- ./inp_files/2958.got.cif
#   From: 2010.05.17/outbox.cif.g08.bks.cpg/sg45_2_cif.got.tgz:2958.got - 2010.06.03 19:51:22.
