data_PCOD9377967
_publ_section_title
;
Structure prediction by ZEFSAII (Michael W. Deem and Ramdas Pophale) SiO2 
 PCOD9377967
Probable space group: I M A 2
;
_chemical_formula_sum "Si O2"
_cell_formula_units_Z 64
_cell_length_a 7.664380
_cell_length_b 19.263679
_cell_length_c 22.535168
_cell_angle_alpha 90.000000
_cell_angle_beta 90.000000
_cell_angle_gamma 90.000000
_cell_volume 3327.185861
_symmetry_space_group_name_H-M "I M A 2"
_symmetry_group_IT_number 46
_symmetry_cell_setting 'orthorhombic'
loop_
_space_group_symop_operation_xyz
x,y,z
-x,-y,z
1/2-x,y,z
1/2+x,-y,z
1/2+x,1/2+y,1/2+z
1/2-x,1/2-y,1/2+z
-x,1/2+y,1/2+z
x,1/2-y,1/2+z
loop_
_atom_site_type_symbol
_atom_site_label
_atom_site_fract_x
_atom_site_fract_y
_atom_site_fract_z
Si Si1 0.040953 0.076240 0.985830
Si Si2 0.042981 0.271574 0.485827
Si Si3 0.540893 0.075979 0.403666
Si Si4 0.461951 0.720202 0.854304
Si Si5 0.553202 0.314846 0.256099
Si Si6 0.954243 0.121262 0.529844
Si Si7 0.039163 0.920279 0.658720
Si Si8 0.041778 0.075439 0.849051
O O1 0.250000 0.080126 0.985448
O O2 0.978583 0.152348 0.007232
O O3 0.981197 0.074468 0.917180
O O4 0.000000 0.000000 0.012391
O O5 0.250000 0.268672 0.495023
O O6 0.012054 0.261554 0.414745
O O7 0.966832 0.204011 0.518351
O O8 0.750000 0.082916 0.407076
O O9 0.479078 0.141522 0.365867
O O10 0.469793 0.085762 0.470750
O O11 0.500000 0.000000 0.380667
O O12 0.250000 0.722501 0.851850
O O13 0.529144 0.750532 0.791853
O O14 0.750000 0.295077 0.237656
O O15 0.471776 0.360287 0.203267
O O16 0.556943 0.369196 0.310242
O O17 0.750000 0.103086 0.531894
O O18 0.027726 0.095985 0.592374
O O19 0.250000 0.914290 0.660015
O O20 0.000000 0.000000 0.674898
O O21 0.250000 0.088629 0.847346
O O22 0.000000 0.000000 0.823856
#
# Coordination Sequence:
#
# PCOD9377967 Si02
#       8
#     8   8   8   8   8   8   8   8
#     4   9  18  28  40  62  91 120 151 187 228 276
#     4  10  18  30  47  70  94 119 157 200 241 282
#     4   9  17  29  46  68  91 117 147 187 236 284
#     4   9  18  31  46  66  94 125 156 189 236 291
#     4  10  19  31  47  66  91 127 163 198 234 275
#     4   9  19  34  49  67  93 125 160 197 239 287
#     4  10  21  35  50  70  97 129 169 205 236 277
#     4  10  18  28  40  59  88 122 157 191 226 270
#
# _framework density 19.235475999999998
#
# number of rings (size 3 to 8) (size 9 to 14) (size 15 to 20)
#    0.000    2.500    1.250    2.250    0.000    5.500 
#    0.000    0.000    0.000    0.000    0.000    0.875 
#    0.000    4.000    0.000    0.000    0.000    0.250 
#
# Total GULP energy -178246.344180 kJ/mol
# GULP energy per Si atom -5570.198256 kJ/mol
# Density = 1.919170 g / cm^3
# Si number density = 19.235476 Si / 1000 Ang^3
#
#
#
# Elastic Constant Matrix: (Units=GPa)
#
#
# Indices 1 2 3 4 5 6 
#
# 1 40.1150 -10.3231 2.6174 0.0000 0.0000 0.0000
# 2 -10.3231 133.4289 35.3384 0.0000 0.0000 0.0000
# 3 2.6174 35.3384 70.6063 0.0000 0.0000 0.0000
# 4 0.0000 0.0000 0.0000 21.7987 0.0000 0.0000
# 5 0.0000 0.0000 0.0000 0.0000 6.2697 0.0000
# 6 0.0000 0.0000 0.0000 0.0000 0.0000 22.4231
#
#
#
# Elastic Compliance Matrix: (Units=1/GPa)
#
#
# Indices 1 2 3 4 5 6 
#
# 1 0.025741 0.002587 -0.002249 0.000000 0.000000 0.000000
# 2 0.002587 0.008900 -0.004550 0.000000 0.000000 0.000000
# 3 -0.002249 -0.004550 0.016524 0.000000 0.000000 0.000000
# 4 0.000000 0.000000 0.000000 0.045874 0.000000 0.000000
# 5 0.000000 0.000000 0.000000 0.000000 0.159498 0.000000
# 6 0.000000 0.000000 0.000000 0.000000 0.000000 0.044597
#
#
# Mechanical properties :
#
#
# Convention : Reuss Voigt Hill
#
# Bulk Modulus (GPa) = 23.39721 33.26840 28.33280
# Shear Modulus (GPa) = 15.44137 24.53278 19.98707
#
# Velocity S-wave (km/s) = 2.83637 3.57514 3.22696
# Velocity P-wave (km/s) = 4.78713 5.86302 5.35218
#
# Compressibility (1/GPa) = 0.04274014
#
# Stress axis : x y z
#
# Youngs Moduli (GPa) = 38.84875 112.36035 60.51856
#
# Poissons Ratio (x) = -0.29070 0.13611
# Poissons Ratio (y) = -0.10051 0.27538
# Poissons Ratio (z) = 0.08738 0.51128
#
# Static dielectric constant tensor:
#      x y z
#    x 1.752100 0.000000 0.000000 
#    y 0.000000 1.749930 0.000000 
#    z 0.000000 0.000000 1.677960 
# 
# From -- ./inp_files/21416.got.cif
#   From: 2010.05.17/outbox.cif.g08.bks.cpg/sg46_11_cif.got.tgz:21416.got - 2010.06.03 19:58:25.
