data_PCOD9377479
_publ_section_title
;
Structure prediction by ZEFSAII (Michael W. Deem and Ramdas Pophale) SiO2 
 PCOD9377479
Probable space group: I B A 2
;
_chemical_formula_sum "Si O2"
_cell_formula_units_Z 52
_cell_length_a 10.182534
_cell_length_b 8.324680
_cell_length_c 24.766207
_cell_angle_alpha 90.000000
_cell_angle_beta 90.000000
_cell_angle_gamma 90.000000
_cell_volume 2099.340652
_symmetry_space_group_name_H-M "I B A 2"
_symmetry_group_IT_number 45
_symmetry_cell_setting 'orthorhombic'
loop_
_space_group_symop_operation_xyz
x,y,z
-x,-y,z
-x,y,1/2+z
x,-y,1/2+z
1/2+x,1/2+y,1/2+z
1/2-x,1/2-y,1/2+z
1/2-x,1/2+y,z
1/2+x,1/2-y,z
loop_
_atom_site_type_symbol
_atom_site_label
_atom_site_fract_x
_atom_site_fract_y
_atom_site_fract_z
Si Si1 0.000000 0.500000 0.207101
Si Si2 0.500000 0.000000 0.875570
Si Si3 0.782437 0.702796 0.243235
Si Si4 0.989763 0.174123 0.309233
Si Si5 0.781607 0.054889 0.055542
Si Si6 0.000000 0.000000 0.972860
Si Si7 0.418213 0.149022 0.473471
Si Si8 0.646652 0.797565 0.133685
O O1 0.131254 0.462410 0.240073
O O2 0.021854 0.645882 0.166766
O O3 0.519963 0.838044 0.841797
O O4 0.382826 0.944464 0.917004
O O5 0.653062 0.690658 0.280768
O O6 0.740878 0.742003 0.182222
O O7 0.891601 0.826117 0.265743
O O8 0.000000 0.000000 0.338326
O O9 0.879291 0.155421 0.093033
O O10 0.706932 0.937866 0.096594
O O11 0.685209 0.170210 0.021270
O O12 0.869033 0.989967 0.007736
O O13 0.994137 0.810444 0.953787
O O14 0.500000 0.000000 0.498877
#
# Coordination Sequence:
#
# PCOD9377479 Si02
#       8
#     4   4   8   8   8   4   8   8
#     4  12  25  45  72 110 168 212 271 333 406 476
#     4  10  29  55  84 114 152 206 275 339 422 474
#     4  12  27  50  80 116 165 212 275 330 413 498
#     4  12  29  53  81 118 158 213 270 349 415 491
#     4  12  26  44  71 112 156 208 266 319 394 480
#     4  12  26  46  76 106 156 206 258 326 404 456
#     4  10  26  52  76 110 152 200 266 342 390 477
#     4  12  26  43  73 111 160 218 253 333 391 487
#
# _framework density 24.769684000000002
#
# number of rings (size 3 to 8) (size 9 to 14) (size 15 to 20)
#    0.462    0.000    4.615    2.308    8.615    0.000 
#    5.538    0.000    0.000    0.000    0.000    0.000 
#    0.000    0.000    0.000    0.000    0.000    0.000 
#
# Total GULP energy -144766.110562 kJ/mol
# GULP energy per Si atom -5567.927329 kJ/mol
# Density = 2.471331 g / cm^3
# Si number density = 24.769684 Si / 1000 Ang^3
#
#
#
# Elastic Constant Matrix: (Units=GPa)
#
#
# Indices 1 2 3 4 5 6 
#
# 1 94.6439 23.9642 16.6686 0.0000 0.0000 0.0000
# 2 23.9642 160.9963 40.9300 0.0000 0.0000 0.0000
# 3 16.6686 40.9300 89.0922 0.0000 0.0000 0.0000
# 4 0.0000 0.0000 0.0000 84.9208 0.0000 0.0000
# 5 0.0000 0.0000 0.0000 0.0000 39.9305 0.0000
# 6 0.0000 0.0000 0.0000 0.0000 0.0000 29.6970
#
#
#
# Elastic Compliance Matrix: (Units=1/GPa)
#
#
# Indices 1 2 3 4 5 6 
#
# 1 0.011154 -0.001279 -0.001499 0.000000 0.000000 0.000000
# 2 -0.001279 0.007179 -0.003059 0.000000 0.000000 0.000000
# 3 -0.001499 -0.003059 0.012910 0.000000 0.000000 0.000000
# 4 0.000000 0.000000 0.000000 0.011776 0.000000 0.000000
# 5 0.000000 0.000000 0.000000 0.000000 0.025043 0.000000
# 6 0.000000 0.000000 0.000000 0.000000 0.000000 0.033673
#
#
# Mechanical properties :
#
#
# Convention : Reuss Voigt Hill
#
# Bulk Modulus (GPa) = 51.10168 56.42868 53.76518
# Shear Modulus (GPa) = 41.68979 48.45430 45.07205
#
# Velocity S-wave (km/s) = 4.10701 4.42769 4.27036
# Velocity P-wave (km/s) = 6.57005 6.99786 6.78732
#
# Compressibility (1/GPa) = 0.01956883
#
# Stress axis : x y z
#
# Youngs Moduli (GPa) = 89.65532 139.28730 77.45842
#
# Poissons Ratio (x) = 0.17816 0.11612
# Poissons Ratio (y) = 0.11468 0.23694
# Poissons Ratio (z) = 0.13441 0.42608
#
# Static dielectric constant tensor:
#      x y z
#    x 2.018450 0.000000 0.000000 
#    y 0.000000 2.184510 0.000000 
#    z 0.000000 0.000000 1.996520 
# 
# From -- ./inp_files/10013.got.cif
#   From: 2010.05.17/outbox.cif.g08.bks.cpg/sg45_6_cif.got.tgz:10013.got - 2010.06.03 19:51:22.
