data_PCOD9377075
_publ_section_title
;
Structure prediction by ZEFSAII (Michael W. Deem and Ramdas Pophale) SiO2 
 PCOD9377075
Probable space group: I B A 2
;
_chemical_formula_sum "Si O2"
_cell_formula_units_Z 40
_cell_length_a 19.433664
_cell_length_b 9.254512
_cell_length_c 8.343986
_cell_angle_alpha 90.000000
_cell_angle_beta 90.000000
_cell_angle_gamma 90.000000
_cell_volume 1500.658178
_symmetry_space_group_name_H-M "I B A 2"
_symmetry_group_IT_number 45
_symmetry_cell_setting 'orthorhombic'
loop_
_space_group_symop_operation_xyz
x,y,z
-x,-y,z
-x,y,1/2+z
x,-y,1/2+z
1/2+x,1/2+y,1/2+z
1/2-x,1/2-y,1/2+z
1/2-x,1/2+y,z
1/2+x,1/2-y,z
loop_
_atom_site_type_symbol
_atom_site_label
_atom_site_fract_x
_atom_site_fract_y
_atom_site_fract_z
Si Si1 0.114464 0.707681 0.422460
Si Si2 0.474621 0.346918 0.981418
Si Si3 0.570813 0.953787 0.151138
Si Si4 0.769399 0.117213 0.288819
Si Si5 0.678770 0.661927 0.922603
O O1 0.098788 0.593511 0.561016
O O2 0.125711 0.605062 0.271873
O O3 0.178019 0.814047 0.421838
O O4 0.044662 0.799759 0.392710
O O5 0.500000 0.500000 0.063040
O O6 0.401389 0.379268 0.899271
O O7 0.452214 0.191297 0.057270
O O8 0.500000 0.000000 0.238921
O O9 0.697418 0.185258 0.343493
O O10 0.776291 0.949119 0.320327
O O11 0.797460 0.150046 0.109171
#
# Coordination Sequence:
#
# PCOD9377075 Si02
#       5
#     8   8   8   8   8
#     4  11  24  46  73 109 151 195 259 315 394 458
#     4  11  23  45  77 117 149 198 255 331 388 462
#     4  10  22  42  69 107 149 191 240 314 380 464
#     4  12  28  53  77 113 154 210 260 327 392 483
#     4  12  28  53  78 114 158 209 264 325 398 474
#
# _framework density 26.654969999999999
#
# number of rings (size 3 to 8) (size 9 to 14) (size 15 to 20)
#    0.000    0.800    4.000    3.000    2.800    4.000 
#   10.800    0.000    0.000    0.000    0.000    0.000 
#    0.000    0.000    0.000    0.000    0.000    0.000 
#
# Total GULP energy -111703.393792 kJ/mol
# GULP energy per Si atom -5585.169690 kJ/mol
# Density = 2.659430 g / cm^3
# Si number density = 26.654970 Si / 1000 Ang^3
#
#
#
# Elastic Constant Matrix: (Units=GPa)
#
#
# Indices 1 2 3 4 5 6 
#
# 1 157.1859 47.8401 28.6745 0.0000 0.0000 0.0000
# 2 47.8401 124.7546 27.4253 0.0000 0.0000 0.0000
# 3 28.6745 27.4253 74.1902 0.0000 0.0000 0.0000
# 4 0.0000 0.0000 0.0000 30.3630 0.0000 0.0000
# 5 0.0000 0.0000 0.0000 0.0000 26.7006 0.0000
# 6 0.0000 0.0000 0.0000 0.0000 0.0000 57.9480
#
#
#
# Elastic Compliance Matrix: (Units=1/GPa)
#
#
# Indices 1 2 3 4 5 6 
#
# 1 0.007462 -0.002425 -0.001988 0.000000 0.000000 0.000000
# 2 -0.002425 0.009513 -0.002579 0.000000 0.000000 0.000000
# 3 -0.001988 -0.002579 0.015201 0.000000 0.000000 0.000000
# 4 0.000000 0.000000 0.000000 0.032935 0.000000 0.000000
# 5 0.000000 0.000000 0.000000 0.000000 0.037452 0.000000
# 6 0.000000 0.000000 0.000000 0.000000 0.000000 0.017257
#
#
# Mechanical properties :
#
#
# Convention : Reuss Voigt Hill
#
# Bulk Modulus (GPa) = 54.96945 62.66782 58.81864
# Shear Modulus (GPa) = 35.74814 39.81505 37.78160
#
# Velocity S-wave (km/s) = 3.66614 3.86906 3.76896
# Velocity P-wave (km/s) = 6.21193 6.59707 6.40739
#
# Compressibility (1/GPa) = 0.01819192
#
# Stress axis : x y z
#
# Youngs Moduli (GPa) = 134.00342 105.12436 65.78651
#
# Poissons Ratio (x) = 0.25489 0.13078
# Poissons Ratio (y) = 0.32491 0.16968
# Poissons Ratio (z) = 0.26639 0.27115
#
# Static dielectric constant tensor:
#      x y z
#    x 2.164650 0.000000 0.000000 
#    y 0.000000 2.108500 0.000000 
#    z 0.000000 0.000000 2.147440 
# 
# From -- ./inp_files/2443.got.cif
#   From: 2010.05.17/outbox.cif.g08.bks.cpg/sg45_2_cif.got.tgz:2443.got - 2010.06.03 19:51:22.
