data_PCOD9377162
_publ_section_title
;
Structure prediction by ZEFSAII (Michael W. Deem and Ramdas Pophale) SiO2 
 PCOD9377162
Probable space group: I B A 2
;
_chemical_formula_sum "Si O2"
_cell_formula_units_Z 40
_cell_length_a 12.711225
_cell_length_b 5.193509
_cell_length_c 27.179776
_cell_angle_alpha 90.000000
_cell_angle_beta 90.000000
_cell_angle_gamma 90.000000
_cell_volume 1794.296326
_symmetry_space_group_name_H-M "I B A 2"
_symmetry_group_IT_number 45
_symmetry_cell_setting 'orthorhombic'
loop_
_space_group_symop_operation_xyz
x,y,z
-x,-y,z
-x,y,1/2+z
x,-y,1/2+z
1/2+x,1/2+y,1/2+z
1/2-x,1/2-y,1/2+z
1/2-x,1/2+y,z
1/2+x,1/2-y,z
loop_
_atom_site_type_symbol
_atom_site_label
_atom_site_fract_x
_atom_site_fract_y
_atom_site_fract_z
Si Si1 0.684812 0.733415 0.358790
Si Si2 0.935719 0.745290 0.949963
Si Si3 0.683766 0.031544 0.232076
Si Si4 0.500000 0.000000 0.546203
Si Si5 0.000000 0.500000 0.802682
Si Si6 0.185164 0.503898 0.616309
O O1 0.733308 0.459036 0.345757
O O2 0.668966 0.741578 0.418153
O O3 0.572005 0.804693 0.334696
O O4 0.000000 0.500000 0.930862
O O5 0.000000 0.000000 0.939359
O O6 0.940622 0.694682 0.008483
O O7 0.774228 0.242900 0.241545
O O8 0.586403 0.115249 0.265547
O O9 0.656528 0.016740 0.174137
O O10 0.409471 0.906879 0.582405
O O11 0.223293 0.795178 0.606835
#
# Coordination Sequence:
#
# PCOD9377162 Si02
#       6
#     8   8   8   4   4   8
#     4  12  27  44  67  97 129 171 218 271 331 388
#     4  10  23  44  63  91 130 165 217 264 322 389
#     4  10  23  43  63  96 132 170 214 261 325 387
#     4  10  24  40  66  98 126 170 218 266 312 388
#     4  12  24  44  70  96 128 174 214 280 312 398
#     4  10  23  40  64  95 133 169 212 264 319 382
#
# _framework density 22.292862
#
# number of rings (size 3 to 8) (size 9 to 14) (size 15 to 20)
#    0.600    0.800    1.000    3.000    2.800    4.000 
#    0.000    6.000    0.000    0.000    0.000    0.000 
#    0.000    0.000    0.000    0.000    0.000    0.000 
#
# Total GULP energy -111552.777350 kJ/mol
# GULP energy per Si atom -5577.638867 kJ/mol
# Density = 2.224212 g / cm^3
# Si number density = 22.292862 Si / 1000 Ang^3
#
#
#
# Elastic Constant Matrix: (Units=GPa)
#
#
# Indices 1 2 3 4 5 6 
#
# 1 73.4739 4.6830 53.7688 0.0000 0.0000 0.0000
# 2 4.6830 104.1172 21.5080 0.0000 0.0000 0.0000
# 3 53.7688 21.5080 124.2043 0.0000 0.0000 0.0000
# 4 0.0000 0.0000 0.0000 4.0530 0.0000 0.0000
# 5 0.0000 0.0000 0.0000 0.0000 45.0656 0.0000
# 6 0.0000 0.0000 0.0000 0.0000 0.0000 25.0129
#
#
#
# Elastic Compliance Matrix: (Units=1/GPa)
#
#
# Indices 1 2 3 4 5 6 
#
# 1 0.020007 0.000922 -0.008821 0.000000 0.000000 0.000000
# 2 0.000922 0.010003 -0.002132 0.000000 0.000000 0.000000
# 3 -0.008821 -0.002132 0.012239 0.000000 0.000000 0.000000
# 4 0.000000 0.000000 0.000000 0.246732 0.000000 0.000000
# 5 0.000000 0.000000 0.000000 0.000000 0.022190 0.000000
# 6 0.000000 0.000000 0.000000 0.000000 0.000000 0.039979
#
#
# Mechanical properties :
#
#
# Convention : Reuss Voigt Hill
#
# Bulk Modulus (GPa) = 45.06736 51.30167 48.18452
# Shear Modulus (GPa) = 13.20635 29.61533 21.41084
#
# Velocity S-wave (km/s) = 2.43657 3.64877 3.10245
# Velocity P-wave (km/s) = 5.30809 6.38858 5.87323
#
# Compressibility (1/GPa) = 0.02218901
#
# Stress axis : x y z
#
# Youngs Moduli (GPa) = 49.98368 99.96608 81.70688
#
# Poissons Ratio (x) = -0.09220 0.72071
# Poissons Ratio (y) = -0.04610 0.17416
# Poissons Ratio (z) = 0.44089 0.21308
#
# Static dielectric constant tensor:
#      x y z
#    x 1.788270 0.000000 0.000000 
#    y 0.000000 1.783010 0.000000 
#    z 0.000000 0.000000 1.896060 
# 
# From -- ./inp_files/9994.got.cif
#   From: 2010.05.17/outbox.cif.g08.bks.cpg/sg45_5_cif.got.tgz:9994.got - 2010.06.03 19:51:22.
