data_PCOD9377876
_publ_section_title
;
Structure prediction by ZEFSAII (Michael W. Deem and Ramdas Pophale) SiO2 
 PCOD9377876
Probable space group: I M A 2
;
_chemical_formula_sum "Si O2"
_cell_formula_units_Z 48
_cell_length_a 15.232756
_cell_length_b 7.533556
_cell_length_c 17.771342
_cell_angle_alpha 90.000000
_cell_angle_beta 90.000000
_cell_angle_gamma 90.000000
_cell_volume 2039.382701
_symmetry_space_group_name_H-M "I M A 2"
_symmetry_group_IT_number 46
_symmetry_cell_setting 'orthorhombic'
loop_
_space_group_symop_operation_xyz
x,y,z
-x,-y,z
1/2-x,y,z
1/2+x,-y,z
1/2+x,1/2+y,1/2+z
1/2-x,1/2-y,1/2+z
-x,1/2+y,1/2+z
x,1/2-y,1/2+z
loop_
_atom_site_type_symbol
_atom_site_label
_atom_site_fract_x
_atom_site_fract_y
_atom_site_fract_z
Si Si1 0.148472 0.014903 0.375000
Si Si2 0.856587 0.159652 0.813163
Si Si3 0.348207 0.902457 0.070927
Si Si4 0.642871 0.868981 0.927805
Si Si5 0.656424 0.813852 0.207483
Si Si6 0.024989 0.787151 0.178260
O O1 0.250000 0.997599 0.398129
O O2 0.107349 0.169868 0.424515
O O3 0.148633 0.092299 0.289160
O O4 0.114669 0.816328 0.370886
O O5 0.750000 0.171525 0.803241
O O6 0.879751 0.975059 0.852052
O O7 0.908245 0.210053 0.738793
O O8 0.250000 0.828035 0.056479
O O9 0.425182 0.775198 0.099197
O O10 0.338054 0.037950 0.141686
O O11 0.379106 0.016595 0.000207
O O12 0.750000 0.859956 0.928123
O O13 0.750000 0.715219 0.207884
O O14 0.570553 0.702112 0.187859
O O15 0.000000 0.000000 0.191835
#
# Coordination Sequence:
#
# PCOD9377876 Si02
#       6
#     8   8   8   8   8   8
#     4   9  16  31  54  79 108 144 182 223 265 319
#     4  10  18  32  56  83 110 145 180 221 272 324
#     4   9  16  30  51  77 109 147 178 219 276 326
#     4   9  19  32  53  85 115 141 181 225 270 326
#     4   9  17  31  54  74  99 144 185 220 270 321
#     4  10  17  29  54  78 106 141 187 221 265 327
#
# _framework density 23.536532999999999
#
# number of rings (size 3 to 8) (size 9 to 14) (size 15 to 20)
#    0.000    2.667    3.333    0.500    0.000    0.000 
#    0.000    5.833    3.667    0.000    0.000    0.000 
#    0.000    0.000    0.000    0.000    0.000    0.000 
#
# Total GULP energy -133834.658120 kJ/mol
# GULP energy per Si atom -5576.444088 kJ/mol
# Density = 2.348296 g / cm^3
# Si number density = 23.536533 Si / 1000 Ang^3
#
#
#
# Elastic Constant Matrix: (Units=GPa)
#
#
# Indices 1 2 3 4 5 6 
#
# 1 107.5053 -2.4018 -3.7964 0.0000 0.0000 0.0000
# 2 -2.4018 72.2555 -7.1136 0.0000 0.0000 0.0000
# 3 -3.7964 -7.1136 30.8298 0.0000 0.0000 0.0000
# 4 0.0000 0.0000 0.0000 17.7190 0.0000 0.0000
# 5 0.0000 0.0000 0.0000 0.0000 -48.6208 0.0000
# 6 0.0000 0.0000 0.0000 0.0000 0.0000 2.8437
#
#
#
# Elastic Compliance Matrix: (Units=1/GPa)
#
#
# Indices 1 2 3 4 5 6 
#
# 1 0.009356 0.000434 0.001252 0.000000 0.000000 0.000000
# 2 0.000434 0.014182 0.003326 0.000000 0.000000 0.000000
# 3 0.001252 0.003326 0.033358 0.000000 0.000000 0.000000
# 4 0.000000 0.000000 0.000000 0.056437 0.000000 0.000000
# 5 0.000000 0.000000 0.000000 0.000000 -0.020567 0.000000
# 6 0.000000 0.000000 0.000000 0.000000 0.000000 0.351652
#
#
# Mechanical properties :
#
#
# Convention : Reuss Voigt Hill
#
# Bulk Modulus (GPa) = 14.94328 20.44077 17.69203
# Shear Modulus (GPa) = 10.94814 9.31521 10.13167
#
# Velocity S-wave (km/s) = 2.15909 1.99157 2.07702
# Velocity P-wave (km/s) = 3.54659 3.74059 3.64488
#
# Compressibility (1/GPa) = 0.06691971
#
# Stress axis : x y z
#
# Youngs Moduli (GPa) = 106.88567 70.51375 29.97807
#
# Poissons Ratio (x) = -0.03062 -0.03754
# Poissons Ratio (y) = -0.04642 -0.09970
# Poissons Ratio (z) = -0.13385 -0.23451
#
# Static dielectric constant tensor:
#      x y z
#    x 2.024520 0.000000 0.000000 
#    y 0.000000 1.923990 0.000000 
#    z 0.000000 0.000000 1.879440 
# 
# From -- ./inp_files/19400.got.cif
#   From: 2010.05.17/outbox.cif.g08.bks.cpg/sg46_10_cif.got.tgz:19400.got - 2010.06.03 19:58:25.
