data_PCOD9377943
_publ_section_title
;
Structure prediction by ZEFSAII (Michael W. Deem and Ramdas Pophale) SiO2 
 PCOD9377943
Probable space group: I M A 2
;
_chemical_formula_sum "Si O2"
_cell_formula_units_Z 48
_cell_length_a 29.946724
_cell_length_b 7.488802
_cell_length_c 8.661671
_cell_angle_alpha 90.000000
_cell_angle_beta 90.000000
_cell_angle_gamma 90.000000
_cell_volume 1942.510397
_symmetry_space_group_name_H-M "I M A 2"
_symmetry_group_IT_number 46
_symmetry_cell_setting 'orthorhombic'
loop_
_space_group_symop_operation_xyz
x,y,z
-x,-y,z
1/2-x,y,z
1/2+x,-y,z
1/2+x,1/2+y,1/2+z
1/2-x,1/2-y,1/2+z
-x,1/2+y,1/2+z
x,1/2-y,1/2+z
loop_
_atom_site_type_symbol
_atom_site_label
_atom_site_fract_x
_atom_site_fract_y
_atom_site_fract_z
Si Si1 0.839737 0.382387 0.740290
Si Si2 0.250000 0.605504 0.563992
Si Si3 0.063518 0.421546 0.121013
Si Si4 0.158810 0.491251 0.099808
Si Si5 0.000000 0.000000 0.372222
Si Si6 0.250000 0.497634 0.200119
Si Si7 0.934179 0.150910 0.124935
Si Si8 0.500000 0.000000 0.875073
O O1 0.795311 0.448979 0.653402
O O2 0.840685 0.165128 0.715348
O O3 0.885632 0.432814 0.653719
O O4 0.840900 0.438219 0.921079
O O5 0.250000 0.552615 0.382406
O O6 0.250000 0.821901 0.592108
O O7 0.115029 0.368668 0.122686
O O8 0.069237 0.636767 0.113312
O O9 0.030949 0.383017 0.261047
O O10 0.031328 0.378128 0.980236
O O11 0.204998 0.398712 0.148226
O O12 0.964407 0.099693 0.268585
O O13 0.961561 0.082439 0.980441
#
# Coordination Sequence:
#
# PCOD9377943 Si02
#       8
#     8   4   8   8   4   4   8   4
#     4  10  18  28  44  62  89 124 158 190 228 277
#     4  10  18  26  40  62  88 118 159 190 219 276
#     4  10  20  32  49  67  95 129 162 195 237 279
#     4  10  18  28  44  62  89 124 158 190 228 277
#     4  10  18  34  44  70  90 122 168 198 228 278
#     4  10  18  26  40  62  88 118 159 190 219 276
#     4  10  20  32  49  67  95 129 162 195 237 279
#     4  10  22  30  48  70  90 126 168 202 232 278
#
# _framework density 24.710291000000002
#
# number of rings (size 3 to 8) (size 9 to 14) (size 15 to 20)
#    0.000    2.000    1.667    5.500    9.333    0.000 
#    0.000    0.000    0.000    0.000    0.000    0.000 
#    0.000    0.000    0.000  105.000    0.000   11.667 
#
# Total GULP energy -134086.168265 kJ/mol
# GULP energy per Si atom -5586.923678 kJ/mol
# Density = 2.465405 g / cm^3
# Si number density = 24.710291 Si / 1000 Ang^3
#
#
#
# Elastic Constant Matrix: (Units=GPa)
#
#
# Indices 1 2 3 4 5 6 
#
# 1 293.0658 14.0991 77.7266 0.0000 0.0000 0.0000
# 2 14.0991 46.8128 19.2187 0.0000 0.0000 0.0000
# 3 77.7266 19.2187 165.6861 0.0000 0.0000 0.0000
# 4 0.0000 0.0000 0.0000 -29.2650 0.0000 0.0000
# 5 0.0000 0.0000 0.0000 0.0000 77.6907 0.0000
# 6 0.0000 0.0000 0.0000 0.0000 0.0000 23.1572
#
#
#
# Elastic Compliance Matrix: (Units=1/GPa)
#
#
# Indices 1 2 3 4 5 6 
#
# 1 0.003906 -0.000445 -0.001781 0.000000 0.000000 0.000000
# 2 -0.000445 0.022481 -0.002399 0.000000 0.000000 0.000000
# 3 -0.001781 -0.002399 0.007149 0.000000 0.000000 0.000000
# 4 0.000000 0.000000 0.000000 -0.034170 0.000000 0.000000
# 5 0.000000 0.000000 0.000000 0.000000 0.012872 0.000000
# 6 0.000000 0.000000 0.000000 0.000000 0.000000 0.043183
#
#
# Mechanical properties :
#
#
# Convention : Reuss Voigt Hill
#
# Bulk Modulus (GPa) = 41.17574 80.85038 61.01306
# Shear Modulus (GPa) = 68.71471 40.61793 54.66632
#
# Velocity S-wave (km/s) = 5.27906 4.05874 4.70860
# Velocity P-wave (km/s) = 7.33877 7.39965 7.36927
#
# Compressibility (1/GPa) = 0.02428615
#
# Stress axis : x y z
#
# Youngs Moduli (GPa) = 256.02316 44.48279 139.87785
#
# Poissons Ratio (x) = 0.01981 0.24908
# Poissons Ratio (y) = 0.11402 0.33553
# Poissons Ratio (z) = 0.45589 0.10670
#
# Static dielectric constant tensor:
#      x y z
#    x 2.056160 0.000000 0.000000 
#    y 0.000000 2.034310 0.000000 
#    z 0.000000 0.000000 1.933340 
# 
# From -- ./inp_files/8158.got.cif
#   From: 2010.05.17/outbox.cif.g08.bks.cpg/sg46_5_cif.got.tgz:8158.got - 2010.06.03 19:58:25.
