data_PCOD9377186
_publ_section_title
;
Structure prediction by ZEFSAII (Michael W. Deem and Ramdas Pophale) SiO2 
 PCOD9377186
Probable space group: I B A 2
;
_chemical_formula_sum "Si O2"
_cell_formula_units_Z 40
_cell_length_a 23.993646
_cell_length_b 4.979800
_cell_length_c 13.717559
_cell_angle_alpha 90.000000
_cell_angle_beta 90.000000
_cell_angle_gamma 90.000000
_cell_volume 1639.022761
_symmetry_space_group_name_H-M "I B A 2"
_symmetry_group_IT_number 45
_symmetry_cell_setting 'orthorhombic'
loop_
_space_group_symop_operation_xyz
x,y,z
-x,-y,z
-x,y,1/2+z
x,-y,1/2+z
1/2+x,1/2+y,1/2+z
1/2-x,1/2-y,1/2+z
1/2-x,1/2+y,z
1/2+x,1/2-y,z
loop_
_atom_site_type_symbol
_atom_site_label
_atom_site_fract_x
_atom_site_fract_y
_atom_site_fract_z
Si Si1 0.786560 0.697265 0.697130
Si Si2 0.286560 0.197265 0.968074
Si Si3 0.872159 0.000000 0.832602
Si Si4 0.459809 0.756937 0.972250
Si Si5 0.459808 0.756937 0.192953
O O1 0.766456 0.394447 0.715242
O O2 0.800773 0.723620 0.582602
O O3 0.835249 0.812724 0.762843
O O4 0.233544 0.394448 0.949962
O O5 0.335249 0.312724 0.902361
O O6 0.910618 0.188773 0.765801
O O7 0.910618 0.811226 0.899403
O O8 0.500000 0.500000 0.974318
O O9 0.500000 0.000000 0.944523
O O10 0.438646 0.808017 0.082602
O O11 0.500000 0.500000 0.190886
O O12 0.500000 0.000000 0.220681
#
# Coordination Sequence:
#
# PCOD9377186 Si02
#       5
#     8   8   8   8   8
#     4  10  23  42  63  94 134 170 211 268 331 394
#     4  10  23  42  63  94 134 170 211 268 331 394
#     4  12  23  40  70  98 124 172 227 272 324 394
#     4  10  24  44  63  90 130 171 215 271 331 389
#     4  10  24  44  63  90 130 171 215 271 331 389
#
# _framework density 24.404788
#
# number of rings (size 3 to 8) (size 9 to 14) (size 15 to 20)
#    0.000    1.600    0.000    3.000    0.000    9.600 
#    0.000   12.000    0.000    3.600    0.000    0.000 
#    0.000    0.000    0.000    0.000    0.000    0.000 
#
# Total GULP energy -112314.066478 kJ/mol
# GULP energy per Si atom -5615.703324 kJ/mol
# Density = 2.434924 g / cm^3
# Si number density = 24.404788 Si / 1000 Ang^3
#
#
#
# Elastic Constant Matrix: (Units=GPa)
#
#
# Indices 1 2 3 4 5 6 
#
# 1 114.3577 22.3753 92.1370 0.0000 0.0000 0.0000
# 2 22.3753 121.6790 31.0183 0.0000 0.0000 0.0000
# 3 92.1370 31.0183 162.7838 0.0000 0.0000 0.0000
# 4 0.0000 0.0000 0.0000 27.8057 0.0000 0.0000
# 5 0.0000 0.0000 0.0000 0.0000 39.3030 0.0000
# 6 0.0000 0.0000 0.0000 0.0000 0.0000 32.4613
#
#
#
# Elastic Compliance Matrix: (Units=1/GPa)
#
#
# Indices 1 2 3 4 5 6 
#
# 1 0.016127 -0.000671 -0.009000 0.000000 0.000000 0.000000
# 2 -0.000671 0.008666 -0.001271 0.000000 0.000000 0.000000
# 3 -0.009000 -0.001271 0.011480 0.000000 0.000000 0.000000
# 4 0.000000 0.000000 0.000000 0.035964 0.000000 0.000000
# 5 0.000000 0.000000 0.000000 0.000000 0.025443 0.000000
# 6 0.000000 0.000000 0.000000 0.000000 0.000000 0.030806
#
#
# Mechanical properties :
#
#
# Convention : Reuss Voigt Hill
#
# Bulk Modulus (GPa) = 69.50717 76.65354 73.08035
# Shear Modulus (GPa) = 32.22330 36.80000 34.51165
#
# Velocity S-wave (km/s) = 3.63763 3.88738 3.76458
# Velocity P-wave (km/s) = 6.79602 7.18515 6.99329
#
# Compressibility (1/GPa) = 0.01438701
#
# Stress axis : x y z
#
# Youngs Moduli (GPa) = 62.00675 115.39521 87.11103
#
# Poissons Ratio (x) = 0.07746 0.78402
# Poissons Ratio (y) = 0.04162 0.11075
# Poissons Ratio (z) = 0.55808 0.14671
#
# Static dielectric constant tensor:
#      x y z
#    x 1.889340 0.000000 0.000000 
#    y 0.000000 1.876190 0.000000 
#    z 0.000000 0.000000 1.962450 
# 
# From -- ./inp_files/7004.got.cif
#   From: 2010.05.17/outbox.cif.g08.bks.cpg/sg45_4_cif.got.tgz:7004.got - 2010.06.03 19:51:22.
