data_PCOD9377569
_publ_section_title
;
Structure prediction by ZEFSAII (Michael W. Deem and Ramdas Pophale) SiO2 
 PCOD9377569
Probable space group: I B A 2
;
_chemical_formula_sum "Si O2"
_cell_formula_units_Z 48
_cell_length_a 11.197570
_cell_length_b 16.117541
_cell_length_c 11.996921
_cell_angle_alpha 90.000000
_cell_angle_beta 90.000000
_cell_angle_gamma 90.000000
_cell_volume 2165.171833
_symmetry_space_group_name_H-M "I B A 2"
_symmetry_group_IT_number 45
_symmetry_cell_setting 'orthorhombic'
loop_
_space_group_symop_operation_xyz
x,y,z
-x,-y,z
-x,y,1/2+z
x,-y,1/2+z
1/2+x,1/2+y,1/2+z
1/2-x,1/2-y,1/2+z
1/2-x,1/2+y,z
1/2+x,1/2-y,z
loop_
_atom_site_type_symbol
_atom_site_label
_atom_site_fract_x
_atom_site_fract_y
_atom_site_fract_z
Si Si1 0.735873 0.419936 0.740790
Si Si2 0.039269 0.142869 0.595561
Si Si3 0.694489 0.298305 0.398243
Si Si4 0.172345 0.398996 0.706363
Si Si5 0.557234 0.800729 0.729089
Si Si6 0.703358 0.637849 0.483471
O O1 0.603076 0.408879 0.692697
O O2 0.796964 0.504683 0.705446
O O3 0.816120 0.342302 0.698254
O O4 0.733915 0.415011 0.874662
O O5 0.138739 0.152800 0.500392
O O6 0.996154 0.230624 0.648189
O O7 0.920356 0.108934 0.537824
O O8 0.744405 0.353894 0.297987
O O9 0.586819 0.244132 0.345418
O O10 0.794121 0.232659 0.438855
O O11 0.201751 0.366032 0.582996
O O12 0.038584 0.373696 0.737439
#
# Coordination Sequence:
#
# PCOD9377569 Si02
#       6
#     8   8   8   8   8   8
#     4  11  28  45  69 109 148 186 239 300 372 414
#     4  12  22  45  73 101 139 187 241 290 351 435
#     4  11  23  43  73 103 133 186 250 287 349 429
#     4  12  25  47  70 107 147 182 240 307 362 416
#     4  11  22  47  71 102 138 190 244 292 349 428
#     4  11  25  45  69 101 140 189 241 285 360 434
#
# _framework density 22.169139999999999
#
# number of rings (size 3 to 8) (size 9 to 14) (size 15 to 20)
#    0.000    0.667    3.333    5.500    2.333    0.667 
#    0.000    1.667    0.000    0.000    0.000    0.000 
#    0.000    0.000    0.000    0.000    0.000    0.000 
#
# Total GULP energy -134247.397653 kJ/mol
# GULP energy per Si atom -5593.641569 kJ/mol
# Density = 2.211868 g / cm^3
# Si number density = 22.169140 Si / 1000 Ang^3
#
#
#
# Elastic Constant Matrix: (Units=GPa)
#
#
# Indices 1 2 3 4 5 6 
#
# 1 88.6141 -9.2418 24.0300 0.0000 0.0000 0.0000
# 2 -9.2418 45.4213 13.7491 0.0000 0.0000 0.0000
# 3 24.0300 13.7491 113.8576 0.0000 0.0000 0.0000
# 4 0.0000 0.0000 0.0000 19.9496 0.0000 0.0000
# 5 0.0000 0.0000 0.0000 0.0000 19.1388 0.0000
# 6 0.0000 0.0000 0.0000 0.0000 0.0000 20.4467
#
#
#
# Elastic Compliance Matrix: (Units=1/GPa)
#
#
# Indices 1 2 3 4 5 6 
#
# 1 0.012473 0.003461 -0.003050 0.000000 0.000000 0.000000
# 2 0.003461 0.023812 -0.003606 0.000000 0.000000 0.000000
# 3 -0.003050 -0.003606 0.009862 0.000000 0.000000 0.000000
# 4 0.000000 0.000000 0.000000 0.050126 0.000000 0.000000
# 5 0.000000 0.000000 0.000000 0.000000 0.052250 0.000000
# 6 0.000000 0.000000 0.000000 0.000000 0.000000 0.048908
#
#
# Mechanical properties :
#
#
# Convention : Reuss Voigt Hill
#
# Bulk Modulus (GPa) = 25.15289 33.88527 29.51908
# Shear Modulus (GPa) = 23.03367 26.53074 24.78220
#
# Velocity S-wave (km/s) = 3.22684 3.46315 3.34708
# Velocity P-wave (km/s) = 5.02533 5.59547 5.31804
#
# Compressibility (1/GPa) = 0.03975686
#
# Stress axis : x y z
#
# Youngs Moduli (GPa) = 80.17260 41.99577 101.39775
#
# Poissons Ratio (x) = -0.14536 0.30931
# Poissons Ratio (y) = -0.27750 0.36564
# Poissons Ratio (z) = 0.24456 0.15144
#
# Static dielectric constant tensor:
#      x y z
#    x 1.830600 0.000000 0.000000 
#    y 0.000000 1.825960 0.000000 
#    z 0.000000 0.000000 1.785120 
# 
# From -- ./inp_files/3678.got.cif
#   From: 2010.05.17/outbox.cif.g08.bks.cpg/sg45_2_cif.got.tgz:3678.got - 2010.06.03 19:51:22.
