data_PCOD9377438
_publ_section_title
;
Structure prediction by ZEFSAII (Michael W. Deem and Ramdas Pophale) SiO2 
 PCOD9377438
Probable space group: I B A 2
;
_chemical_formula_sum "Si O2"
_cell_formula_units_Z 32
_cell_length_a 4.804984
_cell_length_b 28.318369
_cell_length_c 8.143251
_cell_angle_alpha 90.000000
_cell_angle_beta 90.000000
_cell_angle_gamma 90.000000
_cell_volume 1108.046544
_symmetry_space_group_name_H-M "I B A 2"
_symmetry_group_IT_number 45
_symmetry_cell_setting 'orthorhombic'
loop_
_space_group_symop_operation_xyz
x,y,z
-x,-y,z
-x,y,1/2+z
x,-y,1/2+z
1/2+x,1/2+y,1/2+z
1/2-x,1/2-y,1/2+z
1/2-x,1/2+y,z
1/2+x,1/2-y,z
loop_
_atom_site_type_symbol
_atom_site_label
_atom_site_fract_x
_atom_site_fract_y
_atom_site_fract_z
Si Si1 0.943783 0.847229 0.761330
Si Si2 0.696551 0.216201 0.543243
Si Si3 0.687766 0.906382 0.490013
Si Si4 0.253968 0.464402 0.304063
O O1 0.767768 0.818703 0.894065
O O2 0.738904 0.862070 0.612281
O O3 0.184024 0.812457 0.697495
O O4 0.116137 0.892175 0.836725
O O5 0.390938 0.237199 0.538262
O O6 0.791077 0.945368 0.618975
O O7 0.389616 0.923756 0.421961
O O8 0.500000 0.500000 0.350812
O O9 0.000000 0.500000 0.291065
#
# Coordination Sequence:
#
# PCOD9377438 Si02
#       4
#     8   8   8   8
#     4  10  25  47  80 121 164 217 274 337 407 483
#     4  11  24  46  75 116 166 218 271 332 401 480
#     4  11  27  50  82 120 163 212 274 339 411 491
#     4  12  29  53  82 117 158 209 266 338 418 494
#
# _framework density 28.879650999999999
#
# number of rings (size 3 to 8) (size 9 to 14) (size 15 to 20)
#    0.000    1.000    0.000    3.750    0.000   22.000 
#    0.000    0.000    0.000    3.000    0.000    0.000 
#    0.000    0.000    0.000    0.000    0.000    0.000 
#
# Total GULP energy -89721.552448 kJ/mol
# GULP energy per Si atom -5607.597028 kJ/mol
# Density = 2.881392 g / cm^3
# Si number density = 28.879651 Si / 1000 Ang^3
#
#
#
# Elastic Constant Matrix: (Units=GPa)
#
#
# Indices 1 2 3 4 5 6 
#
# 1 155.2760 95.7720 80.4371 0.0001 0.0000 0.0000
# 2 95.7720 167.3854 66.2434 0.0006 0.0000 0.0001
# 3 80.4371 66.2434 165.9191 0.0011 0.0001 0.0003
# 4 0.0001 0.0006 0.0011 69.2546 0.0001 0.0001
# 5 0.0000 0.0000 0.0001 0.0001 72.7130 0.0001
# 6 0.0000 0.0001 0.0003 0.0001 0.0001 60.3939
#
#
#
# Elastic Compliance Matrix: (Units=1/GPa)
#
#
# Indices 1 2 3 4 5 6 
#
# 1 0.011425 -0.005160 -0.003479 0.000000 0.000000 0.000000
# 2 -0.005160 0.009426 -0.001262 0.000000 0.000000 0.000000
# 3 -0.003479 -0.001262 0.008217 0.000000 0.000000 0.000000
# 4 0.000000 0.000000 0.000000 0.014439 0.000000 0.000000
# 5 0.000000 0.000000 0.000000 0.000000 0.013753 0.000000
# 6 0.000000 0.000000 0.000000 0.000000 0.000000 0.016558
#
#
# Mechanical properties :
#
#
# Convention : Reuss Voigt Hill
#
# Bulk Modulus (GPa) = 107.90793 108.16506 108.03650
# Shear Modulus (GPa) = 51.70191 56.88085 54.29138
#
# Velocity S-wave (km/s) = 4.23573 4.44281 4.34051
# Velocity P-wave (km/s) = 7.83375 7.99082 7.91267
#
# Compressibility (1/GPa) = 0.00926716
#
# Stress axis : x y z
#
# Youngs Moduli (GPa) = 87.52820 106.08858 121.69695
#
# Poissons Ratio (x) = 0.54745 0.42332
# Poissons Ratio (y) = 0.45167 0.15354
# Poissons Ratio (z) = 0.30447 0.13385
#
# Static dielectric constant tensor:
#      x y z
#    x 2.236600 0.000000 0.000000 
#    y 0.000000 1.938810 0.000000 
#    z 0.000000 0.000000 2.222520 
# 
# From -- ./inp_files/761.got.cif
#   From: 2010.05.17/outbox.cif.g08.bks.cpg/sg45_1_cif.got.tgz:761.got - 2010.06.03 19:51:22.
