data_PCOD9377095
_publ_section_title
;
Structure prediction by ZEFSAII (Michael W. Deem and Ramdas Pophale) SiO2 
 PCOD9377095
Probable space group: I B A 2
;
_chemical_formula_sum "Si O2"
_cell_formula_units_Z 36
_cell_length_a 5.593687
_cell_length_b 18.108744
_cell_length_c 13.369543
_cell_angle_alpha 90.000000
_cell_angle_beta 90.000000
_cell_angle_gamma 90.000000
_cell_volume 1354.263124
_symmetry_space_group_name_H-M "I B A 2"
_symmetry_group_IT_number 45
_symmetry_cell_setting 'orthorhombic'
loop_
_space_group_symop_operation_xyz
x,y,z
-x,-y,z
-x,y,1/2+z
x,-y,1/2+z
1/2+x,1/2+y,1/2+z
1/2-x,1/2-y,1/2+z
1/2-x,1/2+y,z
1/2+x,1/2-y,z
loop_
_atom_site_type_symbol
_atom_site_label
_atom_site_fract_x
_atom_site_fract_y
_atom_site_fract_z
Si Si1 0.891977 0.924830 0.009580
Si Si2 0.621985 0.921321 0.197168
Si Si3 0.881803 0.770741 0.518775
Si Si4 0.500000 0.500000 0.822604
Si Si5 0.627313 0.215455 0.291915
O O1 0.689521 0.898302 0.084717
O O2 0.079383 0.858184 0.000196
O O3 0.000000 0.000000 0.057755
O O4 0.827233 0.956335 0.900621
O O5 0.860750 0.938602 0.260470
O O6 0.458707 0.863178 0.253193
O O7 0.500000 0.000000 0.189594
O O8 0.127029 0.743270 0.568781
O O9 0.867014 0.726394 0.413032
O O10 0.899569 0.233197 0.261686
#
# Coordination Sequence:
#
# PCOD9377095 Si02
#       5
#     8   8   8   4   8
#     4  10  25  45  73 109 148 195 255 319 376 458
#     4  12  27  44  77 114 152 196 262 324 385 457
#     4  10  22  43  69 106 145 198 249 301 381 455
#     4  10  22  48  70 102 148 200 252 304 392 454
#     4  10  24  44  71 107 147 201 252 304 382 459
#
# _framework density 26.582723000000001
#
# number of rings (size 3 to 8) (size 9 to 14) (size 15 to 20)
#    0.667    0.889    1.111    2.667    9.333    4.444 
#    0.000    0.000    0.000    0.000    0.000    0.000 
#    0.000    0.000    0.000    0.000    0.000    0.000 
#
# Total GULP energy -100777.672586 kJ/mol
# GULP energy per Si atom -5598.759588 kJ/mol
# Density = 2.652222 g / cm^3
# Si number density = 26.582723 Si / 1000 Ang^3
#
#
#
# Elastic Constant Matrix: (Units=GPa)
#
#
# Indices 1 2 3 4 5 6 
#
# 1 157.2298 50.0919 59.1670 0.0000 0.0000 0.0000
# 2 50.0919 141.7774 42.6588 0.0000 0.0000 0.0000
# 3 59.1670 42.6588 139.9307 0.0000 0.0000 0.0000
# 4 0.0000 0.0000 0.0000 19.0791 0.0000 0.0000
# 5 0.0000 0.0000 0.0000 0.0000 48.7005 0.0000
# 6 0.0000 0.0000 0.0000 0.0000 0.0000 59.8772
#
#
#
# Elastic Compliance Matrix: (Units=1/GPa)
#
#
# Indices 1 2 3 4 5 6 
#
# 1 0.008049 -0.002004 -0.002793 0.000000 0.000000 0.000000
# 2 -0.002004 0.008264 -0.001672 0.000000 0.000000 0.000000
# 3 -0.002793 -0.001672 0.008837 0.000000 0.000000 0.000000
# 4 0.000000 0.000000 0.000000 0.052413 0.000000 0.000000
# 5 0.000000 0.000000 0.000000 0.000000 0.020534 0.000000
# 6 0.000000 0.000000 0.000000 0.000000 0.000000 0.016701
#
#
# Mechanical properties :
#
#
# Convention : Reuss Voigt Hill
#
# Bulk Modulus (GPa) = 81.87607 82.53037 82.20322
# Shear Modulus (GPa) = 37.93421 44.66603 41.30012
#
# Velocity S-wave (km/s) = 3.78170 4.10355 3.94591
# Velocity P-wave (km/s) = 7.06652 7.31889 7.19381
#
# Compressibility (1/GPa) = 0.01221358
#
# Stress axis : x y z
#
# Youngs Moduli (GPa) = 124.23307 121.00108 113.16026
#
# Poissons Ratio (x) = 0.24245 0.31602
# Poissons Ratio (y) = 0.24892 0.18923
# Poissons Ratio (z) = 0.34695 0.20234
#
# Static dielectric constant tensor:
#      x y z
#    x 2.107290 0.000000 0.000000 
#    y 0.000000 2.077560 0.000000 
#    z 0.000000 0.000000 2.100530 
# 
# From -- ./inp_files/5077.got.cif
#   From: 2010.05.17/outbox.cif.g08.bks.cpg/sg45_3_cif.got.tgz:5077.got - 2010.06.03 19:51:22.
