data_PCOD9377621
_publ_section_title
;
Structure prediction by ZEFSAII (Michael W. Deem and Ramdas Pophale) SiO2 
 PCOD9377621
Probable space group: I B A 2
;
_chemical_formula_sum "Si O2"
_cell_formula_units_Z 32
_cell_length_a 8.308291
_cell_length_b 9.291318
_cell_length_c 14.435699
_cell_angle_alpha 90.000000
_cell_angle_beta 90.000000
_cell_angle_gamma 90.000000
_cell_volume 1114.363405
_symmetry_space_group_name_H-M "I B A 2"
_symmetry_group_IT_number 45
_symmetry_cell_setting 'orthorhombic'
loop_
_space_group_symop_operation_xyz
x,y,z
-x,-y,z
-x,y,1/2+z
x,-y,1/2+z
1/2+x,1/2+y,1/2+z
1/2-x,1/2-y,1/2+z
1/2-x,1/2+y,z
1/2+x,1/2-y,z
loop_
_atom_site_type_symbol
_atom_site_label
_atom_site_fract_x
_atom_site_fract_y
_atom_site_fract_z
Si Si1 0.838257 0.687184 0.807270
Si Si2 0.901654 0.780852 0.447443
Si Si3 0.829076 0.082540 0.568745
Si Si4 0.861852 0.646397 0.188579
O O1 0.691692 0.625885 0.869707
O O2 0.765910 0.840587 0.772540
O O3 0.967345 0.699071 0.888458
O O4 0.954280 0.628622 0.724947
O O5 0.790662 0.666522 0.499445
O O6 0.994114 0.876491 0.522668
O O7 0.853722 0.184390 0.659279
O O8 0.720140 0.948070 0.607595
#
# Coordination Sequence:
#
# PCOD9377621 Si02
#       4
#     8   8   8   8
#     4   9  21  46  74 109 154 205 257 319 395 475
#     4   9  21  46  74 109 154 205 257 319 395 475
#     4  11  24  44  74 111 151 199 260 324 390 470
#     4  11  24  44  74 111 151 199 260 324 390 470
#
# _framework density 28.715947
#
# number of rings (size 3 to 8) (size 9 to 14) (size 15 to 20)
#    0.000    2.000    0.000    1.500    0.000    8.000 
#    0.000   45.000    0.000    0.000    0.000    0.000 
#    0.000    0.000    0.000    0.000    0.000    0.000 
#
# Total GULP energy -89080.274674 kJ/mol
# GULP energy per Si atom -5567.517167 kJ/mol
# Density = 2.865059 g / cm^3
# Si number density = 28.715947 Si / 1000 Ang^3
#
#
#
# Elastic Constant Matrix: (Units=GPa)
#
#
# Indices 1 2 3 4 5 6 
#
# 1 225.0552 27.7947 70.6381 0.0000 0.0000 0.0000
# 2 27.7947 101.7941 13.2564 0.0000 0.0000 0.0000
# 3 70.6381 13.2564 99.7176 0.0000 0.0000 0.0000
# 4 0.0000 0.0000 0.0000 518.0784 0.0000 0.0000
# 5 0.0000 0.0000 0.0000 0.0000 181.6561 0.0000
# 6 0.0000 0.0000 0.0000 0.0000 0.0000 -181.4275
#
#
#
# Elastic Compliance Matrix: (Units=1/GPa)
#
#
# Indices 1 2 3 4 5 6 
#
# 1 0.005826 -0.001072 -0.003985 0.000000 0.000000 0.000000
# 2 -0.001072 0.010194 -0.000596 0.000000 0.000000 0.000000
# 3 -0.003985 -0.000596 0.012930 0.000000 0.000000 0.000000
# 4 0.000000 0.000000 0.000000 0.001930 0.000000 0.000000
# 5 0.000000 0.000000 0.000000 0.000000 0.005505 0.000000
# 6 0.000000 0.000000 0.000000 0.000000 0.000000 -0.005512
#
#
# Mechanical properties :
#
#
# Convention : Reuss Voigt Hill
#
# Bulk Modulus (GPa) = 56.67157 72.21615 64.44386
# Shear Modulus (GPa) = 104.03382 124.65325 114.34354
#
# Velocity S-wave (km/s) = 6.02555 6.59570 6.31706
# Velocity P-wave (km/s) = 8.25759 9.12181 8.70044
#
# Compressibility (1/GPa) = 0.01764553
#
# Stress axis : x y z
#
# Youngs Moduli (GPa) = 171.63037 98.09653 77.33749
#
# Poissons Ratio (x) = 0.10516 0.30818
# Poissons Ratio (y) = 0.18398 0.04608
# Poissons Ratio (z) = 0.68392 0.05845
#
# Static dielectric constant tensor:
#      x y z
#    x 4.054770 0.000000 0.000000 
#    y 0.000000 -21.791910 0.000000 
#    z 0.000000 0.000000 2.368760 
# 
# From -- ./inp_files/5354.got.cif
#   From: 2010.05.17/outbox.cif.g08.bks.cpg/sg45_3_cif.got.tgz:5354.got - 2010.06.03 19:51:22.
