data_PCOD9377667
_publ_section_title
;
Structure prediction by ZEFSAII (Michael W. Deem and Ramdas Pophale) SiO2 
 PCOD9377667
Probable space group: I B A 2
;
_chemical_formula_sum "Si O2"
_cell_formula_units_Z 44
_cell_length_a 13.080709
_cell_length_b 7.051454
_cell_length_c 18.202613
_cell_angle_alpha 90.000000
_cell_angle_beta 90.000000
_cell_angle_gamma 90.000000
_cell_volume 1678.972942
_symmetry_space_group_name_H-M "I B A 2"
_symmetry_group_IT_number 45
_symmetry_cell_setting 'orthorhombic'
loop_
_space_group_symop_operation_xyz
x,y,z
-x,-y,z
-x,y,1/2+z
x,-y,1/2+z
1/2+x,1/2+y,1/2+z
1/2-x,1/2-y,1/2+z
1/2-x,1/2+y,z
1/2+x,1/2-y,z
loop_
_atom_site_type_symbol
_atom_site_label
_atom_site_fract_x
_atom_site_fract_y
_atom_site_fract_z
Si Si1 0.877609 0.542261 0.375000
Si Si2 0.663735 0.878547 0.062604
Si Si3 0.654136 0.425062 0.437009
Si Si4 0.594843 0.856445 0.225553
Si Si5 0.000000 0.000000 0.676924
Si Si6 0.897385 0.204361 0.540576
O O1 0.893177 0.429293 0.541309
O O2 0.773978 0.482023 0.421551
O O3 0.854796 0.438137 0.298207
O O4 0.000000 0.500000 0.390967
O O5 0.627559 0.727721 0.874295
O O6 0.653696 0.858435 0.149228
O O7 0.628235 0.708975 0.009360
O O8 0.783943 0.124312 0.552460
O O9 0.589651 0.613314 0.458834
O O10 0.563798 0.636694 0.229597
O O11 0.500000 0.000000 0.215847
O O12 0.048208 0.857923 0.615833
#
# Coordination Sequence:
#
# PCOD9377667 Si02
#       6
#     8   8   8   8   4   8
#     4  11  28  53  76 114 170 218 266 331 410 511
#     4  12  22  44  74 107 147 192 266 333 387 468
#     4  12  24  49  74 110 157 212 267 328 411 480
#     4  11  25  49  74 115 162 206 268 340 407 491
#     4  12  24  44  76 118 150 206 272 346 412 466
#     4  12  23  40  73 111 145 194 265 335 404 462
#
# _framework density 26.206498
#
# number of rings (size 3 to 8) (size 9 to 14) (size 15 to 20)
#    0.000    0.364    7.273    0.000    0.000    6.545 
#    6.545    0.000    0.000    0.000    0.000    0.000 
#    0.000    0.000    0.000    0.000    0.000    0.000 
#
# Total GULP energy -122703.018883 kJ/mol
# GULP energy per Si atom -5577.409949 kJ/mol
# Density = 2.614685 g / cm^3
# Si number density = 26.206498 Si / 1000 Ang^3
#
#
#
# Elastic Constant Matrix: (Units=GPa)
#
#
# Indices 1 2 3 4 5 6 
#
# 1 93.8739 30.4687 26.6793 0.0000 0.0000 0.0000
# 2 30.4687 171.4393 42.4467 0.0000 0.0000 0.0000
# 3 26.6793 42.4467 157.0653 0.0000 0.0000 0.0000
# 4 0.0000 0.0000 0.0000 39.4314 0.0000 0.0000
# 5 0.0000 0.0000 0.0000 0.0000 24.8436 0.0000
# 6 0.0000 0.0000 0.0000 0.0000 0.0000 45.6510
#
#
#
# Elastic Compliance Matrix: (Units=1/GPa)
#
#
# Indices 1 2 3 4 5 6 
#
# 1 0.011633 -0.001691 -0.001519 0.000000 0.000000 0.000000
# 2 -0.001691 0.006497 -0.001469 0.000000 0.000000 0.000000
# 3 -0.001519 -0.001469 0.007022 0.000000 0.000000 0.000000
# 4 0.000000 0.000000 0.000000 0.025360 0.000000 0.000000
# 5 0.000000 0.000000 0.000000 0.000000 0.040252 0.000000
# 6 0.000000 0.000000 0.000000 0.000000 0.000000 0.021905
#
#
# Mechanical properties :
#
#
# Convention : Reuss Voigt Hill
#
# Bulk Modulus (GPa) = 63.31406 69.06311 66.18858
# Shear Modulus (GPa) = 39.27966 43.50412 41.39189
#
# Velocity S-wave (km/s) = 3.87570 4.07879 3.97854
# Velocity P-wave (km/s) = 6.65133 6.97085 6.81296
#
# Compressibility (1/GPa) = 0.01579428
#
# Stress axis : x y z
#
# Youngs Moduli (GPa) = 85.96045 153.91320 142.41643
#
# Poissons Ratio (x) = 0.26033 0.21632
# Poissons Ratio (y) = 0.14540 0.20915
# Poissons Ratio (z) = 0.13057 0.22603
#
# Static dielectric constant tensor:
#      x y z
#    x 2.059250 0.000000 0.000000 
#    y 0.000000 2.157060 0.000000 
#    z 0.000000 0.000000 2.137800 
# 
# From -- ./inp_files/6707.got.cif
#   From: 2010.05.17/outbox.cif.g08.bks.cpg/sg45_4_cif.got.tgz:6707.got - 2010.06.03 19:51:22.
