data_PCOD9377540
_publ_section_title
;
Structure prediction by ZEFSAII (Michael W. Deem and Ramdas Pophale) SiO2 
 PCOD9377540
Probable space group: I B A 2
;
_chemical_formula_sum "Si O2"
_cell_formula_units_Z 48
_cell_length_a 11.192442
_cell_length_b 8.850928
_cell_length_c 20.143518
_cell_angle_alpha 90.000000
_cell_angle_beta 90.000000
_cell_angle_gamma 90.000000
_cell_volume 1995.487361
_symmetry_space_group_name_H-M "I B A 2"
_symmetry_group_IT_number 45
_symmetry_cell_setting 'orthorhombic'
loop_
_space_group_symop_operation_xyz
x,y,z
-x,-y,z
-x,y,1/2+z
x,-y,1/2+z
1/2+x,1/2+y,1/2+z
1/2-x,1/2-y,1/2+z
1/2-x,1/2+y,z
1/2+x,1/2-y,z
loop_
_atom_site_type_symbol
_atom_site_label
_atom_site_fract_x
_atom_site_fract_y
_atom_site_fract_z
Si Si1 0.063025 0.181348 0.190870
Si Si2 0.411474 0.140376 0.442903
Si Si3 0.588526 0.140376 0.796159
Si Si4 0.738842 0.958999 0.693206
Si Si5 0.238842 0.541001 0.045856
Si Si6 0.563025 0.318653 0.548192
O O1 0.978786 0.236352 0.251137
O O2 0.877123 0.985675 0.192215
O O3 1.000000 0.213867 0.119531
O O4 0.180571 0.293078 0.198156
O O5 0.375347 0.196085 0.369531
O O6 0.311175 0.058394 0.485959
O O7 0.478785 0.263648 0.487925
O O8 0.500000 0.000000 0.434569
O O9 0.500000 0.000000 0.804494
O O10 0.688825 0.058394 0.753103
O O11 0.694473 1.000000 0.619531
O O12 0.377123 0.485676 0.046847
O O13 0.180571 0.706922 0.040906
#
# Coordination Sequence:
#
# PCOD9377540 Si02
#       6
#     8   8   8   8   8   8
#     4  11  23  41  65  95 132 167 220 274 325 391
#     4   9  20  39  64  91 128 175 213 263 334 400
#     4   9  20  39  64  91 128 175 213 263 334 400
#     4  11  22  40  65  94 129 169 220 270 323 391
#     4  11  22  40  65  94 129 169 220 270 323 391
#     4  11  23  41  65  95 132 167 220 274 325 391
#
# _framework density 24.054276000000002
#
# number of rings (size 3 to 8) (size 9 to 14) (size 15 to 20)
#    0.000    1.667    3.333    1.000    0.000    2.000 
#    0.000    0.000    0.000    2.000    0.000    0.000 
#    0.000    0.000    0.000    0.000    0.000    0.000 
#
# Total GULP energy -133778.794163 kJ/mol
# GULP energy per Si atom -5574.116423 kJ/mol
# Density = 2.399953 g / cm^3
# Si number density = 24.054276 Si / 1000 Ang^3
#
#
#
# Elastic Constant Matrix: (Units=GPa)
#
#
# Indices 1 2 3 4 5 6 
#
# 1 96.1756 22.3689 53.5324 0.0000 0.0000 0.0000
# 2 22.3689 127.5573 58.3043 0.0000 0.0000 0.0000
# 3 53.5324 58.3043 220.9228 0.0000 0.0000 0.0000
# 4 0.0000 0.0000 0.0000 17.9359 0.0000 0.0000
# 5 0.0000 0.0000 0.0000 0.0000 11.1064 0.0000
# 6 0.0000 0.0000 0.0000 0.0000 0.0000 41.7675
#
#
#
# Elastic Compliance Matrix: (Units=1/GPa)
#
#
# Indices 1 2 3 4 5 6 
#
# 1 0.012107 -0.000889 -0.002699 0.000000 0.000000 0.000000
# 2 -0.000889 0.008980 -0.002155 0.000000 0.000000 0.000000
# 3 -0.002699 -0.002155 0.005749 0.000000 0.000000 0.000000
# 4 0.000000 0.000000 0.000000 0.055754 0.000000 0.000000
# 5 0.000000 0.000000 0.000000 0.000000 0.090038 0.000000
# 6 0.000000 0.000000 0.000000 0.000000 0.000000 0.023942
#
#
# Mechanical properties :
#
#
# Convention : Reuss Voigt Hill
#
# Bulk Modulus (GPa) = 65.14460 79.22965 72.18712
# Shear Modulus (GPa) = 23.45515 34.85865 29.15690
#
# Velocity S-wave (km/s) = 3.12604 3.81092 3.48534
# Velocity P-wave (km/s) = 6.33803 7.23696 6.80236
#
# Compressibility (1/GPa) = 0.01535047
#
# Stress axis : x y z
#
# Youngs Moduli (GPa) = 82.59857 111.35387 173.94205
#
# Poissons Ratio (x) = 0.09905 0.46945
# Poissons Ratio (y) = 0.07347 0.37476
# Poissons Ratio (z) = 0.22292 0.23991
#
# Static dielectric constant tensor:
#      x y z
#    x 2.022280 0.000000 0.000000 
#    y 0.000000 2.153860 0.000000 
#    z 0.000000 0.000000 1.986550 
# 
# From -- ./inp_files/9027.got.cif
#   From: 2010.05.17/outbox.cif.g08.bks.cpg/sg45_5_cif.got.tgz:9027.got - 2010.06.03 19:51:22.
