data_PCOD9377272
_publ_section_title
;
Structure prediction by ZEFSAII (Michael W. Deem and Ramdas Pophale) SiO2 
 PCOD9377272
Probable space group: I B A 2
;
_chemical_formula_sum "Si O2"
_cell_formula_units_Z 48
_cell_length_a 16.290480
_cell_length_b 13.424021
_cell_length_c 9.194732
_cell_angle_alpha 90.000000
_cell_angle_beta 90.000000
_cell_angle_gamma 90.000000
_cell_volume 2010.738434
_symmetry_space_group_name_H-M "I B A 2"
_symmetry_group_IT_number 45
_symmetry_cell_setting 'orthorhombic'
loop_
_space_group_symop_operation_xyz
x,y,z
-x,-y,z
-x,y,1/2+z
x,-y,1/2+z
1/2+x,1/2+y,1/2+z
1/2-x,1/2-y,1/2+z
1/2-x,1/2+y,z
1/2+x,1/2-y,z
loop_
_atom_site_type_symbol
_atom_site_label
_atom_site_fract_x
_atom_site_fract_y
_atom_site_fract_z
Si Si1 0.343502 0.179666 0.501340
Si Si2 0.618047 0.953039 0.934523
Si Si3 0.234595 0.292542 0.303875
Si Si4 0.094864 0.164631 0.412823
Si Si5 0.000000 0.000000 0.018419
Si Si6 0.500000 0.000000 0.686012
Si Si7 0.007496 0.789696 0.647163
O O1 0.318365 0.257211 0.376194
O O2 0.276996 0.180976 0.634490
O O3 0.427553 0.216068 0.575056
O O4 0.353432 0.068148 0.441506
O O5 0.692816 0.879580 0.901093
O O6 0.556902 0.939799 0.797903
O O7 0.563213 0.942380 0.080299
O O8 0.176471 0.196119 0.333806
O O9 0.074700 0.048530 0.429024
O O10 0.081067 0.213458 0.571267
O O11 0.020478 0.211562 0.318090
O O12 0.031389 0.095248 0.106660
#
# Coordination Sequence:
#
# PCOD9377272 Si02
#       7
#     8   8   8   8   4   4   8
#     4  11  26  44  64  96 136 178 225 277 342 416
#     4  11  24  45  68 105 131 186 230 294 349 407
#     4  11  26  44  64  96 136 178 225 277 342 416
#     4   9  20  36  60  90 122 159 212 262 320 388
#     4   8  18  34  62  92 118 156 196 260 322 372
#     4  10  24  38  76  98 136 168 234 286 344 410
#     4   9  20  36  60  90 122 159 212 262 320 388
#
# _framework density 23.871825000000001
#
# number of rings (size 3 to 8) (size 9 to 14) (size 15 to 20)
#    1.000    1.000    1.667    0.500    7.000    2.667 
#    0.000    3.333    0.000    0.000    0.000    0.000 
#    0.000    0.000    0.000    0.000    0.000    0.000 
#
# Total GULP energy -133869.185843 kJ/mol
# GULP energy per Si atom -5577.882743 kJ/mol
# Density = 2.381749 g / cm^3
# Si number density = 23.871825 Si / 1000 Ang^3
#
#
#
# Elastic Constant Matrix: (Units=GPa)
#
#
# Indices 1 2 3 4 5 6 
#
# 1 48.5397 15.7367 11.9386 0.0000 0.0000 0.0000
# 2 15.7367 150.4254 17.6660 0.0000 0.0000 0.0000
# 3 11.9386 17.6660 114.5242 0.0000 0.0000 0.0000
# 4 0.0000 0.0000 0.0000 30.1067 0.0000 0.0000
# 5 0.0000 0.0000 0.0000 0.0000 34.0896 0.0000
# 6 0.0000 0.0000 0.0000 0.0000 0.0000 30.0095
#
#
#
# Elastic Compliance Matrix: (Units=1/GPa)
#
#
# Indices 1 2 3 4 5 6 
#
# 1 0.021745 -0.002046 -0.001951 0.000000 0.000000 0.000000
# 2 -0.002046 0.006963 -0.000861 0.000000 0.000000 0.000000
# 3 -0.001951 -0.000861 0.009068 0.000000 0.000000 0.000000
# 4 0.000000 0.000000 0.000000 0.033215 0.000000 0.000000
# 5 0.000000 0.000000 0.000000 0.000000 0.029334 0.000000
# 6 0.000000 0.000000 0.000000 0.000000 0.000000 0.033323
#
#
# Mechanical properties :
#
#
# Convention : Reuss Voigt Hill
#
# Bulk Modulus (GPa) = 35.63763 44.90801 40.27282
# Shear Modulus (GPa) = 32.74029 36.71768 34.72898
#
# Velocity S-wave (km/s) = 3.70740 3.92614 3.81834
# Velocity P-wave (km/s) = 5.76954 6.27740 6.02882
#
# Compressibility (1/GPa) = 0.02806023
#
# Stress axis : x y z
#
# Youngs Moduli (GPa) = 45.98799 143.61794 110.27819
#
# Poissons Ratio (x) = 0.29380 0.21518
# Poissons Ratio (y) = 0.09408 0.09493
# Poissons Ratio (z) = 0.08973 0.12363
#
# Static dielectric constant tensor:
#      x y z
#    x 1.964950 0.000000 0.000000 
#    y 0.000000 1.952480 0.000000 
#    z 0.000000 0.000000 1.939350 
# 
# From -- ./inp_files/2089.got.cif
#   From: 2010.05.17/outbox.cif.g08.bks.cpg/sg45_2_cif.got.tgz:2089.got - 2010.06.03 19:51:22.
