data_PCOD9377534
_publ_section_title
;
Structure prediction by ZEFSAII (Michael W. Deem and Ramdas Pophale) SiO2 
 PCOD9377534
Probable space group: I B A 2
;
_chemical_formula_sum "Si O2"
_cell_formula_units_Z 64
_cell_length_a 18.123012
_cell_length_b 17.870313
_cell_length_c 8.957717
_cell_angle_alpha 90.000000
_cell_angle_beta 90.000000
_cell_angle_gamma 90.000000
_cell_volume 2901.081135
_symmetry_space_group_name_H-M "I B A 2"
_symmetry_group_IT_number 45
_symmetry_cell_setting 'orthorhombic'
loop_
_space_group_symop_operation_xyz
x,y,z
-x,-y,z
-x,y,1/2+z
x,-y,1/2+z
1/2+x,1/2+y,1/2+z
1/2-x,1/2-y,1/2+z
1/2-x,1/2+y,z
1/2+x,1/2-y,z
loop_
_atom_site_type_symbol
_atom_site_label
_atom_site_fract_x
_atom_site_fract_y
_atom_site_fract_z
Si Si1 0.135458 0.962884 0.793540
Si Si2 0.088569 0.083820 0.597364
Si Si3 0.713616 0.031110 0.606947
Si Si4 0.721099 0.691336 0.077030
Si Si5 0.464350 0.327442 0.703093
Si Si6 0.255303 0.331598 0.407989
Si Si7 0.164121 0.603314 0.398017
Si Si8 0.915803 0.755987 0.927333
O O1 0.212970 0.979578 0.711960
O O2 0.101418 0.880662 0.760594
O O3 0.085398 0.030669 0.738484
O O4 0.126358 0.965550 0.970048
O O5 0.143204 0.153634 0.606445
O O6 0.008038 0.117793 0.588097
O O7 0.739005 0.087235 0.474815
O O8 0.662644 0.068329 0.733469
O O9 0.673127 0.961785 0.524421
O O10 0.764725 0.680136 0.233375
O O11 0.714544 0.775619 0.022223
O O12 0.761100 0.649601 0.939431
O O13 0.436101 0.261375 0.600687
O O14 0.520951 0.292364 0.822920
O O15 0.340808 0.305607 0.415557
O O16 0.103649 0.669253 0.399311
#
# Coordination Sequence:
#
# PCOD9377534 Si02
#       8
#     8   8   8   8   8   8   8   8
#     4  12  25  40  61 100 142 183 227 271 347 430
#     4  12  26  39  63  96 144 184 223 272 341 427
#     4  12  22  42  68 102 139 177 219 296 359 422
#     4  11  22  39  61  99 138 180 225 287 353 417
#     4  12  25  44  67  91 138 191 233 282 330 417
#     4  11  23  38  67  97 140 175 232 290 349 421
#     4  11  25  43  69 104 139 178 232 291 369 420
#     4  11  25  45  67 101 135 183 239 285 343 420
#
# _framework density 22.060741
#
# number of rings (size 3 to 8) (size 9 to 14) (size 15 to 20)
#    0.000    0.500    6.250    2.625    3.500    1.000 
#    0.000    1.250    0.000    2.250    0.000    0.000 
#    0.000    0.000    0.000    0.000    0.000    0.000 
#
# Total GULP energy -178543.605181 kJ/mol
# GULP energy per Si atom -5579.487662 kJ/mol
# Density = 2.201053 g / cm^3
# Si number density = 22.060741 Si / 1000 Ang^3
#
#
#
# Elastic Constant Matrix: (Units=GPa)
#
#
# Indices 1 2 3 4 5 6 
#
# 1 31.3001 10.4627 19.0562 0.0000 0.0000 0.0000
# 2 10.4627 63.7569 16.9640 0.0000 0.0000 0.0000
# 3 19.0562 16.9640 88.2022 0.0000 0.0000 0.0000
# 4 0.0000 0.0000 0.0000 36.6422 0.0000 0.0000
# 5 0.0000 0.0000 0.0000 0.0000 26.3278 0.0000
# 6 0.0000 0.0000 0.0000 0.0000 0.0000 32.4902
#
#
#
# Elastic Compliance Matrix: (Units=1/GPa)
#
#
# Indices 1 2 3 4 5 6 
#
# 1 0.037851 -0.004253 -0.007360 0.000000 0.000000 0.000000
# 2 -0.004253 0.017008 -0.002352 0.000000 0.000000 0.000000
# 3 -0.007360 -0.002352 0.013380 0.000000 0.000000 0.000000
# 4 0.000000 0.000000 0.000000 0.027291 0.000000 0.000000
# 5 0.000000 0.000000 0.000000 0.000000 0.037983 0.000000
# 6 0.000000 0.000000 0.000000 0.000000 0.000000 0.030778
#
#
# Mechanical properties :
#
#
# Convention : Reuss Voigt Hill
#
# Bulk Modulus (GPa) = 24.80828 30.69165 27.74997
# Shear Modulus (GPa) = 24.31209 28.21048 26.26128
#
# Velocity S-wave (km/s) = 3.32332 3.57986 3.45397
# Velocity P-wave (km/s) = 5.09861 5.57043 5.33973
#
# Compressibility (1/GPa) = 0.04030912
#
# Stress axis : x y z
#
# Youngs Moduli (GPa) = 26.41915 58.79435 74.73781
#
# Poissons Ratio (x) = 0.25007 0.55006
# Poissons Ratio (y) = 0.11237 0.17581
# Poissons Ratio (z) = 0.19444 0.13830
#
# Static dielectric constant tensor:
#      x y z
#    x 1.859990 0.000000 0.000000 
#    y 0.000000 1.850560 0.000000 
#    z 0.000000 0.000000 1.892610 
# 
# From -- ./inp_files/2386.got.cif
#   From: 2010.05.17/outbox.cif.g08.bks.cpg/sg45_2_cif.got.tgz:2386.got - 2010.06.03 19:51:22.
