data_PCOD9377389
_publ_section_title
;
Structure prediction by ZEFSAII (Michael W. Deem and Ramdas Pophale) SiO2 
 PCOD9377389
Probable space group: I B A 2
;
_chemical_formula_sum "Si O2"
_cell_formula_units_Z 60
_cell_length_a 25.280833
_cell_length_b 12.462742
_cell_length_c 9.254020
_cell_angle_alpha 90.000000
_cell_angle_beta 90.000000
_cell_angle_gamma 90.000000
_cell_volume 2915.650193
_symmetry_space_group_name_H-M "I B A 2"
_symmetry_group_IT_number 45
_symmetry_cell_setting 'orthorhombic'
loop_
_space_group_symop_operation_xyz
x,y,z
-x,-y,z
-x,y,1/2+z
x,-y,1/2+z
1/2+x,1/2+y,1/2+z
1/2-x,1/2-y,1/2+z
1/2-x,1/2+y,z
1/2+x,1/2-y,z
loop_
_atom_site_type_symbol
_atom_site_label
_atom_site_fract_x
_atom_site_fract_y
_atom_site_fract_z
Si Si1 0.212200 0.736118 0.824190
Si Si2 0.846253 0.009322 0.206482
Si Si3 0.273562 0.459083 0.966198
Si Si4 0.429734 0.084923 0.612869
Si Si5 0.132175 0.206121 0.087606
Si Si6 0.669523 0.732127 0.262454
Si Si7 0.834082 0.423414 0.032543
Si Si8 0.000000 0.500000 0.370321
O O1 0.226259 0.833825 0.931030
O O2 0.186090 0.772650 0.675939
O O3 0.270047 0.691442 0.787722
O O4 0.168477 0.663236 0.902888
O O5 0.861197 0.133869 0.183267
O O6 0.824693 0.994374 0.368730
O O7 0.882080 0.914353 0.142150
O O8 0.791700 0.999213 0.120113
O O9 0.214019 0.502828 0.970661
O O10 0.409104 0.204325 0.633392
O O11 0.456508 0.046906 0.761305
O O12 0.471640 0.081079 0.481176
O O13 0.382834 0.001745 0.567365
O O14 0.143337 0.232507 0.920253
O O15 0.672248 0.843926 0.173490
#
# Coordination Sequence:
#
# PCOD9377389 Si02
#       8
#     8   8   8   8   8   8   8   4
#     4  11  22  35  54  83 131 178 216 246 285 334
#     4  11  21  36  55  80 130 176 211 242 282 336
#     4  11  22  36  52  83 133 180 211 245 282 334
#     4  11  24  43  70  94 120 146 203 261 337 392
#     4  11  24  39  57  89 120 161 213 252 295 368
#     4  12  22  36  54  86 131 181 213 245 283 333
#     4  12  23  36  62  91 121 169 219 257 292 369
#     4  10  24  48  68  94 118 146 182 276 358 396
#
# _framework density 20.578600999999999
#
# number of rings (size 3 to 8) (size 9 to 14) (size 15 to 20)
#    0.000    0.800    4.000    4.800    1.867    2.133 
#    0.000    0.000    0.000    0.000    0.000   15.867 
#    0.000    0.000    0.000    0.000    0.000    0.000 
#
# Total GULP energy -167014.783528 kJ/mol
# GULP energy per Si atom -5567.159451 kJ/mol
# Density = 2.053176 g / cm^3
# Si number density = 20.578601 Si / 1000 Ang^3
#
#
#
# Elastic Constant Matrix: (Units=GPa)
#
#
# Indices 1 2 3 4 5 6 
#
# 1 40.4733 36.8486 10.2749 0.0000 0.0000 0.0000
# 2 36.8486 128.2616 25.0421 0.0000 0.0000 0.0000
# 3 10.2749 25.0421 67.3756 0.0000 0.0000 0.0000
# 4 0.0000 0.0000 0.0000 15.7342 0.0000 0.0000
# 5 0.0000 0.0000 0.0000 0.0000 21.6523 0.0000
# 6 0.0000 0.0000 0.0000 0.0000 0.0000 17.4759
#
#
#
# Elastic Compliance Matrix: (Units=1/GPa)
#
#
# Indices 1 2 3 4 5 6 
#
# 1 0.033630 -0.009338 -0.001658 0.000000 0.000000 0.000000
# 2 -0.009338 0.010999 -0.002664 0.000000 0.000000 0.000000
# 3 -0.001658 -0.002664 0.016085 0.000000 0.000000 0.000000
# 4 0.000000 0.000000 0.000000 0.063556 0.000000 0.000000
# 5 0.000000 0.000000 0.000000 0.000000 0.046185 0.000000
# 6 0.000000 0.000000 0.000000 0.000000 0.000000 0.057222
#
#
# Mechanical properties :
#
#
# Convention : Reuss Voigt Hill
#
# Bulk Modulus (GPa) = 29.94490 42.27129 36.10809
# Shear Modulus (GPa) = 18.78790 21.90214 20.34502
#
# Velocity S-wave (km/s) = 3.02484 3.26593 3.14769
# Velocity P-wave (km/s) = 5.17519 5.89980 5.54934
#
# Compressibility (1/GPa) = 0.03339467
#
# Stress axis : x y z
#
# Youngs Moduli (GPa) = 29.73513 90.91343 62.16883
#
# Poissons Ratio (x) = 0.84895 0.10307
# Poissons Ratio (y) = 0.27767 0.16563
# Poissons Ratio (z) = 0.04930 0.24221
#
# Static dielectric constant tensor:
#      x y z
#    x 1.706650 0.000000 0.000000 
#    y 0.000000 1.887890 0.000000 
#    z 0.000000 0.000000 1.799170 
# 
# From -- ./inp_files/2636.got.cif
#   From: 2010.05.17/outbox.cif.g08.bks.cpg/sg45_2_cif.got.tgz:2636.got - 2010.06.03 19:51:22.
