data_PCOD9377808
_publ_section_title
;
Structure prediction by ZEFSAII (Michael W. Deem and Ramdas Pophale) SiO2 
 PCOD9377808
Probable space group: I M A 2
;
_chemical_formula_sum "Si O2"
_cell_formula_units_Z 48
_cell_length_a 14.692143
_cell_length_b 13.389926
_cell_length_c 14.398703
_cell_angle_alpha 90.000000
_cell_angle_beta 90.000000
_cell_angle_gamma 90.000000
_cell_volume 2832.609434
_symmetry_space_group_name_H-M "I M A 2"
_symmetry_group_IT_number 46
_symmetry_cell_setting 'orthorhombic'
loop_
_space_group_symop_operation_xyz
x,y,z
-x,-y,z
1/2-x,y,z
1/2+x,-y,z
1/2+x,1/2+y,1/2+z
1/2-x,1/2-y,1/2+z
-x,1/2+y,1/2+z
x,1/2-y,1/2+z
loop_
_atom_site_type_symbol
_atom_site_label
_atom_site_fract_x
_atom_site_fract_y
_atom_site_fract_z
Si Si1 0.449349 0.604006 0.773900
Si Si2 0.750000 0.609362 0.379948
Si Si3 0.046793 0.289809 0.937042
Si Si4 0.061861 0.245944 0.647132
Si Si5 0.250000 0.360827 0.601255
Si Si6 0.064927 0.406177 0.311463
Si Si7 0.250000 0.168604 0.378666
Si Si8 0.750000 0.475484 0.745851
O O1 0.500000 0.500000 0.755737
O O2 0.481183 0.640936 0.875751
O O3 0.492087 0.682284 0.701444
O O4 0.341987 0.586183 0.763268
O O5 0.750000 0.720576 0.333117
O O6 0.838462 0.554514 0.346197
O O7 0.750000 0.630757 0.489698
O O8 0.042377 0.181362 0.886559
O O9 0.151826 0.329641 0.929429
O O10 0.026183 0.280762 0.045094
O O11 0.158518 0.303138 0.633308
O O12 0.072607 0.149945 0.713043
O O13 0.250000 0.471306 0.645341
O O14 0.000000 0.500000 0.308227
O O15 0.250000 0.073469 0.312321
#
# Coordination Sequence:
#
# PCOD9377808 Si02
#       8
#     8   4   8   8   4   8   4   4
#     4  11  22  36  59  86 118 156 185 242 295 347
#     4  10  20  35  55  86 111 150 189 240 298 328
#     4  10  20  37  59  85 117 148 195 237 293 343
#     4  11  21  37  60  88 117 150 194 241 291 343
#     4  12  18  32  63  93 112 141 191 261 289 330
#     4  10  21  37  55  81 117 155 188 233 288 341
#     4  10  16  33  58  86 110 140 179 254 292 318
#     4  12  22  36  56  91 121 143 199 237 295 344
#
# _framework density 16.945506999999999
#
# number of rings (size 3 to 8) (size 9 to 14) (size 15 to 20)
#    0.000    1.333    6.667    2.500    0.000    2.667 
#    0.000    4.167    0.000    0.000    0.000    0.000 
#    0.000    0.000    0.000    0.000    0.000    0.000 
#
# Total GULP energy -133807.266817 kJ/mol
# GULP energy per Si atom -5575.302784 kJ/mol
# Density = 1.690694 g / cm^3
# Si number density = 16.945507 Si / 1000 Ang^3
#
#
#
# Elastic Constant Matrix: (Units=GPa)
#
#
# Indices 1 2 3 4 5 6 
#
# 1 158.7073 61.2727 57.5846 0.0000 0.0000 0.0000
# 2 61.2727 60.3306 45.3849 0.0000 0.0000 0.0000
# 3 57.5846 45.3849 147.4479 0.0000 0.0000 0.0000
# 4 0.0000 0.0000 0.0000 17.3788 0.0000 0.0000
# 5 0.0000 0.0000 0.0000 0.0000 16.3956 0.0000
# 6 0.0000 0.0000 0.0000 0.0000 0.0000 37.0367
#
#
#
# Elastic Compliance Matrix: (Units=1/GPa)
#
#
# Indices 1 2 3 4 5 6 
#
# 1 0.010492 -0.009855 -0.001064 0.000000 0.000000 0.000000
# 2 -0.009855 0.030827 -0.005640 0.000000 0.000000 0.000000
# 3 -0.001064 -0.005640 0.008934 0.000000 0.000000 0.000000
# 4 0.000000 0.000000 0.000000 0.057541 0.000000 0.000000
# 5 0.000000 0.000000 0.000000 0.000000 0.060992 0.000000
# 6 0.000000 0.000000 0.000000 0.000000 0.000000 0.027000
#
#
# Mechanical properties :
#
#
# Convention : Reuss Voigt Hill
#
# Bulk Modulus (GPa) = 58.36219 77.21892 67.79055
# Shear Modulus (GPa) = 21.31144 27.64511 24.47827
#
# Velocity S-wave (km/s) = 3.55018 4.04346 3.80482
# Velocity P-wave (km/s) = 7.16386 8.21385 7.70676
#
# Compressibility (1/GPa) = 0.01713438
#
# Stress axis : x y z
#
# Youngs Moduli (GPa) = 95.31235 32.43898 111.93759
#
# Poissons Ratio (x) = 0.31969 0.11911
# Poissons Ratio (y) = 0.93932 0.63130
# Poissons Ratio (z) = 0.10142 0.18295
#
# Static dielectric constant tensor:
#      x y z
#    x 1.603840 0.000000 0.000000 
#    y 0.000000 1.557510 0.000000 
#    z 0.000000 0.000000 1.596520 
# 
# From -- ./inp_files/15912.got.cif
#   From: 2010.05.17/outbox.cif.g08.bks.cpg/sg46_8_cif.got.tgz:15912.got - 2010.06.03 19:58:25.
