data_PCOD9377620
_publ_section_title
;
Structure prediction by ZEFSAII (Michael W. Deem and Ramdas Pophale) SiO2 
 PCOD9377620
Probable space group: I B A 2
;
_chemical_formula_sum "Si O2"
_cell_formula_units_Z 48
_cell_length_a 17.012321
_cell_length_b 13.546705
_cell_length_c 9.205751
_cell_angle_alpha 90.000000
_cell_angle_beta 90.000000
_cell_angle_gamma 90.000000
_cell_volume 2121.565605
_symmetry_space_group_name_H-M "I B A 2"
_symmetry_group_IT_number 45
_symmetry_cell_setting 'orthorhombic'
loop_
_space_group_symop_operation_xyz
x,y,z
-x,-y,z
-x,y,1/2+z
x,-y,1/2+z
1/2+x,1/2+y,1/2+z
1/2-x,1/2-y,1/2+z
1/2-x,1/2+y,z
1/2+x,1/2-y,z
loop_
_atom_site_type_symbol
_atom_site_label
_atom_site_fract_x
_atom_site_fract_y
_atom_site_fract_z
Si Si1 0.752188 0.278363 0.139120
Si Si2 0.434072 0.217161 0.058913
Si Si3 0.070535 0.928602 0.176475
Si Si4 0.293664 0.122912 0.434063
Si Si5 0.027361 0.610206 0.335504
Si Si6 0.324756 0.449189 0.454454
O O1 0.840424 0.285442 0.075945
O O2 0.756207 0.306951 0.308248
O O3 0.699607 0.358437 0.055561
O O4 0.721847 0.171227 0.091037
O O5 0.459462 0.324089 0.117264
O O6 0.466668 0.133630 0.165999
O O7 0.468558 0.190040 0.904221
O O8 0.116720 0.981419 0.045833
O O9 0.130738 0.914523 0.309678
O O10 0.000000 0.000000 0.223051
O O11 0.385714 0.120955 0.401929
O O12 0.251133 0.017400 0.421174
O O13 0.000000 0.500000 0.361269
#
# Coordination Sequence:
#
# PCOD9377620 Si02
#       6
#     8   8   8   8   8   8
#     4  11  24  44  71  99 141 185 239 291 350 422
#     4  11  26  46  70 107 142 186 238 289 359 427
#     4  12  28  45  71 106 148 190 241 290 362 430
#     4  11  25  44  70 104 138 185 239 288 355 419
#     4  11  25  46  72 104 143 185 235 295 355 423
#     4  12  24  47  70 101 142 188 236 297 350 425
#
# _framework density 22.624801999999999
#
# number of rings (size 3 to 8) (size 9 to 14) (size 15 to 20)
#    0.000    0.667    3.333    4.000    7.000    2.667 
#    0.000    0.000    0.000    0.000    0.000    0.000 
#    0.000    0.000    0.000    0.000    0.000    0.000 
#
# Total GULP energy -134453.877367 kJ/mol
# GULP energy per Si atom -5602.244890 kJ/mol
# Density = 2.257331 g / cm^3
# Si number density = 22.624802 Si / 1000 Ang^3
#
#
#
# Elastic Constant Matrix: (Units=GPa)
#
#
# Indices 1 2 3 4 5 6 
#
# 1 14.9347 0.3208 -0.3961 0.0000 0.0000 0.0000
# 2 0.3208 98.6109 2.3708 0.0000 0.0000 0.0000
# 3 -0.3961 2.3708 47.2849 0.0000 0.0000 0.0000
# 4 0.0000 0.0000 0.0000 24.8766 0.0000 0.0000
# 5 0.0000 0.0000 0.0000 0.0000 25.2008 0.0000
# 6 0.0000 0.0000 0.0000 0.0000 0.0000 28.0009
#
#
#
# Elastic Compliance Matrix: (Units=1/GPa)
#
#
# Indices 1 2 3 4 5 6 
#
# 1 0.066978 -0.000232 0.000573 0.000000 0.000000 0.000000
# 2 -0.000232 0.010154 -0.000511 0.000000 0.000000 0.000000
# 3 0.000573 -0.000511 0.021179 0.000000 0.000000 0.000000
# 4 0.000000 0.000000 0.000000 0.040198 0.000000 0.000000
# 5 0.000000 0.000000 0.000000 0.000000 0.039681 0.000000
# 6 0.000000 0.000000 0.000000 0.000000 0.000000 0.035713
#
#
# Mechanical properties :
#
#
# Convention : Reuss Voigt Hill
#
# Bulk Modulus (GPa) = 10.20712 18.38016 14.29364
# Shear Modulus (GPa) = 20.25105 26.18466 23.21786
#
# Velocity S-wave (km/s) = 2.99504 3.40567 3.20693
# Velocity P-wave (km/s) = 4.05975 4.85863 4.47705
#
# Compressibility (1/GPa) = 0.09797083
#
# Stress axis : x y z
#
# Youngs Moduli (GPa) = 14.93024 98.48423 47.21700
#
# Poissons Ratio (x) = 0.02281 -0.02704
# Poissons Ratio (y) = 0.00346 0.02413
# Poissons Ratio (z) = -0.00855 0.05033
#
# Static dielectric constant tensor:
#      x y z
#    x 1.813290 0.000000 0.000000 
#    y 0.000000 1.841440 0.000000 
#    z 0.000000 0.000000 1.794290 
# 
# From -- ./inp_files/1704.got.cif
#   From: 2010.05.17/outbox.cif.g08.bks.cpg/sg45_1_cif.got.tgz:1704.got - 2010.06.03 19:51:22.
