data_PCOD9377717
_publ_section_title
;
Structure prediction by ZEFSAII (Michael W. Deem and Ramdas Pophale) SiO2 
 PCOD9377717
Probable space group: I B A 2
;
_chemical_formula_sum "Si O2"
_cell_formula_units_Z 40
_cell_length_a 13.374232
_cell_length_b 9.587389
_cell_length_c 13.923196
_cell_angle_alpha 90.000000
_cell_angle_beta 90.000000
_cell_angle_gamma 90.000000
_cell_volume 1785.287393
_symmetry_space_group_name_H-M "I B A 2"
_symmetry_group_IT_number 45
_symmetry_cell_setting 'orthorhombic'
loop_
_space_group_symop_operation_xyz
x,y,z
-x,-y,z
-x,y,1/2+z
x,-y,1/2+z
1/2+x,1/2+y,1/2+z
1/2-x,1/2-y,1/2+z
1/2-x,1/2+y,z
1/2+x,1/2-y,z
loop_
_atom_site_type_symbol
_atom_site_label
_atom_site_fract_x
_atom_site_fract_y
_atom_site_fract_z
Si Si1 0.840278 0.000391 0.464890
Si Si2 0.845211 0.091168 0.175042
Si Si3 0.500000 0.500000 0.816967
Si Si4 0.500000 0.000000 0.565468
Si Si5 0.165743 0.607524 0.212689
Si Si6 0.862746 0.331484 0.430196
O O1 0.839443 0.166777 0.443831
O O2 0.917726 0.935514 0.388108
O O3 0.875084 0.969677 0.572633
O O4 0.733292 0.925833 0.457786
O O5 0.799546 0.244392 0.170288
O O6 0.940080 0.098721 0.244975
O O7 0.761156 0.991995 0.219582
O O8 0.412476 0.949911 0.635900
O O9 0.545743 0.880068 0.497065
O O10 0.120996 0.630906 0.318466
#
# Coordination Sequence:
#
# PCOD9377717 Si02
#       6
#     8   8   4   4   8   8
#     4  12  27  48  77 106 150 191 245 302 365 434
#     4  12  27  48  77 106 150 191 245 302 365 434
#     4  12  26  44  76 110 140 192 238 304 356 434
#     4  12  30  44  78 108 144 192 244 300 372 428
#     4  12  26  51  74 108 146 195 239 306 362 435
#     4  12  26  51  74 108 146 195 239 306 362 435
#
# _framework density 22.405358
#
# number of rings (size 3 to 8) (size 9 to 14) (size 15 to 20)
#    0.000    0.000    6.000    2.400    5.600    0.000 
#    7.200    0.000    0.000    0.000    0.000    0.000 
#    0.000    0.000    0.000    0.000    0.000    0.000 
#
# Total GULP energy -111903.725531 kJ/mol
# GULP energy per Si atom -5595.186277 kJ/mol
# Density = 2.235436 g / cm^3
# Si number density = 22.405358 Si / 1000 Ang^3
#
#
#
# Elastic Constant Matrix: (Units=GPa)
#
#
# Indices 1 2 3 4 5 6 
#
# 1 84.7064 31.1388 32.6755 0.0000 0.0000 0.0000
# 2 31.1388 134.4834 28.9027 0.0000 0.0000 0.0000
# 3 32.6755 28.9027 177.2186 0.0000 0.0000 0.0000
# 4 0.0000 0.0000 0.0000 27.7020 0.0000 0.0000
# 5 0.0000 0.0000 0.0000 0.0000 51.2590 0.0000
# 6 0.0000 0.0000 0.0000 0.0000 0.0000 19.4431
#
#
#
# Elastic Compliance Matrix: (Units=1/GPa)
#
#
# Indices 1 2 3 4 5 6 
#
# 1 0.013596 -0.002704 -0.002066 0.000000 0.000000 0.000000
# 2 -0.002704 0.008244 -0.000846 0.000000 0.000000 0.000000
# 3 -0.002066 -0.000846 0.006162 0.000000 0.000000 0.000000
# 4 0.000000 0.000000 0.000000 0.036098 0.000000 0.000000
# 5 0.000000 0.000000 0.000000 0.000000 0.019509 0.000000
# 6 0.000000 0.000000 0.000000 0.000000 0.000000 0.051432
#
#
# Mechanical properties :
#
#
# Convention : Reuss Voigt Hill
#
# Bulk Modulus (GPa) = 59.63042 64.64915 62.13979
# Shear Modulus (GPa) = 32.92438 39.92691 36.42564
#
# Velocity S-wave (km/s) = 3.83755 4.22598 4.03644
# Velocity P-wave (km/s) = 6.80499 7.26147 7.03693
#
# Compressibility (1/GPa) = 0.01676996
#
# Stress axis : x y z
#
# Youngs Moduli (GPa) = 73.54843 121.30328 162.29517
#
# Poissons Ratio (x) = 0.32803 0.33528
# Poissons Ratio (y) = 0.19889 0.13728
# Poissons Ratio (z) = 0.15194 0.10261
#
# Static dielectric constant tensor:
#      x y z
#    x 1.826920 0.000000 0.000000 
#    y 0.000000 1.807050 0.000000 
#    z 0.000000 0.000000 1.837930 
# 
# From -- ./inp_files/5490.got.cif
#   From: 2010.05.17/outbox.cif.g08.bks.cpg/sg45_3_cif.got.tgz:5490.got - 2010.06.03 19:51:22.
