data_PCOD9377629
_publ_section_title
;
Structure prediction by ZEFSAII (Michael W. Deem and Ramdas Pophale) SiO2 
 PCOD9377629
Probable space group: I B A 2
;
_chemical_formula_sum "Si O2"
_cell_formula_units_Z 64
_cell_length_a 11.642026
_cell_length_b 30.785850
_cell_length_c 8.117145
_cell_angle_alpha 90.000000
_cell_angle_beta 90.000000
_cell_angle_gamma 90.000000
_cell_volume 2909.263229
_symmetry_space_group_name_H-M "I B A 2"
_symmetry_group_IT_number 45
_symmetry_cell_setting 'orthorhombic'
loop_
_space_group_symop_operation_xyz
x,y,z
-x,-y,z
-x,y,1/2+z
x,-y,1/2+z
1/2+x,1/2+y,1/2+z
1/2-x,1/2-y,1/2+z
1/2-x,1/2+y,z
1/2+x,1/2-y,z
loop_
_atom_site_type_symbol
_atom_site_label
_atom_site_fract_x
_atom_site_fract_y
_atom_site_fract_z
Si Si1 0.730853 0.294684 0.408450
Si Si2 0.740641 0.949680 0.418717
Si Si3 0.930408 0.658894 0.741863
Si Si4 0.088208 0.125641 0.321376
Si Si5 0.305232 0.956814 0.528876
Si Si6 0.823144 0.700467 0.279038
Si Si7 0.336381 0.373351 0.441267
Si Si8 0.029337 0.589935 0.502113
O O1 0.822993 0.309936 0.268956
O O2 0.631189 0.330557 0.410191
O O3 0.789900 0.295754 0.586861
O O4 0.688697 0.246937 0.364784
O O5 0.845628 0.915859 0.400326
O O6 0.694775 0.954082 0.228823
O O7 0.646537 0.933337 0.555979
O O8 0.756891 0.999143 0.474758
O O9 0.045681 0.684784 0.782129
O O10 0.959030 0.629178 0.585581
O O11 0.911179 0.618847 0.863099
O O12 0.125153 0.132279 0.131594
O O13 0.952351 0.121365 0.337501
O O14 0.236740 0.917057 0.448810
O O15 0.436926 0.947771 0.471665
O O16 0.740596 0.665617 0.368474
#
# Coordination Sequence:
#
# PCOD9377629 Si02
#       8
#     8   8   8   8   8   8   8   8
#     4  12  27  45  70 103 138 180 234 283 348 417
#     4  11  25  42  66 100 137 176 228 281 346 413
#     4  12  24  44  73  98 139 180 225 283 351 409
#     4  11  24  47  68  96 134 180 230 287 341 414
#     4  11  25  41  66 100 135 179 225 284 344 416
#     4  12  27  44  71 102 136 184 229 288 346 418
#     4  11  25  46  70  95 134 180 230 285 346 410
#     4  12  22  43  69 100 137 177 224 283 347 411
#
# _framework density 21.998698999999998
#
# number of rings (size 3 to 8) (size 9 to 14) (size 15 to 20)
#    0.000    0.500    5.000    2.625    5.250    3.500 
#    0.000    2.500    0.000    0.000    0.000    0.000 
#    0.000    0.000    0.000    0.000    0.000    0.000 
#
# Total GULP energy -178591.117236 kJ/mol
# GULP energy per Si atom -5580.972414 kJ/mol
# Density = 2.194863 g / cm^3
# Si number density = 21.998699 Si / 1000 Ang^3
#
#
#
# Elastic Constant Matrix: (Units=GPa)
#
#
# Indices 1 2 3 4 5 6 
#
# 1 117.5600 48.9867 4.4407 0.0009 -0.0006 0.0003
# 2 48.9867 176.2272 16.0605 -0.0005 -0.0003 0.0001
# 3 4.4407 16.0605 63.9304 0.0048 -0.0013 0.0011
# 4 0.0009 -0.0005 0.0048 41.9231 -0.0012 0.0001
# 5 -0.0006 -0.0003 -0.0013 -0.0012 34.8841 -0.0018
# 6 0.0003 0.0001 0.0011 0.0001 -0.0018 11.2952
#
#
#
# Elastic Compliance Matrix: (Units=1/GPa)
#
#
# Indices 1 2 3 4 5 6 
#
# 1 0.009621 -0.002675 0.000004 0.000000 0.000000 0.000000
# 2 -0.002675 0.006551 -0.001460 0.000000 0.000000 0.000000
# 3 0.000004 -0.001460 0.016009 -0.000002 0.000001 -0.000002
# 4 0.000000 0.000000 -0.000002 0.023853 0.000001 0.000000
# 5 0.000000 0.000000 0.000001 0.000001 0.028666 0.000005
# 6 0.000000 0.000000 -0.000002 0.000000 0.000005 0.088533
#
#
# Mechanical properties :
#
#
# Convention : Reuss Voigt Hill
#
# Bulk Modulus (GPa) = 41.80893 55.18817 48.49855
# Shear Modulus (GPa) = 26.38973 36.83578 31.61275
#
# Velocity S-wave (km/s) = 3.46729 4.09645 3.79493
# Velocity P-wave (km/s) = 5.92249 6.89318 6.42619
#
# Compressibility (1/GPa) = 0.02391833
#
# Stress axis : x y z
#
# Youngs Moduli (GPa) = 103.94289 152.64779 62.46672
#
# Poissons Ratio (x) = 0.40828 -0.00023
# Poissons Ratio (y) = 0.27801 0.09120
# Poissons Ratio (z) = -0.00038 0.22286
#
# Static dielectric constant tensor:
#      x y z
#    x 1.795820 0.000000 0.000000 
#    y 0.000000 1.785950 0.000000 
#    z 0.000000 0.000000 1.918480 
# 
# From -- ./inp_files/1511.got.cif
#   From: 2010.05.17/outbox.cif.g08.bks.cpg/sg45_1_cif.got.tgz:1511.got - 2010.06.03 19:51:22.
