data_PCOD9377355
_publ_section_title
;
Structure prediction by ZEFSAII (Michael W. Deem and Ramdas Pophale) SiO2 
 PCOD9377355
Probable space group: I B A 2
;
_chemical_formula_sum "Si O2"
_cell_formula_units_Z 56
_cell_length_a 8.734901
_cell_length_b 20.756131
_cell_length_c 14.220439
_cell_angle_alpha 90.000000
_cell_angle_beta 90.000000
_cell_angle_gamma 90.000000
_cell_volume 2578.204689
_symmetry_space_group_name_H-M "I B A 2"
_symmetry_group_IT_number 45
_symmetry_cell_setting 'orthorhombic'
loop_
_space_group_symop_operation_xyz
x,y,z
-x,-y,z
-x,y,1/2+z
x,-y,1/2+z
1/2+x,1/2+y,1/2+z
1/2-x,1/2-y,1/2+z
1/2-x,1/2+y,z
1/2+x,1/2-y,z
loop_
_atom_site_type_symbol
_atom_site_label
_atom_site_fract_x
_atom_site_fract_y
_atom_site_fract_z
Si Si1 0.264138 0.283356 0.272660
Si Si2 0.568814 0.838378 0.242779
Si Si3 0.174171 0.020680 0.526795
Si Si4 0.346230 0.330915 0.080295
Si Si5 0.330386 0.711529 0.991656
Si Si6 0.606245 0.051947 0.883863
Si Si7 0.888046 0.405507 0.054852
O O1 0.296575 0.212947 0.230223
O O2 0.345434 0.326684 0.193543
O O3 0.330633 0.284216 0.377996
O O4 0.086499 0.302759 0.273711
O O5 0.626264 0.886399 0.321731
O O6 0.536436 0.877851 0.148481
O O7 0.185695 0.095113 0.555720
O O8 0.238576 0.020142 0.420061
O O9 0.280580 0.967248 0.576985
O O10 0.000000 0.000000 0.534150
O O11 0.506771 0.308023 0.035349
O O12 0.225053 0.279599 0.036196
O O13 0.213568 0.653467 0.015495
O O14 0.500000 0.000000 0.832188
O O15 0.507627 0.072364 0.975804
#
# Coordination Sequence:
#
# PCOD9377355 Si02
#       7
#     8   8   8   8   8   8   8
#     4  12  26  42  73 107 147 188 245 299 363 435
#     4  12  25  44  71 108 141 187 244 294 364 430
#     4  11  24  47  71 103 145 192 237 304 364 428
#     4  12  26  45  74 103 148 186 240 298 366 426
#     4  12  25  46  74 105 144 191 238 303 362 430
#     4  10  24  45  70 100 137 188 242 291 360 434
#     4  11  24  48  71 100 143 188 237 297 359 433
#
# _framework density 21.720541000000001
#
# number of rings (size 3 to 8) (size 9 to 14) (size 15 to 20)
#    0.000    0.571    4.286    3.429    2.000    2.857 
#    0.000    0.714    0.000    0.000    0.000    0.000 
#    0.000    0.000    0.000    0.000    0.000    0.000 
#
# Total GULP energy -156608.304453 kJ/mol
# GULP energy per Si atom -5593.153730 kJ/mol
# Density = 2.167110 g / cm^3
# Si number density = 21.720541 Si / 1000 Ang^3
#
#
#
# Elastic Constant Matrix: (Units=GPa)
#
#
# Indices 1 2 3 4 5 6 
#
# 1 63.3678 21.9040 12.3547 0.0000 0.0000 0.0000
# 2 21.9040 134.8714 8.7733 0.0000 0.0000 0.0000
# 3 12.3547 8.7733 87.6043 0.0000 0.0000 0.0000
# 4 0.0000 0.0000 0.0000 27.7065 0.0000 0.0000
# 5 0.0000 0.0000 0.0000 0.0000 22.7584 0.0000
# 6 0.0000 0.0000 0.0000 0.0000 0.0000 33.5060
#
#
#
# Elastic Compliance Matrix: (Units=1/GPa)
#
#
# Indices 1 2 3 4 5 6 
#
# 1 0.017112 -0.002639 -0.002149 0.000000 0.000000 0.000000
# 2 -0.002639 0.007870 -0.000416 0.000000 0.000000 0.000000
# 3 -0.002149 -0.000416 0.011760 0.000000 0.000000 0.000000
# 4 0.000000 0.000000 0.000000 0.036093 0.000000 0.000000
# 5 0.000000 0.000000 0.000000 0.000000 0.043940 0.000000
# 6 0.000000 0.000000 0.000000 0.000000 0.000000 0.029845
#
#
# Mechanical properties :
#
#
# Convention : Reuss Voigt Hill
#
# Bulk Modulus (GPa) = 37.97444 41.32306 39.64875
# Shear Modulus (GPa) = 30.15568 32.98161 31.56864
#
# Velocity S-wave (km/s) = 3.73010 3.90096 3.81648
# Velocity P-wave (km/s) = 6.00605 6.27345 6.14121
#
# Compressibility (1/GPa) = 0.02633350
#
# Stress axis : x y z
#
# Youngs Moduli (GPa) = 58.43783 127.06198 85.03624
#
# Poissons Ratio (x) = 0.33536 0.18274
# Poissons Ratio (y) = 0.15424 0.03537
# Poissons Ratio (z) = 0.12558 0.05285
#
# Static dielectric constant tensor:
#      x y z
#    x 1.805990 0.000000 0.000000 
#    y 0.000000 1.802590 0.000000 
#    z 0.000000 0.000000 1.788100 
# 
# From -- ./inp_files/5731.got.cif
#   From: 2010.05.17/outbox.cif.g08.bks.cpg/sg45_3_cif.got.tgz:5731.got - 2010.06.03 19:51:22.
