data_PCOD9377485
_publ_section_title
;
Structure prediction by ZEFSAII (Michael W. Deem and Ramdas Pophale) SiO2 
 PCOD9377485
Probable space group: I B A 2
;
_chemical_formula_sum "Si O2"
_cell_formula_units_Z 44
_cell_length_a 12.005001
_cell_length_b 19.070643
_cell_length_c 9.008564
_cell_angle_alpha 90.000000
_cell_angle_beta 90.000000
_cell_angle_gamma 90.000000
_cell_volume 2062.448463
_symmetry_space_group_name_H-M "I B A 2"
_symmetry_group_IT_number 45
_symmetry_cell_setting 'orthorhombic'
loop_
_space_group_symop_operation_xyz
x,y,z
-x,-y,z
-x,y,1/2+z
x,-y,1/2+z
1/2+x,1/2+y,1/2+z
1/2-x,1/2-y,1/2+z
1/2-x,1/2+y,z
1/2+x,1/2-y,z
loop_
_atom_site_type_symbol
_atom_site_label
_atom_site_fract_x
_atom_site_fract_y
_atom_site_fract_z
Si Si1 0.500000 0.000000 0.819310
Si Si2 0.772954 0.816275 0.186297
Si Si3 0.412952 0.906068 0.579878
Si Si4 0.107053 0.689221 0.711698
Si Si5 0.152071 0.818123 0.247404
Si Si6 0.557584 0.685531 0.918177
O O1 0.411378 0.964908 0.708884
O O2 0.552632 0.941753 0.926722
O O3 0.703866 0.866358 0.082913
O O4 0.851749 0.756465 0.112904
O O5 0.683438 0.764530 0.265306
O O6 0.848693 0.850540 0.312671
O O7 0.512880 0.855378 0.634984
O O8 0.224037 0.649553 0.739010
O O9 0.069325 0.733005 0.858802
O O10 0.062644 0.841554 0.367657
O O11 0.091933 0.822456 0.087345
#
# Coordination Sequence:
#
# PCOD9377485 Si02
#       6
#     4   8   8   8   8   8
#     4  10  28  34  56  78 110 190 168 232 260 328
#     4   8  19  30  55  82 108 151 172 252 293 323
#     4  11  20  42  54  82 126 135 214 212 280 367
#     4   8  19  30  55  82 108 151 172 252 293 323
#     4   9  18  30  47  87 113 142 175 217 329 334
#     4   9  18  30  47  87 113 142 175 217 329 334
#
# _framework density 21.333867000000001
#
# number of rings (size 3 to 8) (size 9 to 14) (size 15 to 20)
#    2.182    0.364    1.818    0.000    5.091    5.818 
#    0.000    0.000    0.000    0.000    0.000    7.636 
#    0.000    0.000    0.000    0.000    0.000    0.000 
#
# Total GULP energy -122489.307694 kJ/mol
# GULP energy per Si atom -5567.695804 kJ/mol
# Density = 2.128531 g / cm^3
# Si number density = 21.333867 Si / 1000 Ang^3
#
#
#
# Elastic Constant Matrix: (Units=GPa)
#
#
# Indices 1 2 3 4 5 6 
#
# 1 116.4283 15.3469 30.8673 0.0000 0.0000 0.0000
# 2 15.3469 38.7025 16.5189 0.0000 0.0000 0.0000
# 3 30.8673 16.5189 111.6972 0.0001 0.0000 0.0000
# 4 0.0000 0.0000 0.0001 17.7811 0.0000 0.0000
# 5 0.0000 0.0000 0.0000 0.0000 20.1799 0.0000
# 6 0.0000 0.0000 0.0000 0.0000 0.0000 11.5220
#
#
#
# Elastic Compliance Matrix: (Units=1/GPa)
#
#
# Indices 1 2 3 4 5 6 
#
# 1 0.009552 -0.002840 -0.002220 0.000000 0.000000 0.000000
# 2 -0.002840 0.028424 -0.003419 0.000000 0.000000 0.000000
# 3 -0.002220 -0.003419 0.010072 0.000000 0.000000 0.000000
# 4 0.000000 0.000000 0.000000 0.056240 0.000000 0.000000
# 5 0.000000 0.000000 0.000000 0.000000 0.049554 0.000000
# 6 0.000000 0.000000 0.000000 0.000000 0.000000 0.086790
#
#
# Mechanical properties :
#
#
# Convention : Reuss Voigt Hill
#
# Bulk Modulus (GPa) = 32.16462 43.58826 37.87644
# Shear Modulus (GPa) = 18.66009 23.50293 21.08151
#
# Velocity S-wave (km/s) = 2.96069 3.32275 3.14693
# Velocity P-wave (km/s) = 5.17659 5.93268 5.56749
#
# Compressibility (1/GPa) = 0.03109007
#
# Stress axis : x y z
#
# Youngs Moduli (GPa) = 104.69214 35.18212 99.28775
#
# Poissons Ratio (x) = 0.09993 0.22038
# Poissons Ratio (y) = 0.29735 0.33943
# Poissons Ratio (z) = 0.23237 0.12028
#
# Static dielectric constant tensor:
#      x y z
#    x 1.844720 0.000000 0.000000 
#    y 0.000000 1.824790 0.000000 
#    z 0.000000 0.000000 1.827810 
# 
# From -- ./inp_files/1340.got.cif
#   From: 2010.05.17/outbox.cif.g08.bks.cpg/sg45_1_cif.got.tgz:1340.got - 2010.06.03 19:51:22.
