data_PCOD9377843
_publ_section_title
;
Structure prediction by ZEFSAII (Michael W. Deem and Ramdas Pophale) SiO2 
 PCOD9377843
Probable space group: I M A 2
;
_chemical_formula_sum "Si O2"
_cell_formula_units_Z 64
_cell_length_a 14.944059
_cell_length_b 16.130114
_cell_length_c 14.774164
_cell_angle_alpha 90.000000
_cell_angle_beta 90.000000
_cell_angle_gamma 90.000000
_cell_volume 3561.303003
_symmetry_space_group_name_H-M "I M A 2"
_symmetry_group_IT_number 46
_symmetry_cell_setting 'orthorhombic'
loop_
_space_group_symop_operation_xyz
x,y,z
-x,-y,z
1/2-x,y,z
1/2+x,-y,z
1/2+x,1/2+y,1/2+z
1/2-x,1/2-y,1/2+z
-x,1/2+y,1/2+z
x,1/2-y,1/2+z
loop_
_atom_site_type_symbol
_atom_site_label
_atom_site_fract_x
_atom_site_fract_y
_atom_site_fract_z
Si Si1 0.650913 0.880060 0.720840
Si Si2 0.857640 0.358037 0.718992
Si Si3 0.930227 0.308643 0.428838
Si Si4 0.146626 0.949508 0.050431
Si Si5 0.600406 0.030780 0.594687
Si Si6 0.447921 0.814892 0.717861
Si Si7 0.352214 0.637116 0.929394
Si Si8 0.926515 0.933640 0.902732
O O1 0.750000 0.840115 0.711999
O O2 0.556667 0.828088 0.713159
O O3 0.641856 0.918132 0.822032
O O4 0.645627 0.955135 0.648486
O O5 0.750000 0.342764 0.707013
O O6 0.887063 0.429676 0.650381
O O7 0.912942 0.275979 0.691842
O O8 0.871008 0.381312 0.823958
O O9 0.869376 0.367092 0.490339
O O10 0.912467 0.320672 0.321604
O O11 0.916848 0.213557 0.454424
O O12 0.028630 0.347827 0.433325
O O13 0.250000 0.967394 0.057825
O O14 0.104808 0.022422 0.993097
O O15 0.594843 0.111628 0.659214
O O16 0.639259 0.062168 0.499497
O O17 0.500000 0.000000 0.577869
O O18 0.250000 0.668874 0.933685
O O19 0.000000 0.000000 0.864038
#
# Coordination Sequence:
#
# PCOD9377843 Si02
#       8
#     8   8   8   8   8   8   8   8
#     4  10  18  29  47  72  99 129 160 195 241 293
#     4   9  19  32  48  73 102 128 161 203 244 284
#     4   9  17  29  45  68  97 125 153 193 242 287
#     4  10  17  27  45  70  97 127 158 191 237 293
#     4  10  19  31  47  71 100 127 158 199 244 292
#     4   9  18  31  45  68 102 129 157 200 246 291
#     4  10  19  32  49  71  97 127 163 203 241 284
#     4   9  17  29  44  69 103 128 152 192 242 294
#
# _framework density 17.970949999999998
#
# number of rings (size 3 to 8) (size 9 to 14) (size 15 to 20)
#    0.000    2.500    0.000    4.500    0.000    2.500 
#    0.000    3.125    0.000    0.000    0.000  102.375 
#    0.000    2.000    0.000    0.000    0.000    0.000 
#
# Total GULP energy -178140.821066 kJ/mol
# GULP energy per Si atom -5566.900658 kJ/mol
# Density = 1.793005 g / cm^3
# Si number density = 17.970950 Si / 1000 Ang^3
#
#
#
# Elastic Constant Matrix: (Units=GPa)
#
#
# Indices 1 2 3 4 5 6 
#
# 1 50.0014 12.2027 20.0933 0.0000 0.0000 0.0000
# 2 12.2027 47.9466 45.1110 0.0000 0.0000 0.0000
# 3 20.0933 45.1110 78.9473 0.0000 0.0000 0.0000
# 4 0.0000 0.0000 0.0000 24.6101 0.0000 0.0000
# 5 0.0000 0.0000 0.0000 0.0000 19.0969 0.0000
# 6 0.0000 0.0000 0.0000 0.0000 0.0000 8.4991
#
#
#
# Elastic Compliance Matrix: (Units=1/GPa)
#
#
# Indices 1 2 3 4 5 6 
#
# 1 0.022290 -0.000725 -0.005259 0.000000 0.000000 0.000000
# 2 -0.000725 0.045130 -0.025603 0.000000 0.000000 0.000000
# 3 -0.005259 -0.025603 0.028635 0.000000 0.000000 0.000000
# 4 0.000000 0.000000 0.000000 0.040634 0.000000 0.000000
# 5 0.000000 0.000000 0.000000 0.000000 0.052365 0.000000
# 6 0.000000 0.000000 0.000000 0.000000 0.000000 0.117660
#
#
# Mechanical properties :
#
#
# Convention : Reuss Voigt Hill
#
# Bulk Modulus (GPa) = 30.41298 36.85658 33.63478
# Shear Modulus (GPa) = 13.12867 17.07377 15.10122
#
# Velocity S-wave (km/s) = 2.70580 3.08567 2.90196
# Velocity P-wave (km/s) = 5.16933 5.76617 5.47589
#
# Compressibility (1/GPa) = 0.03288070
#
# Stress axis : x y z
#
# Youngs Moduli (GPa) = 44.86393 22.15829 34.92257
#
# Poissons Ratio (x) = 0.01607 0.18365
# Poissons Ratio (y) = 0.03253 0.89412
# Poissons Ratio (z) = 0.23593 0.56732
#
# Static dielectric constant tensor:
#      x y z
#    x 1.654790 0.000000 0.000000 
#    y 0.000000 1.622560 0.000000 
#    z 0.000000 0.000000 1.650070 
# 
# From -- ./inp_files/16193.got.cif
#   From: 2010.05.17/outbox.cif.g08.bks.cpg/sg46_9_cif.got.tgz:16193.got - 2010.06.03 19:58:25.
