data_PCOD9377931
_publ_section_title
;
Structure prediction by ZEFSAII (Michael W. Deem and Ramdas Pophale) SiO2 
 PCOD9377931
Probable space group: I M A 2
;
_chemical_formula_sum "Si O2"
_cell_formula_units_Z 36
_cell_length_a 16.203780
_cell_length_b 10.792907
_cell_length_c 9.070081
_cell_angle_alpha 90.000000
_cell_angle_beta 90.000000
_cell_angle_gamma 90.000000
_cell_volume 1586.229193
_symmetry_space_group_name_H-M "I M A 2"
_symmetry_group_IT_number 46
_symmetry_cell_setting 'orthorhombic'
loop_
_space_group_symop_operation_xyz
x,y,z
-x,-y,z
1/2-x,y,z
1/2+x,-y,z
1/2+x,1/2+y,1/2+z
1/2-x,1/2-y,1/2+z
-x,1/2+y,1/2+z
x,1/2-y,1/2+z
loop_
_atom_site_type_symbol
_atom_site_label
_atom_site_fract_x
_atom_site_fract_y
_atom_site_fract_z
Si Si1 0.600135 0.082207 0.545300
Si Si2 0.157050 0.077337 0.267275
Si Si3 0.157774 0.819516 0.175592
Si Si4 0.000000 0.500000 0.311113
Si Si5 0.008330 0.270915 0.858366
O O1 0.652835 0.208978 0.558449
O O2 0.510798 0.135710 0.491725
O O3 0.641909 0.995119 0.423266
O O4 0.579416 0.022542 0.703445
O O5 0.250000 0.126275 0.260526
O O6 0.086540 0.180382 0.267655
O O7 0.148335 0.966989 0.146243
O O8 0.250000 0.810588 0.241197
O O9 0.075609 0.789459 0.266850
O O10 0.986246 0.627172 0.398127
#
# Coordination Sequence:
#
# PCOD9377931 Si02
#       5
#     8   8   8   4   8
#     4  10  17  35  57  81 113 152 194 233 292 337
#     4  10  19  35  58  85 117 154 193 234 287 346
#     4   9  18  31  55  85 110 145 190 236 283 339
#     4  10  20  36  58  82 112 150 198 232 294 342
#     4  10  20  36  56  82 113 149 193 240 281 345
#
# _framework density 22.695333000000002
#
# number of rings (size 3 to 8) (size 9 to 14) (size 15 to 20)
#    0.000    2.222    2.222    2.667    0.000    0.889 
#    8.000    5.556    0.000    0.000    0.000    0.000 
#    0.000    0.000    0.000    0.000    0.000    0.000 
#
# Total GULP energy -100220.242933 kJ/mol
# GULP energy per Si atom -5567.791274 kJ/mol
# Density = 2.264368 g / cm^3
# Si number density = 22.695333 Si / 1000 Ang^3
#
#
#
# Elastic Constant Matrix: (Units=GPa)
#
#
# Indices 1 2 3 4 5 6 
#
# 1 158.4481 51.0203 4.3833 0.0000 0.0000 0.0000
# 2 51.0203 108.6102 1.0076 0.0000 0.0000 0.0000
# 3 4.3833 1.0076 20.0475 0.0000 0.0000 0.0000
# 4 0.0000 0.0000 0.0000 30.3741 0.0000 0.0000
# 5 0.0000 0.0000 0.0000 0.0000 19.9986 0.0000
# 6 0.0000 0.0000 0.0000 0.0000 0.0000 28.9728
#
#
#
# Elastic Compliance Matrix: (Units=1/GPa)
#
#
# Indices 1 2 3 4 5 6 
#
# 1 0.007478 -0.003500 -0.001459 0.000000 0.000000 0.000000
# 2 -0.003500 0.010849 0.000220 0.000000 0.000000 0.000000
# 3 -0.001459 0.000220 0.050190 0.000000 0.000000 0.000000
# 4 0.000000 0.000000 0.000000 0.032923 0.000000 0.000000
# 5 0.000000 0.000000 0.000000 0.000000 0.050003 0.000000
# 6 0.000000 0.000000 0.000000 0.000000 0.000000 0.034515
#
#
# Mechanical properties :
#
#
# Convention : Reuss Voigt Hill
#
# Bulk Modulus (GPa) = 16.93785 44.43648 30.68717
# Shear Modulus (GPa) = 23.24327 31.24874 27.24601
#
# Velocity S-wave (km/s) = 3.20370 3.71466 3.46860
# Velocity P-wave (km/s) = 4.60046 6.16606 5.43988
#
# Compressibility (1/GPa) = 0.05903937
#
# Stress axis : x y z
#
# Youngs Moduli (GPa) = 133.71797 92.17343 19.92445
#
# Poissons Ratio (x) = 0.32256 0.02907
# Poissons Ratio (y) = 0.46795 -0.00438
# Poissons Ratio (z) = 0.19513 -0.02027
#
# Static dielectric constant tensor:
#      x y z
#    x 1.850450 0.000000 0.000000 
#    y 0.000000 1.919440 0.000000 
#    z 0.000000 0.000000 1.980430 
# 
# From -- ./inp_files/10861.got.cif
#   From: 2010.05.17/outbox.cif.g08.bks.cpg/sg46_6_cif.got.tgz:10861.got - 2010.06.03 19:58:25.
