data_PCOD9377930
_publ_section_title
;
Structure prediction by ZEFSAII (Michael W. Deem and Ramdas Pophale) SiO2 
 PCOD9377930
Probable space group: I M A 2
;
_chemical_formula_sum "Si O2"
_cell_formula_units_Z 64
_cell_length_a 20.170783
_cell_length_b 18.837647
_cell_length_c 9.995960
_cell_angle_alpha 90.000000
_cell_angle_beta 90.000000
_cell_angle_gamma 90.000000
_cell_volume 3798.165820
_symmetry_space_group_name_H-M "I M A 2"
_symmetry_group_IT_number 46
_symmetry_cell_setting 'orthorhombic'
loop_
_space_group_symop_operation_xyz
x,y,z
-x,-y,z
1/2-x,y,z
1/2+x,-y,z
1/2+x,1/2+y,1/2+z
1/2-x,1/2-y,1/2+z
-x,1/2+y,1/2+z
x,1/2-y,1/2+z
loop_
_atom_site_type_symbol
_atom_site_label
_atom_site_fract_x
_atom_site_fract_y
_atom_site_fract_z
Si Si1 0.575293 0.529474 0.619100
Si Si2 0.374633 0.671205 0.383854
Si Si3 0.826536 0.424420 0.160910
Si Si4 0.325965 0.825280 0.425795
Si Si5 0.620210 0.114142 0.167801
Si Si6 0.471461 0.321523 0.652655
Si Si7 0.972278 0.814996 0.835173
Si Si8 0.574237 0.532466 0.304035
O O1 0.500000 0.500000 0.622130
O O2 0.616020 0.469599 0.694970
O O3 0.573623 0.608747 0.675523
O O4 0.592748 0.528721 0.461714
O O5 0.329845 0.641239 0.265720
O O6 0.364855 0.751663 0.431690
O O7 0.360919 0.624725 0.514308
O O8 0.449793 0.664307 0.331689
O O9 0.750000 0.448024 0.147526
O O10 0.874366 0.486289 0.217144
O O11 0.850371 0.388099 0.022633
O O12 0.250000 0.811353 0.462764
O O13 0.332597 0.849533 0.273309
O O14 0.547402 0.151519 0.175540
O O15 0.459819 0.254950 0.748213
O O16 0.461732 0.303928 0.494922
O O17 0.932326 0.883053 0.780044
O O18 0.500000 0.500000 0.289429
#
# Coordination Sequence:
#
# PCOD9377930 Si02
#       8
#     8   8   8   8   8   8   8   8
#     4   8  15  31  52  73 100 136 168 217 263 305
#     4  11  19  33  56  74 103 142 183 215 251 319
#     4  11  23  37  52  76 109 144 185 225 265 319
#     4  11  24  35  46  74 114 146 174 215 264 313
#     4  10  18  33  52  69 101 140 177 209 254 309
#     4   9  18  31  50  77 107 130 165 216 270 313
#     4  10  19  30  54  80 107 136 170 218 269 316
#     4  10  17  35  55  75 103 140 181 221 266 312
#
# _framework density 16.850238000000001
#
# number of rings (size 3 to 8) (size 9 to 14) (size 15 to 20)
#    0.000    2.000    3.750    2.625    1.750    2.000 
#    2.250    0.625    0.000    0.000    0.000    4.375 
#    0.000    0.000    0.000    0.000    0.000    0.000 
#
# Total GULP energy -178248.303071 kJ/mol
# GULP energy per Si atom -5570.259471 kJ/mol
# Density = 1.681189 g / cm^3
# Si number density = 16.850238 Si / 1000 Ang^3
#
#
#
# Elastic Constant Matrix: (Units=GPa)
#
#
# Indices 1 2 3 4 5 6 
#
# 1 34.7370 20.6917 13.5899 0.0000 0.0000 0.0000
# 2 20.6917 117.3951 50.4974 0.0000 0.0000 0.0000
# 3 13.5899 50.4974 39.2089 0.0000 0.0000 0.0000
# 4 0.0000 0.0000 0.0000 34.9755 0.0000 0.0000
# 5 0.0000 0.0000 0.0000 0.0000 15.3604 0.0000
# 6 0.0000 0.0000 0.0000 0.0000 0.0000 18.6478
#
#
#
# Elastic Compliance Matrix: (Units=1/GPa)
#
#
# Indices 1 2 3 4 5 6 
#
# 1 0.033521 -0.002042 -0.008989 0.000000 0.000000 0.000000
# 2 -0.002042 0.019223 -0.024050 0.000000 0.000000 0.000000
# 3 -0.008989 -0.024050 0.059594 0.000000 0.000000 0.000000
# 4 0.000000 0.000000 0.000000 0.028591 0.000000 0.000000
# 5 0.000000 0.000000 0.000000 0.000000 0.065102 0.000000
# 6 0.000000 0.000000 0.000000 0.000000 0.000000 0.053626
#
#
# Mechanical properties :
#
#
# Convention : Reuss Voigt Hill
#
# Bulk Modulus (GPa) = 23.70970 40.09991 31.90481
# Shear Modulus (GPa) = 14.54007 20.90087 17.72047
#
# Velocity S-wave (km/s) = 2.94070 3.52574 3.24643
# Velocity P-wave (km/s) = 5.06278 6.35798 5.74698
#
# Compressibility (1/GPa) = 0.04217682
#
# Stress axis : x y z
#
# Youngs Moduli (GPa) = 29.83243 52.02053 16.78021
#
# Poissons Ratio (x) = 0.10621 0.15083
# Poissons Ratio (y) = 0.06091 0.40356
# Poissons Ratio (z) = 0.26816 1.25109
#
# Static dielectric constant tensor:
#      x y z
#    x 1.585390 0.000000 0.000000 
#    y 0.000000 1.596110 0.000000 
#    z 0.000000 0.000000 1.577480 
# 
# From -- ./inp_files/7561.got.cif
#   From: 2010.05.17/outbox.cif.g08.bks.cpg/sg46_4_cif.got.tgz:7561.got - 2010.06.03 19:58:25.
