data_PCOD9377958
_publ_section_title
;
Structure prediction by ZEFSAII (Michael W. Deem and Ramdas Pophale) SiO2 
 PCOD9377958
Probable space group: I M A 2
;
_chemical_formula_sum "Si O2"
_cell_formula_units_Z 64
_cell_length_a 8.927752
_cell_length_b 27.122319
_cell_length_c 18.903232
_cell_angle_alpha 90.000000
_cell_angle_beta 90.000000
_cell_angle_gamma 90.000000
_cell_volume 4577.253883
_symmetry_space_group_name_H-M "I M A 2"
_symmetry_group_IT_number 46
_symmetry_cell_setting 'orthorhombic'
loop_
_space_group_symop_operation_xyz
x,y,z
-x,-y,z
1/2-x,y,z
1/2+x,-y,z
1/2+x,1/2+y,1/2+z
1/2-x,1/2-y,1/2+z
-x,1/2+y,1/2+z
x,1/2-y,1/2+z
loop_
_atom_site_type_symbol
_atom_site_label
_atom_site_fract_x
_atom_site_fract_y
_atom_site_fract_z
Si Si1 0.930704 0.849908 0.575220
Si Si2 0.077431 0.199007 0.437268
Si Si3 0.070246 0.051988 0.660244
Si Si4 0.429980 0.744087 0.152501
Si Si5 0.922853 0.800182 0.029418
Si Si6 0.929736 0.253865 0.314801
Si Si7 0.069958 0.850939 0.902151
Si Si8 0.930411 0.052309 0.814551
O O1 0.750000 0.842192 0.577431
O O2 0.977420 0.841662 0.493488
O O3 0.963156 0.903207 0.607421
O O4 0.006706 0.807456 0.622222
O O5 0.250000 0.189066 0.419111
O O6 0.072217 0.249387 0.483702
O O7 0.987880 0.211158 0.366602
O O8 0.250000 0.047376 0.667449
O O9 0.998512 0.062976 0.736995
O O10 0.000000 0.000000 0.636901
O O11 0.250000 0.742912 0.149591
O O12 0.479265 0.750328 0.233746
O O13 0.490819 0.786881 0.101104
O O14 0.750000 0.811607 0.043715
O O15 0.996967 0.840226 0.977999
O O16 0.750000 0.253215 0.315252
O O17 0.976528 0.306383 0.349216
O O18 0.250000 0.848259 0.909205
O O19 0.031570 0.903052 0.867055
O O20 0.750000 0.048639 0.809233
O O21 0.000000 0.000000 0.837098
#
# Coordination Sequence:
#
# PCOD9377958 Si02
#       8
#     8   8   8   8   8   8   8   8
#     4   9  18  30  42  58  80 107 139 171 203 239
#     4   8  15  27  40  55  76 102 131 163 198 235
#     4  10  19  30  43  59  82 109 139 175 209 242
#     4  10  18  27  41  60  83 109 136 166 199 239
#     4   9  17  28  41  58  80 105 135 168 201 240
#     4   9  17  27  39  58  81 105 134 165 197 235
#     4   9  17  29  43  58  79 108 140 171 203 239
#     4  10  19  30  43  60  83 109 140 175 208 243
#
# _framework density 13.982182
#
# number of rings (size 3 to 8) (size 9 to 14) (size 15 to 20)
#    0.000    2.750    0.000    3.750    0.000    7.000 
#    0.000    2.500    0.000    0.000    0.000    0.000 
#    0.000    1.000    0.000    7.500    0.000    4.375 
#
# Total GULP energy -178235.067043 kJ/mol
# GULP energy per Si atom -5569.845845 kJ/mol
# Density = 1.395036 g / cm^3
# Si number density = 13.982182 Si / 1000 Ang^3
#
#
#
# Elastic Constant Matrix: (Units=GPa)
#
#
# Indices 1 2 3 4 5 6 
#
# 1 41.3871 35.8534 41.9838 0.0000 0.0000 0.0000
# 2 35.8534 91.2358 63.0228 0.0000 0.0000 0.0000
# 3 41.9838 63.0228 118.3332 0.0001 0.0000 0.0000
# 4 0.0000 0.0000 0.0001 27.6416 0.0000 0.0000
# 5 0.0000 0.0000 0.0000 0.0000 21.6608 0.0000
# 6 0.0000 0.0000 0.0000 0.0000 0.0000 17.6711
#
#
#
# Elastic Compliance Matrix: (Units=1/GPa)
#
#
# Indices 1 2 3 4 5 6 
#
# 1 0.042855 -0.010027 -0.009864 0.000000 0.000000 0.000000
# 2 -0.010027 0.019686 -0.006927 0.000000 0.000000 0.000000
# 3 -0.009864 -0.006927 0.015640 0.000000 0.000000 0.000000
# 4 0.000000 0.000000 0.000000 0.036177 0.000000 0.000000
# 5 0.000000 0.000000 0.000000 0.000000 0.046166 0.000000
# 6 0.000000 0.000000 0.000000 0.000000 0.000000 0.056590
#
#
# Mechanical properties :
#
#
# Convention : Reuss Voigt Hill
#
# Bulk Modulus (GPa) = 40.74318 59.18625 49.96472
# Shear Modulus (GPa) = 17.92551 20.73443 19.32997
#
# Velocity S-wave (km/s) = 3.58442 3.85505 3.72219
# Velocity P-wave (km/s) = 6.80686 7.88903 7.36784
#
# Compressibility (1/GPa) = 0.02454398
#
# Stress axis : x y z
#
# Youngs Moduli (GPa) = 23.33446 50.79789 63.93949
#
# Poissons Ratio (x) = 0.50935 0.63073
# Poissons Ratio (y) = 0.23397 0.44291
# Poissons Ratio (z) = 0.23018 0.35187
#
# Static dielectric constant tensor:
#      x y z
#    x 1.473370 0.000000 0.000000 
#    y 0.000000 1.448700 0.000000 
#    z 0.000000 0.000000 1.458210 
# 
# From -- ./inp_files/18673.got.cif
#   From: 2010.05.17/outbox.cif.g08.bks.cpg/sg46_10_cif.got.tgz:18673.got - 2010.06.03 19:58:25.
