data_PCOD9377130
_publ_section_title
;
Structure prediction by ZEFSAII (Michael W. Deem and Ramdas Pophale) SiO2 
 PCOD9377130
Probable space group: I B A 2
;
_chemical_formula_sum "Si O2"
_cell_formula_units_Z 64
_cell_length_a 12.137491
_cell_length_b 26.328210
_cell_length_c 9.793901
_cell_angle_alpha 90.000000
_cell_angle_beta 90.000000
_cell_angle_gamma 90.000000
_cell_volume 3129.723450
_symmetry_space_group_name_H-M "I B A 2"
_symmetry_group_IT_number 45
_symmetry_cell_setting 'orthorhombic'
loop_
_space_group_symop_operation_xyz
x,y,z
-x,-y,z
-x,y,1/2+z
x,-y,1/2+z
1/2+x,1/2+y,1/2+z
1/2-x,1/2-y,1/2+z
1/2-x,1/2+y,z
1/2+x,1/2-y,z
loop_
_atom_site_type_symbol
_atom_site_label
_atom_site_fract_x
_atom_site_fract_y
_atom_site_fract_z
Si Si1 0.766791 0.297071 0.366550
Si Si2 0.735308 0.955470 0.398965
Si Si3 0.992242 0.667263 0.775928
Si Si4 0.075886 0.121820 0.362521
Si Si5 0.297522 0.947551 0.575873
Si Si6 0.850358 0.745601 0.149084
Si Si7 0.381805 0.362672 0.564217
Si Si8 0.022317 0.600812 0.523879
O O1 0.860066 0.327420 0.282461
O O2 0.655323 0.329136 0.381019
O O3 0.812520 0.285108 0.516021
O O4 0.738272 0.249030 0.271674
O O5 0.847946 0.923991 0.413750
O O6 0.712555 0.960875 0.236673
O O7 0.632793 0.923764 0.463298
O O8 0.745749 0.007842 0.479586
O O9 0.018596 0.647158 0.927000
O O10 0.044821 0.719368 0.721265
O O11 0.035315 0.624523 0.673223
O O12 0.059945 0.116244 0.200996
O O13 0.962476 0.128962 0.438933
O O14 0.229102 0.895628 0.551702
O O15 0.424209 0.939094 0.535905
O O16 0.865422 0.802891 0.093602
#
# Coordination Sequence:
#
# PCOD9377130 Si02
#       8
#     8   8   8   8   8   8   8   8
#     4  11  25  43  63  98 138 177 228 285 335 421
#     4  11  24  45  69  99 135 179 224 285 346 414
#     4  12  24  42  66  99 137 181 223 281 351 408
#     4  10  22  46  65  93 133 168 225 281 336 399
#     4  11  26  45  68  99 138 176 229 283 349 413
#     4  11  26  39  67  96 134 184 228 275 348 410
#     4  10  25  44  65  95 132 178 220 289 329 404
#     4  12  23  44  68  98 142 176 226 285 349 415
#
# _framework density 20.449090999999999
#
# number of rings (size 3 to 8) (size 9 to 14) (size 15 to 20)
#    0.000    1.000    3.750    1.875   10.500    2.500 
#    0.000    2.500    0.000    0.000    0.000    0.000 
#    0.000    0.000    0.000    0.000    0.000    0.000 
#
# Total GULP energy -178698.253336 kJ/mol
# GULP energy per Si atom -5584.320417 kJ/mol
# Density = 2.040255 g / cm^3
# Si number density = 20.449091 Si / 1000 Ang^3
#
#
#
# Elastic Constant Matrix: (Units=GPa)
#
#
# Indices 1 2 3 4 5 6 
#
# 1 22.1655 -15.4759 9.4998 0.0002 0.0000 0.0000
# 2 -15.4759 55.0557 -8.4336 -0.0001 0.0001 0.0001
# 3 9.4998 -8.4336 40.5436 -0.0006 0.0004 0.0000
# 4 0.0002 -0.0001 -0.0006 40.2201 0.0001 0.0000
# 5 0.0000 0.0001 0.0004 0.0001 34.9913 0.0000
# 6 0.0000 0.0001 0.0000 0.0000 0.0000 25.0831
#
#
#
# Elastic Compliance Matrix: (Units=1/GPa)
#
#
# Indices 1 2 3 4 5 6 
#
# 1 0.060531 0.015331 -0.010994 0.000000 0.000000 0.000000
# 2 0.015331 0.022644 0.001118 0.000000 0.000000 0.000000
# 3 -0.010994 0.001118 0.027473 0.000000 0.000000 0.000000
# 4 0.000000 0.000000 0.000000 0.024863 0.000000 0.000000
# 5 0.000000 0.000000 0.000000 0.000000 0.028579 0.000000
# 6 0.000000 0.000000 0.000000 0.000000 0.000000 0.039867
#
#
# Mechanical properties :
#
#
# Convention : Reuss Voigt Hill
#
# Bulk Modulus (GPa) = 8.22648 9.88281 9.05464
# Shear Modulus (GPa) = 21.40710 28.87054 25.13882
#
# Velocity S-wave (km/s) = 3.23901 3.76150 3.50999
# Velocity P-wave (km/s) = 4.24499 4.86915 4.56774
#
# Compressibility (1/GPa) = 0.12155873
#
# Stress axis : x y z
#
# Youngs Moduli (GPa) = 16.52042 44.16149 36.39884
#
# Poissons Ratio (x) = -0.67704 0.40017
# Poissons Ratio (y) = -0.25327 -0.04070
# Poissons Ratio (z) = 0.18163 -0.04938
#
# Static dielectric constant tensor:
#      x y z
#    x 1.721160 0.000000 0.000000 
#    y 0.000000 1.770310 0.000000 
#    z 0.000000 0.000000 1.713120 
# 
# From -- ./inp_files/1495.got.cif
#   From: 2010.05.17/outbox.cif.g08.bks.cpg/sg45_1_cif.got.tgz:1495.got - 2010.06.03 19:51:22.
