data_PCOD9377817
_publ_section_title
;
Structure prediction by ZEFSAII (Michael W. Deem and Ramdas Pophale) SiO2 
 PCOD9377817
Probable space group: I M A 2
;
_chemical_formula_sum "Si O2"
_cell_formula_units_Z 48
_cell_length_a 9.052088
_cell_length_b 33.344706
_cell_length_c 7.252271
_cell_angle_alpha 90.000000
_cell_angle_beta 90.000000
_cell_angle_gamma 90.000000
_cell_volume 2189.019771
_symmetry_space_group_name_H-M "I M A 2"
_symmetry_group_IT_number 46
_symmetry_cell_setting 'orthorhombic'
loop_
_space_group_symop_operation_xyz
x,y,z
-x,-y,z
1/2-x,y,z
1/2+x,-y,z
1/2+x,1/2+y,1/2+z
1/2-x,1/2-y,1/2+z
-x,1/2+y,1/2+z
x,1/2-y,1/2+z
loop_
_atom_site_type_symbol
_atom_site_label
_atom_site_fract_x
_atom_site_fract_y
_atom_site_fract_z
Si Si1 0.079937 0.459184 0.820090
Si Si2 0.568567 0.872259 0.373825
Si Si3 0.420844 0.040439 0.770295
Si Si4 0.425613 0.620799 0.280118
Si Si5 0.580988 0.699353 0.342613
Si Si6 0.917517 0.786299 0.405802
O O1 0.250000 0.462581 0.765444
O O2 0.029134 0.413768 0.770537
O O3 0.000000 0.500000 0.760315
O O4 0.073812 0.459103 0.045394
O O5 0.750000 0.872598 0.397472
O O6 0.486312 0.875744 0.570105
O O7 0.528910 0.827072 0.307385
O O8 0.250000 0.041723 0.821936
O O9 0.505536 0.079023 0.844275
O O10 0.500000 0.000000 0.829803
O O11 0.250000 0.620037 0.282710
O O12 0.489263 0.659623 0.383025
O O13 0.750000 0.694873 0.411928
O O14 0.512144 0.742247 0.398163
O O15 0.589364 0.702714 0.120577
O O16 0.750000 0.779247 0.336622
#
# Coordination Sequence:
#
# PCOD9377817 Si02
#       6
#     8   8   8   8   8   8
#     4   8  13  19  29  45  68  95 124 153 185 224
#     4   8  14  25  37  51  72 101 132 164 199 238
#     4   9  15  23  34  50  73 102 133 165 198 239
#     4  10  17  24  35  53  76 104 133 163 199 242
#     4   9  16  28  43  59  78 104 134 168 205 245
#     4   8  14  25  43  60  76 100 133 167 204 244
#
# _framework density 21.927624000000002
#
# number of rings (size 3 to 8) (size 9 to 14) (size 15 to 20)
#    0.000    3.333    0.000    4.000    0.000    4.000 
#    0.000    3.333    0.000    0.000    0.000    0.000 
#    0.000    1.333    0.000    5.333    0.000    3.833 
#
# Total GULP energy -133703.070532 kJ/mol
# GULP energy per Si atom -5570.961272 kJ/mol
# Density = 2.187772 g / cm^3
# Si number density = 21.927624 Si / 1000 Ang^3
#
#
#
# Elastic Constant Matrix: (Units=GPa)
#
#
# Indices 1 2 3 4 5 6 
#
# 1 84.6736 86.9132 9.7721 0.0014 0.0000 0.0000
# 2 86.9132 278.3002 -8.8854 0.0048 -0.0005 -0.0002
# 3 9.7721 -8.8854 58.8194 0.0060 -0.0006 -0.0002
# 4 0.0014 0.0048 0.0060 3.7869 -0.0006 -0.0004
# 5 0.0000 -0.0005 -0.0006 -0.0006 -10.7626 0.0003
# 6 0.0000 -0.0002 -0.0002 -0.0004 0.0003 33.4921
#
#
#
# Elastic Compliance Matrix: (Units=1/GPa)
#
#
# Indices 1 2 3 4 5 6 
#
# 1 0.018234 -0.005819 -0.003909 0.000007 0.000000 0.000000
# 2 -0.005819 0.005468 0.001793 -0.000008 0.000000 0.000000
# 3 -0.003909 0.001793 0.017921 -0.000029 -0.000001 0.000000
# 4 0.000007 -0.000008 -0.000029 0.264068 -0.000015 0.000003
# 5 0.000000 0.000000 -0.000001 -0.000015 -0.092915 0.000001
# 6 0.000000 0.000000 0.000000 0.000003 0.000001 0.029858
#
#
# Mechanical properties :
#
#
# Convention : Reuss Voigt Hill
#
# Bulk Modulus (GPa) = 38.82970 66.37699 52.60335
# Shear Modulus (GPa) = 18.72028 27.56951 23.14489
#
# Velocity S-wave (km/s) = 2.92504 3.54968 3.25239
# Velocity P-wave (km/s) = 5.39948 6.86564 6.17622
#
# Compressibility (1/GPa) = 0.02575348
#
# Stress axis : x y z
#
# Youngs Moduli (GPa) = 54.84116 182.88588 55.79930
#
# Poissons Ratio (x) = 1.06429 0.21809
# Poissons Ratio (y) = 0.31914 -0.10004
# Poissons Ratio (z) = 0.21435 -0.32788
#
# Static dielectric constant tensor:
#      x y z
#    x 1.737000 0.000000 0.000000 
#    y 0.000000 1.904730 0.000000 
#    z 0.000000 0.000000 1.894920 
# 
# From -- ./inp_files/9564.got.cif
#   From: 2010.05.17/outbox.cif.g08.bks.cpg/sg46_5_cif.got.tgz:9564.got - 2010.06.03 19:58:25.
