data_PCOD9377212
_publ_section_title
;
Structure prediction by ZEFSAII (Michael W. Deem and Ramdas Pophale) SiO2 
 PCOD9377212
Probable space group: I B A 2
;
_chemical_formula_sum "Si O2"
_cell_formula_units_Z 64
_cell_length_a 10.406670
_cell_length_b 12.531694
_cell_length_c 22.495200
_cell_angle_alpha 90.000000
_cell_angle_beta 90.000000
_cell_angle_gamma 90.000000
_cell_volume 2933.671107
_symmetry_space_group_name_H-M "I B A 2"
_symmetry_group_IT_number 45
_symmetry_cell_setting 'orthorhombic'
loop_
_space_group_symop_operation_xyz
x,y,z
-x,-y,z
-x,y,1/2+z
x,-y,1/2+z
1/2+x,1/2+y,1/2+z
1/2-x,1/2-y,1/2+z
1/2-x,1/2+y,z
1/2+x,1/2-y,z
loop_
_atom_site_type_symbol
_atom_site_label
_atom_site_fract_x
_atom_site_fract_y
_atom_site_fract_z
Si Si1 0.054237 0.212019 0.900150
Si Si2 0.151816 0.523928 0.565570
Si Si3 0.610486 0.587260 0.517053
Si Si4 0.787130 0.834897 0.357490
Si Si5 0.902086 0.260959 0.614264
Si Si6 0.629345 0.451500 0.795751
Si Si7 0.097032 0.592337 0.178610
Si Si8 0.747183 0.761980 0.737262
O O1 0.144714 0.311969 0.882674
O O2 0.085660 0.130927 0.846376
O O3 0.898885 0.205172 0.902348
O O4 0.105372 0.166042 0.961632
O O5 0.251708 0.470167 0.521819
O O6 0.167573 0.650422 0.573223
O O7 0.181107 0.473929 0.631246
O O8 0.000000 0.500000 0.552954
O O9 0.500000 0.500000 0.509143
O O10 0.583754 0.654938 0.576723
O O11 0.820513 0.763626 0.299100
O O12 0.800812 0.954801 0.332341
O O13 0.830007 0.248553 0.676741
O O14 0.031483 0.320104 0.635077
O O15 0.500000 0.500000 0.768096
O O16 0.701662 0.381683 0.746432
O O17 0.151084 0.664847 0.230814
O O18 0.000000 0.500000 0.200576
#
# Coordination Sequence:
#
# PCOD9377212 Si02
#       8
#     8   8   8   8   8   8   8   8
#     4  10  24  47  66  96 133 176 238 288 345 411
#     4   9  22  44  61  92 139 181 223 280 345 417
#     4  12  25  42  71  99 135 184 238 294 348 414
#     4  10  23  43  69  96 130 179 226 292 352 409
#     4  10  24  38  61 100 137 176 234 278 354 421
#     4   9  21  41  63  95 132 173 227 290 343 409
#     4   9  21  41  58  90 142 180 219 281 336 427
#     4  11  22  38  65  94 135 179 227 281 356 426
#
# _framework density 21.815669
#
# number of rings (size 3 to 8) (size 9 to 14) (size 15 to 20)
#    0.000    2.250    1.250    1.125   10.500    4.000 
#    0.000    2.500    0.000    0.000    0.000    0.000 
#    0.000    0.000    0.000    0.000    0.000    0.000 
#
# Total GULP energy -178395.180258 kJ/mol
# GULP energy per Si atom -5574.849383 kJ/mol
# Density = 2.176602 g / cm^3
# Si number density = 21.815669 Si / 1000 Ang^3
#
#
#
# Elastic Constant Matrix: (Units=GPa)
#
#
# Indices 1 2 3 4 5 6 
#
# 1 42.7405 15.4582 12.2413 0.0000 0.0000 0.0000
# 2 15.4582 60.3907 -10.7012 0.0000 0.0000 0.0000
# 3 12.2413 -10.7012 59.1839 0.0000 0.0000 0.0000
# 4 0.0000 0.0000 0.0000 24.6629 0.0000 0.0000
# 5 0.0000 0.0000 0.0000 0.0000 21.5761 0.0000
# 6 0.0000 0.0000 0.0000 0.0000 0.0000 27.3589
#
#
#
# Elastic Compliance Matrix: (Units=1/GPa)
#
#
# Indices 1 2 3 4 5 6 
#
# 1 0.028681 -0.008670 -0.007500 0.000000 0.000000 0.000000
# 2 -0.008670 0.019728 0.005360 0.000000 0.000000 0.000000
# 3 -0.007500 0.005360 0.019417 0.000000 0.000000 0.000000
# 4 0.000000 0.000000 0.000000 0.040547 0.000000 0.000000
# 5 0.000000 0.000000 0.000000 0.000000 0.046348 0.000000
# 6 0.000000 0.000000 0.000000 0.000000 0.000000 0.036551
#
#
# Mechanical properties :
#
#
# Convention : Reuss Voigt Hill
#
# Bulk Modulus (GPa) = 21.64218 21.81243 21.72731
# Shear Modulus (GPa) = 21.90163 24.40736 23.15449
#
# Velocity S-wave (km/s) = 3.17194 3.34847 3.26140
# Velocity P-wave (km/s) = 4.83290 4.99699 4.91563
#
# Compressibility (1/GPa) = 0.04620606
#
# Stress axis : x y z
#
# Youngs Moduli (GPa) = 34.86634 50.68913 51.50127
#
# Poissons Ratio (x) = 0.43950 0.38626
# Poissons Ratio (y) = 0.30231 -0.27607
# Poissons Ratio (z) = 0.26150 -0.27172
#
# Static dielectric constant tensor:
#      x y z
#    x 1.933770 0.000000 0.000000 
#    y 0.000000 1.845880 0.000000 
#    z 0.000000 0.000000 1.780830 
# 
# From -- ./inp_files/9699.got.cif
#   From: 2010.05.17/outbox.cif.g08.bks.cpg/sg45_5_cif.got.tgz:9699.got - 2010.06.03 19:51:22.
