data_PCOD9377830
_publ_section_title
;
Structure prediction by ZEFSAII (Michael W. Deem and Ramdas Pophale) SiO2 
 PCOD9377830
Probable space group: I M A 2
;
_chemical_formula_sum "Si O2"
_cell_formula_units_Z 56
_cell_length_a 8.652764
_cell_length_b 22.599498
_cell_length_c 18.369813
_cell_angle_alpha 90.000000
_cell_angle_beta 90.000000
_cell_angle_gamma 90.000000
_cell_volume 3592.182447
_symmetry_space_group_name_H-M "I M A 2"
_symmetry_group_IT_number 46
_symmetry_cell_setting 'orthorhombic'
loop_
_space_group_symop_operation_xyz
x,y,z
-x,-y,z
1/2-x,y,z
1/2+x,-y,z
1/2+x,1/2+y,1/2+z
1/2-x,1/2-y,1/2+z
-x,1/2+y,1/2+z
x,1/2-y,1/2+z
loop_
_atom_site_type_symbol
_atom_site_label
_atom_site_fract_x
_atom_site_fract_y
_atom_site_fract_z
Si Si1 0.436437 0.721669 0.457140
Si Si2 0.433354 0.309442 0.765748
Si Si3 0.066848 0.148821 0.419386
Si Si4 0.933165 0.845235 0.658060
Si Si5 0.567494 0.318031 0.304849
Si Si6 0.434680 0.784646 0.120696
Si Si7 0.566663 0.434235 0.040329
O O1 0.250000 0.730737 0.453811
O O2 0.515485 0.785402 0.444553
O O3 0.477678 0.678712 0.389821
O O4 0.474645 0.699199 0.537732
O O5 0.250000 0.295627 0.766393
O O6 0.462271 0.353885 0.832432
O O7 0.528308 0.250328 0.785882
O O8 0.485634 0.323149 0.683927
O O9 0.250000 0.142604 0.431968
O O10 0.978363 0.101075 0.467146
O O11 0.750000 0.839234 0.651207
O O12 0.979000 0.853933 0.742630
O O13 0.010439 0.783326 0.632549
O O14 0.994215 0.896898 0.606621
O O15 0.750000 0.328476 0.297407
O O16 0.250000 0.786928 0.129368
O O17 0.500000 0.500000 0.038520
O O18 0.750000 0.435634 0.048439
#
# Coordination Sequence:
#
# PCOD9377830 Si02
#       7
#     8   8   8   8   8   8   8
#     4   9  17  27  42  64  91 122 154 185 220 265
#     4   9  17  27  40  61  87 116 149 183 220 265
#     4  10  19  31  46  63  86 117 151 188 228 267
#     4  11  20  31  45  63  87 117 150 187 228 268
#     4   9  16  27  42  61  85 117 152 184 220 264
#     4  10  17  26  42  65  91 122 154 184 220 265
#     4  12  24  37  51  67  87 115 153 193 231 270
#
# _framework density 15.589409
#
# number of rings (size 3 to 8) (size 9 to 14) (size 15 to 20)
#    0.000    2.000    1.429    6.000    0.000    2.857 
#    0.000    0.000    0.000    0.000    0.000    0.000 
#    0.000    1.143    0.000    6.000    0.000    5.143 
#
# Total GULP energy -156046.830644 kJ/mol
# GULP energy per Si atom -5573.101094 kJ/mol
# Density = 1.555393 g / cm^3
# Si number density = 15.589409 Si / 1000 Ang^3
#
#
#
# Elastic Constant Matrix: (Units=GPa)
#
#
# Indices 1 2 3 4 5 6 
#
# 1 48.9441 12.4085 27.9432 0.0000 0.0000 0.0000
# 2 12.4085 39.1538 28.6291 0.0000 0.0000 0.0000
# 3 27.9432 28.6291 143.0511 0.0000 0.0000 0.0000
# 4 0.0000 0.0000 0.0000 10.4246 0.0000 0.0000
# 5 0.0000 0.0000 0.0000 0.0000 24.3704 0.0000
# 6 0.0000 0.0000 0.0000 0.0000 0.0000 16.7530
#
#
#
# Elastic Compliance Matrix: (Units=1/GPa)
#
#
# Indices 1 2 3 4 5 6 
#
# 1 0.023755 -0.004844 -0.003671 0.000000 0.000000 0.000000
# 2 -0.004844 0.030906 -0.005239 0.000000 0.000000 0.000000
# 3 -0.003671 -0.005239 0.008756 0.000000 0.000000 0.000000
# 4 0.000000 0.000000 0.000000 0.095927 0.000000 0.000000
# 5 0.000000 0.000000 0.000000 0.000000 0.041033 0.000000
# 6 0.000000 0.000000 0.000000 0.000000 0.000000 0.059691
#
#
# Mechanical properties :
#
#
# Convention : Reuss Voigt Hill
#
# Bulk Modulus (GPa) = 27.84796 41.01228 34.43012
# Shear Modulus (GPa) = 16.69188 21.12081 18.90634
#
# Velocity S-wave (km/s) = 3.27573 3.68478 3.48626
# Velocity P-wave (km/s) = 5.67533 6.66846 6.19184
#
# Compressibility (1/GPa) = 0.03590927
#
# Stress axis : x y z
#
# Youngs Moduli (GPa) = 42.09570 32.35582 114.20669
#
# Poissons Ratio (x) = 0.15675 0.41923
# Poissons Ratio (y) = 0.20393 0.59833
# Poissons Ratio (z) = 0.15452 0.16951
#
# Static dielectric constant tensor:
#      x y z
#    x 1.521360 0.000000 0.000000 
#    y 0.000000 1.465530 0.000000 
#    z 0.000000 0.000000 1.598370 
# 
# From -- ./inp_files/18470.got.cif
#   From: 2010.05.17/outbox.cif.g08.bks.cpg/sg46_10_cif.got.tgz:18470.got - 2010.06.03 19:58:25.
