data_PCOD9377942
_publ_section_title
;
Structure prediction by ZEFSAII (Michael W. Deem and Ramdas Pophale) SiO2 
 PCOD9377942
Probable space group: I M A 2
;
_chemical_formula_sum "Si O2"
_cell_formula_units_Z 64
_cell_length_a 8.887122
_cell_length_b 18.657652
_cell_length_c 27.138244
_cell_angle_alpha 90.000000
_cell_angle_beta 90.000000
_cell_angle_gamma 90.000000
_cell_volume 4499.869027
_symmetry_space_group_name_H-M "I M A 2"
_symmetry_group_IT_number 46
_symmetry_cell_setting 'orthorhombic'
loop_
_space_group_symop_operation_xyz
x,y,z
-x,-y,z
1/2-x,y,z
1/2+x,-y,z
1/2+x,1/2+y,1/2+z
1/2-x,1/2-y,1/2+z
-x,1/2+y,1/2+z
x,1/2-y,1/2+z
loop_
_atom_site_type_symbol
_atom_site_label
_atom_site_fract_x
_atom_site_fract_y
_atom_site_fract_z
Si Si1 0.430027 0.921546 0.943770
Si Si2 0.930483 0.077195 0.239447
Si Si3 0.577169 0.800247 0.482071
Si Si4 0.571441 0.421954 0.924806
Si Si5 0.069111 0.578214 0.625198
Si Si6 0.423451 0.299873 0.384166
Si Si7 0.931829 0.662666 0.536825
Si Si8 0.568658 0.326318 0.829678
O O1 0.250000 0.924514 0.947075
O O2 0.481966 0.869396 0.899432
O O3 0.500000 0.000000 0.937888
O O4 0.497401 0.886454 0.993695
O O5 0.750000 0.070754 0.242928
O O6 0.967234 0.093648 0.182521
O O7 0.977860 0.137473 0.278366
O O8 0.000000 0.000000 0.251993
O O9 0.750000 0.821603 0.490665
O O10 0.481098 0.869484 0.468674
O O11 0.574264 0.750128 0.433200
O O12 0.527477 0.745263 0.524561
O O13 0.500000 0.500000 0.927594
O O14 0.750000 0.428488 0.925186
O O15 0.528280 0.381798 0.873720
O O16 0.250000 0.576265 0.619470
O O17 0.000000 0.500000 0.613787
O O18 0.995801 0.634524 0.588120
O O19 0.250000 0.318433 0.374230
O O20 0.493332 0.249477 0.342229
O O21 0.750000 0.657049 0.534557
O O22 0.750000 0.317946 0.830571
#
# Coordination Sequence:
#
# PCOD9377942 Si02
#       8
#     8   8   8   8   8   8   8   8
#     4  11  20  30  44  62  85 112 141 173 207 248
#     4   9  18  30  43  60  84 112 145 181 215 248
#     4   8  16  29  42  56  78 105 134 168 205 243
#     4  10  18  26  40  60  83 109 138 169 202 241
#     4  10  19  30  43  60  83 112 144 180 215 249
#     4   9  17  29  43  61  83 108 138 172 208 247
#     4  10  19  31  45  61  82 110 142 176 212 252
#     4   9  17  29  43  60  82 112 145 175 208 246
#
# _framework density 14.222636
#
# number of rings (size 3 to 8) (size 9 to 14) (size 15 to 20)
#    0.000    2.500    0.000    4.125    0.000    5.000 
#    0.000    0.000    0.000    0.000    0.000    0.000 
#    0.000    1.000    0.000    5.250    0.000    4.500 
#
# Total GULP energy -178346.763038 kJ/mol
# GULP energy per Si atom -5573.336345 kJ/mol
# Density = 1.419026 g / cm^3
# Si number density = 14.222636 Si / 1000 Ang^3
#
#
#
# Elastic Constant Matrix: (Units=GPa)
#
#
# Indices 1 2 3 4 5 6 
#
# 1 63.2352 45.7435 28.1136 0.0000 0.0000 0.0000
# 2 45.7435 88.6106 38.9250 0.0000 0.0000 0.0000
# 3 28.1136 38.9250 65.5625 0.0000 0.0000 0.0000
# 4 0.0000 0.0000 0.0000 28.1802 0.0000 0.0000
# 5 0.0000 0.0000 0.0000 0.0000 16.3141 0.0000
# 6 0.0000 0.0000 0.0000 0.0000 0.0000 25.2961
#
#
#
# Elastic Compliance Matrix: (Units=1/GPa)
#
#
# Indices 1 2 3 4 5 6 
#
# 1 0.026114 -0.011583 -0.004321 0.000000 0.000000 0.000000
# 2 -0.011583 0.020404 -0.007148 0.000000 0.000000 0.000000
# 3 -0.004321 -0.007148 0.021349 0.000000 0.000000 0.000000
# 4 0.000000 0.000000 0.000000 0.035486 0.000000 0.000000
# 5 0.000000 0.000000 0.000000 0.000000 0.061297 0.000000
# 6 0.000000 0.000000 0.000000 0.000000 0.000000 0.039532
#
#
# Mechanical properties :
#
#
# Convention : Reuss Voigt Hill
#
# Bulk Modulus (GPa) = 45.94568 49.21914 47.58241
# Shear Modulus (GPa) = 19.41454 20.93316 20.17385
#
# Velocity S-wave (km/s) = 3.69866 3.84059 3.77029
# Velocity P-wave (km/s) = 7.11441 7.37212 7.24441
#
# Compressibility (1/GPa) = 0.02176483
#
# Stress axis : x y z
#
# Youngs Moduli (GPa) = 38.29401 49.00907 46.84038
#
# Poissons Ratio (x) = 0.56765 0.20240
# Poissons Ratio (y) = 0.44354 0.33480
# Poissons Ratio (z) = 0.16547 0.35030
#
# Static dielectric constant tensor:
#      x y z
#    x 1.476960 0.000000 0.000000 
#    y 0.000000 1.455970 0.000000 
#    z 0.000000 0.000000 1.467640 
# 
# From -- ./inp_files/24392.got.cif
#   From: 2010.05.17/outbox.cif.g08.bks.cpg/sg46_13_cif.got.tgz:24392.got - 2010.06.03 19:58:25.
