data_PCOD9377973
_publ_section_title
;
Structure prediction by ZEFSAII (Michael W. Deem and Ramdas Pophale) SiO2 
 PCOD9377973
Probable space group: I M A 2
;
_chemical_formula_sum "Si O2"
_cell_formula_units_Z 64
_cell_length_a 8.738979
_cell_length_b 27.085741
_cell_length_c 18.925104
_cell_angle_alpha 90.000000
_cell_angle_beta 90.000000
_cell_angle_gamma 90.000000
_cell_volume 4479.604702
_symmetry_space_group_name_H-M "I M A 2"
_symmetry_group_IT_number 46
_symmetry_cell_setting 'orthorhombic'
loop_
_space_group_symop_operation_xyz
x,y,z
-x,-y,z
1/2-x,y,z
1/2+x,-y,z
1/2+x,1/2+y,1/2+z
1/2-x,1/2-y,1/2+z
-x,1/2+y,1/2+z
x,1/2-y,1/2+z
loop_
_atom_site_type_symbol
_atom_site_label
_atom_site_fract_x
_atom_site_fract_y
_atom_site_fract_z
Si Si1 0.566179 0.053841 0.237110
Si Si2 0.067594 0.553285 0.572400
Si Si3 0.433119 0.293597 0.363441
Si Si4 0.566067 0.244531 0.237485
Si Si5 0.067628 0.147774 0.315521
Si Si6 0.932096 0.198367 0.442566
Si Si7 0.067996 0.353474 0.495044
Si Si8 0.065758 0.742340 0.573303
O O1 0.750000 0.053657 0.242907
O O2 0.525332 0.063338 0.154585
O O3 0.496343 0.097026 0.284373
O O4 0.500000 0.000000 0.255340
O O5 0.250000 0.551100 0.568844
O O6 0.000000 0.500000 0.553281
O O7 0.007223 0.597062 0.523749
O O8 0.250000 0.284969 0.364371
O O9 0.495015 0.288660 0.284275
O O10 0.518828 0.248801 0.403070
O O11 0.465117 0.340670 0.412793
O O12 0.750000 0.244417 0.244439
O O13 0.502187 0.193162 0.269688
O O14 0.525501 0.248313 0.155124
O O15 0.250000 0.149688 0.310666
O O16 0.015561 0.156850 0.396553
O O17 0.750000 0.191245 0.437452
O O18 0.974189 0.210819 0.523527
O O19 0.250000 0.356773 0.503020
O O20 0.009330 0.306796 0.540789
O O21 0.250000 0.736192 0.568458
#
# Coordination Sequence:
#
# PCOD9377973 Si02
#       8
#     8   8   8   8   8   8   8   8
#     4  10  20  33  46  62  83 109 140 175 210 244
#     4  10  20  32  46  62  83 109 140 175 210 245
#     4   9  17  28  40  58  82 108 138 172 206 244
#     4  10  18  28  42  61  84 111 142 175 208 247
#     4  11  20  29  42  61  84 112 143 173 206 247
#     4   9  16  28  43  58  79 108 139 173 208 244
#     4  10  19  29  43  61  83 111 143 174 207 246
#     4   9  18  29  42  61  84 110 142 175 209 247
#
# _framework density 14.286975
#
# number of rings (size 3 to 8) (size 9 to 14) (size 15 to 20)
#    0.000    2.250    0.000    5.625    0.000    7.500 
#    0.000    0.000    0.000    0.000    0.000    0.000 
#    0.000    1.000    0.000    5.250    0.000    4.500 
#
# Total GULP energy -178338.284447 kJ/mol
# GULP energy per Si atom -5573.071389 kJ/mol
# Density = 1.425446 g / cm^3
# Si number density = 14.286975 Si / 1000 Ang^3
#
#
#
# Elastic Constant Matrix: (Units=GPa)
#
#
# Indices 1 2 3 4 5 6 
#
# 1 55.2157 37.7728 39.1379 0.0000 0.0000 0.0000
# 2 37.7728 93.9409 60.3231 0.0000 0.0000 0.0000
# 3 39.1379 60.3231 107.0808 -0.0001 -0.0001 0.0000
# 4 0.0000 0.0000 -0.0001 23.9714 0.0000 0.0000
# 5 0.0000 0.0000 -0.0001 0.0000 9.7652 0.0000
# 6 0.0000 0.0000 0.0000 0.0000 0.0000 23.7388
#
#
#
# Elastic Compliance Matrix: (Units=1/GPa)
#
#
# Indices 1 2 3 4 5 6 
#
# 1 0.027184 -0.007129 -0.005919 0.000000 0.000000 0.000000
# 2 -0.007129 0.018548 -0.007843 0.000000 0.000000 0.000000
# 3 -0.005919 -0.007843 0.015921 0.000000 0.000000 0.000000
# 4 0.000000 0.000000 0.000000 0.041716 0.000000 0.000000
# 5 0.000000 0.000000 0.000000 0.000000 0.102404 0.000000
# 6 0.000000 0.000000 0.000000 0.000000 0.000000 0.042125
#
#
# Mechanical properties :
#
#
# Convention : Reuss Voigt Hill
#
# Bulk Modulus (GPa) = 50.33030 58.96720 54.64875
# Shear Modulus (GPa) = 16.87456 19.42868 18.15162
#
# Velocity S-wave (km/s) = 3.44046 3.69167 3.56828
# Velocity P-wave (km/s) = 7.14751 7.71584 7.43711
#
# Compressibility (1/GPa) = 0.01986875
#
# Stress axis : x y z
#
# Youngs Moduli (GPa) = 36.78689 53.91432 62.81159
#
# Poissons Ratio (x) = 0.38437 0.37181
# Poissons Ratio (y) = 0.26226 0.49264
# Poissons Ratio (z) = 0.21776 0.42286
#
# Static dielectric constant tensor:
#      x y z
#    x 1.477330 0.000000 0.000000 
#    y 0.000000 1.446330 0.000000 
#    z 0.000000 0.000000 1.501450 
# 
# From -- ./inp_files/18689.got.cif
#   From: 2010.05.17/outbox.cif.g08.bks.cpg/sg46_10_cif.got.tgz:18689.got - 2010.06.03 19:58:25.
