data_PCOD9377429
_publ_section_title
;
Structure prediction by ZEFSAII (Michael W. Deem and Ramdas Pophale) SiO2 
 PCOD9377429
Probable space group: I B A 2
;
_chemical_formula_sum "Si O2"
_cell_formula_units_Z 48
_cell_length_a 11.712256
_cell_length_b 12.012326
_cell_length_c 15.926559
_cell_angle_alpha 90.000000
_cell_angle_beta 90.000000
_cell_angle_gamma 90.000000
_cell_volume 2240.730476
_symmetry_space_group_name_H-M "I B A 2"
_symmetry_group_IT_number 45
_symmetry_cell_setting 'orthorhombic'
loop_
_space_group_symop_operation_xyz
x,y,z
-x,-y,z
-x,y,1/2+z
x,-y,1/2+z
1/2+x,1/2+y,1/2+z
1/2-x,1/2-y,1/2+z
1/2-x,1/2+y,z
1/2+x,1/2-y,z
loop_
_atom_site_type_symbol
_atom_site_label
_atom_site_fract_x
_atom_site_fract_y
_atom_site_fract_z
Si Si1 0.187720 0.544081 0.187130
Si Si2 0.453500 0.842165 0.232306
Si Si3 0.587443 0.904289 0.927469
Si Si4 0.412557 0.595711 0.274479
Si Si5 0.687720 0.544081 0.514818
Si Si6 0.046501 0.157835 0.469642
O O1 0.135645 0.419897 0.183389
O O2 0.283930 0.556492 0.258193
O O3 0.250000 0.571831 0.100974
O O4 0.080631 0.623255 0.206083
O O5 0.436286 0.877900 0.329808
O O6 0.432773 0.711402 0.226048
O O7 0.567227 0.788598 0.975900
O O8 0.500000 0.000000 0.955263
O O9 0.716070 0.943508 0.943755
O O10 0.500000 0.500000 0.246685
O O11 0.436286 0.622100 0.372139
O O12 0.580631 0.623255 0.495864
O O13 0.635645 0.419897 0.518558
#
# Coordination Sequence:
#
# PCOD9377429 Si02
#       6
#     8   8   8   8   8   8
#     4  11  25  44  66 100 143 179 226 287 347 409
#     4  10  25  45  67 103 136 179 241 280 339 411
#     4  11  24  42  74  97 135 183 233 286 337 406
#     4  11  24  42  74  97 135 183 233 286 337 406
#     4  11  25  44  66 100 143 179 226 287 347 409
#     4  10  25  45  67 103 136 179 241 280 339 411
#
# _framework density 21.421585
#
# number of rings (size 3 to 8) (size 9 to 14) (size 15 to 20)
#    0.000    1.333    3.333    1.000    9.333    5.333 
#    0.000    0.000    0.000    0.000    0.000    0.000 
#    0.000    0.000    0.000    0.000    0.000    0.000 
#
# Total GULP energy -134287.860662 kJ/mol
# GULP energy per Si atom -5595.327528 kJ/mol
# Density = 2.137283 g / cm^3
# Si number density = 21.421585 Si / 1000 Ang^3
#
#
#
# Elastic Constant Matrix: (Units=GPa)
#
#
# Indices 1 2 3 4 5 6 
#
# 1 195.1002 77.1666 55.3139 0.0000 0.0000 0.0000
# 2 77.1666 128.3380 6.5300 0.0000 0.0000 0.0000
# 3 55.3139 6.5300 83.7178 0.0000 0.0000 0.0000
# 4 0.0000 0.0000 0.0000 7.7888 0.0000 0.0000
# 5 0.0000 0.0000 0.0000 0.0000 72.0987 0.0000
# 6 0.0000 0.0000 0.0000 0.0000 0.0000 11.3271
#
#
#
# Elastic Compliance Matrix: (Units=1/GPa)
#
#
# Indices 1 2 3 4 5 6 
#
# 1 0.008545 -0.004870 -0.005266 0.000000 0.000000 0.000000
# 2 -0.004870 0.010598 0.002391 0.000000 0.000000 0.000000
# 3 -0.005266 0.002391 0.015238 0.000000 0.000000 0.000000
# 4 0.000000 0.000000 0.000000 0.128389 0.000000 0.000000
# 5 0.000000 0.000000 0.000000 0.000000 0.013870 0.000000
# 6 0.000000 0.000000 0.000000 0.000000 0.000000 0.088284
#
#
# Mechanical properties :
#
#
# Convention : Reuss Voigt Hill
#
# Bulk Modulus (GPa) = 52.93450 76.13078 64.53264
# Shear Modulus (GPa) = 17.43921 36.11927 26.77924
#
# Velocity S-wave (km/s) = 2.85633 4.11069 3.53952
# Velocity P-wave (km/s) = 5.97015 7.62540 6.84797
#
# Compressibility (1/GPa) = 0.01889127
#
# Stress axis : x y z
#
# Youngs Moduli (GPa) = 117.03337 94.35453 65.62729
#
# Poissons Ratio (x) = 0.45948 0.34557
# Poissons Ratio (y) = 0.56992 -0.15690
# Poissons Ratio (z) = 0.61626 -0.22559
#
# Static dielectric constant tensor:
#      x y z
#    x 1.717880 0.000000 0.000000 
#    y 0.000000 1.761150 0.000000 
#    z 0.000000 0.000000 1.821220 
# 
# From -- ./inp_files/7878.got.cif
#   From: 2010.05.17/outbox.cif.g08.bks.cpg/sg45_4_cif.got.tgz:7878.got - 2010.06.03 19:51:22.
