data_PCOD9377161
_publ_section_title
;
Structure prediction by ZEFSAII (Michael W. Deem and Ramdas Pophale) SiO2 
 PCOD9377161
Probable space group: I B A 2
;
_chemical_formula_sum "Si O2"
_cell_formula_units_Z 60
_cell_length_a 21.686845
_cell_length_b 10.555727
_cell_length_c 12.085952
_cell_angle_alpha 90.000000
_cell_angle_beta 90.000000
_cell_angle_gamma 90.000000
_cell_volume 2766.721151
_symmetry_space_group_name_H-M "I B A 2"
_symmetry_group_IT_number 45
_symmetry_cell_setting 'orthorhombic'
loop_
_space_group_symop_operation_xyz
x,y,z
-x,-y,z
-x,y,1/2+z
x,-y,1/2+z
1/2+x,1/2+y,1/2+z
1/2-x,1/2-y,1/2+z
1/2-x,1/2+y,z
1/2+x,1/2-y,z
loop_
_atom_site_type_symbol
_atom_site_label
_atom_site_fract_x
_atom_site_fract_y
_atom_site_fract_z
Si Si1 0.991263 0.230025 0.375000
Si Si2 0.124247 0.799729 0.909681
Si Si3 0.709490 0.100755 0.300656
Si Si4 0.637166 0.152460 0.837206
Si Si5 0.914987 0.035252 0.511936
Si Si6 0.000000 0.000000 0.206023
Si Si7 0.707576 0.331253 0.999716
Si Si8 0.802009 0.203682 0.139853
O O1 0.936085 0.330206 0.355882
O O2 0.963455 0.139783 0.470458
O O3 0.001155 0.131713 0.273686
O O4 0.059527 0.277027 0.408035
O O5 0.171059 0.731919 0.825007
O O6 0.158732 0.811631 0.028020
O O7 0.099594 0.944630 0.906613
O O8 0.755764 0.093415 0.405000
O O9 0.754333 0.103598 0.194413
O O10 0.661516 0.986009 0.305747
O O11 0.655152 0.246539 0.737455
O O12 0.678533 0.205800 0.939953
O O13 0.851215 0.097226 0.542056
O O14 0.942595 0.981218 0.623500
O O15 0.753599 0.307835 0.098537
#
# Coordination Sequence:
#
# PCOD9377161 Si02
#       8
#     8   8   8   8   8   4   8   8
#     4  11  23  42  63  94 133 167 223 276 329 387
#     4  11  22  42  65  94 128 172 215 270 335 385
#     4  10  24  41  65  94 134 170 214 266 325 405
#     4  10  23  43  60  94 134 172 219 268 331 395
#     4  11  22  38  65  96 125 167 213 272 329 380
#     4  12  20  38  66 100 124 166 220 280 322 382
#     4   9  23  39  64  91 131 172 206 269 325 395
#     4  10  23  40  63  98 124 172 219 268 325 398
#
# _framework density 21.686319999999998
#
# number of rings (size 3 to 8) (size 9 to 14) (size 15 to 20)
#    0.000    1.600    2.667    0.800    9.333    1.600 
#    0.000    0.000    0.000    3.200    0.000    0.000 
#    0.000    0.000    0.000    0.000    0.000    0.000 
#
# Total GULP energy -167169.080660 kJ/mol
# GULP energy per Si atom -5572.302689 kJ/mol
# Density = 2.163696 g / cm^3
# Si number density = 21.686320 Si / 1000 Ang^3
#
#
#
# Elastic Constant Matrix: (Units=GPa)
#
#
# Indices 1 2 3 4 5 6 
#
# 1 149.9895 21.7362 39.5407 0.0000 0.0000 0.0000
# 2 21.7362 53.0632 21.7874 0.0000 0.0000 0.0000
# 3 39.5407 21.7874 47.6893 0.0000 0.0000 0.0000
# 4 0.0000 0.0000 0.0000 11.5174 0.0000 0.0000
# 5 0.0000 0.0000 0.0000 0.0000 33.5921 0.0000
# 6 0.0000 0.0000 0.0000 0.0000 0.0000 31.5499
#
#
#
# Elastic Compliance Matrix: (Units=1/GPa)
#
#
# Indices 1 2 3 4 5 6 
#
# 1 0.008555 -0.000729 -0.006760 0.000000 0.000000 0.000000
# 2 -0.000729 0.023259 -0.010022 0.000000 0.000000 0.000000
# 3 -0.006760 -0.010022 0.031153 0.000000 0.000000 0.000000
# 4 0.000000 0.000000 0.000000 0.086825 0.000000 0.000000
# 5 0.000000 0.000000 0.000000 0.000000 0.029769 0.000000
# 6 0.000000 0.000000 0.000000 0.000000 0.000000 0.031696
#
#
# Mechanical properties :
#
#
# Convention : Reuss Voigt Hill
#
# Bulk Modulus (GPa) = 35.78465 46.31896 41.05180
# Shear Modulus (GPa) = 19.56234 26.51039 23.03637
#
# Velocity S-wave (km/s) = 3.00669 3.50014 3.26276
# Velocity P-wave (km/s) = 5.34700 6.14326 5.75891
#
# Compressibility (1/GPa) = 0.02794494
#
# Stress axis : x y z
#
# Youngs Moduli (GPa) = 116.89244 42.99433 32.09976
#
# Poissons Ratio (x) = 0.03133 0.21700
# Poissons Ratio (y) = 0.08517 0.32170
# Poissons Ratio (z) = 0.79022 0.43089
#
# Static dielectric constant tensor:
#      x y z
#    x 1.855260 0.000000 0.000000 
#    y 0.000000 1.871140 0.000000 
#    z 0.000000 0.000000 1.797740 
# 
# From -- ./inp_files/4671.got.cif
#   From: 2010.05.17/outbox.cif.g08.bks.cpg/sg45_3_cif.got.tgz:4671.got - 2010.06.03 19:51:22.
