data_PCOD9377053
_publ_section_title
;
Structure prediction by ZEFSAII (Michael W. Deem and Ramdas Pophale) SiO2 
 PCOD9377053
Probable space group: I B A 2
;
_chemical_formula_sum "Si O2"
_cell_formula_units_Z 48
_cell_length_a 7.948191
_cell_length_b 25.063753
_cell_length_c 9.538911
_cell_angle_alpha 90.000000
_cell_angle_beta 90.000000
_cell_angle_gamma 90.000000
_cell_volume 1900.260731
_symmetry_space_group_name_H-M "I B A 2"
_symmetry_group_IT_number 45
_symmetry_cell_setting 'orthorhombic'
loop_
_space_group_symop_operation_xyz
x,y,z
-x,-y,z
-x,y,1/2+z
x,-y,1/2+z
1/2+x,1/2+y,1/2+z
1/2-x,1/2-y,1/2+z
1/2-x,1/2+y,z
1/2+x,1/2-y,z
loop_
_atom_site_type_symbol
_atom_site_label
_atom_site_fract_x
_atom_site_fract_y
_atom_site_fract_z
Si Si1 0.680492 0.943799 0.426000
Si Si2 0.000000 0.500000 0.181710
Si Si3 0.011473 0.174097 0.316986
Si Si4 0.490162 0.157520 0.494332
Si Si5 0.500000 0.500000 0.968163
Si Si6 0.849419 0.889679 0.071712
Si Si7 0.653726 0.217653 0.242517
O O1 0.628744 0.973733 0.571381
O O2 0.560476 0.955602 0.293823
O O3 0.663891 0.882580 0.469054
O O4 0.650502 0.877075 0.051175
O O5 0.944451 0.149571 0.461496
O O6 0.844877 0.198376 0.242954
O O7 0.089959 0.128221 0.222793
O O8 0.140107 0.223349 0.306534
O O9 0.553178 0.180215 0.348709
O O10 0.432855 0.205845 0.593758
O O11 0.589824 0.449882 0.044546
O O12 0.353254 0.471262 0.883875
#
# Coordination Sequence:
#
# PCOD9377053 Si02
#       7
#     8   4   8   8   4   8   8
#     4  11  24  42  66  96 134 178 228 279 336 400
#     4  10  22  42  64  88 128 182 226 270 328 398
#     4  11  25  45  68 101 135 173 223 280 341 409
#     4  11  24  44  69 100 135 179 225 274 338 414
#     4  12  28  44  68 102 140 182 230 290 342 396
#     4  11  26  44  66  98 137 178 228 278 334 402
#     4  11  24  43  71 100 133 173 220 277 344 409
#
# _framework density 25.259689999999999
#
# number of rings (size 3 to 8) (size 9 to 14) (size 15 to 20)
#    0.000    1.000    0.000    6.000    0.000   16.000 
#    0.000    0.000    0.000    0.000    0.000    0.000 
#    0.000    0.000    0.000    0.000    0.000    0.000 
#
# Total GULP energy -134431.255366 kJ/mol
# GULP energy per Si atom -5601.302307 kJ/mol
# Density = 2.520220 g / cm^3
# Si number density = 25.259690 Si / 1000 Ang^3
#
#
#
# Elastic Constant Matrix: (Units=GPa)
#
#
# Indices 1 2 3 4 5 6 
#
# 1 91.9333 23.1577 25.6069 0.0001 -0.0002 0.0000
# 2 23.1577 152.1123 10.5272 0.0000 -0.0001 0.0000
# 3 25.6069 10.5272 103.3591 -0.0001 -0.0014 -0.0002
# 4 0.0001 0.0000 -0.0001 42.3028 -0.0006 -0.0001
# 5 -0.0002 -0.0001 -0.0014 -0.0006 -22.8149 0.0001
# 6 0.0000 0.0000 -0.0002 -0.0001 0.0001 38.4075
#
#
#
# Elastic Compliance Matrix: (Units=1/GPa)
#
#
# Indices 1 2 3 4 5 6 
#
# 1 0.012078 -0.001643 -0.002825 0.000000 0.000000 0.000000
# 2 -0.001643 0.006844 -0.000290 0.000000 0.000000 0.000000
# 3 -0.002825 -0.000290 0.010404 0.000000 -0.000001 0.000000
# 4 0.000000 0.000000 0.000000 0.023639 -0.000001 0.000000
# 5 0.000000 0.000000 -0.000001 -0.000001 -0.043831 0.000000
# 6 0.000000 0.000000 0.000000 0.000000 0.000000 0.026037
#
#
# Mechanical properties :
#
#
# Convention : Reuss Voigt Hill
#
# Bulk Modulus (GPa) = 50.47828 51.77648 51.12738
# Shear Modulus (GPa) = 97.48188 30.78663 64.13425
#
# Velocity S-wave (km/s) = 6.21898 3.49493 5.04431
# Velocity P-wave (km/s) = 8.46136 6.06862 7.36284
#
# Compressibility (1/GPa) = 0.01981050
#
# Stress axis : x y z
#
# Youngs Moduli (GPa) = 82.79343 146.10625 96.11302
#
# Poissons Ratio (x) = 0.24010 0.27152
# Poissons Ratio (y) = 0.13605 0.02787
# Poissons Ratio (z) = 0.23389 0.04237
#
# Static dielectric constant tensor:
#      x y z
#    x 2.052990 0.000000 0.000000 
#    y 0.000000 1.995090 0.000000 
#    z 0.000000 0.000000 1.900470 
# 
# From -- ./inp_files/1370.got.cif
#   From: 2010.05.17/outbox.cif.g08.bks.cpg/sg45_1_cif.got.tgz:1370.got - 2010.06.03 19:51:22.
