data_PCOD9377765
_publ_section_title
;
Structure prediction by ZEFSAII (Michael W. Deem and Ramdas Pophale) SiO2 
 PCOD9377765
Probable space group: I M A 2
;
_chemical_formula_sum "Si O2"
_cell_formula_units_Z 52
_cell_length_a 9.383387
_cell_length_b 33.148137
_cell_length_c 6.898067
_cell_angle_alpha 90.000000
_cell_angle_beta 90.000000
_cell_angle_gamma 90.000000
_cell_volume 2145.587161
_symmetry_space_group_name_H-M "I M A 2"
_symmetry_group_IT_number 46
_symmetry_cell_setting 'orthorhombic'
loop_
_space_group_symop_operation_xyz
x,y,z
-x,-y,z
1/2-x,y,z
1/2+x,-y,z
1/2+x,1/2+y,1/2+z
1/2-x,1/2-y,1/2+z
-x,1/2+y,1/2+z
x,1/2-y,1/2+z
loop_
_atom_site_type_symbol
_atom_site_label
_atom_site_fract_x
_atom_site_fract_y
_atom_site_fract_z
Si Si1 0.750000 0.496717 0.973100
Si Si2 0.493748 0.556631 0.078063
Si Si3 0.079671 0.203589 0.163254
Si Si4 0.580417 0.281233 0.284297
Si Si5 0.592284 0.616514 0.614980
Si Si6 0.914017 0.855438 0.659381
Si Si7 0.416647 0.959253 0.031369
O O1 0.629535 0.530161 0.031645
O O2 0.628530 0.461791 0.948522
O O3 0.528448 0.603806 0.062422
O O4 0.442996 0.547962 0.299919
O O5 0.250000 0.209731 0.111745
O O6 0.074471 0.157581 0.237040
O O7 0.957935 0.203123 0.997177
O O8 0.021428 0.241826 0.279292
O O9 0.750000 0.274364 0.255592
O O10 0.516413 0.316444 0.147899
O O11 0.750000 0.599332 0.654116
O O12 0.592603 0.631754 0.389870
O O13 0.479898 0.581034 0.625717
O O14 0.750000 0.845346 0.609089
O O15 0.250000 0.966657 0.057202
O O16 0.500000 0.000000 0.083334
#
# Coordination Sequence:
#
# PCOD9377765 Si02
#       7
#     4   8   8   8   8   8   8
#     4  10  16  22  32  50  76 116 154 196 236 284
#     4  10  16  23  33  51  79 115 159 194 234 286
#     4  10  20  38  56  75 101 139 172 209 258 315
#     4  11  22  34  54  78 104 132 171 216 263 302
#     4   8  17  28  43  60  85 119 159 198 239 291
#     4   9  17  28  41  60  87 125 162 199 244 302
#     4  11  17  22  33  52  80 117 152 191 233 286
#
# _framework density 24.235790999999999
#
# number of rings (size 3 to 8) (size 9 to 14) (size 15 to 20)
#    0.000    2.154    3.077    3.231    2.154    4.308 
#    0.000    0.000    0.000    0.000    0.000    0.000 
#    0.000    0.000    5.231    2.615    0.000    7.846 
#
# Total GULP energy -144811.774062 kJ/mol
# GULP energy per Si atom -5569.683618 kJ/mol
# Density = 2.418063 g / cm^3
# Si number density = 24.235791 Si / 1000 Ang^3
#
#
#
# Elastic Constant Matrix: (Units=GPa)
#
#
# Indices 1 2 3 4 5 6 
#
# 1 253.6722 104.5811 22.8654 -0.0003 0.0007 -0.0010
# 2 104.5811 180.8066 26.9717 0.0064 -0.0013 -0.0037
# 3 22.8654 26.9717 55.8340 -0.0193 0.0028 -0.0027
# 4 -0.0003 0.0064 -0.0193 87.6195 0.0040 -0.0034
# 5 0.0007 -0.0013 0.0028 0.0040 23.9076 -0.0007
# 6 -0.0010 -0.0037 -0.0027 -0.0034 -0.0007 40.4390
#
#
#
# Elastic Compliance Matrix: (Units=1/GPa)
#
#
# Indices 1 2 3 4 5 6 
#
# 1 0.005204 -0.002901 -0.000730 0.000000 0.000000 0.000000
# 2 -0.002901 0.007578 -0.002472 -0.000001 0.000001 0.000000
# 3 -0.000730 -0.002472 0.019403 0.000004 -0.000002 0.000001
# 4 0.000000 -0.000001 0.000004 0.011413 -0.000002 0.000001
# 5 0.000000 0.000001 -0.000002 -0.000002 0.041828 0.000001
# 6 0.000000 0.000000 0.000001 0.000001 0.000001 0.024729
#
#
# Mechanical properties :
#
#
# Convention : Reuss Voigt Hill
#
# Bulk Modulus (GPa) = 50.05394 88.79436 69.42415
# Shear Modulus (GPa) = 38.75356 52.78618 45.76987
#
# Velocity S-wave (km/s) = 4.00312 4.67200 4.35043
# Velocity P-wave (km/s) = 6.48570 8.11299 7.34455
#
# Compressibility (1/GPa) = 0.01997845
#
# Stress axis : x y z
#
# Youngs Moduli (GPa) = 192.16241 131.96646 51.53731
#
# Poissons Ratio (x) = 0.38286 0.03761
# Poissons Ratio (y) = 0.55750 0.12742
# Poissons Ratio (z) = 0.14021 0.32628
#
# Static dielectric constant tensor:
#      x y z
#    x 1.813490 0.000000 0.000000 
#    y 0.000000 1.911460 0.000000 
#    z 0.000000 0.000000 2.187790 
# 
# From -- ./inp_files/9612.got.cif
#   From: 2010.05.17/outbox.cif.g08.bks.cpg/sg46_5_cif.got.tgz:9612.got - 2010.06.03 19:58:25.
