data_PCOD9377345
_publ_section_title
;
Structure prediction by ZEFSAII (Michael W. Deem and Ramdas Pophale) SiO2 
 PCOD9377345
Probable space group: I B A 2
;
_chemical_formula_sum "Si O2"
_cell_formula_units_Z 60
_cell_length_a 10.224204
_cell_length_b 21.991355
_cell_length_c 10.761710
_cell_angle_alpha 90.000000
_cell_angle_beta 90.000000
_cell_angle_gamma 90.000000
_cell_volume 2419.706997
_symmetry_space_group_name_H-M "I B A 2"
_symmetry_group_IT_number 45
_symmetry_cell_setting 'orthorhombic'
loop_
_space_group_symop_operation_xyz
x,y,z
-x,-y,z
-x,y,1/2+z
x,-y,1/2+z
1/2+x,1/2+y,1/2+z
1/2-x,1/2-y,1/2+z
1/2-x,1/2+y,z
1/2+x,1/2-y,z
loop_
_atom_site_type_symbol
_atom_site_label
_atom_site_fract_x
_atom_site_fract_y
_atom_site_fract_z
Si Si1 0.279059 0.043771 0.622560
Si Si2 0.834772 0.103272 0.876297
Si Si3 0.221265 0.913153 0.393015
Si Si4 0.920001 0.572913 0.576977
Si Si5 0.000000 0.000000 0.367871
Si Si6 0.298817 0.714897 0.034848
Si Si7 0.870499 0.317397 0.244685
Si Si8 0.450513 0.268842 0.907395
O O1 0.193905 0.071149 0.509068
O O2 0.429832 0.057700 0.590172
O O3 0.227546 0.078094 0.745227
O O4 0.310325 0.971119 0.641162
O O5 0.933792 0.160432 0.873199
O O6 0.908953 0.049828 0.800524
O O7 0.698300 0.133246 0.834365
O O8 0.367170 0.931599 0.436849
O O9 0.201540 0.850464 0.465796
O O10 0.104305 0.957082 0.436558
O O11 0.917610 0.640492 0.631933
O O12 0.247617 0.718097 0.175501
O O13 0.446608 0.736685 0.020932
O O14 0.193028 0.750853 0.953226
O O15 0.978732 0.275135 0.307661
#
# Coordination Sequence:
#
# PCOD9377345 Si02
#       8
#     8   8   8   8   4   8   8   8
#     4  11  25  42  76 110 154 202 257 325 397 475
#     4  12  27  47  75 114 154 206 262 326 405 478
#     4  11  24  46  70 111 148 202 258 322 398 477
#     4  10  24  44  74 110 150 205 256 328 391 477
#     4  12  24  48  76 106 162 194 260 320 398 490
#     4  11  27  47  77 107 149 201 263 322 395 473
#     4  11  27  48  75 108 155 199 263 323 398 473
#     4  12  26  49  74 114 152 205 265 327 397 474
#
# _framework density 24.796389999999999
#
# number of rings (size 3 to 8) (size 9 to 14) (size 15 to 20)
#    0.000    0.800    4.000    1.600    7.467    3.733 
#    0.000    0.000    0.000    0.000    0.000    0.000 
#    0.000    0.000    0.000    0.000    0.000    0.000 
#
# Total GULP energy -167243.075616 kJ/mol
# GULP energy per Si atom -5574.769187 kJ/mol
# Density = 2.473995 g / cm^3
# Si number density = 24.796390 Si / 1000 Ang^3
#
#
#
# Elastic Constant Matrix: (Units=GPa)
#
#
# Indices 1 2 3 4 5 6 
#
# 1 112.4471 31.5388 6.8969 -0.0001 0.0000 0.0000
# 2 31.5388 129.7338 18.3173 -0.0001 0.0000 0.0000
# 3 6.8969 18.3173 87.8056 -0.0003 -0.0001 0.0001
# 4 -0.0001 -0.0001 -0.0003 23.0818 0.0000 0.0000
# 5 0.0000 0.0000 -0.0001 0.0000 30.0114 0.0000
# 6 0.0000 0.0000 0.0001 0.0000 0.0000 51.9855
#
#
#
# Elastic Compliance Matrix: (Units=1/GPa)
#
#
# Indices 1 2 3 4 5 6 
#
# 1 0.009550 -0.002283 -0.000274 0.000000 0.000000 0.000000
# 2 -0.002283 0.008488 -0.001591 0.000000 0.000000 0.000000
# 3 -0.000274 -0.001591 0.011742 0.000000 0.000000 0.000000
# 4 0.000000 0.000000 0.000000 0.043324 0.000000 0.000000
# 5 0.000000 0.000000 0.000000 0.000000 0.033321 0.000000
# 6 0.000000 0.000000 0.000000 0.000000 0.000000 0.019236
#
#
# Mechanical properties :
#
#
# Convention : Reuss Voigt Hill
#
# Bulk Modulus (GPa) = 46.54664 49.27691 47.91178
# Shear Modulus (GPa) = 35.43109 39.23131 37.33120
#
# Velocity S-wave (km/s) = 3.78416 3.98192 3.88430
# Velocity P-wave (km/s) = 6.15674 6.40755 6.28340
#
# Compressibility (1/GPa) = 0.02148383
#
# Stress axis : x y z
#
# Youngs Moduli (GPa) = 104.70979 117.81643 85.16233
#
# Poissons Ratio (x) = 0.26898 0.02332
# Poissons Ratio (y) = 0.23905 0.13552
# Poissons Ratio (z) = 0.02868 0.18748
#
# Static dielectric constant tensor:
#      x y z
#    x 2.040390 0.000000 0.000000 
#    y 0.000000 2.096570 0.000000 
#    z 0.000000 0.000000 2.000570 
# 
# From -- ./inp_files/3359.got.cif
#   From: 2010.05.17/outbox.cif.g08.bks.cpg/sg45_2_cif.got.tgz:3359.got - 2010.06.03 19:51:22.
