data_PCOD9377498
_publ_section_title
;
Structure prediction by ZEFSAII (Michael W. Deem and Ramdas Pophale) SiO2 
 PCOD9377498
Probable space group: I B A 2
;
_chemical_formula_sum "Si O2"
_cell_formula_units_Z 56
_cell_length_a 13.482512
_cell_length_b 9.515483
_cell_length_c 20.561127
_cell_angle_alpha 90.000000
_cell_angle_beta 90.000000
_cell_angle_gamma 90.000000
_cell_volume 2637.840724
_symmetry_space_group_name_H-M "I B A 2"
_symmetry_group_IT_number 45
_symmetry_cell_setting 'orthorhombic'
loop_
_space_group_symop_operation_xyz
x,y,z
-x,-y,z
-x,y,1/2+z
x,-y,1/2+z
1/2+x,1/2+y,1/2+z
1/2-x,1/2-y,1/2+z
1/2-x,1/2+y,z
1/2+x,1/2-y,z
loop_
_atom_site_type_symbol
_atom_site_label
_atom_site_fract_x
_atom_site_fract_y
_atom_site_fract_z
Si Si1 0.281048 0.769568 0.256290
Si Si2 0.840545 0.244081 0.135030
Si Si3 0.250195 0.012495 0.053877
Si Si4 0.955903 0.654933 0.160721
Si Si5 0.577660 0.876159 0.510102
Si Si6 0.414392 0.401629 0.460203
Si Si7 0.120549 0.003669 0.814281
O O1 0.222058 0.702119 0.196164
O O2 0.375626 0.831872 0.217304
O O3 0.199190 0.881271 0.283870
O O4 0.327682 0.647953 0.301561
O O5 0.824512 0.372172 0.084614
O O6 0.953216 0.235347 0.159604
O O7 0.799524 0.098474 0.104316
O O8 0.311245 0.928046 0.999367
O O9 0.169308 0.096458 0.014222
O O10 0.916923 0.666871 0.086657
O O11 0.000000 0.500000 0.167113
O O12 0.547169 0.756393 0.460430
O O13 0.500000 0.000000 0.504861
O O14 0.500000 0.500000 0.486487
O O15 0.383824 0.457563 0.390324
O O16 0.000000 0.000000 0.794209
#
# Coordination Sequence:
#
# PCOD9377498 Si02
#       7
#     8   8   8   8   8   8   8
#     4  12  24  44  71  96 139 189 233 300 354 421
#     4  12  22  37  67 102 135 174 222 284 363 431
#     4  12  22  39  68 101 138 175 223 287 361 433
#     4  11  20  38  66 104 141 173 228 289 363 441
#     4  11  22  41  68 103 138 173 223 287 363 436
#     4  11  26  45  66  96 140 183 235 297 346 424
#     4  11  28  50  68 101 140 190 256 297 349 427
#
# _framework density 21.229485
#
# number of rings (size 3 to 8) (size 9 to 14) (size 15 to 20)
#    0.000    0.571    5.714    3.429    2.000    0.000 
#    2.571    2.857    0.000    0.000    0.000    0.000 
#    0.000    0.000    0.000    0.000    0.000    0.000 
#
# Total GULP energy -156047.696321 kJ/mol
# GULP energy per Si atom -5573.132011 kJ/mol
# Density = 2.118117 g / cm^3
# Si number density = 21.229485 Si / 1000 Ang^3
#
#
#
# Elastic Constant Matrix: (Units=GPa)
#
#
# Indices 1 2 3 4 5 6 
#
# 1 127.1988 45.0194 29.5082 0.0000 0.0000 0.0000
# 2 45.0194 107.2098 41.3796 0.0000 0.0000 0.0000
# 3 29.5082 41.3796 49.6057 0.0000 0.0000 0.0000
# 4 0.0000 0.0000 0.0000 22.7748 0.0000 0.0000
# 5 0.0000 0.0000 0.0000 0.0000 201.0763 0.0000
# 6 0.0000 0.0000 0.0000 0.0000 0.0000 34.9145
#
#
#
# Elastic Compliance Matrix: (Units=1/GPa)
#
#
# Indices 1 2 3 4 5 6 
#
# 1 0.009623 -0.002701 -0.003471 0.000000 0.000000 0.000000
# 2 -0.002701 0.014515 -0.010501 0.000000 0.000000 0.000000
# 3 -0.003471 -0.010501 0.030983 0.000000 0.000000 0.000000
# 4 0.000000 0.000000 0.000000 0.043908 0.000000 0.000000
# 5 0.000000 0.000000 0.000000 0.000000 0.004973 0.000000
# 6 0.000000 0.000000 0.000000 0.000000 0.000000 0.028641
#
#
# Mechanical properties :
#
#
# Convention : Reuss Voigt Hill
#
# Bulk Modulus (GPa) = 45.92486 57.31430 51.61958
# Shear Modulus (GPa) = 28.86023 62.96026 45.91024
#
# Velocity S-wave (km/s) = 3.69106 5.45173 4.65539
# Velocity P-wave (km/s) = 6.31227 8.16606 7.29827
#
# Compressibility (1/GPa) = 0.02177470
#
# Stress axis : x y z
#
# Youngs Moduli (GPa) = 103.91822 68.89497 32.27533
#
# Poissons Ratio (x) = 0.18609 0.11203
# Poissons Ratio (y) = 0.28070 0.33893
# Poissons Ratio (z) = 0.36071 0.72347
#
# Static dielectric constant tensor:
#      x y z
#    x 1.790240 0.000000 0.000000 
#    y 0.000000 1.817560 0.000000 
#    z 0.000000 0.000000 1.738570 
# 
# From -- ./inp_files/9182.got.cif
#   From: 2010.05.17/outbox.cif.g08.bks.cpg/sg45_5_cif.got.tgz:9182.got - 2010.06.03 19:51:22.
