data_PCOD9377426
_publ_section_title
;
Structure prediction by ZEFSAII (Michael W. Deem and Ramdas Pophale) SiO2 
 PCOD9377426
Probable space group: I B A 2
;
_chemical_formula_sum "Si O2"
_cell_formula_units_Z 56
_cell_length_a 12.279168
_cell_length_b 14.949012
_cell_length_c 13.998665
_cell_angle_alpha 90.000000
_cell_angle_beta 90.000000
_cell_angle_gamma 90.000000
_cell_volume 2569.614962
_symmetry_space_group_name_H-M "I B A 2"
_symmetry_group_IT_number 45
_symmetry_cell_setting 'orthorhombic'
loop_
_space_group_symop_operation_xyz
x,y,z
-x,-y,z
-x,y,1/2+z
x,-y,1/2+z
1/2+x,1/2+y,1/2+z
1/2-x,1/2-y,1/2+z
1/2-x,1/2+y,z
1/2+x,1/2-y,z
loop_
_atom_site_type_symbol
_atom_site_label
_atom_site_fract_x
_atom_site_fract_y
_atom_site_fract_z
Si Si1 0.016403 0.185833 0.338810
Si Si2 0.145239 0.743965 0.001488
Si Si3 0.266152 0.429865 0.836781
Si Si4 0.230069 0.867375 0.342522
Si Si5 0.424291 0.160896 0.696773
Si Si6 0.690348 0.111576 0.028726
Si Si7 0.360758 0.924909 0.642139
O O1 0.037166 0.235284 0.440107
O O2 0.114159 0.113423 0.338925
O O3 0.036756 0.252867 0.251939
O O4 0.895054 0.152770 0.323960
O O5 0.224087 0.702485 0.919285
O O6 0.193097 0.837830 0.041757
O O7 0.144060 0.665361 0.078903
O O8 0.269937 0.530526 0.875205
O O9 0.182357 0.388501 0.914248
O O10 0.223281 0.423866 0.729526
O O11 0.314346 0.866148 0.253679
O O12 0.389732 0.174679 0.587882
O O13 0.521093 0.088999 0.692289
O O14 0.664352 0.013553 0.076820
#
# Coordination Sequence:
#
# PCOD9377426 Si02
#       7
#     8   8   8   8   8   8   8
#     4  10  25  45  74 104 144 197 235 305 364 436
#     4  10  25  44  72 106 145 194 239 304 371 436
#     4  11  24  46  74 103 143 190 245 308 366 428
#     4  11  23  47  70 106 144 186 247 299 363 440
#     4  11  26  42  70 108 142 189 234 296 367 432
#     4  11  24  45  67 105 143 187 246 296 369 436
#     4  12  25  45  72 109 145 191 244 305 365 445
#
# _framework density 21.793147999999999
#
# number of rings (size 3 to 8) (size 9 to 14) (size 15 to 20)
#    0.000    1.143    2.857    1.714   10.000    1.143 
#    2.571    0.000    0.000    0.000    0.000    0.000 
#    0.000    0.000    0.000    0.000    0.000    0.000 
#
# Total GULP energy -156084.759953 kJ/mol
# GULP energy per Si atom -5574.455713 kJ/mol
# Density = 2.174355 g / cm^3
# Si number density = 21.793148 Si / 1000 Ang^3
#
#
#
# Elastic Constant Matrix: (Units=GPa)
#
#
# Indices 1 2 3 4 5 6 
#
# 1 138.8221 38.3756 51.6046 0.0000 0.0000 0.0000
# 2 38.3756 92.2144 46.2650 0.0000 0.0000 0.0000
# 3 51.6046 46.2650 97.5676 0.0000 0.0000 0.0000
# 4 0.0000 0.0000 0.0000 33.8019 0.0000 0.0000
# 5 0.0000 0.0000 0.0000 0.0000 27.5954 0.0000
# 6 0.0000 0.0000 0.0000 0.0000 0.0000 33.7676
#
#
#
# Elastic Compliance Matrix: (Units=1/GPa)
#
#
# Indices 1 2 3 4 5 6 
#
# 1 0.009193 -0.001819 -0.004000 0.000000 0.000000 0.000000
# 2 -0.001819 0.014589 -0.005956 0.000000 0.000000 0.000000
# 3 -0.004000 -0.005956 0.015189 0.000000 0.000000 0.000000
# 4 0.000000 0.000000 0.000000 0.029584 0.000000 0.000000
# 5 0.000000 0.000000 0.000000 0.000000 0.036238 0.000000
# 6 0.000000 0.000000 0.000000 0.000000 0.000000 0.029614
#
#
# Mechanical properties :
#
#
# Convention : Reuss Voigt Hill
#
# Bulk Modulus (GPa) = 64.84222 66.78829 65.81525
# Shear Modulus (GPa) = 30.65634 31.85690 31.25662
#
# Velocity S-wave (km/s) = 3.75466 3.82748 3.79125
# Velocity P-wave (km/s) = 6.97243 7.08843 7.03067
#
# Compressibility (1/GPa) = 0.01542205
#
# Stress axis : x y z
#
# Youngs Moduli (GPa) = 108.77630 68.54255 65.83675
#
# Poissons Ratio (x) = 0.12468 0.26333
# Poissons Ratio (y) = 0.19787 0.39212
# Poissons Ratio (z) = 0.43509 0.40824
#
# Static dielectric constant tensor:
#      x y z
#    x 1.836850 0.000000 0.000000 
#    y 0.000000 1.864200 0.000000 
#    z 0.000000 0.000000 1.810680 
# 
# From -- ./inp_files/6180.got.cif
#   From: 2010.05.17/outbox.cif.g08.bks.cpg/sg45_4_cif.got.tgz:6180.got - 2010.06.03 19:51:22.
