data_PCOD9377804
_publ_section_title
;
Structure prediction by ZEFSAII (Michael W. Deem and Ramdas Pophale) SiO2 
 PCOD9377804
Probable space group: I M A 2
;
_chemical_formula_sum "Si O2"
_cell_formula_units_Z 48
_cell_length_a 17.949377
_cell_length_b 28.079574
_cell_length_c 5.340401
_cell_angle_alpha 90.000000
_cell_angle_beta 90.000000
_cell_angle_gamma 90.000000
_cell_volume 2691.620099
_symmetry_space_group_name_H-M "I M A 2"
_symmetry_group_IT_number 46
_symmetry_cell_setting 'orthorhombic'
loop_
_space_group_symop_operation_xyz
x,y,z
-x,-y,z
1/2-x,y,z
1/2+x,-y,z
1/2+x,1/2+y,1/2+z
1/2-x,1/2-y,1/2+z
-x,1/2+y,1/2+z
x,1/2-y,1/2+z
loop_
_atom_site_type_symbol
_atom_site_label
_atom_site_fract_x
_atom_site_fract_y
_atom_site_fract_z
Si Si1 0.505381 0.782176 0.131840
Si Si2 0.670002 0.782569 0.129702
Si Si3 0.338594 0.585781 0.139716
Si Si4 0.549346 0.548539 0.585349
Si Si5 0.086983 0.483698 0.085405
Si Si6 0.582873 0.377043 0.639878
O O1 0.499640 0.749889 0.381491
O O2 0.588416 0.806016 0.131550
O O3 0.443509 0.822787 0.133429
O O4 0.750000 0.809143 0.131067
O O5 0.670228 0.749607 0.378347
O O6 0.250000 0.588714 0.134842
O O7 0.365414 0.530830 0.131620
O O8 0.370620 0.608843 0.393519
O O9 0.373439 0.610377 0.893704
O O10 0.500000 0.500000 0.562634
O O11 0.590520 0.551417 0.320717
O O12 0.491132 0.590246 0.632865
O O13 0.602819 0.540809 0.820983
O O14 0.000000 0.500000 0.063513
#
# Coordination Sequence:
#
# PCOD9377804 Si02
#       6
#     8   8   8   8   8   8
#     4  10  21  36  55  82 108 143 196 238 277 327
#     4   8  14  27  49  75 102 129 163 212 266 319
#     4  12  23  35  55  85 112 143 189 231 273 333
#     4  10  16  30  55  81 103 131 176 211 260 329
#     4  10  16  32  53  77 108 132 165 219 258 325
#     4  12  21  36  58  82 109 150 182 239 271 324
#
# _framework density 17.833126
#
# number of rings (size 3 to 8) (size 9 to 14) (size 15 to 20)
#    0.000    1.667    6.667    1.500    0.000    0.000 
#    0.000    0.000    0.000   12.000    0.000    2.333 
#    0.000    0.000    0.000    0.000    0.000    0.000 
#
# Total GULP energy -133692.498211 kJ/mol
# GULP energy per Si atom -5570.520759 kJ/mol
# Density = 1.779254 g / cm^3
# Si number density = 17.833126 Si / 1000 Ang^3
#
#
#
# Elastic Constant Matrix: (Units=GPa)
#
#
# Indices 1 2 3 4 5 6 
#
# 1 84.3795 33.5630 19.2647 0.0000 0.0000 0.0000
# 2 33.5630 48.2710 6.1056 0.0000 0.0000 0.0000
# 3 19.2647 6.1056 129.1851 0.0000 0.0002 0.0000
# 4 0.0000 0.0000 0.0000 11.5961 0.0000 0.0000
# 5 0.0000 0.0000 0.0002 0.0000 15.9104 0.0000
# 6 0.0000 0.0000 0.0000 0.0000 0.0000 15.8863
#
#
#
# Elastic Compliance Matrix: (Units=1/GPa)
#
#
# Indices 1 2 3 4 5 6 
#
# 1 0.016867 -0.011478 -0.001973 0.000000 0.000000 0.000000
# 2 -0.011478 0.028652 0.000358 0.000000 0.000000 0.000000
# 3 -0.001973 0.000358 0.008018 0.000000 0.000000 0.000000
# 4 0.000000 0.000000 0.000000 0.086236 0.000000 0.000000
# 5 0.000000 0.000000 0.000000 0.000000 0.062852 0.000000
# 6 0.000000 0.000000 0.000000 0.000000 0.000000 0.062947
#
#
# Mechanical properties :
#
#
# Convention : Reuss Voigt Hill
#
# Bulk Modulus (GPa) = 36.56279 42.18913 39.37596
# Shear Modulus (GPa) = 16.61810 22.20539 19.41174
#
# Velocity S-wave (km/s) = 3.05596 3.53253 3.30285
# Velocity P-wave (km/s) = 5.74449 6.35197 6.05585
#
# Compressibility (1/GPa) = 0.02735021
#
# Stress axis : x y z
#
# Youngs Moduli (GPa) = 59.28631 34.90148 124.71737
#
# Poissons Ratio (x) = 0.40061 0.24605
# Poissons Ratio (y) = 0.68051 -0.04459
# Poissons Ratio (z) = 0.11696 -0.01248
#
# Static dielectric constant tensor:
#      x y z
#    x 1.590430 0.000000 0.000000 
#    y 0.000000 1.580130 0.000000 
#    z 0.000000 0.000000 1.680570 
# 
# From -- ./inp_files/1330.got.cif
#   From: 2010.05.17/outbox.cif.g08.bks.cpg/sg46_1_cif.got.tgz:1330.got - 2010.06.03 19:58:25.
