data_PCOD9377607
_publ_section_title
;
Structure prediction by ZEFSAII (Michael W. Deem and Ramdas Pophale) SiO2 
 PCOD9377607
Probable space group: I B A 2
;
_chemical_formula_sum "Si O2"
_cell_formula_units_Z 40
_cell_length_a 8.590002
_cell_length_b 14.047495
_cell_length_c 14.431800
_cell_angle_alpha 90.000000
_cell_angle_beta 90.000000
_cell_angle_gamma 90.000000
_cell_volume 1741.456589
_symmetry_space_group_name_H-M "I B A 2"
_symmetry_group_IT_number 45
_symmetry_cell_setting 'orthorhombic'
loop_
_space_group_symop_operation_xyz
x,y,z
-x,-y,z
-x,y,1/2+z
x,-y,1/2+z
1/2+x,1/2+y,1/2+z
1/2-x,1/2-y,1/2+z
1/2-x,1/2+y,z
1/2+x,1/2-y,z
loop_
_atom_site_type_symbol
_atom_site_label
_atom_site_fract_x
_atom_site_fract_y
_atom_site_fract_z
Si Si1 0.122933 0.308318 0.876950
Si Si2 0.547640 0.605615 0.168533
Si Si3 0.764147 0.274030 0.182717
Si Si4 0.802694 0.349214 0.977921
Si Si5 0.855317 0.954096 0.466085
O O1 0.133971 0.315033 0.766706
O O2 0.169831 0.205647 0.919160
O O3 0.259439 0.376055 0.913195
O O4 0.960072 0.338126 0.920118
O O5 0.500000 0.500000 0.202335
O O6 0.406643 0.678783 0.189092
O O7 0.706968 0.660384 0.196120
O O8 0.570795 0.591051 0.058416
O O9 0.818487 0.301910 0.079390
O O10 0.758076 0.458875 0.991419
O O11 0.000000 0.000000 0.412387
#
# Coordination Sequence:
#
# PCOD9377607 Si02
#       5
#     8   8   8   8   8
#     4  12  27  44  74 110 146 203 259 321 388 478
#     4  11  24  47  75 110 146 205 251 318 395 460
#     4  12  25  47  77 107 152 204 260 324 393 468
#     4  12  24  47  70 106 156 196 256 322 390 467
#     4  11  23  47  72 105 147 202 247 318 397 456
#
# _framework density 22.969277999999999
#
# number of rings (size 3 to 8) (size 9 to 14) (size 15 to 20)
#    0.000    0.400    6.000    4.200    0.000    2.400 
#    0.000    5.000    0.000    0.000    0.000    0.000 
#    0.000    0.000    0.000    0.000    0.000    0.000 
#
# Total GULP energy -111797.745124 kJ/mol
# GULP energy per Si atom -5589.887256 kJ/mol
# Density = 2.291700 g / cm^3
# Si number density = 22.969278 Si / 1000 Ang^3
#
#
#
# Elastic Constant Matrix: (Units=GPa)
#
#
# Indices 1 2 3 4 5 6 
#
# 1 116.8417 39.2822 30.7683 0.0000 0.0000 0.0000
# 2 39.2822 140.0484 8.0331 0.0000 0.0000 0.0000
# 3 30.7683 8.0331 119.3024 0.0000 0.0000 0.0000
# 4 0.0000 0.0000 0.0000 7.3870 0.0000 0.0000
# 5 0.0000 0.0000 0.0000 0.0000 18.7457 0.0000
# 6 0.0000 0.0000 0.0000 0.0000 0.0000 63.6693
#
#
#
# Elastic Compliance Matrix: (Units=1/GPa)
#
#
# Indices 1 2 3 4 5 6 
#
# 1 0.010103 -0.002695 -0.002424 0.000000 0.000000 0.000000
# 2 -0.002695 0.007887 0.000164 0.000000 0.000000 0.000000
# 3 -0.002424 0.000164 0.008996 0.000000 0.000000 0.000000
# 4 0.000000 0.000000 0.000000 0.135373 0.000000 0.000000
# 5 0.000000 0.000000 0.000000 0.000000 0.053346 0.000000
# 6 0.000000 0.000000 0.000000 0.000000 0.000000 0.015706
#
#
# Mechanical properties :
#
#
# Convention : Reuss Voigt Hill
#
# Bulk Modulus (GPa) = 58.56131 59.15107 58.85619
# Shear Modulus (GPa) = 20.24191 37.83433 29.03812
#
# Velocity S-wave (km/s) = 2.97182 4.06294 3.55944
# Velocity P-wave (km/s) = 6.10954 6.91506 6.52475
#
# Compressibility (1/GPa) = 0.01707612
#
# Stress axis : x y z
#
# Youngs Moduli (GPa) = 98.98143 126.79370 111.15794
#
# Poissons Ratio (x) = 0.34167 0.26946
# Poissons Ratio (y) = 0.26673 -0.01822
# Poissons Ratio (z) = 0.23994 -0.02078
#
# Static dielectric constant tensor:
#      x y z
#    x 1.879780 0.000000 0.000000 
#    y 0.000000 1.910010 0.000000 
#    z 0.000000 0.000000 1.859230 
# 
# From -- ./inp_files/5469.got.cif
#   From: 2010.05.17/outbox.cif.g08.bks.cpg/sg45_3_cif.got.tgz:5469.got - 2010.06.03 19:51:22.
