data_PCOD9377026
_publ_section_title
;
Structure prediction by ZEFSAII (Michael W. Deem and Ramdas Pophale) SiO2 
 PCOD9377026
Probable space group: I B A 2
;
_chemical_formula_sum "Si O2"
_cell_formula_units_Z 40
_cell_length_a 20.781323
_cell_length_b 8.158133
_cell_length_c 11.100383
_cell_angle_alpha 90.000000
_cell_angle_beta 90.000000
_cell_angle_gamma 90.000000
_cell_volume 1881.923379
_symmetry_space_group_name_H-M "I B A 2"
_symmetry_group_IT_number 45
_symmetry_cell_setting 'orthorhombic'
loop_
_space_group_symop_operation_xyz
x,y,z
-x,-y,z
-x,y,1/2+z
x,-y,1/2+z
1/2+x,1/2+y,1/2+z
1/2-x,1/2-y,1/2+z
1/2-x,1/2+y,z
1/2+x,1/2-y,z
loop_
_atom_site_type_symbol
_atom_site_label
_atom_site_fract_x
_atom_site_fract_y
_atom_site_fract_z
Si Si1 0.935651 0.602869 0.538730
Si Si2 0.625527 0.669033 0.837360
Si Si3 0.193553 0.011181 0.028076
Si Si4 0.934957 0.918145 0.671672
Si Si5 0.821915 0.640621 0.104037
O O1 0.916301 0.716763 0.425647
O O2 0.876959 0.479846 0.558975
O O3 0.000000 0.500000 0.519634
O O4 0.943080 0.723811 0.654850
O O5 0.581224 0.516106 0.793979
O O6 0.652751 0.777294 0.727408
O O7 0.686444 0.588628 0.905016
O O8 0.128354 0.960753 0.095798
O O9 0.190892 0.205803 0.015734
O O10 0.255255 0.958474 0.105179
O O11 0.000000 0.000000 0.622501
#
# Coordination Sequence:
#
# PCOD9377026 Si02
#       5
#     8   8   8   8   8
#     4  11  24  43  66  99 134 169 219 273 320 388
#     4  10  24  42  66  93 129 178 218 266 335 385
#     4  10  22  41  64  95 131 169 219 273 321 385
#     4  10  22  41  64  93 129 168 215 267 319 382
#     4  11  24  43  65  96 132 170 218 273 326 390
#
# _framework density 21.254849
#
# number of rings (size 3 to 8) (size 9 to 14) (size 15 to 20)
#    0.000    1.600    0.000    4.800    0.000   15.200 
#    0.000    0.000    0.000    0.000    0.000    0.000 
#    0.000    0.000    0.000    0.000    0.000    0.000 
#
# Total GULP energy -111616.293639 kJ/mol
# GULP energy per Si atom -5580.814682 kJ/mol
# Density = 2.120647 g / cm^3
# Si number density = 21.254849 Si / 1000 Ang^3
#
#
#
# Elastic Constant Matrix: (Units=GPa)
#
#
# Indices 1 2 3 4 5 6 
#
# 1 161.3809 61.8580 31.6423 0.0000 0.0000 0.0000
# 2 61.8580 161.9075 56.0660 0.0000 0.0000 0.0000
# 3 31.6423 56.0660 84.0803 0.0000 0.0000 0.0000
# 4 0.0000 0.0000 0.0000 137.2132 0.0000 0.0000
# 5 0.0000 0.0000 0.0000 0.0000 -13.4409 0.0000
# 6 0.0000 0.0000 0.0000 0.0000 0.0000 40.6022
#
#
#
# Elastic Compliance Matrix: (Units=1/GPa)
#
#
# Indices 1 2 3 4 5 6 
#
# 1 0.007346 -0.002404 -0.001161 0.000000 0.000000 0.000000
# 2 -0.002404 0.008818 -0.004975 0.000000 0.000000 0.000000
# 3 -0.001161 -0.004975 0.015648 0.000000 0.000000 0.000000
# 4 0.000000 0.000000 0.000000 0.007288 0.000000 0.000000
# 5 0.000000 0.000000 0.000000 0.000000 -0.074400 0.000000
# 6 0.000000 0.000000 0.000000 0.000000 0.000000 0.024629
#
#
# Mechanical properties :
#
#
# Convention : Reuss Voigt Hill
#
# Bulk Modulus (GPa) = 67.88760 78.50013 73.19387
# Shear Modulus (GPa) = 441.70976 50.06175 245.88575
#
# Velocity S-wave (km/s) = 14.43146 4.85842 10.76734
# Velocity P-wave (km/s) = 17.59826 8.27558 13.75107
#
# Compressibility (1/GPa) = 0.01473023
#
# Stress axis : x y z
#
# Youngs Moduli (GPa) = 136.13176 113.40785 63.90705
#
# Poissons Ratio (x) = 0.27268 0.07421
# Poissons Ratio (y) = 0.32732 0.31793
# Poissons Ratio (z) = 0.15807 0.56419
#
# Static dielectric constant tensor:
#      x y z
#    x 1.751490 0.000000 0.000000 
#    y 0.000000 1.785090 0.000000 
#    z 0.000000 0.000000 1.850550 
# 
# From -- ./inp_files/4370.got.cif
#   From: 2010.05.17/outbox.cif.g08.bks.cpg/sg45_3_cif.got.tgz:4370.got - 2010.06.03 19:51:22.
