data_PCOD9377258
_publ_section_title
;
Structure prediction by ZEFSAII (Michael W. Deem and Ramdas Pophale) SiO2 
 PCOD9377258
Probable space group: I B A 2
;
_chemical_formula_sum "Si O2"
_cell_formula_units_Z 52
_cell_length_a 17.754335
_cell_length_b 5.411282
_cell_length_c 24.916459
_cell_angle_alpha 90.000000
_cell_angle_beta 90.000000
_cell_angle_gamma 90.000000
_cell_volume 2393.816741
_symmetry_space_group_name_H-M "I B A 2"
_symmetry_group_IT_number 45
_symmetry_cell_setting 'orthorhombic'
loop_
_space_group_symop_operation_xyz
x,y,z
-x,-y,z
-x,y,1/2+z
x,-y,1/2+z
1/2+x,1/2+y,1/2+z
1/2-x,1/2-y,1/2+z
1/2-x,1/2+y,z
1/2+x,1/2-y,z
loop_
_atom_site_type_symbol
_atom_site_label
_atom_site_fract_x
_atom_site_fract_y
_atom_site_fract_z
Si Si1 0.699839 0.492155 0.627670
Si Si2 0.883334 0.734319 0.720207
Si Si3 0.500000 0.500000 0.796374
Si Si4 0.064588 0.164148 0.057343
Si Si5 0.794509 0.587976 0.820414
Si Si6 0.000000 0.500000 0.646404
Si Si7 0.500000 0.000000 0.976790
Si Si8 0.431243 0.845861 0.372860
O O1 0.750522 0.740316 0.624435
O O2 0.656759 0.447015 0.684586
O O3 0.638430 0.528858 0.579650
O O4 0.828193 0.588974 0.760097
O O5 0.925010 0.556009 0.678975
O O6 0.951350 0.834173 0.756393
O O7 0.564075 0.604965 0.836645
O O8 0.022201 0.272816 0.109182
O O9 0.000000 0.000000 0.030855
O O10 0.065759 0.387649 0.014563
O O11 0.735164 0.365841 0.826803
O O12 0.858268 0.508003 0.862742
O O13 0.457061 0.179000 0.934171
O O14 0.500000 0.000000 0.347479
#
# Coordination Sequence:
#
# PCOD9377258 Si02
#       8
#     8   8   4   8   8   4   4   8
#     4  12  27  45  66 103 152 188 229 287 359 432
#     4  12  22  41  66 103 142 203 235 285 344 440
#     4  12  22  40  72 102 144 176 252 300 342 402
#     4  11  23  46  71  99 128 179 237 302 349 417
#     4  12  26  44  67 103 152 188 228 286 358 433
#     4  11  22  41  68 102 142 175 254 295 338 396
#     4   9  24  43  80  98 120 173 248 301 356 420
#     4  10  23  47  68 103 127 181 237 301 349 418
#
# _framework density 21.722633999999999
#
# number of rings (size 3 to 8) (size 9 to 14) (size 15 to 20)
#    0.462    0.308    3.077    4.615    3.231    2.462 
#    0.000    1.538    0.000    0.000    0.000    0.000 
#    0.000    0.000    0.000    0.000    0.000    0.000 
#
# Total GULP energy -144951.927319 kJ/mol
# GULP energy per Si atom -5575.074128 kJ/mol
# Density = 2.167319 g / cm^3
# Si number density = 21.722634 Si / 1000 Ang^3
#
#
#
# Elastic Constant Matrix: (Units=GPa)
#
#
# Indices 1 2 3 4 5 6 
#
# 1 102.3914 40.3380 36.0118 0.0000 0.0000 0.0000
# 2 40.3380 88.0280 28.6762 0.0000 0.0000 0.0000
# 3 36.0118 28.6762 107.4675 0.0000 0.0000 0.0000
# 4 0.0000 0.0000 0.0000 10.6591 0.0000 0.0000
# 5 0.0000 0.0000 0.0000 0.0000 9.8479 0.0000
# 6 0.0000 0.0000 0.0000 0.0000 0.0000 52.6390
#
#
#
# Elastic Compliance Matrix: (Units=1/GPa)
#
#
# Indices 1 2 3 4 5 6 
#
# 1 0.012727 -0.004865 -0.002966 0.000000 0.000000 0.000000
# 2 -0.004865 0.014302 -0.002186 0.000000 0.000000 0.000000
# 3 -0.002966 -0.002186 0.010882 0.000000 0.000000 0.000000
# 4 0.000000 0.000000 0.000000 0.093816 0.000000 0.000000
# 5 0.000000 0.000000 0.000000 0.000000 0.101545 0.000000
# 6 0.000000 0.000000 0.000000 0.000000 0.000000 0.018997
#
#
# Mechanical properties :
#
#
# Convention : Reuss Voigt Hill
#
# Bulk Modulus (GPa) = 55.94293 56.43766 56.19030
# Shear Modulus (GPa) = 17.96864 27.48659 22.72762
#
# Velocity S-wave (km/s) = 2.87920 3.56103 3.23811
# Velocity P-wave (km/s) = 6.07143 6.55327 6.31695
#
# Compressibility (1/GPa) = 0.01787536
#
# Stress axis : x y z
#
# Youngs Moduli (GPa) = 78.57611 69.92205 91.89166
#
# Poissons Ratio (x) = 0.34021 0.27258
# Poissons Ratio (y) = 0.38231 0.20086
# Poissons Ratio (z) = 0.23308 0.15284
#
# Static dielectric constant tensor:
#      x y z
#    x 1.820080 0.000000 0.000000 
#    y 0.000000 2.030980 0.000000 
#    z 0.000000 0.000000 1.750610 
# 
# From -- ./inp_files/10080.got.cif
#   From: 2010.05.17/outbox.cif.g08.bks.cpg/sg45_6_cif.got.tgz:10080.got - 2010.06.03 19:51:22.
