data_PCOD9377175
_publ_section_title
;
Structure prediction by ZEFSAII (Michael W. Deem and Ramdas Pophale) SiO2 
 PCOD9377175
Probable space group: I B A 2
;
_chemical_formula_sum "Si O2"
_cell_formula_units_Z 64
_cell_length_a 22.769152
_cell_length_b 14.535651
_cell_length_c 7.970791
_cell_angle_alpha 90.000000
_cell_angle_beta 90.000000
_cell_angle_gamma 90.000000
_cell_volume 2638.048436
_symmetry_space_group_name_H-M "I B A 2"
_symmetry_group_IT_number 45
_symmetry_cell_setting 'orthorhombic'
loop_
_space_group_symop_operation_xyz
x,y,z
-x,-y,z
-x,y,1/2+z
x,-y,1/2+z
1/2+x,1/2+y,1/2+z
1/2-x,1/2-y,1/2+z
1/2-x,1/2+y,z
1/2+x,1/2-y,z
loop_
_atom_site_type_symbol
_atom_site_label
_atom_site_fract_x
_atom_site_fract_y
_atom_site_fract_z
Si Si1 0.496466 0.350244 0.928000
Si Si2 0.832412 0.725933 0.668459
Si Si3 0.327420 0.585497 0.252633
Si Si4 0.579170 0.744467 0.695247
Si Si5 0.745869 0.012274 0.476154
Si Si6 0.646241 0.123382 0.994294
Si Si7 0.591119 0.586991 0.168916
Si Si8 0.780880 0.314843 0.797719
O O1 0.462146 0.260321 0.857402
O O2 0.537669 0.399505 0.796188
O O3 0.541960 0.315531 0.065175
O O4 0.444214 0.414744 0.994572
O O5 0.871145 0.818846 0.672409
O O6 0.817393 0.699119 0.473963
O O7 0.772895 0.747274 0.771306
O O8 0.861525 0.653663 0.800558
O O9 0.364107 0.679168 0.236902
O O10 0.275498 0.575206 0.116993
O O11 0.292887 0.566753 0.425940
O O12 0.370919 0.501247 0.212328
O O13 0.590779 0.842976 0.607256
O O14 0.679875 0.974172 0.497328
O O15 0.743525 0.081523 0.319266
O O16 0.691130 0.180665 0.112403
#
# Coordination Sequence:
#
# PCOD9377175 Si02
#       8
#     8   8   8   8   8   8   8   8
#     4  10  23  41  65  93 132 175 242 292 342 411
#     4  12  23  41  66  98 138 184 229 283 344 420
#     4  12  24  39  64  94 145 179 220 282 345 423
#     4  11  24  42  65  96 129 181 231 285 347 396
#     4  12  24  43  60  97 142 186 226 276 341 426
#     4  12  25  43  66  96 137 189 230 287 341 416
#     4  11  22  42  61  97 135 181 229 288 350 407
#     4  12  25  41  67 100 138 185 232 273 348 430
#
# _framework density 24.260359000000001
#
# number of rings (size 3 to 8) (size 9 to 14) (size 15 to 20)
#    0.000    0.500    5.000    3.750    1.750    3.000 
#    0.000    0.000    0.000    0.000    0.000   14.875 
#    0.000    0.000    0.000    0.000    0.000    0.000 
#
# Total GULP energy -178573.807856 kJ/mol
# GULP energy per Si atom -5580.431496 kJ/mol
# Density = 2.420514 g / cm^3
# Si number density = 24.260359 Si / 1000 Ang^3
#
#
#
# Elastic Constant Matrix: (Units=GPa)
#
#
# Indices 1 2 3 4 5 6 
#
# 1 60.7387 40.0648 38.0784 0.0000 0.0000 0.0000
# 2 40.0648 72.9932 21.0002 0.0000 0.0000 0.0000
# 3 38.0784 21.0002 120.1865 0.0000 0.0000 0.0000
# 4 0.0000 0.0000 0.0000 36.7771 0.0000 0.0000
# 5 0.0000 0.0000 0.0000 0.0000 50.1938 0.0000
# 6 0.0000 0.0000 0.0000 0.0000 0.0000 32.4207
#
#
#
# Elastic Compliance Matrix: (Units=1/GPa)
#
#
# Indices 1 2 3 4 5 6 
#
# 1 0.030702 -0.014797 -0.007142 0.000000 0.000000 0.000000
# 2 -0.014797 0.021557 0.000922 0.000000 0.000000 0.000000
# 3 -0.007142 0.000922 0.010422 0.000000 0.000000 0.000000
# 4 0.000000 0.000000 0.000000 0.027191 0.000000 0.000000
# 5 0.000000 0.000000 0.000000 0.000000 0.019923 0.000000
# 6 0.000000 0.000000 0.000000 0.000000 0.000000 0.030844
#
#
# Mechanical properties :
#
#
# Convention : Reuss Voigt Hill
#
# Bulk Modulus (GPa) = 48.43537 50.24501 49.34019
# Shear Modulus (GPa) = 26.37759 34.19666 30.28713
#
# Velocity S-wave (km/s) = 3.30096 3.75850 3.53713
# Velocity P-wave (km/s) = 5.87678 6.29212 6.08799
#
# Compressibility (1/GPa) = 0.02064607
#
# Stress axis : x y z
#
# Youngs Moduli (GPa) = 32.57149 46.38946 95.95026
#
# Poissons Ratio (x) = 0.68643 0.68525
# Poissons Ratio (y) = 0.48196 -0.08842
# Poissons Ratio (z) = 0.23261 -0.04275
#
# Static dielectric constant tensor:
#      x y z
#    x 2.047810 0.000000 0.000000 
#    y 0.000000 1.975480 0.000000 
#    z 0.000000 0.000000 2.084510 
# 
# From -- ./inp_files/1937.got.cif
#   From: 2010.05.17/outbox.cif.g08.bks.cpg/sg45_1_cif.got.tgz:1937.got - 2010.06.03 19:51:22.
