data_PCOD9377890
_publ_section_title
;
Structure prediction by ZEFSAII (Michael W. Deem and Ramdas Pophale) SiO2 
 PCOD9377890
Probable space group: I M A 2
;
_chemical_formula_sum "Si O2"
_cell_formula_units_Z 64
_cell_length_a 20.768780
_cell_length_b 9.649057
_cell_length_c 14.840233
_cell_angle_alpha 90.000000
_cell_angle_beta 90.000000
_cell_angle_gamma 90.000000
_cell_volume 2973.969961
_symmetry_space_group_name_H-M "I M A 2"
_symmetry_group_IT_number 46
_symmetry_cell_setting 'orthorhombic'
loop_
_space_group_symop_operation_xyz
x,y,z
-x,-y,z
1/2-x,y,z
1/2+x,-y,z
1/2+x,1/2+y,1/2+z
1/2-x,1/2-y,1/2+z
-x,1/2+y,1/2+z
x,1/2-y,1/2+z
loop_
_atom_site_type_symbol
_atom_site_label
_atom_site_fract_x
_atom_site_fract_y
_atom_site_fract_z
Si Si1 0.822308 0.105277 0.503570
Si Si2 0.679435 0.787977 0.492759
Si Si3 0.958020 0.361927 0.215088
Si Si4 0.064965 0.799211 0.025151
Si Si5 0.821136 0.758369 0.294557
Si Si6 0.321399 0.541717 0.218109
Si Si7 0.569271 0.887963 0.056168
Si Si8 0.542363 0.623668 0.765993
O O1 0.750000 0.153130 0.477801
O O2 0.881484 0.204275 0.477654
O O3 0.831615 0.948676 0.469772
O O4 0.821700 0.082897 0.612453
O O5 0.750000 0.778434 0.534819
O O6 0.679081 0.707551 0.398173
O O7 0.625462 0.722355 0.553000
O O8 0.944057 0.277833 0.122326
O O9 0.887903 0.395900 0.255865
O O10 0.000000 0.500000 0.195587
O O11 0.002002 0.264421 0.276750
O O12 0.990435 0.827118 0.998034
O O13 0.090145 0.957368 0.029531
O O14 0.750000 0.822461 0.278719
O O15 0.827351 0.623527 0.232041
O O16 0.883332 0.855248 0.289962
O O17 0.250000 0.581606 0.253712
O O18 0.547048 0.901151 0.158781
O O19 0.500000 0.500000 0.807242
#
# Coordination Sequence:
#
# PCOD9377890 Si02
#       8
#     8   8   8   8   8   8   8   8
#     4   9  18  33  55  84 111 139 186 233 271 325
#     4  10  22  37  56  80 111 149 191 232 276 335
#     4  10  17  30  54  84 112 142 173 227 288 325
#     4   9  19  32  52  83 112 141 172 230 281 329
#     4  10  21  38  56  79 113 152 192 235 280 335
#     4   9  17  31  56  84 106 140 190 230 269 328
#     4  10  19  36  55  81 115 142 181 227 280 336
#     4  11  20  37  59  85 118 144 184 237 287 334
#
# _framework density 21.520056
#
# number of rings (size 3 to 8) (size 9 to 14) (size 15 to 20)
#    0.000    2.250    3.750    0.750    5.250    2.000 
#    2.250    3.125    0.000    0.000    0.000    0.000 
#    0.000    0.000    0.000    0.000    0.000    0.000 
#
# Total GULP energy -178235.132439 kJ/mol
# GULP energy per Si atom -5569.847889 kJ/mol
# Density = 2.147108 g / cm^3
# Si number density = 21.520056 Si / 1000 Ang^3
#
#
#
# Elastic Constant Matrix: (Units=GPa)
#
#
# Indices 1 2 3 4 5 6 
#
# 1 193.6811 84.9373 11.5169 0.0000 0.0000 0.0000
# 2 84.9373 90.7655 4.0882 0.0000 0.0000 0.0000
# 3 11.5169 4.0882 16.8681 0.0000 0.0000 0.0000
# 4 0.0000 0.0000 0.0000 -422.9096 0.0000 0.0000
# 5 0.0000 0.0000 0.0000 0.0000 1.6448 0.0000
# 6 0.0000 0.0000 0.0000 0.0000 0.0000 27.0026
#
#
#
# Elastic Compliance Matrix: (Units=1/GPa)
#
#
# Indices 1 2 3 4 5 6 
#
# 1 0.009037 -0.008269 -0.004166 0.000000 0.000000 0.000000
# 2 -0.008269 0.018706 0.001113 0.000000 0.000000 0.000000
# 3 -0.004166 0.001113 0.061858 0.000000 0.000000 0.000000
# 4 0.000000 0.000000 0.000000 -0.002365 0.000000 0.000000
# 5 0.000000 0.000000 0.000000 0.000000 0.607966 0.000000
# 6 0.000000 0.000000 0.000000 0.000000 0.000000 0.037034
#
#
# Mechanical properties :
#
#
# Convention : Reuss Voigt Hill
#
# Bulk Modulus (GPa) = 14.93533 55.82214 35.37873
# Shear Modulus (GPa) = 6.43334 -65.46762 -29.51714
#
# Velocity S-wave (km/s) = 1.73088 -5.52157 -3.70754
# Velocity P-wave (km/s) = 3.30906 3.82811 1.36098
#
# Compressibility (1/GPa) = 0.06695534
#
# Stress axis : x y z
#
# Youngs Moduli (GPa) = 110.65210 53.45965 16.16595
#
# Poissons Ratio (x) = 0.44208 0.06735
# Poissons Ratio (y) = 0.91502 -0.01798
# Poissons Ratio (z) = 0.46100 -0.05947
#
# Static dielectric constant tensor:
#      x y z
#    x 1.803670 0.000000 0.000000 
#    y 0.000000 2.020650 0.000000 
#    z 0.000000 0.000000 1.828760 
# 
# From -- ./inp_files/22496.got.cif
#   From: 2010.05.17/outbox.cif.g08.bks.cpg/sg46_12_cif.got.tgz:22496.got - 2010.06.03 19:58:25.
