data_PCOD9377022
_publ_section_title
;
Structure prediction by ZEFSAII (Michael W. Deem and Ramdas Pophale) SiO2 
 PCOD9377022
Probable space group: I B A 2
;
_chemical_formula_sum "Si O2"
_cell_formula_units_Z 36
_cell_length_a 6.943405
_cell_length_b 17.793682
_cell_length_c 12.243249
_cell_angle_alpha 90.000000
_cell_angle_beta 90.000000
_cell_angle_gamma 90.000000
_cell_volume 1512.637994
_symmetry_space_group_name_H-M "I B A 2"
_symmetry_group_IT_number 45
_symmetry_cell_setting 'orthorhombic'
loop_
_space_group_symop_operation_xyz
x,y,z
-x,-y,z
-x,y,1/2+z
x,-y,1/2+z
1/2+x,1/2+y,1/2+z
1/2-x,1/2-y,1/2+z
1/2-x,1/2+y,z
1/2+x,1/2-y,z
loop_
_atom_site_type_symbol
_atom_site_label
_atom_site_fract_x
_atom_site_fract_y
_atom_site_fract_z
Si Si1 0.271216 0.407094 0.121330
Si Si2 0.505436 0.140004 0.819990
Si Si3 0.518623 0.793392 0.525671
Si Si4 0.835563 0.152639 0.652419
Si Si5 0.500000 0.000000 0.484438
O O1 0.215280 0.341415 0.034773
O O2 0.496437 0.408142 0.143568
O O3 0.154562 0.378500 0.228209
O O4 0.175339 0.480301 0.067183
O O5 0.714304 0.145679 0.763059
O O6 0.487817 0.069559 0.901464
O O7 0.480950 0.214163 0.896407
O O8 0.338984 0.843087 0.566474
O O9 0.551253 0.728637 0.615537
#
# Coordination Sequence:
#
# PCOD9377022 Si02
#       5
#     8   8   8   8   4
#     4  10  22  44  68 100 143 189 244 309 362 448
#     4  10  24  43  70 102 138 200 244 313 382 432
#     4  10  22  41  64 104 152 182 237 309 370 459
#     4  11  22  43  68 108 144 196 242 304 387 455
#     4  10  22  48  70  94 144 188 258 306 360 434
#
# _framework density 23.799481
#
# number of rings (size 3 to 8) (size 9 to 14) (size 15 to 20)
#    0.000    1.778    2.222    0.667    0.000    7.111 
#    0.000   24.444    0.000    0.000    0.000    0.000 
#    0.000    0.000    0.000    0.000    0.000    0.000 
#
# Total GULP energy -100234.356193 kJ/mol
# GULP energy per Si atom -5568.575344 kJ/mol
# Density = 2.374531 g / cm^3
# Si number density = 23.799481 Si / 1000 Ang^3
#
#
#
# Elastic Constant Matrix: (Units=GPa)
#
#
# Indices 1 2 3 4 5 6 
#
# 1 185.6270 45.1905 70.5354 0.0000 0.0000 0.0000
# 2 45.1905 93.3579 46.1473 0.0000 0.0000 0.0000
# 3 70.5354 46.1473 164.8295 0.0000 0.0000 0.0000
# 4 0.0000 0.0000 0.0000 38.3716 0.0000 0.0000
# 5 0.0000 0.0000 0.0000 0.0000 18.9196 0.0000
# 6 0.0000 0.0000 0.0000 0.0000 0.0000 31.3212
#
#
#
# Elastic Compliance Matrix: (Units=1/GPa)
#
#
# Indices 1 2 3 4 5 6 
#
# 1 0.006784 -0.002146 -0.002302 0.000000 0.000000 0.000000
# 2 -0.002146 0.013111 -0.002752 0.000000 0.000000 0.000000
# 3 -0.002302 -0.002752 0.007823 0.000000 0.000000 0.000000
# 4 0.000000 0.000000 0.000000 0.026061 0.000000 0.000000
# 5 0.000000 0.000000 0.000000 0.000000 0.052855 0.000000
# 6 0.000000 0.000000 0.000000 0.000000 0.000000 0.031927
#
#
# Mechanical properties :
#
#
# Convention : Reuss Voigt Hill
#
# Bulk Modulus (GPa) = 75.09491 85.28454 80.18972
# Shear Modulus (GPa) = 31.76586 36.51854 34.14220
#
# Velocity S-wave (km/s) = 3.65736 3.92142 3.79169
# Velocity P-wave (km/s) = 7.03255 7.51105 7.27573
#
# Compressibility (1/GPa) = 0.01331648
#
# Stress axis : x y z
#
# Youngs Moduli (GPa) = 147.39517 76.27364 127.83259
#
# Poissons Ratio (x) = 0.16368 0.29433
# Poissons Ratio (y) = 0.31630 0.35183
# Poissons Ratio (z) = 0.33937 0.20993
#
# Static dielectric constant tensor:
#      x y z
#    x 1.893540 0.000000 0.000000 
#    y 0.000000 2.140030 0.000000 
#    z 0.000000 0.000000 1.938080 
# 
# From -- ./inp_files/2901.got.cif
#   From: 2010.05.17/outbox.cif.g08.bks.cpg/sg45_2_cif.got.tgz:2901.got - 2010.06.03 19:51:22.
