data_PCOD9377287
_publ_section_title
;
Structure prediction by ZEFSAII (Michael W. Deem and Ramdas Pophale) SiO2 
 PCOD9377287
Probable space group: I B A 2
;
_chemical_formula_sum "Si O2"
_cell_formula_units_Z 44
_cell_length_a 10.433358
_cell_length_b 24.212724
_cell_length_c 8.422764
_cell_angle_alpha 90.000000
_cell_angle_beta 90.000000
_cell_angle_gamma 90.000000
_cell_volume 2127.758790
_symmetry_space_group_name_H-M "I B A 2"
_symmetry_group_IT_number 45
_symmetry_cell_setting 'orthorhombic'
loop_
_space_group_symop_operation_xyz
x,y,z
-x,-y,z
-x,y,1/2+z
x,-y,1/2+z
1/2+x,1/2+y,1/2+z
1/2-x,1/2-y,1/2+z
1/2-x,1/2+y,z
1/2+x,1/2-y,z
loop_
_atom_site_type_symbol
_atom_site_label
_atom_site_fract_x
_atom_site_fract_y
_atom_site_fract_z
Si Si1 0.822135 0.287910 0.770100
Si Si2 0.500000 0.500000 0.912075
Si Si3 0.685921 0.524314 0.664902
Si Si4 0.913452 0.408498 0.291572
Si Si5 0.595420 0.786487 0.140863
Si Si6 0.821557 0.588530 0.156572
O O1 0.700267 0.249930 0.732984
O O2 0.787254 0.350032 0.713253
O O3 0.947681 0.268378 0.669663
O O4 0.865452 0.288180 0.955057
O O5 0.590697 0.538076 0.807406
O O6 0.399958 0.535220 0.013005
O O7 0.817742 0.554793 0.687769
O O8 0.715018 0.458720 0.666541
O O9 0.904509 0.347302 0.219031
O O10 0.871930 0.409406 0.474918
O O11 0.058471 0.428426 0.267534
#
# Coordination Sequence:
#
# PCOD9377287 Si02
#       6
#     8   4   8   8   8   8
#     4  11  23  43  66  94 127 163 210 259 311 370
#     4  10  24  42  58  86 132 166 200 252 292 380
#     4  11  23  42  62  88 127 163 206 246 312 361
#     4  11  23  39  65  92 123 159 209 259 306 363
#     4  11  23  43  66  94 127 163 210 259 311 370
#     4  11  23  39  65  92 123 159 209 259 306 363
#
# _framework density 20.679037000000001
#
# number of rings (size 3 to 8) (size 9 to 14) (size 15 to 20)
#    0.000    1.091    1.818    7.091    5.091    1.455 
#    6.545    0.000    0.000    0.000    0.000    0.000 
#    0.000    0.000    0.000    0.000    0.000    0.000 
#
# Total GULP energy -122901.233412 kJ/mol
# GULP energy per Si atom -5586.419701 kJ/mol
# Density = 2.063197 g / cm^3
# Si number density = 20.679037 Si / 1000 Ang^3
#
#
#
# Elastic Constant Matrix: (Units=GPa)
#
#
# Indices 1 2 3 4 5 6 
#
# 1 90.8419 46.3731 6.5020 -0.0001 0.0001 0.0000
# 2 46.3731 51.4351 7.1095 0.0000 0.0000 0.0000
# 3 6.5020 7.1095 106.7517 0.0003 0.0006 0.0002
# 4 -0.0001 0.0000 0.0003 6.8783 -0.0001 0.0000
# 5 0.0001 0.0000 0.0006 -0.0001 45.3746 0.0000
# 6 0.0000 0.0000 0.0002 0.0000 0.0000 26.2404
#
#
#
# Elastic Compliance Matrix: (Units=1/GPa)
#
#
# Indices 1 2 3 4 5 6 
#
# 1 0.020395 -0.018385 -0.000018 0.000000 0.000000 0.000000
# 2 -0.018385 0.036196 -0.001291 0.000000 0.000000 0.000000
# 3 -0.000018 -0.001291 0.009455 0.000000 0.000000 0.000000
# 4 0.000000 0.000000 0.000000 0.145385 0.000000 0.000000
# 5 0.000000 0.000000 0.000000 0.000000 0.022039 0.000000
# 6 0.000000 0.000000 0.000000 0.000000 0.000000 0.038109
#
#
# Mechanical properties :
#
#
# Convention : Reuss Voigt Hill
#
# Bulk Modulus (GPa) = 37.51215 40.99976 39.25596
# Shear Modulus (GPa) = 15.63227 28.30160 21.96693
#
# Velocity S-wave (km/s) = 2.75243 3.70349 3.26280
# Velocity P-wave (km/s) = 5.31796 6.17718 5.76361
#
# Compressibility (1/GPa) = 0.02665803
#
# Stress axis : x y z
#
# Youngs Moduli (GPa) = 49.03250 27.62731 105.76878
#
# Poissons Ratio (x) = 0.50793 0.00188
# Poissons Ratio (y) = 0.90146 0.13653
# Poissons Ratio (z) = 0.00087 0.03566
#
# Static dielectric constant tensor:
#      x y z
#    x 1.682890 0.000000 0.000000 
#    y 0.000000 1.710900 0.000000 
#    z 0.000000 0.000000 1.800580 
# 
# From -- ./inp_files/1033.got.cif
#   From: 2010.05.17/outbox.cif.g08.bks.cpg/sg45_1_cif.got.tgz:1033.got - 2010.06.03 19:51:22.
