data_PCOD9377487
_publ_section_title
;
Structure prediction by ZEFSAII (Michael W. Deem and Ramdas Pophale) SiO2 
 PCOD9377487
Probable space group: I B A 2
;
_chemical_formula_sum "Si O2"
_cell_formula_units_Z 28
_cell_length_a 19.109338
_cell_length_b 8.668895
_cell_length_c 7.158485
_cell_angle_alpha 90.000000
_cell_angle_beta 90.000000
_cell_angle_gamma 90.000000
_cell_volume 1185.852038
_symmetry_space_group_name_H-M "I B A 2"
_symmetry_group_IT_number 45
_symmetry_cell_setting 'orthorhombic'
loop_
_space_group_symop_operation_xyz
x,y,z
-x,-y,z
-x,y,1/2+z
x,-y,1/2+z
1/2+x,1/2+y,1/2+z
1/2-x,1/2-y,1/2+z
1/2-x,1/2+y,z
1/2+x,1/2-y,z
loop_
_atom_site_type_symbol
_atom_site_label
_atom_site_fract_x
_atom_site_fract_y
_atom_site_fract_z
Si Si1 0.164513 0.354960 0.993450
Si Si2 0.188903 0.290628 0.572739
Si Si3 0.085671 0.817956 0.777204
Si Si4 0.000000 0.000000 0.022942
O O1 0.157255 0.295285 0.781453
O O2 0.182199 0.535290 0.995566
O O3 0.231184 0.263807 0.077398
O O4 0.100736 0.320489 0.134576
O O5 0.148654 0.185266 0.423300
O O6 0.069228 0.961529 0.641609
O O7 0.017638 0.844931 0.907058
#
# Coordination Sequence:
#
# PCOD9377487 Si02
#       4
#     8   8   8   4
#     4  12  25  44  73 112 148 186 236 309 376 431
#     4  12  25  44  73 112 148 186 236 309 376 431
#     4  11  26  48  71 106 149 186 267 280 369 437
#     4  10  28  50  72 104 146 222 230 308 342 452
#
# _framework density 23.611715
#
# number of rings (size 3 to 8) (size 9 to 14) (size 15 to 20)
#    0.000    0.571    5.714    0.000   12.000    0.000 
#    0.000    4.286    0.000    0.000    0.000    0.000 
#    0.000    0.000    0.000    0.000    0.000    0.000 
#
# Total GULP energy -78012.203535 kJ/mol
# GULP energy per Si atom -5572.300253 kJ/mol
# Density = 2.355797 g / cm^3
# Si number density = 23.611715 Si / 1000 Ang^3
#
#
#
# Elastic Constant Matrix: (Units=GPa)
#
#
# Indices 1 2 3 4 5 6 
#
# 1 68.4940 51.4989 53.7776 0.0000 0.0000 0.0000
# 2 51.4989 87.4831 32.4291 0.0000 0.0000 0.0000
# 3 53.7776 32.4291 164.5372 0.0000 0.0000 0.0000
# 4 0.0000 0.0000 0.0000 14.1258 0.0000 0.0000
# 5 0.0000 0.0000 0.0000 0.0000 22.3668 0.0000
# 6 0.0000 0.0000 0.0000 0.0000 0.0000 35.5901
#
#
#
# Elastic Compliance Matrix: (Units=1/GPa)
#
#
# Indices 1 2 3 4 5 6 
#
# 1 0.033015 -0.016652 -0.007509 0.000000 0.000000 0.000000
# 2 -0.016652 0.020730 0.001357 0.000000 0.000000 0.000000
# 3 -0.007509 0.001357 0.008264 0.000000 0.000000 0.000000
# 4 0.000000 0.000000 0.000000 0.070792 0.000000 0.000000
# 5 0.000000 0.000000 0.000000 0.000000 0.044709 0.000000
# 6 0.000000 0.000000 0.000000 0.000000 0.000000 0.028098
#
#
# Mechanical properties :
#
#
# Convention : Reuss Voigt Hill
#
# Bulk Modulus (GPa) = 60.96717 66.21397 63.59057
# Shear Modulus (GPa) = 19.47914 26.60378 23.04146
#
# Velocity S-wave (km/s) = 2.87536 3.36031 3.12725
# Velocity P-wave (km/s) = 6.07457 6.56957 6.32691
#
# Compressibility (1/GPa) = 0.01640227
#
# Stress axis : x y z
#
# Youngs Moduli (GPa) = 30.28888 48.23850 120.99996
#
# Poissons Ratio (x) = 0.80326 0.90857
# Poissons Ratio (y) = 0.50436 -0.16416
# Poissons Ratio (z) = 0.22743 -0.06545
#
# Static dielectric constant tensor:
#      x y z
#    x 1.869700 0.000000 0.000000 
#    y 0.000000 1.851270 0.000000 
#    z 0.000000 0.000000 2.045690 
# 
# From -- ./inp_files/875.got.cif
#   From: 2010.05.17/outbox.cif.g08.bks.cpg/sg45_1_cif.got.tgz:875.got - 2010.06.03 19:51:22.
