data_PCOD9377896
_publ_section_title
;
Structure prediction by ZEFSAII (Michael W. Deem and Ramdas Pophale) SiO2 
 PCOD9377896
Probable space group: I M A 2
;
_chemical_formula_sum "Si O2"
_cell_formula_units_Z 64
_cell_length_a 7.708039
_cell_length_b 20.154447
_cell_length_c 21.669525
_cell_angle_alpha 90.000000
_cell_angle_beta 90.000000
_cell_angle_gamma 90.000000
_cell_volume 3366.388088
_symmetry_space_group_name_H-M "I M A 2"
_symmetry_group_IT_number 46
_symmetry_cell_setting 'orthorhombic'
loop_
_space_group_symop_operation_xyz
x,y,z
-x,-y,z
1/2-x,y,z
1/2+x,-y,z
1/2+x,1/2+y,1/2+z
1/2-x,1/2-y,1/2+z
-x,1/2+y,1/2+z
x,1/2-y,1/2+z
loop_
_atom_site_type_symbol
_atom_site_label
_atom_site_fract_x
_atom_site_fract_y
_atom_site_fract_z
Si Si1 0.042183 0.073104 0.641340
Si Si2 0.543879 0.425835 0.665970
Si Si3 0.046387 0.286403 0.473048
Si Si4 0.454351 0.211635 0.217619
Si Si5 0.456900 0.925506 0.024286
Si Si6 0.957834 0.926983 0.782938
Si Si7 0.036531 0.288597 0.337551
Si Si8 0.036748 0.213154 0.594877
O O1 0.250000 0.077951 0.644855
O O2 0.975470 0.077236 0.712138
O O3 0.983108 0.136696 0.602854
O O4 0.000000 0.000000 0.616969
O O5 0.500000 0.500000 0.687103
O O6 0.750000 0.419583 0.663232
O O7 0.476278 0.366520 0.707930
O O8 0.476477 0.418946 0.595267
O O9 0.250000 0.269870 0.471510
O O10 0.974204 0.269751 0.405683
O O11 0.973310 0.248456 0.532689
O O12 0.030183 0.365123 0.484961
O O13 0.250000 0.227007 0.218215
O O14 0.522502 0.241686 0.281466
O O15 0.523627 0.247549 0.155997
O O16 0.250000 0.918743 0.025100
O O17 0.500000 0.000000 0.003097
O O18 0.750000 0.922139 0.779901
O O19 0.018465 0.863709 0.821177
O O20 0.000000 0.000000 0.807679
O O21 0.250000 0.287747 0.339092
O O22 0.250000 0.215967 0.594467
#
# Coordination Sequence:
#
# PCOD9377896 Si02
#       8
#     8   8   8   8   8   8   8   8
#     4   9  16  28  46  69  93 120 154 194 237 282
#     4  10  20  33  51  77 103 128 163 208 254 300
#     4  10  19  32  50  73  98 130 170 207 244 294
#     4  10  17  31  53  74  97 130 166 204 249 294
#     4  10  20  33  49  71 101 135 168 205 248 297
#     4   9  16  28  44  64  92 124 156 189 228 279
#     4   9  18  31  49  72  99 130 164 201 246 297
#     4   9  16  28  50  72  93 125 165 202 240 287
#
# _framework density 19.011475000000001
#
# number of rings (size 3 to 8) (size 9 to 14) (size 15 to 20)
#    0.000    2.500    2.500    0.750    0.000    1.500 
#    0.000    4.375    0.000    0.750    0.000    1.750 
#    0.000    0.000    0.000    0.000    0.000    0.000 
#
# Total GULP energy -178508.943956 kJ/mol
# GULP energy per Si atom -5578.404499 kJ/mol
# Density = 1.896820 g / cm^3
# Si number density = 19.011475 Si / 1000 Ang^3
#
#
#
# Elastic Constant Matrix: (Units=GPa)
#
#
# Indices 1 2 3 4 5 6 
#
# 1 27.9290 -9.1216 7.6005 0.0000 0.0000 0.0000
# 2 -9.1216 120.2613 82.7342 0.0000 0.0000 0.0000
# 3 7.6005 82.7342 142.9174 0.0000 0.0000 0.0000
# 4 0.0000 0.0000 0.0000 21.6729 0.0000 0.0000
# 5 0.0000 0.0000 0.0000 0.0000 6.8785 0.0000
# 6 0.0000 0.0000 0.0000 0.0000 0.0000 21.6815
#
#
#
# Elastic Compliance Matrix: (Units=1/GPa)
#
#
# Indices 1 2 3 4 5 6 
#
# 1 0.040003 0.007474 -0.006454 0.000000 0.000000 0.000000
# 2 0.007474 0.015215 -0.009205 0.000000 0.000000 0.000000
# 3 -0.006454 -0.009205 0.012669 0.000000 0.000000 0.000000
# 4 0.000000 0.000000 0.000000 0.046140 0.000000 0.000000
# 5 0.000000 0.000000 0.000000 0.000000 0.145381 0.000000
# 6 0.000000 0.000000 0.000000 0.000000 0.000000 0.046122
#
#
# Mechanical properties :
#
#
# Convention : Reuss Voigt Hill
#
# Bulk Modulus (GPa) = 19.41134 50.39266 34.90200
# Shear Modulus (GPa) = 14.74608 24.03954 19.39281
#
# Velocity S-wave (km/s) = 2.78805 3.55980 3.19730
# Velocity P-wave (km/s) = 4.53837 6.59244 5.65938
#
# Compressibility (1/GPa) = 0.05151629
#
# Stress axis : x y z
#
# Youngs Moduli (GPa) = 24.99835 65.72447 78.93120
#
# Poissons Ratio (x) = -0.49125 0.50944
# Poissons Ratio (y) = -0.18685 0.72659
# Poissons Ratio (z) = 0.16135 0.60502
#
# Static dielectric constant tensor:
#      x y z
#    x 1.693040 0.000000 0.000000 
#    y 0.000000 1.649460 0.000000 
#    z 0.000000 0.000000 1.670550 
# 
# From -- ./inp_files/21413.got.cif
#   From: 2010.05.17/outbox.cif.g08.bks.cpg/sg46_11_cif.got.tgz:21413.got - 2010.06.03 19:58:25.
