data_PCOD9377948
_publ_section_title
;
Structure prediction by ZEFSAII (Michael W. Deem and Ramdas Pophale) SiO2 
 PCOD9377948
Probable space group: I M A 2
;
_chemical_formula_sum "Si O2"
_cell_formula_units_Z 40
_cell_length_a 12.852036
_cell_length_b 11.785419
_cell_length_c 12.516667
_cell_angle_alpha 90.000000
_cell_angle_beta 90.000000
_cell_angle_gamma 90.000000
_cell_volume 1895.857360
_symmetry_space_group_name_H-M "I M A 2"
_symmetry_group_IT_number 46
_symmetry_cell_setting 'orthorhombic'
loop_
_space_group_symop_operation_xyz
x,y,z
-x,-y,z
1/2-x,y,z
1/2+x,-y,z
1/2+x,1/2+y,1/2+z
1/2-x,1/2-y,1/2+z
-x,1/2+y,1/2+z
x,1/2-y,1/2+z
loop_
_atom_site_type_symbol
_atom_site_label
_atom_site_fract_x
_atom_site_fract_y
_atom_site_fract_z
Si Si1 0.375524 0.435154 0.018860
Si Si2 0.368410 0.915749 0.711955
Si Si3 0.133385 0.394162 0.783550
Si Si4 0.877396 0.825193 0.060687
Si Si5 0.571648 0.855137 0.825690
O O1 0.250000 0.432976 0.018143
O O2 0.399773 0.544492 0.092056
O O3 0.403185 0.310099 0.064980
O O4 0.408132 0.441573 0.895181
O O5 0.250000 0.871900 0.713890
O O6 0.374077 0.036656 0.773024
O O7 0.457170 0.844820 0.772324
O O8 0.250000 0.439953 0.772419
O O9 0.085830 0.393507 0.665356
O O10 0.134839 0.259060 0.806028
O O11 0.750000 0.833296 0.054036
O O12 0.928698 0.870402 0.952690
#
# Coordination Sequence:
#
# PCOD9377948 Si02
#       5
#     8   8   8   8   8
#     4   8  14  24  41  65  94 123 150 191 242 282
#     4  10  18  29  43  65  97 127 158 192 232 288
#     4   9  15  26  46  73  97 116 148 203 253 284
#     4   9  15  25  44  70  97 116 146 199 249 285
#     4  10  18  26  44  70  93 122 155 196 241 291
#
# _framework density 21.098633
#
# number of rings (size 3 to 8) (size 9 to 14) (size 15 to 20)
#    0.000    2.800    2.000    3.000    0.000    0.000 
#    0.000    0.000    0.000    6.000    0.000    0.000 
#    0.000    0.000    0.000    0.000    0.000    0.000 
#
# Total GULP energy -111366.711707 kJ/mol
# GULP energy per Si atom -5568.335585 kJ/mol
# Density = 2.105061 g / cm^3
# Si number density = 21.098633 Si / 1000 Ang^3
#
#
#
# Elastic Constant Matrix: (Units=GPa)
#
#
# Indices 1 2 3 4 5 6 
#
# 1 106.9022 24.3145 28.5983 0.0000 0.0000 0.0000
# 2 24.3145 20.9063 13.4856 0.0000 0.0000 0.0000
# 3 28.5983 13.4856 210.8907 0.0000 0.0000 0.0000
# 4 0.0000 0.0000 0.0000 12.0966 0.0000 0.0000
# 5 0.0000 0.0000 0.0000 0.0000 11.1953 0.0000
# 6 0.0000 0.0000 0.0000 0.0000 0.0000 25.1566
#
#
#
# Elastic Compliance Matrix: (Units=1/GPa)
#
#
# Indices 1 2 3 4 5 6 
#
# 1 0.012854 -0.014420 -0.000821 0.000000 0.000000 0.000000
# 2 -0.014420 0.066067 -0.002269 0.000000 0.000000 0.000000
# 3 -0.000821 -0.002269 0.004998 0.000000 0.000000 0.000000
# 4 0.000000 0.000000 0.000000 0.082668 0.000000 0.000000
# 5 0.000000 0.000000 0.000000 0.000000 0.089323 0.000000
# 6 0.000000 0.000000 0.000000 0.000000 0.000000 0.039751
#
#
# Mechanical properties :
#
#
# Convention : Reuss Voigt Hill
#
# Bulk Modulus (GPa) = 20.45036 52.38845 36.41941
# Shear Modulus (GPa) = 14.41006 27.84308 21.12657
#
# Velocity S-wave (km/s) = 2.61623 3.63666 3.16780
# Velocity P-wave (km/s) = 4.34051 6.52057 5.53886
#
# Compressibility (1/GPa) = 0.04889889
#
# Stress axis : x y z
#
# Youngs Moduli (GPa) = 77.79888 15.13623 200.07067
#
# Poissons Ratio (x) = 0.21826 0.16425
# Poissons Ratio (y) = 1.12183 0.45402
# Poissons Ratio (z) = 0.06387 0.03435
#
# Static dielectric constant tensor:
#      x y z
#    x 1.837350 0.000000 0.000000 
#    y 0.000000 1.717950 0.000000 
#    z 0.000000 0.000000 1.858240 
# 
# From -- ./inp_files/10905.got.cif
#   From: 2010.05.17/outbox.cif.g08.bks.cpg/sg46_6_cif.got.tgz:10905.got - 2010.06.03 19:58:25.
