data_PCOD9377801
_publ_section_title
;
Structure prediction by ZEFSAII (Michael W. Deem and Ramdas Pophale) SiO2 
 PCOD9377801
Probable space group: I M A 2
;
_chemical_formula_sum "Si O2"
_cell_formula_units_Z 44
_cell_length_a 14.475001
_cell_length_b 30.068837
_cell_length_c 5.367200
_cell_angle_alpha 90.000000
_cell_angle_beta 90.000000
_cell_angle_gamma 90.000000
_cell_volume 2336.054723
_symmetry_space_group_name_H-M "I M A 2"
_symmetry_group_IT_number 46
_symmetry_cell_setting 'orthorhombic'
loop_
_space_group_symop_operation_xyz
x,y,z
-x,-y,z
1/2-x,y,z
1/2+x,-y,z
1/2+x,1/2+y,1/2+z
1/2-x,1/2-y,1/2+z
-x,1/2+y,1/2+z
x,1/2-y,1/2+z
loop_
_atom_site_type_symbol
_atom_site_label
_atom_site_fract_x
_atom_site_fract_y
_atom_site_fract_z
Si Si1 0.914728 0.964155 0.269140
Si Si2 0.250000 0.775444 0.335961
Si Si3 0.644386 0.104490 0.771701
Si Si4 0.887507 0.499944 0.269038
Si Si5 0.969335 0.125075 0.271851
Si Si6 0.542694 0.279084 0.757130
O O1 0.860194 0.975181 0.518649
O O2 0.957942 0.915293 0.271186
O O3 0.860532 0.974772 0.018476
O O4 0.000000 0.000000 0.268373
O O5 0.250000 0.765035 0.631486
O O6 0.150524 0.795311 0.272195
O O7 0.750000 0.120690 0.769305
O O8 0.590373 0.119419 0.524256
O O9 0.643749 0.050821 0.770266
O O10 0.591658 0.118912 0.021908
O O11 0.000000 0.500000 0.268347
O O12 0.011445 0.174616 0.267258
O O13 0.529319 0.251964 0.500394
#
# Coordination Sequence:
#
# PCOD9377801 Si02
#       6
#     8   4   8   8   8   8
#     4  10  16  30  52  66  83 110 149 185 212 271
#     4   8  16  30  44  50  68 108 144 176 220 256
#     4  12  23  31  45  71  94 116 150 198 233 260
#     4  10  16  32  47  62  91 115 142 184 217 270
#     4  12  21  34  50  66  86 120 154 196 230 262
#     4  10  21  35  44  59  83 112 150 192 233 268
#
# _framework density 18.835173999999999
#
# number of rings (size 3 to 8) (size 9 to 14) (size 15 to 20)
#    0.000    1.455    7.273    1.636    2.545    0.000 
#    3.273    0.000    0.000    0.000    0.000    0.000 
#    0.000    0.000    0.000    0.000    0.000   18.182 
#
# Total GULP energy -122702.120002 kJ/mol
# GULP energy per Si atom -5577.369091 kJ/mol
# Density = 1.879230 g / cm^3
# Si number density = 18.835174 Si / 1000 Ang^3
#
#
#
# Elastic Constant Matrix: (Units=GPa)
#
#
# Indices 1 2 3 4 5 6 
#
# 1 30.3038 11.7943 15.1030 0.0064 0.0348 -0.0032
# 2 11.7943 154.9697 63.1378 -0.0665 0.0229 0.0075
# 3 15.1030 63.1378 219.1871 -0.2098 0.1698 0.0588
# 4 0.0064 -0.0665 -0.2098 -0.9521 0.0569 0.0017
# 5 0.0348 0.0229 0.1698 0.0569 3.2564 -0.0029
# 6 -0.0032 0.0075 0.0588 0.0017 -0.0029 12.5389
#
#
#
# Elastic Compliance Matrix: (Units=1/GPa)
#
#
# Indices 1 2 3 4 5 6 
#
# 1 0.034652 -0.001886 -0.001844 0.000754 -0.000274 0.000018
# 2 -0.001886 0.007414 -0.002006 -0.000084 0.000074 0.000005
# 3 -0.001844 -0.002006 0.005266 -0.001046 -0.000223 -0.000024
# 4 0.000754 -0.000084 -0.001046 -1.049000 0.018391 0.000151
# 5 -0.000274 0.000074 -0.000223 0.018391 0.306782 0.000069
# 6 0.000018 0.000005 -0.000024 0.000151 0.000069 0.079752
#
#
# Mechanical properties :
#
#
# Convention : Reuss Voigt Hill
#
# Bulk Modulus (GPa) = 27.88483 64.94786 46.41634
# Shear Modulus (GPa) = -8.45009 23.93034 7.74013
#
# Velocity S-wave (km/s) = -2.12039 3.56829 2.02936
# Velocity P-wave (km/s) = 2.97356 7.17872 5.49436
#
# Compressibility (1/GPa) = 0.03586180
#
# Stress axis : x y z
#
# Youngs Moduli (GPa) = 28.85827 134.88885 189.88773
#
# Poissons Ratio (x) = 0.25437 0.35007
# Poissons Ratio (y) = 0.05442 0.38086
# Poissons Ratio (z) = 0.05320 0.27055
#
# Static dielectric constant tensor:
#      x y z
#    x 1.649990 -0.000040 -0.000070 
#    y -0.000040 1.712240 0.000230 
#    z -0.000070 0.000230 1.564570 
# 
# From -- ./inp_files/1679.got.cif
#   From: 2010.05.17/outbox.cif.g08.bks.cpg/sg46_1_cif.got.tgz:1679.got - 2010.06.03 19:58:25.
