data_PCOD9377224
_publ_section_title
;
Structure prediction by ZEFSAII (Michael W. Deem and Ramdas Pophale) SiO2 
 PCOD9377224
Probable space group: I B A 2
;
_chemical_formula_sum "Si O2"
_cell_formula_units_Z 48
_cell_length_a 6.725990
_cell_length_b 15.478222
_cell_length_c 17.299705
_cell_angle_alpha 90.000000
_cell_angle_beta 90.000000
_cell_angle_gamma 90.000000
_cell_volume 1801.009427
_symmetry_space_group_name_H-M "I B A 2"
_symmetry_group_IT_number 45
_symmetry_cell_setting 'orthorhombic'
loop_
_space_group_symop_operation_xyz
x,y,z
-x,-y,z
-x,y,1/2+z
x,-y,1/2+z
1/2+x,1/2+y,1/2+z
1/2-x,1/2-y,1/2+z
1/2-x,1/2+y,z
1/2+x,1/2-y,z
loop_
_atom_site_type_symbol
_atom_site_label
_atom_site_fract_x
_atom_site_fract_y
_atom_site_fract_z
Si Si1 0.874980 0.266543 0.422820
Si Si2 0.855016 0.891140 0.811614
Si Si3 0.374979 0.733457 0.545015
Si Si4 0.355015 0.891140 0.656223
Si Si5 0.809359 0.431727 0.334941
Si Si6 0.690640 0.431727 0.632895
O O1 0.840463 0.203302 0.348078
O O2 0.621185 0.258902 0.444976
O O3 0.891250 0.366974 0.398921
O O4 0.878817 0.258902 0.522859
O O5 0.858894 0.897495 0.719010
O O6 0.071179 0.918761 0.840307
O O7 0.687955 0.962951 0.836735
O O8 0.340462 0.796698 0.619758
O O9 0.391249 0.633026 0.568915
O O10 0.358891 0.897495 0.748826
O O11 0.571179 0.918761 0.627530
O O12 0.187955 0.962951 0.631100
#
# Coordination Sequence:
#
# PCOD9377224 Si02
#       6
#     8   8   8   8   8   8
#     4  12  25  42  65 100 137 177 219 277 351 408
#     4  10  23  44  68  95 129 175 230 276 335 397
#     4  12  25  42  65 100 137 177 219 277 351 408
#     4  10  23  44  68  95 129 175 230 276 335 397
#     4  10  23  44  68  95 129 177 228 280 329 402
#     4  10  23  44  68  95 129 177 228 280 329 402
#
# _framework density 26.651720000000001
#
# number of rings (size 3 to 8) (size 9 to 14) (size 15 to 20)
#    0.000    1.333    3.333    1.000    4.667    4.000 
#    0.000    0.000    0.000    0.000    0.000    0.000 
#    0.000    0.000    0.000    0.000    0.000    0.000 
#
# Total GULP energy -133987.124818 kJ/mol
# GULP energy per Si atom -5582.796867 kJ/mol
# Density = 2.659106 g / cm^3
# Si number density = 26.651720 Si / 1000 Ang^3
#
#
#
# Elastic Constant Matrix: (Units=GPa)
#
#
# Indices 1 2 3 4 5 6 
#
# 1 95.6676 55.8340 67.9119 0.0000 0.0000 0.0000
# 2 55.8340 130.9772 96.4511 0.0000 0.0000 0.0000
# 3 67.9119 96.4511 110.2980 0.0000 0.0000 0.0000
# 4 0.0000 0.0000 0.0000 47.6009 0.0000 0.0000
# 5 0.0000 0.0000 0.0000 0.0000 79.2944 0.0000
# 6 0.0000 0.0000 0.0000 0.0000 0.0000 74.0973
#
#
#
# Elastic Compliance Matrix: (Units=1/GPa)
#
#
# Indices 1 2 3 4 5 6 
#
# 1 0.018663 0.001422 -0.012734 0.000000 0.000000 0.000000
# 2 0.001422 0.021552 -0.019721 0.000000 0.000000 0.000000
# 3 -0.012734 -0.019721 0.034152 0.000000 0.000000 0.000000
# 4 0.000000 0.000000 0.000000 0.021008 0.000000 0.000000
# 5 0.000000 0.000000 0.000000 0.000000 0.012611 0.000000
# 6 0.000000 0.000000 0.000000 0.000000 0.000000 0.013496
#
#
# Mechanical properties :
#
#
# Convention : Reuss Voigt Hill
#
# Bulk Modulus (GPa) = 81.30600 86.37077 83.83838
# Shear Modulus (GPa) = 26.64557 47.98157 37.31357
#
# Velocity S-wave (km/s) = 3.16534 4.24762 3.74577
# Velocity P-wave (km/s) = 6.62814 7.51890 7.08753
#
# Compressibility (1/GPa) = 0.01229922
#
# Stress axis : x y z
#
# Youngs Moduli (GPa) = 53.58288 46.40030 29.28069
#
# Poissons Ratio (x) = -0.06596 0.37286
# Poissons Ratio (y) = -0.07617 0.57745
# Poissons Ratio (z) = 0.68232 0.91507
#
# Static dielectric constant tensor:
#      x y z
#    x 2.365850 0.000000 0.000000 
#    y 0.000000 1.984800 0.000000 
#    z 0.000000 0.000000 1.924450 
# 
# From -- ./inp_files/1724.got.cif
#   From: 2010.05.17/outbox.cif.g08.bks.cpg/sg45_1_cif.got.tgz:1724.got - 2010.06.03 19:51:22.
