data_PCOD9377135
_publ_section_title
;
Structure prediction by ZEFSAII (Michael W. Deem and Ramdas Pophale) SiO2 
 PCOD9377135
Probable space group: I B A 2
;
_chemical_formula_sum "Si O2"
_cell_formula_units_Z 60
_cell_length_a 26.009904
_cell_length_b 9.086963
_cell_length_c 11.756730
_cell_angle_alpha 90.000000
_cell_angle_beta 90.000000
_cell_angle_gamma 90.000000
_cell_volume 2778.715307
_symmetry_space_group_name_H-M "I B A 2"
_symmetry_group_IT_number 45
_symmetry_cell_setting 'orthorhombic'
loop_
_space_group_symop_operation_xyz
x,y,z
-x,-y,z
-x,y,1/2+z
x,-y,1/2+z
1/2+x,1/2+y,1/2+z
1/2-x,1/2-y,1/2+z
1/2-x,1/2+y,z
1/2+x,1/2-y,z
loop_
_atom_site_type_symbol
_atom_site_label
_atom_site_fract_x
_atom_site_fract_y
_atom_site_fract_z
Si Si1 0.690110 0.861440 0.514390
Si Si2 0.373197 0.424017 0.439608
Si Si3 0.264130 0.769639 0.691315
Si Si4 0.768468 0.012081 0.341711
Si Si5 0.000000 0.500000 0.183336
Si Si6 0.125281 0.196183 0.591153
Si Si7 0.437693 0.212154 0.315521
Si Si8 0.591169 0.022544 0.504578
O O1 0.657651 0.728121 0.458472
O O2 0.718292 0.780849 0.614301
O O3 0.731689 0.954789 0.441869
O O4 0.645796 0.971212 0.552994
O O5 0.329543 0.511156 0.364316
O O6 0.380469 0.529291 0.547978
O O7 0.427259 0.359082 0.391267
O O8 0.253250 0.934670 0.728530
O O9 0.261551 0.682210 0.810645
O O10 0.315728 0.729358 0.623905
O O11 0.989877 0.355176 0.261106
O O12 0.952088 0.514416 0.097389
O O13 0.096235 0.243598 0.706263
O O14 0.099670 0.302441 0.495698
O O15 0.419479 0.070111 0.390230
#
# Coordination Sequence:
#
# PCOD9377135 Si02
#       8
#     8   8   8   8   4   8   8   8
#     4  11  24  39  59  91 138 183 239 280 346 429
#     4  11  23  41  60  97 145 184 234 297 354 425
#     4  12  23  36  59  91 139 196 238 275 341 417
#     4  12  23  37  56  90 140 193 233 279 332 418
#     4  10  22  46  80 100 126 172 236 316 366 420
#     4  11  22  41  65  99 146 189 238 297 354 428
#     4  10  22  46  72 103 137 178 237 295 370 438
#     4  10  23  42  71 102 130 180 242 301 360 432
#
# _framework density 21.592711999999999
#
# number of rings (size 3 to 8) (size 9 to 14) (size 15 to 20)
#    0.000    1.067    4.000    2.800    3.733    2.133 
#    0.000    0.000    0.000   32.800    0.000    0.000 
#    0.000    0.000    0.000    0.000    0.000    0.000 
#
# Total GULP energy -167044.040658 kJ/mol
# GULP energy per Si atom -5568.134689 kJ/mol
# Density = 2.154357 g / cm^3
# Si number density = 21.592712 Si / 1000 Ang^3
#
#
#
# Elastic Constant Matrix: (Units=GPa)
#
#
# Indices 1 2 3 4 5 6 
#
# 1 75.1098 29.9461 24.3346 0.0000 0.0000 0.0000
# 2 29.9461 93.5162 22.3712 0.0000 0.0000 0.0000
# 3 24.3346 22.3712 48.7224 0.0000 0.0000 0.0000
# 4 0.0000 0.0000 0.0000 35.0387 0.0000 0.0000
# 5 0.0000 0.0000 0.0000 0.0000 21.5889 0.0000
# 6 0.0000 0.0000 0.0000 0.0000 0.0000 34.6010
#
#
#
# Elastic Compliance Matrix: (Units=1/GPa)
#
#
# Indices 1 2 3 4 5 6 
#
# 1 0.017029 -0.003840 -0.006742 0.000000 0.000000 0.000000
# 2 -0.003840 0.012879 -0.003995 0.000000 0.000000 0.000000
# 3 -0.006742 -0.003995 0.025726 0.000000 0.000000 0.000000
# 4 0.000000 0.000000 0.000000 0.028540 0.000000 0.000000
# 5 0.000000 0.000000 0.000000 0.000000 0.046320 0.000000
# 6 0.000000 0.000000 0.000000 0.000000 0.000000 0.028901
#
#
# Mechanical properties :
#
#
# Convention : Reuss Voigt Hill
#
# Bulk Modulus (GPa) = 37.76576 41.18356 39.47466
# Shear Modulus (GPa) = 25.33222 27.62548 26.47885
#
# Velocity S-wave (km/s) = 3.42889 3.58074 3.50564
# Velocity P-wave (km/s) = 5.76233 6.01746 5.89128
#
# Compressibility (1/GPa) = 0.02647901
#
# Stress axis : x y z
#
# Youngs Moduli (GPa) = 58.72235 77.64655 38.87081
#
# Poissons Ratio (x) = 0.29819 0.26207
# Poissons Ratio (y) = 0.22551 0.15530
# Poissons Ratio (z) = 0.39591 0.31022
#
# Static dielectric constant tensor:
#      x y z
#    x 1.843700 0.000000 0.000000 
#    y 0.000000 1.809470 0.000000 
#    z 0.000000 0.000000 1.867600 
# 
# From -- ./inp_files/3338.got.cif
#   From: 2010.05.17/outbox.cif.g08.bks.cpg/sg45_2_cif.got.tgz:3338.got - 2010.06.03 19:51:22.
