data_PCOD9377089
_publ_section_title
;
Structure prediction by ZEFSAII (Michael W. Deem and Ramdas Pophale) SiO2 
 PCOD9377089
Probable space group: I B A 2
;
_chemical_formula_sum "Si O2"
_cell_formula_units_Z 64
_cell_length_a 26.126960
_cell_length_b 12.635697
_cell_length_c 8.457988
_cell_angle_alpha 90.000000
_cell_angle_beta 90.000000
_cell_angle_gamma 90.000000
_cell_volume 2792.255455
_symmetry_space_group_name_H-M "I B A 2"
_symmetry_group_IT_number 45
_symmetry_cell_setting 'orthorhombic'
loop_
_space_group_symop_operation_xyz
x,y,z
-x,-y,z
-x,y,1/2+z
x,-y,1/2+z
1/2+x,1/2+y,1/2+z
1/2-x,1/2-y,1/2+z
1/2-x,1/2+y,z
1/2+x,1/2-y,z
loop_
_atom_site_type_symbol
_atom_site_label
_atom_site_fract_x
_atom_site_fract_y
_atom_site_fract_z
Si Si1 0.681730 0.656114 0.962010
Si Si2 0.464326 0.147905 0.759460
Si Si3 0.586599 0.412427 0.002521
Si Si4 0.064895 0.312051 0.899683
Si Si5 0.805174 0.601743 0.488786
Si Si6 0.629123 0.981620 0.269900
Si Si7 0.801544 0.963639 0.134479
Si Si8 0.566769 0.365390 0.364286
O O1 0.698666 0.589356 0.806944
O O2 0.621641 0.666186 0.932389
O O3 0.701941 0.773525 0.970224
O O4 0.692082 0.590070 0.120803
O O5 0.454546 0.172340 0.577068
O O6 0.524603 0.128788 0.783851
O O7 0.461763 0.253319 0.870612
O O8 0.419209 0.062789 0.789080
O O9 0.647754 0.425152 0.035849
O O10 0.566439 0.388965 0.177731
O O11 0.575276 0.313795 0.886294
O O12 0.559785 0.520102 0.943819
O O13 0.116494 0.379259 0.876566
O O14 0.852710 0.568206 0.603364
O O15 0.821877 0.547673 0.326483
O O16 0.751659 0.561118 0.552806
#
# Coordination Sequence:
#
# PCOD9377089 Si02
#       8
#     8   8   8   8   8   8   8   8
#     4  10  22  43  66  99 139 188 231 304 358 433
#     4  11  24  44  67  96 134 184 235 295 366 430
#     4   9  21  40  64  98 133 177 223 292 356 424
#     4  11  26  43  70  98 137 183 235 301 361 435
#     4  12  26  43  72 101 144 195 240 303 363 440
#     4  12  26  45  66  99 139 182 247 295 358 431
#     4  10  23  42  69 102 140 186 244 290 370 438
#     4   9  19  40  65  90 135 174 224 293 350 428
#
# _framework density 22.920538000000001
#
# number of rings (size 3 to 8) (size 9 to 14) (size 15 to 20)
#    0.000    1.500    2.500    1.125    1.750   10.500 
#    0.000    2.500    0.000    0.000    0.000    0.000 
#    0.000    0.000    0.000    0.000    0.000    0.000 
#
# Total GULP energy -178433.261874 kJ/mol
# GULP energy per Si atom -5576.039434 kJ/mol
# Density = 2.286837 g / cm^3
# Si number density = 22.920538 Si / 1000 Ang^3
#
#
#
# Elastic Constant Matrix: (Units=GPa)
#
#
# Indices 1 2 3 4 5 6 
#
# 1 56.0164 27.3891 5.0384 0.0000 0.0000 0.0000
# 2 27.3891 95.9983 46.1951 0.0000 0.0000 0.0000
# 3 5.0384 46.1951 45.0969 0.0000 0.0000 0.0000
# 4 0.0000 0.0000 0.0000 37.0371 0.0000 0.0000
# 5 0.0000 0.0000 0.0000 0.0000 20.6194 0.0000
# 6 0.0000 0.0000 0.0000 0.0000 0.0000 4.7006
#
#
#
# Elastic Compliance Matrix: (Units=1/GPa)
#
#
# Indices 1 2 3 4 5 6 
#
# 1 0.022073 -0.010079 0.007859 0.000000 0.000000 0.000000
# 2 -0.010079 0.025146 -0.024632 0.000000 0.000000 0.000000
# 3 0.007859 -0.024632 0.046528 0.000000 0.000000 0.000000
# 4 0.000000 0.000000 0.000000 0.027000 0.000000 0.000000
# 5 0.000000 0.000000 0.000000 0.000000 0.048498 0.000000
# 6 0.000000 0.000000 0.000000 0.000000 0.000000 0.212739
#
#
# Mechanical properties :
#
#
# Convention : Reuss Voigt Hill
#
# Bulk Modulus (GPa) = 24.97369 39.37297 32.17333
# Shear Modulus (GPa) = 11.13496 20.37070 15.75283
#
# Velocity S-wave (km/s) = 2.20649 2.98443 2.62445
# Velocity P-wave (km/s) = 4.17264 5.39362 4.82193
#
# Compressibility (1/GPa) = 0.04004214
#
# Stress axis : x y z
#
# Youngs Moduli (GPa) = 45.30346 39.76832 21.49232
#
# Poissons Ratio (x) = 0.40084 -0.16890
# Poissons Ratio (y) = 0.45663 0.52940
# Poissons Ratio (z) = -0.35603 0.97957
#
# Static dielectric constant tensor:
#      x y z
#    x 1.889980 0.000000 0.000000 
#    y 0.000000 1.876670 0.000000 
#    z 0.000000 0.000000 1.865820 
# 
# From -- ./inp_files/2781.got.cif
#   From: 2010.05.17/outbox.cif.g08.bks.cpg/sg45_2_cif.got.tgz:2781.got - 2010.06.03 19:51:22.
