data_PCOD9377702
_publ_section_title
;
Structure prediction by ZEFSAII (Michael W. Deem and Ramdas Pophale) SiO2 
 PCOD9377702
Probable space group: I B A 2
;
_chemical_formula_sum "Si O2"
_cell_formula_units_Z 40
_cell_length_a 8.346065
_cell_length_b 13.919201
_cell_length_c 14.108766
_cell_angle_alpha 90.000000
_cell_angle_beta 90.000000
_cell_angle_gamma 90.000000
_cell_volume 1639.023195
_symmetry_space_group_name_H-M "I B A 2"
_symmetry_group_IT_number 45
_symmetry_cell_setting 'orthorhombic'
loop_
_space_group_symop_operation_xyz
x,y,z
-x,-y,z
-x,y,1/2+z
x,-y,1/2+z
1/2+x,1/2+y,1/2+z
1/2-x,1/2-y,1/2+z
1/2-x,1/2+y,z
1/2+x,1/2-y,z
loop_
_atom_site_type_symbol
_atom_site_label
_atom_site_fract_x
_atom_site_fract_y
_atom_site_fract_z
Si Si1 0.241111 0.269775 0.989510
Si Si2 0.446265 0.397282 0.491402
Si Si3 0.406464 0.146361 0.317209
Si Si4 0.425728 0.894067 0.140161
Si Si5 0.758360 0.561897 0.318006
O O1 0.411653 0.320395 0.995116
O O2 0.206398 0.163341 0.029808
O O3 0.181049 0.275854 0.880323
O O4 0.126309 0.342590 0.046362
O O5 0.500000 0.500000 0.533200
O O6 0.390991 0.419923 0.383998
O O7 0.453235 0.166035 0.208159
O O8 0.580159 0.114187 0.358169
O O9 0.298750 0.051033 0.319999
O O10 0.268642 0.906668 0.208451
O O11 0.500000 0.000000 0.127241
#
# Coordination Sequence:
#
# PCOD9377702 Si02
#       5
#     8   8   8   8   8
#     4  12  24  42  71 103 143 203 245 306 370 449
#     4  12  26  44  72 106 148 194 252 304 372 443
#     4   8  17  39  75  99 138 187 237 297 374 430
#     4   8  20  39  74 110 141 188 253 305 370 445
#     4   8  17  42  67 101 137 185 234 307 365 424
#
# _framework density 24.404779999999999
#
# number of rings (size 3 to 8) (size 9 to 14) (size 15 to 20)
#    1.200    1.200    2.000    1.200    2.800    1.600 
#    3.600    1.000    4.400    0.000    0.000    0.000 
#    0.000    0.000    0.000    0.000    0.000    0.000 
#
# Total GULP energy -111525.817788 kJ/mol
# GULP energy per Si atom -5576.290889 kJ/mol
# Density = 2.434923 g / cm^3
# Si number density = 24.404780 Si / 1000 Ang^3
#
#
#
# Elastic Constant Matrix: (Units=GPa)
#
#
# Indices 1 2 3 4 5 6 
#
# 1 88.0454 41.5524 34.1897 0.0000 0.0000 0.0000
# 2 41.5524 100.8443 12.6138 0.0000 0.0000 0.0000
# 3 34.1897 12.6138 63.0884 0.0000 0.0000 0.0000
# 4 0.0000 0.0000 0.0000 15.1351 0.0000 0.0000
# 5 0.0000 0.0000 0.0000 0.0000 31.3537 0.0000
# 6 0.0000 0.0000 0.0000 0.0000 0.0000 44.9265
#
#
#
# Elastic Compliance Matrix: (Units=1/GPa)
#
#
# Indices 1 2 3 4 5 6 
#
# 1 0.017465 -0.006167 -0.008232 0.000000 0.000000 0.000000
# 2 -0.006167 0.012348 0.000873 0.000000 0.000000 0.000000
# 3 -0.008232 0.000873 0.020137 0.000000 0.000000 0.000000
# 4 0.000000 0.000000 0.000000 0.066071 0.000000 0.000000
# 5 0.000000 0.000000 0.000000 0.000000 0.031894 0.000000
# 6 0.000000 0.000000 0.000000 0.000000 0.000000 0.022259
#
#
# Mechanical properties :
#
#
# Convention : Reuss Voigt Hill
#
# Bulk Modulus (GPa) = 43.66936 47.63219 45.65077
# Shear Modulus (GPa) = 24.40721 29.19122 26.79922
#
# Velocity S-wave (km/s) = 3.16587 3.46226 3.31737
# Velocity P-wave (km/s) = 5.59430 5.96179 5.78097
#
# Compressibility (1/GPa) = 0.02289935
#
# Stress axis : x y z
#
# Youngs Moduli (GPa) = 57.25891 80.98496 49.65923
#
# Poissons Ratio (x) = 0.49940 0.40878
# Poissons Ratio (y) = 0.35309 -0.04335
# Poissons Ratio (z) = 0.47134 -0.07070
#
# Static dielectric constant tensor:
#      x y z
#    x 2.010300 0.000000 0.000000 
#    y 0.000000 1.948840 0.000000 
#    z 0.000000 0.000000 1.924930 
# 
# From -- ./inp_files/5477.got.cif
#   From: 2010.05.17/outbox.cif.g08.bks.cpg/sg45_3_cif.got.tgz:5477.got - 2010.06.03 19:51:22.
