data_PCOD9377211
_publ_section_title
;
Structure prediction by ZEFSAII (Michael W. Deem and Ramdas Pophale) SiO2 
 PCOD9377211
Probable space group: I B A 2
;
_chemical_formula_sum "Si O2"
_cell_formula_units_Z 48
_cell_length_a 14.799347
_cell_length_b 9.799522
_cell_length_c 14.658503
_cell_angle_alpha 90.000000
_cell_angle_beta 90.000000
_cell_angle_gamma 90.000000
_cell_volume 2125.871774
_symmetry_space_group_name_H-M "I B A 2"
_symmetry_group_IT_number 45
_symmetry_cell_setting 'orthorhombic'
loop_
_space_group_symop_operation_xyz
x,y,z
-x,-y,z
-x,y,1/2+z
x,-y,1/2+z
1/2+x,1/2+y,1/2+z
1/2-x,1/2-y,1/2+z
1/2-x,1/2+y,z
1/2+x,1/2-y,z
loop_
_atom_site_type_symbol
_atom_site_label
_atom_site_fract_x
_atom_site_fract_y
_atom_site_fract_z
Si Si1 0.137585 0.646209 0.218130
Si Si2 0.691060 0.683686 0.456055
Si Si3 0.037333 0.350162 0.891937
Si Si4 0.214423 0.065275 0.771154
Si Si5 0.615906 0.240083 0.519040
Si Si6 0.106216 0.978066 0.609894
O O1 0.050690 0.670753 0.283497
O O2 0.203882 0.776936 0.236844
O O3 0.190290 0.509149 0.250089
O O4 0.108677 0.649787 0.111962
O O5 0.638671 0.820176 0.426609
O O6 0.679541 0.574292 0.374708
O O7 0.797555 0.693109 0.463696
O O8 0.646337 0.643479 0.551278
O O9 0.000000 0.500000 0.908165
O O10 0.970123 0.258010 0.952250
O O11 0.144477 0.979959 0.710741
O O12 0.640339 0.388197 0.557179
O O13 0.000000 0.000000 0.610869
#
# Coordination Sequence:
#
# PCOD9377211 Si02
#       6
#     8   8   8   8   8   8
#     4  10  23  45  69 104 137 186 234 286 357 416
#     4  11  24  44  72 101 137 187 234 284 361 418
#     4  11  25  44  65 105 143 176 233 288 350 424
#     4  10  23  43  69 101 138 180 238 283 352 422
#     4  11  24  44  73  99 136 184 232 290 345 423
#     4  11  23  45  68 102 139 180 238 286 349 421
#
# _framework density 22.578973000000001
#
# number of rings (size 3 to 8) (size 9 to 14) (size 15 to 20)
#    0.000    1.333    3.333    1.000    7.000    1.333 
#    3.000    5.000    0.000    0.000    0.000    0.000 
#    0.000    0.000    0.000    0.000    0.000    0.000 
#
# Total GULP energy -133930.835660 kJ/mol
# GULP energy per Si atom -5580.451486 kJ/mol
# Density = 2.252758 g / cm^3
# Si number density = 22.578973 Si / 1000 Ang^3
#
#
#
# Elastic Constant Matrix: (Units=GPa)
#
#
# Indices 1 2 3 4 5 6 
#
# 1 67.0684 2.8471 46.8290 0.0000 0.0000 0.0000
# 2 2.8471 46.9465 17.2577 0.0000 0.0000 0.0000
# 3 46.8290 17.2577 119.1156 0.0000 0.0000 0.0000
# 4 0.0000 0.0000 0.0000 16.8783 0.0000 0.0000
# 5 0.0000 0.0000 0.0000 0.0000 39.3857 0.0000
# 6 0.0000 0.0000 0.0000 0.0000 0.0000 27.8866
#
#
#
# Elastic Compliance Matrix: (Units=1/GPa)
#
#
# Indices 1 2 3 4 5 6 
#
# 1 0.020700 0.001834 -0.008404 0.000000 0.000000 0.000000
# 2 0.001834 0.022662 -0.004004 0.000000 0.000000 0.000000
# 3 -0.008404 -0.004004 0.012279 0.000000 0.000000 0.000000
# 4 0.000000 0.000000 0.000000 0.059248 0.000000 0.000000
# 5 0.000000 0.000000 0.000000 0.000000 0.025390 0.000000
# 6 0.000000 0.000000 0.000000 0.000000 0.000000 0.035859
#
#
# Mechanical properties :
#
#
# Convention : Reuss Voigt Hill
#
# Bulk Modulus (GPa) = 28.99164 40.77756 34.88460
# Shear Modulus (GPa) = 23.94827 27.90991 25.92909
#
# Velocity S-wave (km/s) = 3.26029 3.51964 3.39244
# Velocity P-wave (km/s) = 5.20006 5.88356 5.55234
#
# Compressibility (1/GPa) = 0.03449271
#
# Stress axis : x y z
#
# Youngs Moduli (GPa) = 48.30924 44.12749 81.43883
#
# Poissons Ratio (x) = -0.08092 0.68439
# Poissons Ratio (y) = -0.08859 0.32610
# Poissons Ratio (z) = 0.40597 0.17670
#
# Static dielectric constant tensor:
#      x y z
#    x 1.792070 0.000000 0.000000 
#    y 0.000000 1.847320 0.000000 
#    z 0.000000 0.000000 1.899190 
# 
# From -- ./inp_files/6491.got.cif
#   From: 2010.05.17/outbox.cif.g08.bks.cpg/sg45_4_cif.got.tgz:6491.got - 2010.06.03 19:51:22.
