data_PCOD9377900
_publ_section_title
;
Structure prediction by ZEFSAII (Michael W. Deem and Ramdas Pophale) SiO2 
 PCOD9377900
Probable space group: I M A 2
;
_chemical_formula_sum "Si O2"
_cell_formula_units_Z 64
_cell_length_a 7.790296
_cell_length_b 21.135446
_cell_length_c 20.669429
_cell_angle_alpha 90.000000
_cell_angle_beta 90.000000
_cell_angle_gamma 90.000000
_cell_volume 3403.250018
_symmetry_space_group_name_H-M "I M A 2"
_symmetry_group_IT_number 46
_symmetry_cell_setting 'orthorhombic'
loop_
_space_group_symop_operation_xyz
x,y,z
-x,-y,z
1/2-x,y,z
1/2+x,-y,z
1/2+x,1/2+y,1/2+z
1/2-x,1/2-y,1/2+z
-x,1/2+y,1/2+z
x,1/2-y,1/2+z
loop_
_atom_site_type_symbol
_atom_site_label
_atom_site_fract_x
_atom_site_fract_y
_atom_site_fract_z
Si Si1 0.956164 0.070428 0.186720
Si Si2 0.046449 0.428846 0.276498
Si Si3 0.954888 0.310265 0.190639
Si Si4 0.960033 0.231827 0.553186
Si Si5 0.453580 0.130101 0.908791
Si Si6 0.538738 0.188705 0.272728
Si Si7 0.043262 0.879749 0.050763
Si Si8 0.549177 0.276216 0.912331
O O1 0.750000 0.075989 0.184351
O O2 0.016314 0.126244 0.234153
O O3 0.020463 0.082444 0.113325
O O4 0.000000 0.000000 0.208338
O O5 0.250000 0.425379 0.279765
O O6 0.979907 0.410278 0.348199
O O7 0.000000 0.500000 0.258889
O O8 0.988924 0.375940 0.225902
O O9 0.750000 0.302161 0.186973
O O10 0.019738 0.304172 0.117191
O O11 0.018167 0.251447 0.234028
O O12 0.750000 0.230038 0.551201
O O13 0.006611 0.305957 0.559505
O O14 0.023601 0.208121 0.483298
O O15 0.250000 0.139554 0.901970
O O16 0.536130 0.199912 0.906711
O O17 0.485003 0.100427 0.979351
O O18 0.750000 0.189471 0.273615
O O19 0.477317 0.193785 0.346759
O O20 0.250000 0.881984 0.050357
O O21 0.750000 0.293172 0.913795
#
# Coordination Sequence:
#
# PCOD9377900 Si02
#       8
#     8   8   8   8   8   8   8   8
#     4  10  20  34  50  73 104 137 174 213 250 294
#     4  11  24  38  51  72 102 135 170 208 253 303
#     4  10  17  31  55  78  99 128 167 212 256 295
#     4   8  14  26  49  78 100 122 161 208 248 292
#     4  10  20  32  47  72 104 131 162 207 252 293
#     4   9  16  29  53  78  99 131 174 211 246 296
#     4   9  17  31  50  70  98 137 175 203 236 295
#     4   9  16  29  52  77  99 131 171 204 243 298
#
# _framework density 18.805553
#
# number of rings (size 3 to 8) (size 9 to 14) (size 15 to 20)
#    0.000    2.500    2.500    1.500    0.000    2.500 
#    0.000    6.250    0.000    0.750    0.000    1.750 
#    0.000    0.000    0.000    0.000    0.000    0.000 
#
# Total GULP energy -178465.281430 kJ/mol
# GULP energy per Si atom -5577.040045 kJ/mol
# Density = 1.876275 g / cm^3
# Si number density = 18.805553 Si / 1000 Ang^3
#
#
#
# Elastic Constant Matrix: (Units=GPa)
#
#
# Indices 1 2 3 4 5 6 
#
# 1 21.1202 -6.6520 10.6298 0.0000 0.0000 0.0000
# 2 -6.6520 104.3431 86.5643 0.0000 0.0000 0.0000
# 3 10.6298 86.5643 177.5335 0.0000 0.0000 0.0000
# 4 0.0000 0.0000 0.0000 26.0341 0.0000 0.0000
# 5 0.0000 0.0000 0.0000 0.0000 4.7991 0.0000
# 6 0.0000 0.0000 0.0000 0.0000 0.0000 16.3959
#
#
#
# Elastic Compliance Matrix: (Units=1/GPa)
#
#
# Indices 1 2 3 4 5 6 
#
# 1 0.054856 0.010449 -0.008379 0.000000 0.000000 0.000000
# 2 0.010449 0.018084 -0.009443 0.000000 0.000000 0.000000
# 3 -0.008379 -0.009443 0.010739 0.000000 0.000000 0.000000
# 4 0.000000 0.000000 0.000000 0.038411 0.000000 0.000000
# 5 0.000000 0.000000 0.000000 0.000000 0.208371 0.000000
# 6 0.000000 0.000000 0.000000 0.000000 0.000000 0.060991
#
#
# Mechanical properties :
#
#
# Convention : Reuss Voigt Hill
#
# Bulk Modulus (GPa) = 14.50714 53.78679 34.14696
# Shear Modulus (GPa) = 11.65018 23.60945 17.62982
#
# Velocity S-wave (km/s) = 2.49169 3.54708 3.06515
# Velocity P-wave (km/s) = 4.00113 6.74087 5.54294
#
# Compressibility (1/GPa) = 0.06893158
#
# Stress axis : x y z
#
# Youngs Moduli (GPa) = 18.22945 55.29685 93.11870
#
# Poissons Ratio (x) = -0.57778 0.78026
# Poissons Ratio (y) = -0.19047 0.87935
# Poissons Ratio (z) = 0.15275 0.52219
#
# Static dielectric constant tensor:
#      x y z
#    x 1.691840 0.000000 0.000000 
#    y 0.000000 1.598900 0.000000 
#    z 0.000000 0.000000 1.699930 
# 
# From -- ./inp_files/21296.got.cif
#   From: 2010.05.17/outbox.cif.g08.bks.cpg/sg46_11_cif.got.tgz:21296.got - 2010.06.03 19:58:25.
