data_PCOD9377158
_publ_section_title
;
Structure prediction by ZEFSAII (Michael W. Deem and Ramdas Pophale) SiO2 
 PCOD9377158
Probable space group: I B A 2
;
_chemical_formula_sum "Si O2"
_cell_formula_units_Z 36
_cell_length_a 5.329269
_cell_length_b 12.597503
_cell_length_c 22.228636
_cell_angle_alpha 90.000000
_cell_angle_beta 90.000000
_cell_angle_gamma 90.000000
_cell_volume 1492.330197
_symmetry_space_group_name_H-M "I B A 2"
_symmetry_group_IT_number 45
_symmetry_cell_setting 'orthorhombic'
loop_
_space_group_symop_operation_xyz
x,y,z
-x,-y,z
-x,y,1/2+z
x,-y,1/2+z
1/2+x,1/2+y,1/2+z
1/2-x,1/2-y,1/2+z
1/2-x,1/2+y,z
1/2+x,1/2-y,z
loop_
_atom_site_type_symbol
_atom_site_label
_atom_site_fract_x
_atom_site_fract_y
_atom_site_fract_z
Si Si1 0.699886 0.810069 0.033970
Si Si2 0.000000 0.000000 0.378559
Si Si3 0.500000 0.000000 0.796972
Si Si4 0.079499 0.677189 0.696233
Si Si5 0.373141 0.276451 0.901974
Si Si6 0.000000 0.500000 0.598404
O O1 0.957619 0.757526 0.055209
O O2 0.679494 0.930702 0.055370
O O3 0.665786 0.792747 0.962027
O O4 0.070516 0.102423 0.417143
O O5 0.751860 0.008219 0.337389
O O6 0.528841 0.897957 0.753792
O O7 0.831657 0.751971 0.694149
O O8 0.105689 0.590331 0.642575
O O9 0.113508 0.266121 0.867491
#
# Coordination Sequence:
#
# PCOD9377158 Si02
#       6
#     8   4   4   8   8   4
#     4  10  23  40  62  93 129 173 215 263 314 375
#     4  12  24  42  66  96 130 174 218 262 324 380
#     4  11  26  42  69  98 126 170 217 269 326 386
#     4  11  25  45  68  99 131 164 214 272 325 391
#     4  10  23  40  61  92 129 171 219 265 310 374
#     4  11  24  42  69  98 132 172 215 259 328 388
#
# _framework density 24.123348
#
# number of rings (size 3 to 8) (size 9 to 14) (size 15 to 20)
#    0.000    1.333    0.000    4.000    0.000   17.778 
#    0.000    0.000    0.000    0.000    0.000    0.000 
#    0.000    0.000    0.000    0.000    0.000    0.000 
#
# Total GULP energy -100517.461691 kJ/mol
# GULP energy per Si atom -5584.303427 kJ/mol
# Density = 2.406844 g / cm^3
# Si number density = 24.123348 Si / 1000 Ang^3
#
#
#
# Elastic Constant Matrix: (Units=GPa)
#
#
# Indices 1 2 3 4 5 6 
#
# 1 221.3266 66.3390 28.7626 0.0000 0.0000 0.0000
# 2 66.3390 159.8857 53.9229 0.0000 0.0000 0.0000
# 3 28.7626 53.9229 87.9996 0.0000 0.0000 0.0000
# 4 0.0000 0.0000 0.0000 59.8237 0.0000 0.0000
# 5 0.0000 0.0000 0.0000 0.0000 19.3917 0.0000
# 6 0.0000 0.0000 0.0000 0.0000 0.0000 36.1753
#
#
#
# Elastic Compliance Matrix: (Units=1/GPa)
#
#
# Indices 1 2 3 4 5 6 
#
# 1 0.005176 -0.001988 -0.000474 0.000000 0.000000 0.000000
# 2 -0.001988 0.008647 -0.004649 0.000000 0.000000 0.000000
# 3 -0.000474 -0.004649 0.014367 0.000000 0.000000 0.000000
# 4 0.000000 0.000000 0.000000 0.016716 0.000000 0.000000
# 5 0.000000 0.000000 0.000000 0.000000 0.051568 0.000000
# 6 0.000000 0.000000 0.000000 0.000000 0.000000 0.027643
#
#
# Mechanical properties :
#
#
# Convention : Reuss Voigt Hill
#
# Bulk Modulus (GPa) = 71.58557 85.25120 78.41839
# Shear Modulus (GPa) = 34.96648 44.42397 39.69522
#
# Velocity S-wave (km/s) = 3.81134 4.29597 4.06089
# Velocity P-wave (km/s) = 7.00769 7.74748 7.38685
#
# Compressibility (1/GPa) = 0.01396929
#
# Stress axis : x y z
#
# Youngs Moduli (GPa) = 193.21680 115.64596 69.60294
#
# Poissons Ratio (x) = 0.22987 0.03297
# Poissons Ratio (y) = 0.38405 0.32358
# Poissons Ratio (z) = 0.09152 0.53763
#
# Static dielectric constant tensor:
#      x y z
#    x 1.954520 0.000000 0.000000 
#    y 0.000000 1.893590 0.000000 
#    z 0.000000 0.000000 2.004100 
# 
# From -- ./inp_files/9392.got.cif
#   From: 2010.05.17/outbox.cif.g08.bks.cpg/sg45_5_cif.got.tgz:9392.got - 2010.06.03 19:51:22.
