data_PCOD9377091
_publ_section_title
;
Structure prediction by ZEFSAII (Michael W. Deem and Ramdas Pophale) SiO2 
 PCOD9377091
Probable space group: I B A 2
;
_chemical_formula_sum "Si O2"
_cell_formula_units_Z 64
_cell_length_a 14.448913
_cell_length_b 21.434726
_cell_length_c 8.290205
_cell_angle_alpha 90.000000
_cell_angle_beta 90.000000
_cell_angle_gamma 90.000000
_cell_volume 2567.546882
_symmetry_space_group_name_H-M "I B A 2"
_symmetry_group_IT_number 45
_symmetry_cell_setting 'orthorhombic'
loop_
_space_group_symop_operation_xyz
x,y,z
-x,-y,z
-x,y,1/2+z
x,-y,1/2+z
1/2+x,1/2+y,1/2+z
1/2-x,1/2-y,1/2+z
1/2-x,1/2+y,z
1/2+x,1/2-y,z
loop_
_atom_site_type_symbol
_atom_site_label
_atom_site_fract_x
_atom_site_fract_y
_atom_site_fract_z
Si Si1 0.615923 0.743727 0.631170
Si Si2 0.876229 0.588108 0.567706
Si Si3 0.367437 0.416210 0.271203
Si Si4 0.771417 0.896403 0.331166
Si Si5 0.964846 0.707392 0.459648
Si Si6 0.936144 0.097768 0.626765
Si Si7 0.687259 0.296148 0.606216
Si Si8 0.184149 0.513103 0.781223
O O1 0.574013 0.782827 0.780856
O O2 0.571378 0.773608 0.471657
O O3 0.580412 0.672787 0.635218
O O4 0.724971 0.752855 0.637602
O O5 0.788038 0.616213 0.666617
O O6 0.951728 0.640854 0.545095
O O7 0.886065 0.522376 0.661967
O O8 0.854783 0.568520 0.385962
O O9 0.458574 0.420562 0.160459
O O10 0.398599 0.425547 0.455621
O O11 0.332904 0.344706 0.249151
O O12 0.282509 0.459979 0.221375
O O13 0.870647 0.921911 0.274031
O O14 0.786147 0.840670 0.453903
O O15 0.713040 0.954746 0.396640
O O16 0.902249 0.756469 0.560046
#
# Coordination Sequence:
#
# PCOD9377091 Si02
#       8
#     8   8   8   8   8   8   8   8
#     4  12  28  44  73 107 153 186 234 295 372 437
#     4  10  23  45  73  98 142 179 246 297 353 433
#     4  12  24  42  68 100 149 194 244 293 361 429
#     4  10  23  43  69 101 140 189 238 289 353 428
#     4  12  27  46  70 111 144 191 238 302 364 434
#     4  12  23  42  66 108 151 188 238 298 353 449
#     4  12  26  43  74 103 144 193 234 298 371 421
#     4  10  22  43  68 101 134 190 240 290 347 426
#
# _framework density 24.926518000000002
#
# number of rings (size 3 to 8) (size 9 to 14) (size 15 to 20)
#    0.750    0.000    3.750    3.750    3.500    0.500 
#    0.000    1.250    0.000   12.750    0.000    0.000 
#    0.000    0.000    0.000    0.000    0.000    0.000 
#
# Total GULP energy -178833.229196 kJ/mol
# GULP energy per Si atom -5588.538412 kJ/mol
# Density = 2.486978 g / cm^3
# Si number density = 24.926518 Si / 1000 Ang^3
#
#
#
# Elastic Constant Matrix: (Units=GPa)
#
#
# Indices 1 2 3 4 5 6 
#
# 1 48.9232 12.2716 -8.9789 0.0000 0.0000 0.0000
# 2 12.2716 91.7172 9.1227 0.0000 0.0000 0.0000
# 3 -8.9789 9.1227 60.7885 0.0000 0.0000 0.0000
# 4 0.0000 0.0000 0.0000 38.0761 0.0000 0.0000
# 5 0.0000 0.0000 0.0000 0.0000 14.5529 0.0000
# 6 0.0000 0.0000 0.0000 0.0000 0.0000 33.6681
#
#
#
# Elastic Compliance Matrix: (Units=1/GPa)
#
#
# Indices 1 2 3 4 5 6 
#
# 1 0.021957 -0.003310 0.003740 0.000000 0.000000 0.000000
# 2 -0.003310 0.011567 -0.002225 0.000000 0.000000 0.000000
# 3 0.003740 -0.002225 0.017337 0.000000 0.000000 0.000000
# 4 0.000000 0.000000 0.000000 0.026263 0.000000 0.000000
# 5 0.000000 0.000000 0.000000 0.000000 0.068715 0.000000
# 6 0.000000 0.000000 0.000000 0.000000 0.000000 0.029702
#
#
# Mechanical properties :
#
#
# Convention : Reuss Voigt Hill
#
# Bulk Modulus (GPa) = 21.15442 25.13995 23.14718
# Shear Modulus (GPa) = 25.65592 29.86034 27.75813
#
# Velocity S-wave (km/s) = 3.21169 3.46487 3.34068
# Velocity P-wave (km/s) = 4.71788 5.11025 4.91798
#
# Compressibility (1/GPa) = 0.04727145
#
# Stress axis : x y z
#
# Youngs Moduli (GPa) = 45.54398 86.45125 57.68083
#
# Poissons Ratio (x) = 0.28613 -0.21572
# Poissons Ratio (y) = 0.15074 0.12833
# Poissons Ratio (z) = -0.17033 0.19234
#
# Static dielectric constant tensor:
#      x y z
#    x 1.912490 0.000000 0.000000 
#    y 0.000000 1.998640 0.000000 
#    z 0.000000 0.000000 2.021810 
# 
# From -- ./inp_files/1919.got.cif
#   From: 2010.05.17/outbox.cif.g08.bks.cpg/sg45_1_cif.got.tgz:1919.got - 2010.06.03 19:51:22.
