data_PCOD9377800
_publ_section_title
;
Structure prediction by ZEFSAII (Michael W. Deem and Ramdas Pophale) SiO2 
 PCOD9377800
Probable space group: I M A 2
;
_chemical_formula_sum "Si O2"
_cell_formula_units_Z 60
_cell_length_a 25.760549
_cell_length_b 23.855763
_cell_length_c 5.392029
_cell_angle_alpha 90.000000
_cell_angle_beta 90.000000
_cell_angle_gamma 90.000000
_cell_volume 3313.604300
_symmetry_space_group_name_H-M "I M A 2"
_symmetry_group_IT_number 46
_symmetry_cell_setting 'orthorhombic'
loop_
_space_group_symop_operation_xyz
x,y,z
-x,-y,z
1/2-x,y,z
1/2+x,-y,z
1/2+x,1/2+y,1/2+z
1/2-x,1/2-y,1/2+z
-x,1/2+y,1/2+z
x,1/2-y,1/2+z
loop_
_atom_site_type_symbol
_atom_site_label
_atom_site_fract_x
_atom_site_fract_y
_atom_site_fract_z
Si Si1 0.356073 0.310534 0.816070
Si Si2 0.940476 0.478293 0.339533
Si Si3 0.558394 0.973759 0.339121
Si Si4 0.969384 0.657105 0.833463
Si Si5 0.535609 0.346994 0.333774
Si Si6 0.857361 0.283575 0.270973
Si Si7 0.750000 0.213340 0.891884
Si Si8 0.188058 0.316373 0.316091
O O1 0.417941 0.305110 0.824872
O O2 0.337895 0.340018 0.564176
O O3 0.329063 0.249343 0.812732
O O4 0.335590 0.340289 0.063356
O O5 0.916111 0.501704 0.591610
O O6 0.946825 0.411846 0.332981
O O7 0.000000 0.500000 0.343585
O O8 0.916316 0.504148 0.091610
O O9 0.551227 0.907193 0.330753
O O10 0.500000 0.000000 0.343011
O O11 0.004226 0.664981 0.587668
O O12 0.001054 0.664513 0.088720
O O13 0.588224 0.312467 0.318676
O O14 0.855163 0.235042 0.483305
O O15 0.804475 0.317023 0.337765
O O16 0.750000 0.238503 0.171861
O O17 0.250000 0.319797 0.322465
#
# Coordination Sequence:
#
# PCOD9377800 Si02
#       8
#     8   8   8   8   8   8   4   8
#     4  10  20  32  48  76  95 128 168 210 263 293
#     4  10  16  30  49  67  94 132 181 207 235 280
#     4  10  16  30  48  66  93 135 171 202 244 274
#     4  12  21  32  47  72 114 135 160 210 244 324
#     4  12  21  33  50  73 105 148 171 201 248 319
#     4  10  21  38  51  77 101 137 182 206 260 292
#     4   8  16  34  60  68  94 124 166 238 242 284
#     4  10  19  38  57  68  92 129 182 227 249 286
#
# _framework density 18.10717
#
# number of rings (size 3 to 8) (size 9 to 14) (size 15 to 20)
#    0.000    1.600    5.333    3.600    0.000    0.000 
#   14.400    0.000    0.000    0.000    0.000    0.000 
#   16.000    0.000    0.000    0.000    0.000    0.000 
#
# Total GULP energy -167144.431813 kJ/mol
# GULP energy per Si atom -5571.481060 kJ/mol
# Density = 1.806596 g / cm^3
# Si number density = 18.107170 Si / 1000 Ang^3
#
#
#
# Elastic Constant Matrix: (Units=GPa)
#
#
# Indices 1 2 3 4 5 6 
#
# 1 101.6801 11.1267 46.7740 0.0000 0.0000 0.0000
# 2 11.1267 5.8431 5.9603 0.0000 0.0000 0.0000
# 3 46.7740 5.9603 229.9289 0.0000 0.0000 0.0000
# 4 0.0000 0.0000 0.0000 6.9688 0.0000 0.0000
# 5 0.0000 0.0000 0.0000 0.0000 16.6857 0.0000
# 6 0.0000 0.0000 0.0000 0.0000 0.0000 -4.0413
#
#
#
# Elastic Compliance Matrix: (Units=1/GPa)
#
#
# Indices 1 2 3 4 5 6 
#
# 1 0.013354 -0.023273 -0.002113 0.000000 0.000000 0.000000
# 2 -0.023273 0.216353 -0.000874 0.000000 0.000000 0.000000
# 3 -0.002113 -0.000874 0.004802 0.000000 0.000000 0.000000
# 4 0.000000 0.000000 0.000000 0.143497 0.000000 0.000000
# 5 0.000000 0.000000 0.000000 0.000000 0.059931 0.000000
# 6 0.000000 0.000000 0.000000 0.000000 0.000000 -0.247448
#
#
# Mechanical properties :
#
#
# Convention : Reuss Voigt Hill
#
# Bulk Modulus (GPa) = 5.49489 51.68600 28.59044
# Shear Modulus (GPa) = 16.46519 22.16205 19.31362
#
# Velocity S-wave (km/s) = 3.01876 3.50228 3.26947
# Velocity P-wave (km/s) = 3.89767 6.70530 5.48420
#
# Compressibility (1/GPa) = 0.18198741
#
# Stress axis : x y z
#
# Youngs Moduli (GPa) = 74.88608 4.62208 208.25904
#
# Poissons Ratio (x) = 0.10757 0.44010
# Poissons Ratio (y) = 1.74283 0.18200
# Poissons Ratio (z) = 0.15825 0.00404
#
# Static dielectric constant tensor:
#      x y z
#    x 1.610200 0.000000 0.000000 
#    y 0.000000 1.605460 0.000000 
#    z 0.000000 0.000000 -0.180070 
# 
# From -- ./inp_files/2162.got.cif
#   From: 2010.05.17/outbox.cif.g08.bks.cpg/sg46_2_cif.got.tgz:2162.got - 2010.06.03 19:58:25.
