data_PCOD9377480
_publ_section_title
;
Structure prediction by ZEFSAII (Michael W. Deem and Ramdas Pophale) SiO2 
 PCOD9377480
Probable space group: I B A 2
;
_chemical_formula_sum "Si O2"
_cell_formula_units_Z 32
_cell_length_a 13.859667
_cell_length_b 9.110530
_cell_length_c 9.370194
_cell_angle_alpha 90.000000
_cell_angle_beta 90.000000
_cell_angle_gamma 90.000000
_cell_volume 1183.164202
_symmetry_space_group_name_H-M "I B A 2"
_symmetry_group_IT_number 45
_symmetry_cell_setting 'orthorhombic'
loop_
_space_group_symop_operation_xyz
x,y,z
-x,-y,z
-x,y,1/2+z
x,-y,1/2+z
1/2+x,1/2+y,1/2+z
1/2-x,1/2-y,1/2+z
1/2-x,1/2+y,z
1/2+x,1/2-y,z
loop_
_atom_site_type_symbol
_atom_site_label
_atom_site_fract_x
_atom_site_fract_y
_atom_site_fract_z
Si Si1 0.860614 0.274940 0.858000
Si Si2 0.710205 0.645403 0.156102
Si Si3 0.949515 0.139026 0.377865
Si Si4 0.103128 0.443035 0.013916
O O1 0.771466 0.244296 0.756105
O O2 0.960145 0.213080 0.798411
O O3 0.839362 0.212433 0.016034
O O4 0.878869 0.447982 0.881592
O O5 0.630697 0.586787 0.266170
O O6 0.797027 0.544279 0.099471
O O7 0.908348 0.271939 0.472104
O O8 0.000000 0.000000 0.453454
O O9 0.000000 0.500000 0.074564
#
# Coordination Sequence:
#
# PCOD9377480 Si02
#       4
#     8   8   8   8
#     4  11  29  48  84 115 166 216 281 339 423 501
#     4  12  27  49  84 121 162 216 280 352 412 498
#     4  11  28  51  79 123 165 209 275 345 422 494
#     4  10  26  52  82 117 164 222 272 339 420 507
#
# _framework density 27.046119000000001
#
# number of rings (size 3 to 8) (size 9 to 14) (size 15 to 20)
#    0.000    1.000    2.500    0.000   17.500    2.000 
#    0.000    0.000    0.000    0.000    0.000    0.000 
#    0.000    0.000    0.000    0.000    0.000    0.000 
#
# Total GULP energy -89508.299437 kJ/mol
# GULP energy per Si atom -5594.268715 kJ/mol
# Density = 2.698456 g / cm^3
# Si number density = 27.046119 Si / 1000 Ang^3
#
#
#
# Elastic Constant Matrix: (Units=GPa)
#
#
# Indices 1 2 3 4 5 6 
#
# 1 194.2137 57.6755 51.8095 0.0000 0.0000 0.0000
# 2 57.6755 148.8283 31.4811 0.0000 0.0000 0.0000
# 3 51.8095 31.4811 62.3213 0.0000 0.0000 0.0000
# 4 0.0000 0.0000 0.0000 22.5133 0.0000 0.0000
# 5 0.0000 0.0000 0.0000 0.0000 54.9305 0.0000
# 6 0.0000 0.0000 0.0000 0.0000 0.0000 48.9965
#
#
#
# Elastic Compliance Matrix: (Units=1/GPa)
#
#
# Indices 1 2 3 4 5 6 
#
# 1 0.006960 -0.001650 -0.004953 0.000000 0.000000 0.000000
# 2 -0.001650 0.007914 -0.002626 0.000000 0.000000 0.000000
# 3 -0.004953 -0.002626 0.021490 0.000000 0.000000 0.000000
# 4 0.000000 0.000000 0.000000 0.044418 0.000000 0.000000
# 5 0.000000 0.000000 0.000000 0.000000 0.018205 0.000000
# 6 0.000000 0.000000 0.000000 0.000000 0.000000 0.020410
#
#
# Mechanical properties :
#
#
# Convention : Reuss Voigt Hill
#
# Bulk Modulus (GPa) = 55.84555 76.36616 66.10585
# Shear Modulus (GPa) = 34.76495 42.91455 38.83975
#
# Velocity S-wave (km/s) = 3.58913 3.98768 3.79364
# Velocity P-wave (km/s) = 6.15377 7.03555 6.60938
#
# Compressibility (1/GPa) = 0.01790653
#
# Stress axis : x y z
#
# Youngs Moduli (GPa) = 143.67617 126.35911 46.53326
#
# Poissons Ratio (x) = 0.20844 0.23047
# Poissons Ratio (y) = 0.23701 0.12221
# Poissons Ratio (z) = 0.71161 0.33186
#
# Static dielectric constant tensor:
#      x y z
#    x 2.055850 0.000000 0.000000 
#    y 0.000000 2.172110 0.000000 
#    z 0.000000 0.000000 2.131750 
# 
# From -- ./inp_files/3967.got.cif
#   From: 2010.05.17/outbox.cif.g08.bks.cpg/sg45_2_cif.got.tgz:3967.got - 2010.06.03 19:51:22.
