data_PCOD9377250
_publ_section_title
;
Structure prediction by ZEFSAII (Michael W. Deem and Ramdas Pophale) SiO2 
 PCOD9377250
Probable space group: I B A 2
;
_chemical_formula_sum "Si O2"
_cell_formula_units_Z 56
_cell_length_a 14.512686
_cell_length_b 11.570382
_cell_length_c 14.155761
_cell_angle_alpha 90.000000
_cell_angle_beta 90.000000
_cell_angle_gamma 90.000000
_cell_volume 2376.997462
_symmetry_space_group_name_H-M "I B A 2"
_symmetry_group_IT_number 45
_symmetry_cell_setting 'orthorhombic'
loop_
_space_group_symop_operation_xyz
x,y,z
-x,-y,z
-x,y,1/2+z
x,-y,1/2+z
1/2+x,1/2+y,1/2+z
1/2-x,1/2-y,1/2+z
1/2-x,1/2+y,z
1/2+x,1/2-y,z
loop_
_atom_site_type_symbol
_atom_site_label
_atom_site_fract_x
_atom_site_fract_y
_atom_site_fract_z
Si Si1 0.500000 0.500000 0.313130
Si Si2 0.178841 0.640881 0.885132
Si Si3 0.567363 0.778781 0.537135
Si Si4 0.367754 0.445940 0.455885
Si Si5 0.500000 0.000000 0.928426
Si Si6 0.872158 0.969783 0.666070
Si Si7 0.857761 0.252735 0.082849
Si Si8 0.708610 0.705921 0.700379
O O1 0.422453 0.531500 0.388375
O O2 0.449280 0.418924 0.237104
O O3 0.262816 0.559626 0.921187
O O4 0.081799 0.571268 0.875615
O O5 0.206260 0.713495 0.792659
O O6 0.168676 0.725773 0.975329
O O7 0.593914 0.686275 0.454936
O O8 0.553795 0.905548 0.492717
O O9 0.467247 0.750402 0.581246
O O10 0.643386 0.760917 0.618178
O O11 0.393095 0.481370 0.562214
O O12 0.835665 0.080121 0.720688
O O13 0.814919 0.860626 0.632815
O O14 0.804832 0.338997 0.151949
#
# Coordination Sequence:
#
# PCOD9377250 Si02
#       8
#     4   8   8   8   4   8   8   8
#     4  12  24  40  72 108 132 192 238 300 384 440
#     4  11  25  47  74 108 146 199 244 305 365 458
#     4  10  23  46  72  99 146 195 237 306 371 439
#     4  11  24  45  69 108 147 177 249 309 366 444
#     4  10  26  46  76 106 150 206 238 296 394 438
#     4  11  24  42  70 100 140 191 235 305 375 429
#     4  11  23  47  69 100 152 184 242 312 366 434
#     4  11  25  45  68 107 141 188 254 300 363 452
#
# _framework density 23.559134
#
# number of rings (size 3 to 8) (size 9 to 14) (size 15 to 20)
#    0.000    1.143    2.857    3.857    8.000    0.571 
#    2.571    0.000    0.000    0.000    0.000    0.000 
#    0.000    0.000    0.000    0.000    0.000    0.000 
#
# Total GULP energy -155867.912618 kJ/mol
# GULP energy per Si atom -5566.711165 kJ/mol
# Density = 2.350551 g / cm^3
# Si number density = 23.559134 Si / 1000 Ang^3
#
#
#
# Elastic Constant Matrix: (Units=GPa)
#
#
# Indices 1 2 3 4 5 6 
#
# 1 155.3188 5.5122 49.7782 0.0000 0.0000 0.0000
# 2 5.5122 25.9692 21.4909 0.0000 0.0000 0.0000
# 3 49.7782 21.4909 137.4751 0.0000 0.0000 0.0000
# 4 0.0000 0.0000 0.0000 20.5072 0.0000 0.0000
# 5 0.0000 0.0000 0.0000 0.0000 66.4599 0.0000
# 6 0.0000 0.0000 0.0000 0.0000 0.0000 13.8299
#
#
#
# Elastic Compliance Matrix: (Units=1/GPa)
#
#
# Indices 1 2 3 4 5 6 
#
# 1 0.007296 0.000732 -0.002756 0.000000 0.000000 0.000000
# 2 0.000732 0.044302 -0.007191 0.000000 0.000000 0.000000
# 3 -0.002756 -0.007191 0.009396 0.000000 0.000000 0.000000
# 4 0.000000 0.000000 0.000000 0.048763 0.000000 0.000000
# 5 0.000000 0.000000 0.000000 0.000000 0.015047 0.000000
# 6 0.000000 0.000000 0.000000 0.000000 0.000000 0.072307
#
#
# Mechanical properties :
#
#
# Convention : Reuss Voigt Hill
#
# Bulk Modulus (GPa) = 23.49347 52.48062 37.98704
# Shear Modulus (GPa) = 21.76478 36.29151 29.02815
#
# Velocity S-wave (km/s) = 3.04276 3.92911 3.51399
# Velocity P-wave (km/s) = 4.72634 6.55044 5.71168
#
# Compressibility (1/GPa) = 0.04256502
#
# Stress axis : x y z
#
# Youngs Moduli (GPa) = 137.06683 22.57210 106.42683
#
# Poissons Ratio (x) = -0.01653 0.29333
# Poissons Ratio (y) = -0.10038 0.76529
# Poissons Ratio (z) = 0.37778 0.16231
#
# Static dielectric constant tensor:
#      x y z
#    x -0.101620 0.000000 0.000000 
#    y 0.000000 2.324840 0.000000 
#    z 0.000000 0.000000 1.866860 
# 
# From -- ./inp_files/6544.got.cif
#   From: 2010.05.17/outbox.cif.g08.bks.cpg/sg45_4_cif.got.tgz:6544.got - 2010.06.03 19:51:22.
