data_PCOD9377732
_publ_section_title
;
Structure prediction by ZEFSAII (Michael W. Deem and Ramdas Pophale) SiO2 
 PCOD9377732
Probable space group: I B A 2
;
_chemical_formula_sum "Si O2"
_cell_formula_units_Z 32
_cell_length_a 30.000000
_cell_length_b 6.000000
_cell_length_c 18.000000
_cell_angle_alpha 90.000000
_cell_angle_beta 90.000000
_cell_angle_gamma 90.000000
_cell_volume 3240.000000
_symmetry_space_group_name_H-M "I B A 2"
_symmetry_group_IT_number 45
_symmetry_cell_setting 'orthorhombic'
loop_
_space_group_symop_operation_xyz
x,y,z
-x,-y,z
-x,y,1/2+z
x,-y,1/2+z
1/2+x,1/2+y,1/2+z
1/2-x,1/2-y,1/2+z
1/2-x,1/2+y,z
1/2+x,1/2-y,z
loop_
_atom_site_type_symbol
_atom_site_label
_atom_site_fract_x
_atom_site_fract_y
_atom_site_fract_z
Si Si1 0.894445 0.858041 0.497990
Si Si2 0.139332 0.751708 0.767130
Si Si3 0.447630 0.041811 0.271477
Si Si4 0.886659 0.144053 0.366842
Si Si5 0.448814 0.946472 0.598598
Si Si6 0.228468 0.437769 0.332317
Si Si7 0.673652 0.977342 0.461799
Si Si8 0.862472 0.757037 0.094133
O O1 0.933197 0.743707 0.543449
O O2 0.860714 0.681665 0.462467
O O3 0.911223 0.004678 0.430499
O O4 0.866872 0.005444 0.555880
O O5 0.088463 0.660149 0.776195
O O6 0.178722 0.592601 0.797299
O O7 0.147908 0.775962 0.680042
O O8 0.139682 0.983103 0.811036
O O9 0.423822 0.219645 0.323526
O O10 0.446083 0.118291 0.185391
O O11 0.500000 0.000000 0.288964
O O12 0.850706 0.288470 0.412390
O O13 0.500000 0.000000 0.583670
O O14 0.411433 0.139138 0.587246
O O15 0.251582 0.190669 0.314574
O O16 0.218744 0.452005 0.421090
O O17 0.672477 0.886567 0.545879
#
# Coordination Sequence:
#
# PCOD9377732 Si02
#       8
#     8   8   8   8   8   8   8   8
#     4  10  19  36  60  87 114 175 217 266 345 400
#     4  11  22  42  65  96 132 176 222 284 342 404
#     4  10  21  37  61  92 130 175 223 273 335 401
#     4  11  19  36  64  86 133 171 223 280 339 403
#     4   9  19  36  54  85 127 167 218 272 325 403
#     4  12  26  44  73 104 133 178 228 280 354 422
#     4  10  21  42  62  92 127 169 216 273 340 412
#     4   9  21  37  65  89 121 176 221 268 342 402
#
# _framework density 9.8765429999999999
#
# number of rings (size 3 to 8) (size 9 to 14) (size 15 to 20)
#    0.000    1.750    2.500    1.500    1.750    1.000 
#    0.000   20.000    0.000    0.000    0.000    0.000 
#    0.000    0.000    0.000    0.000    0.000    0.000 
#
# Total GULP energy -178290.050243 kJ/mol
# GULP energy per Si atom -5571.564070 kJ/mol
# Density = 0.985406 g / cm^3
# Si number density = 9.876543 Si / 1000 Ang^3
#
#
#
# Elastic Constant Matrix: (Units=GPa)
#
#
# Indices 1 2 3 4 5 6 
#
# 1 34.6230 7.4075 15.9402 0.0000 0.0000 0.0000
# 2 7.4075 86.7587 58.9935 0.0000 0.0000 0.0000
# 3 15.9402 58.9935 82.8550 0.0000 0.0000 0.0000
# 4 0.0000 0.0000 0.0000 20.3827 0.0000 0.0000
# 5 0.0000 0.0000 0.0000 0.0000 26.7811 0.0000
# 6 0.0000 0.0000 0.0000 0.0000 0.0000 16.4147
#
#
#
# Elastic Compliance Matrix: (Units=1/GPa)
#
#
# Indices 1 2 3 4 5 6 
#
# 1 0.032042 0.002822 -0.008174 0.000000 0.000000 0.000000
# 2 0.002822 0.022593 -0.016629 0.000000 0.000000 0.000000
# 3 -0.008174 -0.016629 0.025482 0.000000 0.000000 0.000000
# 4 0.000000 0.000000 0.000000 0.049061 0.000000 0.000000
# 5 0.000000 0.000000 0.000000 0.000000 0.037340 0.000000
# 6 0.000000 0.000000 0.000000 0.000000 0.000000 0.060921
#
#
# Mechanical properties :
#
#
# Convention : Reuss Voigt Hill
#
# Bulk Modulus (GPa) = 27.65878 40.99103 34.32491
# Shear Modulus (GPa) = 17.63974 20.84210 19.24092
#
# Velocity S-wave (km/s) = 2.99157 3.25180 3.12440
# Velocity P-wave (km/s) = 5.09562 5.90726 5.51639
#
# Compressibility (1/GPa) = 0.03615489
#
# Stress axis : x y z
#
# Youngs Moduli (GPa) = 31.20914 44.26245 39.24366
#
# Poissons Ratio (x) = -0.12492 0.32077
# Poissons Ratio (y) = -0.08808 0.65258
# Poissons Ratio (z) = 0.25510 0.73604
#
# Static dielectric constant tensor:
#      x y z
#    x 1.673100 0.000000 0.000000 
#    y 0.000000 1.772830 0.000000 
#    z 0.000000 0.000000 1.715500 
# 
# From -- ./inp_files/8562.got.cif
#   From: 2010.05.17/outbox.ucp.g08.bks.cvg/sg45_5_cif.got.tgz:8562.got - 2010.06.11 16:34:12.
