data_PCOD9377079
_publ_section_title
;
Structure prediction by ZEFSAII (Michael W. Deem and Ramdas Pophale) SiO2 
 PCOD9377079
Probable space group: I B A 2
;
_chemical_formula_sum "Si O2"
_cell_formula_units_Z 64
_cell_length_a 10.284451
_cell_length_b 14.549773
_cell_length_c 21.154290
_cell_angle_alpha 90.000000
_cell_angle_beta 90.000000
_cell_angle_gamma 90.000000
_cell_volume 3165.452381
_symmetry_space_group_name_H-M "I B A 2"
_symmetry_group_IT_number 45
_symmetry_cell_setting 'orthorhombic'
loop_
_space_group_symop_operation_xyz
x,y,z
-x,-y,z
-x,y,1/2+z
x,-y,1/2+z
1/2+x,1/2+y,1/2+z
1/2-x,1/2-y,1/2+z
1/2-x,1/2+y,z
1/2+x,1/2-y,z
loop_
_atom_site_type_symbol
_atom_site_label
_atom_site_fract_x
_atom_site_fract_y
_atom_site_fract_z
Si Si1 0.645329 0.001559 0.788400
Si Si2 0.286499 0.850319 0.887215
Si Si3 0.677336 0.659087 0.318474
Si Si4 0.144091 0.306633 0.590408
Si Si5 0.393242 0.232808 0.513740
Si Si6 0.998958 0.896783 0.934146
Si Si7 0.926116 0.858646 0.679242
Si Si8 0.702623 0.449899 0.165157
O O1 0.654980 0.063301 0.850708
O O2 0.737992 0.045590 0.735483
O O3 0.500000 0.000000 0.763388
O O4 0.693842 0.899309 0.804119
O O5 0.295657 0.762029 0.841218
O O6 0.361157 0.825888 0.951504
O O7 0.138275 0.869244 0.906330
O O8 0.601772 0.610714 0.376044
O O9 0.594701 0.651331 0.254332
O O10 0.259155 0.260137 0.548607
O O11 0.116911 0.235223 0.646971
O O12 0.197392 0.402799 0.617303
O O13 0.006535 0.314133 0.554566
O O14 0.455931 0.327369 0.488313
O O15 0.000000 0.000000 0.958615
O O16 0.074243 0.886508 0.665307
O O17 0.841116 0.944855 0.653428
#
# Coordination Sequence:
#
# PCOD9377079 Si02
#       8
#     8   8   8   8   8   8   8   8
#     4  11  24  41  65 101 137 166 213 276 343 402
#     4  11  23  43  65  96 131 175 215 275 332 395
#     4  10  23  38  67 101 130 166 214 269 334 403
#     4  12  23  46  67  96 132 180 228 279 322 391
#     4  11  26  42  67  94 134 172 235 271 323 393
#     4  11  22  42  71  94 129 173 225 272 331 399
#     4  10  22  42  71  99 128 175 225 267 343 404
#     4  10  23  43  69  97 133 173 220 277 332 406
#
# _framework density 20.218278999999999
#
# number of rings (size 3 to 8) (size 9 to 14) (size 15 to 20)
#    0.000    1.250    3.750    1.500    5.250    3.000 
#    4.500    0.000    0.000    0.000    0.000    0.000 
#    0.000    0.000    0.000    0.000    0.000    0.000 
#
# Total GULP energy -178899.266161 kJ/mol
# GULP energy per Si atom -5590.602068 kJ/mol
# Density = 2.017226 g / cm^3
# Si number density = 20.218279 Si / 1000 Ang^3
#
#
#
# Elastic Constant Matrix: (Units=GPa)
#
#
# Indices 1 2 3 4 5 6 
#
# 1 70.5409 6.7502 -3.6170 0.0000 0.0000 0.0000
# 2 6.7502 22.0218 3.2198 0.0000 0.0000 0.0000
# 3 -3.6170 3.2198 40.7401 0.0000 0.0000 0.0000
# 4 0.0000 0.0000 0.0000 4.6559 0.0000 0.0000
# 5 0.0000 0.0000 0.0000 0.0000 30.5323 0.0000
# 6 0.0000 0.0000 0.0000 0.0000 0.0000 24.7437
#
#
#
# Elastic Compliance Matrix: (Units=1/GPa)
#
#
# Indices 1 2 3 4 5 6 
#
# 1 0.014718 -0.004757 0.001683 0.000000 0.000000 0.000000
# 2 -0.004757 0.047478 -0.004175 0.000000 0.000000 0.000000
# 3 0.001683 -0.004175 0.025025 0.000000 0.000000 0.000000
# 4 0.000000 0.000000 0.000000 0.214783 0.000000 0.000000
# 5 0.000000 0.000000 0.000000 0.000000 0.032752 0.000000
# 6 0.000000 0.000000 0.000000 0.000000 0.000000 0.040414
#
#
# Mechanical properties :
#
#
# Convention : Reuss Voigt Hill
#
# Bulk Modulus (GPa) = 13.75096 16.22322 14.98709
# Shear Modulus (GPa) = 12.07992 20.44969 16.26481
#
# Velocity S-wave (km/s) = 2.44698 3.18377 2.83938
# Velocity P-wave (km/s) = 3.84703 4.64292 4.26359
#
# Compressibility (1/GPa) = 0.07272220
#
# Stress axis : x y z
#
# Youngs Moduli (GPa) = 67.94548 21.06230 39.95976
#
# Poissons Ratio (x) = 0.10020 -0.06724
# Poissons Ratio (y) = 0.32324 0.16682
# Poissons Ratio (z) = -0.11433 0.08793
#
# Static dielectric constant tensor:
#      x y z
#    x 1.709860 0.000000 0.000000 
#    y 0.000000 1.692670 0.000000 
#    z 0.000000 0.000000 1.694880 
# 
# From -- ./inp_files/9597.got.cif
#   From: 2010.05.17/outbox.cif.g08.bks.cpg/sg45_5_cif.got.tgz:9597.got - 2010.06.03 19:51:22.
