data_PCOD9377393
_publ_section_title
;
Structure prediction by ZEFSAII (Michael W. Deem and Ramdas Pophale) SiO2 
 PCOD9377393
Probable space group: I B A 2
;
_chemical_formula_sum "Si O2"
_cell_formula_units_Z 56
_cell_length_a 18.368816
_cell_length_b 14.387979
_cell_length_c 8.128320
_cell_angle_alpha 90.000000
_cell_angle_beta 90.000000
_cell_angle_gamma 90.000000
_cell_volume 2148.234822
_symmetry_space_group_name_H-M "I B A 2"
_symmetry_group_IT_number 45
_symmetry_cell_setting 'orthorhombic'
loop_
_space_group_symop_operation_xyz
x,y,z
-x,-y,z
-x,y,1/2+z
x,-y,1/2+z
1/2+x,1/2+y,1/2+z
1/2-x,1/2-y,1/2+z
1/2-x,1/2+y,z
1/2+x,1/2-y,z
loop_
_atom_site_type_symbol
_atom_site_label
_atom_site_fract_x
_atom_site_fract_y
_atom_site_fract_z
Si Si1 0.951998 0.419862 0.964040
Si Si2 0.803169 0.545803 0.640409
Si Si3 0.838392 0.290738 0.374272
Si Si4 0.898023 0.148734 0.636234
Si Si5 0.586320 0.495758 0.848011
Si Si6 0.499031 0.792676 0.227487
Si Si7 0.273681 0.610713 0.811237
O O1 0.939060 0.327719 0.857176
O O2 0.000000 0.500000 0.881730
O O3 0.880143 0.454452 0.049180
O O4 0.004393 0.375838 0.099185
O O5 0.809952 0.609375 0.806203
O O6 0.782243 0.443273 0.697075
O O7 0.748026 0.584396 0.500769
O O8 0.853437 0.233305 0.547202
O O9 0.781321 0.219787 0.292071
O O10 0.920063 0.288562 0.298694
O O11 0.881612 0.099498 0.811562
O O12 0.976764 0.195952 0.654146
O O13 0.909263 0.057750 0.522738
O O14 0.500000 0.500000 0.809945
O O15 0.646995 0.429716 0.763014
#
# Coordination Sequence:
#
# PCOD9377393 Si02
#       7
#     8   8   8   8   8   8   8
#     4  11  26  47  77 112 148 201 268 328 392 460
#     4  11  28  49  72 114 150 212 256 329 398 474
#     4  10  24  48  73 108 152 199 264 313 391 478
#     4  11  22  44  73 112 152 196 247 331 378 460
#     4  11  24  43  78 112 152 199 254 310 388 467
#     4  11  23  45  77 112 153 190 260 331 387 456
#     4  11  25  50  72 105 159 202 255 322 397 474
#
# _framework density 26.067913999999998
#
# number of rings (size 3 to 8) (size 9 to 14) (size 15 to 20)
#    0.000    1.143    1.429    4.286    6.000    2.286 
#   15.429    0.000    0.000    0.000    0.000    0.000 
#    0.000    0.000    0.000    0.000    0.000    0.000 
#
# Total GULP energy -156045.230555 kJ/mol
# GULP energy per Si atom -5573.043948 kJ/mol
# Density = 2.600858 g / cm^3
# Si number density = 26.067914 Si / 1000 Ang^3
#
#
#
# Elastic Constant Matrix: (Units=GPa)
#
#
# Indices 1 2 3 4 5 6 
#
# 1 93.3168 36.3957 27.3087 0.0000 0.0000 0.0000
# 2 36.3957 113.8611 44.9706 0.0000 0.0000 0.0000
# 3 27.3087 44.9706 83.9673 0.0000 0.0000 0.0000
# 4 0.0000 0.0000 0.0000 48.0838 0.0000 0.0000
# 5 0.0000 0.0000 0.0000 0.0000 19.5766 0.0000
# 6 0.0000 0.0000 0.0000 0.0000 0.0000 50.1132
#
#
#
# Elastic Compliance Matrix: (Units=1/GPa)
#
#
# Indices 1 2 3 4 5 6 
#
# 1 0.012633 -0.003063 -0.002468 0.000000 0.000000 0.000000
# 2 -0.003063 0.011882 -0.005367 0.000000 0.000000 0.000000
# 3 -0.002468 -0.005367 0.015587 0.000000 0.000000 0.000000
# 4 0.000000 0.000000 0.000000 0.020797 0.000000 0.000000
# 5 0.000000 0.000000 0.000000 0.000000 0.051081 0.000000
# 6 0.000000 0.000000 0.000000 0.000000 0.000000 0.019955
#
#
# Mechanical properties :
#
#
# Convention : Reuss Voigt Hill
#
# Bulk Modulus (GPa) = 54.63216 56.49945 55.56581
# Shear Modulus (GPa) = 31.28257 35.71940 33.50099
#
# Velocity S-wave (km/s) = 3.46792 3.70570 3.58878
# Velocity P-wave (km/s) = 6.08592 6.32697 6.20762
#
# Compressibility (1/GPa) = 0.01830424
#
# Stress axis : x y z
#
# Youngs Moduli (GPa) = 79.15621 84.16318 64.15781
#
# Poissons Ratio (x) = 0.25783 0.15834
# Poissons Ratio (y) = 0.24249 0.34435
# Poissons Ratio (z) = 0.19536 0.45172
#
# Static dielectric constant tensor:
#      x y z
#    x 2.041080 0.000000 0.000000 
#    y 0.000000 2.020560 0.000000 
#    z 0.000000 0.000000 2.323710 
# 
# From -- ./inp_files/2329.got.cif
#   From: 2010.05.17/outbox.cif.g08.bks.cpg/sg45_2_cif.got.tgz:2329.got - 2010.06.03 19:51:22.
