data_PCOD9377291
_publ_section_title
;
Structure prediction by ZEFSAII (Michael W. Deem and Ramdas Pophale) SiO2 
 PCOD9377291
Probable space group: I B A 2
;
_chemical_formula_sum "Si O2"
_cell_formula_units_Z 64
_cell_length_a 15.699681
_cell_length_b 11.612258
_cell_length_c 14.386045
_cell_angle_alpha 90.000000
_cell_angle_beta 90.000000
_cell_angle_gamma 90.000000
_cell_volume 2622.701828
_symmetry_space_group_name_H-M "I B A 2"
_symmetry_group_IT_number 45
_symmetry_cell_setting 'orthorhombic'
loop_
_space_group_symop_operation_xyz
x,y,z
-x,-y,z
-x,y,1/2+z
x,-y,1/2+z
1/2+x,1/2+y,1/2+z
1/2-x,1/2-y,1/2+z
1/2-x,1/2+y,z
1/2+x,1/2-y,z
loop_
_atom_site_type_symbol
_atom_site_label
_atom_site_fract_x
_atom_site_fract_y
_atom_site_fract_z
Si Si1 0.079497 0.919210 0.689400
Si Si2 0.254659 0.528860 0.609096
Si Si3 0.960730 0.128141 0.485287
Si Si4 0.889381 0.269955 0.228852
Si Si5 0.938946 0.753097 0.330453
Si Si6 0.199169 0.725120 0.039489
Si Si7 0.217089 0.855838 0.373803
Si Si8 0.851681 0.480279 0.786740
O O1 0.057421 0.850602 0.593788
O O2 0.118572 0.844128 0.773473
O O3 0.153529 0.006633 0.655398
O O4 0.000000 0.000000 0.716146
O O5 0.237202 0.403780 0.561894
O O6 0.258312 0.649712 0.555799
O O7 0.180372 0.545809 0.683384
O O8 0.870705 0.134012 0.430837
O O9 0.028000 0.209981 0.432048
O O10 0.000000 0.000000 0.479092
O O11 0.874725 0.273664 0.118268
O O12 0.811362 0.203747 0.277941
O O13 0.888373 0.394168 0.278437
O O14 0.978855 0.222850 0.262992
O O15 0.913709 0.620862 0.319117
O O16 0.210240 0.717042 0.928187
O O17 0.267213 0.972234 0.350129
#
# Coordination Sequence:
#
# PCOD9377291 Si02
#       8
#     8   8   8   8   8   8   8   8
#     4  11  23  39  69  98 134 180 227 297 356 420
#     4  11  23  43  66 101 138 180 242 282 364 420
#     4  10  24  42  65 101 136 174 232 291 356 435
#     4  10  24  45  66  97 143 180 241 285 362 434
#     4  11  24  44  67  96 136 187 231 295 359 426
#     4  11  23  42  68  98 142 185 229 301 348 431
#     4  11  24  41  68 101 136 180 233 294 357 422
#     4  11  25  40  68  96 135 188 229 294 351 439
#
# _framework density 24.402318000000001
#
# number of rings (size 3 to 8) (size 9 to 14) (size 15 to 20)
#    0.000    1.250    2.500    2.250    7.000    3.000 
#    0.000    0.000    0.000    3.000    0.000    0.000 
#    0.000    0.000    0.000    0.000    0.000    0.000 
#
# Total GULP energy -178526.649450 kJ/mol
# GULP energy per Si atom -5578.957795 kJ/mol
# Density = 2.434678 g / cm^3
# Si number density = 24.402318 Si / 1000 Ang^3
#
#
#
# Elastic Constant Matrix: (Units=GPa)
#
#
# Indices 1 2 3 4 5 6 
#
# 1 39.5838 7.5668 10.5351 0.0000 0.0000 0.0000
# 2 7.5668 132.7258 38.5397 0.0000 0.0000 0.0000
# 3 10.5351 38.5397 122.1942 0.0000 0.0000 0.0000
# 4 0.0000 0.0000 0.0000 27.3892 0.0000 0.0000
# 5 0.0000 0.0000 0.0000 0.0000 30.7407 0.0000
# 6 0.0000 0.0000 0.0000 0.0000 0.0000 30.1187
#
#
#
# Elastic Compliance Matrix: (Units=1/GPa)
#
#
# Indices 1 2 3 4 5 6 
#
# 1 0.025956 -0.000914 -0.001950 0.000000 0.000000 0.000000
# 2 -0.000914 0.008326 -0.002547 0.000000 0.000000 0.000000
# 3 -0.001950 -0.002547 0.009155 0.000000 0.000000 0.000000
# 4 0.000000 0.000000 0.000000 0.036511 0.000000 0.000000
# 5 0.000000 0.000000 0.000000 0.000000 0.032530 0.000000
# 6 0.000000 0.000000 0.000000 0.000000 0.000000 0.033202
#
#
# Mechanical properties :
#
#
# Convention : Reuss Voigt Hill
#
# Bulk Modulus (GPa) = 30.65938 45.30965 37.98452
# Shear Modulus (GPa) = 29.87325 33.50721 31.69023
#
# Velocity S-wave (km/s) = 3.50265 3.70958 3.60760
# Velocity P-wave (km/s) = 5.38047 6.07915 5.74045
#
# Compressibility (1/GPa) = 0.03261645
#
# Stress axis : x y z
#
# Youngs Moduli (GPa) = 38.52617 120.10476 109.22781
#
# Poissons Ratio (x) = 0.10974 0.21296
# Poissons Ratio (y) = 0.03520 0.27823
# Poissons Ratio (z) = 0.07511 0.30594
#
# Static dielectric constant tensor:
#      x y z
#    x 2.072860 0.000000 0.000000 
#    y 0.000000 2.021710 0.000000 
#    z 0.000000 0.000000 2.029670 
# 
# From -- ./inp_files/6831.got.cif
#   From: 2010.05.17/outbox.cif.g08.bks.cpg/sg45_4_cif.got.tgz:6831.got - 2010.06.03 19:51:22.
