data_PCOD9377866
_publ_section_title
;
Structure prediction by ZEFSAII (Michael W. Deem and Ramdas Pophale) SiO2 
 PCOD9377866
Probable space group: I M A 2
;
_chemical_formula_sum "Si O2"
_cell_formula_units_Z 56
_cell_length_a 8.458041
_cell_length_b 22.997364
_cell_length_c 18.401038
_cell_angle_alpha 90.000000
_cell_angle_beta 90.000000
_cell_angle_gamma 90.000000
_cell_volume 3579.234620
_symmetry_space_group_name_H-M "I M A 2"
_symmetry_group_IT_number 46
_symmetry_cell_setting 'orthorhombic'
loop_
_space_group_symop_operation_xyz
x,y,z
-x,-y,z
1/2-x,y,z
1/2+x,-y,z
1/2+x,1/2+y,1/2+z
1/2-x,1/2-y,1/2+z
-x,1/2+y,1/2+z
x,1/2-y,1/2+z
loop_
_atom_site_type_symbol
_atom_site_label
_atom_site_fract_x
_atom_site_fract_y
_atom_site_fract_z
Si Si1 0.441039 0.434493 0.423880
Si Si2 0.442524 0.151313 0.049646
Si Si3 0.936501 0.816607 0.203252
Si Si4 0.439374 0.282708 0.005481
Si Si5 0.936370 0.192526 0.653796
Si Si6 0.936904 0.277598 0.848684
Si Si7 0.560573 0.848082 0.796643
O O1 0.500000 0.500000 0.423259
O O2 0.250000 0.434367 0.425093
O O3 0.496159 0.398491 0.494791
O O4 0.489687 0.398020 0.352640
O O5 0.250000 0.151323 0.050231
O O6 0.492974 0.146063 0.133855
O O7 0.488917 0.215059 0.019381
O O8 0.750000 0.825359 0.213881
O O9 0.966816 0.750642 0.175487
O O10 0.021362 0.819006 0.280610
O O11 0.250000 0.285399 0.010027
O O12 0.514314 0.319564 0.071175
O O13 0.495742 0.298857 0.925292
O O14 0.750000 0.204795 0.658037
O O15 0.982945 0.147872 0.717095
O O16 0.750000 0.270222 0.853155
O O17 0.012607 0.214472 0.830564
O O18 0.750000 0.849028 0.789572
#
# Coordination Sequence:
#
# PCOD9377866 Si02
#       7
#     8   8   8   8   8   8   8
#     4  10  20  33  47  65  86 114 155 195 227 262
#     4   8  15  29  45  59  79 111 150 185 214 255
#     4   9  16  27  43  59  80 116 151 175 212 266
#     4  10  17  29  45  61  85 119 152 175 211 268
#     4  10  18  27  40  63  88 109 142 184 223 259
#     4  11  19  26  40  65  92 114 143 184 223 257
#     4  10  18  31  46  58  82 120 154 181 219 271
#
# _framework density 15.645804
#
# number of rings (size 3 to 8) (size 9 to 14) (size 15 to 20)
#    0.000    2.286    1.429    6.429    0.000    1.143 
#    0.000    1.429    0.000    0.000    0.000    0.000 
#    0.000    1.143    0.000    7.143    0.000    4.857 
#
# Total GULP energy -155999.817480 kJ/mol
# GULP energy per Si atom -5571.422053 kJ/mol
# Density = 1.561019 g / cm^3
# Si number density = 15.645804 Si / 1000 Ang^3
#
#
#
# Elastic Constant Matrix: (Units=GPa)
#
#
# Indices 1 2 3 4 5 6 
#
# 1 30.1485 6.4188 19.4605 0.0000 0.0000 0.0000
# 2 6.4188 48.5678 44.5634 0.0000 0.0000 0.0000
# 3 19.4605 44.5634 163.4365 0.0000 0.0000 0.0000
# 4 0.0000 0.0000 0.0000 14.1919 0.0000 0.0000
# 5 0.0000 0.0000 0.0000 0.0000 4.7423 0.0000
# 6 0.0000 0.0000 0.0000 0.0000 0.0000 14.4843
#
#
#
# Elastic Compliance Matrix: (Units=1/GPa)
#
#
# Indices 1 2 3 4 5 6 
#
# 1 0.035975 -0.001099 -0.003984 0.000000 0.000000 0.000000
# 2 -0.001099 0.027493 -0.007366 0.000000 0.000000 0.000000
# 3 -0.003984 -0.007366 0.008601 0.000000 0.000000 0.000000
# 4 0.000000 0.000000 0.000000 0.070462 0.000000 0.000000
# 5 0.000000 0.000000 0.000000 0.000000 0.210870 0.000000
# 6 0.000000 0.000000 0.000000 0.000000 0.000000 0.069040
#
#
# Mechanical properties :
#
#
# Convention : Reuss Voigt Hill
#
# Bulk Modulus (GPa) = 21.19892 42.55981 31.87936
# Shear Modulus (GPa) = 10.79765 18.13103 14.46434
#
# Velocity S-wave (km/s) = 2.62988 3.40787 3.04384
# Velocity P-wave (km/s) = 4.77498 6.53803 5.72478
#
# Compressibility (1/GPa) = 0.04717221
#
# Stress axis : x y z
#
# Youngs Moduli (GPa) = 27.79732 36.37240 116.26169
#
# Poissons Ratio (x) = 0.03998 0.46317
# Poissons Ratio (y) = 0.03055 0.85634
# Poissons Ratio (z) = 0.11074 0.26790
#
# Static dielectric constant tensor:
#      x y z
#    x 1.525250 0.000000 0.000000 
#    y 0.000000 1.481870 0.000000 
#    z 0.000000 0.000000 1.584230 
# 
# From -- ./inp_files/18454.got.cif
#   From: 2010.05.17/outbox.cif.g08.bks.cpg/sg46_10_cif.got.tgz:18454.got - 2010.06.03 19:58:25.
