data_PCOD9377241
_publ_section_title
;
Structure prediction by ZEFSAII (Michael W. Deem and Ramdas Pophale) SiO2 
 PCOD9377241
Probable space group: I B A 2
;
_chemical_formula_sum "Si O2"
_cell_formula_units_Z 60
_cell_length_a 11.204053
_cell_length_b 24.053762
_cell_length_c 10.546220
_cell_angle_alpha 90.000000
_cell_angle_beta 90.000000
_cell_angle_gamma 90.000000
_cell_volume 2842.202328
_symmetry_space_group_name_H-M "I B A 2"
_symmetry_group_IT_number 45
_symmetry_cell_setting 'orthorhombic'
loop_
_space_group_symop_operation_xyz
x,y,z
-x,-y,z
-x,y,1/2+z
x,-y,1/2+z
1/2+x,1/2+y,1/2+z
1/2-x,1/2-y,1/2+z
1/2-x,1/2+y,z
1/2+x,1/2-y,z
loop_
_atom_site_type_symbol
_atom_site_label
_atom_site_fract_x
_atom_site_fract_y
_atom_site_fract_z
Si Si1 0.239933 0.322185 0.141170
Si Si2 0.835043 0.891371 0.881476
Si Si3 0.959942 0.817129 0.466920
Si Si4 0.727100 0.893243 0.154463
Si Si5 0.879888 0.211017 0.706268
Si Si6 0.786362 0.490331 0.771463
Si Si7 0.500000 0.000000 0.949284
Si Si8 0.033000 0.403522 0.133824
O O1 0.292750 0.352347 0.265926
O O2 0.215151 0.258730 0.177086
O O3 0.115460 0.351490 0.104320
O O4 0.331708 0.329058 0.026791
O O5 0.818664 0.953971 0.831486
O O6 0.965238 0.871397 0.924449
O O7 0.750603 0.884104 0.004360
O O8 0.945933 0.780166 0.340394
O O9 0.033391 0.791225 0.584574
O O10 0.814971 0.848698 0.217684
O O11 0.589986 0.883417 0.197026
O O12 0.754657 0.957428 0.189115
O O13 0.878511 0.512619 0.875616
O O14 0.875918 0.446445 0.702476
O O15 0.480100 0.056096 0.026873
#
# Coordination Sequence:
#
# PCOD9377241 Si02
#       8
#     8   8   8   8   8   8   4   8
#     4  11  27  44  72 106 137 199 239 302 375 439
#     4  10  23  45  70  94 148 185 241 307 359 445
#     4  11  25  51  71 100 147 189 250 303 363 444
#     4  11  22  41  68 105 138 191 236 306 373 439
#     4  11  28  46  75 100 145 189 250 305 364 448
#     4  11  20  38  65 100 138 185 237 297 372 426
#     4  12  18  36  62 102 146 174 230 310 358 440
#     4  11  22  37  64 101 143 177 231 301 373 436
#
# _framework density 21.110389999999999
#
# number of rings (size 3 to 8) (size 9 to 14) (size 15 to 20)
#    0.000    1.067    5.333    0.000    7.467    0.000 
#    0.000    0.667    5.867    0.000    0.000    0.000 
#    0.000    0.000    0.000    0.000    0.000    0.000 
#
# Total GULP energy -167375.139055 kJ/mol
# GULP energy per Si atom -5579.171302 kJ/mol
# Density = 2.106234 g / cm^3
# Si number density = 21.110390 Si / 1000 Ang^3
#
#
#
# Elastic Constant Matrix: (Units=GPa)
#
#
# Indices 1 2 3 4 5 6 
#
# 1 90.7069 39.2040 33.9507 0.0000 0.0000 0.0000
# 2 39.2040 56.9487 24.3536 0.0000 0.0000 0.0000
# 3 33.9507 24.3536 109.1316 0.0000 0.0000 0.0000
# 4 0.0000 0.0000 0.0000 8.3883 0.0000 0.0000
# 5 0.0000 0.0000 0.0000 0.0000 43.2223 0.0000
# 6 0.0000 0.0000 0.0000 0.0000 0.0000 25.4199
#
#
#
# Elastic Compliance Matrix: (Units=1/GPa)
#
#
# Indices 1 2 3 4 5 6 
#
# 1 0.016467 -0.010110 -0.002867 0.000000 0.000000 0.000000
# 2 -0.010110 0.025619 -0.002572 0.000000 0.000000 0.000000
# 3 -0.002867 -0.002572 0.010629 0.000000 0.000000 0.000000
# 4 0.000000 0.000000 0.000000 0.119214 0.000000 0.000000
# 5 0.000000 0.000000 0.000000 0.000000 0.023136 0.000000
# 6 0.000000 0.000000 0.000000 0.000000 0.000000 0.039339
#
#
# Mechanical properties :
#
#
# Convention : Reuss Voigt Hill
#
# Bulk Modulus (GPa) = 46.25790 50.20044 48.22917
# Shear Modulus (GPa) = 18.33457 26.02471 22.17964
#
# Velocity S-wave (km/s) = 2.95025 3.51492 3.24489
# Velocity P-wave (km/s) = 5.79355 6.34858 6.07741
#
# Compressibility (1/GPa) = 0.02161793
#
# Stress axis : x y z
#
# Youngs Moduli (GPa) = 60.72674 39.03279 94.08200
#
# Poissons Ratio (x) = 0.39463 0.26971
# Poissons Ratio (y) = 0.61396 0.24197
# Poissons Ratio (z) = 0.17409 0.10039
#
# Static dielectric constant tensor:
#      x y z
#    x 1.769520 0.000000 0.000000 
#    y 0.000000 1.687910 0.000000 
#    z 0.000000 0.000000 1.830430 
# 
# From -- ./inp_files/3839.got.cif
#   From: 2010.05.17/outbox.cif.g08.bks.cpg/sg45_2_cif.got.tgz:3839.got - 2010.06.03 19:51:22.
