data_PCOD9377518
_publ_section_title
;
Structure prediction by ZEFSAII (Michael W. Deem and Ramdas Pophale) SiO2 
 PCOD9377518
Probable space group: I B A 2
;
_chemical_formula_sum "Si O2"
_cell_formula_units_Z 64
_cell_length_a 18.550779
_cell_length_b 10.711906
_cell_length_c 14.119269
_cell_angle_alpha 90.000000
_cell_angle_beta 90.000000
_cell_angle_gamma 90.000000
_cell_volume 2805.699256
_symmetry_space_group_name_H-M "I B A 2"
_symmetry_group_IT_number 45
_symmetry_cell_setting 'orthorhombic'
loop_
_space_group_symop_operation_xyz
x,y,z
-x,-y,z
-x,y,1/2+z
x,-y,1/2+z
1/2+x,1/2+y,1/2+z
1/2-x,1/2-y,1/2+z
1/2-x,1/2+y,z
1/2+x,1/2-y,z
loop_
_atom_site_type_symbol
_atom_site_label
_atom_site_fract_x
_atom_site_fract_y
_atom_site_fract_z
Si Si1 0.019469 0.257837 0.360310
Si Si2 0.742290 0.770242 0.265627
Si Si3 0.572177 0.421145 0.987926
Si Si4 0.102640 0.806012 0.678407
Si Si5 0.360244 0.066546 0.921606
Si Si6 0.214571 0.977705 0.375346
Si Si7 0.065081 0.434183 0.065774
Si Si8 0.098763 0.410911 0.746782
O O1 0.058860 0.176411 0.277052
O O2 0.085027 0.316999 0.422355
O O3 0.960320 0.197529 0.430036
O O4 0.970172 0.354053 0.300267
O O5 0.814614 0.771477 0.202227
O O6 0.721439 0.627742 0.293345
O O7 0.665957 0.820727 0.229084
O O8 0.764307 0.881230 0.342604
O O9 0.500000 0.500000 0.991394
O O10 0.637578 0.473660 0.925235
O O11 0.599189 0.408828 0.096264
O O12 0.064534 0.693430 0.620885
O O13 0.276402 0.085835 0.941148
O O14 0.371914 0.021129 0.813891
O O15 0.374837 0.946621 0.987044
O O16 0.077172 0.536030 0.146637
O O17 0.000000 0.500000 0.010226
#
# Coordination Sequence:
#
# PCOD9377518 Si02
#       8
#     8   8   8   8   8   8   8   8
#     4  12  22  45  72  99 146 191 246 310 380 461
#     4  11  24  48  73 104 145 199 252 309 385 458
#     4  12  29  48  70 107 151 208 257 316 386 478
#     4  12  25  45  70 105 148 193 253 315 380 458
#     4  11  23  40  70 103 140 189 233 312 368 445
#     4  11  25  49  74 106 147 202 256 306 390 459
#     4  12  22  39  68 108 138 179 244 310 377 440
#     4  11  21  40  67 106 138 179 238 304 379 436
#
# _framework density 22.810711999999999
#
# number of rings (size 3 to 8) (size 9 to 14) (size 15 to 20)
#    0.000    0.500    5.000    4.125    3.500    1.500 
#    0.000    0.000    0.000    0.000    0.000    0.000 
#    0.000    0.000    0.000    0.000    0.000    0.000 
#
# Total GULP energy -178205.692824 kJ/mol
# GULP energy per Si atom -5568.927901 kJ/mol
# Density = 2.275879 g / cm^3
# Si number density = 22.810712 Si / 1000 Ang^3
#
#
#
# Elastic Constant Matrix: (Units=GPa)
#
#
# Indices 1 2 3 4 5 6 
#
# 1 82.1058 -17.3351 22.5388 0.0000 0.0000 0.0000
# 2 -17.3351 29.2615 12.7539 0.0000 0.0000 0.0000
# 3 22.5388 12.7539 84.4161 0.0000 0.0000 0.0000
# 4 0.0000 0.0000 0.0000 8.6537 0.0000 0.0000
# 5 0.0000 0.0000 0.0000 0.0000 18.8125 0.0000
# 6 0.0000 0.0000 0.0000 0.0000 0.0000 39.2306
#
#
#
# Elastic Compliance Matrix: (Units=1/GPa)
#
#
# Indices 1 2 3 4 5 6 
#
# 1 0.016570 0.012572 -0.006324 0.000000 0.000000 0.000000
# 2 0.012572 0.046123 -0.010325 0.000000 0.000000 0.000000
# 3 -0.006324 -0.010325 0.015094 0.000000 0.000000 0.000000
# 4 0.000000 0.000000 0.000000 0.115557 0.000000 0.000000
# 5 0.000000 0.000000 0.000000 0.000000 0.053156 0.000000
# 6 0.000000 0.000000 0.000000 0.000000 0.000000 0.025490
#
#
# Mechanical properties :
#
#
# Convention : Reuss Voigt Hill
#
# Bulk Modulus (GPa) = 14.36071 25.74428 20.05250
# Shear Modulus (GPa) = 16.48235 25.19443 20.83839
#
# Velocity S-wave (km/s) = 2.69098 3.32701 3.02575
# Velocity P-wave (km/s) = 3.99555 5.10580 4.58441
#
# Compressibility (1/GPa) = 0.06963442
#
# Stress axis : x y z
#
# Youngs Moduli (GPa) = 60.35116 21.68115 66.24975
#
# Poissons Ratio (x) = -0.27258 0.41893
# Poissons Ratio (y) = -0.75876 0.68404
# Poissons Ratio (z) = 0.38163 0.22386
#
# Static dielectric constant tensor:
#      x y z
#    x 1.980290 0.000000 0.000000 
#    y 0.000000 2.061030 0.000000 
#    z 0.000000 0.000000 1.838120 
# 
# From -- ./inp_files/6833.got.cif
#   From: 2010.05.17/outbox.cif.g08.bks.cpg/sg45_4_cif.got.tgz:6833.got - 2010.06.03 19:51:22.
