data_PCOD9377613
_publ_section_title
;
Structure prediction by ZEFSAII (Michael W. Deem and Ramdas Pophale) SiO2 
 PCOD9377613
Probable space group: I B A 2
;
_chemical_formula_sum "Si O2"
_cell_formula_units_Z 48
_cell_length_a 8.485745
_cell_length_b 16.501694
_cell_length_c 14.821410
_cell_angle_alpha 90.000000
_cell_angle_beta 90.000000
_cell_angle_gamma 90.000000
_cell_volume 2075.429701
_symmetry_space_group_name_H-M "I B A 2"
_symmetry_group_IT_number 45
_symmetry_cell_setting 'orthorhombic'
loop_
_space_group_symop_operation_xyz
x,y,z
-x,-y,z
-x,y,1/2+z
x,-y,1/2+z
1/2+x,1/2+y,1/2+z
1/2-x,1/2-y,1/2+z
1/2-x,1/2+y,z
1/2+x,1/2-y,z
loop_
_atom_site_type_symbol
_atom_site_label
_atom_site_fract_x
_atom_site_fract_y
_atom_site_fract_z
Si Si1 0.608905 0.920958 0.502460
Si Si2 0.124479 0.210397 0.170753
Si Si3 0.192386 0.674302 0.987691
Si Si4 0.281224 0.627503 0.676006
Si Si5 0.809291 0.831813 0.363220
Si Si6 0.115737 0.925609 0.363207
O O1 0.488044 0.845014 0.510476
O O2 0.731056 0.919120 0.585822
O O3 0.705839 0.900381 0.411959
O O4 0.500000 0.000000 0.504527
O O5 0.145545 0.305575 0.192033
O O6 0.215544 0.171206 0.256180
O O7 0.947140 0.175791 0.164033
O O8 0.212081 0.192286 0.077800
O O9 0.210989 0.748253 0.917601
O O10 0.259156 0.594022 0.939255
O O11 0.306333 0.573322 0.764536
O O12 0.994608 0.850662 0.369351
O O13 0.000000 0.000000 0.377035
#
# Coordination Sequence:
#
# PCOD9377613 Si02
#       6
#     8   8   8   8   8   8
#     4  12  27  44  70 109 153 188 239 306 378 446
#     4  11  24  42  75 104 139 186 255 310 353 440
#     4  12  24  43  74 103 142 194 244 306 361 448
#     4  11  24  44  71 106 143 189 247 302 375 432
#     4  11  24  45  71 103 140 192 249 303 363 441
#     4  11  25  46  72 105 148 192 239 304 380 442
#
# _framework density 23.127742000000001
#
# number of rings (size 3 to 8) (size 9 to 14) (size 15 to 20)
#    0.000    0.667    3.333    4.000    2.333    4.000 
#    0.000    3.333    0.000    0.000    0.000    0.000 
#    0.000    0.000    0.000    0.000    0.000    0.000 
#
# Total GULP energy -134270.769230 kJ/mol
# GULP energy per Si atom -5594.615385 kJ/mol
# Density = 2.307510 g / cm^3
# Si number density = 23.127742 Si / 1000 Ang^3
#
#
#
# Elastic Constant Matrix: (Units=GPa)
#
#
# Indices 1 2 3 4 5 6 
#
# 1 99.2991 32.8364 64.5546 0.0000 0.0000 0.0000
# 2 32.8364 84.1722 55.2852 0.0000 0.0000 0.0000
# 3 64.5546 55.2852 164.5747 0.0000 0.0000 0.0000
# 4 0.0000 0.0000 0.0000 22.0971 0.0000 0.0000
# 5 0.0000 0.0000 0.0000 0.0000 43.1421 0.0000
# 6 0.0000 0.0000 0.0000 0.0000 0.0000 40.5037
#
#
#
# Elastic Compliance Matrix: (Units=1/GPa)
#
#
# Indices 1 2 3 4 5 6 
#
# 1 0.013873 -0.002358 -0.004650 0.000000 0.000000 0.000000
# 2 -0.002358 0.015645 -0.004330 0.000000 0.000000 0.000000
# 3 -0.004650 -0.004330 0.009355 0.000000 0.000000 0.000000
# 4 0.000000 0.000000 0.000000 0.045255 0.000000 0.000000
# 5 0.000000 0.000000 0.000000 0.000000 0.023179 0.000000
# 6 0.000000 0.000000 0.000000 0.000000 0.000000 0.024689
#
#
# Mechanical properties :
#
#
# Convention : Reuss Voigt Hill
#
# Bulk Modulus (GPa) = 61.74312 72.59982 67.17147
# Shear Modulus (GPa) = 31.23618 34.17324 32.70471
#
# Velocity S-wave (km/s) = 3.67903 3.84811 3.76452
# Velocity P-wave (km/s) = 6.69339 7.15562 6.92836
#
# Compressibility (1/GPa) = 0.01619614
#
# Stress axis : x y z
#
# Youngs Moduli (GPa) = 72.08204 63.91958 106.89704
#
# Poissons Ratio (x) = 0.15073 0.49702
# Poissons Ratio (y) = 0.16998 0.46292
# Poissons Ratio (z) = 0.33515 0.27680
#
# Static dielectric constant tensor:
#      x y z
#    x 1.853240 0.000000 0.000000 
#    y 0.000000 1.945270 0.000000 
#    z 0.000000 0.000000 1.876030 
# 
# From -- ./inp_files/5605.got.cif
#   From: 2010.05.17/outbox.cif.g08.bks.cpg/sg45_3_cif.got.tgz:5605.got - 2010.06.03 19:51:22.
