data_PCOD9377856
_publ_section_title
;
Structure prediction by ZEFSAII (Michael W. Deem and Ramdas Pophale) SiO2 
 PCOD9377856
Probable space group: I M A 2
;
_chemical_formula_sum "Si O2"
_cell_formula_units_Z 56
_cell_length_a 17.604014
_cell_length_b 25.763892
_cell_length_c 7.525899
_cell_angle_alpha 90.000000
_cell_angle_beta 90.000000
_cell_angle_gamma 90.000000
_cell_volume 3413.355803
_symmetry_space_group_name_H-M "I M A 2"
_symmetry_group_IT_number 46
_symmetry_cell_setting 'orthorhombic'
loop_
_space_group_symop_operation_xyz
x,y,z
-x,-y,z
1/2-x,y,z
1/2+x,-y,z
1/2+x,1/2+y,1/2+z
1/2-x,1/2-y,1/2+z
-x,1/2+y,1/2+z
x,1/2-y,1/2+z
loop_
_atom_site_type_symbol
_atom_site_label
_atom_site_fract_x
_atom_site_fract_y
_atom_site_fract_z
Si Si1 0.950026 0.946995 0.783330
Si Si2 0.080334 0.475756 0.909304
Si Si3 0.840646 0.511075 0.566223
Si Si4 0.662916 0.186851 0.489796
Si Si5 0.840342 0.077825 0.555685
Si Si6 0.594444 0.094677 0.947034
Si Si7 0.662633 0.299338 0.413825
O O1 0.005991 0.908826 0.890552
O O2 0.933870 0.936964 0.575185
O O3 0.000000 0.000000 0.780101
O O4 0.874895 0.960458 0.893485
O O5 0.127369 0.458787 0.738177
O O6 0.000000 0.500000 0.850551
O O7 0.126217 0.524363 0.989305
O O8 0.750000 0.507027 0.564447
O O9 0.878046 0.452992 0.569722
O O10 0.750000 0.186858 0.421078
O O11 0.629305 0.129733 0.456612
O O12 0.628489 0.241699 0.432784
O O13 0.665909 0.190069 0.703759
O O14 0.750000 0.077820 0.536064
O O15 0.861137 0.082914 0.762567
O O16 0.619289 0.152416 0.002451
O O17 0.750000 0.298359 0.481023
#
# Coordination Sequence:
#
# PCOD9377856 Si02
#       7
#     8   8   8   8   8   8   8
#     4   9  18  33  46  63  90 120 153 195 239 279
#     4  11  19  31  46  64  91 123 159 193 237 281
#     4  11  21  30  45  67  88 117 159 196 230 281
#     4   8  16  26  38  59  86 117 151 192 225 254
#     4  10  17  28  45  63  88 124 163 191 225 272
#     4  10  17  31  46  63  86 126 162 195 238 277
#     4   9  16  27  43  61  89 123 160 198 228 264
#
# _framework density 16.406141999999999
#
# number of rings (size 3 to 8) (size 9 to 14) (size 15 to 20)
#    0.000    2.286    4.286    3.857    0.000    1.714 
#    0.000    2.857    0.000    0.000    0.000    0.000 
#    0.000    0.000    0.000   12.857    0.857    0.143 
#
# Total GULP energy -155908.408986 kJ/mol
# GULP energy per Si atom -5568.157464 kJ/mol
# Density = 1.636880 g / cm^3
# Si number density = 16.406142 Si / 1000 Ang^3
#
#
#
# Elastic Constant Matrix: (Units=GPa)
#
#
# Indices 1 2 3 4 5 6 
#
# 1 70.5160 10.8261 19.4867 0.0000 0.0000 0.0000
# 2 10.8261 32.1941 -13.5266 0.0000 0.0000 0.0000
# 3 19.4867 -13.5266 47.4150 0.0000 0.0000 0.0000
# 4 0.0000 0.0000 0.0000 10.1950 0.0000 0.0000
# 5 0.0000 0.0000 0.0000 0.0000 15.7154 0.0000
# 6 0.0000 0.0000 0.0000 0.0000 0.0000 15.1456
#
#
#
# Elastic Compliance Matrix: (Units=1/GPa)
#
#
# Indices 1 2 3 4 5 6 
#
# 1 0.018856 -0.010904 -0.010860 0.000000 0.000000 0.000000
# 2 -0.010904 0.041597 0.016348 0.000000 0.000000 0.000000
# 3 -0.010860 0.016348 0.030218 0.000000 0.000000 0.000000
# 4 0.000000 0.000000 0.000000 0.098087 0.000000 0.000000
# 5 0.000000 0.000000 0.000000 0.000000 0.063632 0.000000
# 6 0.000000 0.000000 0.000000 0.000000 0.000000 0.066026
#
#
# Mechanical properties :
#
#
# Convention : Reuss Voigt Hill
#
# Bulk Modulus (GPa) = 12.52524 20.41084 16.46804
# Shear Modulus (GPa) = 14.05043 17.10047 15.57545
#
# Velocity S-wave (km/s) = 2.92963 3.23200 3.08452
# Velocity P-wave (km/s) = 4.36975 5.13768 4.76920
#
# Compressibility (1/GPa) = 0.07983881
#
# Stress axis : x y z
#
# Youngs Moduli (GPa) = 53.03226 24.04011 33.09332
#
# Poissons Ratio (x) = 0.26213 0.35941
# Poissons Ratio (y) = 0.57826 -0.54102
# Poissons Ratio (z) = 0.57595 -0.39301
#
# Static dielectric constant tensor:
#      x y z
#    x 1.563690 0.000000 0.000000 
#    y 0.000000 1.600250 0.000000 
#    z 0.000000 0.000000 1.656020 
# 
# From -- ./inp_files/6182.got.cif
#   From: 2010.05.17/outbox.cif.g08.bks.cpg/sg46_4_cif.got.tgz:6182.got - 2010.06.03 19:58:25.
