data_PCOD9377068
_publ_section_title
;
Structure prediction by ZEFSAII (Michael W. Deem and Ramdas Pophale) SiO2 
 PCOD9377068
Probable space group: I B A 2
;
_chemical_formula_sum "Si O2"
_cell_formula_units_Z 48
_cell_length_a 5.261945
_cell_length_b 18.155141
_cell_length_c 21.775270
_cell_angle_alpha 90.000000
_cell_angle_beta 90.000000
_cell_angle_gamma 90.000000
_cell_volume 2080.221014
_symmetry_space_group_name_H-M "I B A 2"
_symmetry_group_IT_number 45
_symmetry_cell_setting 'orthorhombic'
loop_
_space_group_symop_operation_xyz
x,y,z
-x,-y,z
-x,y,1/2+z
x,-y,1/2+z
1/2+x,1/2+y,1/2+z
1/2-x,1/2-y,1/2+z
1/2-x,1/2+y,z
1/2+x,1/2-y,z
loop_
_atom_site_type_symbol
_atom_site_label
_atom_site_fract_x
_atom_site_fract_y
_atom_site_fract_z
Si Si1 0.148534 0.921463 0.913140
Si Si2 0.250000 0.050907 0.280703
Si Si3 0.648534 0.921463 0.148265
Si Si4 0.391228 0.280477 0.460641
Si Si5 0.500000 0.000000 0.988993
Si Si6 0.000000 0.000000 0.072413
Si Si7 0.608773 0.219522 0.100763
O O1 0.185947 0.903405 0.841838
O O2 0.992928 0.862873 0.953073
O O3 0.423923 0.933561 0.944066
O O4 0.000000 0.000000 0.912739
O O5 0.314053 0.096595 0.219568
O O6 0.500000 0.000000 0.293635
O O7 0.000000 0.000000 0.267770
O O8 0.492928 0.862873 0.108333
O O9 0.500000 0.000000 0.148666
O O10 0.076078 0.066439 0.117339
O O11 0.117539 0.267479 0.431804
O O12 0.361427 0.249999 0.530702
O O13 0.750000 1.000000 0.030703
O O14 0.882462 0.232521 0.129600
#
# Coordination Sequence:
#
# PCOD9377068 Si02
#       7
#     8   8   8   8   4   4   8
#     4  11  25  45  72 102 138 184 233 289 344 408
#     4  10  22  42  68 104 134 172 232 296 338 400
#     4  11  25  45  72 102 138 184 233 289 344 408
#     4  10  25  42  62  91 139 181 222 273 346 410
#     4  12  26  36  64 104 136 164 230 278 350 398
#     4  12  26  36  64 104 136 164 230 278 350 398
#     4  10  25  42  62  91 139 181 222 273 346 410
#
# _framework density 23.074470999999999
#
# number of rings (size 3 to 8) (size 9 to 14) (size 15 to 20)
#    0.000    1.333    3.333    0.000   14.000    0.000 
#    0.000    1.667    0.000    0.000    0.000    0.000 
#    0.000    0.000    0.000    0.000    0.000    0.000 
#
# Total GULP energy -133920.796251 kJ/mol
# GULP energy per Si atom -5580.033177 kJ/mol
# Density = 2.302195 g / cm^3
# Si number density = 23.074471 Si / 1000 Ang^3
#
#
#
# Elastic Constant Matrix: (Units=GPa)
#
#
# Indices 1 2 3 4 5 6 
#
# 1 129.1998 6.3138 5.4452 0.0000 0.0000 0.0000
# 2 6.3138 104.2923 20.0910 0.0000 0.0000 0.0000
# 3 5.4452 20.0910 137.2734 0.0000 0.0000 0.0000
# 4 0.0000 0.0000 0.0000 21.6621 0.0000 0.0000
# 5 0.0000 0.0000 0.0000 0.0000 10.0949 0.0000
# 6 0.0000 0.0000 0.0000 0.0000 0.0000 39.9505
#
#
#
# Elastic Compliance Matrix: (Units=1/GPa)
#
#
# Indices 1 2 3 4 5 6 
#
# 1 0.007771 -0.000423 -0.000246 0.000000 0.000000 0.000000
# 2 -0.000423 0.009890 -0.001431 0.000000 0.000000 0.000000
# 3 -0.000246 -0.001431 0.007504 0.000000 0.000000 0.000000
# 4 0.000000 0.000000 0.000000 0.046164 0.000000 0.000000
# 5 0.000000 0.000000 0.000000 0.000000 0.099060 0.000000
# 6 0.000000 0.000000 0.000000 0.000000 0.000000 0.025031
#
#
# Mechanical properties :
#
#
# Convention : Reuss Voigt Hill
#
# Bulk Modulus (GPa) = 47.69952 48.27394 47.98673
# Shear Modulus (GPa) = 24.20051 36.93585 30.56818
#
# Velocity S-wave (km/s) = 3.24203 4.00524 3.64368
# Velocity P-wave (km/s) = 5.89332 6.50812 6.20834
#
# Compressibility (1/GPa) = 0.02096457
#
# Stress axis : x y z
#
# Youngs Moduli (GPa) = 128.68351 101.11583 133.26417
#
# Poissons Ratio (x) = 0.04277 0.03283
# Poissons Ratio (y) = 0.05443 0.19065
# Poissons Ratio (z) = 0.03170 0.14466
#
# Static dielectric constant tensor:
#      x y z
#    x 1.971280 0.000000 0.000000 
#    y 0.000000 1.980460 0.000000 
#    z 0.000000 0.000000 2.186670 
# 
# From -- ./inp_files/9429.got.cif
#   From: 2010.05.17/outbox.cif.g08.bks.cpg/sg45_5_cif.got.tgz:9429.got - 2010.06.03 19:51:22.
