data_PCOD9377418
_publ_section_title
;
Structure prediction by ZEFSAII (Michael W. Deem and Ramdas Pophale) SiO2 
 PCOD9377418
Probable space group: I B A 2
;
_chemical_formula_sum "Si O2"
_cell_formula_units_Z 36
_cell_length_a 7.606922
_cell_length_b 23.579596
_cell_length_c 8.754396
_cell_angle_alpha 90.000000
_cell_angle_beta 90.000000
_cell_angle_gamma 90.000000
_cell_volume 1570.259794
_symmetry_space_group_name_H-M "I B A 2"
_symmetry_group_IT_number 45
_symmetry_cell_setting 'orthorhombic'
loop_
_space_group_symop_operation_xyz
x,y,z
-x,-y,z
-x,y,1/2+z
x,-y,1/2+z
1/2+x,1/2+y,1/2+z
1/2-x,1/2-y,1/2+z
1/2-x,1/2+y,z
1/2+x,1/2-y,z
loop_
_atom_site_type_symbol
_atom_site_label
_atom_site_fract_x
_atom_site_fract_y
_atom_site_fract_z
Si Si1 0.837192 0.725713 0.898460
Si Si2 0.551936 0.155579 0.175893
Si Si3 0.165397 0.168987 0.118093
Si Si4 0.500000 0.500000 0.963143
Si Si5 0.362374 0.421352 0.202015
O O1 0.693801 0.706979 0.772139
O O2 0.004883 0.699295 0.810275
O O3 0.830315 0.687134 0.049224
O O4 0.855196 0.788361 0.972906
O O5 0.358870 0.139994 0.110245
O O6 0.672124 0.104726 0.227370
O O7 0.007397 0.125609 0.148871
O O8 0.573466 0.451048 0.855470
O O9 0.360157 0.469880 0.073134
#
# Coordination Sequence:
#
# PCOD9377418 Si02
#       5
#     8   8   8   4   8
#     4  10  25  43  67 108 155 185 245 278 359 450
#     4  10  26  44  70 105 148 196 237 293 357 458
#     4  10  26  45  69 108 154 194 236 301 352 467
#     4  10  26  46  78 106 132 186 262 334 364 424
#     4  11  24  50  74  99 144 191 244 316 380 413
#
# _framework density 22.92614
#
# number of rings (size 3 to 8) (size 9 to 14) (size 15 to 20)
#    1.333    0.444    0.000    1.333    9.333    1.778 
#    4.000    6.667    0.000    0.000    0.000    0.000 
#    0.000    0.000    0.000    0.000    0.000    0.000 
#
# Total GULP energy -100350.644294 kJ/mol
# GULP energy per Si atom -5575.035794 kJ/mol
# Density = 2.287396 g / cm^3
# Si number density = 22.926140 Si / 1000 Ang^3
#
#
#
# Elastic Constant Matrix: (Units=GPa)
#
#
# Indices 1 2 3 4 5 6 
#
# 1 124.4395 64.9543 29.3432 0.0001 0.0001 0.0000
# 2 64.9543 90.5204 49.9892 0.0005 0.0002 0.0001
# 3 29.3432 49.9892 134.9451 0.0027 0.0011 -0.0004
# 4 0.0001 0.0005 0.0027 35.8985 0.0007 0.0001
# 5 0.0001 0.0002 0.0011 0.0007 17.1629 0.0000
# 6 0.0000 0.0001 -0.0004 0.0001 0.0000 26.4253
#
#
#
# Elastic Compliance Matrix: (Units=1/GPa)
#
#
# Indices 1 2 3 4 5 6 
#
# 1 0.012914 -0.009700 0.000785 0.000000 0.000000 0.000000
# 2 -0.009700 0.021175 -0.005735 0.000000 0.000000 0.000000
# 3 0.000785 -0.005735 0.009364 -0.000001 -0.000001 0.000000
# 4 0.000000 0.000000 -0.000001 0.027856 -0.000001 0.000000
# 5 0.000000 0.000000 -0.000001 -0.000001 0.058265 0.000000
# 6 0.000000 0.000000 0.000000 0.000000 0.000000 0.037843
#
#
# Mechanical properties :
#
#
# Convention : Reuss Voigt Hill
#
# Bulk Modulus (GPa) = 70.65443 70.94204 70.79824
# Shear Modulus (GPa) = 24.82191 29.60522 27.21357
#
# Velocity S-wave (km/s) = 3.29400 3.59741 3.44904
# Velocity P-wave (km/s) = 6.73442 6.94738 6.84173
#
# Compressibility (1/GPa) = 0.01415339
#
# Stress axis : x y z
#
# Youngs Moduli (GPa) = 77.43375 47.22570 106.79156
#
# Poissons Ratio (x) = 0.45811 -0.08386
# Poissons Ratio (y) = 0.75115 0.61242
# Poissons Ratio (z) = -0.06081 0.27083
#
# Static dielectric constant tensor:
#      x y z
#    x 1.910610 0.000000 0.000000 
#    y 0.000000 1.873050 0.000000 
#    z 0.000000 0.000000 1.868670 
# 
# From -- ./inp_files/1004.got.cif
#   From: 2010.05.17/outbox.cif.g08.bks.cpg/sg45_1_cif.got.tgz:1004.got - 2010.06.03 19:51:22.
