data_PCOD9377444
_publ_section_title
;
Structure prediction by ZEFSAII (Michael W. Deem and Ramdas Pophale) SiO2 
 PCOD9377444
Probable space group: I B A 2
;
_chemical_formula_sum "Si O2"
_cell_formula_units_Z 32
_cell_length_a 9.152613
_cell_length_b 8.370400
_cell_length_c 14.094257
_cell_angle_alpha 90.000000
_cell_angle_beta 90.000000
_cell_angle_gamma 90.000000
_cell_volume 1079.775572
_symmetry_space_group_name_H-M "I B A 2"
_symmetry_group_IT_number 45
_symmetry_cell_setting 'orthorhombic'
loop_
_space_group_symop_operation_xyz
x,y,z
-x,-y,z
-x,y,1/2+z
x,-y,1/2+z
1/2+x,1/2+y,1/2+z
1/2-x,1/2-y,1/2+z
1/2-x,1/2+y,z
1/2+x,1/2-y,z
loop_
_atom_site_type_symbol
_atom_site_label
_atom_site_fract_x
_atom_site_fract_y
_atom_site_fract_z
Si Si1 0.000000 0.000000 0.313650
Si Si2 0.393036 0.283884 0.479977
Si Si3 0.198488 0.077276 0.601513
Si Si4 0.000000 0.500000 0.404012
Si Si5 0.197708 0.368370 0.737869
O O1 0.094286 0.886405 0.384308
O O2 0.872922 0.892824 0.261917
O O3 0.262500 0.167010 0.510764
O O4 0.385072 0.418817 0.561951
O O5 0.524197 0.154793 0.469184
O O6 0.151779 0.205435 0.683395
O O7 0.332004 0.000570 0.658621
O O8 0.118915 0.571543 0.332074
#
# Coordination Sequence:
#
# PCOD9377444 Si02
#       5
#     4   8   8   4   8
#     4  12  26  48  80 122 168 220 282 348 418 500
#     4  11  26  46  79 120 167 217 280 349 419 497
#     4  10  25  49  77 115 166 219 274 341 422 500
#     4  12  26  48  82 122 164 222 292 356 420 502
#     4  11  25  48  79 117 165 222 281 347 422 506
#
# _framework density 29.635788000000002
#
# number of rings (size 3 to 8) (size 9 to 14) (size 15 to 20)
#    0.000    1.000    0.000    4.500    0.000   15.000 
#    0.000    0.000    0.000    0.000    0.000    0.000 
#    0.000    0.000    0.000    0.000    0.000    0.000 
#
# Total GULP energy -89186.973316 kJ/mol
# GULP energy per Si atom -5574.185832 kJ/mol
# Density = 2.956834 g / cm^3
# Si number density = 29.635788 Si / 1000 Ang^3
#
#
#
# Elastic Constant Matrix: (Units=GPa)
#
#
# Indices 1 2 3 4 5 6 
#
# 1 77.9808 93.1888 90.6463 0.0000 0.0000 0.0000
# 2 93.1888 263.1344 89.0916 0.0000 0.0000 0.0000
# 3 90.6463 89.0916 226.3758 0.0000 0.0000 0.0000
# 4 0.0000 0.0000 0.0000 70.9977 0.0000 0.0000
# 5 0.0000 0.0000 0.0000 0.0000 53.2703 0.0000
# 6 0.0000 0.0000 0.0000 0.0000 0.0000 17.3319
#
#
#
# Elastic Compliance Matrix: (Units=1/GPa)
#
#
# Indices 1 2 3 4 5 6 
#
# 1 0.036792 -0.009278 -0.011081 0.000000 0.000000 0.000000
# 2 -0.009278 0.006724 0.001069 0.000000 0.000000 0.000000
# 3 -0.011081 0.001069 0.008434 0.000000 0.000000 0.000000
# 4 0.000000 0.000000 0.000000 0.014085 0.000000 0.000000
# 5 0.000000 0.000000 0.000000 0.000000 0.018772 0.000000
# 6 0.000000 0.000000 0.000000 0.000000 0.000000 0.057697
#
#
# Mechanical properties :
#
#
# Convention : Reuss Voigt Hill
#
# Bulk Modulus (GPa) = 74.79647 123.70493 99.25070
# Shear Modulus (GPa) = 26.94825 47.95759 37.45292
#
# Velocity S-wave (km/s) = 3.01876 4.02709 3.55882
# Velocity P-wave (km/s) = 6.11914 7.96590 7.10280
#
# Compressibility (1/GPa) = 0.01336961
#
# Stress axis : x y z
#
# Youngs Moduli (GPa) = 27.18004 148.71469 118.56969
#
# Poissons Ratio (x) = 1.37978 1.31385
# Poissons Ratio (y) = 0.25218 -0.12672
# Poissons Ratio (z) = 0.30118 -0.15894
#
# Static dielectric constant tensor:
#      x y z
#    x 2.625190 0.000000 0.000000 
#    y 0.000000 2.361640 0.000000 
#    z 0.000000 0.000000 2.346360 
# 
# From -- ./inp_files/5953.got.cif
#   From: 2010.05.17/outbox.cif.g08.bks.cpg/sg45_3_cif.got.tgz:5953.got - 2010.06.03 19:51:22.
