data_PCOD9377081
_publ_section_title
;
Structure prediction by ZEFSAII (Michael W. Deem and Ramdas Pophale) SiO2 
 PCOD9377081
Probable space group: I B A 2
;
_chemical_formula_sum "Si O2"
_cell_formula_units_Z 60
_cell_length_a 14.235306
_cell_length_b 14.588244
_cell_length_c 12.551741
_cell_angle_alpha 90.000000
_cell_angle_beta 90.000000
_cell_angle_gamma 90.000000
_cell_volume 2606.596423
_symmetry_space_group_name_H-M "I B A 2"
_symmetry_group_IT_number 45
_symmetry_cell_setting 'orthorhombic'
loop_
_space_group_symop_operation_xyz
x,y,z
-x,-y,z
-x,y,1/2+z
x,-y,1/2+z
1/2+x,1/2+y,1/2+z
1/2-x,1/2-y,1/2+z
1/2-x,1/2+y,z
1/2+x,1/2-y,z
loop_
_atom_site_type_symbol
_atom_site_label
_atom_site_fract_x
_atom_site_fract_y
_atom_site_fract_z
Si Si1 0.326116 0.411717 0.241060
Si Si2 0.905229 0.802443 0.942673
Si Si3 0.844732 0.412885 0.858448
Si Si4 0.394152 0.290455 0.856305
Si Si5 0.000000 0.500000 0.222186
Si Si6 0.839421 0.606680 0.597740
Si Si7 0.273131 0.696476 0.537996
Si Si8 0.620603 0.413081 0.151283
O O1 0.370444 0.345310 0.330333
O O2 0.245215 0.460870 0.308971
O O3 0.271622 0.365841 0.141853
O O4 0.397964 0.483627 0.190201
O O5 0.007308 0.764827 0.912039
O O6 0.827080 0.733194 0.992960
O O7 0.915640 0.878879 0.036344
O O8 0.835424 0.303194 0.843598
O O9 0.936767 0.437721 0.796306
O O10 0.847882 0.436542 0.981099
O O11 0.406572 0.342468 0.745156
O O12 0.332059 0.347309 0.941225
O O13 0.073084 0.565371 0.160443
O O14 0.835134 0.715991 0.577885
O O15 0.734627 0.589045 0.640159
#
# Coordination Sequence:
#
# PCOD9377081 Si02
#       8
#     8   8   8   8   4   8   8   8
#     4  12  24  46  73 102 145 195 242 306 374 444
#     4  11  26  48  72 106 144 192 252 310 363 456
#     4  11  23  44  67 107 137 183 245 298 378 443
#     4  11  26  46  74 105 141 195 248 300 372 450
#     4  12  24  38  74 104 144 188 240 310 376 452
#     4  10  22  43  64 100 144 182 234 301 364 447
#     4  10  25  45  72 101 142 192 243 302 378 438
#     4  11  25  47  72 100 152 192 246 307 370 443
#
# _framework density 23.018522000000001
#
# number of rings (size 3 to 8) (size 9 to 14) (size 15 to 20)
#    0.000    1.067    5.333    2.000    5.600    3.733 
#    2.400    0.000    0.000    0.000    0.000    0.000 
#    0.000    0.000    0.000    0.000    0.000    0.000 
#
# Total GULP energy -167528.700034 kJ/mol
# GULP energy per Si atom -5584.290001 kJ/mol
# Density = 2.296613 g / cm^3
# Si number density = 23.018522 Si / 1000 Ang^3
#
#
#
# Elastic Constant Matrix: (Units=GPa)
#
#
# Indices 1 2 3 4 5 6 
#
# 1 118.3031 12.6650 40.6306 0.0000 0.0000 0.0000
# 2 12.6650 32.0036 13.5074 0.0000 0.0000 0.0000
# 3 40.6306 13.5074 105.1990 0.0000 0.0000 0.0000
# 4 0.0000 0.0000 0.0000 35.9224 0.0000 0.0000
# 5 0.0000 0.0000 0.0000 0.0000 43.6024 0.0000
# 6 0.0000 0.0000 0.0000 0.0000 0.0000 1.1342
#
#
#
# Elastic Compliance Matrix: (Units=1/GPa)
#
#
# Indices 1 2 3 4 5 6 
#
# 1 0.009923 -0.002442 -0.003519 0.000000 0.000000 0.000000
# 2 -0.002442 0.033638 -0.003376 0.000000 0.000000 0.000000
# 3 -0.003519 -0.003376 0.011298 0.000000 0.000000 0.000000
# 4 0.000000 0.000000 0.000000 0.027838 0.000000 0.000000
# 5 0.000000 0.000000 0.000000 0.000000 0.022935 0.000000
# 6 0.000000 0.000000 0.000000 0.000000 0.000000 0.881665
#
#
# Mechanical properties :
#
#
# Convention : Reuss Voigt Hill
#
# Bulk Modulus (GPa) = 27.63527 43.23465 35.43496
# Shear Modulus (GPa) = 4.91144 28.71198 16.81171
#
# Velocity S-wave (km/s) = 1.46230 3.53560 2.70544
# Velocity P-wave (km/s) = 3.85783 5.95740 5.01864
#
# Compressibility (1/GPa) = 0.03618564
#
# Stress axis : x y z
#
# Youngs Moduli (GPa) = 100.77780 29.72865 88.50828
#
# Poissons Ratio (x) = 0.07259 0.31146
# Poissons Ratio (y) = 0.24606 0.29880
# Poissons Ratio (z) = 0.35463 0.10036
#
# Static dielectric constant tensor:
#      x y z
#    x 1.815440 0.000000 0.000000 
#    y 0.000000 1.956770 0.000000 
#    z 0.000000 0.000000 1.882170 
# 
# From -- ./inp_files/4245.got.cif
#   From: 2010.05.17/outbox.cif.g08.bks.cpg/sg45_3_cif.got.tgz:4245.got - 2010.06.03 19:51:22.
