data_PCOD9377615
_publ_section_title
;
Structure prediction by ZEFSAII (Michael W. Deem and Ramdas Pophale) SiO2 
 PCOD9377615
Probable space group: I B A 2
;
_chemical_formula_sum "Si O2"
_cell_formula_units_Z 64
_cell_length_a 9.588584
_cell_length_b 23.744264
_cell_length_c 12.224896
_cell_angle_alpha 90.000000
_cell_angle_beta 90.000000
_cell_angle_gamma 90.000000
_cell_volume 2783.289381
_symmetry_space_group_name_H-M "I B A 2"
_symmetry_group_IT_number 45
_symmetry_cell_setting 'orthorhombic'
loop_
_space_group_symop_operation_xyz
x,y,z
-x,-y,z
-x,y,1/2+z
x,-y,1/2+z
1/2+x,1/2+y,1/2+z
1/2-x,1/2-y,1/2+z
1/2-x,1/2+y,z
1/2+x,1/2-y,z
loop_
_atom_site_type_symbol
_atom_site_label
_atom_site_fract_x
_atom_site_fract_y
_atom_site_fract_z
Si Si1 0.678061 0.419424 0.770060
Si Si2 0.353735 0.232620 0.904728
Si Si3 0.323814 0.916831 0.690595
Si Si4 0.348319 0.491510 0.064674
Si Si5 0.404153 0.735704 0.055930
Si Si6 0.349474 0.010375 0.396321
Si Si7 0.922183 0.841328 0.262532
Si Si8 0.085448 0.340722 0.199666
O O1 0.616900 0.460597 0.678215
O O2 0.754385 0.456591 0.862120
O O3 0.562033 0.373213 0.801044
O O4 0.801273 0.388667 0.706384
O O5 0.367206 0.290857 0.838035
O O6 0.415395 0.185420 0.822946
O O7 0.453587 0.241965 0.006145
O O8 0.202503 0.221601 0.957754
O O9 0.248652 0.954767 0.598239
O O10 0.384378 0.957642 0.783814
O O11 0.440240 0.869731 0.662800
O O12 0.198138 0.886325 0.751468
O O13 0.500000 0.500000 0.011603
O O14 0.250013 0.457544 0.981252
O O15 0.435282 0.685685 0.140820
O O16 0.356186 0.789710 0.126384
O O17 0.500000 0.000000 0.449212
#
# Coordination Sequence:
#
# PCOD9377615 Si02
#       8
#     8   8   8   8   8   8   8   8
#     4  11  24  45  67  94 138 175 227 280 345 405
#     4  11  24  43  67  99 139 176 228 285 340 407
#     4  11  24  45  67  94 138 175 227 280 345 405
#     4  11  26  44  68 100 135 177 226 285 347 415
#     4  11  24  43  67  99 139 176 228 285 340 407
#     4  11  26  44  68 100 135 177 226 285 347 415
#     4  11  24  43  68  99 134 182 228 284 342 410
#     4  11  24  43  68  99 134 182 228 284 342 410
#
# _framework density 22.994374000000001
#
# number of rings (size 3 to 8) (size 9 to 14) (size 15 to 20)
#    0.000    1.000    2.500    3.000    3.500   10.000 
#    0.000    0.000    0.000    0.000    0.000    0.000 
#    0.000    0.000    0.000    0.000    0.000    0.000 
#
# Total GULP energy -178699.727851 kJ/mol
# GULP energy per Si atom -5584.366495 kJ/mol
# Density = 2.294204 g / cm^3
# Si number density = 22.994374 Si / 1000 Ang^3
#
#
#
# Elastic Constant Matrix: (Units=GPa)
#
#
# Indices 1 2 3 4 5 6 
#
# 1 106.2417 14.6474 9.9125 -0.0001 0.0000 -0.0001
# 2 14.6474 73.5421 32.5132 -0.0001 0.0000 0.0000
# 3 9.9125 32.5132 51.2811 -0.0002 -0.0001 -0.0004
# 4 -0.0001 -0.0001 -0.0002 16.3097 0.0000 0.0001
# 5 0.0000 0.0000 -0.0001 0.0000 37.3208 0.0000
# 6 -0.0001 0.0000 -0.0004 0.0001 0.0000 59.0761
#
#
#
# Elastic Compliance Matrix: (Units=1/GPa)
#
#
# Indices 1 2 3 4 5 6 
#
# 1 0.009708 -0.001534 -0.000904 0.000000 0.000000 0.000000
# 2 -0.001534 0.019136 -0.011836 0.000000 0.000000 0.000000
# 3 -0.000904 -0.011836 0.027179 0.000000 0.000000 0.000000
# 4 0.000000 0.000000 0.000000 0.061313 0.000000 0.000000
# 5 0.000000 0.000000 0.000000 0.000000 0.026795 0.000000
# 6 0.000000 0.000000 0.000000 0.000000 0.000000 0.016927
#
#
# Mechanical properties :
#
#
# Convention : Reuss Voigt Hill
#
# Bulk Modulus (GPa) = 36.39594 38.35680 37.37637
# Shear Modulus (GPa) = 25.15529 34.14077 29.64803
#
# Velocity S-wave (km/s) = 3.31112 3.85742 3.59466
# Velocity P-wave (km/s) = 5.52092 6.04622 5.78953
#
# Compressibility (1/GPa) = 0.02747559
#
# Stress axis : x y z
#
# Youngs Moduli (GPa) = 103.00432 52.25777 36.79260
#
# Poissons Ratio (x) = 0.08016 0.03326
# Poissons Ratio (y) = 0.15800 0.43548
# Poissons Ratio (z) = 0.09312 0.61852
#
# Static dielectric constant tensor:
#      x y z
#    x 1.826820 0.000000 0.000000 
#    y 0.000000 1.948790 0.000000 
#    z 0.000000 0.000000 1.995920 
# 
# From -- ./inp_files/5872.got.cif
#   From: 2010.05.17/outbox.cif.g08.bks.cpg/sg45_3_cif.got.tgz:5872.got - 2010.06.03 19:51:22.
