data_PCOD9377659
_publ_section_title
;
Structure prediction by ZEFSAII (Michael W. Deem and Ramdas Pophale) SiO2 
 PCOD9377659
Probable space group: I B A 2
;
_chemical_formula_sum "Si O2"
_cell_formula_units_Z 64
_cell_length_a 22.703329
_cell_length_b 9.286376
_cell_length_c 14.047198
_cell_angle_alpha 90.000000
_cell_angle_beta 90.000000
_cell_angle_gamma 90.000000
_cell_volume 2961.593926
_symmetry_space_group_name_H-M "I B A 2"
_symmetry_group_IT_number 45
_symmetry_cell_setting 'orthorhombic'
loop_
_space_group_symop_operation_xyz
x,y,z
-x,-y,z
-x,y,1/2+z
x,-y,1/2+z
1/2+x,1/2+y,1/2+z
1/2-x,1/2-y,1/2+z
1/2-x,1/2+y,z
1/2+x,1/2-y,z
loop_
_atom_site_type_symbol
_atom_site_label
_atom_site_fract_x
_atom_site_fract_y
_atom_site_fract_z
Si Si1 0.723446 0.412581 0.990820
Si Si2 0.575058 0.686526 0.848523
Si Si3 0.013294 0.332784 0.974980
Si Si4 0.312396 0.885355 0.311765
Si Si5 0.389905 0.375175 0.384888
Si Si6 0.743522 0.323760 0.620312
Si Si7 0.858500 0.683505 0.720696
Si Si8 0.995723 0.663588 0.692977
O O1 0.770558 0.419058 0.903461
O O2 0.657472 0.441054 0.956543
O O3 0.734890 0.517583 0.079535
O O4 0.722528 0.253999 0.035061
O O5 0.637561 0.768030 0.837824
O O6 0.576707 0.514759 0.847217
O O7 0.532448 0.739271 0.764100
O O8 0.543914 0.742973 0.944154
O O9 0.000000 0.500000 0.949279
O O10 0.022210 0.328593 0.087730
O O11 0.067781 0.250549 0.925076
O O12 0.275911 0.824873 0.221634
O O13 0.342260 0.030769 0.268917
O O14 0.351963 0.302744 0.302257
O O15 0.684059 0.232146 0.636099
O O16 0.926339 0.692831 0.690219
O O17 0.000000 0.500000 0.727931
#
# Coordination Sequence:
#
# PCOD9377659 Si02
#       8
#     8   8   8   8   8   8   8   8
#     4  12  28  48  74 111 150 196 251 309 390 446
#     4  12  26  48  72 109 146 193 246 308 378 433
#     4  11  26  48  73 106 147 193 251 298 366 453
#     4  12  27  49  79 103 152 201 249 313 377 456
#     4  12  27  46  75 107 152 194 242 314 374 442
#     4  12  28  47  73 112 148 194 255 311 374 460
#     4  12  25  48  73 103 146 197 247 305 372 442
#     4  11  25  47  76 108 142 197 248 300 369 447
#
# _framework density 21.609985999999999
#
# number of rings (size 3 to 8) (size 9 to 14) (size 15 to 20)
#    0.000    0.250    5.000    3.000    8.750    0.000 
#    2.250    0.000    0.000    0.000    0.000    0.000 
#    0.000    0.000    0.000    0.000    0.000    0.000 
#
# Total GULP energy -178891.497865 kJ/mol
# GULP energy per Si atom -5590.359308 kJ/mol
# Density = 2.156080 g / cm^3
# Si number density = 21.609986 Si / 1000 Ang^3
#
#
#
# Elastic Constant Matrix: (Units=GPa)
#
#
# Indices 1 2 3 4 5 6 
#
# 1 109.1000 23.3471 23.9720 0.0000 0.0000 0.0000
# 2 23.3471 98.8013 10.1565 0.0000 0.0000 0.0000
# 3 23.9720 10.1565 82.6574 0.0000 0.0000 0.0000
# 4 0.0000 0.0000 0.0000 -12.4155 0.0000 0.0000
# 5 0.0000 0.0000 0.0000 0.0000 -79.4486 0.0000
# 6 0.0000 0.0000 0.0000 0.0000 0.0000 19.7217
#
#
#
# Elastic Compliance Matrix: (Units=1/GPa)
#
#
# Indices 1 2 3 4 5 6 
#
# 1 0.010216 -0.002137 -0.002700 0.000000 0.000000 0.000000
# 2 -0.002137 0.010698 -0.000695 0.000000 0.000000 0.000000
# 3 -0.002700 -0.000695 0.012967 0.000000 0.000000 0.000000
# 4 0.000000 0.000000 0.000000 -0.080544 0.000000 0.000000
# 5 0.000000 0.000000 0.000000 0.000000 -0.012587 0.000000
# 6 0.000000 0.000000 0.000000 0.000000 0.000000 0.050706
#
#
# Mechanical properties :
#
#
# Convention : Reuss Voigt Hill
#
# Bulk Modulus (GPa) = 43.82673 45.05665 44.44169
# Shear Modulus (GPa) = 493.83915 1.11039 247.47477
#
# Velocity S-wave (km/s) = 15.13340 0.71760 10.71295
# Velocity P-wave (km/s) = 18.04673 4.64562 13.17699
#
# Compressibility (1/GPa) = 0.02281713
#
# Stress axis : x y z
#
# Youngs Moduli (GPa) = 97.88109 93.47857 77.12080
#
# Poissons Ratio (x) = 0.19973 0.20826
# Poissons Ratio (y) = 0.20913 0.05359
# Poissons Ratio (z) = 0.26432 0.06495
#
# Static dielectric constant tensor:
#      x y z
#    x 2.404520 0.000000 0.000000 
#    y 0.000000 1.770200 0.000000 
#    z 0.000000 0.000000 1.811490 
# 
# From -- ./inp_files/7061.got.cif
#   From: 2010.05.17/outbox.cif.g08.bks.cpg/sg45_4_cif.got.tgz:7061.got - 2010.06.03 19:51:22.
