data_PCOD9377670
_publ_section_title
;
Structure prediction by ZEFSAII (Michael W. Deem and Ramdas Pophale) SiO2 
 PCOD9377670
Probable space group: I B A 2
;
_chemical_formula_sum "Si O2"
_cell_formula_units_Z 48
_cell_length_a 18.650066
_cell_length_b 9.277881
_cell_length_c 9.935595
_cell_angle_alpha 90.000000
_cell_angle_beta 90.000000
_cell_angle_gamma 90.000000
_cell_volume 1719.186734
_symmetry_space_group_name_H-M "I B A 2"
_symmetry_group_IT_number 45
_symmetry_cell_setting 'orthorhombic'
loop_
_space_group_symop_operation_xyz
x,y,z
-x,-y,z
-x,y,1/2+z
x,-y,1/2+z
1/2+x,1/2+y,1/2+z
1/2-x,1/2-y,1/2+z
1/2-x,1/2+y,z
1/2+x,1/2-y,z
loop_
_atom_site_type_symbol
_atom_site_label
_atom_site_fract_x
_atom_site_fract_y
_atom_site_fract_z
Si Si1 0.000000 0.000000 0.101161
Si Si2 0.385717 0.213281 0.239448
Si Si3 0.659538 0.911277 0.501958
Si Si4 0.369008 0.503095 0.903690
Si Si5 0.000000 0.500000 0.252533
Si Si6 0.739178 0.829078 0.038307
Si Si7 0.911354 0.749227 0.250970
O O1 0.032447 0.135468 0.184168
O O2 0.935701 0.039096 0.998728
O O3 0.444873 0.108079 0.168774
O O4 0.306332 0.185765 0.177232
O O5 0.371557 0.849167 0.140599
O O6 0.390337 0.146123 0.386978
O O7 0.612649 0.617973 0.283024
O O8 0.735687 0.827804 0.499140
O O9 0.680685 0.072996 0.465107
O O10 0.312312 0.582685 0.001804
O O11 0.356217 0.352984 0.826921
O O12 0.042740 0.372095 0.326966
#
# Coordination Sequence:
#
# PCOD9377670 Si02
#       7
#     4   8   8   8   4   8   8
#     4  12  22  50  80 122 156 220 278 344 428 510
#     4  11  25  50  76 117 165 207 278 338 419 511
#     4  11  27  47  72 116 153 215 273 338 427 486
#     4  11  27  50  82 121 162 225 283 344 425 512
#     4  12  26  48  80 114 168 212 262 366 420 492
#     4  11  26  48  78 113 160 213 276 339 413 508
#     4  12  26  48  76 120 166 210 282 348 426 515
#
# _framework density 27.920179000000001
#
# number of rings (size 3 to 8) (size 9 to 14) (size 15 to 20)
#    0.000    0.667    5.000    2.500    4.667    4.667 
#    0.000    0.000    0.000    0.000    0.000    0.000 
#    0.000    0.000    0.000    0.000    0.000    0.000 
#
# Total GULP energy -133707.675715 kJ/mol
# GULP energy per Si atom -5571.153155 kJ/mol
# Density = 2.785663 g / cm^3
# Si number density = 27.920179 Si / 1000 Ang^3
#
#
#
# Elastic Constant Matrix: (Units=GPa)
#
#
# Indices 1 2 3 4 5 6 
#
# 1 149.5359 42.8780 47.8166 0.0000 0.0000 0.0000
# 2 42.8780 219.5644 34.8491 0.0000 0.0000 0.0000
# 3 47.8166 34.8491 82.9082 0.0000 0.0000 0.0000
# 4 0.0000 0.0000 0.0000 32.6016 0.0000 0.0000
# 5 0.0000 0.0000 0.0000 0.0000 24.5558 0.0000
# 6 0.0000 0.0000 0.0000 0.0000 0.0000 50.5677
#
#
#
# Elastic Compliance Matrix: (Units=1/GPa)
#
#
# Indices 1 2 3 4 5 6 
#
# 1 0.008373 -0.000931 -0.004438 0.000000 0.000000 0.000000
# 2 -0.000931 0.004984 -0.001558 0.000000 0.000000 0.000000
# 3 -0.004438 -0.001558 0.015276 0.000000 0.000000 0.000000
# 4 0.000000 0.000000 0.000000 0.030673 0.000000 0.000000
# 5 0.000000 0.000000 0.000000 0.000000 0.040724 0.000000
# 6 0.000000 0.000000 0.000000 0.000000 0.000000 0.019775
#
#
# Mechanical properties :
#
#
# Convention : Reuss Voigt Hill
#
# Bulk Modulus (GPa) = 67.66181 78.12177 72.89179
# Shear Modulus (GPa) = 36.07891 43.30935 39.69413
#
# Velocity S-wave (km/s) = 3.59864 3.94278 3.77463
# Velocity P-wave (km/s) = 6.44621 6.98344 6.72020
#
# Compressibility (1/GPa) = 0.01477939
#
# Stress axis : x y z
#
# Youngs Moduli (GPa) = 119.42589 200.66154 65.46230
#
# Poissons Ratio (x) = 0.18678 0.29052
# Poissons Ratio (y) = 0.11116 0.10198
# Poissons Ratio (z) = 0.53002 0.31261
#
# Static dielectric constant tensor:
#      x y z
#    x 2.486870 0.000000 0.000000 
#    y 0.000000 2.332670 0.000000 
#    z 0.000000 0.000000 2.267120 
# 
# From -- ./inp_files/6906.got.cif
#   From: 2010.05.17/outbox.cif.g08.bks.cpg/sg45_4_cif.got.tgz:6906.got - 2010.06.03 19:51:22.
