data_PCOD9377274
_publ_section_title
;
Structure prediction by ZEFSAII (Michael W. Deem and Ramdas Pophale) SiO2 
 PCOD9377274
Probable space group: I B A 2
;
_chemical_formula_sum "Si O2"
_cell_formula_units_Z 32
_cell_length_a 19.979190
_cell_length_b 9.475493
_cell_length_c 5.739311
_cell_angle_alpha 90.000000
_cell_angle_beta 90.000000
_cell_angle_gamma 90.000000
_cell_volume 1086.524318
_symmetry_space_group_name_H-M "I B A 2"
_symmetry_group_IT_number 45
_symmetry_cell_setting 'orthorhombic'
loop_
_space_group_symop_operation_xyz
x,y,z
-x,-y,z
-x,y,1/2+z
x,-y,1/2+z
1/2+x,1/2+y,1/2+z
1/2-x,1/2-y,1/2+z
1/2-x,1/2+y,z
1/2+x,1/2-y,z
loop_
_atom_site_type_symbol
_atom_site_label
_atom_site_fract_x
_atom_site_fract_y
_atom_site_fract_z
Si Si1 0.328697 0.968352 0.632000
Si Si2 0.392645 0.382457 0.607559
Si Si3 0.805666 0.151142 0.220321
Si Si4 0.488323 0.226554 0.901958
O O1 0.308911 0.804227 0.607751
O O2 0.487140 0.842993 0.658111
O O3 0.261105 0.062763 0.665640
O O4 0.363267 0.011680 0.387208
O O5 0.329063 0.313757 0.483436
O O6 0.459043 0.354545 0.452233
O O7 0.363611 0.465478 0.168295
O O8 0.418018 0.294218 0.829501
#
# Coordination Sequence:
#
# PCOD9377274 Si02
#       4
#     8   8   8   8
#     4  12  28  52  68 103 148 194 256 303 352 451
#     4  10  24  39  68 108 142 180 228 299 374 406
#     4  12  26  43  76 105 148 198 235 308 373 435
#     4   8  20  41  58 102 146 164 230 296 350 422
#
# _framework density 29.451711
#
# number of rings (size 3 to 8) (size 9 to 14) (size 15 to 20)
#    1.500    0.000    2.500    1.500    3.500    3.000 
#    0.000    0.000    0.000    0.000    0.000   21.000 
#    0.000    0.000    0.000    0.000    0.000    0.000 
#
# Total GULP energy -89304.433676 kJ/mol
# GULP energy per Si atom -5581.527105 kJ/mol
# Density = 2.938468 g / cm^3
# Si number density = 29.451711 Si / 1000 Ang^3
#
#
#
# Elastic Constant Matrix: (Units=GPa)
#
#
# Indices 1 2 3 4 5 6 
#
# 1 115.6652 66.8877 82.8477 0.0000 0.0000 0.0000
# 2 66.8877 210.2462 51.4188 0.0000 0.0000 0.0000
# 3 82.8477 51.4188 256.6006 0.0000 0.0000 0.0000
# 4 0.0000 0.0000 0.0000 38.4571 0.0000 0.0000
# 5 0.0000 0.0000 0.0000 0.0000 50.6179 0.0000
# 6 0.0000 0.0000 0.0000 0.0000 0.0000 25.1125
#
#
#
# Elastic Compliance Matrix: (Units=1/GPa)
#
#
# Indices 1 2 3 4 5 6 
#
# 1 0.013111 -0.003298 -0.003572 0.000000 0.000000 0.000000
# 2 -0.003298 0.005831 -0.000104 0.000000 0.000000 0.000000
# 3 -0.003572 -0.000104 0.005071 0.000000 0.000000 0.000000
# 4 0.000000 0.000000 0.000000 0.026003 0.000000 0.000000
# 5 0.000000 0.000000 0.000000 0.000000 0.019756 0.000000
# 6 0.000000 0.000000 0.000000 0.000000 0.000000 0.039821
#
#
# Mechanical properties :
#
#
# Convention : Reuss Voigt Hill
#
# Bulk Modulus (GPa) = 99.34405 109.42447 104.38426
# Shear Modulus (GPa) = 39.40235 48.26137 43.83186
#
# Velocity S-wave (km/s) = 3.66165 4.05243 3.86198
# Velocity P-wave (km/s) = 7.18897 7.68965 7.44352
#
# Compressibility (1/GPa) = 0.01006603
#
# Stress axis : x y z
#
# Youngs Moduli (GPa) = 76.26935 171.50348 197.18744
#
# Poissons Ratio (x) = 0.56555 0.70444
# Poissons Ratio (y) = 0.25150 0.02045
# Poissons Ratio (z) = 0.27247 0.01779
#
# Static dielectric constant tensor:
#      x y z
#    x 2.231510 0.000000 0.000000 
#    y 0.000000 2.212550 0.000000 
#    z 0.000000 0.000000 2.683880 
# 
# From -- ./inp_files/1554.got.cif
#   From: 2010.05.17/outbox.cif.g08.bks.cpg/sg45_1_cif.got.tgz:1554.got - 2010.06.03 19:51:22.
