data_PCOD9377577
_publ_section_title
;
Structure prediction by ZEFSAII (Michael W. Deem and Ramdas Pophale) SiO2 
 PCOD9377577
Probable space group: I B A 2
;
_chemical_formula_sum "Si O2"
_cell_formula_units_Z 64
_cell_length_a 9.223320
_cell_length_b 14.601081
_cell_length_c 23.259585
_cell_angle_alpha 90.000000
_cell_angle_beta 90.000000
_cell_angle_gamma 90.000000
_cell_volume 3132.378602
_symmetry_space_group_name_H-M "I B A 2"
_symmetry_group_IT_number 45
_symmetry_cell_setting 'orthorhombic'
loop_
_space_group_symop_operation_xyz
x,y,z
-x,-y,z
-x,y,1/2+z
x,-y,1/2+z
1/2+x,1/2+y,1/2+z
1/2-x,1/2-y,1/2+z
1/2-x,1/2+y,z
1/2+x,1/2-y,z
loop_
_atom_site_type_symbol
_atom_site_label
_atom_site_fract_x
_atom_site_fract_y
_atom_site_fract_z
Si Si1 0.613015 0.419017 0.878620
Si Si2 0.765732 0.371940 0.108502
Si Si3 0.093418 0.300747 0.089549
Si Si4 0.198566 0.669971 0.460810
Si Si5 0.832841 0.976335 0.996938
Si Si6 0.949992 0.263612 0.883042
Si Si7 0.661637 0.959939 0.669398
Si Si8 0.372383 0.075363 0.799859
O O1 0.500000 0.500000 0.884504
O O2 0.670471 0.406280 0.943488
O O3 0.537847 0.324976 0.860884
O O4 0.734616 0.455256 0.836374
O O5 0.643916 0.295388 0.115091
O O6 0.749701 0.447546 0.158562
O O7 0.923895 0.323448 0.101057
O O8 0.744164 0.430576 0.050595
O O9 0.180770 0.382234 0.121458
O O10 0.143245 0.294855 0.023023
O O11 0.257286 0.568563 0.474417
O O12 0.324777 0.723769 0.425471
O O13 0.058449 0.674270 0.420424
O O14 0.000000 0.000000 0.011823
O O15 0.904583 0.326975 0.829725
O O16 0.667787 0.918971 0.732881
O O17 0.500000 0.000000 0.661064
O O18 0.500000 0.000000 0.805129
#
# Coordination Sequence:
#
# PCOD9377577 Si02
#       8
#     8   8   8   8   8   8   8   8
#     4  11  23  43  63  99 138 171 221 286 341 402
#     4  11  24  44  69 101 142 173 228 282 339 410
#     4  11  24  42  69 103 132 183 226 276 347 405
#     4  12  23  41  68  99 142 178 223 280 349 411
#     4  11  23  40  66  97 143 181 215 280 347 405
#     4  12  24  43  66 101 135 177 228 284 339 407
#     4   9  22  49  67  96 134 178 230 286 323 407
#     4  11  25  46  72  94 131 187 238 276 343 405
#
# _framework density 20.431756
#
# number of rings (size 3 to 8) (size 9 to 14) (size 15 to 20)
#    0.000    1.000    5.000    2.250    3.500    0.000 
#    9.000    0.625    0.000    0.000    0.000    0.000 
#    0.000    0.000    0.000    0.000    0.000    0.000 
#
# Total GULP energy -178661.921665 kJ/mol
# GULP energy per Si atom -5583.185052 kJ/mol
# Density = 2.038525 g / cm^3
# Si number density = 20.431756 Si / 1000 Ang^3
#
#
#
# Elastic Constant Matrix: (Units=GPa)
#
#
# Indices 1 2 3 4 5 6 
#
# 1 69.2127 36.2293 32.3287 0.0000 0.0000 0.0000
# 2 36.2293 123.9846 52.1119 0.0000 0.0000 0.0000
# 3 32.3287 52.1119 104.0759 0.0000 0.0000 0.0000
# 4 0.0000 0.0000 0.0000 38.8081 0.0000 0.0000
# 5 0.0000 0.0000 0.0000 0.0000 11.9447 0.0000
# 6 0.0000 0.0000 0.0000 0.0000 0.0000 3.7401
#
#
#
# Elastic Compliance Matrix: (Units=1/GPa)
#
#
# Indices 1 2 3 4 5 6 
#
# 1 0.018160 -0.003718 -0.003779 0.000000 0.000000 0.000000
# 2 -0.003718 0.010977 -0.004341 0.000000 0.000000 0.000000
# 3 -0.003779 -0.004341 0.012956 0.000000 0.000000 0.000000
# 4 0.000000 0.000000 0.000000 0.025768 0.000000 0.000000
# 5 0.000000 0.000000 0.000000 0.000000 0.083719 0.000000
# 6 0.000000 0.000000 0.000000 0.000000 0.000000 0.267373
#
#
# Mechanical properties :
#
#
# Convention : Reuss Voigt Hill
#
# Bulk Modulus (GPa) = 54.30228 59.84588 57.07408
# Shear Modulus (GPa) = 11.14164 22.67213 16.90689
#
# Velocity S-wave (km/s) = 2.33772 3.33476 2.87972
# Velocity P-wave (km/s) = 5.82423 6.64693 6.24913
#
# Compressibility (1/GPa) = 0.01841543
#
# Stress axis : x y z
#
# Youngs Moduli (GPa) = 55.06722 91.10304 77.18436
#
# Poissons Ratio (x) = 0.33872 0.29170
# Poissons Ratio (y) = 0.20474 0.33507
# Poissons Ratio (z) = 0.20811 0.39550
#
# Static dielectric constant tensor:
#      x y z
#    x 1.755700 0.000000 0.000000 
#    y 0.000000 1.761360 0.000000 
#    z 0.000000 0.000000 1.729050 
# 
# From -- ./inp_files/9602.got.cif
#   From: 2010.05.17/outbox.cif.g08.bks.cpg/sg45_5_cif.got.tgz:9602.got - 2010.06.03 19:51:22.
