data_PCOD9377313
_publ_section_title
;
Structure prediction by ZEFSAII (Michael W. Deem and Ramdas Pophale) SiO2 
 PCOD9377313
Probable space group: I B A 2
;
_chemical_formula_sum "Si O2"
_cell_formula_units_Z 44
_cell_length_a 31.919687
_cell_length_b 7.403999
_cell_length_c 8.307135
_cell_angle_alpha 90.000000
_cell_angle_beta 90.000000
_cell_angle_gamma 90.000000
_cell_volume 1963.252883
_symmetry_space_group_name_H-M "I B A 2"
_symmetry_group_IT_number 45
_symmetry_cell_setting 'orthorhombic'
loop_
_space_group_symop_operation_xyz
x,y,z
-x,-y,z
-x,y,1/2+z
x,-y,1/2+z
1/2+x,1/2+y,1/2+z
1/2-x,1/2-y,1/2+z
1/2-x,1/2+y,z
1/2+x,1/2-y,z
loop_
_atom_site_type_symbol
_atom_site_label
_atom_site_fract_x
_atom_site_fract_y
_atom_site_fract_z
Si Si1 0.207898 0.223898 0.634860
Si Si2 0.380791 0.573222 0.715315
Si Si3 0.000000 0.500000 0.817874
Si Si4 0.062719 0.361923 0.564836
Si Si5 0.791512 0.416935 0.481244
Si Si6 0.118860 0.276047 0.056104
O O1 0.167696 0.098705 0.662510
O O2 0.200253 0.369589 0.493416
O O3 0.212864 0.333754 0.802929
O O4 0.249378 0.120130 0.581315
O O5 0.408436 0.690619 0.592376
O O6 0.391706 0.363499 0.697701
O O7 0.386534 0.666992 0.888415
O O8 0.968567 0.618907 0.714481
O O9 0.969526 0.371503 0.918849
O O10 0.091623 0.542173 0.558608
O O11 0.832373 0.329150 0.561240
#
# Coordination Sequence:
#
# PCOD9377313 Si02
#       6
#     8   8   4   8   8   8
#     4  11  23  40  62  95 134 180 226 277 328 387
#     4  11  25  42  68  99 135 180 224 273 334 399
#     4  10  24  42  78  94 136 168 216 286 338 410
#     4  11  22  48  68 102 130 176 220 274 346 395
#     4  11  23  40  62  95 134 180 226 277 328 387
#     4  11  25  42  68  99 135 180 224 273 334 399
#
# _framework density 22.411783
#
# number of rings (size 3 to 8) (size 9 to 14) (size 15 to 20)
#    0.000    1.091    3.636    2.182    2.545    5.818 
#    0.000    5.455    0.000    0.000    0.000    0.000 
#    0.000    0.000    0.000    0.000    0.000    0.000 
#
# Total GULP energy -123088.187671 kJ/mol
# GULP energy per Si atom -5594.917621 kJ/mol
# Density = 2.236077 g / cm^3
# Si number density = 22.411783 Si / 1000 Ang^3
#
#
#
# Elastic Constant Matrix: (Units=GPa)
#
#
# Indices 1 2 3 4 5 6 
#
# 1 124.2512 15.2816 35.3258 0.0000 0.0000 0.0000
# 2 15.2816 49.7999 -15.1967 0.0000 0.0000 0.0000
# 3 35.3258 -15.1967 49.1167 0.0000 0.0000 0.0000
# 4 0.0000 0.0000 0.0000 68.6284 0.0000 0.0000
# 5 0.0000 0.0000 0.0000 0.0000 36.6977 0.0000
# 6 0.0000 0.0000 0.0000 0.0000 0.0000 19.1716
#
#
#
# Elastic Compliance Matrix: (Units=1/GPa)
#
#
# Indices 1 2 3 4 5 6 
#
# 1 0.011960 -0.006951 -0.010753 0.000000 0.000000 0.000000
# 2 -0.006951 0.026214 0.013110 0.000000 0.000000 0.000000
# 3 -0.010753 0.013110 0.032150 0.000000 0.000000 0.000000
# 4 0.000000 0.000000 0.000000 0.014571 0.000000 0.000000
# 5 0.000000 0.000000 0.000000 0.000000 0.027250 0.000000
# 6 0.000000 0.000000 0.000000 0.000000 0.000000 0.052161
#
#
# Mechanical properties :
#
#
# Convention : Reuss Voigt Hill
#
# Bulk Modulus (GPa) = 16.35693 32.66546 24.51120
# Shear Modulus (GPa) = 25.79014 37.41668 31.60341
#
# Velocity S-wave (km/s) = 3.39594 4.09040 3.75924
# Velocity P-wave (km/s) = 4.76348 6.07579 5.45921
#
# Compressibility (1/GPa) = 0.06113617
#
# Stress axis : x y z
#
# Youngs Moduli (GPa) = 83.60974 38.14727 31.10443
#
# Poissons Ratio (x) = 0.26518 0.33446
# Poissons Ratio (y) = 0.58121 -0.40779
# Poissons Ratio (z) = 0.89905 -0.50012
#
# Static dielectric constant tensor:
#      x y z
#    x 1.774380 0.000000 0.000000 
#    y 0.000000 1.707320 0.000000 
#    z 0.000000 0.000000 1.921100 
# 
# From -- ./inp_files/1043.got.cif
#   From: 2010.05.17/outbox.cif.g08.bks.cpg/sg45_1_cif.got.tgz:1043.got - 2010.06.03 19:51:22.
