data_PCOD9377492
_publ_section_title
;
Structure prediction by ZEFSAII (Michael W. Deem and Ramdas Pophale) SiO2 
 PCOD9377492
Probable space group: I B A 2
;
_chemical_formula_sum "Si O2"
_cell_formula_units_Z 48
_cell_length_a 11.398555
_cell_length_b 25.185196
_cell_length_c 8.092728
_cell_angle_alpha 90.000000
_cell_angle_beta 90.000000
_cell_angle_gamma 90.000000
_cell_volume 2323.218610
_symmetry_space_group_name_H-M "I B A 2"
_symmetry_group_IT_number 45
_symmetry_cell_setting 'orthorhombic'
loop_
_space_group_symop_operation_xyz
x,y,z
-x,-y,z
-x,y,1/2+z
x,-y,1/2+z
1/2+x,1/2+y,1/2+z
1/2-x,1/2-y,1/2+z
1/2-x,1/2+y,z
1/2+x,1/2-y,z
loop_
_atom_site_type_symbol
_atom_site_label
_atom_site_fract_x
_atom_site_fract_y
_atom_site_fract_z
Si Si1 0.480946 0.699560 0.943090
Si Si2 0.362929 0.434637 0.676640
Si Si3 0.660300 0.778519 0.852673
Si Si4 0.183210 0.153993 0.653734
Si Si5 0.635587 0.449403 0.784051
Si Si6 0.726113 0.681395 0.680415
O O1 0.530798 0.755460 0.880897
O O2 0.400843 0.670771 0.808492
O O3 0.357843 0.562000 0.978199
O O4 0.189286 0.691808 0.024642
O O5 0.398800 0.300015 0.603005
O O6 0.500600 0.437086 0.729053
O O7 0.323075 0.490812 0.750831
O O8 0.292940 0.380696 0.721464
O O9 0.697836 0.814562 0.697153
O O10 0.744976 0.726584 0.819321
O O11 0.206784 0.092132 0.673639
O O12 0.097632 0.167856 0.501996
#
# Coordination Sequence:
#
# PCOD9377492 Si02
#       6
#     8   8   8   8   8   8
#     4  11  19  33  52  71 104 137 172 210 260 306
#     4  11  21  31  49  74 103 143 183 206 252 315
#     4  11  21  33  52  73 104 140 174 217 260 310
#     4  11  20  33  51  72 104 142 172 211 255 304
#     4  11  19  33  46  70 105 143 176 209 247 310
#     4  11  22  35  51  78 106 143 176 215 260 311
#
# _framework density 20.660992
#
# number of rings (size 3 to 8) (size 9 to 14) (size 15 to 20)
#    0.000    1.000    8.333    2.000    0.000    1.333 
#    0.000    0.000    0.000    0.000    0.000    0.000 
#    0.000   20.000    0.000    0.000    0.000    0.000 
#
# Total GULP energy -133673.246307 kJ/mol
# GULP energy per Si atom -5569.718596 kJ/mol
# Density = 2.061397 g / cm^3
# Si number density = 20.660992 Si / 1000 Ang^3
#
#
#
# Elastic Constant Matrix: (Units=GPa)
#
#
# Indices 1 2 3 4 5 6 
#
# 1 29.3327 17.4798 -5.8694 -0.0001 -0.0001 0.0000
# 2 17.4798 147.7377 0.0337 -0.0003 -0.0002 0.0000
# 3 -5.8694 0.0337 43.3669 -0.0017 0.0001 0.0001
# 4 -0.0001 -0.0003 -0.0017 24.4547 0.0002 -0.0001
# 5 -0.0001 -0.0002 0.0001 0.0002 20.3011 0.0000
# 6 0.0000 0.0000 0.0001 -0.0001 0.0000 32.4580
#
#
#
# Elastic Compliance Matrix: (Units=1/GPa)
#
#
# Indices 1 2 3 4 5 6 
#
# 1 0.037780 -0.004471 0.005117 0.000000 0.000000 0.000000
# 2 -0.004471 0.007298 -0.000611 0.000000 0.000000 0.000000
# 3 0.005117 -0.000611 0.023752 0.000002 0.000000 0.000000
# 4 0.000000 0.000000 0.000002 0.040892 0.000000 0.000000
# 5 0.000000 0.000000 0.000000 0.000000 0.049258 0.000000
# 6 0.000000 0.000000 0.000000 0.000000 0.000000 0.030809
#
#
# Mechanical properties :
#
#
# Convention : Reuss Voigt Hill
#
# Bulk Modulus (GPa) = 14.51392 27.08062 20.79727
# Shear Modulus (GPa) = 23.50880 29.36229 26.43555
#
# Velocity S-wave (km/s) = 3.37684 3.77390 3.58088
# Velocity P-wave (km/s) = 4.71637 5.66792 5.21390
#
# Compressibility (1/GPa) = 0.06889936
#
# Stress axis : x y z
#
# Youngs Moduli (GPa) = 26.46905 137.02559 42.10166
#
# Poissons Ratio (x) = 0.61266 -0.21542
# Poissons Ratio (y) = 0.11835 0.02572
# Poissons Ratio (z) = -0.13543 0.08370
#
# Static dielectric constant tensor:
#      x y z
#    x 1.790070 0.000000 0.000000 
#    y 0.000000 1.869600 0.000000 
#    z 0.000000 0.000000 1.867890 
# 
# From -- ./inp_files/6311.got.cif
#   From: 2010.05.17/outbox.cif.g08.bks.cpg/sg45_4_cif.got.tgz:6311.got - 2010.06.03 19:51:22.
