data_PCOD9377060
_publ_section_title
;
Structure prediction by ZEFSAII (Michael W. Deem and Ramdas Pophale) SiO2 
 PCOD9377060
Probable space group: I B A 2
;
_chemical_formula_sum "Si O2"
_cell_formula_units_Z 56
_cell_length_a 25.459429
_cell_length_b 8.560592
_cell_length_c 11.684573
_cell_angle_alpha 90.000000
_cell_angle_beta 90.000000
_cell_angle_gamma 90.000000
_cell_volume 2546.626795
_symmetry_space_group_name_H-M "I B A 2"
_symmetry_group_IT_number 45
_symmetry_cell_setting 'orthorhombic'
loop_
_space_group_symop_operation_xyz
x,y,z
-x,-y,z
-x,y,1/2+z
x,-y,1/2+z
1/2+x,1/2+y,1/2+z
1/2-x,1/2-y,1/2+z
1/2-x,1/2+y,z
1/2+x,1/2-y,z
loop_
_atom_site_type_symbol
_atom_site_label
_atom_site_fract_x
_atom_site_fract_y
_atom_site_fract_z
Si Si1 0.732988 0.223196 0.280300
Si Si2 0.401449 0.002554 0.490326
Si Si3 0.901252 0.841611 0.572673
Si Si4 0.554141 0.765788 0.304168
Si Si5 0.000000 0.500000 0.656190
Si Si6 0.290086 0.036568 0.442887
Si Si7 0.202222 0.993917 0.622909
Si Si8 0.500000 0.500000 0.957624
O O1 0.699302 0.091886 0.344553
O O2 0.764894 0.319497 0.375811
O O3 0.774824 0.135833 0.199387
O O4 0.699864 0.344909 0.205503
O O5 0.420172 0.095202 0.378101
O O6 0.394673 0.814839 0.496966
O O7 0.448457 0.026979 0.580072
O O8 0.343264 0.069529 0.511669
O O9 0.906440 0.795714 0.706647
O O10 0.851775 0.955740 0.564179
O O11 0.955465 0.919277 0.534065
O O12 0.508030 0.848985 0.233647
O O13 0.530150 0.629078 0.381183
O O14 0.246744 0.968875 0.528111
#
# Coordination Sequence:
#
# PCOD9377060 Si02
#       8
#     8   8   8   8   4   8   8   4
#     4  10  23  40  65  96 128 172 214 258 330 386
#     4  11  23  42  68  93 125 170 219 264 318 386
#     4  11  25  43  65  96 129 169 216 265 326 386
#     4  11  23  43  66  91 130 167 211 270 321 387
#     4  10  22  42  66  94 122 164 218 266 320 382
#     4  11  23  42  65  95 130 168 215 266 319 387
#     4  11  23  44  65  95 134 168 215 270 319 387
#     4  12  26  44  66  96 130 170 214 264 330 384
#
# _framework density 21.989872999999999
#
# number of rings (size 3 to 8) (size 9 to 14) (size 15 to 20)
#    0.000    1.143    0.000    6.857    0.000    9.143 
#    0.000    5.714    0.000    0.000    0.000    0.000 
#    0.000    0.000    0.000    0.000    0.000    0.000 
#
# Total GULP energy -156575.787461 kJ/mol
# GULP energy per Si atom -5591.992409 kJ/mol
# Density = 2.193982 g / cm^3
# Si number density = 21.989873 Si / 1000 Ang^3
#
#
#
# Elastic Constant Matrix: (Units=GPa)
#
#
# Indices 1 2 3 4 5 6 
#
# 1 103.4666 23.4988 31.6525 0.0000 0.0000 0.0000
# 2 23.4988 77.5694 43.2391 0.0000 0.0000 0.0000
# 3 31.6525 43.2391 90.6709 0.0000 0.0000 0.0000
# 4 0.0000 0.0000 0.0000 28.4169 0.0000 0.0000
# 5 0.0000 0.0000 0.0000 0.0000 -6.2549 0.0000
# 6 0.0000 0.0000 0.0000 0.0000 0.0000 12.6787
#
#
#
# Elastic Compliance Matrix: (Units=1/GPa)
#
#
# Indices 1 2 3 4 5 6 
#
# 1 0.010968 -0.001619 -0.003057 0.000000 0.000000 0.000000
# 2 -0.001619 0.017798 -0.007923 0.000000 0.000000 0.000000
# 3 -0.003057 -0.007923 0.015874 0.000000 0.000000 0.000000
# 4 0.000000 0.000000 0.000000 0.035190 0.000000 0.000000
# 5 0.000000 0.000000 0.000000 0.000000 -0.159876 0.000000
# 6 0.000000 0.000000 0.000000 0.000000 0.000000 0.078872
#
#
# Mechanical properties :
#
#
# Convention : Reuss Voigt Hill
#
# Bulk Modulus (GPa) = 51.42965 52.05419 51.74192
# Shear Modulus (GPa) = 163.90944 18.52258 91.21601
#
# Velocity S-wave (km/s) = 8.64294 2.90543 6.44756
# Velocity P-wave (km/s) = 11.09230 5.91427 8.88870
#
# Compressibility (1/GPa) = 0.01944404
#
# Stress axis : x y z
#
# Youngs Moduli (GPa) = 91.17670 56.18525 62.99548
#
# Poissons Ratio (x) = 0.09094 0.19257
# Poissons Ratio (y) = 0.14758 0.49909
# Poissons Ratio (z) = 0.27872 0.44513
#
# Static dielectric constant tensor:
#      x y z
#    x 1.792370 0.000000 0.000000 
#    y 0.000000 1.825730 0.000000 
#    z 0.000000 0.000000 1.817590 
# 
# From -- ./inp_files/4888.got.cif
#   From: 2010.05.17/outbox.cif.g08.bks.cpg/sg45_3_cif.got.tgz:4888.got - 2010.06.03 19:51:22.
