data_PCOD9377585
_publ_section_title
;
Structure prediction by ZEFSAII (Michael W. Deem and Ramdas Pophale) SiO2 
 PCOD9377585
Probable space group: I B A 2
;
_chemical_formula_sum "Si O2"
_cell_formula_units_Z 56
_cell_length_a 14.701742
_cell_length_b 15.198330
_cell_length_c 10.959512
_cell_angle_alpha 90.000000
_cell_angle_beta 90.000000
_cell_angle_gamma 90.000000
_cell_volume 2448.814475
_symmetry_space_group_name_H-M "I B A 2"
_symmetry_group_IT_number 45
_symmetry_cell_setting 'orthorhombic'
loop_
_space_group_symop_operation_xyz
x,y,z
-x,-y,z
-x,y,1/2+z
x,-y,1/2+z
1/2+x,1/2+y,1/2+z
1/2-x,1/2-y,1/2+z
1/2-x,1/2+y,z
1/2+x,1/2-y,z
loop_
_atom_site_type_symbol
_atom_site_label
_atom_site_fract_x
_atom_site_fract_y
_atom_site_fract_z
Si Si1 0.073983 0.174316 0.812550
Si Si2 0.755174 0.701616 0.437176
Si Si3 0.849099 0.130941 0.046801
Si Si4 0.999943 0.657082 0.773699
Si Si5 0.343356 0.914655 0.630295
Si Si6 0.000000 0.000000 0.932241
Si Si7 0.816899 0.588798 0.204380
Si Si8 0.000000 0.500000 0.966565
O O1 0.149952 0.215438 0.903642
O O2 0.106592 0.164120 0.673459
O O3 0.991388 0.243391 0.817541
O O4 0.048831 0.077085 0.856661
O O5 0.816968 0.787383 0.461715
O O6 0.769329 0.637513 0.553266
O O7 0.787101 0.646018 0.319958
O O8 0.750878 0.096231 0.091592
O O9 0.918773 0.055772 0.999334
O O10 0.908088 0.653456 0.696836
O O11 0.081511 0.624893 0.687979
O O12 0.990182 0.585042 0.879537
O O13 0.312317 0.984987 0.730897
O O14 0.411108 0.972467 0.544465
#
# Coordination Sequence:
#
# PCOD9377585 Si02
#       8
#     8   8   8   8   8   4   8   4
#     4  11  27  46  74 108 144 200 257 304 370 462
#     4  11  24  46  67 104 148 191 248 308 373 441
#     4  11  26  48  72 103 146 196 251 310 375 444
#     4  12  22  41  67 108 142 182 239 303 373 455
#     4  12  21  40  68  99 145 182 229 302 372 445
#     4  12  26  52  76 106 148 208 254 312 382 462
#     4  11  23  41  66 107 139 181 243 299 370 451
#     4  12  22  36  66 110 138 184 224 294 384 432
#
# _framework density 22.868209
#
# number of rings (size 3 to 8) (size 9 to 14) (size 15 to 20)
#    0.000    0.571    5.714    2.143    2.000    1.143 
#    5.143    4.286    0.000    0.000    0.000    0.000 
#    0.000    0.000    0.000    0.000    0.000    0.000 
#
# Total GULP energy -156252.469292 kJ/mol
# GULP energy per Si atom -5580.445332 kJ/mol
# Density = 2.281616 g / cm^3
# Si number density = 22.868209 Si / 1000 Ang^3
#
#
#
# Elastic Constant Matrix: (Units=GPa)
#
#
# Indices 1 2 3 4 5 6 
#
# 1 45.9608 52.5580 28.8968 0.0000 0.0000 0.0000
# 2 52.5580 179.3951 50.0105 0.0000 0.0000 0.0000
# 3 28.8968 50.0105 60.5858 0.0000 0.0000 0.0000
# 4 0.0000 0.0000 0.0000 36.5215 0.0000 0.0000
# 5 0.0000 0.0000 0.0000 0.0000 30.7444 0.0000
# 6 0.0000 0.0000 0.0000 0.0000 0.0000 37.2405
#
#
#
# Elastic Compliance Matrix: (Units=1/GPa)
#
#
# Indices 1 2 3 4 5 6 
#
# 1 0.038150 -0.007929 -0.011651 0.000000 0.000000 0.000000
# 2 -0.007929 0.008888 -0.003555 0.000000 0.000000 0.000000
# 3 -0.011651 -0.003555 0.024997 0.000000 0.000000 0.000000
# 4 0.000000 0.000000 0.000000 0.027381 0.000000 0.000000
# 5 0.000000 0.000000 0.000000 0.000000 0.032526 0.000000
# 6 0.000000 0.000000 0.000000 0.000000 0.000000 0.026852
#
#
# Mechanical properties :
#
#
# Convention : Reuss Voigt Hill
#
# Bulk Modulus (GPa) = 38.81177 60.98583 49.89880
# Shear Modulus (GPa) = 23.40235 31.19972 27.30103
#
# Velocity S-wave (km/s) = 3.20247 3.69769 3.45895
# Velocity P-wave (km/s) = 5.53924 6.70498 6.14980
#
# Compressibility (1/GPa) = 0.02576538
#
# Stress axis : x y z
#
# Youngs Moduli (GPa) = 26.21229 112.50711 40.00471
#
# Poissons Ratio (x) = 0.89207 0.46609
# Poissons Ratio (y) = 0.20784 0.14222
# Poissons Ratio (z) = 0.30540 0.39997
#
# Static dielectric constant tensor:
#      x y z
#    x 1.958740 0.000000 0.000000 
#    y 0.000000 1.887630 0.000000 
#    z 0.000000 0.000000 1.862190 
# 
# From -- ./inp_files/4161.got.cif
#   From: 2010.05.17/outbox.cif.g08.bks.cpg/sg45_3_cif.got.tgz:4161.got - 2010.06.03 19:51:22.
