data_PCOD9377019
_publ_section_title
;
Structure prediction by ZEFSAII (Michael W. Deem and Ramdas Pophale) SiO2 
 PCOD9377019
Probable space group: I B A 2
;
_chemical_formula_sum "Si O2"
_cell_formula_units_Z 44
_cell_length_a 12.166167
_cell_length_b 8.746381
_cell_length_c 19.550375
_cell_angle_alpha 90.000000
_cell_angle_beta 90.000000
_cell_angle_gamma 90.000000
_cell_volume 2080.354072
_symmetry_space_group_name_H-M "I B A 2"
_symmetry_group_IT_number 45
_symmetry_cell_setting 'orthorhombic'
loop_
_space_group_symop_operation_xyz
x,y,z
-x,-y,z
-x,y,1/2+z
x,-y,1/2+z
1/2+x,1/2+y,1/2+z
1/2-x,1/2-y,1/2+z
1/2-x,1/2+y,z
1/2+x,1/2-y,z
loop_
_atom_site_type_symbol
_atom_site_label
_atom_site_fract_x
_atom_site_fract_y
_atom_site_fract_z
Si Si1 0.320781 0.633761 0.189090
Si Si2 0.888527 0.584682 0.856220
Si Si3 0.229603 0.140104 0.786407
Si Si4 0.808616 0.769192 0.568570
Si Si5 0.000000 0.000000 0.600639
Si Si6 0.380659 0.971238 0.012749
O O1 0.320825 0.755009 0.249775
O O2 0.311028 0.470230 0.225941
O O3 0.217845 0.678392 0.139577
O O4 0.429212 0.619427 0.144644
O O5 0.858997 0.743668 0.818678
O O6 0.787540 0.470144 0.840656
O O7 0.000000 0.500000 0.832694
O O8 0.896716 0.600458 0.937894
O O9 0.907953 0.891853 0.565728
O O10 0.698409 0.862949 0.554838
O O11 0.827022 0.639293 0.511915
O O12 0.500000 0.000000 0.044860
#
# Coordination Sequence:
#
# PCOD9377019 Si02
#       6
#     8   8   8   8   4   8
#     4  11  22  39  63  96 128 167 210 268 333 388
#     4  10  23  42  64  92 125 175 220 269 328 380
#     4  10  22  41  63  92 130 166 215 271 318 399
#     4  12  23  43  65  99 131 172 219 276 334 404
#     4  12  24  38  66  98 130 168 216 268 344 394
#     4  11  24  42  67  92 133 176 222 274 331 391
#
# _framework density 21.150245000000002
#
# number of rings (size 3 to 8) (size 9 to 14) (size 15 to 20)
#    0.000    1.091    3.636    2.182    2.545    0.000 
#    0.000    1.818    0.000    0.000    0.000    0.000 
#    0.000    0.000    0.000    0.000    0.000    0.000 
#
# Total GULP energy -122729.337997 kJ/mol
# GULP energy per Si atom -5578.606273 kJ/mol
# Density = 2.110211 g / cm^3
# Si number density = 21.150245 Si / 1000 Ang^3
#
#
#
# Elastic Constant Matrix: (Units=GPa)
#
#
# Indices 1 2 3 4 5 6 
#
# 1 104.0071 53.9355 18.0520 0.0000 0.0000 0.0000
# 2 53.9355 122.7399 33.6171 0.0000 0.0000 0.0000
# 3 18.0520 33.6171 48.7672 0.0000 0.0000 0.0000
# 4 0.0000 0.0000 0.0000 1.7880 0.0000 0.0000
# 5 0.0000 0.0000 0.0000 0.0000 27.5605 0.0000
# 6 0.0000 0.0000 0.0000 0.0000 0.0000 37.5533
#
#
#
# Elastic Compliance Matrix: (Units=1/GPa)
#
#
# Indices 1 2 3 4 5 6 
#
# 1 0.012495 -0.005207 -0.001036 0.000000 0.000000 0.000000
# 2 -0.005207 0.012213 -0.006492 0.000000 0.000000 0.000000
# 3 -0.001036 -0.006492 0.025364 0.000000 0.000000 0.000000
# 4 0.000000 0.000000 0.000000 0.559280 0.000000 0.000000
# 5 0.000000 0.000000 0.000000 0.000000 0.036284 0.000000
# 6 0.000000 0.000000 0.000000 0.000000 0.000000 0.026629
#
#
# Mechanical properties :
#
#
# Convention : Reuss Voigt Hill
#
# Bulk Modulus (GPa) = 40.64507 54.08036 47.36271
# Shear Modulus (GPa) = 7.08281 24.70767 15.89524
#
# Velocity S-wave (km/s) = 1.83196 3.42160 2.74440
# Velocity P-wave (km/s) = 4.87173 6.42144 5.69950
#
# Compressibility (1/GPa) = 0.02460323
#
# Stress axis : x y z
#
# Youngs Moduli (GPa) = 80.03441 81.87762 39.42588
#
# Poissons Ratio (x) = 0.42632 0.04084
# Poissons Ratio (y) = 0.41672 0.25594
# Poissons Ratio (z) = 0.08290 0.53153
#
# Static dielectric constant tensor:
#      x y z
#    x 1.771000 0.000000 0.000000 
#    y 0.000000 1.815510 0.000000 
#    z 0.000000 0.000000 1.807470 
# 
# From -- ./inp_files/9654.got.cif
#   From: 2010.05.17/outbox.cif.g08.bks.cpg/sg45_5_cif.got.tgz:9654.got - 2010.06.03 19:51:22.
