data_PCOD9377431
_publ_section_title
;
Structure prediction by ZEFSAII (Michael W. Deem and Ramdas Pophale) SiO2 
 PCOD9377431
Probable space group: I B A 2
;
_chemical_formula_sum "Si O2"
_cell_formula_units_Z 56
_cell_length_a 10.327793
_cell_length_b 20.938735
_cell_length_c 11.444528
_cell_angle_alpha 90.000000
_cell_angle_beta 90.000000
_cell_angle_gamma 90.000000
_cell_volume 2474.889718
_symmetry_space_group_name_H-M "I B A 2"
_symmetry_group_IT_number 45
_symmetry_cell_setting 'orthorhombic'
loop_
_space_group_symop_operation_xyz
x,y,z
-x,-y,z
-x,y,1/2+z
x,-y,1/2+z
1/2+x,1/2+y,1/2+z
1/2-x,1/2-y,1/2+z
1/2-x,1/2+y,z
1/2+x,1/2-y,z
loop_
_atom_site_type_symbol
_atom_site_label
_atom_site_fract_x
_atom_site_fract_y
_atom_site_fract_z
Si Si1 0.854537 0.024844 0.243190
Si Si2 0.868786 0.679833 0.168302
Si Si3 0.238503 0.397244 0.824912
Si Si4 0.761745 0.632949 0.400736
Si Si5 0.508575 0.924657 0.510229
Si Si6 0.129089 0.880439 0.056811
Si Si7 0.866149 0.820871 0.122846
O O1 0.829739 0.083551 0.331476
O O2 0.827555 0.052704 0.114476
O O3 0.759923 0.966820 0.270460
O O4 0.000000 0.000000 0.252571
O O5 0.839223 0.671545 0.303502
O O6 0.730080 0.672120 0.103358
O O7 0.919234 0.750414 0.147221
O O8 0.952477 0.621188 0.118195
O O9 0.109581 0.403520 0.905899
O O10 0.265384 0.346050 0.721446
O O11 0.353310 0.384225 0.919040
O O12 0.694143 0.677801 0.493994
O O13 0.865485 0.592318 0.470575
O O14 0.500000 0.000000 0.534942
O O15 0.988359 0.867859 0.109430
#
# Coordination Sequence:
#
# PCOD9377431 Si02
#       7
#     8   8   8   8   8   8   8
#     4  11  21  43  70 104 141 179 230 300 359 421
#     4  10  28  47  70 104 147 190 238 304 361 442
#     4  11  25  43  73 109 143 186 239 303 361 437
#     4  11  27  45  72 108 138 191 243 298 369 443
#     4  11  25  49  75 105 147 190 243 309 369 441
#     4  10  25  46  67 105 143 180 233 297 355 430
#     4  12  27  45  75 105 141 199 240 291 375 437
#
# _framework density 22.627272000000001
#
# number of rings (size 3 to 8) (size 9 to 14) (size 15 to 20)
#    0.000    1.143    2.857    0.857   12.000    2.286 
#    0.000    0.000    0.000    0.000    0.000    0.000 
#    0.000    0.000    0.000    0.000    0.000    0.000 
#
# Total GULP energy -156528.019960 kJ/mol
# GULP energy per Si atom -5590.286427 kJ/mol
# Density = 2.257577 g / cm^3
# Si number density = 22.627272 Si / 1000 Ang^3
#
#
#
# Elastic Constant Matrix: (Units=GPa)
#
#
# Indices 1 2 3 4 5 6 
#
# 1 41.7206 -1.1477 4.7888 -0.0001 0.0000 0.0000
# 2 -1.1477 99.0907 34.1795 0.0002 0.0001 0.0000
# 3 4.7888 34.1795 116.0523 0.0000 0.0002 -0.0001
# 4 -0.0001 0.0002 0.0000 16.3917 0.0000 0.0000
# 5 0.0000 0.0001 0.0002 0.0000 22.4872 0.0000
# 6 0.0000 0.0000 -0.0001 0.0000 0.0000 21.1012
#
#
#
# Elastic Compliance Matrix: (Units=1/GPa)
#
#
# Indices 1 2 3 4 5 6 
#
# 1 0.024126 0.000693 -0.001200 0.000000 0.000000 0.000000
# 2 0.000693 0.011253 -0.003343 0.000000 0.000000 0.000000
# 3 -0.001200 -0.003343 0.009651 0.000000 0.000000 0.000000
# 4 0.000000 0.000000 0.000000 0.061006 0.000000 0.000000
# 5 0.000000 0.000000 0.000000 0.000000 0.044470 0.000000
# 6 0.000000 0.000000 0.000000 0.000000 0.000000 0.047391
#
#
# Mechanical properties :
#
#
# Convention : Reuss Voigt Hill
#
# Bulk Modulus (GPa) = 26.78745 36.94499 31.86622
# Shear Modulus (GPa) = 22.93176 26.59889 24.76533
#
# Velocity S-wave (km/s) = 3.18694 3.43231 3.31190
# Velocity P-wave (km/s) = 5.04047 5.66311 5.36084
#
# Compressibility (1/GPa) = 0.03733091
#
# Stress axis : x y z
#
# Youngs Moduli (GPa) = 41.44953 88.86660 103.61817
#
# Poissons Ratio (x) = -0.06161 0.12431
# Poissons Ratio (y) = -0.02873 0.34637
# Poissons Ratio (z) = 0.04973 0.29706
#
# Static dielectric constant tensor:
#      x y z
#    x 1.865550 0.000000 0.000000 
#    y 0.000000 1.832690 0.000000 
#    z 0.000000 0.000000 1.855370 
# 
# From -- ./inp_files/3764.got.cif
#   From: 2010.05.17/outbox.cif.g08.bks.cpg/sg45_2_cif.got.tgz:3764.got - 2010.06.03 19:51:22.
