data_PCOD9377209
_publ_section_title
;
Structure prediction by ZEFSAII (Michael W. Deem and Ramdas Pophale) SiO2 
 PCOD9377209
Probable space group: I B A 2
;
_chemical_formula_sum "Si O2"
_cell_formula_units_Z 60
_cell_length_a 19.088676
_cell_length_b 11.668096
_cell_length_c 12.304962
_cell_angle_alpha 90.000000
_cell_angle_beta 90.000000
_cell_angle_gamma 90.000000
_cell_volume 2740.665779
_symmetry_space_group_name_H-M "I B A 2"
_symmetry_group_IT_number 45
_symmetry_cell_setting 'orthorhombic'
loop_
_space_group_symop_operation_xyz
x,y,z
-x,-y,z
-x,y,1/2+z
x,-y,1/2+z
1/2+x,1/2+y,1/2+z
1/2-x,1/2-y,1/2+z
1/2-x,1/2+y,z
1/2+x,1/2-y,z
loop_
_atom_site_type_symbol
_atom_site_label
_atom_site_fract_x
_atom_site_fract_y
_atom_site_fract_z
Si Si1 0.000000 0.500000 0.817430
Si Si2 0.864425 0.604937 0.837774
Si Si3 0.164108 0.928483 0.269877
Si Si4 0.873727 0.830038 0.172820
Si Si5 0.067058 0.170733 0.939396
Si Si6 0.274027 0.227023 0.160080
Si Si7 0.432711 0.231431 0.873747
Si Si8 0.294942 0.885249 0.431305
O O1 0.070697 0.446911 0.766000
O O2 0.031780 0.606617 0.883041
O O3 0.896503 0.707430 0.908566
O O4 0.804904 0.653661 0.759833
O O5 0.833223 0.506372 0.913579
O O6 0.094133 0.905685 0.339646
O O7 0.178901 0.841749 0.169521
O O8 0.227298 0.896456 0.353585
O O9 0.158338 0.057170 0.228829
O O10 0.808064 0.743078 0.166138
O O11 0.932319 0.773481 0.249162
O O12 0.903864 0.862561 0.056118
O O13 0.983343 0.185245 0.939755
O O14 0.277374 0.148241 0.053616
O O15 0.351551 0.213474 0.901150
#
# Coordination Sequence:
#
# PCOD9377209 Si02
#       8
#     4   8   8   8   8   8   8   8
#     4   8  18  40  66  94 132 178 214 284 342 390
#     4   9  20  39  65  98 138 169 228 287 344 419
#     4  11  24  43  65 100 138 175 234 290 345 433
#     4  12  24  42  71  97 134 187 230 287 363 418
#     4  10  24  45  64  96 140 177 224 289 352 424
#     4  11  23  40  65 102 134 178 226 286 354 418
#     4  10  23  43  68 100 137 179 231 286 344 424
#     4  11  21  40  70  99 131 177 231 286 351 413
#
# _framework density 21.892491
#
# number of rings (size 3 to 8) (size 9 to 14) (size 15 to 20)
#    0.000    1.600    4.000    0.000    0.000    8.000 
#    0.000    6.667    0.000    0.000    0.000    0.000 
#    0.000    0.000    0.000    0.000    0.000    0.000 
#
# Total GULP energy -167233.383838 kJ/mol
# GULP energy per Si atom -5574.446128 kJ/mol
# Density = 2.184266 g / cm^3
# Si number density = 21.892491 Si / 1000 Ang^3
#
#
#
# Elastic Constant Matrix: (Units=GPa)
#
#
# Indices 1 2 3 4 5 6 
#
# 1 79.5573 6.1180 17.9266 0.0000 0.0000 0.0000
# 2 6.1180 53.1107 17.1414 0.0000 0.0000 0.0000
# 3 17.9266 17.1414 69.5678 0.0000 0.0000 0.0000
# 4 0.0000 0.0000 0.0000 16.2366 0.0000 0.0000
# 5 0.0000 0.0000 0.0000 0.0000 14.5083 0.0000
# 6 0.0000 0.0000 0.0000 0.0000 0.0000 19.8643
#
#
#
# Elastic Compliance Matrix: (Units=1/GPa)
#
#
# Indices 1 2 3 4 5 6 
#
# 1 0.013355 -0.000465 -0.003327 0.000000 0.000000 0.000000
# 2 -0.000465 0.020471 -0.004924 0.000000 0.000000 0.000000
# 3 -0.003327 -0.004924 0.016445 0.000000 0.000000 0.000000
# 4 0.000000 0.000000 0.000000 0.061589 0.000000 0.000000
# 5 0.000000 0.000000 0.000000 0.000000 0.068926 0.000000
# 6 0.000000 0.000000 0.000000 0.000000 0.000000 0.050342
#
#
# Mechanical properties :
#
#
# Convention : Reuss Voigt Hill
#
# Bulk Modulus (GPa) = 30.45102 31.62311 31.03707
# Shear Modulus (GPa) = 19.26730 20.85848 20.06289
#
# Velocity S-wave (km/s) = 2.96984 3.09004 3.03054
# Velocity P-wave (km/s) = 5.06947 5.21606 5.14329
#
# Compressibility (1/GPa) = 0.03283962
#
# Stress axis : x y z
#
# Youngs Moduli (GPa) = 74.87868 48.84846 60.80830
#
# Poissons Ratio (x) = 0.02270 0.20230
# Poissons Ratio (y) = 0.03479 0.29945
# Poissons Ratio (z) = 0.24911 0.24055
#
# Static dielectric constant tensor:
#      x y z
#    x 1.862100 0.000000 0.000000 
#    y 0.000000 1.982740 0.000000 
#    z 0.000000 0.000000 1.790650 
# 
# From -- ./inp_files/3830.got.cif
#   From: 2010.05.17/outbox.cif.g08.bks.cpg/sg45_2_cif.got.tgz:3830.got - 2010.06.03 19:51:22.
