data_PCOD9377814
_publ_section_title
;
Structure prediction by ZEFSAII (Michael W. Deem and Ramdas Pophale) SiO2 
 PCOD9377814
Probable space group: I M A 2
;
_chemical_formula_sum "Si O2"
_cell_formula_units_Z 44
_cell_length_a 8.355401
_cell_length_b 13.443602
_cell_length_c 19.732178
_cell_angle_alpha 90.000000
_cell_angle_beta 90.000000
_cell_angle_gamma 90.000000
_cell_volume 2216.450154
_symmetry_space_group_name_H-M "I M A 2"
_symmetry_group_IT_number 46
_symmetry_cell_setting 'orthorhombic'
loop_
_space_group_symop_operation_xyz
x,y,z
-x,-y,z
1/2-x,y,z
1/2+x,-y,z
1/2+x,1/2+y,1/2+z
1/2-x,1/2-y,1/2+z
-x,1/2+y,1/2+z
x,1/2-y,1/2+z
loop_
_atom_site_type_symbol
_atom_site_label
_atom_site_fract_x
_atom_site_fract_y
_atom_site_fract_z
Si Si1 0.750000 0.766155 0.730541
Si Si2 0.063423 0.893220 0.770613
Si Si3 0.250000 0.156192 0.585694
Si Si4 0.750000 0.647569 0.854191
Si Si5 0.750000 0.816088 0.964372
Si Si6 0.916928 0.377120 0.915359
Si Si7 0.500000 0.500000 0.042290
Si Si8 0.078197 0.638620 0.430510
O O1 0.580976 0.818815 0.751270
O O2 0.750000 0.772034 0.649737
O O3 0.750000 0.665793 0.774379
O O4 0.250000 0.873617 0.748756
O O5 0.069739 0.895306 0.852568
O O6 0.000000 0.000000 0.746271
O O7 0.250000 0.225813 0.518811
O O8 0.396790 0.078375 0.584201
O O9 0.750000 0.757150 0.891647
O O10 0.585557 0.598880 0.879912
O O11 0.589189 0.881198 0.967326
O O12 0.750000 0.397457 0.877405
O O13 0.919799 0.258997 0.927673
O O14 0.911723 0.429699 0.987942
O O15 0.250000 0.606650 0.459239
#
# Coordination Sequence:
#
# PCOD9377814 Si02
#       8
#     4   8   4   4   4   8   4   8
#     4  12  24  40  50  73 116 156 184 228 270 337
#     4  11  21  33  53  75 104 142 185 225 274 321
#     4  12  26  34  50  79 118 155 182 217 282 352
#     4  10  18  36  58  72  96 144 199 241 266 306
#     4  10  16  36  52  70  98 139 181 226 264 313
#     4  10  18  30  55  77 103 140 183 241 268 314
#     4  12  20  36  50  82 122 148 182 220 282 356
#     4   9  17  30  51  75  94 132 177 236 270 303
#
# _framework density 19.851562000000001
#
# number of rings (size 3 to 8) (size 9 to 14) (size 15 to 20)
#    0.000    1.455    9.091    0.000    1.273    0.000 
#    0.000    0.000    0.000    0.000    0.000    0.000 
#    2.727    0.000    0.000    0.000    0.000    0.000 
#
# Total GULP energy -122491.540008 kJ/mol
# GULP energy per Si atom -5567.797273 kJ/mol
# Density = 1.980638 g / cm^3
# Si number density = 19.851562 Si / 1000 Ang^3
#
#
#
# Elastic Constant Matrix: (Units=GPa)
#
#
# Indices 1 2 3 4 5 6 
#
# 1 222.6366 21.4313 22.3324 0.0000 0.0000 0.0000
# 2 21.4313 31.9542 7.0549 0.0000 0.0000 0.0000
# 3 22.3324 7.0549 70.5714 0.0000 0.0000 0.0000
# 4 0.0000 0.0000 0.0000 17.1646 0.0000 0.0000
# 5 0.0000 0.0000 0.0000 0.0000 18.7498 0.0000
# 6 0.0000 0.0000 0.0000 0.0000 0.0000 -8.8260
#
#
#
# Elastic Compliance Matrix: (Units=1/GPa)
#
#
# Indices 1 2 3 4 5 6 
#
# 1 0.004907 -0.003015 -0.001252 0.000000 0.000000 0.000000
# 2 -0.003015 0.033853 -0.002430 0.000000 0.000000 0.000000
# 3 -0.001252 -0.002430 0.014809 0.000000 0.000000 0.000000
# 4 0.000000 0.000000 0.000000 0.058259 0.000000 0.000000
# 5 0.000000 0.000000 0.000000 0.000000 0.053334 0.000000
# 6 0.000000 0.000000 0.000000 0.000000 0.000000 -0.113301
#
#
# Mechanical properties :
#
#
# Convention : Reuss Voigt Hill
#
# Bulk Modulus (GPa) = 24.89023 47.42217 36.15620
# Shear Modulus (GPa) = 63.57452 23.70724 43.64088
#
# Velocity S-wave (km/s) = 5.66520 3.45951 4.69375
# Velocity P-wave (km/s) = 7.44030 6.31647 6.90130
#
# Compressibility (1/GPa) = 0.04017640
#
# Stress axis : x y z
#
# Youngs Moduli (GPa) = 203.77410 29.53910 67.52632
#
# Poissons Ratio (x) = 0.08906 0.08451
# Poissons Ratio (y) = 0.61438 0.16410
# Poissons Ratio (z) = 0.25503 0.07179
#
# Static dielectric constant tensor:
#      x y z
#    x 1.840180 0.000000 0.000000 
#    y 0.000000 1.726970 0.000000 
#    z 0.000000 0.000000 1.657080 
# 
# From -- ./inp_files/18162.got.cif
#   From: 2010.05.17/outbox.cif.g08.bks.cpg/sg46_10_cif.got.tgz:18162.got - 2010.06.03 19:58:25.
