data_PCOD9377457
_publ_section_title
;
Structure prediction by ZEFSAII (Michael W. Deem and Ramdas Pophale) SiO2 
 PCOD9377457
Probable space group: I B A 2
;
_chemical_formula_sum "Si O2"
_cell_formula_units_Z 56
_cell_length_a 20.040422
_cell_length_b 14.541545
_cell_length_c 7.811792
_cell_angle_alpha 90.000000
_cell_angle_beta 90.000000
_cell_angle_gamma 90.000000
_cell_volume 2276.502256
_symmetry_space_group_name_H-M "I B A 2"
_symmetry_group_IT_number 45
_symmetry_cell_setting 'orthorhombic'
loop_
_space_group_symop_operation_xyz
x,y,z
-x,-y,z
-x,y,1/2+z
x,-y,1/2+z
1/2+x,1/2+y,1/2+z
1/2-x,1/2-y,1/2+z
1/2-x,1/2+y,z
1/2+x,1/2-y,z
loop_
_atom_site_type_symbol
_atom_site_label
_atom_site_fract_x
_atom_site_fract_y
_atom_site_fract_z
Si Si1 0.061498 0.875198 0.197300
Si Si2 0.703944 0.591257 0.214951
Si Si3 0.377067 0.890284 0.895185
Si Si4 0.500000 0.500000 0.460364
Si Si5 0.000000 0.500000 0.964144
Si Si6 0.275221 0.387799 0.813021
Si Si7 0.164541 0.308977 0.262993
Si Si8 0.941991 0.311741 0.073923
O O1 0.135602 0.860697 0.267183
O O2 0.029830 0.789976 0.096960
O O3 0.016966 0.913589 0.346229
O O4 0.061717 0.964187 0.071750
O O5 0.697411 0.482412 0.238146
O O6 0.770053 0.629529 0.307384
O O7 0.710900 0.616176 0.015619
O O8 0.425643 0.980280 0.888007
O O9 0.365138 0.851734 0.086818
O O10 0.304790 0.900365 0.807418
O O11 0.413596 0.823922 0.764355
O O12 0.011358 0.599290 0.051046
O O13 0.306278 0.294462 0.736500
O O14 0.111421 0.309250 0.418622
#
# Coordination Sequence:
#
# PCOD9377457 Si02
#       8
#     8   8   8   4   4   8   8   8
#     4  11  24  48  73 108 148 202 254 322 393 464
#     4  11  24  44  72 107 147 197 249 323 396 462
#     4  11  29  48  77 112 157 210 256 334 385 480
#     4  10  26  46  74 106 150 194 264 316 378 478
#     4  12  30  52  78 122 162 216 276 318 416 492
#     4  11  25  45  75 112 150 202 257 331 404 472
#     4  11  27  50  76 115 154 199 271 322 399 477
#     4  12  28  50  78 110 158 207 262 325 395 485
#
# _framework density 24.599140999999999
#
# number of rings (size 3 to 8) (size 9 to 14) (size 15 to 20)
#    0.000    0.857    1.429    3.000   14.000    2.286 
#    0.000    0.000    0.000    0.000    0.000    0.000 
#    0.000    0.000    0.000    0.000    0.000    0.000 
#
# Total GULP energy -156359.973659 kJ/mol
# GULP energy per Si atom -5584.284774 kJ/mol
# Density = 2.454315 g / cm^3
# Si number density = 24.599141 Si / 1000 Ang^3
#
#
#
# Elastic Constant Matrix: (Units=GPa)
#
#
# Indices 1 2 3 4 5 6 
#
# 1 93.5067 42.2131 22.5075 0.0000 0.0000 0.0000
# 2 42.2131 171.1522 22.0740 0.0000 0.0000 0.0000
# 3 22.5075 22.0740 78.2506 0.0000 0.0000 0.0000
# 4 0.0000 0.0000 0.0000 60.2315 0.0000 0.0000
# 5 0.0000 0.0000 0.0000 0.0000 -29.6891 0.0000
# 6 0.0000 0.0000 0.0000 0.0000 0.0000 127.7367
#
#
#
# Elastic Compliance Matrix: (Units=1/GPa)
#
#
# Indices 1 2 3 4 5 6 
#
# 1 0.012621 -0.002744 -0.002856 0.000000 0.000000 0.000000
# 2 -0.002744 0.006660 -0.001089 0.000000 0.000000 0.000000
# 3 -0.002856 -0.001089 0.013908 0.000000 0.000000 0.000000
# 4 0.000000 0.000000 0.000000 0.016603 0.000000 0.000000
# 5 0.000000 0.000000 0.000000 0.000000 -0.033682 0.000000
# 6 0.000000 0.000000 0.000000 0.000000 0.000000 0.007829
#
#
# Mechanical properties :
#
#
# Convention : Reuss Voigt Hill
#
# Bulk Modulus (GPa) = 50.48065 57.38873 53.93469
# Shear Modulus (GPa) = 113.84084 48.73012 81.28548
#
# Velocity S-wave (km/s) = 6.81020 4.45564 5.75463
# Velocity P-wave (km/s) = 9.07768 7.06049 8.13188
#
# Compressibility (1/GPa) = 0.01980957
#
# Stress axis : x y z
#
# Youngs Moduli (GPa) = 79.23397 150.14665 71.89979
#
# Poissons Ratio (x) = 0.41207 0.20534
# Poissons Ratio (y) = 0.21746 0.07833
# Poissons Ratio (z) = 0.22629 0.16357
#
# Static dielectric constant tensor:
#      x y z
#    x 2.259980 0.000000 0.000000 
#    y 0.000000 1.975340 0.000000 
#    z 0.000000 0.000000 1.970350 
# 
# From -- ./inp_files/2353.got.cif
#   From: 2010.05.17/outbox.cif.g08.bks.cpg/sg45_2_cif.got.tgz:2353.got - 2010.06.03 19:51:22.
