data_PCOD9377303
_publ_section_title
;
Structure prediction by ZEFSAII (Michael W. Deem and Ramdas Pophale) SiO2 
 PCOD9377303
Probable space group: I B A 2
;
_chemical_formula_sum "Si O2"
_cell_formula_units_Z 48
_cell_length_a 28.039695
_cell_length_b 8.628796
_cell_length_c 8.560864
_cell_angle_alpha 90.000000
_cell_angle_beta 90.000000
_cell_angle_gamma 90.000000
_cell_volume 2071.290841
_symmetry_space_group_name_H-M "I B A 2"
_symmetry_group_IT_number 45
_symmetry_cell_setting 'orthorhombic'
loop_
_space_group_symop_operation_xyz
x,y,z
-x,-y,z
-x,y,1/2+z
x,-y,1/2+z
1/2+x,1/2+y,1/2+z
1/2-x,1/2-y,1/2+z
1/2-x,1/2+y,z
1/2+x,1/2-y,z
loop_
_atom_site_type_symbol
_atom_site_label
_atom_site_fract_x
_atom_site_fract_y
_atom_site_fract_z
Si Si1 0.899803 0.606901 0.500000
Si Si2 0.000000 0.500000 0.366930
Si Si3 0.652478 0.837794 0.684159
Si Si4 0.239076 0.445821 0.763615
Si Si5 0.000000 0.000000 0.938023
Si Si6 0.707696 0.344707 0.967063
Si Si7 0.044030 0.205551 0.700099
O O1 0.952383 0.540621 0.462078
O O2 0.878992 0.675522 0.339935
O O3 0.869967 0.466254 0.570042
O O4 0.905793 0.730222 0.639977
O O5 0.986107 0.349325 0.266680
O O6 0.662228 0.688291 0.576822
O O7 0.702618 0.911453 0.742104
O O8 0.250853 0.378696 0.593853
O O9 0.286497 0.514330 0.846626
O O10 0.216999 0.312818 0.871626
O O11 0.958959 0.928345 0.828901
O O12 0.019219 0.866024 0.048302
#
# Coordination Sequence:
#
# PCOD9377303 Si02
#       7
#     8   4   8   8   4   8   8
#     4  12  25  42  70 107 142 182 251 302 349 427
#     4  12  24  42  80 100 134 200 254 284 358 440
#     4  12  25  42  71 109 145 179 241 316 350 418
#     4  12  23  44  76 102 143 188 237 291 370 458
#     4  10  24  42  70 102 136 180 252 294 364 428
#     4  12  23  44  74 106 138 192 236 291 375 443
#     4  11  23  43  71 101 138 189 244 293 356 432
#
# _framework density 23.173956
#
# number of rings (size 3 to 8) (size 9 to 14) (size 15 to 20)
#    0.000    0.333    8.333    0.500    0.000    0.000 
#    0.000    1.667    0.000    0.000    0.000    0.000 
#    0.000    0.000    0.000    0.000    0.000    0.000 
#
# Total GULP energy -134200.022298 kJ/mol
# GULP energy per Si atom -5591.667596 kJ/mol
# Density = 2.312121 g / cm^3
# Si number density = 23.173956 Si / 1000 Ang^3
#
#
#
# Elastic Constant Matrix: (Units=GPa)
#
#
# Indices 1 2 3 4 5 6 
#
# 1 43.2678 -2.6610 8.2075 0.0000 0.0000 0.0000
# 2 -2.6610 57.5273 27.3504 0.0000 0.0000 0.0000
# 3 8.2075 27.3504 108.9428 0.0000 0.0000 0.0000
# 4 0.0000 0.0000 0.0000 39.4923 0.0000 0.0000
# 5 0.0000 0.0000 0.0000 0.0000 47.5753 0.0000
# 6 0.0000 0.0000 0.0000 0.0000 0.0000 33.4674
#
#
#
# Elastic Compliance Matrix: (Units=1/GPa)
#
#
# Indices 1 2 3 4 5 6 
#
# 1 0.023691 0.002208 -0.002339 0.000000 0.000000 0.000000
# 2 0.002208 0.019945 -0.005174 0.000000 0.000000 0.000000
# 3 -0.002339 -0.005174 0.010654 0.000000 0.000000 0.000000
# 4 0.000000 0.000000 0.000000 0.025321 0.000000 0.000000
# 5 0.000000 0.000000 0.000000 0.000000 0.021019 0.000000
# 6 0.000000 0.000000 0.000000 0.000000 0.000000 0.029880
#
#
# Mechanical properties :
#
#
# Convention : Reuss Voigt Hill
#
# Bulk Modulus (GPa) = 22.89328 30.61464 26.75396
# Shear Modulus (GPa) = 32.11701 35.89640 34.00671
#
# Velocity S-wave (km/s) = 3.72682 3.94000 3.83489
# Velocity P-wave (km/s) = 5.33097 5.82560 5.58376
#
# Compressibility (1/GPa) = 0.04368093
#
# Stress axis : x y z
#
# Youngs Moduli (GPa) = 42.20944 50.13825 93.85975
#
# Poissons Ratio (x) = -0.11070 0.21955
# Poissons Ratio (y) = -0.09320 0.48559
# Poissons Ratio (z) = 0.09874 0.25939
#
# Static dielectric constant tensor:
#      x y z
#    x 1.892230 0.000000 0.000000 
#    y 0.000000 1.899810 0.000000 
#    z 0.000000 0.000000 1.874940 
# 
# From -- ./inp_files/1081.got.cif
#   From: 2010.05.17/outbox.cif.g08.bks.cpg/sg45_1_cif.got.tgz:1081.got - 2010.06.03 19:51:22.
