data_PCOD9377452
_publ_section_title
;
Structure prediction by ZEFSAII (Michael W. Deem and Ramdas Pophale) SiO2 
 PCOD9377452
Probable space group: I B A 2
;
_chemical_formula_sum "Si O2"
_cell_formula_units_Z 48
_cell_length_a 11.972798
_cell_length_b 8.418027
_cell_length_c 20.993798
_cell_angle_alpha 90.000000
_cell_angle_beta 90.000000
_cell_angle_gamma 90.000000
_cell_volume 2115.908990
_symmetry_space_group_name_H-M "I B A 2"
_symmetry_group_IT_number 45
_symmetry_cell_setting 'orthorhombic'
loop_
_space_group_symop_operation_xyz
x,y,z
-x,-y,z
-x,y,1/2+z
x,-y,1/2+z
1/2+x,1/2+y,1/2+z
1/2-x,1/2-y,1/2+z
1/2-x,1/2+y,z
1/2+x,1/2-y,z
loop_
_atom_site_type_symbol
_atom_site_label
_atom_site_fract_x
_atom_site_fract_y
_atom_site_fract_z
Si Si1 0.625355 0.560569 0.733500
Si Si2 0.868212 0.503795 0.431817
Si Si3 0.000000 0.500000 0.693677
Si Si4 0.628901 0.260053 0.110728
Si Si5 0.000000 0.000000 0.020461
Si Si6 0.711847 0.698445 0.000384
Si Si7 0.324902 0.101644 0.788488
O O1 0.500000 0.500000 0.725503
O O2 0.670535 0.619615 0.665203
O O3 0.632535 0.719671 0.776437
O O4 0.700277 0.423569 0.763456
O O5 0.809006 0.340743 0.450095
O O6 0.828118 0.624775 0.486328
O O7 0.833823 0.558441 0.361876
O O8 0.000000 0.500000 0.434028
O O9 0.951369 0.363743 0.647537
O O10 0.898298 0.517730 0.744187
O O11 0.553005 0.360591 0.062851
O O12 0.731191 0.187871 0.070037
O O13 0.893190 0.082304 0.987480
#
# Coordination Sequence:
#
# PCOD9377452 Si02
#       7
#     8   8   4   8   4   8   8
#     4  11  27  46  75 113 147 192 247 311 374 450
#     4  12  27  51  74 104 152 202 252 307 365 452
#     4  10  26  44  76 106 140 198 236 318 362 450
#     4  11  26  44  77 108 151 185 247 302 386 443
#     4  12  26  46  70 108 144 184 248 300 376 450
#     4  12  28  48  72 113 146 203 247 310 375 450
#     4  11  26  48  76 106 150 195 256 303 380 433
#
# _framework density 22.685283999999999
#
# number of rings (size 3 to 8) (size 9 to 14) (size 15 to 20)
#    0.000    0.667    3.333    2.000   15.167    1.333 
#    3.000    0.000    0.000    0.000    0.000    0.000 
#    0.000    0.000    0.000    0.000    0.000    0.000 
#
# Total GULP energy -134218.353923 kJ/mol
# GULP energy per Si atom -5592.431413 kJ/mol
# Density = 2.263365 g / cm^3
# Si number density = 22.685284 Si / 1000 Ang^3
#
#
#
# Elastic Constant Matrix: (Units=GPa)
#
#
# Indices 1 2 3 4 5 6 
#
# 1 98.3675 11.8188 22.9035 0.0000 0.0000 0.0000
# 2 11.8188 65.5073 22.0076 0.0000 0.0000 0.0000
# 3 22.9035 22.0076 85.4542 0.0000 0.0000 0.0000
# 4 0.0000 0.0000 0.0000 29.9866 0.0000 0.0000
# 5 0.0000 0.0000 0.0000 0.0000 14.2070 0.0000
# 6 0.0000 0.0000 0.0000 0.0000 0.0000 21.6777
#
#
#
# Elastic Compliance Matrix: (Units=1/GPa)
#
#
# Indices 1 2 3 4 5 6 
#
# 1 0.010912 -0.001080 -0.002647 0.000000 0.000000 0.000000
# 2 -0.001080 0.016818 -0.004042 0.000000 0.000000 0.000000
# 3 -0.002647 -0.004042 0.013452 0.000000 0.000000 0.000000
# 4 0.000000 0.000000 0.000000 0.033348 0.000000 0.000000
# 5 0.000000 0.000000 0.000000 0.000000 0.070388 0.000000
# 6 0.000000 0.000000 0.000000 0.000000 0.000000 0.046130
#
#
# Mechanical properties :
#
#
# Convention : Reuss Voigt Hill
#
# Bulk Modulus (GPa) = 38.99198 40.30987 39.65092
# Shear Modulus (GPa) = 23.24136 26.01421 24.62779
#
# Velocity S-wave (km/s) = 3.20427 3.39003 3.29846
# Velocity P-wave (km/s) = 5.56016 5.75594 5.65890
#
# Compressibility (1/GPa) = 0.02564630
#
# Stress axis : x y z
#
# Youngs Moduli (GPa) = 91.64309 59.45956 74.33586
#
# Poissons Ratio (x) = 0.06419 0.19674
# Poissons Ratio (y) = 0.09894 0.30046
# Poissons Ratio (z) = 0.24254 0.24033
#
# Static dielectric constant tensor:
#      x y z
#    x 1.907160 0.000000 0.000000 
#    y 0.000000 1.800220 0.000000 
#    z 0.000000 0.000000 1.817220 
# 
# From -- ./inp_files/9543.got.cif
#   From: 2010.05.17/outbox.cif.g08.bks.cpg/sg45_5_cif.got.tgz:9543.got - 2010.06.03 19:51:22.
