data_PCOD9377633
_publ_section_title
;
Structure prediction by ZEFSAII (Michael W. Deem and Ramdas Pophale) SiO2 
 PCOD9377633
Probable space group: I B A 2
;
_chemical_formula_sum "Si O2"
_cell_formula_units_Z 64
_cell_length_a 28.734388
_cell_length_b 9.070132
_cell_length_c 11.475439
_cell_angle_alpha 90.000000
_cell_angle_beta 90.000000
_cell_angle_gamma 90.000000
_cell_volume 2990.782756
_symmetry_space_group_name_H-M "I B A 2"
_symmetry_group_IT_number 45
_symmetry_cell_setting 'orthorhombic'
loop_
_space_group_symop_operation_xyz
x,y,z
-x,-y,z
-x,y,1/2+z
x,-y,1/2+z
1/2+x,1/2+y,1/2+z
1/2-x,1/2-y,1/2+z
1/2-x,1/2+y,z
1/2+x,1/2-y,z
loop_
_atom_site_type_symbol
_atom_site_label
_atom_site_fract_x
_atom_site_fract_y
_atom_site_fract_z
Si Si1 0.293973 0.629635 0.605200
Si Si2 0.805093 0.776271 0.075763
Si Si3 0.608459 0.153098 0.214178
Si Si4 0.967936 0.360423 0.516898
Si Si5 0.925679 0.659879 0.770690
Si Si6 0.656550 0.643204 0.338477
Si Si7 0.969065 0.137209 0.086803
Si Si8 0.377111 0.339364 0.941621
O O1 0.243567 0.692128 0.576915
O O2 0.297351 0.452187 0.591253
O O3 0.305103 0.657157 0.739806
O O4 0.334380 0.705975 0.526512
O O5 0.842119 0.710310 0.166419
O O6 0.828657 0.764253 0.950011
O O7 0.568370 0.188417 0.117945
O O8 0.604777 0.224829 0.343659
O O9 0.602785 0.976727 0.218311
O O10 0.944189 0.396573 0.394253
O O11 0.000000 0.500000 0.549626
O O12 0.999647 0.218913 0.490936
O O13 0.890952 0.792738 0.791704
O O14 0.962668 0.736435 0.685105
O O15 0.645123 0.476422 0.372812
O O16 0.919275 0.107997 0.026240
O O17 0.000000 0.000000 0.128465
#
# Coordination Sequence:
#
# PCOD9377633 Si02
#       8
#     8   8   8   8   8   8   8   8
#     4  11  26  47  74 110 146 185 246 295 368 439
#     4  11  27  47  75 108 145 189 237 302 365 438
#     4  12  27  48  73 104 149 191 242 302 365 430
#     4  12  27  49  69 108 143 192 246 299 358 429
#     4  12  27  45  74 103 147 192 244 298 360 437
#     4  11  24  47  75 103 147 188 239 301 361 436
#     4  12  28  44  74 108 145 194 246 297 362 433
#     4  11  26  49  73 105 146 191 239 305 362 434
#
# _framework density 21.399080999999999
#
# number of rings (size 3 to 8) (size 9 to 14) (size 15 to 20)
#    0.000    0.500    5.000    1.500   10.500    1.500 
#    0.000    0.000    0.000    0.000    0.000    0.000 
#    0.000    0.000    0.000    0.000    0.000    0.000 
#
# Total GULP energy -178700.893400 kJ/mol
# GULP energy per Si atom -5584.402919 kJ/mol
# Density = 2.135038 g / cm^3
# Si number density = 21.399081 Si / 1000 Ang^3
#
#
#
# Elastic Constant Matrix: (Units=GPa)
#
#
# Indices 1 2 3 4 5 6 
#
# 1 92.8895 14.6885 25.3234 0.0000 0.0000 0.0000
# 2 14.6885 64.8626 34.2525 0.0000 0.0000 0.0000
# 3 25.3234 34.2525 86.4767 0.0000 0.0000 0.0000
# 4 0.0000 0.0000 0.0000 -9.5558 0.0000 0.0000
# 5 0.0000 0.0000 0.0000 0.0000 -4.6137 0.0000
# 6 0.0000 0.0000 0.0000 0.0000 0.0000 44.3296
#
#
#
# Elastic Compliance Matrix: (Units=1/GPa)
#
#
# Indices 1 2 3 4 5 6 
#
# 1 0.011758 -0.001068 -0.003020 0.000000 0.000000 0.000000
# 2 -0.001068 0.019592 -0.007447 0.000000 0.000000 0.000000
# 3 -0.003020 -0.007447 0.015398 0.000000 0.000000 0.000000
# 4 0.000000 0.000000 0.000000 -0.104649 0.000000 0.000000
# 5 0.000000 0.000000 0.000000 0.000000 -0.216745 0.000000
# 6 0.000000 0.000000 0.000000 0.000000 0.000000 0.022558
#
#
# Mechanical properties :
#
#
# Convention : Reuss Voigt Hill
#
# Bulk Modulus (GPa) = 42.23519 43.63974 42.93747
# Shear Modulus (GPa) = -22.61163 17.36297 -2.62433
#
# Velocity S-wave (km/s) = -3.25416 2.85158 -1.10862
# Velocity P-wave (km/s) = 2.37915 5.59281 4.29767
#
# Compressibility (1/GPa) = 0.02367694
#
# Stress axis : x y z
#
# Youngs Moduli (GPa) = 85.05092 51.04163 64.94318
#
# Poissons Ratio (x) = 0.05450 0.19614
# Poissons Ratio (y) = 0.09081 0.48366
# Poissons Ratio (z) = 0.25687 0.38013
#
# Static dielectric constant tensor:
#      x y z
#    x 1.798710 0.000000 0.000000 
#    y 0.000000 1.776960 0.000000 
#    z 0.000000 0.000000 1.890530 
# 
# From -- ./inp_files/4952.got.cif
#   From: 2010.05.17/outbox.cif.g08.bks.cpg/sg45_3_cif.got.tgz:4952.got - 2010.06.03 19:51:22.
