data_PCOD9377589
_publ_section_title
;
Structure prediction by ZEFSAII (Michael W. Deem and Ramdas Pophale) SiO2 
 PCOD9377589
Probable space group: I B A 2
;
_chemical_formula_sum "Si O2"
_cell_formula_units_Z 40
_cell_length_a 18.450270
_cell_length_b 10.944408
_cell_length_c 8.531756
_cell_angle_alpha 90.000000
_cell_angle_beta 90.000000
_cell_angle_gamma 90.000000
_cell_volume 1722.794305
_symmetry_space_group_name_H-M "I B A 2"
_symmetry_group_IT_number 45
_symmetry_cell_setting 'orthorhombic'
loop_
_space_group_symop_operation_xyz
x,y,z
-x,-y,z
-x,y,1/2+z
x,-y,1/2+z
1/2+x,1/2+y,1/2+z
1/2-x,1/2-y,1/2+z
1/2-x,1/2+y,z
1/2+x,1/2-y,z
loop_
_atom_site_type_symbol
_atom_site_label
_atom_site_fract_x
_atom_site_fract_y
_atom_site_fract_z
Si Si1 0.916553 0.543914 0.165850
Si Si2 0.467939 0.368601 0.617481
Si Si3 0.583508 0.239706 0.424151
Si Si4 0.804443 0.683398 0.650940
Si Si5 0.840594 0.226974 0.487491
O O1 0.919928 0.608099 0.338202
O O2 0.857458 0.434670 0.164359
O O3 0.000000 0.500000 0.133044
O O4 0.879655 0.649595 0.056197
O O5 0.500000 0.500000 0.630080
O O6 0.526271 0.268777 0.560803
O O7 0.434433 0.329661 0.782480
O O8 0.406104 0.367876 0.485913
O O9 0.659900 0.257516 0.507148
O O10 0.810762 0.749572 0.816143
O O11 0.721253 0.674016 0.600960
#
# Coordination Sequence:
#
# PCOD9377589 Si02
#       5
#     8   8   8   8   8
#     4  11  24  46  76 107 139 185 236 291 353 418
#     4  11  23  43  69 101 142 185 229 286 348 414
#     4  11  24  42  69 104 138 182 240 285 341 424
#     4  12  25  45  70 101 144 184 230 297 350 408
#     4  11  25  44  70 105 141 184 238 285 350 426
#
# _framework density 23.218094000000001
#
# number of rings (size 3 to 8) (size 9 to 14) (size 15 to 20)
#    0.000    0.800    0.000    9.000    0.000    4.800 
#    0.000   11.000    0.000    0.000    0.000    0.000 
#    0.000    0.000    0.000    0.000    0.000    0.000 
#
# Total GULP energy -111786.726927 kJ/mol
# GULP energy per Si atom -5589.336346 kJ/mol
# Density = 2.316525 g / cm^3
# Si number density = 23.218094 Si / 1000 Ang^3
#
#
#
# Elastic Constant Matrix: (Units=GPa)
#
#
# Indices 1 2 3 4 5 6 
#
# 1 129.6927 44.7367 7.6390 0.0000 0.0000 0.0000
# 2 44.7367 106.4151 36.3083 0.0000 0.0000 0.0000
# 3 7.6390 36.3083 96.5392 0.0000 0.0000 0.0000
# 4 0.0000 0.0000 0.0000 19.3833 0.0000 0.0000
# 5 0.0000 0.0000 0.0000 0.0000 49.5634 0.0000
# 6 0.0000 0.0000 0.0000 0.0000 0.0000 23.1521
#
#
#
# Elastic Compliance Matrix: (Units=1/GPa)
#
#
# Indices 1 2 3 4 5 6 
#
# 1 0.009075 -0.004096 0.000822 0.000000 0.000000 0.000000
# 2 -0.004096 0.012629 -0.004426 0.000000 0.000000 0.000000
# 3 0.000822 -0.004426 0.011958 0.000000 0.000000 0.000000
# 4 0.000000 0.000000 0.000000 0.051591 0.000000 0.000000
# 5 0.000000 0.000000 0.000000 0.000000 0.020176 0.000000
# 6 0.000000 0.000000 0.000000 0.000000 0.000000 0.043193
#
#
# Mechanical properties :
#
#
# Convention : Reuss Voigt Hill
#
# Bulk Modulus (GPa) = 54.75330 56.66833 55.71081
# Shear Modulus (GPa) = 29.39325 34.68398 32.03861
#
# Velocity S-wave (km/s) = 3.56190 3.86921 3.71873
# Velocity P-wave (km/s) = 6.36785 6.66491 6.51807
#
# Compressibility (1/GPa) = 0.01826374
#
# Stress axis : x y z
#
# Youngs Moduli (GPa) = 110.19462 79.18314 83.62668
#
# Poissons Ratio (x) = 0.32430 -0.06876
# Poissons Ratio (y) = 0.45131 0.37010
# Poissons Ratio (z) = -0.09061 0.35044
#
# Static dielectric constant tensor:
#      x y z
#    x 1.887340 0.000000 0.000000 
#    y 0.000000 1.908990 0.000000 
#    z 0.000000 0.000000 1.894040 
# 
# From -- ./inp_files/1271.got.cif
#   From: 2010.05.17/outbox.cif.g08.bks.cpg/sg45_1_cif.got.tgz:1271.got - 2010.06.03 19:51:22.
