data_PCOD9377149
_publ_section_title
;
Structure prediction by ZEFSAII (Michael W. Deem and Ramdas Pophale) SiO2 
 PCOD9377149
Probable space group: I B A 2
;
_chemical_formula_sum "Si O2"
_cell_formula_units_Z 60
_cell_length_a 11.808044
_cell_length_b 10.522823
_cell_length_c 21.064192
_cell_angle_alpha 90.000000
_cell_angle_beta 90.000000
_cell_angle_gamma 90.000000
_cell_volume 2617.309207
_symmetry_space_group_name_H-M "I B A 2"
_symmetry_group_IT_number 45
_symmetry_cell_setting 'orthorhombic'
loop_
_space_group_symop_operation_xyz
x,y,z
-x,-y,z
-x,y,1/2+z
x,-y,1/2+z
1/2+x,1/2+y,1/2+z
1/2-x,1/2-y,1/2+z
1/2-x,1/2+y,z
1/2+x,1/2-y,z
loop_
_atom_site_type_symbol
_atom_site_label
_atom_site_fract_x
_atom_site_fract_y
_atom_site_fract_z
Si Si1 0.661368 0.694957 0.373100
Si Si2 0.215549 0.456826 0.813434
Si Si3 0.963537 0.867286 0.278136
Si Si4 0.812433 0.155649 0.521338
Si Si5 0.385605 0.028656 0.079852
Si Si6 0.000000 0.000000 0.089459
Si Si7 0.592492 0.836269 0.204264
Si Si8 0.719724 0.656303 0.130138
O O1 0.754321 0.596121 0.341796
O O2 0.670629 0.845359 0.359396
O O3 0.543437 0.650231 0.340376
O O4 0.669708 0.683232 0.448337
O O5 0.335248 0.394447 0.793980
O O6 0.131463 0.444880 0.753110
O O7 0.994233 0.748088 0.234730
O O8 0.000000 0.000000 0.245988
O O9 0.713779 0.051580 0.530192
O O10 0.757537 0.260817 0.568424
O O11 0.929926 0.104197 0.549330
O O12 0.431183 0.131742 0.130910
O O13 0.500000 0.000000 0.043214
O O14 0.323455 0.939435 0.131057
O O15 0.896304 0.076610 0.121816
O O16 0.700546 0.742162 0.192091
#
# Coordination Sequence:
#
# PCOD9377149 Si02
#       8
#     8   8   8   8   8   4   8   8
#     4  10  23  42  65  95 128 170 229 280 340 412
#     4  10  23  41  64  95 131 170 221 277 340 412
#     4   9  21  38  63  94 123 171 220 270 333 407
#     4  10  24  42  67  97 131 179 232 287 348 417
#     4  10  24  41  60  93 133 171 220 281 347 411
#     4  10  24  42  70  96 136 180 240 280 362 422
#     4  10  23  37  62  95 128 169 215 273 340 415
#     4  10  24  41  65  99 130 181 228 289 348 420
#
# _framework density 22.924308
#
# number of rings (size 3 to 8) (size 9 to 14) (size 15 to 20)
#    0.000    2.133    0.000    0.000   18.667    1.067 
#    0.000    2.000    0.000    0.000    0.000    0.000 
#    0.000    0.000    0.000    0.000    0.000    0.000 
#
# Total GULP energy -167107.146563 kJ/mol
# GULP energy per Si atom -5570.238219 kJ/mol
# Density = 2.287213 g / cm^3
# Si number density = 22.924308 Si / 1000 Ang^3
#
#
#
# Elastic Constant Matrix: (Units=GPa)
#
#
# Indices 1 2 3 4 5 6 
#
# 1 108.3555 -2.3737 11.1796 0.0000 0.0000 0.0000
# 2 -2.3737 45.9692 19.8900 0.0000 0.0000 0.0000
# 3 11.1796 19.8900 97.9993 0.0000 0.0000 0.0000
# 4 0.0000 0.0000 0.0000 28.0862 0.0000 0.0000
# 5 0.0000 0.0000 0.0000 0.0000 -2.5089 0.0000
# 6 0.0000 0.0000 0.0000 0.0000 0.0000 27.2036
#
#
#
# Elastic Compliance Matrix: (Units=1/GPa)
#
#
# Indices 1 2 3 4 5 6 
#
# 1 0.009384 0.001039 -0.001281 0.000000 0.000000 0.000000
# 2 0.001039 0.023963 -0.004982 0.000000 0.000000 0.000000
# 3 -0.001281 -0.004982 0.011362 0.000000 0.000000 0.000000
# 4 0.000000 0.000000 0.000000 0.035605 0.000000 0.000000
# 5 0.000000 0.000000 0.000000 0.000000 -0.398584 0.000000
# 6 0.000000 0.000000 0.000000 0.000000 0.000000 0.036760
#
#
# Mechanical properties :
#
#
# Convention : Reuss Voigt Hill
#
# Bulk Modulus (GPa) = 29.18906 34.41285 31.80096
# Shear Modulus (GPa) = -19.25727 25.46472 3.10372
#
# Velocity S-wave (km/s) = -2.90148 3.33651 1.16483
# Velocity P-wave (km/s) = 1.23920 5.46691 3.96376
#
# Compressibility (1/GPa) = 0.03425941
#
# Stress axis : x y z
#
# Youngs Moduli (GPa) = 106.56608 41.73104 88.01654
#
# Poissons Ratio (x) = -0.04336 0.11278
# Poissons Ratio (y) = -0.11072 0.43851
# Poissons Ratio (z) = 0.13655 0.20791
#
# Static dielectric constant tensor:
#      x y z
#    x 1.887820 0.000000 0.000000 
#    y 0.000000 2.178320 0.000000 
#    z 0.000000 0.000000 1.823680 
# 
# From -- ./inp_files/9073.got.cif
#   From: 2010.05.17/outbox.cif.g08.bks.cpg/sg45_5_cif.got.tgz:9073.got - 2010.06.03 19:51:22.
