data_PCOD9377234
_publ_section_title
;
Structure prediction by ZEFSAII (Michael W. Deem and Ramdas Pophale) SiO2 
 PCOD9377234
Probable space group: I B A 2
;
_chemical_formula_sum "Si O2"
_cell_formula_units_Z 40
_cell_length_a 12.419405
_cell_length_b 14.255859
_cell_length_c 9.268081
_cell_angle_alpha 90.000000
_cell_angle_beta 90.000000
_cell_angle_gamma 90.000000
_cell_volume 1640.907129
_symmetry_space_group_name_H-M "I B A 2"
_symmetry_group_IT_number 45
_symmetry_cell_setting 'orthorhombic'
loop_
_space_group_symop_operation_xyz
x,y,z
-x,-y,z
-x,y,1/2+z
x,-y,1/2+z
1/2+x,1/2+y,1/2+z
1/2-x,1/2-y,1/2+z
1/2-x,1/2+y,z
1/2+x,1/2-y,z
loop_
_atom_site_type_symbol
_atom_site_label
_atom_site_fract_x
_atom_site_fract_y
_atom_site_fract_z
Si Si1 0.999410 0.712437 0.501260
Si Si2 0.300169 0.696041 0.878775
Si Si3 0.724485 0.358076 0.185257
Si Si4 0.052947 0.592250 0.258658
Si Si5 0.513241 0.396101 0.340668
O O1 0.966554 0.683466 0.658996
O O2 0.951108 0.811450 0.448196
O O3 0.125708 0.732212 0.473652
O O4 0.986952 0.621633 0.400305
O O5 0.235165 0.756183 0.763633
O O6 0.390937 0.633095 0.801381
O O7 0.247315 0.643307 0.014532
O O8 0.818294 0.418267 0.262889
O O9 0.604130 0.394517 0.216781
O O10 0.000000 0.500000 0.196471
O O11 0.500000 0.500000 0.403083
#
# Coordination Sequence:
#
# PCOD9377234 Si02
#       5
#     8   8   8   8   8
#     4   9  21  42  66  94 137 176 220 294 339 405
#     4   9  23  41  71  97 135 177 231 289 341 420
#     4  11  22  44  69 105 131 190 231 281 366 404
#     4  11  22  42  67 103 139 176 231 289 350 427
#     4  10  23  45  65  99 146 184 232 289 346 425
#
# _framework density 24.376760000000001
#
# number of rings (size 3 to 8) (size 9 to 14) (size 15 to 20)
#    1.200    0.800    0.000    3.000    0.000    0.800 
#   18.000    0.000    0.000    0.000    0.000    0.000 
#    0.000    0.000    0.000    0.000    0.000    0.000 
#
# Total GULP energy -111409.697756 kJ/mol
# GULP energy per Si atom -5570.484888 kJ/mol
# Density = 2.432128 g / cm^3
# Si number density = 24.376760 Si / 1000 Ang^3
#
#
#
# Elastic Constant Matrix: (Units=GPa)
#
#
# Indices 1 2 3 4 5 6 
#
# 1 113.9103 24.8582 34.3614 0.0000 0.0000 0.0000
# 2 24.8582 110.6731 18.1665 0.0000 0.0000 0.0000
# 3 34.3614 18.1665 87.0445 0.0000 0.0000 0.0000
# 4 0.0000 0.0000 0.0000 21.3953 0.0000 0.0000
# 5 0.0000 0.0000 0.0000 0.0000 34.5565 0.0000
# 6 0.0000 0.0000 0.0000 0.0000 0.0000 19.6690
#
#
#
# Elastic Compliance Matrix: (Units=1/GPa)
#
#
# Indices 1 2 3 4 5 6 
#
# 1 0.010265 -0.001699 -0.003698 0.000000 0.000000 0.000000
# 2 -0.001699 0.009637 -0.001341 0.000000 0.000000 0.000000
# 3 -0.003698 -0.001341 0.013228 0.000000 0.000000 0.000000
# 4 0.000000 0.000000 0.000000 0.046739 0.000000 0.000000
# 5 0.000000 0.000000 0.000000 0.000000 0.028938 0.000000
# 6 0.000000 0.000000 0.000000 0.000000 0.000000 0.050841
#
#
# Mechanical properties :
#
#
# Convention : Reuss Voigt Hill
#
# Bulk Modulus (GPa) = 50.87527 51.82225 51.34876
# Shear Modulus (GPa) = 27.82805 30.74030 29.28418
#
# Velocity S-wave (km/s) = 3.38239 3.55498 3.46976
# Velocity P-wave (km/s) = 6.01414 6.17702 6.09612
#
# Compressibility (1/GPa) = 0.01965591
#
# Stress axis : x y z
#
# Youngs Moduli (GPa) = 97.41909 103.76427 75.59800
#
# Poissons Ratio (x) = 0.17626 0.27953
# Poissons Ratio (y) = 0.16548 0.10136
# Poissons Ratio (z) = 0.36022 0.13912
#
# Static dielectric constant tensor:
#      x y z
#    x 1.990930 0.000000 0.000000 
#    y 0.000000 1.975850 0.000000 
#    z 0.000000 0.000000 2.072910 
# 
# From -- ./inp_files/1617.got.cif
#   From: 2010.05.17/outbox.cif.g08.bks.cpg/sg45_1_cif.got.tgz:1617.got - 2010.06.03 19:51:22.
