data_PCOD9377227
_publ_section_title
;
Structure prediction by ZEFSAII (Michael W. Deem and Ramdas Pophale) SiO2 
 PCOD9377227
Probable space group: I B A 2
;
_chemical_formula_sum "Si O2"
_cell_formula_units_Z 48
_cell_length_a 8.449603
_cell_length_b 12.670631
_cell_length_c 18.449332
_cell_angle_alpha 90.000000
_cell_angle_beta 90.000000
_cell_angle_gamma 90.000000
_cell_volume 1975.218724
_symmetry_space_group_name_H-M "I B A 2"
_symmetry_group_IT_number 45
_symmetry_cell_setting 'orthorhombic'
loop_
_space_group_symop_operation_xyz
x,y,z
-x,-y,z
-x,y,1/2+z
x,-y,1/2+z
1/2+x,1/2+y,1/2+z
1/2-x,1/2-y,1/2+z
1/2-x,1/2+y,z
1/2+x,1/2-y,z
loop_
_atom_site_type_symbol
_atom_site_label
_atom_site_fract_x
_atom_site_fract_y
_atom_site_fract_z
Si Si1 0.831110 0.902997 0.298130
Si Si2 0.500000 0.500000 0.917735
Si Si3 0.775885 0.078067 0.022930
Si Si4 0.022964 0.679032 0.803938
Si Si5 0.305089 0.401649 0.637577
Si Si6 0.500000 0.000000 0.416543
Si Si7 0.945182 0.683926 0.140668
O O1 0.947310 0.803638 0.313743
O O2 0.663302 0.844410 0.300619
O O3 0.831816 0.948674 0.217301
O O4 0.862123 0.992835 0.356955
O O5 0.568968 0.592413 0.971264
O O6 0.684852 0.150632 0.081244
O O7 0.822389 0.980392 0.072731
O O8 0.635578 0.046250 0.968180
O O9 0.065240 0.596639 0.867049
O O10 0.094752 0.653381 0.724150
O O11 0.434371 0.309424 0.635782
O O12 0.123073 0.359154 0.630153
#
# Coordination Sequence:
#
# PCOD9377227 Si02
#       7
#     8   4   8   8   8   4   8
#     4  10  24  46  68  98 133 181 234 284 338 416
#     4  12  28  44  64 106 144 178 232 286 360 418
#     4  12  26  43  66 102 141 180 225 286 359 419
#     4  10  24  43  71  97 132 183 232 283 342 408
#     4  10  23  45  69  96 130 181 230 283 339 410
#     4  12  24  42  66 102 136 186 224 288 362 414
#     4  10  23  44  69  97 132 177 237 279 339 412
#
# _framework density 24.301106999999998
#
# number of rings (size 3 to 8) (size 9 to 14) (size 15 to 20)
#    0.000    1.333    3.333    0.000    9.333    3.333 
#    6.000    0.000    0.000    0.000    0.000    0.000 
#    0.000    0.000    0.000    0.000    0.000    0.000 
#
# Total GULP energy -133696.561499 kJ/mol
# GULP energy per Si atom -5570.690062 kJ/mol
# Density = 2.424580 g / cm^3
# Si number density = 24.301107 Si / 1000 Ang^3
#
#
#
# Elastic Constant Matrix: (Units=GPa)
#
#
# Indices 1 2 3 4 5 6 
#
# 1 96.6904 29.5734 39.9867 0.0000 0.0000 0.0000
# 2 29.5734 57.6034 43.3762 0.0000 0.0000 0.0000
# 3 39.9867 43.3762 166.2400 0.0000 0.0000 0.0000
# 4 0.0000 0.0000 0.0000 45.0723 0.0000 0.0000
# 5 0.0000 0.0000 0.0000 0.0000 25.2569 0.0000
# 6 0.0000 0.0000 0.0000 0.0000 0.0000 47.7739
#
#
#
# Elastic Compliance Matrix: (Units=1/GPa)
#
#
# Indices 1 2 3 4 5 6 
#
# 1 0.012633 -0.005224 -0.001676 0.000000 0.000000 0.000000
# 2 -0.005224 0.023765 -0.004944 0.000000 0.000000 0.000000
# 3 -0.001676 -0.004944 0.007709 0.000000 0.000000 0.000000
# 4 0.000000 0.000000 0.000000 0.022187 0.000000 0.000000
# 5 0.000000 0.000000 0.000000 0.000000 0.039593 0.000000
# 6 0.000000 0.000000 0.000000 0.000000 0.000000 0.020932
#
#
# Mechanical properties :
#
#
# Convention : Reuss Voigt Hill
#
# Bulk Modulus (GPa) = 48.97436 60.71183 54.84310
# Shear Modulus (GPa) = 31.78382 37.46048 34.62215
#
# Velocity S-wave (km/s) = 3.62044 3.93047 3.77863
# Velocity P-wave (km/s) = 6.13789 6.75541 6.45404
#
# Compressibility (1/GPa) = 0.02041885
#
# Stress axis : x y z
#
# Youngs Moduli (GPa) = 79.15756 42.07819 129.72571
#
# Poissons Ratio (x) = 0.21982 0.21737
# Poissons Ratio (y) = 0.41352 0.64142
# Poissons Ratio (z) = 0.13264 0.20805
#
# Static dielectric constant tensor:
#      x y z
#    x 2.022140 0.000000 0.000000 
#    y 0.000000 1.917640 0.000000 
#    z 0.000000 0.000000 1.959340 
# 
# From -- ./inp_files/7587.got.cif
#   From: 2010.05.17/outbox.cif.g08.bks.cpg/sg45_4_cif.got.tgz:7587.got - 2010.06.03 19:51:22.
