data_PCOD9377115
_publ_section_title
;
Structure prediction by ZEFSAII (Michael W. Deem and Ramdas Pophale) SiO2 
 PCOD9377115
Probable space group: I B A 2
;
_chemical_formula_sum "Si O2"
_cell_formula_units_Z 40
_cell_length_a 21.073196
_cell_length_b 7.535223
_cell_length_c 9.263062
_cell_angle_alpha 90.000000
_cell_angle_beta 90.000000
_cell_angle_gamma 90.000000
_cell_volume 1470.893020
_symmetry_space_group_name_H-M "I B A 2"
_symmetry_group_IT_number 45
_symmetry_cell_setting 'orthorhombic'
loop_
_space_group_symop_operation_xyz
x,y,z
-x,-y,z
-x,y,1/2+z
x,-y,1/2+z
1/2+x,1/2+y,1/2+z
1/2-x,1/2-y,1/2+z
1/2-x,1/2+y,z
1/2+x,1/2-y,z
loop_
_atom_site_type_symbol
_atom_site_label
_atom_site_fract_x
_atom_site_fract_y
_atom_site_fract_z
Si Si1 0.786938 0.411041 0.751150
Si Si2 0.150008 0.939736 0.094237
Si Si3 0.541411 0.356194 0.245867
Si Si4 0.955521 0.327809 0.022623
Si Si5 0.693118 0.235291 0.942890
O O1 0.718034 0.438057 0.673167
O O2 0.764918 0.286134 0.886824
O O3 0.819642 0.341403 0.604428
O O4 0.820462 0.579133 0.827459
O O5 0.114382 0.751156 0.068851
O O6 0.103884 0.050173 0.196094
O O7 0.159500 0.073251 0.957819
O O8 0.500000 0.500000 0.332104
O O9 0.550003 0.192076 0.350889
O O10 0.499967 0.306520 0.109385
O O11 0.000000 0.500000 0.046805
#
# Coordination Sequence:
#
# PCOD9377115 Si02
#       5
#     8   8   8   8   8
#     4  12  24  45  74 109 167 221 282 349 416 510
#     4  11  24  45  77 109 158 222 268 344 432 492
#     4  10  22  44  75 108 153 205 265 344 420 499
#     4  11  24  47  76 115 156 203 278 350 417 513
#     4  12  24  47  73 113 168 220 284 352 413 513
#
# _framework density 27.194364
#
# number of rings (size 3 to 8) (size 9 to 14) (size 15 to 20)
#    0.000    0.800    4.000    3.600    0.000    1.600 
#   10.800    0.000    0.000    0.000    0.000    0.000 
#    0.000    0.000    0.000    0.000    0.000    0.000 
#
# Total GULP energy -111383.990270 kJ/mol
# GULP energy per Si atom -5569.199513 kJ/mol
# Density = 2.713247 g / cm^3
# Si number density = 27.194364 Si / 1000 Ang^3
#
#
#
# Elastic Constant Matrix: (Units=GPa)
#
#
# Indices 1 2 3 4 5 6 
#
# 1 97.6500 47.8060 30.7570 0.0000 0.0000 0.0000
# 2 47.8060 163.7135 66.8112 0.0000 0.0000 0.0000
# 3 30.7570 66.8112 167.1340 0.0000 0.0000 0.0000
# 4 0.0000 0.0000 0.0000 46.9030 0.0000 0.0000
# 5 0.0000 0.0000 0.0000 0.0000 -16.1678 0.0000
# 6 0.0000 0.0000 0.0000 0.0000 0.0000 33.6990
#
#
#
# Elastic Compliance Matrix: (Units=1/GPa)
#
#
# Indices 1 2 3 4 5 6 
#
# 1 0.012079 -0.003131 -0.000971 0.000000 0.000000 0.000000
# 2 -0.003131 0.008110 -0.002666 0.000000 0.000000 0.000000
# 3 -0.000971 -0.002666 0.007228 0.000000 0.000000 0.000000
# 4 0.000000 0.000000 0.000000 0.021321 0.000000 0.000000
# 5 0.000000 0.000000 0.000000 0.000000 -0.061851 0.000000
# 6 0.000000 0.000000 0.000000 0.000000 0.000000 0.029674
#
#
# Mechanical properties :
#
#
# Convention : Reuss Voigt Hill
#
# Bulk Modulus (GPa) = 72.04037 79.91620 75.97828
# Shear Modulus (GPa) = 143.99020 31.76174 87.87597
#
# Velocity S-wave (km/s) = 7.28447 3.42124 5.69071
# Velocity P-wave (km/s) = 9.86406 6.71248 8.43674
#
# Compressibility (1/GPa) = 0.01388111
#
# Stress axis : x y z
#
# Youngs Moduli (GPa) = 82.78573 123.29762 138.35689
#
# Poissons Ratio (x) = 0.38603 0.13439
# Poissons Ratio (y) = 0.25919 0.36885
# Poissons Ratio (z) = 0.08041 0.32871
#
# Static dielectric constant tensor:
#      x y z
#    x 2.240470 0.000000 0.000000 
#    y 0.000000 2.514010 0.000000 
#    z 0.000000 0.000000 2.186950 
# 
# From -- ./inp_files/2444.got.cif
#   From: 2010.05.17/outbox.cif.g08.bks.cpg/sg45_2_cif.got.tgz:2444.got - 2010.06.03 19:51:22.
