data_PCOD9377107
_publ_section_title
;
Structure prediction by ZEFSAII (Michael W. Deem and Ramdas Pophale) SiO2 
 PCOD9377107
Probable space group: I B A 2
;
_chemical_formula_sum "Si O2"
_cell_formula_units_Z 40
_cell_length_a 5.615843
_cell_length_b 28.947877
_cell_length_c 9.165140
_cell_angle_alpha 90.000000
_cell_angle_beta 90.000000
_cell_angle_gamma 90.000000
_cell_volume 1489.946862
_symmetry_space_group_name_H-M "I B A 2"
_symmetry_group_IT_number 45
_symmetry_cell_setting 'orthorhombic'
loop_
_space_group_symop_operation_xyz
x,y,z
-x,-y,z
-x,y,1/2+z
x,-y,1/2+z
1/2+x,1/2+y,1/2+z
1/2-x,1/2-y,1/2+z
1/2-x,1/2+y,z
1/2+x,1/2-y,z
loop_
_atom_site_type_symbol
_atom_site_label
_atom_site_fract_x
_atom_site_fract_y
_atom_site_fract_z
Si Si1 0.187137 0.277961 0.538720
Si Si2 0.778363 0.417321 0.258831
Si Si3 0.255321 0.991352 0.087570
Si Si4 0.907501 0.892081 0.554705
Si Si5 0.090517 0.336463 0.253673
O O1 0.444716 0.253358 0.540220
O O2 0.184965 0.307866 0.390010
O O3 0.130892 0.308726 0.682186
O O4 0.776009 0.471747 0.220600
O O5 0.674042 0.396970 0.109861
O O6 0.595999 0.401575 0.383821
O O7 0.999351 0.386464 0.306917
O O8 0.235854 0.937166 0.116578
O O9 0.500000 0.000000 0.003725
O O10 0.000000 0.000000 0.015042
O O11 0.776438 0.847926 0.622836
#
# Coordination Sequence:
#
# PCOD9377107 Si02
#       5
#     8   8   8   8   8
#     4  12  30  52  78 111 150 193 248 316 394 466
#     4  11  26  45  73 111 155 202 255 308 367 447
#     4  10  22  44  68 110 152 204 244 302 364 428
#     4  11  26  45  73 111 155 202 255 308 367 447
#     4  12  26  47  78 112 148 200 248 315 380 454
#
# _framework density 26.846594
#
# number of rings (size 3 to 8) (size 9 to 14) (size 15 to 20)
#    0.000    0.800    4.000    1.200    8.400    8.000 
#    0.000    0.000    0.000    0.000    0.000    0.000 
#    0.000    0.000    0.000    0.000    0.000    0.000 
#
# Total GULP energy -111724.733231 kJ/mol
# GULP energy per Si atom -5586.236662 kJ/mol
# Density = 2.678549 g / cm^3
# Si number density = 26.846594 Si / 1000 Ang^3
#
#
#
# Elastic Constant Matrix: (Units=GPa)
#
#
# Indices 1 2 3 4 5 6 
#
# 1 135.0510 43.0412 2.8926 0.0000 0.0000 0.0000
# 2 43.0412 99.7125 12.1639 0.0002 0.0000 0.0000
# 3 2.8926 12.1639 100.8298 0.0002 0.0000 0.0000
# 4 0.0000 0.0002 0.0002 39.2605 0.0000 0.0000
# 5 0.0000 0.0000 0.0000 0.0000 40.5634 0.0000
# 6 0.0000 0.0000 0.0000 0.0000 0.0000 65.9093
#
#
#
# Elastic Compliance Matrix: (Units=1/GPa)
#
#
# Indices 1 2 3 4 5 6 
#
# 1 0.008590 -0.003733 0.000204 0.000000 0.000000 0.000000
# 2 -0.003733 0.011801 -0.001317 0.000000 0.000000 0.000000
# 3 0.000204 -0.001317 0.010071 0.000000 0.000000 0.000000
# 4 0.000000 0.000000 0.000000 0.025471 0.000000 0.000000
# 5 0.000000 0.000000 0.000000 0.000000 0.024653 0.000000
# 6 0.000000 0.000000 0.000000 0.000000 0.000000 0.015172
#
#
# Mechanical properties :
#
#
# Convention : Reuss Voigt Hill
#
# Bulk Modulus (GPa) = 48.14519 50.19874 49.17196
# Shear Modulus (GPa) = 44.49529 47.64635 46.07082
#
# Velocity S-wave (km/s) = 4.07552 4.21736 4.14705
# Velocity P-wave (km/s) = 6.33395 6.51566 6.42545
#
# Compressibility (1/GPa) = 0.02077051
#
# Stress axis : x y z
#
# Youngs Moduli (GPa) = 116.41617 84.74090 99.29818
#
# Poissons Ratio (x) = 0.31631 -0.02024
# Poissons Ratio (y) = 0.43455 0.13073
# Poissons Ratio (z) = -0.02373 0.11156
#
# Static dielectric constant tensor:
#      x y z
#    x 2.201910 0.000000 0.000000 
#    y 0.000000 2.236750 0.000000 
#    z 0.000000 0.000000 2.026250 
# 
# From -- ./inp_files/2927.got.cif
#   From: 2010.05.17/outbox.cif.g08.bks.cpg/sg45_2_cif.got.tgz:2927.got - 2010.06.03 19:51:22.
