data_PCOD9377966
_publ_section_title
;
Structure prediction by ZEFSAII (Michael W. Deem and Ramdas Pophale) SiO2 
 PCOD9377966
Probable space group: I M A 2
;
_chemical_formula_sum "Si O2"
_cell_formula_units_Z 36
_cell_length_a 7.271284
_cell_length_b 7.243580
_cell_length_c 26.226289
_cell_angle_alpha 90.000000
_cell_angle_beta 90.000000
_cell_angle_gamma 90.000000
_cell_volume 1381.341982
_symmetry_space_group_name_H-M "I M A 2"
_symmetry_group_IT_number 46
_symmetry_cell_setting 'orthorhombic'
loop_
_space_group_symop_operation_xyz
x,y,z
-x,-y,z
1/2-x,y,z
1/2+x,-y,z
1/2+x,1/2+y,1/2+z
1/2-x,1/2-y,1/2+z
-x,1/2+y,1/2+z
x,1/2-y,1/2+z
loop_
_atom_site_type_symbol
_atom_site_label
_atom_site_fract_x
_atom_site_fract_y
_atom_site_fract_z
Si Si1 0.531958 0.780046 0.375000
Si Si2 0.750000 0.344763 0.683204
Si Si3 0.969075 0.722621 0.096544
Si Si4 0.967375 0.706122 0.262006
Si Si5 0.968237 0.778905 0.484170
O O1 0.750000 0.746746 0.375789
O O2 0.466956 0.705977 0.320840
O O3 0.457009 0.711343 0.429595
O O4 0.500000 0.000000 0.373289
O O5 0.589917 0.315466 0.639369
O O6 0.592060 0.332751 0.727909
O O7 0.750000 0.755374 0.103534
O O8 0.000000 0.500000 0.099702
O O9 0.031575 0.783574 0.039715
O O10 0.750000 0.748337 0.259501
O O11 0.000000 0.500000 0.240960
O O12 0.750000 0.748071 0.484114
O O13 0.000000 0.000000 0.483679
#
# Coordination Sequence:
#
# PCOD9377966 Si02
#       5
#     8   4   8   8   8
#     4   9  19  35  56  78 108 137 175 219 269 317
#     4  12  22  32  48  70 108 148 176 218 254 320
#     4  10  18  27  45  71 101 136 173 209 270 317
#     4  11  23  36  52  78 112 143 181 218 260 311
#     4   8  15  28  45  72 102 129 161 215 267 317
#
# _framework density 26.061612
#
# number of rings (size 3 to 8) (size 9 to 14) (size 15 to 20)
#    0.000    2.222    2.222    1.333    3.111    0.000 
#    0.000    0.000    0.000    0.000    0.000    1.556 
#    6.667    0.000    0.000    0.000    0.000    0.000 
#
# Total GULP energy -100242.487690 kJ/mol
# GULP energy per Si atom -5569.027094 kJ/mol
# Density = 2.600229 g / cm^3
# Si number density = 26.061612 Si / 1000 Ang^3
#
#
#
# Elastic Constant Matrix: (Units=GPa)
#
#
# Indices 1 2 3 4 5 6 
#
# 1 202.9147 15.4886 95.5557 0.0000 0.0000 0.0000
# 2 15.4886 102.8474 18.7631 0.0000 0.0000 0.0000
# 3 95.5557 18.7631 273.0557 0.0000 0.0000 0.0000
# 4 0.0000 0.0000 0.0000 -24.9465 0.0000 0.0000
# 5 0.0000 0.0000 0.0000 0.0000 40.2539 0.0000
# 6 0.0000 0.0000 0.0000 0.0000 0.0000 9.7202
#
#
#
# Elastic Compliance Matrix: (Units=1/GPa)
#
#
# Indices 1 2 3 4 5 6 
#
# 1 0.005928 -0.000521 -0.002039 0.000000 0.000000 0.000000
# 2 -0.000521 0.009892 -0.000497 0.000000 0.000000 0.000000
# 3 -0.002039 -0.000497 0.004410 0.000000 0.000000 0.000000
# 4 0.000000 0.000000 0.000000 -0.040086 0.000000 0.000000
# 5 0.000000 0.000000 0.000000 0.000000 0.024842 0.000000
# 6 0.000000 0.000000 0.000000 0.000000 0.000000 0.102878
#
#
# Mechanical properties :
#
#
# Convention : Reuss Voigt Hill
#
# Bulk Modulus (GPa) = 70.84066 93.15917 81.99991
# Shear Modulus (GPa) = 42.12858 34.93957 38.53407
#
# Velocity S-wave (km/s) = 4.02493 3.66546 3.84940
# Velocity P-wave (km/s) = 6.98864 7.33059 7.16166
#
# Compressibility (1/GPa) = 0.01411619
#
# Stress axis : x y z
#
# Youngs Moduli (GPa) = 168.69118 101.08836 226.76310
#
# Poissons Ratio (x) = 0.05265 0.46230
# Poissons Ratio (y) = 0.08786 0.11281
# Poissons Ratio (z) = 0.34391 0.05029
#
# Static dielectric constant tensor:
#      x y z
#    x 1.905990 0.000000 0.000000 
#    y 0.000000 2.092200 0.000000 
#    z 0.000000 0.000000 2.037690 
# 
# From -- ./inp_files/22842.got.cif
#   From: 2010.05.17/outbox.cif.g08.bks.cpg/sg46_12_cif.got.tgz:22842.got - 2010.06.03 19:58:25.
