data_PCOD9377714
_publ_section_title
;
Structure prediction by ZEFSAII (Michael W. Deem and Ramdas Pophale) SiO2 
 PCOD9377714
Probable space group: I B A 2
;
_chemical_formula_sum "Si O2"
_cell_formula_units_Z 40
_cell_length_a 11.284698
_cell_length_b 12.089174
_cell_length_c 11.472510
_cell_angle_alpha 90.000000
_cell_angle_beta 90.000000
_cell_angle_gamma 90.000000
_cell_volume 1565.110534
_symmetry_space_group_name_H-M "I B A 2"
_symmetry_group_IT_number 45
_symmetry_cell_setting 'orthorhombic'
loop_
_space_group_symop_operation_xyz
x,y,z
-x,-y,z
-x,y,1/2+z
x,-y,1/2+z
1/2+x,1/2+y,1/2+z
1/2-x,1/2-y,1/2+z
1/2-x,1/2+y,z
1/2+x,1/2-y,z
loop_
_atom_site_type_symbol
_atom_site_label
_atom_site_fract_x
_atom_site_fract_y
_atom_site_fract_z
Si Si1 0.319846 0.962976 0.452010
Si Si2 0.633735 0.018505 0.692179
Si Si3 0.313794 0.743261 0.735861
Si Si4 0.111555 0.058208 0.561223
Si Si5 0.563518 0.746559 0.873725
O O1 0.363261 0.036948 0.562326
O O2 0.410128 0.862105 0.437839
O O3 0.305018 0.003812 0.318929
O O4 0.184663 0.959810 0.498760
O O5 0.668083 0.144732 0.663650
O O6 0.500000 0.000000 0.728353
O O7 0.324733 0.632901 0.658869
O O8 0.432105 0.744369 0.817827
O O9 0.181389 0.752309 0.789786
O O10 0.077028 0.144509 0.461039
O O11 0.000000 0.000000 0.619201
#
# Coordination Sequence:
#
# PCOD9377714 Si02
#       5
#     8   8   8   8   8
#     4  12  26  49  79 114 159 213 278 342 414 493
#     4  12  25  46  78 114 155 211 278 347 406 491
#     4  12  28  49  81 117 166 215 282 339 424 498
#     4  12  29  49  78 116 170 220 274 346 428 494
#     4  12  27  50  80 118 159 221 278 343 413 510
#
# _framework density 25.557300999999999
#
# number of rings (size 3 to 8) (size 9 to 14) (size 15 to 20)
#    0.000    0.000    6.000    3.000    2.800    4.000 
#    0.000    0.000    0.000    0.000    0.000    0.000 
#    0.000    0.000    0.000    0.000    0.000    0.000 
#
# Total GULP energy -111352.594884 kJ/mol
# GULP energy per Si atom -5567.629744 kJ/mol
# Density = 2.549913 g / cm^3
# Si number density = 25.557301 Si / 1000 Ang^3
#
#
#
# Elastic Constant Matrix: (Units=GPa)
#
#
# Indices 1 2 3 4 5 6 
#
# 1 87.0366 25.3807 35.8569 0.0000 0.0000 0.0000
# 2 25.3807 76.2670 36.2720 0.0000 0.0000 0.0000
# 3 35.8569 36.2720 138.9259 0.0000 0.0000 0.0000
# 4 0.0000 0.0000 0.0000 44.8194 0.0000 0.0000
# 5 0.0000 0.0000 0.0000 0.0000 80.7588 0.0000
# 6 0.0000 0.0000 0.0000 0.0000 0.0000 23.9880
#
#
#
# Elastic Compliance Matrix: (Units=1/GPa)
#
#
# Indices 1 2 3 4 5 6 
#
# 1 0.013524 -0.003243 -0.002644 0.000000 0.000000 0.000000
# 2 -0.003243 0.015749 -0.003275 0.000000 0.000000 0.000000
# 3 -0.002644 -0.003275 0.008735 0.000000 0.000000 0.000000
# 4 0.000000 0.000000 0.000000 0.022312 0.000000 0.000000
# 5 0.000000 0.000000 0.000000 0.000000 0.012383 0.000000
# 6 0.000000 0.000000 0.000000 0.000000 0.000000 0.041687
#
#
# Mechanical properties :
#
#
# Convention : Reuss Voigt Hill
#
# Bulk Modulus (GPa) = 50.80092 55.24986 53.02539
# Shear Modulus (GPa) = 35.90005 43.56123 39.73064
#
# Velocity S-wave (km/s) = 3.75198 4.13298 3.94708
# Velocity P-wave (km/s) = 6.22015 6.66636 6.44712
#
# Compressibility (1/GPa) = 0.01968468
#
# Stress axis : x y z
#
# Youngs Moduli (GPa) = 73.94034 63.49775 114.47615
#
# Poissons Ratio (x) = 0.20595 0.30266
# Poissons Ratio (y) = 0.23981 0.37487
# Poissons Ratio (z) = 0.19549 0.20793
#
# Static dielectric constant tensor:
#      x y z
#    x 2.006490 0.000000 0.000000 
#    y 0.000000 2.124850 0.000000 
#    z 0.000000 0.000000 2.029330 
# 
# From -- ./inp_files/3573.got.cif
#   From: 2010.05.17/outbox.cif.g08.bks.cpg/sg45_2_cif.got.tgz:3573.got - 2010.06.03 19:51:22.
