data_PCOD9377488
_publ_section_title
;
Structure prediction by ZEFSAII (Michael W. Deem and Ramdas Pophale) SiO2 
 PCOD9377488
Probable space group: I B A 2
;
_chemical_formula_sum "Si O2"
_cell_formula_units_Z 36
_cell_length_a 8.365108
_cell_length_b 8.591116
_cell_length_c 20.043446
_cell_angle_alpha 90.000000
_cell_angle_beta 90.000000
_cell_angle_gamma 90.000000
_cell_volume 1440.434537
_symmetry_space_group_name_H-M "I B A 2"
_symmetry_group_IT_number 45
_symmetry_cell_setting 'orthorhombic'
loop_
_space_group_symop_operation_xyz
x,y,z
-x,-y,z
-x,y,1/2+z
x,-y,1/2+z
1/2+x,1/2+y,1/2+z
1/2-x,1/2-y,1/2+z
1/2-x,1/2+y,z
1/2+x,1/2-y,z
loop_
_atom_site_type_symbol
_atom_site_label
_atom_site_fract_x
_atom_site_fract_y
_atom_site_fract_z
Si Si1 0.819169 0.930440 0.993200
Si Si2 0.072724 0.819497 0.626947
Si Si3 0.645571 0.382136 0.270478
Si Si4 0.500000 0.000000 0.569672
Si Si5 0.353118 0.093551 0.860248
O O1 0.769253 0.872899 0.920164
O O2 0.841914 0.818614 0.055831
O O3 0.658658 0.012982 0.022878
O O4 0.000000 0.000000 0.984567
O O5 0.166741 0.811608 0.696810
O O6 0.982151 0.653684 0.617372
O O7 0.000000 0.000000 0.627406
O O8 0.500000 0.500000 0.265938
O O9 0.602594 0.251141 0.323728
O O10 0.786928 0.480840 0.302357
O O11 0.500000 0.000000 0.889801
#
# Coordination Sequence:
#
# PCOD9377488 Si02
#       5
#     8   8   8   4   8
#     4  11  28  52  81 124 164 210 285 345 411 508
#     4  10  28  52  82 122 161 211 280 347 409 502
#     4  11  27  51  80 117 164 216 279 347 419 514
#     4  12  28  50  88 118 168 220 268 346 434 484
#     4  12  27  48  80 115 164 219 272 345 426 498
#
# _framework density 24.992456000000001
#
# number of rings (size 3 to 8) (size 9 to 14) (size 15 to 20)
#    0.000    0.889    1.111    2.000   14.000    3.556 
#    0.000    0.000    0.000    0.000    0.000    0.000 
#    0.000    0.000    0.000    0.000    0.000    0.000 
#
# Total GULP energy -100275.091942 kJ/mol
# GULP energy per Si atom -5570.838441 kJ/mol
# Density = 2.493557 g / cm^3
# Si number density = 24.992456 Si / 1000 Ang^3
#
#
#
# Elastic Constant Matrix: (Units=GPa)
#
#
# Indices 1 2 3 4 5 6 
#
# 1 111.7229 42.8576 52.5820 0.0000 0.0000 0.0000
# 2 42.8576 147.8852 74.0208 0.0000 0.0000 0.0000
# 3 52.5820 74.0208 230.1525 0.0000 0.0000 0.0000
# 4 0.0000 0.0000 0.0000 1.0480 0.0000 0.0000
# 5 0.0000 0.0000 0.0000 0.0000 53.0062 0.0000
# 6 0.0000 0.0000 0.0000 0.0000 0.0000 6.1151
#
#
#
# Elastic Compliance Matrix: (Units=1/GPa)
#
#
# Indices 1 2 3 4 5 6 
#
# 1 0.010606 -0.002218 -0.001710 0.000000 0.000000 0.000000
# 2 -0.002218 0.008523 -0.002234 0.000000 0.000000 0.000000
# 3 -0.001710 -0.002234 0.005454 0.000000 0.000000 0.000000
# 4 0.000000 0.000000 0.000000 0.954199 0.000000 0.000000
# 5 0.000000 0.000000 0.000000 0.000000 0.018866 0.000000
# 6 0.000000 0.000000 0.000000 0.000000 0.000000 0.163530
#
#
# Mechanical properties :
#
#
# Convention : Reuss Voigt Hill
#
# Bulk Modulus (GPa) = 81.57137 92.07572 86.82354
# Shear Modulus (GPa) = 4.24596 33.38721 18.81659
#
# Velocity S-wave (km/s) = 1.30483 3.65895 2.74686
# Velocity P-wave (km/s) = 5.91434 7.40081 6.69893
#
# Compressibility (1/GPa) = 0.01225920
#
# Stress axis : x y z
#
# Youngs Moduli (GPa) = 94.28399 117.32724 183.34383
#
# Poissons Ratio (x) = 0.26022 0.31349
# Poissons Ratio (y) = 0.20911 0.40968
# Poissons Ratio (z) = 0.16121 0.26216
#
# Static dielectric constant tensor:
#      x y z
#    x 1.082910 0.000000 0.000000 
#    y 0.000000 2.166400 0.000000 
#    z 0.000000 0.000000 1.916620 
# 
# From -- ./inp_files/8760.got.cif
#   From: 2010.05.17/outbox.cif.g08.bks.cpg/sg45_5_cif.got.tgz:8760.got - 2010.06.03 19:51:22.
