data_PCOD9377030
_publ_section_title
;
Structure prediction by ZEFSAII (Michael W. Deem and Ramdas Pophale) SiO2 
 PCOD9377030
Probable space group: I B A 2
;
_chemical_formula_sum "Si O2"
_cell_formula_units_Z 40
_cell_length_a 5.136474
_cell_length_b 17.870253
_cell_length_c 16.227920
_cell_angle_alpha 90.000000
_cell_angle_beta 90.000000
_cell_angle_gamma 90.000000
_cell_volume 1489.562236
_symmetry_space_group_name_H-M "I B A 2"
_symmetry_group_IT_number 45
_symmetry_cell_setting 'orthorhombic'
loop_
_space_group_symop_operation_xyz
x,y,z
-x,-y,z
-x,y,1/2+z
x,-y,1/2+z
1/2+x,1/2+y,1/2+z
1/2-x,1/2-y,1/2+z
1/2-x,1/2+y,z
1/2+x,1/2-y,z
loop_
_atom_site_type_symbol
_atom_site_label
_atom_site_fract_x
_atom_site_fract_y
_atom_site_fract_z
Si Si1 0.020932 0.589360 0.190240
Si Si2 0.393296 0.297177 0.747715
Si Si3 0.393297 0.297177 0.946879
Si Si4 0.748436 0.945169 0.847296
Si Si5 0.020931 0.410640 0.004353
O O1 0.815138 0.603860 0.265252
O O2 0.000000 0.500000 0.182293
O O3 0.297649 0.621125 0.219457
O O4 0.000003 0.618987 0.097297
O O5 0.648843 0.254230 0.719229
O O6 0.396165 0.299106 0.847297
O O7 0.648845 0.254230 0.975366
O O8 0.297649 0.378875 0.975138
O O9 0.500000 0.000000 0.847296
O O10 0.684862 0.896140 0.929340
O O11 0.000000 0.000000 0.847297
O O12 0.000000 0.500000 0.012300
#
# Coordination Sequence:
#
# PCOD9377030 Si02
#       5
#     8   8   8   8   8
#     4  10  22  43  69 102 137 181 237 291 351 427
#     4  10  22  41  65  95 133 178 230 286 351 421
#     4  10  22  41  65  95 133 178 230 286 351 421
#     4  10  22  42  66  96 136 180 223 286 355 410
#     4  10  22  43  69 102 137 181 237 291 351 427
#
# _framework density 26.853525999999999
#
# number of rings (size 3 to 8) (size 9 to 14) (size 15 to 20)
#    0.000    2.000    2.000    0.000    0.000    8.000 
#    0.000   28.000    0.000    0.000    0.000    0.000 
#    0.000    0.000    0.000    0.000    0.000    0.000 
#
# Total GULP energy -111742.501771 kJ/mol
# GULP energy per Si atom -5587.125089 kJ/mol
# Density = 2.679241 g / cm^3
# Si number density = 26.853526 Si / 1000 Ang^3
#
#
#
# Elastic Constant Matrix: (Units=GPa)
#
#
# Indices 1 2 3 4 5 6 
#
# 1 126.0630 -0.8154 40.6034 0.0000 0.0000 0.0000
# 2 -0.8154 102.9341 4.9891 0.0000 0.0000 0.0000
# 3 40.6034 4.9891 199.0051 0.0000 0.0000 0.0000
# 4 0.0000 0.0000 0.0000 10.4253 0.0000 0.0000
# 5 0.0000 0.0000 0.0000 0.0000 5.8069 0.0000
# 6 0.0000 0.0000 0.0000 0.0000 0.0000 43.6034
#
#
#
# Elastic Compliance Matrix: (Units=1/GPa)
#
#
# Indices 1 2 3 4 5 6 
#
# 1 0.008493 0.000151 -0.001737 0.000000 0.000000 0.000000
# 2 0.000151 0.009729 -0.000275 0.000000 0.000000 0.000000
# 3 -0.001737 -0.000275 0.005386 0.000000 0.000000 0.000000
# 4 0.000000 0.000000 0.000000 0.095920 0.000000 0.000000
# 5 0.000000 0.000000 0.000000 0.000000 0.172210 0.000000
# 6 0.000000 0.000000 0.000000 0.000000 0.000000 0.022934
#
#
# Mechanical properties :
#
#
# Convention : Reuss Voigt Hill
#
# Bulk Modulus (GPa) = 50.28010 57.50626 53.89318
# Shear Modulus (GPa) = 15.38358 37.51546 26.44952
#
# Velocity S-wave (km/s) = 2.39607 3.74176 3.14180
# Velocity P-wave (km/s) = 5.13997 6.33474 5.76837
#
# Compressibility (1/GPa) = 0.01988858
#
# Stress axis : x y z
#
# Youngs Moduli (GPa) = 117.74590 102.78044 185.65926
#
# Poissons Ratio (x) = -0.01557 0.32242
# Poissons Ratio (y) = -0.01783 0.05102
# Poissons Ratio (z) = 0.20448 0.02825
#
# Static dielectric constant tensor:
#      x y z
#    x 2.376570 0.000000 0.000000 
#    y 0.000000 3.010690 0.000000 
#    z 0.000000 0.000000 2.169490 
# 
# From -- ./inp_files/7242.got.cif
#   From: 2010.05.17/outbox.cif.g08.bks.cpg/sg45_4_cif.got.tgz:7242.got - 2010.06.03 19:51:22.
