data_PCOD9377031
_publ_section_title
;
Structure prediction by ZEFSAII (Michael W. Deem and Ramdas Pophale) SiO2 
 PCOD9377031
Probable space group: I B A 2
;
_chemical_formula_sum "Si O2"
_cell_formula_units_Z 56
_cell_length_a 14.980720
_cell_length_b 8.330894
_cell_length_c 19.103912
_cell_angle_alpha 90.000000
_cell_angle_beta 90.000000
_cell_angle_gamma 90.000000
_cell_volume 2384.221524
_symmetry_space_group_name_H-M "I B A 2"
_symmetry_group_IT_number 45
_symmetry_cell_setting 'orthorhombic'
loop_
_space_group_symop_operation_xyz
x,y,z
-x,-y,z
-x,y,1/2+z
x,-y,1/2+z
1/2+x,1/2+y,1/2+z
1/2-x,1/2-y,1/2+z
1/2-x,1/2+y,z
1/2+x,1/2-y,z
loop_
_atom_site_type_symbol
_atom_site_label
_atom_site_fract_x
_atom_site_fract_y
_atom_site_fract_z
Si Si1 0.770533 0.057279 0.689180
Si Si2 0.045406 0.821965 0.719939
Si Si3 0.686224 0.809506 0.331417
Si Si4 0.876847 0.249900 0.140501
Si Si5 0.008460 0.307845 0.358674
Si Si6 0.383759 0.673513 0.485279
Si Si7 0.256331 0.936200 0.429884
O O1 0.860981 0.161435 0.679575
O O2 0.726953 0.102019 0.764572
O O3 0.689069 0.097470 0.637105
O O4 0.811842 0.880057 0.679230
O O5 0.071549 0.748151 0.795222
O O6 0.968670 0.719686 0.681677
O O7 0.000000 0.000000 0.726041
O O8 0.585343 0.751422 0.326405
O O9 0.740443 0.658695 0.358055
O O10 0.685368 0.916845 0.402170
O O11 0.906521 0.174832 0.066558
O O12 0.039906 0.222741 0.429789
O O13 0.000000 0.500000 0.365218
O O14 0.310997 0.816485 0.477779
O O15 0.333351 0.511260 0.461812
#
# Coordination Sequence:
#
# PCOD9377031 Si02
#       7
#     8   8   8   8   8   8   8
#     4  11  23  42  71  95 136 175 230 291 348 418
#     4  10  24  44  67  99 131 175 232 285 350 423
#     4  11  22  40  70 100 128 179 230 294 352 406
#     4  11  24  45  66  99 135 185 227 283 355 430
#     4  12  25  42  65 100 138 173 234 299 350 411
#     4  11  24  44  65  97 144 180 234 289 352 438
#     4  10  22  41  65  97 131 182 230 282 356 417
#
# _framework density 23.487752
#
# number of rings (size 3 to 8) (size 9 to 14) (size 15 to 20)
#    0.000    1.143    2.857    3.429    6.000    0.000 
#   12.857    0.714    0.000    0.000    0.000    0.000 
#    0.000    0.000    0.000    0.000    0.000    0.000 
#
# Total GULP energy -156264.826295 kJ/mol
# GULP energy per Si atom -5580.886653 kJ/mol
# Density = 2.343429 g / cm^3
# Si number density = 23.487752 Si / 1000 Ang^3
#
#
#
# Elastic Constant Matrix: (Units=GPa)
#
#
# Indices 1 2 3 4 5 6 
#
# 1 108.1942 12.3284 18.8039 0.0000 0.0000 0.0000
# 2 12.3284 39.3768 -1.8187 0.0000 0.0000 0.0000
# 3 18.8039 -1.8187 118.0690 0.0000 0.0000 0.0000
# 4 0.0000 0.0000 0.0000 19.3591 0.0000 0.0000
# 5 0.0000 0.0000 0.0000 0.0000 28.8939 0.0000
# 6 0.0000 0.0000 0.0000 0.0000 0.0000 21.7604
#
#
#
# Elastic Compliance Matrix: (Units=1/GPa)
#
#
# Indices 1 2 3 4 5 6 
#
# 1 0.009886 -0.003170 -0.001623 0.000000 0.000000 0.000000
# 2 -0.003170 0.026430 0.000912 0.000000 0.000000 0.000000
# 3 -0.001623 0.000912 0.008742 0.000000 0.000000 0.000000
# 4 0.000000 0.000000 0.000000 0.051655 0.000000 0.000000
# 5 0.000000 0.000000 0.000000 0.000000 0.034609 0.000000
# 6 0.000000 0.000000 0.000000 0.000000 0.000000 0.045955
#
#
# Mechanical properties :
#
#
# Convention : Reuss Voigt Hill
#
# Bulk Modulus (GPa) = 26.81278 36.02968 31.42123
# Shear Modulus (GPa) = 25.31993 29.75778 27.53885
#
# Velocity S-wave (km/s) = 3.28686 3.56328 3.42786
# Velocity P-wave (km/s) = 5.08380 5.68352 5.39200
#
# Compressibility (1/GPa) = 0.03729565
#
# Stress axis : x y z
#
# Youngs Moduli (GPa) = 101.15316 37.83529 114.38762
#
# Poissons Ratio (x) = 0.11994 0.18568
# Poissons Ratio (y) = 0.32067 -0.10432
# Poissons Ratio (z) = 0.16420 -0.03451
#
# Static dielectric constant tensor:
#      x y z
#    x 1.942610 0.000000 0.000000 
#    y 0.000000 1.945820 0.000000 
#    z 0.000000 0.000000 1.968980 
# 
# From -- ./inp_files/8870.got.cif
#   From: 2010.05.17/outbox.cif.g08.bks.cpg/sg45_5_cif.got.tgz:8870.got - 2010.06.03 19:51:22.
