data_PCOD9377706
_publ_section_title
;
Structure prediction by ZEFSAII (Michael W. Deem and Ramdas Pophale) SiO2 
 PCOD9377706
Probable space group: I B A 2
;
_chemical_formula_sum "Si O2"
_cell_formula_units_Z 40
_cell_length_a 28.679256
_cell_length_b 5.250662
_cell_length_c 10.397076
_cell_angle_alpha 90.000000
_cell_angle_beta 90.000000
_cell_angle_gamma 90.000000
_cell_volume 1565.644518
_symmetry_space_group_name_H-M "I B A 2"
_symmetry_group_IT_number 45
_symmetry_cell_setting 'orthorhombic'
loop_
_space_group_symop_operation_xyz
x,y,z
-x,-y,z
-x,y,1/2+z
x,-y,1/2+z
1/2+x,1/2+y,1/2+z
1/2-x,1/2-y,1/2+z
1/2-x,1/2+y,z
1/2+x,1/2-y,z
loop_
_atom_site_type_symbol
_atom_site_label
_atom_site_fract_x
_atom_site_fract_y
_atom_site_fract_z
Si Si1 0.279642 0.612659 0.301340
Si Si2 0.892728 0.501239 0.216639
Si Si3 0.836579 0.134260 0.067671
Si Si4 0.399825 0.494707 0.370971
Si Si5 0.000000 0.500000 0.117761
Si Si6 0.000000 0.000000 0.944695
O O1 0.262133 0.903980 0.295142
O O2 0.305127 0.600637 0.440049
O O3 0.309744 0.509895 0.180657
O O4 0.855603 0.417376 0.105698
O O5 0.883388 0.755987 0.295401
O O6 0.948253 0.498500 0.183101
O O7 0.883501 0.267411 0.312795
O O8 0.885266 0.007638 0.020264
O O9 0.454827 0.499423 0.358581
O O10 0.999939 0.749980 0.030342
#
# Coordination Sequence:
#
# PCOD9377706 Si02
#       6
#     8   8   8   8   4   4
#     4  12  30  55  86 121 162 206 270 351 437 514
#     4  12  27  47  77 117 165 221 279 343 408 495
#     4  12  28  54  87 121 164 214 277 341 427 510
#     4  12  27  47  77 116 167 221 279 342 406 497
#     4  12  24  44  74 110 168 228 286 348 408 480
#     4  12  24  46  72 114 168 230 288 344 408 476
#
# _framework density 25.548582
#
# number of rings (size 3 to 8) (size 9 to 14) (size 15 to 20)
#    0.000    0.000    4.000    4.800    2.800    3.200 
#    0.000    0.000    0.000    0.000    0.000    0.000 
#    0.000    0.000    0.000    0.000    0.000    0.000 
#
# Total GULP energy -111923.335940 kJ/mol
# GULP energy per Si atom -5596.166797 kJ/mol
# Density = 2.549043 g / cm^3
# Si number density = 25.548582 Si / 1000 Ang^3
#
#
#
# Elastic Constant Matrix: (Units=GPa)
#
#
# Indices 1 2 3 4 5 6 
#
# 1 96.5766 6.7589 48.6409 0.0000 0.0000 0.0000
# 2 6.7589 148.2714 48.3139 0.0000 0.0000 0.0000
# 3 48.6409 48.3139 136.5321 0.0000 0.0000 0.0000
# 4 0.0000 0.0000 0.0000 43.2161 0.0000 0.0000
# 5 0.0000 0.0000 0.0000 0.0000 63.1109 0.0000
# 6 0.0000 0.0000 0.0000 0.0000 0.0000 54.5874
#
#
#
# Elastic Compliance Matrix: (Units=1/GPa)
#
#
# Indices 1 2 3 4 5 6 
#
# 1 0.012753 0.001016 -0.004903 0.000000 0.000000 0.000000
# 2 0.001016 0.007704 -0.003088 0.000000 0.000000 0.000000
# 3 -0.004903 -0.003088 0.010164 0.000000 0.000000 0.000000
# 4 0.000000 0.000000 0.000000 0.023140 0.000000 0.000000
# 5 0.000000 0.000000 0.000000 0.000000 0.015845 0.000000
# 6 0.000000 0.000000 0.000000 0.000000 0.000000 0.018319
#
#
# Mechanical properties :
#
#
# Convention : Reuss Voigt Hill
#
# Bulk Modulus (GPa) = 59.98452 65.42303 62.70378
# Shear Modulus (GPa) = 46.54114 50.69398 48.61756
#
# Velocity S-wave (km/s) = 4.27274 4.45929 4.36701
# Velocity P-wave (km/s) = 6.91891 7.22334 7.07276
#
# Compressibility (1/GPa) = 0.01667097
#
# Stress axis : x y z
#
# Youngs Moduli (GPa) = 78.41474 129.79592 98.38786
#
# Poissons Ratio (x) = -0.13191 0.48239
# Poissons Ratio (y) = -0.07969 0.30386
# Poissons Ratio (z) = 0.38446 0.40086
#
# Static dielectric constant tensor:
#      x y z
#    x 2.131750 0.000000 0.000000 
#    y 0.000000 1.931360 0.000000 
#    z 0.000000 0.000000 2.069490 
# 
# From -- ./inp_files/4839.got.cif
#   From: 2010.05.17/outbox.cif.g08.bks.cpg/sg45_3_cif.got.tgz:4839.got - 2010.06.03 19:51:22.
