data_PCOD9377636
_publ_section_title
;
Structure prediction by ZEFSAII (Michael W. Deem and Ramdas Pophale) SiO2 
 PCOD9377636
Probable space group: I B A 2
;
_chemical_formula_sum "Si O2"
_cell_formula_units_Z 40
_cell_length_a 9.390891
_cell_length_b 8.804084
_cell_length_c 19.384965
_cell_angle_alpha 90.000000
_cell_angle_beta 90.000000
_cell_angle_gamma 90.000000
_cell_volume 1602.713881
_symmetry_space_group_name_H-M "I B A 2"
_symmetry_group_IT_number 45
_symmetry_cell_setting 'orthorhombic'
loop_
_space_group_symop_operation_xyz
x,y,z
-x,-y,z
-x,y,1/2+z
x,-y,1/2+z
1/2+x,1/2+y,1/2+z
1/2-x,1/2-y,1/2+z
1/2-x,1/2+y,z
1/2+x,1/2-y,z
loop_
_atom_site_type_symbol
_atom_site_label
_atom_site_fract_x
_atom_site_fract_y
_atom_site_fract_z
Si Si1 0.837881 0.948992 0.746540
Si Si2 0.459510 0.681427 0.076962
Si Si3 0.832727 0.051297 0.897849
Si Si4 0.805040 0.684451 0.486540
Si Si5 0.102816 0.371282 0.700332
O O1 0.788866 0.005634 0.821283
O O2 0.837975 0.768543 0.743962
O O3 0.743417 0.027047 0.686905
O O4 0.000000 0.000000 0.738840
O O5 0.500000 0.500000 0.080423
O O6 0.512252 0.782785 0.141778
O O7 0.298285 0.708457 0.052457
O O8 0.544396 0.762733 0.014651
O O9 0.741400 0.978921 0.959984
O O10 0.800484 0.225232 0.914040
O O11 0.000000 0.000000 0.904790
O O12 0.000000 0.500000 0.731917
#
# Coordination Sequence:
#
# PCOD9377636 Si02
#       5
#     8   8   8   8   8
#     4  11  26  50  78 108 152 201 259 320 384 462
#     4  12  29  48  74 110 157 200 256 318 380 467
#     4  11  24  48  73 109 152 190 251 321 381 456
#     4  12  23  48  73 108 149 197 245 310 388 447
#     4  12  29  49  75 114 148 202 254 316 391 455
#
# _framework density 24.957667000000001
#
# number of rings (size 3 to 8) (size 9 to 14) (size 15 to 20)
#    0.000    0.400    4.000    3.000   11.200    1.600 
#    3.600    0.000    0.000    0.000    0.000    0.000 
#    0.000    0.000    0.000    0.000    0.000    0.000 
#
# Total GULP energy -111635.258077 kJ/mol
# GULP energy per Si atom -5581.762904 kJ/mol
# Density = 2.490086 g / cm^3
# Si number density = 24.957667 Si / 1000 Ang^3
#
#
#
# Elastic Constant Matrix: (Units=GPa)
#
#
# Indices 1 2 3 4 5 6 
#
# 1 76.0326 31.3420 -4.1199 0.0000 0.0000 0.0000
# 2 31.3420 120.0791 17.8313 0.0000 0.0000 0.0000
# 3 -4.1199 17.8313 97.9581 0.0000 0.0000 0.0000
# 4 0.0000 0.0000 0.0000 -177.3604 0.0000 0.0000
# 5 0.0000 0.0000 0.0000 0.0000 10.8392 0.0000
# 6 0.0000 0.0000 0.0000 0.0000 0.0000 34.1022
#
#
#
# Elastic Compliance Matrix: (Units=1/GPa)
#
#
# Indices 1 2 3 4 5 6 
#
# 1 0.014916 -0.004097 0.001373 0.000000 0.000000 0.000000
# 2 -0.004097 0.009685 -0.001935 0.000000 0.000000 0.000000
# 3 0.001373 -0.001935 0.010618 0.000000 0.000000 0.000000
# 4 0.000000 0.000000 0.000000 -0.005638 0.000000 0.000000
# 5 0.000000 0.000000 0.000000 0.000000 0.092257 0.000000
# 6 0.000000 0.000000 0.000000 0.000000 0.000000 0.029324
#
#
# Mechanical properties :
#
#
# Convention : Reuss Voigt Hill
#
# Bulk Modulus (GPa) = 38.60954 42.68628 40.64791
# Shear Modulus (GPa) = 29.56603 -9.88270 9.84167
#
# Velocity S-wave (km/s) = 3.44560 -1.99208 1.98794
# Velocity P-wave (km/s) = 5.59761 3.44230 4.64664
#
# Compressibility (1/GPa) = 0.02590033
#
# Stress axis : x y z
#
# Youngs Moduli (GPa) = 67.04428 103.25691 94.17557
#
# Poissons Ratio (x) = 0.42305 -0.12931
# Poissons Ratio (y) = 0.27468 0.18225
# Poissons Ratio (z) = -0.09206 0.19982
#
# Static dielectric constant tensor:
#      x y z
#    x 2.042390 0.000000 0.000000 
#    y 0.000000 2.258250 0.000000 
#    z 0.000000 0.000000 2.029360 
# 
# From -- ./inp_files/9491.got.cif
#   From: 2010.05.17/outbox.cif.g08.bks.cpg/sg45_5_cif.got.tgz:9491.got - 2010.06.03 19:51:22.
