data_PCOD9377249
_publ_section_title
;
Structure prediction by ZEFSAII (Michael W. Deem and Ramdas Pophale) SiO2 
 PCOD9377249
Probable space group: I B A 2
;
_chemical_formula_sum "Si O2"
_cell_formula_units_Z 40
_cell_length_a 7.795332
_cell_length_b 17.605491
_cell_length_c 14.088441
_cell_angle_alpha 90.000000
_cell_angle_beta 90.000000
_cell_angle_gamma 90.000000
_cell_volume 1933.506763
_symmetry_space_group_name_H-M "I B A 2"
_symmetry_group_IT_number 45
_symmetry_cell_setting 'orthorhombic'
loop_
_space_group_symop_operation_xyz
x,y,z
-x,-y,z
-x,y,1/2+z
x,-y,1/2+z
1/2+x,1/2+y,1/2+z
1/2-x,1/2-y,1/2+z
1/2-x,1/2+y,z
1/2+x,1/2-y,z
loop_
_atom_site_type_symbol
_atom_site_label
_atom_site_fract_x
_atom_site_fract_y
_atom_site_fract_z
Si Si1 0.581296 0.416218 0.706790
Si Si2 0.662338 0.195682 0.987200
Si Si3 0.206979 0.189504 0.160601
Si Si4 0.454437 0.307454 0.854312
Si Si5 0.966898 0.589082 0.131560
O O1 0.500000 0.500000 0.708449
O O2 0.777234 0.407351 0.676629
O O3 0.452857 0.366769 0.640308
O O4 0.561083 0.375598 0.808584
O O5 0.562021 0.245923 0.910839
O O6 0.821549 0.162044 0.931139
O O7 0.718756 0.249849 0.075910
O O8 0.548661 0.128938 0.029499
O O9 0.148242 0.224940 0.261692
O O10 0.377275 0.138571 0.176407
O O11 0.000000 0.500000 0.127527
#
# Coordination Sequence:
#
# PCOD9377249 Si02
#       5
#     8   8   8   8   8
#     4  10  23  46  71 104 143 190 236 299 358 425
#     4  12  24  46  68 109 143 188 247 295 361 430
#     4  10  25  45  73 101 144 190 235 303 349 428
#     4  10  26  42  70 104 142 188 238 295 362 421
#     4  12  24  47  77 105 143 193 242 294 364 426
#
# _framework density 20.687798999999998
#
# number of rings (size 3 to 8) (size 9 to 14) (size 15 to 20)
#    1.200    0.000    4.000    1.200    5.600    0.000 
#    3.600    1.000    0.000    0.000    0.000    0.000 
#    0.000    0.000    0.000    0.000    0.000    0.000 
#
# Total GULP energy -111538.495996 kJ/mol
# GULP energy per Si atom -5576.924800 kJ/mol
# Density = 2.064071 g / cm^3
# Si number density = 20.687799 Si / 1000 Ang^3
#
#
#
# Elastic Constant Matrix: (Units=GPa)
#
#
# Indices 1 2 3 4 5 6 
#
# 1 133.4110 59.8055 36.4774 0.0000 0.0000 0.0000
# 2 59.8055 100.2288 51.0265 0.0000 0.0000 0.0000
# 3 36.4774 51.0265 103.2706 0.0000 0.0000 0.0000
# 4 0.0000 0.0000 0.0000 20.1572 0.0000 0.0000
# 5 0.0000 0.0000 0.0000 0.0000 37.8702 0.0000
# 6 0.0000 0.0000 0.0000 0.0000 0.0000 -22.3995
#
#
#
# Elastic Compliance Matrix: (Units=1/GPa)
#
#
# Indices 1 2 3 4 5 6 
#
# 1 0.010282 -0.005727 -0.000802 0.000000 0.000000 0.000000
# 2 -0.005727 0.016520 -0.006140 0.000000 0.000000 0.000000
# 3 -0.000802 -0.006140 0.013000 0.000000 0.000000 0.000000
# 4 0.000000 0.000000 0.000000 0.049610 0.000000 0.000000
# 5 0.000000 0.000000 0.000000 0.000000 0.026406 0.000000
# 6 0.000000 0.000000 0.000000 0.000000 0.000000 -0.044644
#
#
# Mechanical properties :
#
#
# Convention : Reuss Voigt Hill
#
# Bulk Modulus (GPa) = 69.13296 70.16991 69.65143
# Shear Modulus (GPa) = 49.34160 19.76565 34.55362
#
# Velocity S-wave (km/s) = 4.88900 3.09435 4.09129
# Velocity P-wave (km/s) = 8.08453 6.83804 7.48727
#
# Compressibility (1/GPa) = 0.01446488
#
# Stress axis : x y z
#
# Youngs Moduli (GPa) = 97.25523 60.53226 76.92091
#
# Poissons Ratio (x) = 0.34666 0.06171
# Poissons Ratio (y) = 0.55697 0.47228
# Poissons Ratio (z) = 0.07802 0.37166
#
# Static dielectric constant tensor:
#      x y z
#    x 1.822690 0.000000 0.000000 
#    y 0.000000 1.729440 0.000000 
#    z 0.000000 0.000000 1.741020 
# 
# From -- ./inp_files/7429.got.cif
#   From: 2010.05.17/outbox.cif.g08.bks.cpg/sg45_4_cif.got.tgz:7429.got - 2010.06.03 19:51:22.
