data_PCOD9377882
_publ_section_title
;
Structure prediction by ZEFSAII (Michael W. Deem and Ramdas Pophale) SiO2 
 PCOD9377882
Probable space group: I M A 2
;
_chemical_formula_sum "Si O2"
_cell_formula_units_Z 48
_cell_length_a 17.993537
_cell_length_b 14.325186
_cell_length_c 9.776318
_cell_angle_alpha 90.000000
_cell_angle_beta 90.000000
_cell_angle_gamma 90.000000
_cell_volume 2519.951200
_symmetry_space_group_name_H-M "I M A 2"
_symmetry_group_IT_number 46
_symmetry_cell_setting 'orthorhombic'
loop_
_space_group_symop_operation_xyz
x,y,z
-x,-y,z
1/2-x,y,z
1/2+x,-y,z
1/2+x,1/2+y,1/2+z
1/2-x,1/2-y,1/2+z
-x,1/2+y,1/2+z
x,1/2-y,1/2+z
loop_
_atom_site_type_symbol
_atom_site_label
_atom_site_fract_x
_atom_site_fract_y
_atom_site_fract_z
Si Si1 0.581076 0.631616 0.146550
Si Si2 0.938541 0.752759 0.896845
Si Si3 0.664362 0.312713 0.000758
Si Si4 0.453605 0.590812 0.807367
Si Si5 0.928899 0.125674 0.003616
Si Si6 0.909914 0.425429 0.207236
O O1 0.603854 0.688807 0.281728
O O2 0.608542 0.526017 0.146069
O O3 0.490514 0.615603 0.158569
O O4 0.600220 0.690083 0.011936
O O5 0.992021 0.680208 0.816626
O O6 0.991785 0.824636 0.977513
O O7 0.750000 0.314331 0.964388
O O8 0.615232 0.379432 0.902371
O O9 0.630348 0.209506 0.997869
O O10 0.649371 0.351625 0.153337
O O11 0.500000 0.500000 0.853796
O O12 0.428876 0.577801 0.650591
O O13 0.915122 0.063640 0.870090
#
# Coordination Sequence:
#
# PCOD9377882 Si02
#       6
#     8   8   8   8   8   8
#     4  10  18  30  51  74 111 137 183 231 287 338
#     4  10  17  30  46  75 108 144 178 225 289 337
#     4  11  22  38  56  79 115 160 193 228 291 364
#     4  11  21  33  52  83 118 150 192 242 289 340
#     4  10  20  32  49  77 110 148 189 229 284 342
#     4  10  20  32  50  77 106 148 186 232 278 340
#
# _framework density 19.047988
#
# number of rings (size 3 to 8) (size 9 to 14) (size 15 to 20)
#    0.000    1.667    5.000    3.000    4.667    2.667 
#    0.000    0.000    0.000    0.000    0.000    4.667 
#    0.000    0.000    0.000    0.000    0.000    0.000 
#
# Total GULP energy -133923.345776 kJ/mol
# GULP energy per Si atom -5580.139407 kJ/mol
# Density = 1.900463 g / cm^3
# Si number density = 19.047988 Si / 1000 Ang^3
#
#
#
# Elastic Constant Matrix: (Units=GPa)
#
#
# Indices 1 2 3 4 5 6 
#
# 1 36.6972 5.4278 -3.1960 0.0000 0.0000 0.0000
# 2 5.4278 67.8710 9.9422 0.0000 0.0000 0.0000
# 3 -3.1960 9.9422 98.6788 0.0000 0.0000 0.0000
# 4 0.0000 0.0000 0.0000 31.4165 0.0000 0.0000
# 5 0.0000 0.0000 0.0000 0.0000 7.2913 0.0000
# 6 0.0000 0.0000 0.0000 0.0000 0.0000 7.0832
#
#
#
# Elastic Compliance Matrix: (Units=1/GPa)
#
#
# Indices 1 2 3 4 5 6 
#
# 1 0.027701 -0.002382 0.001137 0.000000 0.000000 0.000000
# 2 -0.002382 0.015159 -0.001605 0.000000 0.000000 0.000000
# 3 0.001137 -0.001605 0.010332 0.000000 0.000000 0.000000
# 4 0.000000 0.000000 0.000000 0.031830 0.000000 0.000000
# 5 0.000000 0.000000 0.000000 0.000000 0.137150 0.000000
# 6 0.000000 0.000000 0.000000 0.000000 0.000000 0.141178
#
#
# Mechanical properties :
#
#
# Convention : Reuss Voigt Hill
#
# Bulk Modulus (GPa) = 21.05503 25.28834 23.17168
# Shear Modulus (GPa) = 12.99099 21.89640 17.44369
#
# Velocity S-wave (km/s) = 2.61437 3.39416 3.02946
# Velocity P-wave (km/s) = 4.49343 5.35401 4.94249
#
# Compressibility (1/GPa) = 0.04749459
#
# Stress axis : x y z
#
# Youngs Moduli (GPa) = 36.09933 65.96589 96.78309
#
# Poissons Ratio (x) = 0.15713 -0.11006
# Poissons Ratio (y) = 0.08599 0.15529
# Poissons Ratio (z) = -0.04105 0.10584
#
# Static dielectric constant tensor:
#      x y z
#    x 1.639490 0.000000 0.000000 
#    y 0.000000 1.664350 0.000000 
#    z 0.000000 0.000000 1.732250 
# 
# From -- ./inp_files/6617.got.cif
#   From: 2010.05.17/outbox.cif.g08.bks.cpg/sg46_4_cif.got.tgz:6617.got - 2010.06.03 19:58:25.
