data_PCOD9377553
_publ_section_title
;
Structure prediction by ZEFSAII (Michael W. Deem and Ramdas Pophale) SiO2 
 PCOD9377553
Probable space group: I B A 2
;
_chemical_formula_sum "Si O2"
_cell_formula_units_Z 64
_cell_length_a 18.823069
_cell_length_b 19.050667
_cell_length_c 8.918116
_cell_angle_alpha 90.000000
_cell_angle_beta 90.000000
_cell_angle_gamma 90.000000
_cell_volume 3197.965226
_symmetry_space_group_name_H-M "I B A 2"
_symmetry_group_IT_number 45
_symmetry_cell_setting 'orthorhombic'
loop_
_space_group_symop_operation_xyz
x,y,z
-x,-y,z
-x,y,1/2+z
x,-y,1/2+z
1/2+x,1/2+y,1/2+z
1/2-x,1/2-y,1/2+z
1/2-x,1/2+y,z
1/2+x,1/2-y,z
loop_
_atom_site_type_symbol
_atom_site_label
_atom_site_fract_x
_atom_site_fract_y
_atom_site_fract_z
Si Si1 0.165072 0.943128 0.147220
Si Si2 0.166415 0.101527 0.137730
Si Si3 0.278553 0.829771 0.188601
Si Si4 0.081069 0.296230 0.357585
Si Si5 0.422946 0.632074 0.389910
Si Si6 0.719430 0.812281 0.330614
Si Si7 0.929245 0.290401 0.211335
Si Si8 0.415866 0.360207 0.365534
O O1 0.233611 0.900653 0.204334
O O2 0.107716 0.929976 0.278494
O O3 0.184640 0.021451 0.100762
O O4 0.128604 0.902367 0.009970
O O5 0.094469 0.094412 0.234930
O O6 0.227420 0.136081 0.240070
O O7 0.142254 0.148361 0.996854
O O8 0.355601 0.832956 0.266632
O O9 0.239761 0.764738 0.269399
O O10 0.277079 0.815388 0.010152
O O11 0.096496 0.212727 0.354673
O O12 0.074958 0.308029 0.535668
O O13 0.005557 0.309557 0.279174
O O14 0.505374 0.631383 0.431447
O O15 0.637977 0.826820 0.287601
O O16 0.920111 0.206946 0.253676
#
# Coordination Sequence:
#
# PCOD9377553 Si02
#       8
#     8   8   8   8   8   8   8   8
#     4  12  24  42  59  93 130 175 222 269 321 390
#     4  12  26  39  62  91 132 176 222 267 324 385
#     4  12  23  41  66  89 128 167 217 271 327 382
#     4  11  23  40  67  95 126 160 211 267 323 385
#     4  11  22  42  58  92 128 173 218 262 313 392
#     4  12  23  41  63  92 123 172 215 273 324 385
#     4  11  23  40  65  97 124 162 213 265 325 385
#     4  11  24  37  66  89 131 175 220 264 319 380
#
# _framework density 20.012725
#
# number of rings (size 3 to 8) (size 9 to 14) (size 15 to 20)
#    0.000    0.500    5.000    3.750    7.000    3.000 
#    0.000    0.000    0.000    0.750    0.000    3.500 
#    0.000    0.000    0.000    0.000    0.000    0.000 
#
# Total GULP energy -178716.573253 kJ/mol
# GULP energy per Si atom -5584.892914 kJ/mol
# Density = 1.996718 g / cm^3
# Si number density = 20.012725 Si / 1000 Ang^3
#
#
#
# Elastic Constant Matrix: (Units=GPa)
#
#
# Indices 1 2 3 4 5 6 
#
# 1 140.6075 41.7778 52.3389 0.0000 0.0000 0.0000
# 2 41.7778 56.1955 14.3984 0.0000 0.0000 0.0000
# 3 52.3389 14.3984 118.2537 0.0000 0.0000 0.0000
# 4 0.0000 0.0000 0.0000 14.8404 0.0000 0.0000
# 5 0.0000 0.0000 0.0000 0.0000 44.1752 0.0000
# 6 0.0000 0.0000 0.0000 0.0000 0.0000 18.4172
#
#
#
# Elastic Compliance Matrix: (Units=1/GPa)
#
#
# Indices 1 2 3 4 5 6 
#
# 1 0.010591 -0.006888 -0.003849 0.000000 0.000000 0.000000
# 2 -0.006888 0.022847 0.000267 0.000000 0.000000 0.000000
# 3 -0.003849 0.000267 0.010128 0.000000 0.000000 0.000000
# 4 0.000000 0.000000 0.000000 0.067383 0.000000 0.000000
# 5 0.000000 0.000000 0.000000 0.000000 0.022637 0.000000
# 6 0.000000 0.000000 0.000000 0.000000 0.000000 0.054297
#
#
# Mechanical properties :
#
#
# Convention : Reuss Voigt Hill
#
# Bulk Modulus (GPa) = 44.19729 59.12075 51.65902
# Shear Modulus (GPa) = 23.10900 29.25601 26.18250
#
# Velocity S-wave (km/s) = 3.40180 3.82759 3.62096
# Velocity P-wave (km/s) = 6.12880 7.00997 6.58414
#
# Compressibility (1/GPa) = 0.02262582
#
# Stress axis : x y z
#
# Youngs Moduli (GPa) = 94.41769 43.76889 98.74104
#
# Poissons Ratio (x) = 0.30147 0.38006
# Poissons Ratio (y) = 0.65032 -0.02633
# Poissons Ratio (z) = 0.36342 -0.01167
#
# Static dielectric constant tensor:
#      x y z
#    x 1.727960 0.000000 0.000000 
#    y 0.000000 1.717050 0.000000 
#    z 0.000000 0.000000 1.774780 
# 
# From -- ./inp_files/2209.got.cif
#   From: 2010.05.17/outbox.cif.g08.bks.cpg/sg45_2_cif.got.tgz:2209.got - 2010.06.03 19:51:22.
