data_PCOD9377835
_publ_section_title
;
Structure prediction by ZEFSAII (Michael W. Deem and Ramdas Pophale) SiO2 
 PCOD9377835
Probable space group: I M A 2
;
_chemical_formula_sum "Si O2"
_cell_formula_units_Z 56
_cell_length_a 8.464489
_cell_length_b 14.124542
_cell_length_c 30.383214
_cell_angle_alpha 90.000000
_cell_angle_beta 90.000000
_cell_angle_gamma 90.000000
_cell_volume 3632.526840
_symmetry_space_group_name_H-M "I M A 2"
_symmetry_group_IT_number 46
_symmetry_cell_setting 'orthorhombic'
loop_
_space_group_symop_operation_xyz
x,y,z
-x,-y,z
1/2-x,y,z
1/2+x,-y,z
1/2+x,1/2+y,1/2+z
1/2-x,1/2-y,1/2+z
-x,1/2+y,1/2+z
x,1/2-y,1/2+z
loop_
_atom_site_type_symbol
_atom_site_label
_atom_site_fract_x
_atom_site_fract_y
_atom_site_fract_z
Si Si1 0.560210 0.891982 0.797110
Si Si2 0.057539 0.293739 0.572004
Si Si3 0.440420 0.104225 0.161217
Si Si4 0.562033 0.391722 0.389874
Si Si5 0.939790 0.891982 0.982637
Si Si6 0.942461 0.706261 0.207743
Si Si7 0.940420 0.895775 0.618530
O O1 0.750000 0.894289 0.798004
O O2 0.500269 0.851509 0.843739
O O3 0.505290 0.832453 0.754824
O O4 0.500000 0.000000 0.792657
O O5 0.250000 0.294038 0.571708
O O6 0.008744 0.362200 0.612255
O O7 0.005290 0.332453 0.524924
O O8 0.007879 0.187679 0.585358
O O9 0.250000 0.103315 0.161342
O O10 0.492121 0.187679 0.194390
O O11 0.500000 0.000000 0.171504
O O12 0.500000 0.500000 0.389874
O O13 0.750000 0.392269 0.389873
O O14 0.499732 0.351509 0.436009
O O15 0.750000 0.894289 0.981743
O O16 0.000000 0.000000 0.987091
O O17 0.750000 0.705962 0.208039
O O18 0.991255 0.637800 0.167493
O O19 0.750000 0.896685 0.618405
O O20 0.000000 0.000000 0.608243
#
# Coordination Sequence:
#
# PCOD9377835 Si02
#       7
#     8   8   8   8   8   8   8
#     4  10  17  27  42  61  83 111 140 169 201 242
#     4   8  16  28  43  60  84 114 141 164 201 248
#     4   9  16  29  44  61  84 112 140 170 202 239
#     4  10  18  28  40  58  83 110 135 168 207 246
#     4  10  17  27  42  61  83 111 140 169 201 242
#     4   8  16  28  43  60  84 114 141 164 201 248
#     4   9  16  29  44  61  84 112 140 170 202 239
#
# _framework density 15.416266
#
# number of rings (size 3 to 8) (size 9 to 14) (size 15 to 20)
#    0.000    2.857    0.000    6.429    0.000    0.000 
#    0.000    7.143    0.000    0.000    0.000    1.000 
#    0.000    0.000    0.000    0.000    0.000    0.000 
#
# Total GULP energy -155954.356734 kJ/mol
# GULP energy per Si atom -5569.798455 kJ/mol
# Density = 1.538118 g / cm^3
# Si number density = 15.416266 Si / 1000 Ang^3
#
#
#
# Elastic Constant Matrix: (Units=GPa)
#
#
# Indices 1 2 3 4 5 6 
#
# 1 39.1708 15.1535 28.5696 0.0000 0.0000 0.0000
# 2 15.1535 93.5199 65.5886 0.0000 0.0000 0.0000
# 3 28.5696 65.5886 161.9049 0.0000 0.0000 0.0000
# 4 0.0000 0.0000 0.0000 23.4056 0.0000 0.0000
# 5 0.0000 0.0000 0.0000 0.0000 15.9096 0.0000
# 6 0.0000 0.0000 0.0000 0.0000 0.0000 20.7880
#
#
#
# Elastic Compliance Matrix: (Units=1/GPa)
#
#
# Indices 1 2 3 4 5 6 
#
# 1 0.029466 -0.001576 -0.004561 0.000000 0.000000 0.000000
# 2 -0.001576 0.015021 -0.005807 0.000000 0.000000 0.000000
# 3 -0.004561 -0.005807 0.009334 0.000000 0.000000 0.000000
# 4 0.000000 0.000000 0.000000 0.042725 0.000000 0.000000
# 5 0.000000 0.000000 0.000000 0.000000 0.062855 0.000000
# 6 0.000000 0.000000 0.000000 0.000000 0.000000 0.048105
#
#
# Mechanical properties :
#
#
# Convention : Reuss Voigt Hill
#
# Bulk Modulus (GPa) = 33.40831 57.02433 45.21632
# Shear Modulus (GPa) = 20.71511 24.37291 22.54401
#
# Velocity S-wave (km/s) = 3.66965 3.98048 3.82822
# Velocity P-wave (km/s) = 6.29865 7.62860 6.99531
#
# Compressibility (1/GPa) = 0.02993267
#
# Stress axis : x y z
#
# Youngs Moduli (GPa) = 33.93800 66.57406 107.13757
#
# Poissons Ratio (x) = 0.10489 0.48868
# Poissons Ratio (y) = 0.05347 0.62215
# Poissons Ratio (z) = 0.15480 0.38660
#
# Static dielectric constant tensor:
#      x y z
#    x 1.543300 0.000000 0.000000 
#    y 0.000000 1.491930 0.000000 
#    z 0.000000 0.000000 1.543060 
# 
# From -- ./inp_files/25246.got.cif
#   From: 2010.05.17/outbox.cif.g08.bks.cpg/sg46_13_cif.got.tgz:25246.got - 2010.06.03 19:58:25.
