data_PCOD9377512
_publ_section_title
;
Structure prediction by ZEFSAII (Michael W. Deem and Ramdas Pophale) SiO2 
 PCOD9377512
Probable space group: I B A 2
;
_chemical_formula_sum "Si O2"
_cell_formula_units_Z 56
_cell_length_a 14.156224
_cell_length_b 8.575334
_cell_length_c 21.540781
_cell_angle_alpha 90.000000
_cell_angle_beta 90.000000
_cell_angle_gamma 90.000000
_cell_volume 2614.929086
_symmetry_space_group_name_H-M "I B A 2"
_symmetry_group_IT_number 45
_symmetry_cell_setting 'orthorhombic'
loop_
_space_group_symop_operation_xyz
x,y,z
-x,-y,z
-x,y,1/2+z
x,-y,1/2+z
1/2+x,1/2+y,1/2+z
1/2-x,1/2-y,1/2+z
1/2-x,1/2+y,z
1/2+x,1/2-y,z
loop_
_atom_site_type_symbol
_atom_site_label
_atom_site_fract_x
_atom_site_fract_y
_atom_site_fract_z
Si Si1 0.234819 0.488887 0.846360
Si Si2 0.830085 0.670847 0.719236
Si Si3 0.951536 0.351056 0.896716
Si Si4 0.172928 0.863781 0.968634
Si Si5 0.930110 0.144441 0.307266
Si Si6 0.302943 0.639332 0.051178
Si Si7 0.692323 0.892718 0.638458
O O1 0.216097 0.390090 0.783844
O O2 0.142748 0.592773 0.860653
O O3 0.258276 0.396525 0.909868
O O4 0.329893 0.585154 0.832738
O O5 0.914744 0.781918 0.739818
O O6 0.757891 0.781074 0.681287
O O7 0.860408 0.516114 0.682152
O O8 0.919486 0.219699 0.943699
O O9 0.000000 0.500000 0.927581
O O10 0.025898 0.278199 0.849621
O O11 0.225181 0.742168 0.014319
O O12 0.149237 0.027839 0.000884
O O13 0.000000 0.000000 0.306673
O O14 0.357156 0.768975 0.092215
O O15 0.254393 0.512240 0.096678
#
# Coordination Sequence:
#
# PCOD9377512 Si02
#       7
#     8   8   8   8   8   8   8
#     4  12  24  40  70 104 138 184 232 280 378 426
#     4  11  21  38  67 101 141 175 231 296 344 433
#     4  12  26  40  62 107 148 184 225 280 367 444
#     4  11  21  38  67 101 141 175 231 296 344 433
#     4  12  26  40  62 107 148 184 225 280 367 444
#     4   9  20  38  65 106 124 184 247 284 346 411
#     4   9  20  38  65 106 124 184 247 284 346 411
#
# _framework density 21.415493999999999
#
# number of rings (size 3 to 8) (size 9 to 14) (size 15 to 20)
#    0.000    1.143    5.714    0.857    0.000    0.000 
#    0.000    0.000    0.000    0.000   89.143    0.000 
#    0.000    0.000    0.000    0.000    0.000    0.000 
#
# Total GULP energy -156283.928306 kJ/mol
# GULP energy per Si atom -5581.568868 kJ/mol
# Density = 2.136675 g / cm^3
# Si number density = 21.415494 Si / 1000 Ang^3
#
#
#
# Elastic Constant Matrix: (Units=GPa)
#
#
# Indices 1 2 3 4 5 6 
#
# 1 60.5828 26.2313 6.7475 0.0000 0.0000 0.0000
# 2 26.2313 133.6406 42.9451 0.0000 0.0000 0.0000
# 3 6.7475 42.9451 88.7652 0.0000 0.0000 0.0000
# 4 0.0000 0.0000 0.0000 52.0130 0.0000 0.0000
# 5 0.0000 0.0000 0.0000 0.0000 2.7778 0.0000
# 6 0.0000 0.0000 0.0000 0.0000 0.0000 36.9265
#
#
#
# Elastic Compliance Matrix: (Units=1/GPa)
#
#
# Indices 1 2 3 4 5 6 
#
# 1 0.018052 -0.003673 0.000405 0.000000 0.000000 0.000000
# 2 -0.003673 0.009608 -0.004369 0.000000 0.000000 0.000000
# 3 0.000405 -0.004369 0.013349 0.000000 0.000000 0.000000
# 4 0.000000 0.000000 0.000000 0.019226 0.000000 0.000000
# 5 0.000000 0.000000 0.000000 0.000000 0.360001 0.000000
# 6 0.000000 0.000000 0.000000 0.000000 0.000000 0.027081
#
#
# Mechanical properties :
#
#
# Convention : Reuss Voigt Hill
#
# Bulk Modulus (GPa) = 38.86018 48.31515 43.58767
# Shear Modulus (GPa) = 10.61192 32.14776 21.37984
#
# Velocity S-wave (km/s) = 2.22845 3.87866 3.16307
# Velocity P-wave (km/s) = 4.98062 6.53212 5.80840
#
# Compressibility (1/GPa) = 0.02573328
#
# Stress axis : x y z
#
# Youngs Moduli (GPa) = 55.39636 104.08242 74.91383
#
# Poissons Ratio (x) = 0.38234 -0.03034
# Poissons Ratio (y) = 0.20349 0.32730
# Poissons Ratio (z) = -0.02244 0.45474
#
# Static dielectric constant tensor:
#      x y z
#    x 1.760630 0.000000 0.000000 
#    y 0.000000 1.813690 0.000000 
#    z 0.000000 0.000000 1.839260 
# 
# From -- ./inp_files/9181.got.cif
#   From: 2010.05.17/outbox.cif.g08.bks.cpg/sg45_5_cif.got.tgz:9181.got - 2010.06.03 19:51:22.
