data_PCOD9377552
_publ_section_title
;
Structure prediction by ZEFSAII (Michael W. Deem and Ramdas Pophale) SiO2 
 PCOD9377552
Probable space group: I B A 2
;
_chemical_formula_sum "Si O2"
_cell_formula_units_Z 64
_cell_length_a 21.239858
_cell_length_b 8.403452
_cell_length_c 14.541772
_cell_angle_alpha 90.000000
_cell_angle_beta 90.000000
_cell_angle_gamma 90.000000
_cell_volume 2595.533650
_symmetry_space_group_name_H-M "I B A 2"
_symmetry_group_IT_number 45
_symmetry_cell_setting 'orthorhombic'
loop_
_space_group_symop_operation_xyz
x,y,z
-x,-y,z
-x,y,1/2+z
x,-y,1/2+z
1/2+x,1/2+y,1/2+z
1/2-x,1/2-y,1/2+z
1/2-x,1/2+y,z
1/2+x,1/2-y,z
loop_
_atom_site_type_symbol
_atom_site_label
_atom_site_fract_x
_atom_site_fract_y
_atom_site_fract_z
Si Si1 0.754987 0.434326 0.019080
Si Si2 0.547147 0.812846 0.909861
Si Si3 0.035088 0.173483 0.052792
Si Si4 0.334449 0.951128 0.338348
Si Si5 0.366213 0.503615 0.436137
Si Si6 0.785256 0.337096 0.655469
Si Si7 0.843013 0.799569 0.756122
Si Si8 0.985667 0.816669 0.738092
O O1 0.803232 0.515653 0.089887
O O2 0.720752 0.304338 0.082547
O O3 0.788361 0.401585 0.921757
O O4 0.697550 0.548798 0.988405
O O5 0.596587 0.946063 0.883086
O O6 0.590540 0.654900 0.918812
O O7 0.499695 0.786887 0.826316
O O8 0.505650 0.805162 0.000485
O O9 0.035361 0.223002 0.158262
O O10 0.096659 0.127863 0.996482
O O11 0.000000 0.000000 0.055556
O O12 0.325384 0.836233 0.249352
O O13 0.323844 0.127930 0.298200
O O14 0.350159 0.421282 0.340213
O O15 0.713658 0.358033 0.692533
O O16 0.912507 0.796318 0.709818
O O17 0.000000 0.000000 0.763902
#
# Coordination Sequence:
#
# PCOD9377552 Si02
#       8
#     8   8   8   8   8   8   8   8
#     4  12  27  46  73 104 144 192 238 297 366 431
#     4  11  23  43  70  99 136 185 235 288 359 423
#     4   9  21  38  63 106 130 167 239 292 341 411
#     4  12  29  47  69 105 150 188 240 298 369 426
#     4  11  22  42  75 100 138 184 238 297 348 423
#     4  12  28  46  71 106 142 188 246 292 364 437
#     4  12  25  47  70 100 146 184 234 308 351 428
#     4  11  22  41  73 103 135 183 239 293 352 418
#
# _framework density 24.657741000000001
#
# number of rings (size 3 to 8) (size 9 to 14) (size 15 to 20)
#    0.000    0.750    5.000    1.875   12.250    0.500 
#    0.000    0.000    2.750    0.000    0.000    0.000 
#    0.000    0.000    0.000    0.000    0.000    0.000 
#
# Total GULP energy -178904.378337 kJ/mol
# GULP energy per Si atom -5590.761823 kJ/mol
# Density = 2.460162 g / cm^3
# Si number density = 24.657741 Si / 1000 Ang^3
#
#
#
# Elastic Constant Matrix: (Units=GPa)
#
#
# Indices 1 2 3 4 5 6 
#
# 1 87.8861 0.5454 18.9960 0.0000 0.0000 0.0000
# 2 0.5454 61.0743 29.4683 0.0000 0.0000 0.0000
# 3 18.9960 29.4683 132.9233 0.0000 0.0000 0.0000
# 4 0.0000 0.0000 0.0000 22.2983 0.0000 0.0000
# 5 0.0000 0.0000 0.0000 0.0000 27.1344 0.0000
# 6 0.0000 0.0000 0.0000 0.0000 0.0000 30.4405
#
#
#
# Elastic Compliance Matrix: (Units=1/GPa)
#
#
# Indices 1 2 3 4 5 6 
#
# 1 0.011775 0.000791 -0.001858 0.000000 0.000000 0.000000
# 2 0.000791 0.018388 -0.004190 0.000000 0.000000 0.000000
# 3 -0.001858 -0.004190 0.008718 0.000000 0.000000 0.000000
# 4 0.000000 0.000000 0.000000 0.044846 0.000000 0.000000
# 5 0.000000 0.000000 0.000000 0.000000 0.036854 0.000000
# 6 0.000000 0.000000 0.000000 0.000000 0.000000 0.032851
#
#
# Mechanical properties :
#
#
# Convention : Reuss Voigt Hill
#
# Bulk Modulus (GPa) = 35.25131 42.21145 38.73138
# Shear Modulus (GPa) = 28.83504 31.49959 30.16731
#
# Velocity S-wave (km/s) = 3.42338 3.57805 3.50157
# Velocity P-wave (km/s) = 5.47296 5.85030 5.66477
#
# Compressibility (1/GPa) = 0.02836774
#
# Stress axis : x y z
#
# Youngs Moduli (GPa) = 84.92505 54.38357 114.71176
#
# Poissons Ratio (x) = -0.04304 0.21316
# Poissons Ratio (y) = -0.06721 0.48060
# Poissons Ratio (z) = 0.15781 0.22785
#
# Static dielectric constant tensor:
#      x y z
#    x 1.962740 0.000000 0.000000 
#    y 0.000000 2.009670 0.000000 
#    z 0.000000 0.000000 1.921540 
# 
# From -- ./inp_files/5873.got.cif
#   From: 2010.05.17/outbox.cif.g08.bks.cpg/sg45_3_cif.got.tgz:5873.got - 2010.06.03 19:51:22.
