data_PCOD9377263
_publ_section_title
;
Structure prediction by ZEFSAII (Michael W. Deem and Ramdas Pophale) SiO2 
 PCOD9377263
Probable space group: I B A 2
;
_chemical_formula_sum "Si O2"
_cell_formula_units_Z 32
_cell_length_a 7.161310
_cell_length_b 16.765220
_cell_length_c 10.727493
_cell_angle_alpha 90.000000
_cell_angle_beta 90.000000
_cell_angle_gamma 90.000000
_cell_volume 1287.952868
_symmetry_space_group_name_H-M "I B A 2"
_symmetry_group_IT_number 45
_symmetry_cell_setting 'orthorhombic'
loop_
_space_group_symop_operation_xyz
x,y,z
-x,-y,z
-x,y,1/2+z
x,-y,1/2+z
1/2+x,1/2+y,1/2+z
1/2-x,1/2-y,1/2+z
1/2-x,1/2+y,z
1/2+x,1/2-y,z
loop_
_atom_site_type_symbol
_atom_site_label
_atom_site_fract_x
_atom_site_fract_y
_atom_site_fract_z
Si Si1 0.439386 0.590907 0.609570
Si Si2 0.791927 0.653348 0.691171
Si Si3 0.605602 0.919480 0.420488
Si Si4 0.668006 0.179778 0.274440
O O1 0.500000 0.500000 0.616472
O O2 0.631377 0.639752 0.591618
O O3 0.281910 0.599205 0.505166
O O4 0.341700 0.625666 0.734110
O O5 0.808201 0.575333 0.779731
O O6 0.729210 0.729106 0.774676
O O7 0.008117 0.671412 0.665539
O O8 0.444589 0.853962 0.392237
O O9 0.500000 0.000000 0.459935
#
# Coordination Sequence:
#
# PCOD9377263 Si02
#       4
#     8   8   8   8
#     4  12  25  42  71 100 135 183 218 271 345 392
#     4  10  23  48  69  98 134 177 224 278 332 392
#     4  10  25  43  66 104 137 172 225 273 331 404
#     4  10  23  48  68  99 136 173 225 281 327 394
#
# _framework density 24.845628999999999
#
# number of rings (size 3 to 8) (size 9 to 14) (size 15 to 20)
#    1.500    0.000    2.500    1.500    3.500    5.000 
#    0.000    0.000    0.000    0.000    0.000    0.000 
#    0.000    0.000    0.000    0.000    0.000    0.000 
#
# Total GULP energy -89204.916378 kJ/mol
# GULP energy per Si atom -5575.307274 kJ/mol
# Density = 2.478908 g / cm^3
# Si number density = 24.845629 Si / 1000 Ang^3
#
#
#
# Elastic Constant Matrix: (Units=GPa)
#
#
# Indices 1 2 3 4 5 6 
#
# 1 177.5030 42.7594 32.7681 0.0000 0.0000 0.0000
# 2 42.7594 85.9358 3.3754 0.0000 0.0000 0.0000
# 3 32.7681 3.3754 44.8153 0.0000 0.0000 0.0000
# 4 0.0000 0.0000 0.0000 -0.6319 0.0000 0.0000
# 5 0.0000 0.0000 0.0000 0.0000 54.5698 0.0000
# 6 0.0000 0.0000 0.0000 0.0000 0.0000 61.3082
#
#
#
# Elastic Compliance Matrix: (Units=1/GPa)
#
#
# Indices 1 2 3 4 5 6 
#
# 1 0.007430 -0.003494 -0.005169 0.000000 0.000000 0.000000
# 2 -0.003494 0.013314 0.001552 -0.000001 0.000000 0.000000
# 3 -0.005169 0.001552 0.025977 -0.000001 0.000000 0.000000
# 4 0.000000 -0.000001 -0.000001 -1.582486 0.000000 0.000000
# 5 0.000000 0.000000 0.000000 0.000000 0.018325 0.000000
# 6 0.000000 0.000000 0.000000 0.000000 0.000000 0.016311
#
#
# Mechanical properties :
#
#
# Convention : Reuss Voigt Hill
#
# Bulk Modulus (GPa) = 30.77130 51.78442 41.27786
# Shear Modulus (GPa) = -3.38736 38.33930 17.47597
#
# Velocity S-wave (km/s) = -1.16890 3.93249 2.65501
# Velocity P-wave (km/s) = 3.25425 6.44260 5.10378
#
# Compressibility (1/GPa) = 0.03249781
#
# Stress axis : x y z
#
# Youngs Moduli (GPa) = 134.59678 75.10871 38.49618
#
# Poissons Ratio (x) = 0.26241 0.19900
# Poissons Ratio (y) = 0.47025 -0.05974
# Poissons Ratio (z) = 0.69576 -0.11655
#
# Static dielectric constant tensor:
#      x y z
#    x 1.949310 0.000000 0.000000 
#    y 0.000000 1.923830 0.000000 
#    z 0.000000 0.000000 2.097330 
# 
# From -- ./inp_files/5064.got.cif
#   From: 2010.05.17/outbox.cif.g08.bks.cpg/sg45_3_cif.got.tgz:5064.got - 2010.06.03 19:51:22.
