data_PCOD9377600
_publ_section_title
;
Structure prediction by ZEFSAII (Michael W. Deem and Ramdas Pophale) SiO2 
 PCOD9377600
Probable space group: I B A 2
;
_chemical_formula_sum "Si O2"
_cell_formula_units_Z 40
_cell_length_a 7.203445
_cell_length_b 23.327908
_cell_length_c 8.734524
_cell_angle_alpha 90.000000
_cell_angle_beta 90.000000
_cell_angle_gamma 90.000000
_cell_volume 1467.760787
_symmetry_space_group_name_H-M "I B A 2"
_symmetry_group_IT_number 45
_symmetry_cell_setting 'orthorhombic'
loop_
_space_group_symop_operation_xyz
x,y,z
-x,-y,z
-x,y,1/2+z
x,-y,1/2+z
1/2+x,1/2+y,1/2+z
1/2-x,1/2-y,1/2+z
1/2-x,1/2+y,z
1/2+x,1/2-y,z
loop_
_atom_site_type_symbol
_atom_site_label
_atom_site_fract_x
_atom_site_fract_y
_atom_site_fract_z
Si Si1 0.406140 0.640214 0.094990
Si Si2 0.743176 0.045193 0.794620
Si Si3 0.799154 0.800485 0.376416
Si Si4 0.870955 0.330796 0.862348
Si Si5 0.664881 0.068922 0.155655
O O1 0.394059 0.585803 0.209553
O O2 0.381044 0.693551 0.207225
O O3 0.565307 0.661570 0.980673
O O4 0.222837 0.631937 0.993127
O O5 0.712345 0.055746 0.977383
O O6 0.547279 0.058413 0.710008
O O7 0.773284 0.978449 0.757544
O O8 0.591384 0.824866 0.372156
O O9 0.794999 0.732575 0.398431
O O10 0.809176 0.364919 0.710362
#
# Coordination Sequence:
#
# PCOD9377600 Si02
#       5
#     8   8   8   8   8
#     4  12  29  50  80 122 172 226 290 366 436 529
#     4  11  23  46  82 127 162 217 293 356 435 530
#     4  12  30  48  79 123 171 233 293 361 442 527
#     4  12  27  52  83 121 175 229 296 356 446 533
#     4  11  23  44  87 126 160 226 289 350 442 529
#
# _framework density 27.252395
#
# number of rings (size 3 to 8) (size 9 to 14) (size 15 to 20)
#    0.000    0.400    4.000    4.800    2.800    4.800 
#    0.000    0.000    0.000   24.000    0.000    0.000 
#    0.000    0.000    0.000    0.000    0.000    0.000 
#
# Total GULP energy -111942.709232 kJ/mol
# GULP energy per Si atom -5597.135462 kJ/mol
# Density = 2.719037 g / cm^3
# Si number density = 27.252395 Si / 1000 Ang^3
#
#
#
# Elastic Constant Matrix: (Units=GPa)
#
#
# Indices 1 2 3 4 5 6 
#
# 1 101.6281 83.6096 100.4141 -0.0003 0.0001 -0.0001
# 2 83.6096 172.8110 77.3475 -0.0003 0.0000 -0.0001
# 3 100.4141 77.3475 247.5034 -0.0021 0.0000 -0.0005
# 4 -0.0003 -0.0003 -0.0021 49.9740 0.0000 -0.0001
# 5 0.0001 0.0000 0.0000 0.0000 45.1398 0.0000
# 6 -0.0001 -0.0001 -0.0005 -0.0001 0.0000 54.3792
#
#
#
# Elastic Compliance Matrix: (Units=1/GPa)
#
#
# Indices 1 2 3 4 5 6 
#
# 1 0.023509 -0.008261 -0.006956 0.000000 0.000000 0.000000
# 2 -0.008261 0.009630 0.000342 0.000000 0.000000 0.000000
# 3 -0.006956 0.000342 0.006756 0.000000 0.000000 0.000000
# 4 0.000000 0.000000 0.000000 0.020010 0.000000 0.000000
# 5 0.000000 0.000000 0.000000 0.000000 0.022153 0.000000
# 6 0.000000 0.000000 0.000000 0.000000 0.000000 0.018389
#
#
# Mechanical properties :
#
#
# Convention : Reuss Voigt Hill
#
# Bulk Modulus (GPa) = 98.57132 116.07610 107.32371
# Shear Modulus (GPa) = 37.43077 47.27003 42.35040
#
# Velocity S-wave (km/s) = 3.71008 4.16928 3.94637
# Velocity P-wave (km/s) = 7.38926 8.11558 7.76092
#
# Compressibility (1/GPa) = 0.01014494
#
# Stress axis : x y z
#
# Youngs Moduli (GPa) = 42.53697 103.83849 148.02258
#
# Poissons Ratio (x) = 0.85777 1.02968
# Poissons Ratio (y) = 0.35138 -0.05060
# Poissons Ratio (z) = 0.29590 -0.03549
#
# Static dielectric constant tensor:
#      x y z
#    x 2.195860 0.000000 0.000000 
#    y 0.000000 2.190570 0.000000 
#    z 0.000000 0.000000 2.072520 
# 
# From -- ./inp_files/3210.got.cif
#   From: 2010.05.17/outbox.cif.g08.bks.cpg/sg45_2_cif.got.tgz:3210.got - 2010.06.03 19:51:22.
