data_PCOD9377575
_publ_section_title
;
Structure prediction by ZEFSAII (Michael W. Deem and Ramdas Pophale) SiO2 
 PCOD9377575
Probable space group: I B A 2
;
_chemical_formula_sum "Si O2"
_cell_formula_units_Z 60
_cell_length_a 8.654264
_cell_length_b 22.862636
_cell_length_c 14.283703
_cell_angle_alpha 90.000000
_cell_angle_beta 90.000000
_cell_angle_gamma 90.000000
_cell_volume 2826.163301
_symmetry_space_group_name_H-M "I B A 2"
_symmetry_group_IT_number 45
_symmetry_cell_setting 'orthorhombic'
loop_
_space_group_symop_operation_xyz
x,y,z
-x,-y,z
-x,y,1/2+z
x,-y,1/2+z
1/2+x,1/2+y,1/2+z
1/2-x,1/2-y,1/2+z
1/2-x,1/2+y,z
1/2+x,1/2-y,z
loop_
_atom_site_type_symbol
_atom_site_label
_atom_site_fract_x
_atom_site_fract_y
_atom_site_fract_z
Si Si1 0.377224 0.350172 0.580500
Si Si2 0.927907 0.166371 0.911480
Si Si3 0.000000 0.500000 0.539705
Si Si4 0.394895 0.098708 0.394292
Si Si5 0.576848 0.200040 0.477458
Si Si6 0.056464 0.683464 0.669443
Si Si7 0.853282 0.427397 0.187582
Si Si8 0.902250 0.207117 0.229306
O O1 0.478448 0.368461 0.491407
O O2 0.232446 0.317430 0.532553
O O3 0.301355 0.394936 0.653565
O O4 0.493011 0.312447 0.642471
O O5 0.764711 0.134742 0.901184
O O6 0.905795 0.234854 0.938806
O O7 0.031990 0.173523 0.818894
O O8 0.062460 0.552343 0.474870
O O9 0.128963 0.478554 0.612869
O O10 0.527519 0.149303 0.404355
O O11 0.371551 0.062730 0.297689
O O12 0.447751 0.199256 0.559268
O O13 0.224441 0.694215 0.710878
O O14 0.995013 0.617768 0.671348
O O15 0.934446 0.723253 0.727822
#
# Coordination Sequence:
#
# PCOD9377575 Si02
#       8
#     8   8   4   8   8   8   8   8
#     4  11  23  43  62  98 141 178 229 288 349 421
#     4  12  26  39  70 105 153 186 229 293 368 439
#     4  12  26  48  80  96 136 194 254 302 352 412
#     4  12  25  47  73 110 136 194 250 288 365 441
#     4  11  23  41  69 103 148 190 229 292 361 438
#     4  11  23  40  65  99 149 188 233 286 358 426
#     4  11  25  47  71  98 139 183 239 304 344 420
#     4  12  25  39  65 102 143 195 225 284 366 437
#
# _framework density 21.230195999999999
#
# number of rings (size 3 to 8) (size 9 to 14) (size 15 to 20)
#    0.000    0.533    5.333    4.400    5.600    0.000 
#    0.000    0.667    0.000    1.600    0.000    0.000 
#    0.000    0.000    0.000    0.000    0.000    0.000 
#
# Total GULP energy -167564.529707 kJ/mol
# GULP energy per Si atom -5585.484324 kJ/mol
# Density = 2.118188 g / cm^3
# Si number density = 21.230196 Si / 1000 Ang^3
#
#
#
# Elastic Constant Matrix: (Units=GPa)
#
#
# Indices 1 2 3 4 5 6 
#
# 1 53.6936 17.4514 7.4530 0.0000 0.0000 0.0000
# 2 17.4514 65.5063 21.2092 0.0000 0.0000 0.0000
# 3 7.4530 21.2092 123.0907 -0.0001 0.0000 0.0000
# 4 0.0000 0.0000 -0.0001 24.9403 0.0000 0.0000
# 5 0.0000 0.0000 0.0000 0.0000 28.5093 0.0000
# 6 0.0000 0.0000 0.0000 0.0000 0.0000 12.5332
#
#
#
# Elastic Compliance Matrix: (Units=1/GPa)
#
#
# Indices 1 2 3 4 5 6 
#
# 1 0.020401 -0.005333 -0.000316 0.000000 0.000000 0.000000
# 2 -0.005333 0.017562 -0.002703 0.000000 0.000000 0.000000
# 3 -0.000316 -0.002703 0.008609 0.000000 0.000000 0.000000
# 4 0.000000 0.000000 0.000000 0.040096 0.000000 0.000000
# 5 0.000000 0.000000 0.000000 0.000000 0.035076 0.000000
# 6 0.000000 0.000000 0.000000 0.000000 0.000000 0.079788
#
#
# Mechanical properties :
#
#
# Convention : Reuss Voigt Hill
#
# Bulk Modulus (GPa) = 33.48107 37.16864 35.32486
# Shear Modulus (GPa) = 21.91135 26.27502 24.09319
#
# Velocity S-wave (km/s) = 3.21609 3.52181 3.37242
# Velocity P-wave (km/s) = 5.44020 5.83806 5.64264
#
# Compressibility (1/GPa) = 0.02986762
#
# Stress axis : x y z
#
# Youngs Moduli (GPa) = 49.01645 56.94260 116.15748
#
# Poissons Ratio (x) = 0.30365 0.03676
# Poissons Ratio (y) = 0.26139 0.31398
# Poissons Ratio (z) = 0.01551 0.15392
#
# Static dielectric constant tensor:
#      x y z
#    x 1.761540 0.000000 0.000000 
#    y 0.000000 1.845450 0.000000 
#    z 0.000000 0.000000 1.865070 
# 
# From -- ./inp_files/5809.got.cif
#   From: 2010.05.17/outbox.cif.g08.bks.cpg/sg45_3_cif.got.tgz:5809.got - 2010.06.03 19:51:22.
