data_PCOD9377441
_publ_section_title
;
Structure prediction by ZEFSAII (Michael W. Deem and Ramdas Pophale) SiO2 
 PCOD9377441
Probable space group: I B A 2
;
_chemical_formula_sum "Si O2"
_cell_formula_units_Z 56
_cell_length_a 15.132068
_cell_length_b 11.002718
_cell_length_c 15.291311
_cell_angle_alpha 90.000000
_cell_angle_beta 90.000000
_cell_angle_gamma 90.000000
_cell_volume 2545.909652
_symmetry_space_group_name_H-M "I B A 2"
_symmetry_group_IT_number 45
_symmetry_cell_setting 'orthorhombic'
loop_
_space_group_symop_operation_xyz
x,y,z
-x,-y,z
-x,y,1/2+z
x,-y,1/2+z
1/2+x,1/2+y,1/2+z
1/2-x,1/2-y,1/2+z
1/2-x,1/2+y,z
1/2+x,1/2-y,z
loop_
_atom_site_type_symbol
_atom_site_label
_atom_site_fract_x
_atom_site_fract_y
_atom_site_fract_z
Si Si1 0.933013 0.900170 0.052400
Si Si2 0.488951 0.861426 0.292360
Si Si3 0.806736 0.066733 0.146725
Si Si4 0.928122 0.703016 0.611533
Si Si5 0.214076 0.359182 0.320455
Si Si6 0.368795 0.758199 0.909374
Si Si7 0.833573 0.494911 0.997891
O O1 0.991065 0.786652 0.081390
O O2 0.882968 0.966163 0.132080
O O3 0.870541 0.854124 0.975660
O O4 0.000000 0.000000 0.015325
O O5 0.538636 0.860458 0.199571
O O6 0.385547 0.828027 0.289856
O O7 0.544019 0.766172 0.350203
O O8 0.500000 0.000000 0.326887
O O9 0.848805 0.200144 0.128788
O O10 0.761648 0.070727 0.241104
O O11 0.736950 0.030741 0.072240
O O12 0.898060 0.603795 0.541461
O O13 0.280921 0.251823 0.349985
O O14 0.201409 0.438141 0.407648
O O15 0.372547 0.877643 0.967932
#
# Coordination Sequence:
#
# PCOD9377441 Si02
#       7
#     8   8   8   8   8   8   8
#     4  10  25  48  72 107 150 199 251 307 388 459
#     4  12  26  48  75 114 151 195 257 319 379 453
#     4  11  25  49  76 109 149 201 252 310 381 459
#     4  11  26  47  74 111 151 199 251 312 385 449
#     4  12  26  48  76 113 151 203 251 321 380 454
#     4  12  26  50  75 111 152 198 256 316 385 455
#     4  12  26  46  77 109 149 196 257 310 381 447
#
# _framework density 21.996067
#
# number of rings (size 3 to 8) (size 9 to 14) (size 15 to 20)
#    0.000    0.571    4.286    2.571    4.000    2.286 
#    2.571    0.000    0.000    0.000    0.000    0.000 
#    0.000    0.000    0.000    0.000    0.000    0.000 
#
# Total GULP energy -156543.610367 kJ/mol
# GULP energy per Si atom -5590.843227 kJ/mol
# Density = 2.194600 g / cm^3
# Si number density = 21.996067 Si / 1000 Ang^3
#
#
#
# Elastic Constant Matrix: (Units=GPa)
#
#
# Indices 1 2 3 4 5 6 
#
# 1 127.9123 60.7143 56.4517 0.0000 0.0000 0.0000
# 2 60.7143 98.5220 58.5379 0.0000 0.0000 0.0000
# 3 56.4517 58.5379 147.3664 0.0000 0.0000 0.0000
# 4 0.0000 0.0000 0.0000 25.4955 0.0000 0.0000
# 5 0.0000 0.0000 0.0000 0.0000 35.7741 0.0000
# 6 0.0000 0.0000 0.0000 0.0000 0.0000 28.2049
#
#
#
# Elastic Compliance Matrix: (Units=1/GPa)
#
#
# Indices 1 2 3 4 5 6 
#
# 1 0.011520 -0.005860 -0.002085 0.000000 0.000000 0.000000
# 2 -0.005860 0.016267 -0.004217 0.000000 0.000000 0.000000
# 3 -0.002085 -0.004217 0.009260 0.000000 0.000000 0.000000
# 4 0.000000 0.000000 0.000000 0.039223 0.000000 0.000000
# 5 0.000000 0.000000 0.000000 0.000000 0.027953 0.000000
# 6 0.000000 0.000000 0.000000 0.000000 0.000000 0.035455
#
#
# Mechanical properties :
#
#
# Convention : Reuss Voigt Hill
#
# Bulk Modulus (GPa) = 78.60348 80.57871 79.59109
# Shear Modulus (GPa) = 29.71927 31.10134 30.41031
#
# Velocity S-wave (km/s) = 3.67974 3.76433 3.72228
# Velocity P-wave (km/s) = 7.33940 7.45697 7.39842
#
# Compressibility (1/GPa) = 0.01272208
#
# Stress axis : x y z
#
# Youngs Moduli (GPa) = 86.80871 61.47507 107.99699
#
# Poissons Ratio (x) = 0.36025 0.22517
# Poissons Ratio (y) = 0.50871 0.45540
# Poissons Ratio (z) = 0.18100 0.25922
#
# Static dielectric constant tensor:
#      x y z
#    x 1.850490 0.000000 0.000000 
#    y 0.000000 1.817320 0.000000 
#    z 0.000000 0.000000 1.792740 
# 
# From -- ./inp_files/6526.got.cif
#   From: 2010.05.17/outbox.cif.g08.bks.cpg/sg45_4_cif.got.tgz:6526.got - 2010.06.03 19:51:22.
