data_PCOD9377386
_publ_section_title
;
Structure prediction by ZEFSAII (Michael W. Deem and Ramdas Pophale) SiO2 
 PCOD9377386
Probable space group: I B A 2
;
_chemical_formula_sum "Si O2"
_cell_formula_units_Z 32
_cell_length_a 16.156598
_cell_length_b 7.856267
_cell_length_c 10.527527
_cell_angle_alpha 90.000000
_cell_angle_beta 90.000000
_cell_angle_gamma 90.000000
_cell_volume 1336.264768
_symmetry_space_group_name_H-M "I B A 2"
_symmetry_group_IT_number 45
_symmetry_cell_setting 'orthorhombic'
loop_
_space_group_symop_operation_xyz
x,y,z
-x,-y,z
-x,y,1/2+z
x,-y,1/2+z
1/2+x,1/2+y,1/2+z
1/2-x,1/2-y,1/2+z
1/2-x,1/2+y,z
1/2+x,1/2-y,z
loop_
_atom_site_type_symbol
_atom_site_label
_atom_site_fract_x
_atom_site_fract_y
_atom_site_fract_z
Si Si1 0.166984 0.497447 0.201710
Si Si2 0.092368 0.805479 0.830258
Si Si3 0.758919 0.633900 0.451129
Si Si4 0.091630 0.804954 0.340111
O O1 0.111582 0.328273 0.217394
O O2 0.228935 0.471473 0.320352
O O3 0.114837 0.664789 0.235712
O O4 0.218357 0.529774 0.075841
O O5 0.165206 0.767731 0.931763
O O6 0.001345 0.767509 0.886129
O O7 0.091533 0.001431 0.790366
O O8 0.665478 0.700220 0.443328
#
# Coordination Sequence:
#
# PCOD9377386 Si02
#       4
#     8   8   8   8
#     4  10  24  48  71 108 155 194 252 319 387 463
#     4   9  24  46  73 110 144 202 253 320 390 469
#     4  10  24  47  74 108 149 200 250 319 386 466
#     4  11  21  48  73 108 148 197 257 318 386 467
#
# _framework density 23.947348999999999
#
# number of rings (size 3 to 8) (size 9 to 14) (size 15 to 20)
#    1.500    0.500    0.000    2.250    0.000    4.000 
#   13.500    5.000    0.000    0.000    0.000    0.000 
#    0.000    0.000    0.000    0.000    0.000    0.000 
#
# Total GULP energy -89267.791048 kJ/mol
# GULP energy per Si atom -5579.236940 kJ/mol
# Density = 2.389284 g / cm^3
# Si number density = 23.947349 Si / 1000 Ang^3
#
#
#
# Elastic Constant Matrix: (Units=GPa)
#
#
# Indices 1 2 3 4 5 6 
#
# 1 226.6993 55.4036 51.8394 0.0000 0.0000 0.0000
# 2 55.4036 123.7926 52.8811 0.0000 0.0000 0.0000
# 3 51.8394 52.8811 98.3703 0.0000 0.0000 0.0000
# 4 0.0000 0.0000 0.0000 21.5376 0.0000 0.0000
# 5 0.0000 0.0000 0.0000 0.0000 23.5998 0.0000
# 6 0.0000 0.0000 0.0000 0.0000 0.0000 28.1461
#
#
#
# Elastic Compliance Matrix: (Units=1/GPa)
#
#
# Indices 1 2 3 4 5 6 
#
# 1 0.005224 -0.001508 -0.001942 0.000000 0.000000 0.000000
# 2 -0.001508 0.010922 -0.005076 0.000000 0.000000 0.000000
# 3 -0.001942 -0.005076 0.013918 0.000000 0.000000 0.000000
# 4 0.000000 0.000000 0.000000 0.046430 0.000000 0.000000
# 5 0.000000 0.000000 0.000000 0.000000 0.042373 0.000000
# 6 0.000000 0.000000 0.000000 0.000000 0.000000 0.035529
#
#
# Mechanical properties :
#
#
# Convention : Reuss Voigt Hill
#
# Bulk Modulus (GPa) = 76.86351 85.45672 81.16011
# Shear Modulus (GPa) = 28.44371 33.90591 31.17481
#
# Velocity S-wave (km/s) = 3.45013 3.76686 3.61197
# Velocity P-wave (km/s) = 6.93093 7.39471 7.16657
#
# Compressibility (1/GPa) = 0.01301007
#
# Stress axis : x y z
#
# Youngs Moduli (GPa) = 191.42990 91.56216 71.84976
#
# Poissons Ratio (x) = 0.13811 0.13953
# Poissons Ratio (y) = 0.28874 0.36473
# Poissons Ratio (z) = 0.37176 0.46479
#
# Static dielectric constant tensor:
#      x y z
#    x 1.959120 0.000000 0.000000 
#    y 0.000000 2.037070 0.000000 
#    z 0.000000 0.000000 1.859800 
# 
# From -- ./inp_files/3972.got.cif
#   From: 2010.05.17/outbox.cif.g08.bks.cpg/sg45_2_cif.got.tgz:3972.got - 2010.06.03 19:51:22.
