data_PCOD9377778
_publ_section_title
;
Structure prediction by ZEFSAII (Michael W. Deem and Ramdas Pophale) SiO2 
 PCOD9377778
Probable space group: I M A 2
;
_chemical_formula_sum "Si O2"
_cell_formula_units_Z 48
_cell_length_a 13.798680
_cell_length_b 11.194563
_cell_length_c 15.461426
_cell_angle_alpha 90.000000
_cell_angle_beta 90.000000
_cell_angle_gamma 90.000000
_cell_volume 2388.329452
_symmetry_space_group_name_H-M "I M A 2"
_symmetry_group_IT_number 46
_symmetry_cell_setting 'orthorhombic'
loop_
_space_group_symop_operation_xyz
x,y,z
-x,-y,z
1/2-x,y,z
1/2+x,-y,z
1/2+x,1/2+y,1/2+z
1/2-x,1/2-y,1/2+z
-x,1/2+y,1/2+z
x,1/2-y,1/2+z
loop_
_atom_site_type_symbol
_atom_site_label
_atom_site_fract_x
_atom_site_fract_y
_atom_site_fract_z
Si Si1 0.862013 0.381314 0.081050
Si Si2 0.000000 0.500000 0.570678
Si Si3 0.458668 0.245275 0.133266
Si Si4 0.637942 0.514219 0.422619
Si Si5 0.500000 0.500000 0.940434
Si Si6 0.136275 0.201433 0.450459
Si Si7 0.862400 0.935222 0.739750
O O1 0.750000 0.353441 0.064233
O O2 0.867587 0.479695 0.156895
O O3 0.929428 0.275400 0.115204
O O4 0.918113 0.435035 0.998890
O O5 0.047765 0.396840 0.627543
O O6 0.078847 0.544691 0.500096
O O7 0.422096 0.317033 0.216268
O O8 0.396684 0.296433 0.051578
O O9 0.750000 0.485057 0.434212
O O10 0.626250 0.658950 0.426307
O O11 0.608329 0.489202 0.324164
O O12 0.563755 0.609647 0.901684
O O13 0.250000 0.168517 0.442872
O O14 0.750000 0.900555 0.753493
#
# Coordination Sequence:
#
# PCOD9377778 Si02
#       7
#     8   4   8   8   4   8   8
#     4  10  18  28  48  76 101 125 163 214 262 302
#     4  10  22  35  53  76 112 144 178 214 264 327
#     4  10  19  32  49  76 104 139 173 213 260 311
#     4   9  20  34  52  75 103 140 176 215 266 317
#     4  10  16  25  47  72  98 126 164 206 256 297
#     4   9  16  30  47  71 102 131 170 214 256 312
#     4  10  18  32  55  81 101 131 178 226 267 307
#
# _framework density 20.097729000000001
#
# number of rings (size 3 to 8) (size 9 to 14) (size 15 to 20)
#    0.000    2.333    3.333    1.000    2.333    1.333 
#    0.000    0.833    0.000    0.000    0.000    0.000 
#    0.000    0.000    0.000    0.000    0.000    0.000 
#
# Total GULP energy -133682.997860 kJ/mol
# GULP energy per Si atom -5570.124911 kJ/mol
# Density = 2.005199 g / cm^3
# Si number density = 20.097729 Si / 1000 Ang^3
#
#
#
# Elastic Constant Matrix: (Units=GPa)
#
#
# Indices 1 2 3 4 5 6 
#
# 1 121.3866 5.5634 5.1563 0.0000 0.0000 0.0000
# 2 5.5634 36.0648 1.1557 0.0000 0.0000 0.0000
# 3 5.1563 1.1557 26.6782 0.0000 0.0000 0.0000
# 4 0.0000 0.0000 0.0000 15.9139 0.0000 0.0000
# 5 0.0000 0.0000 0.0000 0.0000 9.5275 0.0000
# 6 0.0000 0.0000 0.0000 0.0000 0.0000 28.5676
#
#
#
# Elastic Compliance Matrix: (Units=1/GPa)
#
#
# Indices 1 2 3 4 5 6 
#
# 1 0.008361 -0.001240 -0.001562 0.000000 0.000000 0.000000
# 2 -0.001240 0.027950 -0.000971 0.000000 0.000000 0.000000
# 3 -0.001562 -0.000971 0.037828 0.000000 0.000000 0.000000
# 4 0.000000 0.000000 0.000000 0.062838 0.000000 0.000000
# 5 0.000000 0.000000 0.000000 0.000000 0.104960 0.000000
# 6 0.000000 0.000000 0.000000 0.000000 0.000000 0.035005
#
#
# Mechanical properties :
#
#
# Convention : Reuss Voigt Hill
#
# Bulk Modulus (GPa) = 15.01663 23.09781 19.05722
# Shear Modulus (GPa) = 16.30332 22.28542 19.29437
#
# Velocity S-wave (km/s) = 2.85125 3.33356 3.10179
# Velocity P-wave (km/s) = 4.28107 5.13171 4.72557
#
# Compressibility (1/GPa) = 0.06659283
#
# Stress axis : x y z
#
# Youngs Moduli (GPa) = 119.59820 35.77785 26.43558
#
# Poissons Ratio (x) = 0.04436 0.04130
# Poissons Ratio (y) = 0.14827 0.02567
# Poissons Ratio (z) = 0.18685 0.03475
#
# Static dielectric constant tensor:
#      x y z
#    x 1.745850 0.000000 0.000000 
#    y 0.000000 1.747200 0.000000 
#    z 0.000000 0.000000 1.744140 
# 
# From -- ./inp_files/19507.got.cif
#   From: 2010.05.17/outbox.cif.g08.bks.cpg/sg46_10_cif.got.tgz:19507.got - 2010.06.03 19:58:25.
