data_PCOD9377127
_publ_section_title
;
Structure prediction by ZEFSAII (Michael W. Deem and Ramdas Pophale) SiO2 
 PCOD9377127
Probable space group: I B A 2
;
_chemical_formula_sum "Si O2"
_cell_formula_units_Z 60
_cell_length_a 9.234581
_cell_length_b 17.029944
_cell_length_c 17.489631
_cell_angle_alpha 90.000000
_cell_angle_beta 90.000000
_cell_angle_gamma 90.000000
_cell_volume 2750.496278
_symmetry_space_group_name_H-M "I B A 2"
_symmetry_group_IT_number 45
_symmetry_cell_setting 'orthorhombic'
loop_
_space_group_symop_operation_xyz
x,y,z
-x,-y,z
-x,y,1/2+z
x,-y,1/2+z
1/2+x,1/2+y,1/2+z
1/2-x,1/2-y,1/2+z
1/2-x,1/2+y,z
1/2+x,1/2-y,z
loop_
_atom_site_type_symbol
_atom_site_label
_atom_site_fract_x
_atom_site_fract_y
_atom_site_fract_z
Si Si1 0.356102 0.382323 0.369410
Si Si2 0.442261 0.300413 0.974454
Si Si3 0.988012 0.411816 0.668504
Si Si4 0.335707 0.217191 0.568760
Si Si5 0.960078 0.411928 0.846870
Si Si6 0.500000 0.500000 0.251125
Si Si7 0.683041 0.358082 0.184801
Si Si8 0.782835 0.712609 0.838519
O O1 0.463153 0.373878 0.442310
O O2 0.187702 0.392031 0.390385
O O3 0.400586 0.449389 0.309576
O O4 0.359746 0.296489 0.329758
O O5 0.334528 0.282141 0.905161
O O6 0.560544 0.235092 0.996629
O O7 0.328205 0.302336 0.044176
O O8 0.894902 0.354837 0.616969
O O9 0.927663 0.412124 0.755313
O O10 0.000000 0.500000 0.639190
O O11 0.151883 0.382453 0.671043
O O12 0.353865 0.297230 0.617829
O O13 0.000000 0.500000 0.868633
O O14 0.097160 0.354403 0.853454
O O15 0.586483 0.435551 0.200617
O O16 0.692622 0.309783 0.263515
#
# Coordination Sequence:
#
# PCOD9377127 Si02
#       8
#     8   8   8   8   8   4   8   8
#     4  12  24  42  72 108 153 193 249 321 381 461
#     4  12  26  44  72 103 152 199 256 297 379 465
#     4  10  22  45  75 107 145 185 247 311 381 444
#     4  12  26  48  71 107 150 205 246 304 384 471
#     4  10  23  43  76 114 142 180 249 322 393 437
#     4  12  26  42  74 120 150 186 258 334 384 444
#     4  11  25  44  76 112 147 192 254 318 378 455
#     4  11  23  45  75 109 138 195 251 317 375 459
#
# _framework density 21.814243999999999
#
# number of rings (size 3 to 8) (size 9 to 14) (size 15 to 20)
#    0.000    0.800    4.000    4.000    3.733    2.133 
#    0.000    4.000    0.000    0.000    0.000    0.000 
#    0.000    0.000    0.000    0.000    0.000    0.000 
#
# Total GULP energy -167643.369251 kJ/mol
# GULP energy per Si atom -5588.112308 kJ/mol
# Density = 2.176459 g / cm^3
# Si number density = 21.814244 Si / 1000 Ang^3
#
#
#
# Elastic Constant Matrix: (Units=GPa)
#
#
# Indices 1 2 3 4 5 6 
#
# 1 147.3660 41.2386 44.5921 0.0000 0.0000 0.0000
# 2 41.2386 127.7946 43.4423 0.0000 0.0000 0.0000
# 3 44.5921 43.4423 72.4159 0.0000 0.0000 0.0000
# 4 0.0000 0.0000 0.0000 21.0970 0.0000 0.0000
# 5 0.0000 0.0000 0.0000 0.0000 39.6705 0.0000
# 6 0.0000 0.0000 0.0000 0.0000 0.0000 42.3814
#
#
#
# Elastic Compliance Matrix: (Units=1/GPa)
#
#
# Indices 1 2 3 4 5 6 
#
# 1 0.008486 -0.001208 -0.004500 0.000000 0.000000 0.000000
# 2 -0.001208 0.010002 -0.005256 0.000000 0.000000 0.000000
# 3 -0.004500 -0.005256 0.019733 0.000000 0.000000 0.000000
# 4 0.000000 0.000000 0.000000 0.047400 0.000000 0.000000
# 5 0.000000 0.000000 0.000000 0.000000 0.025208 0.000000
# 6 0.000000 0.000000 0.000000 0.000000 0.000000 0.023595
#
#
# Mechanical properties :
#
#
# Convention : Reuss Voigt Hill
#
# Bulk Modulus (GPa) = 61.38217 67.34695 64.36456
# Shear Modulus (GPa) = 30.90541 35.18333 33.04437
#
# Velocity S-wave (km/s) = 3.76806 4.02040 3.89627
# Velocity P-wave (km/s) = 6.86518 7.24510 7.05770
#
# Compressibility (1/GPa) = 0.01629138
#
# Stress axis : x y z
#
# Youngs Moduli (GPa) = 117.84397 99.98307 50.67555
#
# Poissons Ratio (x) = 0.12082 0.22806
# Poissons Ratio (y) = 0.14241 0.26634
# Poissons Ratio (z) = 0.53035 0.52550
#
# Static dielectric constant tensor:
#      x y z
#    x 1.786640 0.000000 0.000000 
#    y 0.000000 1.806520 0.000000 
#    z 0.000000 0.000000 1.868400 
# 
# From -- ./inp_files/7704.got.cif
#   From: 2010.05.17/outbox.cif.g08.bks.cpg/sg45_4_cif.got.tgz:7704.got - 2010.06.03 19:51:22.
