data_PCOD9377005
_publ_section_title
;
Structure prediction by ZEFSAII (Michael W. Deem and Ramdas Pophale) SiO2 
 PCOD9377005
Probable space group: I B A 2
;
_chemical_formula_sum "Si O2"
_cell_formula_units_Z 52
_cell_length_a 25.918615
_cell_length_b 9.478700
_cell_length_c 8.737380
_cell_angle_alpha 90.000000
_cell_angle_beta 90.000000
_cell_angle_gamma 90.000000
_cell_volume 2146.553874
_symmetry_space_group_name_H-M "I B A 2"
_symmetry_group_IT_number 45
_symmetry_cell_setting 'orthorhombic'
loop_
_space_group_symop_operation_xyz
x,y,z
-x,-y,z
-x,y,1/2+z
x,-y,1/2+z
1/2+x,1/2+y,1/2+z
1/2-x,1/2-y,1/2+z
1/2-x,1/2+y,z
1/2+x,1/2-y,z
loop_
_atom_site_type_symbol
_atom_site_label
_atom_site_fract_x
_atom_site_fract_y
_atom_site_fract_z
Si Si1 0.033026 0.205497 0.626140
Si Si2 0.783605 0.927742 0.679990
Si Si3 0.231858 0.661066 0.995372
Si Si4 0.578396 0.835933 0.589232
Si Si5 0.131458 0.466211 0.379825
Si Si6 0.500000 0.500000 0.874019
Si Si7 0.626356 0.260995 0.802297
O O1 0.031410 0.112705 0.473738
O O2 0.083073 0.286775 0.679556
O O3 0.979752 0.291939 0.628326
O O4 0.034331 0.089481 0.760426
O O5 0.769330 0.823701 0.540541
O O6 0.752615 0.876939 0.828393
O O7 0.841747 0.889723 0.732573
O O8 0.767138 0.079662 0.619352
O O9 0.172859 0.609250 0.985583
O O10 0.611289 0.871631 0.739883
O O11 0.603861 0.718702 0.475469
O O12 0.582968 0.970402 0.475169
O O13 0.157949 0.614673 0.326426
#
# Coordination Sequence:
#
# PCOD9377005 Si02
#       7
#     8   8   8   8   8   4   8
#     4  11  22  45  64  99 139 184 245 289 366 437
#     4  12  26  47  75 108 148 191 249 304 383 447
#     4  12  26  48  75 108 147 197 241 320 377 453
#     4  10  23  44  68 103 134 192 227 295 363 442
#     4  10  22  45  72 102 146 182 239 303 382 434
#     4  10  22  40  68  86 132 196 222 306 348 410
#     4  10  24  44  68 106 139 186 247 290 369 449
#
# _framework density 24.224874
#
# number of rings (size 3 to 8) (size 9 to 14) (size 15 to 20)
#    0.923    0.308    1.538    4.615    2.154    4.308 
#    2.769    0.000    0.000    0.000    0.000    0.000 
#    0.000    0.000    0.000    0.000    0.000    0.000 
#
# Total GULP energy -145135.660339 kJ/mol
# GULP energy per Si atom -5582.140782 kJ/mol
# Density = 2.416974 g / cm^3
# Si number density = 24.224874 Si / 1000 Ang^3
#
#
#
# Elastic Constant Matrix: (Units=GPa)
#
#
# Indices 1 2 3 4 5 6 
#
# 1 107.8694 10.0671 26.7857 0.0000 0.0000 0.0000
# 2 10.0671 32.4428 -9.3161 0.0000 0.0000 0.0000
# 3 26.7857 -9.3161 70.7083 0.0000 0.0000 0.0000
# 4 0.0000 0.0000 0.0000 51.9630 0.0000 0.0000
# 5 0.0000 0.0000 0.0000 0.0000 23.7042 0.0000
# 6 0.0000 0.0000 0.0000 0.0000 0.0000 16.0166
#
#
#
# Elastic Compliance Matrix: (Units=1/GPa)
#
#
# Indices 1 2 3 4 5 6 
#
# 1 0.010893 -0.004745 -0.004752 0.000000 0.000000 0.000000
# 2 -0.004745 0.034102 0.006290 0.000000 0.000000 0.000000
# 3 -0.004752 0.006290 0.016771 0.000000 0.000000 0.000000
# 4 0.000000 0.000000 0.000000 0.019244 0.000000 0.000000
# 5 0.000000 0.000000 0.000000 0.000000 0.042187 0.000000
# 6 0.000000 0.000000 0.000000 0.000000 0.000000 0.062435
#
#
# Mechanical properties :
#
#
# Convention : Reuss Voigt Hill
#
# Bulk Modulus (GPa) = 18.06524 29.56600 23.81562
# Shear Modulus (GPa) = 23.75337 30.56902 27.16120
#
# Velocity S-wave (km/s) = 3.13475 3.55616 3.35208
# Velocity P-wave (km/s) = 4.53604 5.39379 4.98341
#
# Compressibility (1/GPa) = 0.05535492
#
# Stress axis : x y z
#
# Youngs Moduli (GPa) = 91.80048 29.32372 59.62524
#
# Poissons Ratio (x) = 0.13913 0.28332
# Poissons Ratio (y) = 0.43556 -0.37507
# Poissons Ratio (z) = 0.43621 -0.18446
#
# Static dielectric constant tensor:
#      x y z
#    x 2.194510 0.000000 0.000000 
#    y 0.000000 2.136210 0.000000 
#    z 0.000000 0.000000 1.950690 
# 
# From -- ./inp_files/2614.got.cif
#   From: 2010.05.17/outbox.cif.g08.bks.cpg/sg45_2_cif.got.tgz:2614.got - 2010.06.03 19:51:22.
