data_PCOD9377530
_publ_section_title
;
Structure prediction by ZEFSAII (Michael W. Deem and Ramdas Pophale) SiO2 
 PCOD9377530
Probable space group: I B A 2
;
_chemical_formula_sum "Si O2"
_cell_formula_units_Z 64
_cell_length_a 13.266042
_cell_length_b 28.335404
_cell_length_c 9.086663
_cell_angle_alpha 90.000000
_cell_angle_beta 90.000000
_cell_angle_gamma 90.000000
_cell_volume 3415.664441
_symmetry_space_group_name_H-M "I B A 2"
_symmetry_group_IT_number 45
_symmetry_cell_setting 'orthorhombic'
loop_
_space_group_symop_operation_xyz
x,y,z
-x,-y,z
-x,y,1/2+z
x,-y,1/2+z
1/2+x,1/2+y,1/2+z
1/2-x,1/2-y,1/2+z
1/2-x,1/2+y,z
1/2+x,1/2-y,z
loop_
_atom_site_type_symbol
_atom_site_label
_atom_site_fract_x
_atom_site_fract_y
_atom_site_fract_z
Si Si1 0.609862 0.814787 0.897830
Si Si2 0.887109 0.047422 0.529298
Si Si3 0.307835 0.362454 0.373486
Si Si4 0.141040 0.860917 0.042450
Si Si5 0.391169 0.453153 0.881916
Si Si6 0.714726 0.714710 0.838667
Si Si7 0.061923 0.805085 0.580267
Si Si8 0.566695 0.785847 0.196438
O O1 0.690868 0.852339 0.849005
O O2 0.664575 0.764082 0.880805
O O3 0.506996 0.809243 0.812384
O O4 0.588497 0.822140 0.067555
O O5 0.828567 0.094560 0.483442
O O6 0.896121 0.043187 0.705529
O O7 0.997035 0.050839 0.452872
O O8 0.843543 0.999697 0.456202
O O9 0.347274 0.374087 0.212148
O O10 0.363972 0.315869 0.441842
O O11 0.026351 0.841856 0.042618
O O12 0.159182 0.905004 0.936501
O O13 0.211608 0.818530 0.982559
O O14 0.637677 0.690993 0.719462
O O15 0.824539 0.723812 0.769498
O O16 0.996630 0.757715 0.620221
#
# Coordination Sequence:
#
# PCOD9377530 Si02
#       8
#     8   8   8   8   8   8   8   8
#     4  11  26  39  62  82 121 162 212 264 312 363
#     4  11  22  39  59  88 128 159 204 245 311 379
#     4  12  24  38  61  89 123 163 209 253 311 379
#     4  12  23  35  61  91 124 165 206 252 308 375
#     4  11  22  37  61  90 125 168 195 251 307 382
#     4  11  24  40  59  86 122 167 215 260 309 367
#     4  11  22  39  56  84 119 166 211 258 306 363
#     4  11  25  41  58  82 118 164 213 265 307 356
#
# _framework density 18.737203000000001
#
# number of rings (size 3 to 8) (size 9 to 14) (size 15 to 20)
#    0.000    0.750    3.750    5.250    5.250    0.000 
#    0.000    0.000    0.000    0.000    0.000    0.875 
#    0.000    0.000    0.000    0.000    0.000    0.000 
#
# Total GULP energy -178538.091677 kJ/mol
# GULP energy per Si atom -5579.315365 kJ/mol
# Density = 1.869456 g / cm^3
# Si number density = 18.737203 Si / 1000 Ang^3
#
#
#
# Elastic Constant Matrix: (Units=GPa)
#
#
# Indices 1 2 3 4 5 6 
#
# 1 76.7202 3.9477 21.5414 -0.0004 0.0001 0.0002
# 2 3.9477 55.2495 20.9620 -0.0010 0.0012 0.0005
# 3 21.5414 20.9620 130.4797 -0.0043 0.0059 0.0026
# 4 -0.0004 -0.0010 -0.0043 23.1416 0.0024 0.0010
# 5 0.0001 0.0012 0.0059 0.0024 18.2048 -0.0009
# 6 0.0002 0.0005 0.0026 0.0010 -0.0009 10.9013
#
#
#
# Elastic Compliance Matrix: (Units=1/GPa)
#
#
# Indices 1 2 3 4 5 6 
#
# 1 0.013669 -0.000128 -0.002236 0.000000 0.000001 0.000000
# 2 -0.000128 0.019276 -0.003076 0.000000 0.000000 0.000000
# 3 -0.002236 -0.003076 0.008527 0.000001 -0.000003 -0.000002
# 4 0.000000 0.000000 0.000001 0.043212 -0.000006 -0.000004
# 5 0.000001 0.000000 -0.000003 -0.000006 0.054931 0.000005
# 6 0.000000 0.000000 -0.000002 -0.000004 0.000005 0.091732
#
#
# Mechanical properties :
#
#
# Convention : Reuss Voigt Hill
#
# Bulk Modulus (GPa) = 32.68816 39.48351 36.08584
# Shear Modulus (GPa) = 19.80796 24.84943 22.32870
#
# Velocity S-wave (km/s) = 3.25491 3.64566 3.45581
# Velocity P-wave (km/s) = 5.62222 6.23211 5.93500
#
# Compressibility (1/GPa) = 0.03059211
#
# Stress axis : x y z
#
# Youngs Moduli (GPa) = 73.15932 51.87861 117.27071
#
# Poissons Ratio (x) = 0.00666 0.26222
# Poissons Ratio (y) = 0.00939 0.36067
# Poissons Ratio (z) = 0.16359 0.15955
#
# Static dielectric constant tensor:
#      x y z
#    x 1.749230 0.000000 0.000000 
#    y 0.000000 1.717090 0.000000 
#    z 0.000000 0.000000 1.696270 
# 
# From -- ./inp_files/1508.got.cif
#   From: 2010.05.17/outbox.cif.g08.bks.cpg/sg45_1_cif.got.tgz:1508.got - 2010.06.03 19:51:22.
