data_PCOD9377523
_publ_section_title
;
Structure prediction by ZEFSAII (Michael W. Deem and Ramdas Pophale) SiO2 
 PCOD9377523
Probable space group: I B A 2
;
_chemical_formula_sum "Si O2"
_cell_formula_units_Z 56
_cell_length_a 11.416229
_cell_length_b 14.102157
_cell_length_c 16.425475
_cell_angle_alpha 90.000000
_cell_angle_beta 90.000000
_cell_angle_gamma 90.000000
_cell_volume 2644.393949
_symmetry_space_group_name_H-M "I B A 2"
_symmetry_group_IT_number 45
_symmetry_cell_setting 'orthorhombic'
loop_
_space_group_symop_operation_xyz
x,y,z
-x,-y,z
-x,y,1/2+z
x,-y,1/2+z
1/2+x,1/2+y,1/2+z
1/2-x,1/2-y,1/2+z
1/2-x,1/2+y,z
1/2+x,1/2-y,z
loop_
_atom_site_type_symbol
_atom_site_label
_atom_site_fract_x
_atom_site_fract_y
_atom_site_fract_z
Si Si1 0.260003 0.323939 0.827200
Si Si2 0.227089 0.839699 0.219848
Si Si3 0.467079 0.608739 0.240767
Si Si4 0.405875 0.140297 0.476989
Si Si5 0.170402 0.796169 0.591198
Si Si6 0.857097 0.430523 0.026155
Si Si7 0.124394 0.532064 0.212002
O O1 0.285869 0.219688 0.792502
O O2 0.386135 0.374995 0.820112
O O3 0.180246 0.324442 0.906354
O O4 0.182102 0.384769 0.763510
O O5 0.245085 0.777549 0.138734
O O6 0.287225 0.942224 0.210218
O O7 0.091501 0.840851 0.242918
O O8 0.500000 0.500000 0.230696
O O9 0.396647 0.645975 0.161576
O O10 0.411258 0.225571 0.541319
O O11 0.542135 0.110737 0.467217
O O12 0.345486 0.041561 0.505778
O O13 0.241169 0.867182 0.532481
O O14 0.899274 0.431132 0.120590
O O15 0.000000 0.500000 0.247403
#
# Coordination Sequence:
#
# PCOD9377523 Si02
#       7
#     8   8   8   8   8   8   8
#     4  11  27  41  65 103 134 182 223 281 358 404
#     4  11  22  40  71  97 132 177 231 283 334 410
#     4  11  22  43  69  98 135 176 234 283 337 420
#     4  11  25  43  62 101 140 170 228 284 348 413
#     4  11  22  39  69  99 130 178 228 283 344 402
#     4  11  21  42  68  94 131 175 226 285 330 405
#     4  12  22  41  70  97 126 178 238 281 327 409
#
# _framework density 21.176874000000002
#
# number of rings (size 3 to 8) (size 9 to 14) (size 15 to 20)
#    0.000    0.857    7.143    0.857    6.000    2.286 
#    0.000    0.000    0.000    0.000    0.000    0.000 
#    0.000    0.000    0.000    0.000    0.000    0.000 
#
# Total GULP energy -156236.844297 kJ/mol
# GULP energy per Si atom -5579.887296 kJ/mol
# Density = 2.112867 g / cm^3
# Si number density = 21.176874 Si / 1000 Ang^3
#
#
#
# Elastic Constant Matrix: (Units=GPa)
#
#
# Indices 1 2 3 4 5 6 
#
# 1 89.7392 6.5893 0.7852 0.0000 0.0000 0.0000
# 2 6.5893 76.7840 0.2563 0.0000 0.0000 0.0000
# 3 0.7852 0.2563 36.8909 0.0000 0.0000 0.0000
# 4 0.0000 0.0000 0.0000 14.3832 0.0000 0.0000
# 5 0.0000 0.0000 0.0000 0.0000 20.8360 0.0000
# 6 0.0000 0.0000 0.0000 0.0000 0.0000 39.7259
#
#
#
# Elastic Compliance Matrix: (Units=1/GPa)
#
#
# Indices 1 2 3 4 5 6 
#
# 1 0.011216 -0.000962 -0.000232 0.000000 0.000000 0.000000
# 2 -0.000962 0.013106 -0.000071 0.000000 0.000000 0.000000
# 3 -0.000232 -0.000071 0.027112 0.000000 0.000000 0.000000
# 4 0.000000 0.000000 0.000000 0.069526 0.000000 0.000000
# 5 0.000000 0.000000 0.000000 0.000000 0.047994 0.000000
# 6 0.000000 0.000000 0.000000 0.000000 0.000000 0.025173
#
#
# Mechanical properties :
#
#
# Convention : Reuss Voigt Hill
#
# Bulk Modulus (GPa) = 20.44736 24.29728 22.37232
# Shear Modulus (GPa) = 23.47886 28.04124 25.76005
#
# Velocity S-wave (km/s) = 3.33333 3.64283 3.49151
# Velocity P-wave (km/s) = 4.94887 5.40296 5.18089
#
# Compressibility (1/GPa) = 0.04890607
#
# Stress axis : x y z
#
# Youngs Moduli (GPa) = 89.15794 76.29910 36.88349
#
# Poissons Ratio (x) = 0.07338 0.00856
# Poissons Ratio (y) = 0.08575 0.00260
# Poissons Ratio (z) = 0.02069 0.00538
#
# Static dielectric constant tensor:
#      x y z
#    x 1.811300 0.000000 0.000000 
#    y 0.000000 1.782170 0.000000 
#    z 0.000000 0.000000 1.788020 
# 
# From -- ./inp_files/6183.got.cif
#   From: 2010.05.17/outbox.cif.g08.bks.cpg/sg45_4_cif.got.tgz:6183.got - 2010.06.03 19:51:22.
