data_PCOD9377318
_publ_section_title
;
Structure prediction by ZEFSAII (Michael W. Deem and Ramdas Pophale) SiO2 
 PCOD9377318
Probable space group: I B A 2
;
_chemical_formula_sum "Si O2"
_cell_formula_units_Z 64
_cell_length_a 17.418251
_cell_length_b 14.107618
_cell_length_c 10.946593
_cell_angle_alpha 90.000000
_cell_angle_beta 90.000000
_cell_angle_gamma 90.000000
_cell_volume 2689.906641
_symmetry_space_group_name_H-M "I B A 2"
_symmetry_group_IT_number 45
_symmetry_cell_setting 'orthorhombic'
loop_
_space_group_symop_operation_xyz
x,y,z
-x,-y,z
-x,y,1/2+z
x,-y,1/2+z
1/2+x,1/2+y,1/2+z
1/2-x,1/2-y,1/2+z
1/2-x,1/2+y,z
1/2+x,1/2-y,z
loop_
_atom_site_type_symbol
_atom_site_label
_atom_site_fract_x
_atom_site_fract_y
_atom_site_fract_z
Si Si1 0.492688 0.886095 0.588390
Si Si2 0.679295 0.709929 0.691067
Si Si3 0.074854 0.239307 0.417074
Si Si4 0.227813 0.543576 0.325840
Si Si5 0.905976 0.847159 0.945545
Si Si6 0.205172 0.137321 0.733447
Si Si7 0.852299 0.049847 0.014494
Si Si8 0.945836 0.407044 0.346700
O O1 0.427779 0.831466 0.506492
O O2 0.482338 0.852969 0.728840
O O3 0.558894 0.868526 0.486602
O O4 0.500000 0.000000 0.604799
O O5 0.720019 0.616261 0.747304
O O6 0.627703 0.685581 0.575200
O O7 0.748499 0.782246 0.662739
O O8 0.622901 0.753689 0.793658
O O9 0.117995 0.151591 0.476257
O O10 0.988723 0.194171 0.410252
O O11 0.232913 0.435141 0.285614
O O12 0.266275 0.541722 0.460293
O O13 0.140608 0.572515 0.312942
O O14 0.900580 0.962326 0.960979
O O15 0.845428 0.818829 0.840938
O O16 0.151072 0.064916 0.658687
O O17 0.000000 0.500000 0.359434
#
# Coordination Sequence:
#
# PCOD9377318 Si02
#       8
#     8   8   8   8   8   8   8   8
#     4  10  25  43  66 105 147 186 247 296 373 432
#     4  11  27  45  71 111 140 195 249 301 380 456
#     4  11  27  45  74 103 148 192 246 303 373 449
#     4  10  24  47  70  97 147 189 241 305 365 447
#     4  11  26  49  74 108 142 192 248 317 370 441
#     4  11  26  45  76 103 146 189 245 299 379 448
#     4  10  24  49  71 108 138 197 247 308 370 440
#     4  10  24  43  68 101 143 196 241 300 366 440
#
# _framework density 23.792646999999999
#
# number of rings (size 3 to 8) (size 9 to 14) (size 15 to 20)
#    0.000    1.500    1.250    0.375   14.000    4.000 
#    0.000    0.000    0.000    0.000    0.000    0.000 
#    0.000    0.000    0.000    0.000    0.000    0.000 
#
# Total GULP energy -178329.057216 kJ/mol
# GULP energy per Si atom -5572.783038 kJ/mol
# Density = 2.373849 g / cm^3
# Si number density = 23.792647 Si / 1000 Ang^3
#
#
#
# Elastic Constant Matrix: (Units=GPa)
#
#
# Indices 1 2 3 4 5 6 
#
# 1 106.5174 25.9659 22.3824 0.0000 0.0000 0.0000
# 2 25.9659 78.2008 7.9714 0.0000 0.0000 0.0000
# 3 22.3824 7.9714 89.5163 0.0000 0.0000 0.0000
# 4 0.0000 0.0000 0.0000 30.8940 0.0000 0.0000
# 5 0.0000 0.0000 0.0000 0.0000 14.3565 0.0000
# 6 0.0000 0.0000 0.0000 0.0000 0.0000 36.0486
#
#
#
# Elastic Compliance Matrix: (Units=1/GPa)
#
#
# Indices 1 2 3 4 5 6 
#
# 1 0.010695 -0.003309 -0.002379 0.000000 0.000000 0.000000
# 2 -0.003309 0.013928 -0.000413 0.000000 0.000000 0.000000
# 3 -0.002379 -0.000413 0.011803 0.000000 0.000000 0.000000
# 4 0.000000 0.000000 0.000000 0.032369 0.000000 0.000000
# 5 0.000000 0.000000 0.000000 0.000000 0.069655 0.000000
# 6 0.000000 0.000000 0.000000 0.000000 0.000000 0.027740
#
#
# Mechanical properties :
#
#
# Convention : Reuss Voigt Hill
#
# Bulk Modulus (GPa) = 41.28175 42.98597 42.13386
# Shear Modulus (GPa) = 26.81451 30.78748 28.80099
#
# Velocity S-wave (km/s) = 3.36074 3.60111 3.48300
# Velocity P-wave (km/s) = 5.69629 5.94952 5.82428
#
# Compressibility (1/GPa) = 0.02422378
#
# Stress axis : x y z
#
# Youngs Moduli (GPa) = 93.50469 71.79651 84.72506
#
# Poissons Ratio (x) = 0.23754 0.20160
# Poissons Ratio (y) = 0.30936 0.03500
# Poissons Ratio (z) = 0.22249 0.02966
#
# Static dielectric constant tensor:
#      x y z
#    x 1.904690 0.000000 0.000000 
#    y 0.000000 2.421740 0.000000 
#    z 0.000000 0.000000 1.987680 
# 
# From -- ./inp_files/4499.got.cif
#   From: 2010.05.17/outbox.cif.g08.bks.cpg/sg45_3_cif.got.tgz:4499.got - 2010.06.03 19:51:22.
