data_PCOD9377138
_publ_section_title
;
Structure prediction by ZEFSAII (Michael W. Deem and Ramdas Pophale) SiO2 
 PCOD9377138
Probable space group: I B A 2
;
_chemical_formula_sum "Si O2"
_cell_formula_units_Z 48
_cell_length_a 9.785670
_cell_length_b 19.538695
_cell_length_c 10.268565
_cell_angle_alpha 90.000000
_cell_angle_beta 90.000000
_cell_angle_gamma 90.000000
_cell_volume 1963.341634
_symmetry_space_group_name_H-M "I B A 2"
_symmetry_group_IT_number 45
_symmetry_cell_setting 'orthorhombic'
loop_
_space_group_symop_operation_xyz
x,y,z
-x,-y,z
-x,y,1/2+z
x,-y,1/2+z
1/2+x,1/2+y,1/2+z
1/2-x,1/2-y,1/2+z
1/2-x,1/2+y,z
1/2+x,1/2-y,z
loop_
_atom_site_type_symbol
_atom_site_label
_atom_site_fract_x
_atom_site_fract_y
_atom_site_fract_z
Si Si1 0.805045 0.740167 0.647580
Si Si2 0.901599 0.870638 0.535083
Si Si3 0.000000 0.500000 0.760153
Si Si4 0.877114 0.637174 0.866747
Si Si5 0.828300 0.680672 0.387743
Si Si6 0.234282 0.951616 0.257298
Si Si7 0.000000 0.000000 0.402108
O O1 0.919714 0.795418 0.599200
O O2 0.853754 0.674157 0.727771
O O3 0.749036 0.712526 0.509921
O O4 0.708833 0.779732 0.752910
O O5 0.762990 0.860762 0.448469
O O6 0.863310 0.914771 0.659197
O O7 0.006389 0.924074 0.468042
O O8 0.069930 0.439926 0.843490
O O9 0.128961 0.527256 0.681587
O O10 0.010149 0.677950 0.919817
O O11 0.786043 0.602833 0.362210
O O12 0.139820 0.007610 0.322442
#
# Coordination Sequence:
#
# PCOD9377138 Si02
#       7
#     8   8   4   8   8   8   4
#     4  11  24  46  70 110 151 198 251 320 392 459
#     4  11  25  46  72 111 152 197 260 314 388 473
#     4  10  22  46  72 108 148 196 256 320 384 460
#     4  11  24  45  74 109 151 199 256 320 387 457
#     4  10  25  43  72 107 145 197 257 322 383 457
#     4  10  24  44  69 107 146 197 256 317 386 461
#     4  12  24  48  70 108 156 204 252 322 392 460
#
# _framework density 24.448114
#
# number of rings (size 3 to 8) (size 9 to 14) (size 15 to 20)
#    0.000    1.333    3.333    0.500    7.000    6.000 
#    3.000    0.000    0.000    0.000    0.000    0.000 
#    0.000    0.000    0.000    0.000    0.000    0.000 
#
# Total GULP energy -133689.868627 kJ/mol
# GULP energy per Si atom -5570.411193 kJ/mol
# Density = 2.439247 g / cm^3
# Si number density = 24.448114 Si / 1000 Ang^3
#
#
#
# Elastic Constant Matrix: (Units=GPa)
#
#
# Indices 1 2 3 4 5 6 
#
# 1 80.5965 10.3209 8.0441 0.0002 0.0000 0.0000
# 2 10.3209 100.7581 17.5178 -0.0001 -0.0001 0.0000
# 3 8.0441 17.5178 67.1160 0.0000 -0.0001 0.0000
# 4 0.0002 -0.0001 0.0000 -79.1095 -0.0002 0.0000
# 5 0.0000 -0.0001 -0.0001 -0.0002 11.2214 0.0000
# 6 0.0000 0.0000 0.0000 0.0000 0.0000 21.4637
#
#
#
# Elastic Compliance Matrix: (Units=1/GPa)
#
#
# Indices 1 2 3 4 5 6 
#
# 1 0.012670 -0.001083 -0.001236 0.000000 0.000000 0.000000
# 2 -0.001083 0.010489 -0.002608 0.000000 0.000000 0.000000
# 3 -0.001236 -0.002608 0.015728 0.000000 0.000000 0.000000
# 4 0.000000 0.000000 0.000000 -0.012641 0.000000 0.000000
# 5 0.000000 0.000000 0.000000 0.000000 0.089116 0.000000
# 6 0.000000 0.000000 0.000000 0.000000 0.000000 0.046590
#
#
# Mechanical properties :
#
#
# Convention : Reuss Voigt Hill
#
# Bulk Modulus (GPa) = 34.44283 35.58180 35.01231
# Shear Modulus (GPa) = 27.55076 4.88765 16.21920
#
# Velocity S-wave (km/s) = 3.36059 1.41546 2.57848
# Velocity P-wave (km/s) = 5.40155 4.15415 4.81839
#
# Compressibility (1/GPa) = 0.02903362
#
# Stress axis : x y z
#
# Youngs Moduli (GPa) = 78.92968 95.33705 63.57935
#
# Poissons Ratio (x) = 0.10324 0.07857
# Poissons Ratio (y) = 0.08547 0.16581
# Poissons Ratio (z) = 0.09754 0.24863
#
# Static dielectric constant tensor:
#      x y z
#    x 2.070370 0.000000 0.000000 
#    y 0.000000 2.179490 0.000000 
#    z 0.000000 0.000000 1.958800 
# 
# From -- ./inp_files/3751.got.cif
#   From: 2010.05.17/outbox.cif.g08.bks.cpg/sg45_2_cif.got.tgz:3751.got - 2010.06.03 19:51:22.
