data_PCOD9377646
_publ_section_title
;
Structure prediction by ZEFSAII (Michael W. Deem and Ramdas Pophale) SiO2 
 PCOD9377646
Probable space group: I B A 2
;
_chemical_formula_sum "Si O2"
_cell_formula_units_Z 48
_cell_length_a 7.884697
_cell_length_b 14.357490
_cell_length_c 17.766647
_cell_angle_alpha 90.000000
_cell_angle_beta 90.000000
_cell_angle_gamma 90.000000
_cell_volume 2011.263650
_symmetry_space_group_name_H-M "I B A 2"
_symmetry_group_IT_number 45
_symmetry_cell_setting 'orthorhombic'
loop_
_space_group_symop_operation_xyz
x,y,z
-x,-y,z
-x,y,1/2+z
x,-y,1/2+z
1/2+x,1/2+y,1/2+z
1/2-x,1/2-y,1/2+z
1/2-x,1/2+y,z
1/2+x,1/2-y,z
loop_
_atom_site_type_symbol
_atom_site_label
_atom_site_fract_x
_atom_site_fract_y
_atom_site_fract_z
Si Si1 0.790075 0.868447 0.931840
Si Si2 0.401928 0.714191 0.687869
Si Si3 0.901926 0.785809 0.348072
Si Si4 0.194138 0.535715 0.688708
Si Si5 0.709926 0.368447 0.104101
Si Si6 0.694138 0.035715 0.847233
O O1 0.662408 0.813960 0.875820
O O2 0.971617 0.828279 0.909456
O O3 0.781359 0.977520 0.913375
O O4 0.746564 0.849847 0.017970
O O5 0.500001 0.713922 0.767970
O O6 0.239994 0.644238 0.688059
O O7 0.528384 0.671721 0.626485
O O8 0.337593 0.813959 0.660121
O O9 0.739992 0.855762 0.347882
O O10 0.281358 0.477520 0.622566
O O11 0.268280 0.500000 0.767971
O O12 0.000000 0.500000 0.686624
O O13 0.500000 0.000000 0.849318
#
# Coordination Sequence:
#
# PCOD9377646 Si02
#       6
#     8   8   8   8   8   8
#     4  12  27  44  71 108 147 191 243 309 373 429
#     4  12  25  46  74 106 144 199 246 297 365 445
#     4  12  25  46  74 106 144 199 246 297 365 445
#     4  11  25  44  72 105 143 188 244 302 364 434
#     4  12  27  44  71 108 147 191 243 309 373 429
#     4  11  25  44  72 105 143 188 244 302 364 434
#
# _framework density 23.865590999999998
#
# number of rings (size 3 to 8) (size 9 to 14) (size 15 to 20)
#    0.000    0.333    3.333    5.000    4.667    4.667 
#    0.000    0.000    0.000    0.000    0.000    0.000 
#    0.000    0.000    0.000    0.000    0.000    0.000 
#
# Total GULP energy -134361.787934 kJ/mol
# GULP energy per Si atom -5598.407831 kJ/mol
# Density = 2.381127 g / cm^3
# Si number density = 23.865591 Si / 1000 Ang^3
#
#
#
# Elastic Constant Matrix: (Units=GPa)
#
#
# Indices 1 2 3 4 5 6 
#
# 1 99.1653 29.3503 30.0157 0.0000 0.0000 0.0000
# 2 29.3503 136.2572 50.9237 0.0000 0.0000 0.0000
# 3 30.0157 50.9237 112.3449 0.0000 0.0000 0.0000
# 4 0.0000 0.0000 0.0000 28.8297 0.0000 0.0000
# 5 0.0000 0.0000 0.0000 0.0000 5.9994 0.0000
# 6 0.0000 0.0000 0.0000 0.0000 0.0000 39.1694
#
#
#
# Elastic Compliance Matrix: (Units=1/GPa)
#
#
# Indices 1 2 3 4 5 6 
#
# 1 0.011242 -0.001564 -0.002295 0.000000 0.000000 0.000000
# 2 -0.001564 0.009053 -0.003686 0.000000 0.000000 0.000000
# 3 -0.002295 -0.003686 0.011185 0.000000 0.000000 0.000000
# 4 0.000000 0.000000 0.000000 0.034686 0.000000 0.000000
# 5 0.000000 0.000000 0.000000 0.000000 0.166684 0.000000
# 6 0.000000 0.000000 0.000000 0.000000 0.000000 0.025530
#
#
# Mechanical properties :
#
#
# Convention : Reuss Voigt Hill
#
# Bulk Modulus (GPa) = 61.00833 63.14963 62.07898
# Shear Modulus (GPa) = 17.92547 30.63155 24.27851
#
# Velocity S-wave (km/s) = 2.74360 3.58649 3.19298
# Velocity P-wave (km/s) = 5.97120 6.60821 6.29777
#
# Compressibility (1/GPa) = 0.01639120
#
# Stress axis : x y z
#
# Youngs Moduli (GPa) = 88.95547 110.45470 89.40575
#
# Poissons Ratio (x) = 0.17274 0.20515
# Poissons Ratio (y) = 0.13912 0.32954
# Poissons Ratio (z) = 0.20411 0.40713
#
# Static dielectric constant tensor:
#      x y z
#    x 1.978230 0.000000 0.000000 
#    y 0.000000 1.863200 0.000000 
#    z 0.000000 0.000000 1.852740 
# 
# From -- ./inp_files/7553.got.cif
#   From: 2010.05.17/outbox.cif.g08.bks.cpg/sg45_4_cif.got.tgz:7553.got - 2010.06.03 19:51:22.
