data_PCOD9377179
_publ_section_title
;
Structure prediction by ZEFSAII (Michael W. Deem and Ramdas Pophale) SiO2 
 PCOD9377179
Probable space group: I B A 2
;
_chemical_formula_sum "Si O2"
_cell_formula_units_Z 48
_cell_length_a 10.536555
_cell_length_b 7.804830
_cell_length_c 22.927439
_cell_angle_alpha 90.000000
_cell_angle_beta 90.000000
_cell_angle_gamma 90.000000
_cell_volume 1885.461345
_symmetry_space_group_name_H-M "I B A 2"
_symmetry_group_IT_number 45
_symmetry_cell_setting 'orthorhombic'
loop_
_space_group_symop_operation_xyz
x,y,z
-x,-y,z
-x,y,1/2+z
x,-y,1/2+z
1/2+x,1/2+y,1/2+z
1/2-x,1/2-y,1/2+z
1/2-x,1/2+y,z
1/2+x,1/2-y,z
loop_
_atom_site_type_symbol
_atom_site_label
_atom_site_fract_x
_atom_site_fract_y
_atom_site_fract_z
Si Si1 0.369967 0.982782 0.333050
Si Si2 0.388214 0.373579 0.857560
Si Si3 0.672813 0.763218 0.558075
Si Si4 0.058650 0.805017 0.989559
Si Si5 0.175898 0.972704 0.146270
Si Si6 0.891992 0.638550 0.710614
O O1 0.636198 0.215427 0.314336
O O2 0.240969 0.022637 0.364778
O O3 0.389239 0.116978 0.280385
O O4 0.500000 0.000000 0.367968
O O5 0.500000 0.500000 0.838965
O O6 0.417145 0.295987 0.920906
O O7 0.691646 0.258508 0.522700
O O8 0.557371 0.805186 0.515490
O O9 0.708452 0.891407 0.609282
O O10 0.625898 0.599534 0.596291
O O11 0.000000 0.000000 0.994417
O O12 0.095642 0.822456 0.177999
O O13 0.249471 0.080266 0.194458
O O14 0.000000 0.500000 0.692648
#
# Coordination Sequence:
#
# PCOD9377179 Si02
#       6
#     8   8   8   8   8   8
#     4  11  24  45  76 107 149 198 256 322 386 462
#     4  11  26  45  72 107 154 203 255 317 385 461
#     4  11  24  44  71 103 152 199 255 315 380 466
#     4  11  26  45  67 111 153 204 260 316 386 455
#     4  10  23  41  70 104 142 195 244 317 380 461
#     4  10  23  44  70 106 144 187 252 311 390 459
#
# _framework density 25.45796
#
# number of rings (size 3 to 8) (size 9 to 14) (size 15 to 20)
#    0.000    1.333    1.667    2.000   11.667    1.333 
#    0.000    0.000    0.000    0.000    0.000    0.000 
#    0.000    0.000    0.000    0.000    0.000    0.000 
#
# Total GULP energy -133858.820863 kJ/mol
# GULP energy per Si atom -5577.450869 kJ/mol
# Density = 2.540002 g / cm^3
# Si number density = 25.457960 Si / 1000 Ang^3
#
#
#
# Elastic Constant Matrix: (Units=GPa)
#
#
# Indices 1 2 3 4 5 6 
#
# 1 180.2856 36.8546 35.1109 0.0000 0.0000 0.0000
# 2 36.8546 99.9295 38.5199 0.0000 0.0000 0.0000
# 3 35.1109 38.5199 82.6911 0.0000 0.0000 0.0000
# 4 0.0000 0.0000 0.0000 21.3248 0.0000 0.0000
# 5 0.0000 0.0000 0.0000 0.0000 -6.8754 0.0000
# 6 0.0000 0.0000 0.0000 0.0000 0.0000 40.1081
#
#
#
# Elastic Compliance Matrix: (Units=1/GPa)
#
#
# Indices 1 2 3 4 5 6 
#
# 1 0.006240 -0.001560 -0.001923 0.000000 0.000000 0.000000
# 2 -0.001560 0.012587 -0.005201 0.000000 0.000000 0.000000
# 3 -0.001923 -0.005201 0.015332 0.000000 0.000000 0.000000
# 4 0.000000 0.000000 0.000000 0.046894 0.000000 0.000000
# 5 0.000000 0.000000 0.000000 0.000000 -0.145446 0.000000
# 6 0.000000 0.000000 0.000000 0.000000 0.000000 0.024933
#
#
# Mechanical properties :
#
#
# Convention : Reuss Voigt Hill
#
# Bulk Modulus (GPa) = 59.55303 64.87521 62.21412
# Shear Modulus (GPa) = -303.13494 27.73955 -137.69770
#
# Velocity S-wave (km/s) = -10.92388 3.30452 -7.36245
# Velocity P-wave (km/s) = 11.64753 6.33233 6.91254
#
# Compressibility (1/GPa) = 0.01679176
#
# Stress axis : x y z
#
# Youngs Moduli (GPa) = 160.25205 79.44493 65.22127
#
# Poissons Ratio (x) = 0.12395 0.12541
# Poissons Ratio (y) = 0.25003 0.33922
# Poissons Ratio (z) = 0.30813 0.41320
#
# Static dielectric constant tensor:
#      x y z
#    x 2.132060 0.000000 0.000000 
#    y 0.000000 2.259210 0.000000 
#    z 0.000000 0.000000 2.017410 
# 
# From -- ./inp_files/9664.got.cif
#   From: 2010.05.17/outbox.cif.g08.bks.cpg/sg45_5_cif.got.tgz:9664.got - 2010.06.03 19:51:22.
