data_PCOD9377165
_publ_section_title
;
Structure prediction by ZEFSAII (Michael W. Deem and Ramdas Pophale) SiO2 
 PCOD9377165
Probable space group: I B A 2
;
_chemical_formula_sum "Si O2"
_cell_formula_units_Z 64
_cell_length_a 7.831866
_cell_length_b 22.749628
_cell_length_c 12.947587
_cell_angle_alpha 90.000000
_cell_angle_beta 90.000000
_cell_angle_gamma 90.000000
_cell_volume 2306.897964
_symmetry_space_group_name_H-M "I B A 2"
_symmetry_group_IT_number 45
_symmetry_cell_setting 'orthorhombic'
loop_
_space_group_symop_operation_xyz
x,y,z
-x,-y,z
-x,y,1/2+z
x,-y,1/2+z
1/2+x,1/2+y,1/2+z
1/2-x,1/2-y,1/2+z
1/2-x,1/2+y,z
1/2+x,1/2-y,z
loop_
_atom_site_type_symbol
_atom_site_label
_atom_site_fract_x
_atom_site_fract_y
_atom_site_fract_z
Si Si1 0.299727 0.326604 0.414630
Si Si2 0.219620 0.452058 0.816909
Si Si3 0.869941 0.424001 0.728463
Si Si4 0.542032 0.786194 0.341080
Si Si5 0.839101 0.655188 0.050029
Si Si6 0.032065 0.925201 0.983258
Si Si7 0.225470 0.218199 0.138869
Si Si8 0.493002 0.611941 0.187962
O O1 0.150324 0.309022 0.335931
O O2 0.448122 0.280606 0.384160
O O3 0.376413 0.391503 0.428295
O O4 0.221199 0.308584 0.527324
O O5 0.191926 0.508738 0.744925
O O6 0.028437 0.423753 0.810360
O O7 0.332244 0.466946 0.921878
O O8 0.353048 0.406548 0.771537
O O9 0.934569 0.395622 0.618820
O O10 0.684694 0.392816 0.728724
O O11 0.611074 0.824709 0.435669
O O12 0.646009 0.789630 0.234495
O O13 0.822522 0.715206 0.113518
O O14 0.657757 0.626289 0.023417
O O15 0.961947 0.936958 0.097857
O O16 0.060645 0.178508 0.162950
#
# Coordination Sequence:
#
# PCOD9377165 Si02
#       8
#     8   8   8   8   8   8   8   8
#     4  10  23  40  67 109 157 218 282 343 415 507
#     4  11  24  51  82 121 160 214 291 347 435 499
#     4  10  25  49  83 114 161 220 275 360 421 499
#     4  11  23  41  70 111 164 222 281 337 421 520
#     4  10  23  47  78 116 165 215 284 345 433 511
#     4  10  23  47  74 111 163 210 274 358 413 508
#     4  10  23  44  77 112 170 224 271 351 427 520
#     4  10  23  49  80 114 162 214 276 346 435 497
#
# _framework density 27.742882999999999
#
# number of rings (size 3 to 8) (size 9 to 14) (size 15 to 20)
#    0.000    1.750    0.000    2.625    3.500    9.000 
#    6.750   16.250    2.750    0.000    0.000    0.000 
#    0.000    0.000    0.000    0.000    0.000    0.000 
#
# Total GULP energy -178605.855200 kJ/mol
# GULP energy per Si atom -5581.432975 kJ/mol
# Density = 2.767974 g / cm^3
# Si number density = 27.742883 Si / 1000 Ang^3
#
#
#
# Elastic Constant Matrix: (Units=GPa)
#
#
# Indices 1 2 3 4 5 6 
#
# 1 133.0484 32.3652 33.1169 0.0000 0.0000 0.0000
# 2 32.3652 157.5713 40.0438 0.0000 0.0000 0.0000
# 3 33.1169 40.0438 177.8716 0.0000 0.0000 0.0000
# 4 0.0000 0.0000 0.0000 32.7223 0.0000 0.0000
# 5 0.0000 0.0000 0.0000 0.0000 49.3492 0.0000
# 6 0.0000 0.0000 0.0000 0.0000 0.0000 39.0296
#
#
#
# Elastic Compliance Matrix: (Units=1/GPa)
#
#
# Indices 1 2 3 4 5 6 
#
# 1 0.008150 -0.001367 -0.001210 0.000000 0.000000 0.000000
# 2 -0.001367 0.006961 -0.001313 0.000000 0.000000 0.000000
# 3 -0.001210 -0.001313 0.006143 0.000000 0.000000 0.000000
# 4 0.000000 0.000000 0.000000 0.030560 0.000000 0.000000
# 5 0.000000 0.000000 0.000000 0.000000 0.020264 0.000000
# 6 0.000000 0.000000 0.000000 0.000000 0.000000 0.025622
#
#
# Mechanical properties :
#
#
# Convention : Reuss Voigt Hill
#
# Bulk Modulus (GPa) = 74.20964 75.50481 74.85722
# Shear Modulus (GPa) = 45.46784 48.41790 46.94287
#
# Velocity S-wave (km/s) = 4.05273 4.18214 4.11794
# Velocity P-wave (km/s) = 6.97901 7.11304 7.04634
#
# Compressibility (1/GPa) = 0.01347534
#
# Stress axis : x y z
#
# Youngs Moduli (GPa) = 122.70577 143.66606 162.79323
#
# Poissons Ratio (x) = 0.19632 0.19693
# Poissons Ratio (y) = 0.16768 0.21368
# Poissons Ratio (z) = 0.14844 0.18858
#
# Static dielectric constant tensor:
#      x y z
#    x 2.250870 0.000000 0.000000 
#    y 0.000000 2.273490 0.000000 
#    z 0.000000 0.000000 2.498070 
# 
# From -- ./inp_files/6652.got.cif
#   From: 2010.05.17/outbox.cif.g08.bks.cpg/sg45_4_cif.got.tgz:6652.got - 2010.06.03 19:51:22.
