data_PCOD9377769
_publ_section_title
;
Structure prediction by ZEFSAII (Michael W. Deem and Ramdas Pophale) SiO2 
 PCOD9377769
Probable space group: I M A 2
;
_chemical_formula_sum "Si O2"
_cell_formula_units_Z 64
_cell_length_a 18.305111
_cell_length_b 7.189637
_cell_length_c 21.695787
_cell_angle_alpha 90.000000
_cell_angle_beta 90.000000
_cell_angle_gamma 90.000000
_cell_volume 2855.319682
_symmetry_space_group_name_H-M "I M A 2"
_symmetry_group_IT_number 46
_symmetry_cell_setting 'orthorhombic'
loop_
_space_group_symop_operation_xyz
x,y,z
-x,-y,z
1/2-x,y,z
1/2+x,-y,z
1/2+x,1/2+y,1/2+z
1/2-x,1/2-y,1/2+z
-x,1/2+y,1/2+z
x,1/2-y,1/2+z
loop_
_atom_site_type_symbol
_atom_site_label
_atom_site_fract_x
_atom_site_fract_y
_atom_site_fract_z
Si Si1 0.414548 0.970535 0.029450
Si Si2 0.662631 0.056200 0.283251
Si Si3 0.166059 0.531611 0.407080
Si Si4 0.167047 0.515238 0.917406
Si Si5 0.085452 0.529465 0.037053
Si Si6 0.585141 0.451635 0.283251
Si Si7 0.833941 0.031610 0.659423
Si Si8 0.332953 0.515240 0.649096
O O1 0.401474 0.750000 0.033251
O O2 0.387273 0.044192 0.095319
O O3 0.500000 0.000000 0.020275
O O4 0.369417 0.037650 0.970443
O O5 0.750000 0.116024 0.283252
O O6 0.651707 0.950680 0.347671
O O7 0.607801 0.231946 0.283251
O O8 0.651708 0.950681 0.218831
O O9 0.250000 0.474911 0.401495
O O10 0.164843 0.758542 0.411118
O O11 0.121509 0.478055 0.346406
O O12 0.250000 0.466975 0.935042
O O13 0.112727 0.455808 0.971184
O O14 0.130583 0.462349 0.096060
O O15 0.000000 0.500000 0.046227
O O16 0.500000 0.500000 0.283251
O O17 0.621510 0.521946 0.220097
O O18 0.750000 0.974911 0.665006
O O19 0.835158 0.258540 0.655384
O O20 0.250000 0.466980 0.631459
#
# Coordination Sequence:
#
# PCOD9377769 Si02
#       8
#     8   8   8   8   8   8   8   8
#     4  10  19  30  45  67  93 117 145 184 228 267
#     4   8  14  26  43  63  86 111 145 188 224 256
#     4   9  16  27  43  62  85 116 154 188 215 254
#     4   8  14  26  45  65  84 111 148 187 221 256
#     4  10  19  30  45  67  93 117 145 184 228 267
#     4  10  16  22  36  63  94 115 136 176 231 270
#     4   9  16  27  43  62  85 116 154 188 215 254
#     4   8  14  26  45  65  84 111 148 187 221 256
#
# _framework density 22.414304000000001
#
# number of rings (size 3 to 8) (size 9 to 14) (size 15 to 20)
#    0.000    3.000    0.000    4.125    0.000    3.000 
#    0.000    0.625    0.000    3.000    0.000    0.000 
#    0.000    4.000    0.000    0.000    0.000    0.000 
#
# Total GULP energy -178686.284572 kJ/mol
# GULP energy per Si atom -5583.946393 kJ/mol
# Density = 2.236329 g / cm^3
# Si number density = 22.414304 Si / 1000 Ang^3
#
#
#
# Elastic Constant Matrix: (Units=GPa)
#
#
# Indices 1 2 3 4 5 6 
#
# 1 188.5125 5.1646 124.0499 0.0000 0.0000 0.0000
# 2 5.1646 85.6167 -7.3969 0.0000 0.0000 0.0000
# 3 124.0499 -7.3969 221.8619 0.0000 0.0000 0.0000
# 4 0.0000 0.0000 0.0000 -26.2198 0.0000 0.0000
# 5 0.0000 0.0000 0.0000 0.0000 96.0764 0.0000
# 6 0.0000 0.0000 0.0000 0.0000 0.0000 -2.1753
#
#
#
# Elastic Compliance Matrix: (Units=1/GPa)
#
#
# Indices 1 2 3 4 5 6 
#
# 1 0.008465 -0.000922 -0.004764 0.000000 0.000000 0.000000
# 2 -0.000922 0.011814 0.000909 0.000000 0.000000 0.000000
# 3 -0.004764 0.000909 0.007201 0.000000 0.000000 0.000000
# 4 0.000000 0.000000 0.000000 -0.038139 0.000000 0.000000
# 5 0.000000 0.000000 0.000000 0.000000 0.010408 0.000000
# 6 0.000000 0.000000 0.000000 0.000000 0.000000 -0.459708
#
#
# Mechanical properties :
#
#
# Convention : Reuss Voigt Hill
#
# Bulk Modulus (GPa) = 55.78052 82.18068 68.98060
# Shear Modulus (GPa) = -11.25036 38.48116 13.61540
#
# Velocity S-wave (km/s) = -2.24281 4.14794 2.46731
# Velocity P-wave (km/s) = 4.27004 7.72558 6.24171
#
# Compressibility (1/GPa) = 0.01792741
#
# Stress axis : x y z
#
# Youngs Moduli (GPa) = 118.13908 84.64409 138.86790
#
# Poissons Ratio (x) = 0.07805 0.66151
# Poissons Ratio (y) = 0.10894 -0.12630
# Poissons Ratio (z) = 0.56276 -0.07698
#
# Static dielectric constant tensor:
#      x y z
#    x 1.783440 0.000000 0.000000 
#    y 0.000000 1.902940 0.000000 
#    z 0.000000 0.000000 1.832660 
# 
# From -- ./inp_files/23710.got.cif
#   From: 2010.05.17/outbox.cif.g08.bks.cpg/sg46_12_cif.got.tgz:23710.got - 2010.06.03 19:58:25.
