data_PCOD9377863
_publ_section_title
;
Structure prediction by ZEFSAII (Michael W. Deem and Ramdas Pophale) SiO2 
 PCOD9377863
Probable space group: I M A 2
;
_chemical_formula_sum "Si O2"
_cell_formula_units_Z 64
_cell_length_a 14.334840
_cell_length_b 16.109339
_cell_length_c 15.489196
_cell_angle_alpha 90.000000
_cell_angle_beta 90.000000
_cell_angle_gamma 90.000000
_cell_volume 3576.839443
_symmetry_space_group_name_H-M "I M A 2"
_symmetry_group_IT_number 46
_symmetry_cell_setting 'orthorhombic'
loop_
_space_group_symop_operation_xyz
x,y,z
-x,-y,z
1/2-x,y,z
1/2+x,-y,z
1/2+x,1/2+y,1/2+z
1/2-x,1/2-y,1/2+z
-x,1/2+y,1/2+z
x,1/2-y,1/2+z
loop_
_atom_site_type_symbol
_atom_site_label
_atom_site_fract_x
_atom_site_fract_y
_atom_site_fract_z
Si Si1 0.534319 0.756272 0.106220
Si Si2 0.643576 0.491437 0.788984
Si Si3 0.555721 0.084883 0.653794
Si Si4 0.144085 0.677956 0.311658
Si Si5 0.987815 0.748036 0.917504
Si Si6 0.420830 0.571185 0.966362
Si Si7 0.642082 0.334461 0.684753
Si Si8 0.138214 0.178450 0.269866
O O1 0.516061 0.659893 0.130992
O O2 0.432761 0.799372 0.118026
O O3 0.604608 0.793849 0.175626
O O4 0.562011 0.769166 0.007426
O O5 0.750000 0.501042 0.761555
O O6 0.641252 0.457939 0.886583
O O7 0.606850 0.421004 0.724830
O O8 0.604032 0.583693 0.785445
O O9 0.613313 0.113341 0.737338
O O10 0.615447 0.077054 0.564782
O O11 0.500000 0.000000 0.669005
O O12 0.250000 0.662836 0.341118
O O13 0.142173 0.767088 0.262340
O O14 0.066693 0.687660 0.385699
O O15 0.915545 0.733678 0.840210
O O16 0.038253 0.660375 0.939428
O O17 0.500000 0.500000 0.970882
O O18 0.750000 0.340118 0.654638
O O19 0.250000 0.183702 0.279694
#
# Coordination Sequence:
#
# PCOD9377863 Si02
#       8
#     8   8   8   8   8   8   8   8
#     4  10  21  36  56  81 109 149 186 227 279 328
#     4  10  19  30  52  83 114 141 175 223 278 338
#     4   9  19  34  54  77 111 148 182 225 272 334
#     4  10  19  34  56  82 111 145 183 225 276 337
#     4  11  20  34  57  82 110 146 186 226 277 337
#     4  10  17  28  51  82 114 142 172 220 281 338
#     4   9  17  32  53  81 113 141 171 216 279 342
#     4  11  22  37  56  81 113 149 191 232 274 329
#
# _framework density 17.892890999999999
#
# number of rings (size 3 to 8) (size 9 to 14) (size 15 to 20)
#    0.000    2.000    5.000    0.000    0.000    1.500 
#    0.000    3.125    2.750    0.000    0.000    0.000 
#    0.000    0.000    0.000    0.000    0.000    0.000 
#
# Total GULP energy -178264.084308 kJ/mol
# GULP energy per Si atom -5570.752635 kJ/mol
# Density = 1.785217 g / cm^3
# Si number density = 17.892891 Si / 1000 Ang^3
#
#
#
# Elastic Constant Matrix: (Units=GPa)
#
#
# Indices 1 2 3 4 5 6 
#
# 1 73.2932 21.8814 31.2716 0.0000 0.0000 0.0000
# 2 21.8814 64.6623 39.0237 0.0000 0.0000 0.0000
# 3 31.2716 39.0237 106.6814 0.0000 0.0000 0.0000
# 4 0.0000 0.0000 0.0000 19.6369 0.0000 0.0000
# 5 0.0000 0.0000 0.0000 0.0000 6.6780 0.0000
# 6 0.0000 0.0000 0.0000 0.0000 0.0000 14.5621
#
#
#
# Elastic Compliance Matrix: (Units=1/GPa)
#
#
# Indices 1 2 3 4 5 6 
#
# 1 0.016139 -0.003345 -0.003507 0.000000 0.000000 0.000000
# 2 -0.003345 0.020539 -0.006533 0.000000 0.000000 0.000000
# 3 -0.003507 -0.006533 0.012791 0.000000 0.000000 0.000000
# 4 0.000000 0.000000 0.000000 0.050924 0.000000 0.000000
# 5 0.000000 0.000000 0.000000 0.000000 0.149745 0.000000
# 6 0.000000 0.000000 0.000000 0.000000 0.000000 0.068671
#
#
# Mechanical properties :
#
#
# Convention : Reuss Voigt Hill
#
# Bulk Modulus (GPa) = 44.05264 47.66557 45.85910
# Shear Modulus (GPa) = 14.15843 18.33943 16.24893
#
# Velocity S-wave (km/s) = 2.81604 3.20497 3.01678
# Velocity P-wave (km/s) = 5.93692 6.35555 6.14980
#
# Compressibility (1/GPa) = 0.02270012
#
# Stress axis : x y z
#
# Youngs Moduli (GPa) = 61.96248 48.68710 78.17696
#
# Poissons Ratio (x) = 0.16284 0.27419
# Poissons Ratio (y) = 0.20724 0.51071
# Poissons Ratio (z) = 0.21732 0.31806
#
# Static dielectric constant tensor:
#      x y z
#    x 1.621330 0.000000 0.000000 
#    y 0.000000 1.631750 0.000000 
#    z 0.000000 0.000000 1.627970 
# 
# From -- ./inp_files/16179.got.cif
#   From: 2010.05.17/outbox.cif.g08.bks.cpg/sg46_9_cif.got.tgz:16179.got - 2010.06.03 19:58:25.
