data_PCOD9377072
_publ_section_title
;
Structure prediction by ZEFSAII (Michael W. Deem and Ramdas Pophale) SiO2 
 PCOD9377072
Probable space group: I B A 2
;
_chemical_formula_sum "Si O2"
_cell_formula_units_Z 60
_cell_length_a 11.843073
_cell_length_b 19.845723
_cell_length_c 11.290218
_cell_angle_alpha 90.000000
_cell_angle_beta 90.000000
_cell_angle_gamma 90.000000
_cell_volume 2653.589006
_symmetry_space_group_name_H-M "I B A 2"
_symmetry_group_IT_number 45
_symmetry_cell_setting 'orthorhombic'
loop_
_space_group_symop_operation_xyz
x,y,z
-x,-y,z
-x,y,1/2+z
x,-y,1/2+z
1/2+x,1/2+y,1/2+z
1/2-x,1/2-y,1/2+z
1/2-x,1/2+y,z
1/2+x,1/2-y,z
loop_
_atom_site_type_symbol
_atom_site_label
_atom_site_fract_x
_atom_site_fract_y
_atom_site_fract_z
Si Si1 0.188896 0.747206 0.134180
Si Si2 0.312153 0.661922 0.960789
Si Si3 0.087000 0.618145 0.267577
Si Si4 0.446180 0.359539 0.007860
Si Si5 0.174295 0.644327 0.736566
Si Si6 0.500000 0.500000 0.140929
Si Si7 0.274772 0.917285 0.982794
Si Si8 0.234838 0.958138 0.626528
O O1 0.133444 0.686822 0.207890
O O2 0.096590 0.804919 0.104189
O O3 0.293776 0.778305 0.206857
O O4 0.240242 0.725192 0.006977
O O5 0.252792 0.629594 0.848169
O O6 0.445402 0.670655 0.941772
O O7 0.300847 0.613356 0.073537
O O8 0.122840 0.606049 0.402659
O O9 0.152159 0.556637 0.200641
O O10 0.953368 0.623965 0.259221
O O11 0.478290 0.431989 0.065329
O O12 0.336688 0.380707 0.931857
O O13 0.210152 0.607818 0.616735
O O14 0.624519 0.486738 0.196569
O O15 0.257724 0.995686 0.010793
#
# Coordination Sequence:
#
# PCOD9377072 Si02
#       8
#     8   8   8   8   8   4   8   8
#     4  10  23  42  68 100 137 184 238 291 363 426
#     4  10  22  42  68  97 132 184 232 289 358 419
#     4  11  25  44  68 100 140 186 233 294 360 434
#     4   9  19  42  69  98 137 175 235 296 349 424
#     4  11  26  42  66 100 140 179 233 292 351 434
#     4   8  16  40  72  98 134 172 236 294 340 418
#     4  10  24  45  66 100 136 178 237 294 354 421
#     4   9  21  43  67  99 131 181 234 287 358 415
#
# _framework density 22.610887000000002
#
# number of rings (size 3 to 8) (size 9 to 14) (size 15 to 20)
#    0.000    2.133    0.000    0.800    9.333    1.600 
#   16.800    0.667    0.000    0.000    0.000    0.000 
#    0.000    0.000    0.000    0.000    0.000    0.000 
#
# Total GULP energy -167208.306290 kJ/mol
# GULP energy per Si atom -5573.610210 kJ/mol
# Density = 2.255942 g / cm^3
# Si number density = 22.610887 Si / 1000 Ang^3
#
#
#
# Elastic Constant Matrix: (Units=GPa)
#
#
# Indices 1 2 3 4 5 6 
#
# 1 185.4800 29.4139 47.7569 0.0000 0.0000 0.0000
# 2 29.4139 82.4590 10.2418 0.0000 0.0000 0.0000
# 3 47.7569 10.2418 67.4060 -0.0001 0.0000 0.0000
# 4 0.0000 0.0000 -0.0001 10.4772 0.0000 0.0000
# 5 0.0000 0.0000 0.0000 0.0000 2.1594 0.0000
# 6 0.0000 0.0000 0.0000 0.0000 0.0000 29.5423
#
#
#
# Elastic Compliance Matrix: (Units=1/GPa)
#
#
# Indices 1 2 3 4 5 6 
#
# 1 0.006869 -0.001881 -0.004581 0.000000 0.000000 0.000000
# 2 -0.001881 0.012876 -0.000623 0.000000 0.000000 0.000000
# 3 -0.004581 -0.000623 0.018176 0.000000 0.000000 0.000000
# 4 0.000000 0.000000 0.000000 0.095445 0.000001 0.000000
# 5 0.000000 0.000000 0.000000 0.000001 0.463091 0.000001
# 6 0.000000 0.000000 0.000000 0.000000 0.000001 0.033850
#
#
# Mechanical properties :
#
#
# Convention : Reuss Voigt Hill
#
# Bulk Modulus (GPa) = 42.10651 56.68556 49.39604
# Shear Modulus (GPa) = 7.66408 24.96462 16.31435
#
# Velocity S-wave (km/s) = 1.84307 3.32640 2.68904
# Velocity P-wave (km/s) = 4.81579 6.31488 5.61558
#
# Compressibility (1/GPa) = 0.02374930
#
# Stress axis : x y z
#
# Youngs Moduli (GPa) = 145.57597 77.66531 55.01814
#
# Poissons Ratio (x) = 0.14612 0.25204
# Poissons Ratio (y) = 0.27388 0.03430
# Poissons Ratio (z) = 0.66688 0.04842
#
# Static dielectric constant tensor:
#      x y z
#    x 1.923510 0.000000 0.000000 
#    y 0.000000 1.968370 0.000000 
#    z 0.000000 0.000000 1.821340 
# 
# From -- ./inp_files/3821.got.cif
#   From: 2010.05.17/outbox.cif.g08.bks.cpg/sg45_2_cif.got.tgz:3821.got - 2010.06.03 19:51:22.
