data_PCOD9377376
_publ_section_title
;
Structure prediction by ZEFSAII (Michael W. Deem and Ramdas Pophale) SiO2 
 PCOD9377376
Probable space group: I B A 2
;
_chemical_formula_sum "Si O2"
_cell_formula_units_Z 32
_cell_length_a 9.341257
_cell_length_b 13.869510
_cell_length_c 9.202522
_cell_angle_alpha 90.000000
_cell_angle_beta 90.000000
_cell_angle_gamma 90.000000
_cell_volume 1192.266395
_symmetry_space_group_name_H-M "I B A 2"
_symmetry_group_IT_number 45
_symmetry_cell_setting 'orthorhombic'
loop_
_space_group_symop_operation_xyz
x,y,z
-x,-y,z
-x,y,1/2+z
x,-y,1/2+z
1/2+x,1/2+y,1/2+z
1/2-x,1/2-y,1/2+z
1/2-x,1/2+y,z
1/2+x,1/2-y,z
loop_
_atom_site_type_symbol
_atom_site_label
_atom_site_fract_x
_atom_site_fract_y
_atom_site_fract_z
Si Si1 0.079003 0.590023 0.110650
Si Si2 0.473694 0.271170 0.730183
Si Si3 0.646255 0.459171 0.294198
Si Si4 0.819776 0.846327 0.942237
O O1 0.206769 0.545859 0.207057
O O2 0.000000 0.500000 0.040109
O O3 0.976018 0.656606 0.207942
O O4 0.157419 0.661188 0.997952
O O5 0.387148 0.347923 0.831490
O O6 0.416939 0.308507 0.574121
O O7 0.633205 0.295144 0.792857
O O8 0.500000 0.500000 0.218593
O O9 0.662705 0.538938 0.417895
#
# Coordination Sequence:
#
# PCOD9377376 Si02
#       4
#     8   8   8   8
#     4  11  26  46  74 114 156 196 248 314 379 447
#     4  10  24  46  75 109 147 194 249 306 371 442
#     4   9  22  44  73 102 143 194 245 298 366 441
#     4  10  24  46  76 109 148 198 252 310 376 450
#
# _framework density 26.839639999999999
#
# number of rings (size 3 to 8) (size 9 to 14) (size 15 to 20)
#    0.000    2.000    0.000    0.000    0.000   43.000 
#    0.000    0.000    0.000    0.000    0.000    1.750 
#    0.000    0.000    0.000    0.000    0.000    0.000 
#
# Total GULP energy -89243.269803 kJ/mol
# GULP energy per Si atom -5577.704363 kJ/mol
# Density = 2.677855 g / cm^3
# Si number density = 26.839640 Si / 1000 Ang^3
#
#
#
# Elastic Constant Matrix: (Units=GPa)
#
#
# Indices 1 2 3 4 5 6 
#
# 1 74.4138 46.5198 28.9357 0.0000 0.0000 0.0000
# 2 46.5198 170.3483 38.6117 0.0000 0.0000 0.0000
# 3 28.9357 38.6117 94.0040 0.0001 0.0000 0.0000
# 4 0.0000 0.0000 0.0001 34.7840 0.0000 0.0000
# 5 0.0000 0.0000 0.0000 0.0000 56.7838 0.0000
# 6 0.0000 0.0000 0.0000 0.0000 0.0000 52.0682
#
#
#
# Elastic Compliance Matrix: (Units=1/GPa)
#
#
# Indices 1 2 3 4 5 6 
#
# 1 0.017318 -0.003883 -0.003736 0.000000 0.000000 0.000000
# 2 -0.003883 0.007343 -0.001821 0.000000 0.000000 0.000000
# 3 -0.003736 -0.001821 0.012536 0.000000 0.000000 0.000000
# 4 0.000000 0.000000 0.000000 0.028749 0.000000 0.000000
# 5 0.000000 0.000000 0.000000 0.000000 0.017611 0.000000
# 6 0.000000 0.000000 0.000000 0.000000 0.000000 0.019206
#
#
# Mechanical properties :
#
#
# Convention : Reuss Voigt Hill
#
# Bulk Modulus (GPa) = 54.59107 62.98893 58.79000
# Shear Modulus (GPa) = 39.13947 43.70712 41.42329
#
# Velocity S-wave (km/s) = 3.82287 4.03979 3.93283
# Velocity P-wave (km/s) = 6.31425 6.72900 6.52492
#
# Compressibility (1/GPa) = 0.01831801
#
# Stress axis : x y z
#
# Youngs Moduli (GPa) = 57.74237 136.17689 79.77095
#
# Poissons Ratio (x) = 0.52871 0.29803
# Poissons Ratio (y) = 0.22419 0.14528
# Poissons Ratio (z) = 0.21573 0.24800
#
# Static dielectric constant tensor:
#      x y z
#    x 2.241620 0.000000 0.000000 
#    y 0.000000 2.041850 0.000000 
#    z 0.000000 0.000000 2.203950 
# 
# From -- ./inp_files/3046.got.cif
#   From: 2010.05.17/outbox.cif.g08.bks.cpg/sg45_2_cif.got.tgz:3046.got - 2010.06.03 19:51:22.
