data_PCOD9377836
_publ_section_title
;
Structure prediction by ZEFSAII (Michael W. Deem and Ramdas Pophale) SiO2 
 PCOD9377836
Probable space group: I M A 2
;
_chemical_formula_sum "Si O2"
_cell_formula_units_Z 56
_cell_length_a 8.560234
_cell_length_b 14.043256
_cell_length_c 30.408164
_cell_angle_alpha 90.000000
_cell_angle_beta 90.000000
_cell_angle_gamma 90.000000
_cell_volume 3655.473571
_symmetry_space_group_name_H-M "I M A 2"
_symmetry_group_IT_number 46
_symmetry_cell_setting 'orthorhombic'
loop_
_space_group_symop_operation_xyz
x,y,z
-x,-y,z
1/2-x,y,z
1/2+x,-y,z
1/2+x,1/2+y,1/2+z
1/2-x,1/2-y,1/2+z
-x,1/2+y,1/2+z
x,1/2-y,1/2+z
loop_
_atom_site_type_symbol
_atom_site_label
_atom_site_fract_x
_atom_site_fract_y
_atom_site_fract_z
Si Si1 0.937789 0.209573 0.508690
Si Si2 0.060299 0.292900 0.374791
Si Si3 0.062384 0.395611 0.923237
Si Si4 0.437360 0.104700 0.964203
Si Si5 0.061487 0.607823 0.097391
Si Si6 0.437276 0.608288 0.194056
Si Si7 0.562446 0.608174 0.285723
O O1 0.750000 0.209935 0.507232
O O2 0.989733 0.171101 0.556207
O O3 0.000192 0.139669 0.470537
O O4 0.999960 0.314158 0.496818
O O5 0.250000 0.293589 0.373990
O O6 0.012561 0.186377 0.388691
O O7 0.012502 0.361605 0.415084
O O8 0.007085 0.331701 0.327840
O O9 0.250000 0.396927 0.924860
O O10 0.000000 0.500000 0.912925
O O11 0.250000 0.105152 0.965392
O O12 0.500000 0.000000 0.973622
O O13 0.250000 0.603187 0.096615
O O14 0.016773 0.646754 0.145865
O O15 0.000000 0.500000 0.092696
O O16 0.500000 0.500000 0.193434
O O17 0.250000 0.607600 0.197290
O O18 0.505831 0.649948 0.239016
O O19 0.500000 0.500000 0.289765
O O20 0.750000 0.604401 0.285547
#
# Coordination Sequence:
#
# PCOD9377836 Si02
#       7
#     8   8   8   8   8   8   8
#     4  10  19  31  46  66  88 116 149 181 216 257
#     4   8  17  30  44  62  87 115 145 176 212 253
#     4  10  19  32  46  64  89 117 146 181 218 257
#     4  10  19  32  47  65  89 118 147 181 217 255
#     4   9  18  29  43  62  88 117 145 176 214 255
#     4   9  16  27  40  59  85 113 141 173 210 253
#     4  10  17  27  42  62  86 114 142 174 211 252
#
# _framework density 15.319490999999999
#
# number of rings (size 3 to 8) (size 9 to 14) (size 15 to 20)
#    0.000    2.571    0.000    4.714    0.000    2.857 
#    0.000    7.857    0.000    0.000    0.000    1.000 
#    0.000    4.571    0.000    0.000    0.000    0.000 
#
# Total GULP energy -156011.131389 kJ/mol
# GULP energy per Si atom -5571.826121 kJ/mol
# Density = 1.528462 g / cm^3
# Si number density = 15.319491 Si / 1000 Ang^3
#
#
#
# Elastic Constant Matrix: (Units=GPa)
#
#
# Indices 1 2 3 4 5 6 
#
# 1 43.4457 22.4183 31.5507 0.0000 0.0000 0.0000
# 2 22.4183 94.1711 67.4149 0.0000 0.0000 0.0000
# 3 31.5507 67.4149 163.1656 0.0000 0.0000 0.0000
# 4 0.0000 0.0000 0.0000 23.5356 0.0000 0.0000
# 5 0.0000 0.0000 0.0000 0.0000 19.5902 0.0000
# 6 0.0000 0.0000 0.0000 0.0000 0.0000 21.4659
#
#
#
# Elastic Compliance Matrix: (Units=1/GPa)
#
#
# Indices 1 2 3 4 5 6 
#
# 1 0.027764 -0.003928 -0.003746 0.000000 0.000000 0.000000
# 2 -0.003928 0.015635 -0.005700 0.000000 0.000000 0.000000
# 3 -0.003746 -0.005700 0.009208 0.000000 0.000000 0.000000
# 4 0.000000 0.000000 0.000000 0.042489 0.000000 0.000000
# 5 0.000000 0.000000 0.000000 0.000000 0.051046 0.000000
# 6 0.000000 0.000000 0.000000 0.000000 0.000000 0.046586
#
#
# Mechanical properties :
#
#
# Convention : Reuss Voigt Hill
#
# Bulk Modulus (GPa) = 38.67097 60.39448 49.53273
# Shear Modulus (GPa) = 21.92064 24.87822 23.39943
#
# Velocity S-wave (km/s) = 3.78683 4.03421 3.91247
# Velocity P-wave (km/s) = 6.66467 7.82360 7.26727
#
# Compressibility (1/GPa) = 0.02585919
#
# Stress axis : x y z
#
# Youngs Moduli (GPa) = 36.01746 63.96007 108.59895
#
# Poissons Ratio (x) = 0.25124 0.40678
# Poissons Ratio (y) = 0.14148 0.61904
# Poissons Ratio (z) = 0.13491 0.36459
#
# Static dielectric constant tensor:
#      x y z
#    x 1.521290 0.000000 0.000000 
#    y 0.000000 1.477510 0.000000 
#    z 0.000000 0.000000 1.542190 
# 
# From -- ./inp_files/25227.got.cif
#   From: 2010.05.17/outbox.cif.g08.bks.cpg/sg46_13_cif.got.tgz:25227.got - 2010.06.03 19:58:25.
