data_PCOD9377976
_publ_section_title
;
Structure prediction by ZEFSAII (Michael W. Deem and Ramdas Pophale) SiO2 
 PCOD9377976
Probable space group: I M A 2
;
_chemical_formula_sum "Si O2"
_cell_formula_units_Z 64
_cell_length_a 8.900584
_cell_length_b 18.711369
_cell_length_c 26.858997
_cell_angle_alpha 90.000000
_cell_angle_beta 90.000000
_cell_angle_gamma 90.000000
_cell_volume 4473.154074
_symmetry_space_group_name_H-M "I M A 2"
_symmetry_group_IT_number 46
_symmetry_cell_setting 'orthorhombic'
loop_
_space_group_symop_operation_xyz
x,y,z
-x,-y,z
1/2-x,y,z
1/2+x,-y,z
1/2+x,1/2+y,1/2+z
1/2-x,1/2-y,1/2+z
-x,1/2+y,1/2+z
x,1/2-y,1/2+z
loop_
_atom_site_type_symbol
_atom_site_label
_atom_site_fract_x
_atom_site_fract_y
_atom_site_fract_z
Si Si1 0.575939 0.705429 0.667470
Si Si2 0.070308 0.833865 0.721081
Si Si3 0.069545 0.078174 0.809846
Si Si4 0.422340 0.296908 0.064732
Si Si5 0.931231 0.077437 0.916959
Si Si6 0.071562 0.922140 0.620193
Si Si7 0.569794 0.078348 0.111855
Si Si8 0.429556 0.668719 0.513354
O O1 0.750000 0.694969 0.681236
O O2 0.489986 0.755462 0.706630
O O3 0.572911 0.750689 0.615895
O O4 0.495534 0.631375 0.653830
O O5 0.250000 0.832940 0.728143
O O6 0.036816 0.884958 0.673489
O O7 0.987479 0.866822 0.768480
O O8 0.250000 0.073707 0.810987
O O9 0.004122 0.097602 0.864138
O O10 0.000000 0.000000 0.798009
O O11 0.250000 0.312796 0.053096
O O12 0.510024 0.369005 0.077815
O O13 0.493908 0.244483 0.024120
O O14 0.750000 0.071763 0.912223
O O15 0.967236 0.132597 0.960914
O O16 0.000000 0.000000 0.930027
O O17 0.250000 0.927395 0.616332
O O18 0.000000 0.000000 0.617733
O O19 0.750000 0.075203 0.115192
O O20 0.530095 0.114512 0.058454
O O21 0.500000 0.000000 0.115093
O O22 0.250000 0.678309 0.515824
#
# Coordination Sequence:
#
# PCOD9377976 Si02
#       8
#     8   8   8   8   8   8   8   8
#     4   9  17  29  43  61  84 111 142 176 212 253
#     4  10  19  31  46  63  84 113 145 178 215 256
#     4  11  21  32  45  62  85 113 145 182 218 254
#     4   9  17  28  43  61  83 110 141 175 211 251
#     4  10  19  31  45  62  85 113 145 182 218 253
#     4  10  19  29  43  62  86 113 143 176 211 252
#     4  10  18  28  42  62  87 115 146 179 214 254
#     4   9  18  30  44  61  84 114 146 178 215 255
#
# _framework density 14.307577
#
# number of rings (size 3 to 8) (size 9 to 14) (size 15 to 20)
#    0.000    2.250    0.000    4.875    0.000    7.000 
#    0.000    0.000    0.000    0.000    0.000    0.000 
#    0.000    1.000    0.000    5.500    0.000    5.875 
#
# Total GULP energy -178458.839674 kJ/mol
# GULP energy per Si atom -5576.838740 kJ/mol
# Density = 1.427501 g / cm^3
# Si number density = 14.307577 Si / 1000 Ang^3
#
#
#
# Elastic Constant Matrix: (Units=GPa)
#
#
# Indices 1 2 3 4 5 6 
#
# 1 83.0627 58.5073 46.8999 0.0000 0.0000 0.0000
# 2 58.5073 108.7724 49.1548 0.0000 0.0000 0.0000
# 3 46.8999 49.1548 74.8099 0.0000 0.0000 0.0000
# 4 0.0000 0.0000 0.0000 26.2269 0.0000 0.0000
# 5 0.0000 0.0000 0.0000 0.0000 20.1028 0.0000
# 6 0.0000 0.0000 0.0000 0.0000 0.0000 29.5419
#
#
#
# Elastic Compliance Matrix: (Units=1/GPa)
#
#
# Indices 1 2 3 4 5 6 
#
# 1 0.022918 -0.008299 -0.008915 0.000000 0.000000 0.000000
# 2 -0.008299 0.016081 -0.005364 0.000000 0.000000 0.000000
# 3 -0.008915 -0.005364 0.022481 0.000000 0.000000 0.000000
# 4 0.000000 0.000000 0.000000 0.038129 0.000000 0.000000
# 5 0.000000 0.000000 0.000000 0.000000 0.049744 0.000000
# 6 0.000000 0.000000 0.000000 0.000000 0.000000 0.033850
#
#
# Mechanical properties :
#
#
# Convention : Reuss Voigt Hill
#
# Bulk Modulus (GPa) = 61.25611 63.97435 62.61523
# Shear Modulus (GPa) = 21.38579 22.64653 22.01616
#
# Velocity S-wave (km/s) = 3.87035 3.98280 3.92698
# Velocity P-wave (km/s) = 7.92966 8.12164 8.02622
#
# Compressibility (1/GPa) = 0.01632490
#
# Stress axis : x y z
#
# Youngs Moduli (GPa) = 43.63329 62.18460 44.48259
#
# Poissons Ratio (x) = 0.51605 0.39657
# Poissons Ratio (y) = 0.36210 0.23859
# Poissons Ratio (z) = 0.38900 0.33354
#
# Static dielectric constant tensor:
#      x y z
#    x 1.477550 0.000000 0.000000 
#    y 0.000000 1.454390 0.000000 
#    z 0.000000 0.000000 1.457650 
# 
# From -- ./inp_files/23290.got.cif
#   From: 2010.05.17/outbox.cif.g08.bks.cpg/sg46_12_cif.got.tgz:23290.got - 2010.06.03 19:58:25.
