data_PCOD9377730
_publ_section_title
;
Structure prediction by ZEFSAII (Michael W. Deem and Ramdas Pophale) SiO2 
 PCOD9377730
Probable space group: I B A 2
;
_chemical_formula_sum "Si O2"
_cell_formula_units_Z 24
_cell_length_a 7.209704
_cell_length_b 13.905766
_cell_length_c 9.871680
_cell_angle_alpha 90.000000
_cell_angle_beta 90.000000
_cell_angle_gamma 90.000000
_cell_volume 989.699659
_symmetry_space_group_name_H-M "I B A 2"
_symmetry_group_IT_number 45
_symmetry_cell_setting 'orthorhombic'
loop_
_space_group_symop_operation_xyz
x,y,z
-x,-y,z
-x,y,1/2+z
x,-y,1/2+z
1/2+x,1/2+y,1/2+z
1/2-x,1/2-y,1/2+z
1/2-x,1/2+y,z
1/2+x,1/2-y,z
loop_
_atom_site_type_symbol
_atom_site_label
_atom_site_fract_x
_atom_site_fract_y
_atom_site_fract_z
Si Si1 0.854865 0.192434 0.500000
Si Si2 0.612568 0.598053 0.211901
Si Si3 0.462763 0.105096 0.533393
O O1 0.894182 0.133095 0.364887
O O2 0.664726 0.149138 0.558043
O O3 0.860657 0.305343 0.458839
O O4 0.005685 0.172264 0.615062
O O5 0.500000 0.500000 0.196771
O O6 0.824062 0.588184 0.159579
O O7 0.500000 0.000000 0.469260
#
# Coordination Sequence:
#
# PCOD9377730 Si02
#       3
#     8   8   8
#     4  12  29  50  81 120 170 214 274 343 406 489
#     4  12  28  53  83 119 169 214 276 338 414 490
#     4  12  28  51  81 123 161 219 273 336 412 486
#
# _framework density 24.249782
#
# number of rings (size 3 to 8) (size 9 to 14) (size 15 to 20)
#    0.000    0.000    6.667    1.000    4.667    4.000 
#    0.000    0.000    0.000    0.000    0.000    0.000 
#    0.000    0.000    0.000    0.000    0.000    0.000 
#
# Total GULP energy -67090.371791 kJ/mol
# GULP energy per Si atom -5590.864316 kJ/mol
# Density = 2.419459 g / cm^3
# Si number density = 24.249782 Si / 1000 Ang^3
#
#
#
# Elastic Constant Matrix: (Units=GPa)
#
#
# Indices 1 2 3 4 5 6 
#
# 1 172.2373 40.2551 42.1882 0.0001 0.0000 0.0000
# 2 40.2551 201.4803 9.7198 0.0003 -0.0001 0.0001
# 3 42.1882 9.7198 95.6343 0.0004 0.0000 0.0002
# 4 0.0001 0.0003 0.0004 25.3066 -0.0001 0.0002
# 5 0.0000 -0.0001 0.0000 -0.0001 -0.1410 -0.0001
# 6 0.0000 0.0001 0.0002 0.0002 -0.0001 46.3909
#
#
#
# Elastic Compliance Matrix: (Units=1/GPa)
#
#
# Indices 1 2 3 4 5 6 
#
# 1 0.006795 -0.001219 -0.002874 0.000000 0.000000 0.000000
# 2 -0.001219 0.005206 0.000009 0.000000 -0.000005 0.000000
# 3 -0.002874 0.000009 0.011723 0.000000 0.000001 0.000000
# 4 0.000000 0.000000 0.000000 0.039515 -0.000021 0.000000
# 5 0.000000 -0.000005 0.000001 -0.000021 -7.091209 -0.000012
# 6 0.000000 0.000000 0.000000 0.000000 -0.000012 0.021556
#
#
# Mechanical properties :
#
#
# Convention : Reuss Voigt Hill
#
# Bulk Modulus (GPa) = 64.28159 72.63090 68.45624
# Shear Modulus (GPa) = -0.71499 39.45721 19.37111
#
# Velocity S-wave (km/s) = -0.54359 4.03813 2.82940
# Velocity P-wave (km/s) = 5.11583 7.19431 6.24219
#
# Compressibility (1/GPa) = 0.01555655
#
# Stress axis : x y z
#
# Youngs Moduli (GPa) = 147.17392 192.07166 85.30047
#
# Poissons Ratio (x) = 0.23412 0.24511
# Poissons Ratio (y) = 0.17939 -0.00073
# Poissons Ratio (z) = 0.42291 -0.00165
#
# Static dielectric constant tensor:
#      x y z
#    x 1.978660 0.000000 0.000000 
#    y 0.000000 1.976390 0.000000 
#    z 0.000000 0.000000 1.832640 
# 
# From -- ./inp_files/835.got.cif
#   From: 2010.05.17/outbox.cif.g08.bks.cpg/sg45_1_cif.got.tgz:835.got - 2010.06.03 19:51:22.
