data_PCOD9377141
_publ_section_title
;
Structure prediction by ZEFSAII (Michael W. Deem and Ramdas Pophale) SiO2 
 PCOD9377141
Probable space group: I B A 2
;
_chemical_formula_sum "Si O2"
_cell_formula_units_Z 44
_cell_length_a 9.066689
_cell_length_b 22.056378
_cell_length_c 10.314332
_cell_angle_alpha 90.000000
_cell_angle_beta 90.000000
_cell_angle_gamma 90.000000
_cell_volume 2062.642783
_symmetry_space_group_name_H-M "I B A 2"
_symmetry_group_IT_number 45
_symmetry_cell_setting 'orthorhombic'
loop_
_space_group_symop_operation_xyz
x,y,z
-x,-y,z
-x,y,1/2+z
x,-y,1/2+z
1/2+x,1/2+y,1/2+z
1/2-x,1/2-y,1/2+z
1/2-x,1/2+y,z
1/2+x,1/2-y,z
loop_
_atom_site_type_symbol
_atom_site_label
_atom_site_fract_x
_atom_site_fract_y
_atom_site_fract_z
Si Si1 0.157392 0.798735 0.221020
Si Si2 0.000000 0.500000 0.301555
Si Si3 0.485985 0.652687 0.971765
Si Si4 0.278578 0.834686 0.659388
Si Si5 0.908936 0.619606 0.148585
Si Si6 0.758029 0.076140 0.899251
O O1 0.043223 0.811225 0.337863
O O2 0.231741 0.733013 0.215357
O O3 0.288915 0.846996 0.236167
O O4 0.081625 0.812023 0.081245
O O5 0.039435 0.442319 0.214450
O O6 0.155013 0.516680 0.375071
O O7 0.571147 0.588512 0.943557
O O8 0.328348 0.649243 0.041740
O O9 0.449144 0.840088 0.623053
O O10 0.249158 0.884139 0.769839
O O11 0.833386 0.607438 0.012563
#
# Coordination Sequence:
#
# PCOD9377141 Si02
#       6
#     8   4   8   8   8   8
#     4  11  25  41  67 102 145 189 234 295 364 435
#     4  10  22  46  74  96 128 180 252 296 364 434
#     4  11  24  43  65 100 150 182 240 294 357 422
#     4  11  24  39  68 102 143 189 231 287 366 444
#     4  10  24  42  71  99 133 188 236 295 358 438
#     4  10  23  45  69 100 137 184 241 299 357 429
#
# _framework density 21.331856999999999
#
# number of rings (size 3 to 8) (size 9 to 14) (size 15 to 20)
#    0.000    1.455    1.818    1.636   12.727    0.000 
#    0.000    0.909    8.000    0.000    0.000    0.000 
#    0.000    0.000    0.000    0.000    0.000    0.000 
#
# Total GULP energy -122614.619150 kJ/mol
# GULP energy per Si atom -5573.391780 kJ/mol
# Density = 2.128330 g / cm^3
# Si number density = 21.331857 Si / 1000 Ang^3
#
#
#
# Elastic Constant Matrix: (Units=GPa)
#
#
# Indices 1 2 3 4 5 6 
#
# 1 118.4381 35.6696 51.4342 -0.0004 -0.0004 0.0000
# 2 35.6696 79.7931 28.9142 -0.0005 -0.0001 0.0000
# 3 51.4342 28.9142 83.5280 -0.0023 -0.0027 0.0000
# 4 -0.0004 -0.0005 -0.0023 1.0707 -0.0015 0.0000
# 5 -0.0004 -0.0001 -0.0027 -0.0015 4.5918 -0.0002
# 6 0.0000 0.0000 0.0000 0.0000 -0.0002 33.6800
#
#
#
# Elastic Compliance Matrix: (Units=1/GPa)
#
#
# Indices 1 2 3 4 5 6 
#
# 1 0.012167 -0.003115 -0.006414 -0.000011 -0.000003 0.000000
# 2 -0.003115 0.015127 -0.003319 -0.000002 -0.000002 0.000000
# 3 -0.006414 -0.003319 0.017070 0.000034 0.000009 0.000000
# 4 -0.000011 -0.000002 0.000034 0.933962 0.000295 0.000000
# 5 -0.000003 -0.000002 0.000009 0.000295 0.217778 0.000001
# 6 0.000000 0.000000 0.000000 0.000000 0.000001 0.029691
#
#
# Mechanical properties :
#
#
# Convention : Reuss Voigt Hill
#
# Bulk Modulus (GPa) = 53.56126 57.08835 55.32480
# Shear Modulus (GPa) = 3.97547 18.91791 11.44669
#
# Velocity S-wave (km/s) = 1.36663 2.98121 2.31898
# Velocity P-wave (km/s) = 5.25864 6.21854 5.75863
#
# Compressibility (1/GPa) = 0.01867021
#
# Stress axis : x y z
#
# Youngs Moduli (GPa) = 82.19278 66.10569 58.58196
#
# Poissons Ratio (x) = 0.20590 0.37572
# Poissons Ratio (y) = 0.25601 0.19441
# Poissons Ratio (z) = 0.52715 0.21937
#
# Static dielectric constant tensor:
#      x y z
#    x 1.853300 0.000000 0.000000 
#    y 0.000000 1.958210 0.000000 
#    z 0.000000 0.000000 1.759010 
# 
# From -- ./inp_files/3238.got.cif
#   From: 2010.05.17/outbox.cif.g08.bks.cpg/sg45_2_cif.got.tgz:3238.got - 2010.06.03 19:51:22.
