data_PCOD9377653
_publ_section_title
;
Structure prediction by ZEFSAII (Michael W. Deem and Ramdas Pophale) SiO2 
 PCOD9377653
Probable space group: I B A 2
;
_chemical_formula_sum "Si O2"
_cell_formula_units_Z 44
_cell_length_a 9.509824
_cell_length_b 16.198286
_cell_length_c 14.294009
_cell_angle_alpha 90.000000
_cell_angle_beta 90.000000
_cell_angle_gamma 90.000000
_cell_volume 2201.889869
_symmetry_space_group_name_H-M "I B A 2"
_symmetry_group_IT_number 45
_symmetry_cell_setting 'orthorhombic'
loop_
_space_group_symop_operation_xyz
x,y,z
-x,-y,z
-x,y,1/2+z
x,-y,1/2+z
1/2+x,1/2+y,1/2+z
1/2-x,1/2-y,1/2+z
1/2-x,1/2+y,z
1/2+x,1/2-y,z
loop_
_atom_site_type_symbol
_atom_site_label
_atom_site_fract_x
_atom_site_fract_y
_atom_site_fract_z
Si Si1 0.430078 0.253776 0.386330
Si Si2 0.155794 0.489794 0.810997
Si Si3 0.828269 0.349708 0.562081
Si Si4 0.821803 0.322114 0.775106
Si Si5 0.500000 0.000000 0.132396
Si Si6 0.402686 0.418556 0.937700
O O1 0.388048 0.211551 0.483883
O O2 0.291330 0.266999 0.326492
O O3 0.532198 0.196725 0.325777
O O4 0.504623 0.342085 0.401820
O O5 0.212332 0.582105 0.794098
O O6 0.112759 0.460542 0.706078
O O7 0.272543 0.440275 0.867575
O O8 0.000000 0.500000 0.857545
O O9 0.823671 0.309075 0.664307
O O10 0.677432 0.385383 0.529990
O O11 0.929305 0.428632 0.573711
O O12 0.500000 0.500000 0.949999
#
# Coordination Sequence:
#
# PCOD9377653 Si02
#       6
#     8   8   8   8   4   8
#     4  12  26  45  72 103 144 186 228 298 355 420
#     4   9  20  44  70 100 130 183 232 284 355 410
#     4  11  26  46  70 106 141 184 241 284 360 427
#     4  11  25  46  69 101 143 184 231 293 357 417
#     4   8  22  42  76 104 128 192 238 292 342 432
#     4  12  25  45  71 105 140 185 238 295 348 422
#
# _framework density 19.982835000000001
#
# number of rings (size 3 to 8) (size 9 to 14) (size 15 to 20)
#    0.545    0.727    3.636    1.091    6.364    0.000 
#    6.545    0.000    0.000    0.000    0.000    0.000 
#    0.000    0.000    0.000    0.000    0.000    0.000 
#
# Total GULP energy -122812.476316 kJ/mol
# GULP energy per Si atom -5582.385287 kJ/mol
# Density = 1.993735 g / cm^3
# Si number density = 19.982835 Si / 1000 Ang^3
#
#
#
# Elastic Constant Matrix: (Units=GPa)
#
#
# Indices 1 2 3 4 5 6 
#
# 1 103.1327 33.9905 57.5407 0.0000 0.0000 0.0000
# 2 33.9905 81.9920 52.0775 0.0000 0.0000 0.0000
# 3 57.5407 52.0775 156.7192 0.0000 -0.0001 0.0000
# 4 0.0000 0.0000 0.0000 35.6412 0.0000 0.0000
# 5 0.0000 0.0000 -0.0001 0.0000 -13.5384 0.0000
# 6 0.0000 0.0000 0.0000 0.0000 0.0000 31.5972
#
#
#
# Elastic Compliance Matrix: (Units=1/GPa)
#
#
# Indices 1 2 3 4 5 6 
#
# 1 0.012725 -0.002925 -0.003700 0.000000 0.000000 0.000000
# 2 -0.002925 0.016132 -0.004287 0.000000 0.000000 0.000000
# 3 -0.003700 -0.004287 0.009164 0.000000 0.000000 0.000000
# 4 0.000000 0.000000 0.000000 0.028057 0.000000 0.000000
# 5 0.000000 0.000000 0.000000 0.000000 -0.073864 0.000000
# 6 0.000000 0.000000 0.000000 0.000000 0.000000 0.031648
#
#
# Mechanical properties :
#
#
# Convention : Reuss Voigt Hill
#
# Bulk Modulus (GPa) = 61.74069 69.89571 65.81820
# Shear Modulus (GPa) = 97.87870 23.95568 60.91719
#
# Velocity S-wave (km/s) = 7.00626 3.46614 5.52729
# Velocity P-wave (km/s) = 9.81908 7.14652 8.58740
#
# Compressibility (1/GPa) = 0.01619677
#
# Stress axis : x y z
#
# Youngs Moduli (GPa) = 78.58804 61.99049 109.12627
#
# Poissons Ratio (x) = 0.18133 0.40376
# Poissons Ratio (y) = 0.22987 0.46777
# Poissons Ratio (z) = 0.29077 0.26572
#
# Static dielectric constant tensor:
#      x y z
#    x 2.038140 0.000000 0.000000 
#    y 0.000000 1.714040 0.000000 
#    z 0.000000 0.000000 1.708430 
# 
# From -- ./inp_files/5571.got.cif
#   From: 2010.05.17/outbox.cif.g08.bks.cpg/sg45_3_cif.got.tgz:5571.got - 2010.06.03 19:51:22.
