data_PCOD9377100
_publ_section_title
;
Structure prediction by ZEFSAII (Michael W. Deem and Ramdas Pophale) SiO2 
 PCOD9377100
Probable space group: I B A 2
;
_chemical_formula_sum "Si O2"
_cell_formula_units_Z 48
_cell_length_a 14.395940
_cell_length_b 7.657212
_cell_length_c 16.734285
_cell_angle_alpha 90.000000
_cell_angle_beta 90.000000
_cell_angle_gamma 90.000000
_cell_volume 1844.666498
_symmetry_space_group_name_H-M "I B A 2"
_symmetry_group_IT_number 45
_symmetry_cell_setting 'orthorhombic'
loop_
_space_group_symop_operation_xyz
x,y,z
-x,-y,z
-x,y,1/2+z
x,-y,1/2+z
1/2+x,1/2+y,1/2+z
1/2-x,1/2-y,1/2+z
1/2-x,1/2+y,z
1/2+x,1/2-y,z
loop_
_atom_site_type_symbol
_atom_site_label
_atom_site_fract_x
_atom_site_fract_y
_atom_site_fract_z
Si Si1 0.401003 0.003686 0.233390
Si Si2 0.939744 0.320951 0.973881
Si Si3 0.359141 0.668399 0.633805
Si Si4 0.353103 0.723309 0.111143
Si Si5 0.888454 0.162518 0.424029
Si Si6 0.783177 0.505018 0.374647
O O1 0.407291 0.875593 0.157128
O O2 0.315980 0.936356 0.287038
O O3 0.500000 0.000000 0.277638
O O4 0.384516 0.199226 0.203789
O O5 0.919854 0.220573 0.056340
O O6 0.000000 0.500000 0.984569
O O7 0.841381 0.382570 0.938763
O O8 0.002421 0.198689 0.916026
O O9 0.367070 0.464150 0.652833
O O10 0.252876 0.712000 0.612319
O O11 0.376602 0.687437 0.019206
O O12 0.830445 0.316618 0.382245
O O13 0.825253 0.003094 0.394592
#
# Coordination Sequence:
#
# PCOD9377100 Si02
#       6
#     8   8   8   8   8   8
#     4  12  27  48  73 105 154 199 244 309 383 462
#     4  10  22  43  72 103 139 189 245 309 377 440
#     4  12  24  44  74 109 147 193 254 308 372 452
#     4  12  25  44  76 110 144 197 245 310 374 439
#     4  11  23  44  71 100 138 185 243 304 366 444
#     4  11  25  45  71 103 142 192 239 304 382 448
#
# _framework density 26.020966000000001
#
# number of rings (size 3 to 8) (size 9 to 14) (size 15 to 20)
#    0.000    0.667    3.333    6.000    2.333    2.667 
#    0.000    0.000    3.667    0.000    0.000    0.000 
#    0.000    0.000    0.000    0.000    0.000    0.000 
#
# Total GULP energy -134507.441914 kJ/mol
# GULP energy per Si atom -5604.476746 kJ/mol
# Density = 2.596174 g / cm^3
# Si number density = 26.020966 Si / 1000 Ang^3
#
#
#
# Elastic Constant Matrix: (Units=GPa)
#
#
# Indices 1 2 3 4 5 6 
#
# 1 171.3553 15.5858 16.3244 0.0000 0.0000 0.0000
# 2 15.5858 139.3405 9.2636 0.0000 0.0000 0.0000
# 3 16.3244 9.2636 86.1901 0.0000 0.0000 0.0000
# 4 0.0000 0.0000 0.0000 21.3619 0.0000 0.0000
# 5 0.0000 0.0000 0.0000 0.0000 32.2055 0.0000
# 6 0.0000 0.0000 0.0000 0.0000 0.0000 32.1117
#
#
#
# Elastic Compliance Matrix: (Units=1/GPa)
#
#
# Indices 1 2 3 4 5 6 
#
# 1 0.005992 -0.000599 -0.001071 0.000000 0.000000 0.000000
# 2 -0.000599 0.007288 -0.000670 0.000000 0.000000 0.000000
# 3 -0.001071 -0.000670 0.011877 0.000000 0.000000 0.000000
# 4 0.000000 0.000000 0.000000 0.046812 0.000000 0.000000
# 5 0.000000 0.000000 0.000000 0.000000 0.031051 0.000000
# 6 0.000000 0.000000 0.000000 0.000000 0.000000 0.031141
#
#
# Mechanical properties :
#
#
# Convention : Reuss Voigt Hill
#
# Bulk Modulus (GPa) = 48.83163 53.24816 51.03989
# Shear Modulus (GPa) = 34.32489 40.84996 37.58743
#
# Velocity S-wave (km/s) = 3.63592 3.96648 3.80479
# Velocity P-wave (km/s) = 6.03602 6.44090 6.24174
#
# Compressibility (1/GPa) = 0.02047853
#
# Stress axis : x y z
#
# Youngs Moduli (GPa) = 166.88065 137.20790 84.19617
#
# Poissons Ratio (x) = 0.08220 0.09014
# Poissons Ratio (y) = 0.09998 0.05640
# Poissons Ratio (z) = 0.17865 0.09191
#
# Static dielectric constant tensor:
#      x y z
#    x 2.078190 0.000000 0.000000 
#    y 0.000000 2.122430 0.000000 
#    z 0.000000 0.000000 2.058250 
# 
# From -- ./inp_files/8140.got.cif
#   From: 2010.05.17/outbox.cif.g08.bks.cpg/sg45_5_cif.got.tgz:8140.got - 2010.06.03 19:51:22.
