data_PCOD9377271
_publ_section_title
;
Structure prediction by ZEFSAII (Michael W. Deem and Ramdas Pophale) SiO2 
 PCOD9377271
Probable space group: I B A 2
;
_chemical_formula_sum "Si O2"
_cell_formula_units_Z 56
_cell_length_a 13.869885
_cell_length_b 9.017443
_cell_length_c 19.194396
_cell_angle_alpha 90.000000
_cell_angle_beta 90.000000
_cell_angle_gamma 90.000000
_cell_volume 2400.660333
_symmetry_space_group_name_H-M "I B A 2"
_symmetry_group_IT_number 45
_symmetry_cell_setting 'orthorhombic'
loop_
_space_group_symop_operation_xyz
x,y,z
-x,-y,z
-x,y,1/2+z
x,-y,1/2+z
1/2+x,1/2+y,1/2+z
1/2-x,1/2-y,1/2+z
1/2-x,1/2+y,z
1/2+x,1/2-y,z
loop_
_atom_site_type_symbol
_atom_site_label
_atom_site_fract_x
_atom_site_fract_y
_atom_site_fract_z
Si Si1 0.500000 0.500000 0.461290
Si Si2 0.796954 0.358655 0.014234
Si Si3 0.500000 0.000000 0.396902
Si Si4 0.656860 0.691177 0.628968
Si Si5 0.831973 0.367348 0.299398
Si Si6 0.997338 0.696081 0.535547
Si Si7 0.795651 0.923381 0.421801
Si Si8 0.795111 0.087909 0.211409
O O1 0.508192 0.365022 0.513734
O O2 0.598931 0.496684 0.416853
O O3 0.705094 0.382746 0.061136
O O4 0.895775 0.377817 0.055786
O O5 0.795964 0.195153 0.983526
O O6 0.784763 0.460518 0.946951
O O7 0.420204 0.063259 0.342460
O O8 0.491394 0.128802 0.457052
O O9 0.571306 0.794098 0.599392
O O10 0.738991 0.802328 0.658353
O O11 0.641344 0.547572 0.678793
O O12 0.742389 0.345369 0.352908
O O13 0.847787 0.208557 0.261494
O O14 0.789900 0.494864 0.249064
#
# Coordination Sequence:
#
# PCOD9377271 Si02
#       8
#     4   8   4   8   8   8   8   8
#     4  10  24  38  64 110 138 180 230 288 400 442
#     4  11  22  39  70 104 140 179 221 316 382 430
#     4  12  26  44  72 114 140 182 236 324 398 446
#     4  11  23  47  69  99 145 184 257 288 368 456
#     4  11  24  47  70  99 146 189 257 291 372 456
#     4  11  25  41  69 111 138 180 234 314 391 443
#     4  11  21  40  69 104 143 182 231 311 379 445
#     4  10  26  46  70  94 137 218 239 300 352 444
#
# _framework density 23.326917000000002
#
# number of rings (size 3 to 8) (size 9 to 14) (size 15 to 20)
#    0.000    1.143    2.857    2.571    8.000    0.000 
#    5.143    0.000    3.143    0.000    0.000    0.000 
#    0.000    0.000    0.000    0.000    0.000    0.000 
#
# Total GULP energy -155940.227264 kJ/mol
# GULP energy per Si atom -5569.293831 kJ/mol
# Density = 2.327382 g / cm^3
# Si number density = 23.326917 Si / 1000 Ang^3
#
#
#
# Elastic Constant Matrix: (Units=GPa)
#
#
# Indices 1 2 3 4 5 6 
#
# 1 111.3160 26.3334 21.4501 0.0000 0.0000 0.0000
# 2 26.3334 148.9341 38.3488 0.0000 0.0000 0.0000
# 3 21.4501 38.3488 43.8064 0.0000 0.0000 0.0000
# 4 0.0000 0.0000 0.0000 66.4377 0.0000 0.0000
# 5 0.0000 0.0000 0.0000 0.0000 0.7980 0.0000
# 6 0.0000 0.0000 0.0000 0.0000 0.0000 16.2734
#
#
#
# Elastic Compliance Matrix: (Units=1/GPa)
#
#
# Indices 1 2 3 4 5 6 
#
# 1 0.009968 -0.000653 -0.004310 0.000000 0.000000 0.000000
# 2 -0.000653 0.008711 -0.007306 0.000000 0.000000 0.000000
# 3 -0.004310 -0.007306 0.031334 0.000000 0.000000 0.000000
# 4 0.000000 0.000000 0.000000 0.015052 0.000000 0.000000
# 5 0.000000 0.000000 0.000000 0.000000 1.253199 0.000000
# 6 0.000000 0.000000 0.000000 0.000000 0.000000 0.061450
#
#
# Mechanical properties :
#
#
# Convention : Reuss Voigt Hill
#
# Bulk Modulus (GPa) = 39.25237 52.92456 46.08847
# Shear Modulus (GPa) = 3.53921 31.23009 17.38465
#
# Velocity S-wave (km/s) = 1.23309 3.66293 2.73291
# Velocity P-wave (km/s) = 4.34637 6.37392 5.45517
#
# Compressibility (1/GPa) = 0.02547617
#
# Stress axis : x y z
#
# Youngs Moduli (GPa) = 100.31802 114.79677 31.91445
#
# Poissons Ratio (x) = 0.07495 0.13754
# Poissons Ratio (y) = 0.06550 0.23317
# Poissons Ratio (z) = 0.43232 0.83872
#
# Static dielectric constant tensor:
#      x y z
#    x 1.915430 0.000000 0.000000 
#    y 0.000000 1.959070 0.000000 
#    z 0.000000 0.000000 1.994830 
# 
# From -- ./inp_files/9198.got.cif
#   From: 2010.05.17/outbox.cif.g08.bks.cpg/sg45_5_cif.got.tgz:9198.got - 2010.06.03 19:51:22.
