data_PCOD9377533
_publ_section_title
;
Structure prediction by ZEFSAII (Michael W. Deem and Ramdas Pophale) SiO2 
 PCOD9377533
Probable space group: I B A 2
;
_chemical_formula_sum "Si O2"
_cell_formula_units_Z 52
_cell_length_a 8.034206
_cell_length_b 17.952622
_cell_length_c 17.047757
_cell_angle_alpha 90.000000
_cell_angle_beta 90.000000
_cell_angle_gamma 90.000000
_cell_volume 2458.884312
_symmetry_space_group_name_H-M "I B A 2"
_symmetry_group_IT_number 45
_symmetry_cell_setting 'orthorhombic'
loop_
_space_group_symop_operation_xyz
x,y,z
-x,-y,z
-x,y,1/2+z
x,-y,1/2+z
1/2+x,1/2+y,1/2+z
1/2-x,1/2-y,1/2+z
1/2-x,1/2+y,z
1/2+x,1/2-y,z
loop_
_atom_site_type_symbol
_atom_site_label
_atom_site_fract_x
_atom_site_fract_y
_atom_site_fract_z
Si Si1 0.500000 0.500000 0.737480
Si Si2 0.470429 0.652203 0.316386
Si Si3 0.629057 0.800328 0.239995
Si Si4 0.769996 0.972556 0.097421
Si Si5 0.568687 0.645838 0.495967
Si Si6 0.064726 0.385071 0.124152
Si Si7 0.222777 0.761071 0.069284
O O1 0.453041 0.573452 0.786286
O O2 0.365606 0.464169 0.678911
O O3 0.560090 0.725542 0.280704
O O4 0.276120 0.662531 0.291006
O O5 0.497142 0.648843 0.409239
O O6 0.479730 0.856515 0.212572
O O7 0.703403 0.775568 0.155284
O O8 0.880743 0.935129 0.029631
O O9 0.600395 0.926498 0.097534
O O10 0.712687 0.057740 0.104891
O O11 0.731524 0.698441 0.505933
O O12 0.429332 0.684556 0.550260
O O13 0.114718 0.313235 0.075476
#
# Coordination Sequence:
#
# PCOD9377533 Si02
#       7
#     4   8   8   8   8   8   8
#     4  12  24  44  66 102 132 196 242 296 362 438
#     4  12  27  41  69 102 151 184 236 313 377 431
#     4  12  21  44  67 104 134 190 246 289 353 448
#     4  11  23  42  67 100 133 182 243 296 358 442
#     4  12  24  43  65 107 147 185 237 309 380 424
#     4  11  22  38  73  99 129 174 250 296 334 426
#     4  12  21  41  72  98 133 190 243 294 348 452
#
# _framework density 21.147803
#
# number of rings (size 3 to 8) (size 9 to 14) (size 15 to 20)
#    0.000    0.308    6.154    3.692    0.000    1.846 
#    0.000    0.000    0.000    3.692    0.000    0.000 
#    0.000    0.000    0.000    0.000    0.000    0.000 
#
# Total GULP energy -145002.610100 kJ/mol
# GULP energy per Si atom -5577.023465 kJ/mol
# Density = 2.109967 g / cm^3
# Si number density = 21.147803 Si / 1000 Ang^3
#
#
#
# Elastic Constant Matrix: (Units=GPa)
#
#
# Indices 1 2 3 4 5 6 
#
# 1 74.4498 41.8834 29.2266 0.0000 0.0000 0.0000
# 2 41.8834 139.4253 67.8517 0.0000 0.0000 0.0000
# 3 29.2266 67.8517 109.4076 0.0000 0.0000 0.0000
# 4 0.0000 0.0000 0.0000 27.1071 0.0000 0.0000
# 5 0.0000 0.0000 0.0000 0.0000 40.9714 0.0000
# 6 0.0000 0.0000 0.0000 0.0000 0.0000 49.4020
#
#
#
# Elastic Compliance Matrix: (Units=1/GPa)
#
#
# Indices 1 2 3 4 5 6 
#
# 1 0.016435 -0.004011 -0.001903 0.000000 0.000000 0.000000
# 2 -0.004011 0.011252 -0.005906 0.000000 0.000000 0.000000
# 3 -0.001903 -0.005906 0.013311 0.000000 0.000000 0.000000
# 4 0.000000 0.000000 0.000000 0.036891 0.000000 0.000000
# 5 0.000000 0.000000 0.000000 0.000000 0.024407 0.000000
# 6 0.000000 0.000000 0.000000 0.000000 0.000000 0.020242
#
#
# Mechanical properties :
#
#
# Convention : Reuss Voigt Hill
#
# Bulk Modulus (GPa) = 57.61164 66.80068 62.20616
# Shear Modulus (GPa) = 32.90222 35.78419 34.34321
#
# Velocity S-wave (km/s) = 3.94867 4.11798 4.03421
# Velocity P-wave (km/s) = 6.93476 7.36657 7.15392
#
# Compressibility (1/GPa) = 0.01735760
#
# Stress axis : x y z
#
# Youngs Moduli (GPa) = 60.84413 88.87588 75.12318
#
# Poissons Ratio (x) = 0.35650 0.14295
# Poissons Ratio (y) = 0.24406 0.44371
# Poissons Ratio (z) = 0.11578 0.52494
#
# Static dielectric constant tensor:
#      x y z
#    x 1.825550 0.000000 0.000000 
#    y 0.000000 1.867790 0.000000 
#    z 0.000000 0.000000 1.719680 
# 
# From -- ./inp_files/7640.got.cif
#   From: 2010.05.17/outbox.cif.g08.bks.cpg/sg45_4_cif.got.tgz:7640.got - 2010.06.03 19:51:22.
