data_PCOD9377687
_publ_section_title
;
Structure prediction by ZEFSAII (Michael W. Deem and Ramdas Pophale) SiO2 
 PCOD9377687
Probable space group: I B A 2
;
_chemical_formula_sum "Si O2"
_cell_formula_units_Z 64
_cell_length_a 22.467848
_cell_length_b 13.718981
_cell_length_c 9.775240
_cell_angle_alpha 90.000000
_cell_angle_beta 90.000000
_cell_angle_gamma 90.000000
_cell_volume 3013.080679
_symmetry_space_group_name_H-M "I B A 2"
_symmetry_group_IT_number 45
_symmetry_cell_setting 'orthorhombic'
loop_
_space_group_symop_operation_xyz
x,y,z
-x,-y,z
-x,y,1/2+z
x,-y,1/2+z
1/2+x,1/2+y,1/2+z
1/2-x,1/2-y,1/2+z
1/2-x,1/2+y,z
1/2+x,1/2-y,z
loop_
_atom_site_type_symbol
_atom_site_label
_atom_site_fract_x
_atom_site_fract_y
_atom_site_fract_z
Si Si1 0.138550 0.412773 0.805420
Si Si2 0.876490 0.080543 0.472654
Si Si3 0.489820 0.809746 0.778516
Si Si4 0.876514 0.359272 0.806814
Si Si5 0.997395 0.827307 0.030890
Si Si6 0.388330 0.583808 0.657582
Si Si7 0.677444 0.225089 0.580368
Si Si8 0.313448 0.222874 0.538755
O O1 0.143080 0.528520 0.812548
O O2 0.170140 0.371637 0.670117
O O3 0.069794 0.372580 0.802803
O O4 0.171255 0.361134 0.931177
O O5 0.891682 0.052336 0.315981
O O6 0.834481 0.174230 0.476173
O O7 0.935527 0.117835 0.551009
O O8 0.852426 0.991856 0.563408
O O9 0.551845 0.863222 0.805193
O O10 0.493414 0.767571 0.625549
O O11 0.492619 0.714949 0.877542
O O12 0.850665 0.305244 0.673659
O O13 0.852600 0.298544 0.935573
O O14 0.050177 0.898627 0.075377
O O15 0.358779 0.689882 0.655562
O O16 0.744198 0.263183 0.568007
#
# Coordination Sequence:
#
# PCOD9377687 Si02
#       8
#     8   8   8   8   8   8   8   8
#     4  12  24  49  71 104 145 178 234 298 354 418
#     4  12  27  45  70 102 138 183 235 292 353 418
#     4  12  21  42  73 102 140 182 225 292 367 422
#     4  12  26  41  79 108 131 186 238 284 360 430
#     4  12  21  42  69  94 144 182 221 286 359 408
#     4  12  27  45  70 102 138 183 235 292 353 418
#     4  12  26  49  69  98 145 186 230 291 349 417
#     4  12  26  49  69  98 145 186 230 291 349 417
#
# _framework density 21.24072
#
# number of rings (size 3 to 8) (size 9 to 14) (size 15 to 20)
#    0.000    0.000    7.500    2.250    3.500    3.000 
#    0.000    3.750    0.000    0.000    0.000    0.000 
#    0.000    0.000    0.000    0.000    0.000    0.000 
#
# Total GULP energy -178957.438947 kJ/mol
# GULP energy per Si atom -5592.419967 kJ/mol
# Density = 2.119237 g / cm^3
# Si number density = 21.240720 Si / 1000 Ang^3
#
#
#
# Elastic Constant Matrix: (Units=GPa)
#
#
# Indices 1 2 3 4 5 6 
#
# 1 97.4867 -12.1460 1.4148 0.0000 0.0000 0.0000
# 2 -12.1460 69.5343 -0.6451 0.0000 0.0000 0.0000
# 3 1.4148 -0.6451 103.3195 0.0000 0.0000 0.0000
# 4 0.0000 0.0000 0.0000 25.6594 0.0000 0.0000
# 5 0.0000 0.0000 0.0000 0.0000 18.1724 0.0000
# 6 0.0000 0.0000 0.0000 0.0000 0.0000 10.2649
#
#
#
# Elastic Compliance Matrix: (Units=1/GPa)
#
#
# Indices 1 2 3 4 5 6 
#
# 1 0.010488 0.001831 -0.000132 0.000000 0.000000 0.000000
# 2 0.001831 0.014702 0.000067 0.000000 0.000000 0.000000
# 3 -0.000132 0.000067 0.009681 0.000000 0.000000 0.000000
# 4 0.000000 0.000000 0.000000 0.038972 0.000000 0.000000
# 5 0.000000 0.000000 0.000000 0.000000 0.055029 0.000000
# 6 0.000000 0.000000 0.000000 0.000000 0.000000 0.097419
#
#
# Mechanical properties :
#
#
# Convention : Reuss Voigt Hill
#
# Bulk Modulus (GPa) = 26.04089 27.50977 26.77533
# Shear Modulus (GPa) = 21.22600 29.60045 25.41322
#
# Velocity S-wave (km/s) = 3.16461 3.73711 3.46271
# Velocity P-wave (km/s) = 5.06355 5.62146 5.34978
#
# Compressibility (1/GPa) = 0.03840114
#
# Stress axis : x y z
#
# Youngs Moduli (GPa) = 95.34872 68.01885 103.29572
#
# Poissons Ratio (x) = -0.12453 0.01365
# Poissons Ratio (y) = -0.17456 -0.00689
# Poissons Ratio (z) = 0.01260 -0.00454
#
# Static dielectric constant tensor:
#      x y z
#    x 1.779420 0.000000 0.000000 
#    y 0.000000 1.779850 0.000000 
#    z 0.000000 0.000000 1.794760 
# 
# From -- ./inp_files/2545.got.cif
#   From: 2010.05.17/outbox.cif.g08.bks.cpg/sg45_2_cif.got.tgz:2545.got - 2010.06.03 19:51:22.
