data_PCOD9377683
_publ_section_title
;
Structure prediction by ZEFSAII (Michael W. Deem and Ramdas Pophale) SiO2 
 PCOD9377683
Probable space group: I B A 2
;
_chemical_formula_sum "Si O2"
_cell_formula_units_Z 40
_cell_length_a 7.536843
_cell_length_b 22.081309
_cell_length_c 9.090123
_cell_angle_alpha 90.000000
_cell_angle_beta 90.000000
_cell_angle_gamma 90.000000
_cell_volume 1512.808805
_symmetry_space_group_name_H-M "I B A 2"
_symmetry_group_IT_number 45
_symmetry_cell_setting 'orthorhombic'
loop_
_space_group_symop_operation_xyz
x,y,z
-x,-y,z
-x,y,1/2+z
x,-y,1/2+z
1/2+x,1/2+y,1/2+z
1/2-x,1/2-y,1/2+z
1/2-x,1/2+y,z
1/2+x,1/2-y,z
loop_
_atom_site_type_symbol
_atom_site_label
_atom_site_fract_x
_atom_site_fract_y
_atom_site_fract_z
Si Si1 0.056176 0.917533 0.652590
Si Si2 0.131809 0.211842 0.174051
Si Si3 0.221812 0.035040 0.434583
Si Si4 0.559975 0.792602 0.393689
Si Si5 0.388010 0.916102 0.453447
O O1 0.024060 0.846620 0.621138
O O2 0.256695 0.924684 0.589819
O O3 0.897865 0.954709 0.579159
O O4 0.088803 0.933303 0.820614
O O5 0.309690 0.188891 0.258317
O O6 0.138987 0.264152 0.046834
O O7 0.033684 0.237186 0.315752
O O8 0.407221 0.066954 0.470926
O O9 0.292896 0.971093 0.365114
O O10 0.411275 0.845476 0.413891
#
# Coordination Sequence:
#
# PCOD9377683 Si02
#       5
#     8   8   8   8   8
#     4  12  26  52  82 124 167 220 284 347 421 504
#     4  12  26  48  80 124 164 219 277 352 429 505
#     4  11  28  51  86 121 163 223 278 344 419 497
#     4  12  26  49  80 120 169 217 279 348 433 504
#     4  11  27  51  77 121 170 216 277 343 413 504
#
# _framework density 26.440884
#
# number of rings (size 3 to 8) (size 9 to 14) (size 15 to 20)
#    0.000    0.400    2.000    5.400    2.800    8.000 
#    0.000    0.000    0.000    4.800    0.000    0.000 
#    0.000    0.000    0.000    0.000    0.000    0.000 
#
# Total GULP energy -111452.020120 kJ/mol
# GULP energy per Si atom -5572.601006 kJ/mol
# Density = 2.638070 g / cm^3
# Si number density = 26.440884 Si / 1000 Ang^3
#
#
#
# Elastic Constant Matrix: (Units=GPa)
#
#
# Indices 1 2 3 4 5 6 
#
# 1 148.9178 44.7850 49.0059 0.0007 0.0000 0.0002
# 2 44.7850 142.3570 27.0041 0.0003 0.0001 0.0001
# 3 49.0059 27.0041 123.6198 0.0048 0.0016 0.0012
# 4 0.0007 0.0003 0.0048 36.6872 0.0007 0.0006
# 5 0.0000 0.0001 0.0016 0.0007 34.4553 0.0001
# 6 0.0002 0.0001 0.0012 0.0006 0.0001 32.3902
#
#
#
# Elastic Compliance Matrix: (Units=1/GPa)
#
#
# Indices 1 2 3 4 5 6 
#
# 1 0.008266 -0.002064 -0.002826 0.000000 0.000000 0.000000
# 2 -0.002064 0.007844 -0.000895 0.000000 0.000000 0.000000
# 3 -0.002826 -0.000895 0.009405 -0.000001 0.000000 0.000000
# 4 0.000000 0.000000 -0.000001 0.027257 -0.000001 -0.000001
# 5 0.000000 0.000000 0.000000 -0.000001 0.029023 0.000000
# 6 0.000000 0.000000 0.000000 -0.000001 0.000000 0.030874
#
#
# Mechanical properties :
#
#
# Convention : Reuss Voigt Hill
#
# Bulk Modulus (GPa) = 71.71444 72.94275 72.32860
# Shear Modulus (GPa) = 38.79350 40.31317 39.55334
#
# Velocity S-wave (km/s) = 3.83453 3.90892 3.87190
# Velocity P-wave (km/s) = 6.84005 6.92963 6.88499
#
# Compressibility (1/GPa) = 0.01394419
#
# Stress axis : x y z
#
# Youngs Moduli (GPa) = 120.97929 127.48882 106.32555
#
# Poissons Ratio (x) = 0.26318 0.30046
# Poissons Ratio (y) = 0.24975 0.09517
# Poissons Ratio (z) = 0.34187 0.11411
#
# Static dielectric constant tensor:
#      x y z
#    x 2.101210 0.000000 0.000000 
#    y 0.000000 2.237850 0.000000 
#    z 0.000000 0.000000 2.078660 
# 
# From -- ./inp_files/957.got.cif
#   From: 2010.05.17/outbox.cif.g08.bks.cpg/sg45_1_cif.got.tgz:957.got - 2010.06.03 19:51:22.
