data_PCOD9377365
_publ_section_title
;
Structure prediction by ZEFSAII (Michael W. Deem and Ramdas Pophale) SiO2 
 PCOD9377365
Probable space group: I B A 2
;
_chemical_formula_sum "Si O2"
_cell_formula_units_Z 56
_cell_length_a 20.989383
_cell_length_b 14.780500
_cell_length_c 8.560592
_cell_angle_alpha 90.000000
_cell_angle_beta 90.000000
_cell_angle_gamma 90.000000
_cell_volume 2655.783064
_symmetry_space_group_name_H-M "I B A 2"
_symmetry_group_IT_number 45
_symmetry_cell_setting 'orthorhombic'
loop_
_space_group_symop_operation_xyz
x,y,z
-x,-y,z
-x,y,1/2+z
x,-y,1/2+z
1/2+x,1/2+y,1/2+z
1/2-x,1/2-y,1/2+z
1/2-x,1/2+y,z
1/2+x,1/2-y,z
loop_
_atom_site_type_symbol
_atom_site_label
_atom_site_fract_x
_atom_site_fract_y
_atom_site_fract_z
Si Si1 0.409356 0.563248 0.298150
Si Si2 0.500000 0.500000 0.532931
Si Si3 0.911372 0.578683 0.157068
Si Si4 0.697882 0.419969 0.814405
Si Si5 0.298027 0.762391 0.648719
Si Si6 0.288184 0.959189 0.604823
Si Si7 0.500000 0.000000 0.418872
Si Si8 0.338850 0.250563 0.784374
O O1 0.465232 0.573320 0.424900
O O2 0.445620 0.538917 0.141473
O O3 0.363095 0.481628 0.349505
O O4 0.368729 0.651339 0.271813
O O5 0.852430 0.518113 0.092328
O O6 0.884892 0.673545 0.218340
O O7 0.943743 0.534202 0.308521
O O8 0.967764 0.575949 0.029146
O O9 0.676079 0.321044 0.753785
O O10 0.736483 0.474338 0.681264
O O11 0.750372 0.421891 0.952829
O O12 0.306865 0.867418 0.698913
O O13 0.321267 0.756931 0.469269
O O14 0.223110 0.746124 0.675071
#
# Coordination Sequence:
#
# PCOD9377365 Si02
#       8
#     8   4   8   8   8   8   4   8
#     4  11  24  44  67  96 131 178 224 279 327 403
#     4  10  24  46  66  88 130 182 232 270 330 384
#     4  11  24  46  70 101 137 183 233 283 342 410
#     4  12  24  41  69  99 140 176 221 283 352 408
#     4  12  24  41  62 107 142 175 217 274 356 422
#     4  12  23  41  67 100 137 178 218 285 349 410
#     4  10  24  46  70  94 136 188 236 282 334 402
#     4  12  25  41  67 100 140 177 225 280 344 416
#
# _framework density 21.08606
#
# number of rings (size 3 to 8) (size 9 to 14) (size 15 to 20)
#    0.000    0.571    4.286    4.286    0.000    2.286 
#    0.000    5.714    0.000    0.000    0.000    0.000 
#    0.000    0.000    0.000    0.000    0.000    0.000 
#
# Total GULP energy -156307.210901 kJ/mol
# GULP energy per Si atom -5582.400389 kJ/mol
# Density = 2.103807 g / cm^3
# Si number density = 21.086060 Si / 1000 Ang^3
#
#
#
# Elastic Constant Matrix: (Units=GPa)
#
#
# Indices 1 2 3 4 5 6 
#
# 1 84.9369 15.6162 22.0269 0.0000 0.0000 0.0000
# 2 15.6162 96.7725 -1.5224 0.0000 0.0000 0.0000
# 3 22.0269 -1.5224 70.0775 0.0000 0.0000 0.0000
# 4 0.0000 0.0000 0.0000 6.2368 0.0000 0.0000
# 5 0.0000 0.0000 0.0000 0.0000 27.4978 0.0000
# 6 0.0000 0.0000 0.0000 0.0000 0.0000 -10.4513
#
#
#
# Elastic Compliance Matrix: (Units=1/GPa)
#
#
# Indices 1 2 3 4 5 6 
#
# 1 0.013274 -0.002208 -0.004220 0.000000 0.000000 0.000000
# 2 -0.002208 0.010704 0.000927 0.000000 0.000000 0.000000
# 3 -0.004220 0.000927 0.015617 0.000000 0.000000 0.000000
# 4 0.000000 0.000000 0.000000 0.160339 0.000000 0.000000
# 5 0.000000 0.000000 0.000000 0.000000 0.036367 0.000000
# 6 0.000000 0.000000 0.000000 0.000000 0.000000 -0.095682
#
#
# Mechanical properties :
#
#
# Convention : Reuss Voigt Hill
#
# Bulk Modulus (GPa) = 34.97603 36.00315 35.48959
# Shear Modulus (GPa) = 31.02628 19.03438 25.03033
#
# Velocity S-wave (km/s) = 3.84006 3.00776 3.44911
# Velocity P-wave (km/s) = 6.02368 5.40126 5.72094
#
# Compressibility (1/GPa) = 0.02859101
#
# Stress axis : x y z
#
# Youngs Moduli (GPa) = 75.33565 93.41895 64.03454
#
# Poissons Ratio (x) = 0.20631 0.27024
# Poissons Ratio (y) = 0.16637 -0.05934
# Poissons Ratio (z) = 0.31794 -0.08657
#
# Static dielectric constant tensor:
#      x y z
#    x 1.766150 0.000000 0.000000 
#    y 0.000000 1.642480 0.000000 
#    z 0.000000 0.000000 1.839410 
# 
# From -- ./inp_files/1852.got.cif
#   From: 2010.05.17/outbox.cif.g08.bks.cpg/sg45_1_cif.got.tgz:1852.got - 2010.06.03 19:51:22.
