data_PCOD9377684
_publ_section_title
;
Structure prediction by ZEFSAII (Michael W. Deem and Ramdas Pophale) SiO2 
 PCOD9377684
Probable space group: I B A 2
;
_chemical_formula_sum "Si O2"
_cell_formula_units_Z 52
_cell_length_a 15.638872
_cell_length_b 8.950711
_cell_length_c 17.257167
_cell_angle_alpha 90.000000
_cell_angle_beta 90.000000
_cell_angle_gamma 90.000000
_cell_volume 2415.641387
_symmetry_space_group_name_H-M "I B A 2"
_symmetry_group_IT_number 45
_symmetry_cell_setting 'orthorhombic'
loop_
_space_group_symop_operation_xyz
x,y,z
-x,-y,z
-x,y,1/2+z
x,-y,1/2+z
1/2+x,1/2+y,1/2+z
1/2-x,1/2-y,1/2+z
1/2-x,1/2+y,z
1/2+x,1/2-y,z
loop_
_atom_site_type_symbol
_atom_site_label
_atom_site_fract_x
_atom_site_fract_y
_atom_site_fract_z
Si Si1 0.715098 0.096557 0.031600
Si Si2 0.500000 0.500000 0.216121
Si Si3 0.420455 0.102091 0.939820
Si Si4 0.294331 0.684343 0.363822
Si Si5 0.465100 0.358664 0.455501
Si Si6 0.641658 0.602350 0.598566
Si Si7 0.638961 0.355870 0.817364
O O1 0.674128 0.231586 0.079732
O O2 0.778231 0.007936 0.089299
O O3 0.763236 0.157164 0.953566
O O4 0.642821 0.987487 0.995925
O O5 0.424696 0.582522 0.167938
O O6 0.441270 0.376777 0.260462
O O7 0.366578 0.187293 0.873413
O O8 0.467153 0.239531 0.983057
O O9 0.500000 0.000000 0.913166
O O10 0.326529 0.523788 0.334501
O O11 0.221181 0.749807 0.306869
O O12 0.500000 0.500000 0.408312
O O13 0.415204 0.435062 0.523839
O O14 0.399014 0.286936 0.396687
#
# Coordination Sequence:
#
# PCOD9377684 Si02
#       7
#     8   4   8   8   8   8   8
#     4  12  22  40  70 109 134 175 236 306 355 402
#     4  12  30  46  66  98 146 204 232 270 358 444
#     4  12  21  33  64 114 135 162 224 307 352 400
#     4  12  21  40  72 104 139 175 234 306 353 400
#     4  12  20  37  69 100 133 175 233 287 332 405
#     4  12  25  42  69 101 140 184 231 288 356 419
#     4  12  24  45  70 103 141 187 236 284 354 424
#
# _framework density 21.526375000000002
#
# number of rings (size 3 to 8) (size 9 to 14) (size 15 to 20)
#    0.000    0.000   10.769    0.000    0.000    1.231 
#    0.000    0.000    0.000    1.846    0.000    0.000 
#    0.000    0.000    0.000    0.000    0.000    0.000 
#
# Total GULP energy -144965.916367 kJ/mol
# GULP energy per Si atom -5575.612168 kJ/mol
# Density = 2.147738 g / cm^3
# Si number density = 21.526375 Si / 1000 Ang^3
#
#
#
# Elastic Constant Matrix: (Units=GPa)
#
#
# Indices 1 2 3 4 5 6 
#
# 1 142.5938 73.3943 28.2523 0.0000 0.0000 0.0000
# 2 73.3943 131.5693 15.6272 0.0000 0.0000 0.0000
# 3 28.2523 15.6272 43.3362 0.0000 0.0000 0.0000
# 4 0.0000 0.0000 0.0000 -33.9965 0.0000 0.0000
# 5 0.0000 0.0000 0.0000 0.0000 39.4737 0.0000
# 6 0.0000 0.0000 0.0000 0.0000 0.0000 59.8692
#
#
#
# Elastic Compliance Matrix: (Units=1/GPa)
#
#
# Indices 1 2 3 4 5 6 
#
# 1 0.010816 -0.005429 -0.005094 0.000000 0.000000 0.000000
# 2 -0.005429 0.010665 -0.000307 0.000000 0.000000 0.000000
# 3 -0.005094 -0.000307 0.026507 0.000000 0.000000 0.000000
# 4 0.000000 0.000000 0.000000 -0.029415 0.000000 0.000000
# 5 0.000000 0.000000 0.000000 0.000000 0.025333 0.000000
# 6 0.000000 0.000000 0.000000 0.000000 0.000000 0.016703
#
#
# Mechanical properties :
#
#
# Convention : Reuss Voigt Hill
#
# Bulk Modulus (GPa) = 37.97990 61.33854 49.65922
# Shear Modulus (GPa) = 54.91736 26.41765 40.66751
#
# Velocity S-wave (km/s) = 5.05639 3.50697 4.35120
# Velocity P-wave (km/s) = 7.19522 6.70484 6.95435
#
# Compressibility (1/GPa) = 0.02632971
#
# Stress axis : x y z
#
# Youngs Moduli (GPa) = 92.45188 93.76137 37.72603
#
# Poissons Ratio (x) = 0.50901 0.19217
# Poissons Ratio (y) = 0.50190 0.01157
# Poissons Ratio (z) = 0.47094 0.02876
#
# Static dielectric constant tensor:
#      x y z
#    x 1.901820 0.000000 0.000000 
#    y 0.000000 1.867110 0.000000 
#    z 0.000000 0.000000 1.815060 
# 
# From -- ./inp_files/8318.got.cif
#   From: 2010.05.17/outbox.cif.g08.bks.cpg/sg45_5_cif.got.tgz:8318.got - 2010.06.03 19:51:22.
