data_PCOD9377794
_publ_section_title
;
Structure prediction by ZEFSAII (Michael W. Deem and Ramdas Pophale) SiO2 
 PCOD9377794
Probable space group: I M A 2
;
_chemical_formula_sum "Si O2"
_cell_formula_units_Z 52
_cell_length_a 22.024764
_cell_length_b 6.910702
_cell_length_c 14.326549
_cell_angle_alpha 90.000000
_cell_angle_beta 90.000000
_cell_angle_gamma 90.000000
_cell_volume 2180.595035
_symmetry_space_group_name_H-M "I M A 2"
_symmetry_group_IT_number 46
_symmetry_cell_setting 'orthorhombic'
loop_
_space_group_symop_operation_xyz
x,y,z
-x,-y,z
1/2-x,y,z
1/2+x,-y,z
1/2+x,1/2+y,1/2+z
1/2-x,1/2-y,1/2+z
-x,1/2+y,1/2+z
x,1/2-y,1/2+z
loop_
_atom_site_type_symbol
_atom_site_label
_atom_site_fract_x
_atom_site_fract_y
_atom_site_fract_z
Si Si1 0.817463 0.261875 0.299690
Si Si2 0.082800 0.822548 0.654715
Si Si3 0.819498 0.177376 0.508107
Si Si4 0.750000 0.794319 0.110248
Si Si5 0.846571 0.819697 0.263149
Si Si6 0.644331 0.774241 0.973759
Si Si7 0.949340 0.772811 0.125602
O O1 0.750000 0.331396 0.270227
O O2 0.878726 0.329547 0.249750
O O3 0.822582 0.285137 0.410301
O O4 0.817446 0.029878 0.281486
O O5 0.133250 0.748528 0.582753
O O6 0.020952 0.703772 0.641339
O O7 0.064139 0.042156 0.632936
O O8 0.750000 0.170596 0.542100
O O9 0.838963 0.954882 0.488327
O O10 0.803303 0.727166 0.185199
O O11 0.697314 0.866300 0.035892
O O12 0.852526 0.709199 0.361564
O O13 0.910618 0.854105 0.212322
O O14 0.580766 0.823168 0.025192
#
# Coordination Sequence:
#
# PCOD9377794 Si02
#       7
#     8   8   8   4   8   8   8
#     4  10  20  35  56  84 112 139 178 231 283 325
#     4  10  20  37  55  76 112 146 184 231 264 326
#     4   9  17  32  56  80 104 142 183 221 274 328
#     4  10  16  28  52  80 106 134 168 218 274 314
#     4  10  19  34  56  82 111 139 179 231 272 324
#     4   9  17  31  54  80 108 138 181 225 265 322
#     4   9  21  36  54  80 106 148 192 218 268 328
#
# _framework density 23.846700999999999
#
# number of rings (size 3 to 8) (size 9 to 14) (size 15 to 20)
#    0.000    2.462    1.538    0.923    0.000    1.846 
#    1.385    6.154    3.385    0.000    0.000    0.000 
#    0.000    0.000    0.000    0.000    0.000    0.000 
#
# Total GULP energy -144816.699732 kJ/mol
# GULP energy per Si atom -5569.873067 kJ/mol
# Density = 2.379242 g / cm^3
# Si number density = 23.846701 Si / 1000 Ang^3
#
#
#
# Elastic Constant Matrix: (Units=GPa)
#
#
# Indices 1 2 3 4 5 6 
#
# 1 217.8932 1.0801 109.3574 0.0000 0.0000 0.0000
# 2 1.0801 58.7932 11.5899 0.0000 0.0000 0.0000
# 3 109.3574 11.5899 190.2782 0.0000 0.0000 0.0000
# 4 0.0000 0.0000 0.0000 17.9273 0.0000 0.0000
# 5 0.0000 0.0000 0.0000 0.0000 18.6894 0.0000
# 6 0.0000 0.0000 0.0000 0.0000 0.0000 32.2071
#
#
#
# Elastic Compliance Matrix: (Units=1/GPa)
#
#
# Indices 1 2 3 4 5 6 
#
# 1 0.006472 0.000622 -0.003758 0.000000 0.000000 0.000000
# 2 0.000622 0.017275 -0.001410 0.000000 0.000000 0.000000
# 3 -0.003758 -0.001410 0.007501 0.000000 0.000000 0.000000
# 4 0.000000 0.000000 0.000000 0.055781 0.000000 0.000000
# 5 0.000000 0.000000 0.000000 0.000000 0.053506 0.000000
# 6 0.000000 0.000000 0.000000 0.000000 0.000000 0.031049
#
#
# Mechanical properties :
#
#
# Convention : Reuss Voigt Hill
#
# Bulk Modulus (GPa) = 45.13133 79.00216 62.06674
# Shear Modulus (GPa) = 26.58710 36.76058 31.67384
#
# Velocity S-wave (km/s) = 3.34266 3.93050 3.64844
# Velocity P-wave (km/s) = 5.81932 7.33482 6.62058
#
# Compressibility (1/GPa) = 0.02215756
#
# Stress axis : x y z
#
# Youngs Moduli (GPa) = 154.50673 57.88635 133.31712
#
# Poissons Ratio (x) = -0.03600 0.50095
# Poissons Ratio (y) = -0.09608 0.18793
# Poissons Ratio (z) = 0.58058 0.08160
#
# Static dielectric constant tensor:
#      x y z
#    x 1.890510 0.000000 0.000000 
#    y 0.000000 2.121630 0.000000 
#    z 0.000000 0.000000 1.900080 
# 
# From -- ./inp_files/17012.got.cif
#   From: 2010.05.17/outbox.cif.g08.bks.cpg/sg46_9_cif.got.tgz:17012.got - 2010.06.03 19:58:25.
