data_PCOD9377796
_publ_section_title
;
Structure prediction by ZEFSAII (Michael W. Deem and Ramdas Pophale) SiO2 
 PCOD9377796
Probable space group: I M A 2
;
_chemical_formula_sum "Si O2"
_cell_formula_units_Z 40
_cell_length_a 10.421774
_cell_length_b 12.695763
_cell_length_c 17.056601
_cell_angle_alpha 90.000000
_cell_angle_beta 90.000000
_cell_angle_gamma 90.000000
_cell_volume 2256.799349
_symmetry_space_group_name_H-M "I M A 2"
_symmetry_group_IT_number 46
_symmetry_cell_setting 'orthorhombic'
loop_
_space_group_symop_operation_xyz
x,y,z
-x,-y,z
1/2-x,y,z
1/2+x,-y,z
1/2+x,1/2+y,1/2+z
1/2-x,1/2-y,1/2+z
-x,1/2+y,1/2+z
x,1/2-y,1/2+z
loop_
_atom_site_type_symbol
_atom_site_label
_atom_site_fract_x
_atom_site_fract_y
_atom_site_fract_z
Si Si1 0.750000 0.633982 0.939940
Si Si2 0.250000 0.592356 0.022292
Si Si3 0.522129 0.383407 0.322602
Si Si4 0.250000 0.564789 0.202862
Si Si5 0.530328 0.185660 0.418754
Si Si6 0.500000 0.000000 0.290748
Si Si7 0.250000 0.169680 0.746168
Si Si8 0.250000 0.095241 0.250815
O O1 0.750000 0.528302 0.991484
O O2 0.615000 0.691784 0.951069
O O3 0.750000 0.608096 0.846478
O O4 0.125186 0.645055 0.984668
O O5 0.250000 0.604949 0.114998
O O6 0.500000 0.500000 0.356471
O O7 0.624255 0.400090 0.252096
O O8 0.571639 0.296519 0.382565
O O9 0.383131 0.340924 0.294234
O O10 0.250000 0.437026 0.195808
O O11 0.532676 0.097946 0.348708
O O12 0.379623 0.031795 0.237838
O O13 0.250000 0.288431 0.713973
#
# Coordination Sequence:
#
# PCOD9377796 Si02
#       8
#     4   4   8   4   8   4   4   4
#     4  10  18  29  52  81 105 137 175 230 286 323
#     4  12  21  35  52  85 123 142 176 236 292 341
#     4  10  20  36  55  81 112 151 191 232 272 339
#     4  10  25  36  50  82 120 160 185 218 284 350
#     4  11  18  32  55  83 112 139 185 237 285 320
#     4  10  16  28  52  84 110 128 180 238 284 316
#     4  10  18  35  55  70 115 152 188 223 284 336
#     4  10  16  29  47  82 111 137 172 237 280 332
#
# _framework density 17.724215999999998
#
# number of rings (size 3 to 8) (size 9 to 14) (size 15 to 20)
#    0.000    1.600    8.000    0.600    0.000    4.800 
#    0.000    0.000    0.000    0.000    2.600    2.800 
#    0.000    0.000    0.000    0.000    0.000    0.000 
#
# Total GULP energy -111456.453407 kJ/mol
# GULP energy per Si atom -5572.822670 kJ/mol
# Density = 1.768387 g / cm^3
# Si number density = 17.724216 Si / 1000 Ang^3
#
#
#
# Elastic Constant Matrix: (Units=GPa)
#
#
# Indices 1 2 3 4 5 6 
#
# 1 129.8501 41.1560 26.3366 0.0000 0.0000 0.0000
# 2 41.1560 123.2946 42.5415 0.0000 0.0000 0.0000
# 3 26.3366 42.5415 57.2461 0.0000 0.0000 0.0000
# 4 0.0000 0.0000 0.0000 10.8584 0.0000 0.0000
# 5 0.0000 0.0000 0.0000 0.0000 27.7464 0.0000
# 6 0.0000 0.0000 0.0000 0.0000 0.0000 4.9463
#
#
#
# Elastic Compliance Matrix: (Units=1/GPa)
#
#
# Indices 1 2 3 4 5 6 
#
# 1 0.008877 -0.002090 -0.002531 0.000000 0.000000 0.000000
# 2 -0.002090 0.011399 -0.007510 0.000000 0.000000 0.000000
# 3 -0.002531 -0.007510 0.024214 0.000000 0.000000 0.000000
# 4 0.000000 0.000000 0.000000 0.092094 0.000000 0.000000
# 5 0.000000 0.000000 0.000000 0.000000 0.036041 0.000000
# 6 0.000000 0.000000 0.000000 0.000000 0.000000 0.202172
#
#
# Mechanical properties :
#
#
# Convention : Reuss Voigt Hill
#
# Bulk Modulus (GPa) = 49.43442 58.93987 54.18715
# Shear Modulus (GPa) = 12.32131 22.06734 17.19432
#
# Velocity S-wave (km/s) = 2.63946 3.53234 3.11803
# Velocity P-wave (km/s) = 6.10250 7.06842 6.60315
#
# Compressibility (1/GPa) = 0.02022882
#
# Stress axis : x y z
#
# Youngs Moduli (GPa) = 112.65213 87.72343 41.29911
#
# Poissons Ratio (x) = 0.18333 0.10452
# Poissons Ratio (y) = 0.23543 0.31015
# Poissons Ratio (z) = 0.28510 0.65879
#
# Static dielectric constant tensor:
#      x y z
#    x 1.493460 0.000000 0.000000 
#    y 0.000000 1.623460 0.000000 
#    z 0.000000 0.000000 1.569330 
# 
# From -- ./inp_files/15079.got.cif
#   From: 2010.05.17/outbox.cif.g08.bks.cpg/sg46_8_cif.got.tgz:15079.got - 2010.06.03 19:58:25.
