data_PCOD9377548
_publ_section_title
;
Structure prediction by ZEFSAII (Michael W. Deem and Ramdas Pophale) SiO2 
 PCOD9377548
Probable space group: I B A 2
;
_chemical_formula_sum "Si O2"
_cell_formula_units_Z 60
_cell_length_a 19.057319
_cell_length_b 11.772431
_cell_length_c 12.400366
_cell_angle_alpha 90.000000
_cell_angle_beta 90.000000
_cell_angle_gamma 90.000000
_cell_volume 2782.034177
_symmetry_space_group_name_H-M "I B A 2"
_symmetry_group_IT_number 45
_symmetry_cell_setting 'orthorhombic'
loop_
_space_group_symop_operation_xyz
x,y,z
-x,-y,z
-x,y,1/2+z
x,-y,1/2+z
1/2+x,1/2+y,1/2+z
1/2-x,1/2-y,1/2+z
1/2-x,1/2+y,z
1/2+x,1/2-y,z
loop_
_atom_site_type_symbol
_atom_site_label
_atom_site_fract_x
_atom_site_fract_y
_atom_site_fract_z
Si Si1 0.118558 0.393663 0.526140
Si Si2 0.809460 0.040969 0.781588
Si Si3 0.373789 0.646331 0.906618
Si Si4 0.400466 0.300594 0.640194
Si Si5 0.542951 0.786477 0.231995
Si Si6 0.500000 0.000000 0.377075
Si Si7 0.229347 0.226528 0.443454
Si Si8 0.291955 0.092767 0.634607
O O1 0.079316 0.328556 0.622447
O O2 0.161378 0.304150 0.454656
O O3 0.172041 0.483771 0.579159
O O4 0.063410 0.460742 0.453203
O O5 0.855067 0.095208 0.686155
O O6 0.771921 0.144440 0.841398
O O7 0.860225 0.981410 0.868384
O O8 0.752520 0.952174 0.735857
O O9 0.406236 0.711198 0.805196
O O10 0.297719 0.695963 0.936002
O O11 0.416703 0.672914 0.014944
O O12 0.472075 0.280462 0.703593
O O13 0.352688 0.186632 0.653672
O O14 0.523473 0.896827 0.301805
O O15 0.238896 0.151036 0.550534
#
# Coordination Sequence:
#
# PCOD9377548 Si02
#       8
#     8   8   8   8   8   4   8   8
#     4  12  24  42  68  99 136 178 225 288 350 413
#     4  12  23  41  67  97 132 178 224 279 349 411
#     4  11  25  44  66  96 132 175 226 281 343 422
#     4  11  25  44  66  97 135 174 228 287 342 419
#     4  12  25  44  67  95 134 182 229 281 349 420
#     4  12  24  42  68 102 134 176 230 286 348 412
#     4  11  23  41  66  99 134 171 224 285 343 413
#     4  11  22  41  66  99 134 172 224 286 346 410
#
# _framework density 21.566951
#
# number of rings (size 3 to 8) (size 9 to 14) (size 15 to 20)
#    0.000    0.533    0.000   10.800    0.000    2.667 
#    0.000    1.333    0.000    0.000    0.000    0.000 
#    0.000    0.000    0.000    0.000    0.000    0.000 
#
# Total GULP energy -168036.892545 kJ/mol
# GULP energy per Si atom -5601.229752 kJ/mol
# Density = 2.151786 g / cm^3
# Si number density = 21.566951 Si / 1000 Ang^3
#
#
#
# Elastic Constant Matrix: (Units=GPa)
#
#
# Indices 1 2 3 4 5 6 
#
# 1 71.3289 6.8400 24.7263 0.0000 0.0000 0.0000
# 2 6.8400 43.9179 4.5750 0.0000 0.0000 0.0000
# 3 24.7263 4.5750 88.3119 0.0000 0.0000 0.0000
# 4 0.0000 0.0000 0.0000 45.5475 0.0000 0.0000
# 5 0.0000 0.0000 0.0000 0.0000 22.8220 0.0000
# 6 0.0000 0.0000 0.0000 0.0000 0.0000 22.7902
#
#
#
# Elastic Compliance Matrix: (Units=1/GPa)
#
#
# Indices 1 2 3 4 5 6 
#
# 1 0.015699 -0.001998 -0.004292 0.000000 0.000000 0.000000
# 2 -0.001998 0.023148 -0.000640 0.000000 0.000000 0.000000
# 3 -0.004292 -0.000640 0.012558 0.000000 0.000000 0.000000
# 4 0.000000 0.000000 0.000000 0.021955 0.000000 0.000000
# 5 0.000000 0.000000 0.000000 0.000000 0.043817 0.000000
# 6 0.000000 0.000000 0.000000 0.000000 0.000000 0.043879
#
#
# Mechanical properties :
#
#
# Convention : Reuss Voigt Hill
#
# Bulk Modulus (GPa) = 26.63437 30.64904 28.64171
# Shear Modulus (GPa) = 26.67654 29.39309 28.03481
#
# Velocity S-wave (km/s) = 3.52080 3.69572 3.60932
# Velocity P-wave (km/s) = 5.37629 5.69676 5.53884
#
# Compressibility (1/GPa) = 0.03754547
#
# Stress axis : x y z
#
# Youngs Moduli (GPa) = 63.69832 43.20106 79.62815
#
# Poissons Ratio (x) = 0.08631 0.34177
# Poissons Ratio (y) = 0.12727 0.05094
# Poissons Ratio (z) = 0.27340 0.02764
#
# Static dielectric constant tensor:
#      x y z
#    x 1.850700 0.000000 0.000000 
#    y 0.000000 1.790100 0.000000 
#    z 0.000000 0.000000 1.798440 
# 
# From -- ./inp_files/4668.got.cif
#   From: 2010.05.17/outbox.cif.g08.bks.cpg/sg45_3_cif.got.tgz:4668.got - 2010.06.03 19:51:22.
