data_PCOD9377695
_publ_section_title
;
Structure prediction by ZEFSAII (Michael W. Deem and Ramdas Pophale) SiO2 
 PCOD9377695
Probable space group: I B A 2
;
_chemical_formula_sum "Si O2"
_cell_formula_units_Z 64
_cell_length_a 14.441582
_cell_length_b 23.056463
_cell_length_c 8.562227
_cell_angle_alpha 90.000000
_cell_angle_beta 90.000000
_cell_angle_gamma 90.000000
_cell_volume 2850.980145
_symmetry_space_group_name_H-M "I B A 2"
_symmetry_group_IT_number 45
_symmetry_cell_setting 'orthorhombic'
loop_
_space_group_symop_operation_xyz
x,y,z
-x,-y,z
-x,y,1/2+z
x,-y,1/2+z
1/2+x,1/2+y,1/2+z
1/2-x,1/2-y,1/2+z
1/2-x,1/2+y,z
1/2+x,1/2-y,z
loop_
_atom_site_type_symbol
_atom_site_label
_atom_site_fract_x
_atom_site_fract_y
_atom_site_fract_z
Si Si1 0.623280 0.388988 0.460270
Si Si2 0.070378 0.123058 0.110455
Si Si3 0.186667 0.013420 0.996724
Si Si4 0.178129 0.525954 0.736743
Si Si5 0.236512 0.184129 0.012056
Si Si6 0.379657 0.104700 0.190269
Si Si7 0.572090 0.873200 0.547311
Si Si8 0.232877 0.691327 0.643489
O O1 0.537714 0.381469 0.577401
O O2 0.592528 0.365962 0.291696
O O3 0.641725 0.456675 0.420357
O O4 0.710074 0.355631 0.538636
O O5 0.126878 0.173376 0.024518
O O6 0.116983 0.064469 0.038174
O O7 0.281511 0.034581 0.910197
O O8 0.224538 0.982713 0.151316
O O9 0.128421 0.464322 0.718272
O O10 0.119126 0.574927 0.650720
O O11 0.289059 0.135804 0.118828
O O12 0.263597 0.245658 0.085991
O O13 0.256906 0.181300 0.828087
O O14 0.403954 0.124904 0.365038
O O15 0.463809 0.121062 0.076918
O O16 0.624103 0.816855 0.609831
#
# Coordination Sequence:
#
# PCOD9377695 Si02
#       8
#     8   8   8   8   8   8   8   8
#     4  12  26  44  68 104 139 182 228 283 338 410
#     4  12  26  43  69 102 142 179 232 279 343 404
#     4  12  23  41  70  99 139 182 225 276 337 402
#     4  12  23  41  70  99 139 182 225 276 337 402
#     4  12  26  48  74  98 133 177 228 285 347 408
#     4  12  26  44  68 104 139 182 228 283 338 410
#     4  12  26  43  69 102 142 179 232 279 343 404
#     4  12  26  48  74  98 133 177 228 285 347 408
#
# _framework density 22.448421
#
# number of rings (size 3 to 8) (size 9 to 14) (size 15 to 20)
#    0.000    0.000    5.000    5.250    3.500    3.000 
#    0.000    5.000    0.000    0.000    0.000    0.000 
#    0.000    0.000    0.000    0.000    0.000    0.000 
#
# Total GULP energy -178813.464209 kJ/mol
# GULP energy per Si atom -5587.920757 kJ/mol
# Density = 2.239733 g / cm^3
# Si number density = 22.448421 Si / 1000 Ang^3
#
#
#
# Elastic Constant Matrix: (Units=GPa)
#
#
# Indices 1 2 3 4 5 6 
#
# 1 84.1643 5.4339 -10.1875 0.0000 0.0000 0.0001
# 2 5.4339 82.6829 11.3572 -0.0002 0.0000 0.0000
# 3 -10.1875 11.3572 101.6485 -0.0008 0.0002 -0.0015
# 4 0.0000 -0.0002 -0.0008 24.8068 0.0000 -0.0004
# 5 0.0000 0.0000 0.0002 0.0000 31.0691 0.0001
# 6 0.0001 0.0000 -0.0015 -0.0004 0.0001 -1.0707
#
#
#
# Elastic Compliance Matrix: (Units=1/GPa)
#
#
# Indices 1 2 3 4 5 6 
#
# 1 0.012105 -0.000977 0.001322 0.000000 0.000000 -0.000001
# 2 -0.000977 0.012362 -0.001479 0.000000 0.000000 0.000002
# 3 0.001322 -0.001479 0.010136 0.000000 0.000000 -0.000014
# 4 0.000000 0.000000 0.000000 0.040312 0.000000 -0.000015
# 5 0.000000 0.000000 0.000000 0.000000 0.032186 0.000002
# 6 -0.000001 0.000002 -0.000014 -0.000015 0.000002 -0.933976
#
#
# Mechanical properties :
#
#
# Convention : Reuss Voigt Hill
#
# Bulk Modulus (GPa) = 30.92701 31.30035 31.11368
# Shear Modulus (GPa) = -6.14378 28.42052 11.13837
#
# Velocity S-wave (km/s) = -1.65614 3.56200 2.22992
# Velocity P-wave (km/s) = 3.18587 5.55793 4.52992
#
# Compressibility (1/GPa) = 0.03233419
#
# Stress axis : x y z
#
# Youngs Moduli (GPa) = 82.61281 80.89450 98.66205
#
# Poissons Ratio (x) = 0.07905 -0.13046
# Poissons Ratio (y) = 0.08072 0.14593
# Poissons Ratio (z) = -0.10924 0.11965
#
# Static dielectric constant tensor:
#      x y z
#    x 1.809880 0.000000 0.000000 
#    y 0.000000 1.863350 0.000000 
#    z 0.000000 0.000000 1.907930 
# 
# From -- ./inp_files/1927.got.cif
#   From: 2010.05.17/outbox.cif.g08.bks.cpg/sg45_1_cif.got.tgz:1927.got - 2010.06.03 19:51:22.
