data_PCOD9377560
_publ_section_title
;
Structure prediction by ZEFSAII (Michael W. Deem and Ramdas Pophale) SiO2 
 PCOD9377560
Probable space group: I B A 2
;
_chemical_formula_sum "Si O2"
_cell_formula_units_Z 64
_cell_length_a 14.556579
_cell_length_b 11.347200
_cell_length_c 17.190391
_cell_angle_alpha 90.000000
_cell_angle_beta 90.000000
_cell_angle_gamma 90.000000
_cell_volume 2839.447127
_symmetry_space_group_name_H-M "I B A 2"
_symmetry_group_IT_number 45
_symmetry_cell_setting 'orthorhombic'
loop_
_space_group_symop_operation_xyz
x,y,z
-x,-y,z
-x,y,1/2+z
x,-y,1/2+z
1/2+x,1/2+y,1/2+z
1/2-x,1/2-y,1/2+z
1/2-x,1/2+y,z
1/2+x,1/2-y,z
loop_
_atom_site_type_symbol
_atom_site_label
_atom_site_fract_x
_atom_site_fract_y
_atom_site_fract_z
Si Si1 0.641611 0.430499 0.011090
Si Si2 0.422710 0.408793 0.823996
Si Si3 0.494406 0.233911 0.433536
Si Si4 0.410233 0.062349 0.313867
Si Si5 0.922746 0.813372 0.575554
Si Si6 0.301026 0.265431 0.224982
Si Si7 0.884663 0.173382 0.664850
Si Si8 0.737739 0.559632 0.361383
O O1 0.597154 0.559573 0.031317
O O2 0.670479 0.385783 0.095202
O O3 0.571609 0.336545 0.970130
O O4 0.725479 0.419010 0.952009
O O5 0.500000 0.500000 0.850998
O O6 0.454400 0.286315 0.858436
O O7 0.416951 0.413345 0.732086
O O8 0.322674 0.440680 0.854039
O O9 0.437653 0.128567 0.394762
O O10 0.566592 0.220568 0.504336
O O11 0.355718 0.149912 0.255924
O O12 0.500000 0.000000 0.279349
O O13 0.339987 0.961082 0.336724
O O14 0.847687 0.803096 0.643724
O O15 0.019017 0.794985 0.623309
O O16 0.191937 0.252589 0.207252
O O17 0.309093 0.353297 0.298925
#
# Coordination Sequence:
#
# PCOD9377560 Si02
#       8
#     8   8   8   8   8   8   8   8
#     4  11  22  44  73 113 144 182 256 318 377 446
#     4  12  19  40  73 103 134 185 246 310 367 439
#     4  11  22  44  72 103 146 186 242 312 381 432
#     4  12  29  48  72 108 151 206 258 304 386 473
#     4  11  24  43  74 109 147 195 248 324 381 444
#     4  12  27  48  71 109 153 204 250 312 387 460
#     4  11  24  39  68 105 147 185 241 308 376 441
#     4  12  25  44  77 105 146 201 259 307 383 463
#
# _framework density 22.539598000000002
#
# number of rings (size 3 to 8) (size 9 to 14) (size 15 to 20)
#    0.000    0.500    5.000    4.500    3.500    3.000 
#    0.000    1.875    0.000    0.000    0.000    0.000 
#    0.000    0.000    0.000    0.000    0.000    0.000 
#
# Total GULP energy -178326.432648 kJ/mol
# GULP energy per Si atom -5572.701020 kJ/mol
# Density = 2.248830 g / cm^3
# Si number density = 22.539598 Si / 1000 Ang^3
#
#
#
# Elastic Constant Matrix: (Units=GPa)
#
#
# Indices 1 2 3 4 5 6 
#
# 1 110.4061 27.3390 14.8112 0.0000 0.0000 0.0000
# 2 27.3390 53.7971 30.4358 0.0000 0.0000 0.0000
# 3 14.8112 30.4358 129.0388 0.0000 0.0000 0.0000
# 4 0.0000 0.0000 0.0000 26.2077 0.0000 0.0000
# 5 0.0000 0.0000 0.0000 0.0000 28.9830 0.0000
# 6 0.0000 0.0000 0.0000 0.0000 0.0000 29.6069
#
#
#
# Elastic Compliance Matrix: (Units=1/GPa)
#
#
# Indices 1 2 3 4 5 6 
#
# 1 0.010362 -0.005300 0.000061 0.000000 0.000000 0.000000
# 2 -0.005300 0.024162 -0.005091 0.000000 0.000000 0.000000
# 3 0.000061 -0.005091 0.008943 0.000000 0.000000 0.000000
# 4 0.000000 0.000000 0.000000 0.038157 0.000000 0.000000
# 5 0.000000 0.000000 0.000000 0.000000 0.034503 0.000000
# 6 0.000000 0.000000 0.000000 0.000000 0.000000 0.033776
#
#
# Mechanical properties :
#
#
# Convention : Reuss Voigt Hill
#
# Bulk Modulus (GPa) = 43.84604 48.71268 46.27936
# Shear Modulus (GPa) = 28.06392 31.66992 29.86692
#
# Velocity S-wave (km/s) = 3.53242 3.75251 3.64412
# Velocity P-wave (km/s) = 6.01103 6.35878 6.18734
#
# Compressibility (1/GPa) = 0.02280707
#
# Stress axis : x y z
#
# Youngs Moduli (GPa) = 96.50892 41.38759 111.81521
#
# Poissons Ratio (x) = 0.21936 -0.00680
# Poissons Ratio (y) = 0.51151 0.56921
# Poissons Ratio (z) = -0.00587 0.21069
#
# Static dielectric constant tensor:
#      x y z
#    x 1.991710 0.000000 0.000000 
#    y 0.000000 1.914190 0.000000 
#    z 0.000000 0.000000 1.910520 
# 
# From -- ./inp_files/8245.got.cif
#   From: 2010.05.17/outbox.cif.g08.bks.cpg/sg45_5_cif.got.tgz:8245.got - 2010.06.03 19:51:22.
