data_PCOD9377323
_publ_section_title
;
Structure prediction by ZEFSAII (Michael W. Deem and Ramdas Pophale) SiO2 
 PCOD9377323
Probable space group: I B A 2
;
_chemical_formula_sum "Si O2"
_cell_formula_units_Z 40
_cell_length_a 15.052251
_cell_length_b 10.977493
_cell_length_c 9.445858
_cell_angle_alpha 90.000000
_cell_angle_beta 90.000000
_cell_angle_gamma 90.000000
_cell_volume 1560.795603
_symmetry_space_group_name_H-M "I B A 2"
_symmetry_group_IT_number 45
_symmetry_cell_setting 'orthorhombic'
loop_
_space_group_symop_operation_xyz
x,y,z
-x,-y,z
-x,y,1/2+z
x,-y,1/2+z
1/2+x,1/2+y,1/2+z
1/2-x,1/2-y,1/2+z
1/2-x,1/2+y,z
1/2+x,1/2-y,z
loop_
_atom_site_type_symbol
_atom_site_label
_atom_site_fract_x
_atom_site_fract_y
_atom_site_fract_z
Si Si1 0.768363 0.849520 0.024270
Si Si2 0.500000 0.500000 0.132139
Si Si3 0.643768 0.853020 0.800650
Si Si4 0.947962 0.746932 0.051314
Si Si5 0.806439 0.006906 0.267727
Si Si6 0.000000 0.500000 0.408715
O O1 0.849933 0.762836 0.985749
O O2 0.770598 0.887384 0.187235
O O3 0.677663 0.808148 0.952976
O O4 0.792939 0.974657 0.935825
O O5 0.506185 0.376886 0.039750
O O6 0.591167 0.514934 0.221848
O O7 0.575032 0.770268 0.717676
O O8 0.735809 0.886985 0.720990
O O9 0.589074 0.978235 0.820045
O O10 0.989919 0.623306 0.997356
#
# Coordination Sequence:
#
# PCOD9377323 Si02
#       6
#     8   4   8   8   8   4
#     4   9  22  44  71 109 146 196 251 310 380 450
#     4  10  24  46  78 108 144 192 260 318 384 442
#     4  10  24  43  72 107 152 201 247 314 383 460
#     4  11  25  46  71 113 149 204 258 316 385 459
#     4   9  21  44  70 111 149 192 249 314 380 457
#     4  12  26  46  74 104 160 198 258 304 396 456
#
# _framework density 25.627953000000002
#
# number of rings (size 3 to 8) (size 9 to 14) (size 15 to 20)
#    1.200    0.800    0.000    1.800    2.800    8.000 
#    7.200    0.000    0.000    0.000    0.000    0.000 
#    0.000    0.000    0.000    0.000    0.000    0.000 
#
# Total GULP energy -111495.486361 kJ/mol
# GULP energy per Si atom -5574.774318 kJ/mol
# Density = 2.556962 g / cm^3
# Si number density = 25.627953 Si / 1000 Ang^3
#
#
#
# Elastic Constant Matrix: (Units=GPa)
#
#
# Indices 1 2 3 4 5 6 
#
# 1 126.4062 44.9364 22.6814 0.0000 0.0000 0.0000
# 2 44.9364 152.3906 25.7799 0.0000 0.0000 0.0000
# 3 22.6814 25.7799 62.2454 0.0000 0.0000 0.0000
# 4 0.0000 0.0000 0.0000 30.1605 0.0000 0.0000
# 5 0.0000 0.0000 0.0000 0.0000 26.5095 0.0000
# 6 0.0000 0.0000 0.0000 0.0000 0.0000 47.4193
#
#
#
# Elastic Compliance Matrix: (Units=1/GPa)
#
#
# Indices 1 2 3 4 5 6 
#
# 1 0.009155 -0.002296 -0.002385 0.000000 0.000000 0.000000
# 2 -0.002296 0.007632 -0.002324 0.000000 0.000000 0.000000
# 3 -0.002385 -0.002324 0.017897 0.000000 0.000000 0.000000
# 4 0.000000 0.000000 0.000000 0.033156 0.000000 0.000000
# 5 0.000000 0.000000 0.000000 0.000000 0.037722 0.000000
# 6 0.000000 0.000000 0.000000 0.000000 0.000000 0.021088
#
#
# Mechanical properties :
#
#
# Convention : Reuss Voigt Hill
#
# Bulk Modulus (GPa) = 48.37082 58.64863 53.50972
# Shear Modulus (GPa) = 33.88590 37.32748 35.60669
#
# Velocity S-wave (km/s) = 3.64018 3.82057 3.73147
# Velocity P-wave (km/s) = 6.04840 6.51127 6.28410
#
# Compressibility (1/GPa) = 0.02067362
#
# Stress axis : x y z
#
# Youngs Moduli (GPa) = 109.22712 131.02054 55.87463
#
# Poissons Ratio (x) = 0.30085 0.13326
# Poissons Ratio (y) = 0.25081 0.12987
# Poissons Ratio (z) = 0.26051 0.30454
#
# Static dielectric constant tensor:
#      x y z
#    x 2.026950 0.000000 0.000000 
#    y 0.000000 2.059310 0.000000 
#    z 0.000000 0.000000 2.104900 
# 
# From -- ./inp_files/4036.got.cif
#   From: 2010.05.17/outbox.cif.g08.bks.cpg/sg45_3_cif.got.tgz:4036.got - 2010.06.03 19:51:22.
