data_PCOD9377321
_publ_section_title
;
Structure prediction by ZEFSAII (Michael W. Deem and Ramdas Pophale) SiO2 
 PCOD9377321
Probable space group: I B A 2
;
_chemical_formula_sum "Si O2"
_cell_formula_units_Z 64
_cell_length_a 15.589021
_cell_length_b 13.585253
_cell_length_c 13.763658
_cell_angle_alpha 90.000000
_cell_angle_beta 90.000000
_cell_angle_gamma 90.000000
_cell_volume 2914.878424
_symmetry_space_group_name_H-M "I B A 2"
_symmetry_group_IT_number 45
_symmetry_cell_setting 'orthorhombic'
loop_
_space_group_symop_operation_xyz
x,y,z
-x,-y,z
-x,y,1/2+z
x,-y,1/2+z
1/2+x,1/2+y,1/2+z
1/2-x,1/2-y,1/2+z
1/2-x,1/2+y,z
1/2+x,1/2-y,z
loop_
_atom_site_type_symbol
_atom_site_label
_atom_site_fract_x
_atom_site_fract_y
_atom_site_fract_z
Si Si1 0.839389 0.938783 0.673700
Si Si2 0.648494 0.960417 0.590831
Si Si3 0.437581 0.280325 0.095842
Si Si4 0.786945 0.333698 0.030289
Si Si5 0.171061 0.160591 0.210352
Si Si6 0.294150 0.280042 0.334864
Si Si7 0.550679 0.823177 0.438007
Si Si8 0.458513 0.159776 0.743334
O O1 0.750197 0.941482 0.610902
O O2 0.926108 0.893195 0.627109
O O3 0.816156 0.862609 0.757771
O O4 0.854853 0.047421 0.716221
O O5 0.601448 0.901914 0.504160
O O6 0.592821 0.926624 0.685681
O O7 0.653767 0.074118 0.560281
O O8 0.342804 0.259512 0.057419
O O9 0.461629 0.203800 0.181714
O O10 0.500352 0.249532 0.010115
O O11 0.703673 0.328918 0.099202
O O12 0.764241 0.328434 0.918124
O O13 0.249497 0.188532 0.280577
O O14 0.102990 0.244120 0.237386
O O15 0.378350 0.240700 0.385080
O O16 0.488439 0.863753 0.352592
#
# Coordination Sequence:
#
# PCOD9377321 Si02
#       8
#     8   8   8   8   8   8   8   8
#     4  11  23  45  72  96 134 183 235 288 342 412
#     4  10  24  43  70 104 133 186 238 280 349 410
#     4  11  22  43  64  94 141 179 218 285 350 406
#     4  11  23  44  71 101 137 180 234 284 343 416
#     4  11  24  44  73  98 135 180 231 288 336 415
#     4  12  23  45  69 103 133 176 237 284 345 412
#     4  11  24  40  71 100 144 183 227 285 354 421
#     4  11  21  43  66  99 145 181 220 288 351 410
#
# _framework density 21.956320000000002
#
# number of rings (size 3 to 8) (size 9 to 14) (size 15 to 20)
#    0.000    1.000    3.750    3.000    1.750    2.500 
#    2.250    5.000    2.750    0.000    0.000    0.000 
#    0.000    0.000    0.000    0.000    0.000    0.000 
#
# Total GULP energy -178730.750274 kJ/mol
# GULP energy per Si atom -5585.335946 kJ/mol
# Density = 2.190635 g / cm^3
# Si number density = 21.956320 Si / 1000 Ang^3
#
#
#
# Elastic Constant Matrix: (Units=GPa)
#
#
# Indices 1 2 3 4 5 6 
#
# 1 35.8802 12.0037 28.1128 0.0000 0.0000 0.0000
# 2 12.0037 98.0634 36.5370 0.0000 0.0000 0.0000
# 3 28.1128 36.5370 127.1019 0.0000 0.0000 0.0000
# 4 0.0000 0.0000 0.0000 8.3492 0.0000 0.0000
# 5 0.0000 0.0000 0.0000 0.0000 24.3208 0.0000
# 6 0.0000 0.0000 0.0000 0.0000 0.0000 15.7405
#
#
#
# Elastic Compliance Matrix: (Units=1/GPa)
#
#
# Indices 1 2 3 4 5 6 
#
# 1 0.033914 -0.001519 -0.007064 0.000000 0.000000 0.000000
# 2 -0.001519 0.011489 -0.002967 0.000000 0.000000 0.000000
# 3 -0.007064 -0.002967 0.010283 0.000000 0.000000 0.000000
# 4 0.000000 0.000000 0.000000 0.119772 0.000000 0.000000
# 5 0.000000 0.000000 0.000000 0.000000 0.041117 0.000000
# 6 0.000000 0.000000 0.000000 0.000000 0.000000 0.063530
#
#
# Mechanical properties :
#
#
# Convention : Reuss Voigt Hill
#
# Bulk Modulus (GPa) = 30.68875 46.03918 38.36397
# Shear Modulus (GPa) = 15.92017 21.97491 18.94754
#
# Velocity S-wave (km/s) = 2.69566 3.16705 2.94081
# Velocity P-wave (km/s) = 4.86788 5.86410 5.38906
#
# Compressibility (1/GPa) = 0.03258523
#
# Stress axis : x y z
#
# Youngs Moduli (GPa) = 29.48639 87.04174 97.24769
#
# Poissons Ratio (x) = 0.13223 0.68701
# Poissons Ratio (y) = 0.04480 0.28849
# Poissons Ratio (z) = 0.20831 0.25821
#
# Static dielectric constant tensor:
#      x y z
#    x 1.897890 0.000000 0.000000 
#    y 0.000000 1.822100 0.000000 
#    z 0.000000 0.000000 1.830300 
# 
# From -- ./inp_files/4498.got.cif
#   From: 2010.05.17/outbox.cif.g08.bks.cpg/sg45_3_cif.got.tgz:4498.got - 2010.06.03 19:51:22.
