data_PCOD9377848
_publ_section_title
;
Structure prediction by ZEFSAII (Michael W. Deem and Ramdas Pophale) SiO2 
 PCOD9377848
Probable space group: I M A 2
;
_chemical_formula_sum "Si O2"
_cell_formula_units_Z 48
_cell_length_a 8.675862
_cell_length_b 9.192515
_cell_length_c 32.312431
_cell_angle_alpha 90.000000
_cell_angle_beta 90.000000
_cell_angle_gamma 90.000000
_cell_volume 2577.013037
_symmetry_space_group_name_H-M "I M A 2"
_symmetry_group_IT_number 46
_symmetry_cell_setting 'orthorhombic'
loop_
_space_group_symop_operation_xyz
x,y,z
-x,-y,z
1/2-x,y,z
1/2+x,-y,z
1/2+x,1/2+y,1/2+z
1/2-x,1/2-y,1/2+z
-x,1/2+y,1/2+z
x,1/2-y,1/2+z
loop_
_atom_site_type_symbol
_atom_site_label
_atom_site_fract_x
_atom_site_fract_y
_atom_site_fract_z
Si Si1 0.434989 0.163420 0.423520
Si Si2 0.934227 0.834543 0.253009
Si Si3 0.065010 0.663420 0.667264
Si Si4 0.565503 0.161917 0.584242
Si Si5 0.065773 0.665457 0.837776
Si Si6 0.565503 0.661917 0.506543
O O1 0.250000 0.155506 0.419279
O O2 0.505936 0.227962 0.381199
O O3 0.475126 0.256862 0.463777
O O4 0.500000 0.000000 0.428919
O O5 0.750000 0.838458 0.254267
O O6 0.994064 0.772038 0.209585
O O7 1.000000 0.767079 0.295392
O O8 0.000000 0.000000 0.252327
O O9 0.250000 0.655506 0.671506
O O10 0.024874 0.756862 0.627007
O O11 0.000000 0.500000 0.661865
O O12 0.750000 0.157614 0.581249
O O13 0.500000 0.250000 0.545392
O O14 0.500000 0.000000 0.584076
O O15 0.250000 0.661542 0.836517
O O16 0.000000 0.500000 0.838458
O O17 0.500000 0.500000 0.506708
O O18 0.750000 0.657614 0.509535
#
# Coordination Sequence:
#
# PCOD9377848 Si02
#       6
#     8   8   8   8   8   8
#     4  10  20  34  53  80 110 143 181 224 270 320
#     4  10  17  27  46  73 106 142 178 221 266 314
#     4  10  20  34  53  80 110 143 181 224 270 320
#     4  11  24  40  60  83 111 144 182 226 274 328
#     4  10  17  27  46  73 106 142 178 221 266 314
#     4  11  24  40  60  83 111 144 182 226 274 328
#
# _framework density 18.626215999999999
#
# number of rings (size 3 to 8) (size 9 to 14) (size 15 to 20)
#    0.000    1.667    0.000    9.000    0.000    8.000 
#    0.000    0.000    0.000    1.000    0.000    7.000 
#    0.000    0.000    0.000    0.000    0.000    0.000 
#
# Total GULP energy -134025.102750 kJ/mol
# GULP energy per Si atom -5584.379281 kJ/mol
# Density = 1.858382 g / cm^3
# Si number density = 18.626216 Si / 1000 Ang^3
#
#
#
# Elastic Constant Matrix: (Units=GPa)
#
#
# Indices 1 2 3 4 5 6 
#
# 1 114.1195 37.9949 95.5863 0.0000 0.0000 0.0000
# 2 37.9949 81.7143 81.1599 0.0000 0.0000 0.0000
# 3 95.5863 81.1599 239.6517 0.0000 0.0000 0.0000
# 4 0.0000 0.0000 0.0000 19.5377 0.0000 0.0000
# 5 0.0000 0.0000 0.0000 0.0000 9.8139 0.0000
# 6 0.0000 0.0000 0.0000 0.0000 0.0000 23.1687
#
#
#
# Elastic Compliance Matrix: (Units=1/GPa)
#
#
# Indices 1 2 3 4 5 6 
#
# 1 0.013261 -0.001375 -0.004823 0.000000 0.000000 0.000000
# 2 -0.001375 0.018583 -0.005745 0.000000 0.000000 0.000000
# 3 -0.004823 -0.005745 0.008042 0.000000 0.000000 0.000000
# 4 0.000000 0.000000 0.000000 0.051183 0.000000 0.000000
# 5 0.000000 0.000000 0.000000 0.000000 0.101896 0.000000
# 6 0.000000 0.000000 0.000000 0.000000 0.000000 0.043162
#
#
# Mechanical properties :
#
#
# Convention : Reuss Voigt Hill
#
# Bulk Modulus (GPa) = 62.50383 96.10753 79.30568
# Shear Modulus (GPa) = 18.84334 25.22038 22.03186
#
# Velocity S-wave (km/s) = 3.18411 3.68370 3.44298
# Velocity P-wave (km/s) = 6.86643 8.35481 7.64692
#
# Compressibility (1/GPa) = 0.01599902
#
# Stress axis : x y z
#
# Youngs Moduli (GPa) = 75.41121 53.81268 124.34659
#
# Poissons Ratio (x) = 0.07400 0.59977
# Poissons Ratio (y) = 0.10371 0.71434
# Poissons Ratio (z) = 0.36373 0.30914
#
# Static dielectric constant tensor:
#      x y z
#    x 1.622920 0.000000 0.000000 
#    y 0.000000 1.618350 0.000000 
#    z 0.000000 0.000000 1.697450 
# 
# From -- ./inp_files/24997.got.cif
#   From: 2010.05.17/outbox.cif.g08.bks.cpg/sg46_13_cif.got.tgz:24997.got - 2010.06.03 19:58:25.
