data_PCOD9377372
_publ_section_title
;
Structure prediction by ZEFSAII (Michael W. Deem and Ramdas Pophale) SiO2 
 PCOD9377372
Probable space group: I B A 2
;
_chemical_formula_sum "Si O2"
_cell_formula_units_Z 60
_cell_length_a 20.678020
_cell_length_b 8.347323
_cell_length_c 16.038877
_cell_angle_alpha 90.000000
_cell_angle_beta 90.000000
_cell_angle_gamma 90.000000
_cell_volume 2768.408199
_symmetry_space_group_name_H-M "I B A 2"
_symmetry_group_IT_number 45
_symmetry_cell_setting 'orthorhombic'
loop_
_space_group_symop_operation_xyz
x,y,z
-x,-y,z
-x,y,1/2+z
x,-y,1/2+z
1/2+x,1/2+y,1/2+z
1/2-x,1/2-y,1/2+z
1/2-x,1/2+y,z
1/2+x,1/2-y,z
loop_
_atom_site_type_symbol
_atom_site_label
_atom_site_fract_x
_atom_site_fract_y
_atom_site_fract_z
Si Si1 0.227340 0.202230 0.870720
Si Si2 0.106206 0.401063 0.928519
Si Si3 0.000000 0.500000 0.303143
Si Si4 0.535942 0.670232 0.728447
Si Si5 0.314532 0.436582 0.101140
Si Si6 0.938644 0.889773 0.035446
Si Si7 0.825228 0.099224 0.780977
Si Si8 0.692220 0.106834 0.532572
O O1 0.172032 0.332702 0.887925
O O2 0.192711 0.035816 0.848523
O O3 0.273786 0.260187 0.796145
O O4 0.272667 0.183778 0.951647
O O5 0.062443 0.489947 0.862145
O O6 0.069605 0.250912 0.969231
O O7 0.128543 0.518655 0.001826
O O8 0.000086 0.333668 0.252503
O O9 0.500000 0.500000 0.743071
O O10 0.550079 0.675177 0.629424
O O11 0.601916 0.662279 0.781680
O O12 0.371200 0.512739 0.044005
O O13 0.320117 0.513204 0.191816
O O14 0.321798 0.246596 0.097788
O O15 0.243922 0.482447 0.068129
O O16 0.000000 0.000000 0.014652
#
# Coordination Sequence:
#
# PCOD9377372 Si02
#       8
#     8   8   4   8   8   8   8   8
#     4  12  22  41  65  98 141 179 224 291 354 416
#     4  12  26  43  66 106 133 180 235 283 360 425
#     4  12  28  46  72 104 142 186 236 292 358 432
#     4  10  24  51  72 100 143 187 237 296 352 416
#     4  11  22  42  66  97 133 183 232 287 345 418
#     4  10  24  46  72  98 136 183 236 288 351 416
#     4  11  24  40  68 101 136 185 233 286 358 414
#     4  12  22  42  66  96 140 176 226 292 346 413
#
# _framework density 21.673103999999999
#
# number of rings (size 3 to 8) (size 9 to 14) (size 15 to 20)
#    0.000    0.800    4.000    2.400    1.867    3.200 
#    7.200    0.000    0.000    0.000    0.000    0.000 
#    0.000    0.000    0.000    0.000    0.000    0.000 
#
# Total GULP energy -167876.888295 kJ/mol
# GULP energy per Si atom -5595.896276 kJ/mol
# Density = 2.162377 g / cm^3
# Si number density = 21.673104 Si / 1000 Ang^3
#
#
#
# Elastic Constant Matrix: (Units=GPa)
#
#
# Indices 1 2 3 4 5 6 
#
# 1 58.7598 21.1345 21.8585 0.0000 0.0000 0.0000
# 2 21.1345 88.7437 12.7910 0.0000 0.0000 0.0000
# 3 21.8585 12.7910 36.5228 0.0000 0.0000 0.0000
# 4 0.0000 0.0000 0.0000 25.5786 0.0000 0.0000
# 5 0.0000 0.0000 0.0000 0.0000 33.7611 0.0000
# 6 0.0000 0.0000 0.0000 0.0000 0.0000 37.8759
#
#
#
# Elastic Compliance Matrix: (Units=1/GPa)
#
#
# Indices 1 2 3 4 5 6 
#
# 1 0.022977 -0.003675 -0.012464 0.000000 0.000000 0.000000
# 2 -0.003675 0.012455 -0.002162 0.000000 0.000000 0.000000
# 3 -0.012464 -0.002162 0.035597 0.000000 0.000000 0.000000
# 4 0.000000 0.000000 0.000000 0.039095 0.000000 0.000000
# 5 0.000000 0.000000 0.000000 0.000000 0.029620 0.000000
# 6 0.000000 0.000000 0.000000 0.000000 0.000000 0.026402
#
#
# Mechanical properties :
#
#
# Convention : Reuss Voigt Hill
#
# Bulk Modulus (GPa) = 29.04838 32.84382 30.94610
# Shear Modulus (GPa) = 23.33978 27.99259 25.66619
#
# Velocity S-wave (km/s) = 3.28518 3.59776 3.44501
# Velocity P-wave (km/s) = 5.27465 5.69610 5.48942
#
# Compressibility (1/GPa) = 0.03442533
#
# Stress axis : x y z
#
# Youngs Moduli (GPa) = 43.52156 80.28641 28.09203
#
# Poissons Ratio (x) = 0.29509 0.35015
# Poissons Ratio (y) = 0.15996 0.06075
# Poissons Ratio (z) = 0.54247 0.17361
#
# Static dielectric constant tensor:
#      x y z
#    x 1.776330 0.000000 0.000000 
#    y 0.000000 1.810410 0.000000 
#    z 0.000000 0.000000 1.778410 
# 
# From -- ./inp_files/8346.got.cif
#   From: 2010.05.17/outbox.cif.g08.bks.cpg/sg45_5_cif.got.tgz:8346.got - 2010.06.03 19:51:22.
