data_PCOD9377445
_publ_section_title
;
Structure prediction by ZEFSAII (Michael W. Deem and Ramdas Pophale) SiO2 
 PCOD9377445
Probable space group: I B A 2
;
_chemical_formula_sum "Si O2"
_cell_formula_units_Z 40
_cell_length_a 17.860470
_cell_length_b 10.764327
_cell_length_c 8.715308
_cell_angle_alpha 90.000000
_cell_angle_beta 90.000000
_cell_angle_gamma 90.000000
_cell_volume 1675.569727
_symmetry_space_group_name_H-M "I B A 2"
_symmetry_group_IT_number 45
_symmetry_cell_setting 'orthorhombic'
loop_
_space_group_symop_operation_xyz
x,y,z
-x,-y,z
-x,y,1/2+z
x,-y,1/2+z
1/2+x,1/2+y,1/2+z
1/2-x,1/2-y,1/2+z
1/2-x,1/2+y,z
1/2+x,1/2-y,z
loop_
_atom_site_type_symbol
_atom_site_label
_atom_site_fract_x
_atom_site_fract_y
_atom_site_fract_z
Si Si1 0.111389 0.509909 0.069430
Si Si2 0.791949 0.635175 0.315611
Si Si3 0.107717 0.164698 0.371745
Si Si4 0.462912 0.825710 0.826442
Si Si5 0.378555 0.590474 0.727497
O O1 0.157258 0.424899 0.185128
O O2 0.059682 0.602599 0.169840
O O3 0.174952 0.583402 0.974819
O O4 0.066193 0.420205 0.955063
O O5 0.811166 0.781061 0.324179
O O6 0.707737 0.600425 0.277733
O O7 0.109687 0.122428 0.548623
O O8 0.047497 0.275798 0.345350
O O9 0.090898 0.045445 0.268264
O O10 0.418208 0.697180 0.826088
#
# Coordination Sequence:
#
# PCOD9377445 Si02
#       5
#     8   8   8   8   8
#     4  10  25  49  80 116 149 204 267 333 393 465
#     4  11  26  47  81 112 155 200 270 327 395 472
#     4  12  30  50  77 114 161 211 263 323 400 474
#     4  11  27  50  78 114 162 201 269 324 398 474
#     4  12  29  50  77 116 161 209 263 323 405 471
#
# _framework density 23.872477
#
# number of rings (size 3 to 8) (size 9 to 14) (size 15 to 20)
#    0.000    0.800    2.000    1.800   14.000    6.400 
#    0.000    0.000    0.000    0.000    0.000    0.000 
#    0.000    0.000    0.000    0.000    0.000    0.000 
#
# Total GULP energy -112079.779973 kJ/mol
# GULP energy per Si atom -5603.988999 kJ/mol
# Density = 2.381814 g / cm^3
# Si number density = 23.872477 Si / 1000 Ang^3
#
#
#
# Elastic Constant Matrix: (Units=GPa)
#
#
# Indices 1 2 3 4 5 6 
#
# 1 114.1229 13.3576 35.4108 0.0000 0.0000 0.0000
# 2 13.3576 97.7338 13.5271 0.0000 0.0000 0.0000
# 3 35.4108 13.5271 103.9244 0.0000 0.0000 0.0000
# 4 0.0000 0.0000 0.0000 43.1608 0.0000 0.0000
# 5 0.0000 0.0000 0.0000 0.0000 31.4327 0.0000
# 6 0.0000 0.0000 0.0000 0.0000 0.0000 36.7499
#
#
#
# Elastic Compliance Matrix: (Units=1/GPa)
#
#
# Indices 1 2 3 4 5 6 
#
# 1 0.009876 -0.000900 -0.003248 0.000000 0.000000 0.000000
# 2 -0.000900 0.010502 -0.001060 0.000000 0.000000 0.000000
# 3 -0.003248 -0.001060 0.010867 0.000000 0.000000 0.000000
# 4 0.000000 0.000000 0.000000 0.023169 0.000000 0.000000
# 5 0.000000 0.000000 0.000000 0.000000 0.031814 0.000000
# 6 0.000000 0.000000 0.000000 0.000000 0.000000 0.027211
#
#
# Mechanical properties :
#
#
# Convention : Reuss Voigt Hill
#
# Bulk Modulus (GPa) = 48.01261 48.93024 48.47142
# Shear Modulus (GPa) = 38.22704 39.16771 38.69738
#
# Velocity S-wave (km/s) = 4.00597 4.05496 4.03054
# Velocity P-wave (km/s) = 6.44615 6.51648 6.48141
#
# Compressibility (1/GPa) = 0.02082786
#
# Stress axis : x y z
#
# Youngs Moduli (GPa) = 101.25970 95.22313 92.02158
#
# Poissons Ratio (x) = 0.08572 0.29887
# Poissons Ratio (y) = 0.09116 0.09756
# Poissons Ratio (z) = 0.32887 0.10095
#
# Static dielectric constant tensor:
#      x y z
#    x 1.821820 0.000000 0.000000 
#    y 0.000000 1.901980 0.000000 
#    z 0.000000 0.000000 1.904120 
# 
# From -- ./inp_files/2032.got.cif
#   From: 2010.05.17/outbox.cif.g08.bks.cpg/sg45_2_cif.got.tgz:2032.got - 2010.06.03 19:51:22.
