data_PCOD9377502
_publ_section_title
;
Structure prediction by ZEFSAII (Michael W. Deem and Ramdas Pophale) SiO2 
 PCOD9377502
Probable space group: I B A 2
;
_chemical_formula_sum "Si O2"
_cell_formula_units_Z 52
_cell_length_a 17.168442
_cell_length_b 8.649567
_cell_length_c 17.085960
_cell_angle_alpha 90.000000
_cell_angle_beta 90.000000
_cell_angle_gamma 90.000000
_cell_volume 2537.258044
_symmetry_space_group_name_H-M "I B A 2"
_symmetry_group_IT_number 45
_symmetry_cell_setting 'orthorhombic'
loop_
_space_group_symop_operation_xyz
x,y,z
-x,-y,z
-x,y,1/2+z
x,-y,1/2+z
1/2+x,1/2+y,1/2+z
1/2-x,1/2-y,1/2+z
1/2-x,1/2+y,z
1/2+x,1/2-y,z
loop_
_atom_site_type_symbol
_atom_site_label
_atom_site_fract_x
_atom_site_fract_y
_atom_site_fract_z
Si Si1 0.047960 0.360537 0.432730
Si Si2 0.199049 0.540864 0.490127
Si Si3 0.423150 0.561670 0.324647
Si Si4 0.500000 0.000000 0.583527
Si Si5 0.180223 0.150243 0.909638
Si Si6 0.166410 0.489383 0.663782
Si Si7 0.274219 0.275894 0.760820
O O1 0.132779 0.428206 0.455141
O O2 0.058737 0.210551 0.379536
O O3 0.005626 0.358840 0.519060
O O4 0.000000 0.500000 0.390628
O O5 0.174251 0.714817 0.472615
O O6 0.277139 0.496983 0.445969
O O7 0.209158 0.512113 0.581182
O O8 0.500000 0.500000 0.280101
O O9 0.399833 0.414102 0.377169
O O10 0.344467 0.603272 0.277269
O O11 0.423834 0.988767 0.637264
O O12 0.232679 0.220344 0.840095
O O13 0.205452 0.344643 0.707085
O O14 0.184351 0.632103 0.719927
#
# Coordination Sequence:
#
# PCOD9377502 Si02
#       7
#     8   8   8   4   8   8   8
#     4   9  19  41  67  98 131 168 227 287 341 403
#     4  11  20  39  70  96 127 179 230 283 334 411
#     4  12  25  41  67 103 135 175 235 290 350 413
#     4   8  22  44  70  96 132 182 232 278 346 416
#     4  12  22  41  68 100 134 177 235 285 345 420
#     4  11  24  44  69  97 138 183 231 280 357 419
#     4  12  24  44  66 100 139 185 221 286 357 428
#
# _framework density 20.494564
#
# number of rings (size 3 to 8) (size 9 to 14) (size 15 to 20)
#    0.462    0.615    4.615    1.846    0.000    2.462 
#    1.385    0.000    0.000    0.000    0.000    0.000 
#    0.000    0.000    0.000    0.000    0.000    0.000 
#
# Total GULP energy -144980.125260 kJ/mol
# GULP energy per Si atom -5576.158664 kJ/mol
# Density = 2.044792 g / cm^3
# Si number density = 20.494564 Si / 1000 Ang^3
#
#
#
# Elastic Constant Matrix: (Units=GPa)
#
#
# Indices 1 2 3 4 5 6 
#
# 1 86.5058 -1.3116 5.7525 0.0000 0.0000 0.0000
# 2 -1.3116 54.9190 1.8224 0.0000 0.0000 0.0000
# 3 5.7525 1.8224 53.4433 0.0000 0.0000 0.0000
# 4 0.0000 0.0000 0.0000 14.0247 0.0000 0.0000
# 5 0.0000 0.0000 0.0000 0.0000 27.1517 0.0000
# 6 0.0000 0.0000 0.0000 0.0000 0.0000 31.5353
#
#
#
# Elastic Compliance Matrix: (Units=1/GPa)
#
#
# Indices 1 2 3 4 5 6 
#
# 1 0.011649 0.000320 -0.001265 0.000000 0.000000 0.000000
# 2 0.000320 0.018238 -0.000656 0.000000 0.000000 0.000000
# 3 -0.001265 -0.000656 0.018870 0.000000 0.000000 0.000000
# 4 0.000000 0.000000 0.000000 0.071303 0.000000 0.000000
# 5 0.000000 0.000000 0.000000 0.000000 0.036830 0.000000
# 6 0.000000 0.000000 0.000000 0.000000 0.000000 0.031711
#
#
# Mechanical properties :
#
#
# Convention : Reuss Voigt Hill
#
# Bulk Modulus (GPa) = 21.95151 23.04384 22.49767
# Shear Modulus (GPa) = 24.15606 27.11599 25.63603
#
# Velocity S-wave (km/s) = 3.43688 3.64137 3.54060
# Velocity P-wave (km/s) = 5.14623 5.38030 5.26457
#
# Compressibility (1/GPa) = 0.04555495
#
# Stress axis : x y z
#
# Youngs Moduli (GPa) = 85.84518 54.83040 52.99440
#
# Poissons Ratio (x) = -0.01756 0.06703
# Poissons Ratio (y) = -0.02749 0.03478
# Poissons Ratio (z) = 0.10857 0.03599
#
# Static dielectric constant tensor:
#      x y z
#    x 1.781740 0.000000 0.000000 
#    y 0.000000 1.749030 0.000000 
#    z 0.000000 0.000000 1.714150 
# 
# From -- ./inp_files/7670.got.cif
#   From: 2010.05.17/outbox.cif.g08.bks.cpg/sg45_4_cif.got.tgz:7670.got - 2010.06.03 19:51:22.
