data_PCOD9377558
_publ_section_title
;
Structure prediction by ZEFSAII (Michael W. Deem and Ramdas Pophale) SiO2 
 PCOD9377558
Probable space group: I B A 2
;
_chemical_formula_sum "Si O2"
_cell_formula_units_Z 48
_cell_length_a 9.336205
_cell_length_b 14.068303
_cell_length_c 15.694474
_cell_angle_alpha 90.000000
_cell_angle_beta 90.000000
_cell_angle_gamma 90.000000
_cell_volume 2061.383795
_symmetry_space_group_name_H-M "I B A 2"
_symmetry_group_IT_number 45
_symmetry_cell_setting 'orthorhombic'
loop_
_space_group_symop_operation_xyz
x,y,z
-x,-y,z
-x,y,1/2+z
x,-y,1/2+z
1/2+x,1/2+y,1/2+z
1/2-x,1/2-y,1/2+z
1/2-x,1/2+y,z
1/2+x,1/2-y,z
loop_
_atom_site_type_symbol
_atom_site_label
_atom_site_fract_x
_atom_site_fract_y
_atom_site_fract_z
Si Si1 0.832712 0.472930 0.700300
Si Si2 0.421619 0.814960 0.877576
Si Si3 0.587458 0.586658 0.654874
Si Si4 0.174652 0.271844 0.256458
Si Si5 0.959967 0.871102 0.966750
Si Si6 0.728593 0.476505 0.389558
O O1 0.743828 0.541129 0.637869
O O2 0.799419 0.360432 0.692624
O O3 0.765181 0.502118 0.791832
O O4 0.000000 0.500000 0.698132
O O5 0.308214 0.770663 0.808944
O O6 0.566801 0.819008 0.824421
O O7 0.439547 0.738868 0.951208
O O8 0.363972 0.913008 0.915173
O O9 0.500000 0.500000 0.697256
O O10 0.603314 0.682346 0.708763
O O11 0.513298 0.607462 0.564930
O O12 0.090640 0.908988 0.908285
O O13 0.819291 0.927974 0.936088
#
# Coordination Sequence:
#
# PCOD9377558 Si02
#       6
#     8   8   8   8   8   8
#     4  12  24  43  70 104 141 174 237 298 353 413
#     4  12  22  42  70  99 133 177 238 291 336 412
#     4  12  26  46  71 100 144 193 226 286 361 434
#     4  12  24  40  70 105 131 183 242 286 343 421
#     4  11  25  45  69 105 138 182 238 281 355 434
#     4  11  22  43  71  98 133 185 233 282 349 414
#
# _framework density 23.285329000000001
#
# number of rings (size 3 to 8) (size 9 to 14) (size 15 to 20)
#    0.000    0.333    8.333    1.000    2.333    1.333 
#    6.000    2.500    0.000    0.000    0.000    0.000 
#    0.000    0.000    0.000    0.000    0.000    0.000 
#
# Total GULP energy -134199.994562 kJ/mol
# GULP energy per Si atom -5591.666440 kJ/mol
# Density = 2.323233 g / cm^3
# Si number density = 23.285329 Si / 1000 Ang^3
#
#
#
# Elastic Constant Matrix: (Units=GPa)
#
#
# Indices 1 2 3 4 5 6 
#
# 1 100.7131 12.1202 25.1697 0.0000 0.0000 0.0000
# 2 12.1202 122.0890 11.4990 0.0000 0.0000 0.0000
# 3 25.1697 11.4990 38.9271 0.0000 0.0000 0.0000
# 4 0.0000 0.0000 0.0000 20.3594 0.0000 0.0000
# 5 0.0000 0.0000 0.0000 0.0000 16.4273 0.0000
# 6 0.0000 0.0000 0.0000 0.0000 0.0000 46.4252
#
#
#
# Elastic Compliance Matrix: (Units=1/GPa)
#
#
# Indices 1 2 3 4 5 6 
#
# 1 0.011869 -0.000468 -0.007536 0.000000 0.000000 0.000000
# 2 -0.000468 0.008444 -0.002191 0.000000 0.000000 0.000000
# 3 -0.007536 -0.002191 0.031209 0.000000 0.000000 0.000000
# 4 0.000000 0.000000 0.000000 0.049117 0.000000 0.000000
# 5 0.000000 0.000000 0.000000 0.000000 0.060874 0.000000
# 6 0.000000 0.000000 0.000000 0.000000 0.000000 0.021540
#
#
# Mechanical properties :
#
#
# Convention : Reuss Voigt Hill
#
# Bulk Modulus (GPa) = 32.12323 39.92301 36.02312
# Shear Modulus (GPa) = 23.38404 30.83841 27.11122
#
# Velocity S-wave (km/s) = 3.17241 3.64314 3.41589
# Velocity P-wave (km/s) = 5.21961 5.90584 5.57330
#
# Compressibility (1/GPa) = 0.03113012
#
# Stress axis : x y z
#
# Youngs Moduli (GPa) = 84.25379 118.43224 32.04209
#
# Poissons Ratio (x) = 0.05549 0.24147
# Poissons Ratio (y) = 0.03947 0.07021
# Poissons Ratio (z) = 0.63493 0.25952
#
# Static dielectric constant tensor:
#      x y z
#    x 1.928920 0.000000 0.000000 
#    y 0.000000 1.919280 0.000000 
#    z 0.000000 0.000000 1.865530 
# 
# From -- ./inp_files/7565.got.cif
#   From: 2010.05.17/outbox.cif.g08.bks.cpg/sg45_4_cif.got.tgz:7565.got - 2010.06.03 19:51:22.
