data_PCOD9377693
_publ_section_title
;
Structure prediction by ZEFSAII (Michael W. Deem and Ramdas Pophale) SiO2 
 PCOD9377693
Probable space group: I B A 2
;
_chemical_formula_sum "Si O2"
_cell_formula_units_Z 40
_cell_length_a 10.534772
_cell_length_b 17.061034
_cell_length_c 8.388795
_cell_angle_alpha 90.000000
_cell_angle_beta 90.000000
_cell_angle_gamma 90.000000
_cell_volume 1507.752547
_symmetry_space_group_name_H-M "I B A 2"
_symmetry_group_IT_number 45
_symmetry_cell_setting 'orthorhombic'
loop_
_space_group_symop_operation_xyz
x,y,z
-x,-y,z
-x,y,1/2+z
x,-y,1/2+z
1/2+x,1/2+y,1/2+z
1/2-x,1/2-y,1/2+z
1/2-x,1/2+y,z
1/2+x,1/2-y,z
loop_
_atom_site_type_symbol
_atom_site_label
_atom_site_fract_x
_atom_site_fract_y
_atom_site_fract_z
Si Si1 0.924240 0.152814 0.421200
Si Si2 0.857541 0.646492 0.960579
Si Si3 0.000000 0.500000 0.341510
Si Si4 0.260874 0.448076 0.193596
Si Si5 0.151544 0.769831 0.738656
Si Si6 0.500000 0.500000 0.074935
O O1 0.028371 0.214297 0.351846
O O2 0.855225 0.175168 0.584293
O O3 0.002062 0.077146 0.471352
O O4 0.875790 0.992579 0.182051
O O5 0.780042 0.704815 0.838128
O O6 0.758759 0.580455 0.013871
O O7 0.875335 0.690662 0.132402
O O8 0.129518 0.485581 0.246143
O O9 0.025070 0.588146 0.417520
O O10 0.319349 0.377224 0.297451
#
# Coordination Sequence:
#
# PCOD9377693 Si02
#       6
#     8   8   4   8   8   4
#     4  12  25  47  83 121 166 225 298 369 430 549
#     4  12  28  54  84 127 181 241 295 379 463 558
#     4  12  30  52  86 136 182 234 300 384 478 548
#     4  12  26  51  82 126 174 226 290 373 449 541
#     4  12  27  52  85 124 173 241 307 360 461 551
#     4  12  22  46  88 124 166 220 296 368 448 530
#
# _framework density 26.529554000000001
#
# number of rings (size 3 to 8) (size 9 to 14) (size 15 to 20)
#    0.000    0.000    4.000    4.800    2.800    1.600 
#    3.600    0.000    0.000    1.200    0.000    0.000 
#    0.000    0.000    0.000    0.000    0.000    0.000 
#
# Total GULP energy -111441.333306 kJ/mol
# GULP energy per Si atom -5572.066665 kJ/mol
# Density = 2.646917 g / cm^3
# Si number density = 26.529554 Si / 1000 Ang^3
#
#
#
# Elastic Constant Matrix: (Units=GPa)
#
#
# Indices 1 2 3 4 5 6 
#
# 1 181.1695 46.6957 51.8458 0.0000 0.0000 0.0000
# 2 46.6957 129.0886 47.0058 -0.0001 0.0000 0.0000
# 3 51.8458 47.0058 124.0556 -0.0005 -0.0002 -0.0001
# 4 0.0000 -0.0001 -0.0005 67.4674 -0.0001 0.0000
# 5 0.0000 0.0000 -0.0002 -0.0001 23.0976 -0.0001
# 6 0.0000 0.0000 -0.0001 0.0000 -0.0001 35.3700
#
#
#
# Elastic Compliance Matrix: (Units=1/GPa)
#
#
# Indices 1 2 3 4 5 6 
#
# 1 0.006539 -0.001590 -0.002131 0.000000 0.000000 0.000000
# 2 -0.001590 0.009373 -0.002887 0.000000 0.000000 0.000000
# 3 -0.002131 -0.002887 0.010045 0.000000 0.000000 0.000000
# 4 0.000000 0.000000 0.000000 0.014822 0.000000 0.000000
# 5 0.000000 0.000000 0.000000 0.000000 0.043295 0.000000
# 6 0.000000 0.000000 0.000000 0.000000 0.000000 0.028273
#
#
# Mechanical properties :
#
#
# Convention : Reuss Voigt Hill
#
# Bulk Modulus (GPa) = 78.47614 80.60093 79.53853
# Shear Modulus (GPa) = 38.51825 44.43809 41.47817
#
# Velocity S-wave (km/s) = 3.81451 4.09717 3.95836
# Velocity P-wave (km/s) = 7.00325 7.26842 7.13707
#
# Compressibility (1/GPa) = 0.01274273
#
# Stress axis : x y z
#
# Youngs Moduli (GPa) = 152.92595 106.68994 99.54927
#
# Poissons Ratio (x) = 0.16960 0.21209
# Poissons Ratio (y) = 0.24309 0.28741
# Poissons Ratio (z) = 0.32581 0.30803
#
# Static dielectric constant tensor:
#      x y z
#    x 2.616160 0.000000 0.000000 
#    y 0.000000 2.386660 0.000000 
#    z 0.000000 0.000000 2.105220 
# 
# From -- ./inp_files/2047.got.cif
#   From: 2010.05.17/outbox.cif.g08.bks.cpg/sg45_2_cif.got.tgz:2047.got - 2010.06.03 19:51:22.
