data_PCOD9377082
_publ_section_title
;
Structure prediction by ZEFSAII (Michael W. Deem and Ramdas Pophale) SiO2 
 PCOD9377082
Probable space group: I B A 2
;
_chemical_formula_sum "Si O2"
_cell_formula_units_Z 60
_cell_length_a 5.404873
_cell_length_b 28.251923
_cell_length_c 15.302789
_cell_angle_alpha 90.000000
_cell_angle_beta 90.000000
_cell_angle_gamma 90.000000
_cell_volume 2336.706129
_symmetry_space_group_name_H-M "I B A 2"
_symmetry_group_IT_number 45
_symmetry_cell_setting 'orthorhombic'
loop_
_space_group_symop_operation_xyz
x,y,z
-x,-y,z
-x,y,1/2+z
x,-y,1/2+z
1/2+x,1/2+y,1/2+z
1/2-x,1/2-y,1/2+z
1/2-x,1/2+y,z
1/2+x,1/2-y,z
loop_
_atom_site_type_symbol
_atom_site_label
_atom_site_fract_x
_atom_site_fract_y
_atom_site_fract_z
Si Si1 0.935044 0.774396 0.971130
Si Si2 0.810716 0.867156 0.666558
Si Si3 0.000000 0.500000 0.764459
Si Si4 0.443883 0.447213 0.441190
Si Si5 0.901025 0.399654 0.832642
Si Si6 0.757097 0.364420 0.474567
Si Si7 0.846454 0.044775 0.616932
Si Si8 0.915934 0.773245 0.182848
O O1 0.162639 0.740884 0.939442
O O2 0.038417 0.827018 0.953818
O O3 0.911530 0.770043 0.076725
O O4 0.602263 0.879866 0.735743
O O5 0.682159 0.851865 0.575332
O O6 0.983484 0.825445 0.701604
O O7 0.987280 0.912572 0.652356
O O8 0.017450 0.545450 0.826669
O O9 0.198148 0.479569 0.694833
O O10 0.500000 0.500000 0.409372
O O11 0.376382 0.411614 0.363070
O O12 0.674078 0.419091 0.480680
O O13 0.241024 0.441264 0.520633
O O14 0.038364 0.366128 0.900113
O O15 0.000000 0.000000 0.582584
O O16 0.141134 0.739442 0.214179
#
# Coordination Sequence:
#
# PCOD9377082 Si02
#       8
#     8   8   4   8   8   8   8   8
#     4   9  19  38  70 100 136 182 235 290 354 423
#     4  10  23  44  68 100 137 183 231 293 356 419
#     4  12  26  38  68  96 134 186 228 278 346 412
#     4  10  24  42  65  91 138 175 226 285 341 414
#     4  12  26  39  66  98 134 179 232 283 344 425
#     4  10  24  44  65 101 136 180 231 284 355 418
#     4  10  22  43  64  95 134 177 226 279 340 414
#     4   9  19  40  67 101 138 183 238 292 358 430
#
# _framework density 25.677168000000002
#
# number of rings (size 3 to 8) (size 9 to 14) (size 15 to 20)
#    0.000    1.867    1.333    0.800    7.467    1.600 
#    4.800    1.333    0.000    0.000    0.000    0.000 
#    0.000    0.000    0.000    0.000    0.000    0.000 
#
# Total GULP energy -167360.585760 kJ/mol
# GULP energy per Si atom -5578.686192 kJ/mol
# Density = 2.561873 g / cm^3
# Si number density = 25.677168 Si / 1000 Ang^3
#
#
#
# Elastic Constant Matrix: (Units=GPa)
#
#
# Indices 1 2 3 4 5 6 
#
# 1 51.3691 5.2625 3.4852 0.0000 0.0000 0.0000
# 2 5.2625 125.3577 4.1655 0.0000 0.0000 0.0000
# 3 3.4852 4.1655 70.8094 0.0000 0.0000 0.0000
# 4 0.0000 0.0000 0.0000 2.6104 0.0000 0.0000
# 5 0.0000 0.0000 0.0000 0.0000 22.8487 0.0000
# 6 0.0000 0.0000 0.0000 0.0000 0.0000 39.4391
#
#
#
# Elastic Compliance Matrix: (Units=1/GPa)
#
#
# Indices 1 2 3 4 5 6 
#
# 1 0.019610 -0.000793 -0.000919 0.000000 0.000000 0.000000
# 2 -0.000793 0.008025 -0.000433 0.000000 0.000000 0.000000
# 3 -0.000919 -0.000433 0.014193 0.000000 0.000000 0.000000
# 4 0.000000 0.000000 0.000000 0.383084 0.000000 0.000000
# 5 0.000000 0.000000 0.000000 0.000000 0.043766 0.000000
# 6 0.000000 0.000000 0.000000 0.000000 0.000000 0.025356
#
#
# Mechanical properties :
#
#
# Convention : Reuss Voigt Hill
#
# Bulk Modulus (GPa) = 26.63846 30.37362 28.50604
# Shear Modulus (GPa) = 9.78787 28.62118 19.20452
#
# Velocity S-wave (km/s) = 1.95453 3.34227 2.73778
# Velocity P-wave (km/s) = 3.93579 5.17195 4.59562
#
# Compressibility (1/GPa) = 0.03753971
#
# Stress axis : x y z
#
# Youngs Moduli (GPa) = 50.99311 124.61306 70.45678
#
# Poissons Ratio (x) = 0.09878 0.06472
# Poissons Ratio (y) = 0.04042 0.03051
# Poissons Ratio (z) = 0.04684 0.05396
#
# Static dielectric constant tensor:
#      x y z
#    x 2.105500 0.000000 0.000000 
#    y 0.000000 2.028660 0.000000 
#    z 0.000000 0.000000 2.295370 
# 
# From -- ./inp_files/7354.got.cif
#   From: 2010.05.17/outbox.cif.g08.bks.cpg/sg45_4_cif.got.tgz:7354.got - 2010.06.03 19:51:22.
