data_PCOD9377883
_publ_section_title
;
Structure prediction by ZEFSAII (Michael W. Deem and Ramdas Pophale) SiO2 
 PCOD9377883
Probable space group: I M A 2
;
_chemical_formula_sum "Si O2"
_cell_formula_units_Z 64
_cell_length_a 8.476860
_cell_length_b 24.023412
_cell_length_c 19.793964
_cell_angle_alpha 90.000000
_cell_angle_beta 90.000000
_cell_angle_gamma 90.000000
_cell_volume 4030.904195
_symmetry_space_group_name_H-M "I M A 2"
_symmetry_group_IT_number 46
_symmetry_cell_setting 'orthorhombic'
loop_
_space_group_symop_operation_xyz
x,y,z
-x,-y,z
1/2-x,y,z
1/2+x,-y,z
1/2+x,1/2+y,1/2+z
1/2-x,1/2-y,1/2+z
-x,1/2+y,1/2+z
x,1/2-y,1/2+z
loop_
_atom_site_type_symbol
_atom_site_label
_atom_site_fract_x
_atom_site_fract_y
_atom_site_fract_z
Si Si1 0.557854 0.119767 0.415340
Si Si2 0.940337 0.334637 0.140525
Si Si3 0.061236 0.937525 0.275722
Si Si4 0.940901 0.231436 0.768541
Si Si5 0.938903 0.839115 0.189686
Si Si6 0.940691 0.062143 0.554872
Si Si7 0.561511 0.772126 0.060732
Si Si8 0.440522 0.749290 0.917919
O O1 0.750000 0.120093 0.414783
O O2 0.504888 0.089900 0.346601
O O3 0.507455 0.086427 0.482036
O O4 0.508526 0.184274 0.418524
O O5 0.750000 0.335244 0.140517
O O6 0.993285 0.315536 0.215104
O O7 0.994381 0.393766 0.111699
O O8 0.993049 0.285756 0.089833
O O9 0.250000 0.938129 0.277220
O O10 0.005610 0.897133 0.215922
O O11 0.000000 0.000000 0.269386
O O12 0.750000 0.233301 0.767764
O O13 0.990872 0.225266 0.846059
O O14 0.000397 0.290221 0.739248
O O15 0.750000 0.840565 0.192439
O O16 0.987508 0.819543 0.114459
O O17 0.750000 0.061623 0.554726
O O18 0.000000 0.000000 0.565101
O O19 0.750000 0.768594 0.062135
O O20 0.504336 0.778910 0.984494
O O21 0.250000 0.749826 0.920765
#
# Coordination Sequence:
#
# PCOD9377883 Si02
#       8
#     8   8   8   8   8   8   8   8
#     4   9  17  30  45  66  95 125 159 194 223 267
#     4   9  17  31  49  67  90 122 157 197 239 276
#     4  11  21  34  50  69  96 130 169 203 237 280
#     4   9  17  30  50  71  91 120 157 196 240 288
#     4  10  20  33  47  68  97 126 158 199 241 284
#     4  10  19  31  45  63  91 125 159 191 224 264
#     4  10  20  31  46  70  97 123 156 196 240 287
#     4  10  17  30  49  70  95 124 158 193 233 286
#
# _framework density 15.877331
#
# number of rings (size 3 to 8) (size 9 to 14) (size 15 to 20)
#    0.000    2.250    2.500    1.500    0.000    2.500 
#    0.000    0.625    0.000    0.000    0.000    0.875 
#    0.000    4.000    0.000    0.000    0.000    0.000 
#
# Total GULP energy -178455.423563 kJ/mol
# GULP energy per Si atom -5576.731986 kJ/mol
# Density = 1.584119 g / cm^3
# Si number density = 15.877331 Si / 1000 Ang^3
#
#
#
# Elastic Constant Matrix: (Units=GPa)
#
#
# Indices 1 2 3 4 5 6 
#
# 1 6.9400 15.9914 21.4261 0.0000 0.0000 0.0000
# 2 15.9914 94.9742 69.6377 0.0000 0.0000 0.0000
# 3 21.4261 69.6377 149.0359 0.0000 0.0000 0.0000
# 4 0.0000 0.0000 0.0000 20.7680 0.0000 0.0000
# 5 0.0000 0.0000 0.0000 0.0000 -10.7766 0.0000
# 6 0.0000 0.0000 0.0000 0.0000 0.0000 21.0866
#
#
#
# Elastic Compliance Matrix: (Units=1/GPa)
#
#
# Indices 1 2 3 4 5 6 
#
# 1 0.304232 -0.029138 -0.030123 0.000000 0.000000 0.000000
# 2 -0.029138 0.018807 -0.004599 0.000000 0.000000 0.000000
# 3 -0.030123 -0.004599 0.013189 0.000000 0.000000 0.000000
# 4 0.000000 0.000000 0.000000 0.048151 0.000000 0.000000
# 5 0.000000 0.000000 0.000000 0.000000 -0.092794 0.000000
# 6 0.000000 0.000000 0.000000 0.000000 0.000000 0.047423
#
#
# Mechanical properties :
#
#
# Convention : Reuss Voigt Hill
#
# Bulk Modulus (GPa) = 4.79596 51.67340 28.23468
# Shear Modulus (GPa) = 9.32432 15.80860 12.56646
#
# Velocity S-wave (km/s) = 2.42600 3.15885 2.81636
# Velocity P-wave (km/s) = 3.29765 6.77647 5.32893
#
# Compressibility (1/GPa) = 0.20850868
#
# Stress axis : x y z
#
# Youngs Moduli (GPa) = 3.28696 53.17087 75.81974
#
# Poissons Ratio (x) = 1.54931 2.28391
# Poissons Ratio (y) = 0.09578 0.34867
# Poissons Ratio (z) = 0.09901 0.24452
#
# Static dielectric constant tensor:
#      x y z
#    x 1.548180 0.000000 0.000000 
#    y 0.000000 1.503290 0.000000 
#    z 0.000000 0.000000 1.552290 
# 
# From -- ./inp_files/18629.got.cif
#   From: 2010.05.17/outbox.cif.g08.bks.cpg/sg46_10_cif.got.tgz:18629.got - 2010.06.03 19:58:25.
