data_PCOD9377325
_publ_section_title
;
Structure prediction by ZEFSAII (Michael W. Deem and Ramdas Pophale) SiO2 
 PCOD9377325
Probable space group: I B A 2
;
_chemical_formula_sum "Si O2"
_cell_formula_units_Z 60
_cell_length_a 26.802520
_cell_length_b 9.217149
_cell_length_c 10.998090
_cell_angle_alpha 90.000000
_cell_angle_beta 90.000000
_cell_angle_gamma 90.000000
_cell_volume 2716.999173
_symmetry_space_group_name_H-M "I B A 2"
_symmetry_group_IT_number 45
_symmetry_cell_setting 'orthorhombic'
loop_
_space_group_symop_operation_xyz
x,y,z
-x,-y,z
-x,y,1/2+z
x,-y,1/2+z
1/2+x,1/2+y,1/2+z
1/2-x,1/2-y,1/2+z
1/2-x,1/2+y,z
1/2+x,1/2-y,z
loop_
_atom_site_type_symbol
_atom_site_label
_atom_site_fract_x
_atom_site_fract_y
_atom_site_fract_z
Si Si1 0.422856 0.029399 0.684550
Si Si2 0.744226 0.765414 0.189236
Si Si3 0.490295 0.241276 0.193437
Si Si4 0.127090 0.398430 0.441983
Si Si5 0.500000 0.500000 0.870224
Si Si6 0.913158 0.908812 0.518543
Si Si7 0.726120 0.986952 0.856313
Si Si8 0.193612 0.991356 0.049709
O O1 0.459076 0.163676 0.649729
O O2 0.389570 0.062608 0.803690
O O3 0.456470 0.894517 0.731026
O O4 0.398938 0.975788 0.557714
O O5 0.774594 0.648285 0.266287
O O6 0.714367 0.866124 0.283933
O O7 0.710937 0.663219 0.104518
O O8 0.780079 0.876136 0.119580
O O9 0.506032 0.353030 0.295914
O O10 0.454359 0.335254 0.106278
O O11 0.113640 0.228485 0.454185
O O12 0.184420 0.448927 0.454308
O O13 0.448199 0.513032 0.940993
O O14 0.865631 0.997781 0.565175
O O15 0.781015 0.001561 0.916195
#
# Coordination Sequence:
#
# PCOD9377325 Si02
#       8
#     8   8   8   8   4   8   8   8
#     4  10  24  45  73 103 139 187 243 308 361 423
#     4  10  24  43  73  98 146 185 237 298 368 437
#     4  10  24  44  67  97 139 181 243 299 360 434
#     4  11  24  43  76 108 141 189 247 303 367 432
#     4  12  24  46  66  98 142 182 240 302 368 442
#     4  11  25  44  70 100 142 190 240 302 371 438
#     4  11  24  44  68 107 141 186 239 296 360 453
#     4  11  24  47  68 103 144 187 238 303 366 442
#
# _framework density 22.083186000000001
#
# number of rings (size 3 to 8) (size 9 to 14) (size 15 to 20)
#    0.000    1.333    1.333    2.800    9.333    4.267 
#    4.800    0.000    0.000    0.000    0.000    0.000 
#    0.000    0.000    0.000    0.000    0.000    0.000 
#
# Total GULP energy -167435.973032 kJ/mol
# GULP energy per Si atom -5581.199101 kJ/mol
# Density = 2.203292 g / cm^3
# Si number density = 22.083186 Si / 1000 Ang^3
#
#
#
# Elastic Constant Matrix: (Units=GPa)
#
#
# Indices 1 2 3 4 5 6 
#
# 1 99.6612 37.6959 25.8637 0.0000 0.0000 0.0000
# 2 37.6959 91.1416 20.5775 0.0000 0.0000 0.0000
# 3 25.8637 20.5775 57.1991 0.0000 0.0000 0.0000
# 4 0.0000 0.0000 0.0000 -16.8522 0.0000 0.0000
# 5 0.0000 0.0000 0.0000 0.0000 29.2917 0.0000
# 6 0.0000 0.0000 0.0000 0.0000 0.0000 40.3790
#
#
#
# Elastic Compliance Matrix: (Units=1/GPa)
#
#
# Indices 1 2 3 4 5 6 
#
# 1 0.012765 -0.004328 -0.004215 0.000000 0.000000 0.000000
# 2 -0.004328 0.013409 -0.002867 0.000000 0.000000 0.000000
# 3 -0.004215 -0.002867 0.020420 0.000000 0.000000 0.000000
# 4 0.000000 0.000000 0.000000 -0.059339 0.000000 0.000000
# 5 0.000000 0.000000 0.000000 0.000000 0.034139 0.000000
# 6 0.000000 0.000000 0.000000 0.000000 0.000000 0.024765
#
#
# Mechanical properties :
#
#
# Convention : Reuss Voigt Hill
#
# Bulk Modulus (GPa) = 42.06198 46.25291 44.15745
# Shear Modulus (GPa) = 65.01621 21.48802 43.25212
#
# Velocity S-wave (km/s) = 5.43189 3.12276 4.43041
# Velocity P-wave (km/s) = 7.64388 5.83031 6.79785
#
# Compressibility (1/GPa) = 0.02377444
#
# Stress axis : x y z
#
# Youngs Moduli (GPa) = 78.34036 74.57539 48.97142
#
# Poissons Ratio (x) = 0.32275 0.20641
# Poissons Ratio (y) = 0.33905 0.14040
# Poissons Ratio (z) = 0.33020 0.21381
#
# Static dielectric constant tensor:
#      x y z
#    x 1.828930 0.000000 0.000000 
#    y 0.000000 1.849870 0.000000 
#    z 0.000000 0.000000 1.862230 
# 
# From -- ./inp_files/4877.got.cif
#   From: 2010.05.17/outbox.cif.g08.bks.cpg/sg45_3_cif.got.tgz:4877.got - 2010.06.03 19:51:22.
