data_PCOD9377065
_publ_section_title
;
Structure prediction by ZEFSAII (Michael W. Deem and Ramdas Pophale) SiO2 
 PCOD9377065
Probable space group: I B A 2
;
_chemical_formula_sum "Si O2"
_cell_formula_units_Z 40
_cell_length_a 14.237868
_cell_length_b 11.602696
_cell_length_c 11.958385
_cell_angle_alpha 90.000000
_cell_angle_beta 90.000000
_cell_angle_gamma 90.000000
_cell_volume 1975.497149
_symmetry_space_group_name_H-M "I B A 2"
_symmetry_group_IT_number 45
_symmetry_cell_setting 'orthorhombic'
loop_
_space_group_symop_operation_xyz
x,y,z
-x,-y,z
-x,y,1/2+z
x,-y,1/2+z
1/2+x,1/2+y,1/2+z
1/2-x,1/2-y,1/2+z
1/2-x,1/2+y,z
1/2+x,1/2-y,z
loop_
_atom_site_type_symbol
_atom_site_label
_atom_site_fract_x
_atom_site_fract_y
_atom_site_fract_z
Si Si1 0.601352 0.980191 0.726110
Si Si2 0.138207 0.275730 0.379456
Si Si3 0.657746 0.209737 0.824106
Si Si4 0.494981 0.363280 0.226380
Si Si5 0.523930 0.182617 0.035286
O O1 0.652301 0.884158 0.797698
O O2 0.569065 0.918309 0.611533
O O3 0.500000 0.000000 0.783889
O O4 0.652840 0.101883 0.737869
O O5 0.241179 0.222465 0.381017
O O6 0.067407 0.185280 0.319830
O O7 0.083235 0.321598 0.488803
O O8 0.608966 0.317500 0.760594
O O9 0.587876 0.188102 0.926825
O O10 0.500000 0.500000 0.216680
O O11 0.524618 0.295988 0.113629
#
# Coordination Sequence:
#
# PCOD9377065 Si02
#       5
#     8   8   8   8   8
#     4  11  21  42  68  91 128 177 217 272 331 399
#     4  10  24  42  64  96 129 169 222 276 328 393
#     4  11  24  42  67  96 130 169 222 281 327 398
#     4  10  23  43  64  87 136 173 208 267 342 394
#     4  10  22  42  67  94 130 172 221 260 342 394
#
# _framework density 20.248068
#
# number of rings (size 3 to 8) (size 9 to 14) (size 15 to 20)
#    0.000    1.600    6.000    0.000    5.600    6.400 
#    0.000    0.000    0.000    0.000    0.000    0.000 
#    0.000    0.000    0.000    0.000    0.000    0.000 
#
# Total GULP energy -111388.553071 kJ/mol
# GULP energy per Si atom -5569.427654 kJ/mol
# Density = 2.020198 g / cm^3
# Si number density = 20.248068 Si / 1000 Ang^3
#
#
#
# Elastic Constant Matrix: (Units=GPa)
#
#
# Indices 1 2 3 4 5 6 
#
# 1 117.2800 26.8088 30.8491 0.0000 0.0000 0.0000
# 2 26.8088 128.4797 59.9315 0.0000 0.0000 0.0000
# 3 30.8491 59.9315 109.5323 0.0000 0.0000 0.0000
# 4 0.0000 0.0000 0.0000 -7.1430 0.0000 0.0000
# 5 0.0000 0.0000 0.0000 0.0000 12.9443 0.0000
# 6 0.0000 0.0000 0.0000 0.0000 0.0000 20.1573
#
#
#
# Elastic Compliance Matrix: (Units=1/GPa)
#
#
# Indices 1 2 3 4 5 6 
#
# 1 0.009297 -0.000965 -0.002091 0.000000 0.000000 0.000000
# 2 -0.000965 0.010551 -0.005501 0.000000 0.000000 0.000000
# 3 -0.002091 -0.005501 0.012729 0.000000 0.000000 0.000000
# 4 0.000000 0.000000 0.000000 -0.139997 0.000000 0.000000
# 5 0.000000 0.000000 0.000000 0.000000 0.077254 0.000000
# 6 0.000000 0.000000 0.000000 0.000000 0.000000 0.049610
#
#
# Mechanical properties :
#
#
# Convention : Reuss Voigt Hill
#
# Bulk Modulus (GPa) = 64.66943 65.60788 65.13865
# Shear Modulus (GPa) = 119.87293 21.03856 70.45575
#
# Velocity S-wave (km/s) = 7.70264 3.22691 5.90524
# Velocity P-wave (km/s) = 10.54113 6.80855 8.87333
#
# Compressibility (1/GPa) = 0.01546326
#
# Stress axis : x y z
#
# Youngs Moduli (GPa) = 107.56111 94.77980 78.56344
#
# Poissons Ratio (x) = 0.09144 0.16424
# Poissons Ratio (y) = 0.10377 0.43220
# Poissons Ratio (z) = 0.22487 0.52140
#
# Static dielectric constant tensor:
#      x y z
#    x 1.720530 0.000000 0.000000 
#    y 0.000000 1.790130 0.000000 
#    z 0.000000 0.000000 1.751190 
# 
# From -- ./inp_files/3571.got.cif
#   From: 2010.05.17/outbox.cif.g08.bks.cpg/sg45_2_cif.got.tgz:3571.got - 2010.06.03 19:51:22.
