data_PCOD9377289
_publ_section_title
;
Structure prediction by ZEFSAII (Michael W. Deem and Ramdas Pophale) SiO2 
 PCOD9377289
Probable space group: I B A 2
;
_chemical_formula_sum "Si O2"
_cell_formula_units_Z 48
_cell_length_a 19.841678
_cell_length_b 8.021106
_cell_length_c 12.206405
_cell_angle_alpha 90.000000
_cell_angle_beta 90.000000
_cell_angle_gamma 90.000000
_cell_volume 1942.676240
_symmetry_space_group_name_H-M "I B A 2"
_symmetry_group_IT_number 45
_symmetry_cell_setting 'orthorhombic'
loop_
_space_group_symop_operation_xyz
x,y,z
-x,-y,z
-x,y,1/2+z
x,-y,1/2+z
1/2+x,1/2+y,1/2+z
1/2-x,1/2-y,1/2+z
1/2-x,1/2+y,z
1/2+x,1/2-y,z
loop_
_atom_site_type_symbol
_atom_site_label
_atom_site_fract_x
_atom_site_fract_y
_atom_site_fract_z
Si Si1 0.000000 0.500000 0.920001
Si Si2 0.202555 0.465369 0.825826
Si Si3 0.702549 0.534620 0.021422
Si Si4 0.801192 0.250027 0.673617
Si Si5 0.500000 0.500000 0.427460
Si Si6 0.416654 0.238776 0.044160
Si Si7 0.583342 0.261204 0.803294
O O1 0.061799 0.559815 0.997248
O O2 0.021028 0.352741 0.839350
O O3 0.250043 0.529147 0.923574
O O4 0.166645 0.614580 0.756841
O O5 0.253935 0.365189 0.748436
O O6 0.147735 0.326693 0.857501
O O7 0.647742 0.673414 0.989902
O O8 0.754003 0.634669 0.098752
O O9 0.666644 0.385437 0.090444
O O10 0.521039 0.352747 0.508105
O O11 0.438196 0.440164 0.350226
O O12 0.406097 0.250014 0.173726
#
# Coordination Sequence:
#
# PCOD9377289 Si02
#       7
#     4   8   8   8   4   8   8
#     4  10  26  44  74 104 138 190 244 298 354 422
#     4  11  24  42  70 103 142 187 235 296 368 434
#     4  11  24  42  70 103 142 187 235 296 368 434
#     4  10  24  42  62 106 138 186 232 288 370 432
#     4  10  26  44  74 104 138 190 244 298 354 422
#     4  11  24  48  70 103 142 188 241 299 358 433
#     4  11  24  48  70 103 142 188 241 299 358 433
#
# _framework density 24.708182000000001
#
# number of rings (size 3 to 8) (size 9 to 14) (size 15 to 20)
#    0.000    1.333    1.667    2.000    9.333    0.000 
#    9.000    0.000    0.000    0.000    0.000    0.000 
#    0.000    0.000    0.000    0.000    0.000    0.000 
#
# Total GULP energy -134080.898993 kJ/mol
# GULP energy per Si atom -5586.704125 kJ/mol
# Density = 2.465195 g / cm^3
# Si number density = 24.708182 Si / 1000 Ang^3
#
#
#
# Elastic Constant Matrix: (Units=GPa)
#
#
# Indices 1 2 3 4 5 6 
#
# 1 60.6502 17.3888 23.8961 0.0000 0.0000 0.0000
# 2 17.3888 102.1320 43.3478 0.0000 0.0000 0.0000
# 3 23.8961 43.3478 101.5439 0.0000 0.0000 0.0000
# 4 0.0000 0.0000 0.0000 32.7595 0.0000 0.0000
# 5 0.0000 0.0000 0.0000 0.0000 10.4668 0.0000
# 6 0.0000 0.0000 0.0000 0.0000 0.0000 46.5105
#
#
#
# Elastic Compliance Matrix: (Units=1/GPa)
#
#
# Indices 1 2 3 4 5 6 
#
# 1 0.018379 -0.001580 -0.003651 0.000000 0.000000 0.000000
# 2 -0.001580 0.012094 -0.004791 0.000000 0.000000 0.000000
# 3 -0.003651 -0.004791 0.012752 0.000000 0.000000 0.000000
# 4 0.000000 0.000000 0.000000 0.030526 0.000000 0.000000
# 5 0.000000 0.000000 0.000000 0.000000 0.095540 0.000000
# 6 0.000000 0.000000 0.000000 0.000000 0.000000 0.021501
#
#
# Mechanical properties :
#
#
# Convention : Reuss Voigt Hill
#
# Bulk Modulus (GPa) = 43.13615 48.17683 45.65649
# Shear Modulus (GPa) = 22.87683 29.92691 26.40187
#
# Velocity S-wave (km/s) = 3.04613 3.48403 3.27241
# Velocity P-wave (km/s) = 5.46516 5.97706 5.72683
#
# Compressibility (1/GPa) = 0.02318241
#
# Stress axis : x y z
#
# Youngs Moduli (GPa) = 54.40900 82.68842 78.41763
#
# Poissons Ratio (x) = 0.13063 0.28629
# Poissons Ratio (y) = 0.08595 0.37569
# Poissons Ratio (z) = 0.19864 0.39615
#
# Static dielectric constant tensor:
#      x y z
#    x 1.936140 0.000000 0.000000 
#    y 0.000000 2.036990 0.000000 
#    z 0.000000 0.000000 1.983840 
# 
# From -- ./inp_files/4778.got.cif
#   From: 2010.05.17/outbox.cif.g08.bks.cpg/sg45_3_cif.got.tgz:4778.got - 2010.06.03 19:51:22.
