data_PCOD9377842
_publ_section_title
;
Structure prediction by ZEFSAII (Michael W. Deem and Ramdas Pophale) SiO2 
 PCOD9377842
Probable space group: I M A 2
;
_chemical_formula_sum "Si O2"
_cell_formula_units_Z 48
_cell_length_a 24.329133
_cell_length_b 15.961841
_cell_length_c 8.111554
_cell_angle_alpha 90.000000
_cell_angle_beta 90.000000
_cell_angle_gamma 90.000000
_cell_volume 3150.022651
_symmetry_space_group_name_H-M "I M A 2"
_symmetry_group_IT_number 46
_symmetry_cell_setting 'orthorhombic'
loop_
_space_group_symop_operation_xyz
x,y,z
-x,-y,z
1/2-x,y,z
1/2+x,-y,z
1/2+x,1/2+y,1/2+z
1/2-x,1/2-y,1/2+z
-x,1/2+y,1/2+z
x,1/2-y,1/2+z
loop_
_atom_site_type_symbol
_atom_site_label
_atom_site_fract_x
_atom_site_fract_y
_atom_site_fract_z
Si Si1 0.813018 0.806198 0.356060
Si Si2 0.988669 0.713501 0.951097
Si Si3 0.917229 0.534679 0.354474
Si Si4 0.974616 0.370835 0.255232
Si Si5 0.812636 0.624765 0.227377
Si Si6 0.080362 0.153542 0.156286
O O1 0.750000 0.824790 0.304360
O O2 0.818661 0.705592 0.346241
O O3 0.820496 0.841710 0.540248
O O4 0.859018 0.839051 0.231711
O O5 0.021996 0.788317 0.866010
O O6 0.960368 0.656411 0.812705
O O7 0.028280 0.661172 0.069120
O O8 0.940550 0.764297 0.052277
O O9 0.932341 0.438228 0.326009
O O10 0.858879 0.559756 0.279545
O O11 0.922357 0.572709 0.538742
O O12 0.965287 0.585778 0.261753
O O13 0.750000 0.593916 0.240574
#
# Coordination Sequence:
#
# PCOD9377842 Si02
#       6
#     8   8   8   8   8   8
#     4  10  18  27  41  62  89 125 161 179 202 258
#     4   9  17  31  48  62  85 119 150 180 222 269
#     4  10  19  30  44  67  95 116 145 184 224 264
#     4   9  18  32  47  66  90 116 147 184 223 270
#     4  10  19  29  42  62  90 124 156 184 216 257
#     4  10  17  27  45  66  91 120 149 183 219 257
#
# _framework density 15.237985
#
# number of rings (size 3 to 8) (size 9 to 14) (size 15 to 20)
#    0.000    2.333    0.000    6.000    0.000    2.000 
#    0.000   18.333    0.000    0.000    0.000    1.167 
#    0.000    0.000    0.000    0.000    0.000    0.000 
#
# Total GULP energy -133736.156467 kJ/mol
# GULP energy per Si atom -5572.339853 kJ/mol
# Density = 1.520330 g / cm^3
# Si number density = 15.237985 Si / 1000 Ang^3
#
#
#
# Elastic Constant Matrix: (Units=GPa)
#
#
# Indices 1 2 3 4 5 6 
#
# 1 85.2281 52.7264 44.3413 0.0000 0.0000 0.0000
# 2 52.7264 79.0248 50.5481 0.0000 0.0000 0.0000
# 3 44.3413 50.5481 93.0937 0.0000 0.0000 0.0000
# 4 0.0000 0.0000 0.0000 12.1628 0.0000 0.0000
# 5 0.0000 0.0000 0.0000 0.0000 16.0174 0.0000
# 6 0.0000 0.0000 0.0000 0.0000 0.0000 15.7253
#
#
#
# Elastic Compliance Matrix: (Units=1/GPa)
#
#
# Indices 1 2 3 4 5 6 
#
# 1 0.020750 -0.011526 -0.003625 0.000000 0.000000 0.000000
# 2 -0.011526 0.025790 -0.008514 0.000000 0.000000 0.000000
# 3 -0.003625 -0.008514 0.017091 0.000000 0.000000 0.000000
# 4 0.000000 0.000000 0.000000 0.082218 0.000000 0.000000
# 5 0.000000 0.000000 0.000000 0.000000 0.062432 0.000000
# 6 0.000000 0.000000 0.000000 0.000000 0.000000 0.063592
#
#
# Mechanical properties :
#
#
# Convention : Reuss Voigt Hill
#
# Bulk Modulus (GPa) = 61.34161 61.39758 61.36959
# Shear Modulus (GPa) = 15.40187 16.09648 15.74917
#
# Velocity S-wave (km/s) = 3.18269 3.25366 3.21837
# Velocity P-wave (km/s) = 7.33819 7.38207 7.36017
#
# Compressibility (1/GPa) = 0.01630215
#
# Stress axis : x y z
#
# Youngs Moduli (GPa) = 48.19386 38.77446 58.50936
#
# Poissons Ratio (x) = 0.44690 0.21209
# Poissons Ratio (y) = 0.55547 0.49814
# Poissons Ratio (z) = 0.17470 0.33012
#
# Static dielectric constant tensor:
#      x y z
#    x 1.511790 0.000000 0.000000 
#    y 0.000000 1.494420 0.000000 
#    z 0.000000 0.000000 1.557330 
# 
# From -- ./inp_files/7306.got.cif
#   From: 2010.05.17/outbox.cif.g08.bks.cpg/sg46_4_cif.got.tgz:7306.got - 2010.06.03 19:58:25.
