data_PCOD9377118
_publ_section_title
;
Structure prediction by ZEFSAII (Michael W. Deem and Ramdas Pophale) SiO2 
 PCOD9377118
Probable space group: I B A 2
;
_chemical_formula_sum "Si O2"
_cell_formula_units_Z 60
_cell_length_a 8.418261
_cell_length_b 22.965713
_cell_length_c 14.074112
_cell_angle_alpha 90.000000
_cell_angle_beta 90.000000
_cell_angle_gamma 90.000000
_cell_volume 2720.967299
_symmetry_space_group_name_H-M "I B A 2"
_symmetry_group_IT_number 45
_symmetry_cell_setting 'orthorhombic'
loop_
_space_group_symop_operation_xyz
x,y,z
-x,-y,z
-x,y,1/2+z
x,-y,1/2+z
1/2+x,1/2+y,1/2+z
1/2-x,1/2-y,1/2+z
1/2-x,1/2+y,z
1/2+x,1/2-y,z
loop_
_atom_site_type_symbol
_atom_site_label
_atom_site_fract_x
_atom_site_fract_y
_atom_site_fract_z
Si Si1 0.786324 0.906567 0.644860
Si Si2 0.946364 0.851796 0.036295
Si Si3 0.259891 0.040550 0.113750
Si Si4 0.821851 0.422686 0.327064
Si Si5 0.021504 0.663770 0.726975
Si Si6 0.000000 0.500000 0.971719
Si Si7 0.010584 0.867382 0.322609
Si Si8 0.683897 0.721914 0.693319
O O1 0.607233 0.884806 0.662452
O O2 0.872811 0.864838 0.568512
O O3 0.873148 0.898374 0.747531
O O4 0.800165 0.973689 0.613405
O O5 0.858241 0.907672 0.084064
O O6 0.885978 0.794080 0.089951
O O7 0.917906 0.849998 0.924000
O O8 0.315870 0.051686 0.220835
O O9 0.400586 0.042087 0.038448
O O10 0.880688 0.466809 0.404162
O O11 0.640778 0.406906 0.347969
O O12 0.948536 0.369531 0.318241
O O13 0.159100 0.712664 0.729339
O O14 0.863820 0.698010 0.692053
O O15 0.924946 0.815455 0.265435
#
# Coordination Sequence:
#
# PCOD9377118 Si02
#       8
#     8   8   8   8   8   4   8   8
#     4  11  23  42  68  96 139 182 224 286 348 411
#     4  11  23  43  65 104 135 181 233 289 347 425
#     4  12  24  43  66 102 145 182 239 277 354 420
#     4  11  24  45  65  99 143 178 234 283 347 410
#     4  11  22  45  73  93 132 185 224 291 361 418
#     4  12  26  40  68 106 140 192 224 290 336 426
#     4  10  23  43  66  99 135 176 231 287 347 416
#     4  10  22  45  67  97 133 174 235 291 352 419
#
# _framework density 22.050982000000001
#
# number of rings (size 3 to 8) (size 9 to 14) (size 15 to 20)
#    0.000    1.067    4.000    4.800    3.733    0.000 
#    0.000   10.667    0.000    0.000    0.000    0.000 
#    0.000    0.000    0.000    0.000    0.000    0.000 
#
# Total GULP energy -167541.374839 kJ/mol
# GULP energy per Si atom -5584.712495 kJ/mol
# Density = 2.200079 g / cm^3
# Si number density = 22.050982 Si / 1000 Ang^3
#
#
#
# Elastic Constant Matrix: (Units=GPa)
#
#
# Indices 1 2 3 4 5 6 
#
# 1 77.3195 21.0241 20.0882 0.0000 0.0000 0.0000
# 2 21.0241 53.2025 1.0101 0.0000 0.0000 0.0000
# 3 20.0882 1.0101 133.1031 0.0000 0.0000 0.0000
# 4 0.0000 0.0000 0.0000 6.9234 0.0000 0.0000
# 5 0.0000 0.0000 0.0000 0.0000 15.1908 0.0000
# 6 0.0000 0.0000 0.0000 0.0000 0.0000 36.5444
#
#
#
# Elastic Compliance Matrix: (Units=1/GPa)
#
#
# Indices 1 2 3 4 5 6 
#
# 1 0.015129 -0.005936 -0.002238 0.000000 0.000000 0.000000
# 2 -0.005936 0.021128 0.000736 0.000000 0.000000 0.000000
# 3 -0.002238 0.000736 0.007845 0.000000 0.000000 0.000000
# 4 0.000000 0.000000 0.000000 0.144438 0.000000 0.000000
# 5 0.000000 0.000000 0.000000 0.000000 0.065829 0.000000
# 6 0.000000 0.000000 0.000000 0.000000 0.000000 0.027364
#
#
# Mechanical properties :
#
#
# Convention : Reuss Voigt Hill
#
# Bulk Modulus (GPa) = 34.21778 38.65220 36.43499
# Shear Modulus (GPa) = 16.32109 26.49858 21.40983
#
# Velocity S-wave (km/s) = 2.72353 3.47031 3.11935
# Velocity P-wave (km/s) = 5.04395 5.79862 5.43440
#
# Compressibility (1/GPa) = 0.02922457
#
# Stress axis : x y z
#
# Youngs Moduli (GPa) = 66.09855 47.33078 127.46662
#
# Poissons Ratio (x) = 0.28096 0.28530
# Poissons Ratio (y) = 0.39236 -0.09376
# Poissons Ratio (z) = 0.14794 -0.03481
#
# Static dielectric constant tensor:
#      x y z
#    x 1.900530 0.000000 0.000000 
#    y 0.000000 1.861330 0.000000 
#    z 0.000000 0.000000 1.770850 
# 
# From -- ./inp_files/5834.got.cif
#   From: 2010.05.17/outbox.cif.g08.bks.cpg/sg45_3_cif.got.tgz:5834.got - 2010.06.03 19:51:22.
