data_PCOD9377961
_publ_section_title
;
Structure prediction by ZEFSAII (Michael W. Deem and Ramdas Pophale) SiO2 
 PCOD9377961
Probable space group: I M A 2
;
_chemical_formula_sum "Si O2"
_cell_formula_units_Z 64
_cell_length_a 8.870843
_cell_length_b 18.943558
_cell_length_c 26.899377
_cell_angle_alpha 90.000000
_cell_angle_beta 90.000000
_cell_angle_gamma 90.000000
_cell_volume 4520.314655
_symmetry_space_group_name_H-M "I M A 2"
_symmetry_group_IT_number 46
_symmetry_cell_setting 'orthorhombic'
loop_
_space_group_symop_operation_xyz
x,y,z
-x,-y,z
1/2-x,y,z
1/2+x,-y,z
1/2+x,1/2+y,1/2+z
1/2-x,1/2-y,1/2+z
-x,1/2+y,1/2+z
x,1/2-y,1/2+z
loop_
_atom_site_type_symbol
_atom_site_label
_atom_site_fract_x
_atom_site_fract_y
_atom_site_fract_z
Si Si1 0.431153 0.829892 0.155900
Si Si2 0.070070 0.922532 0.761617
Si Si3 0.931249 0.423318 0.561110
Si Si4 0.570459 0.076458 0.251593
Si Si5 0.071605 0.295277 0.209108
Si Si6 0.429458 0.076499 0.954422
Si Si7 0.928643 0.158638 0.865560
Si Si8 0.430027 0.785795 0.301714
O O1 0.250000 0.821581 0.159313
O O2 0.467827 0.867268 0.104009
O O3 0.476630 0.883241 0.200739
O O4 0.506214 0.754095 0.165494
O O5 0.250000 0.925482 0.756766
O O6 0.037758 0.886782 0.815599
O O7 0.003045 0.871146 0.719308
O O8 0.000000 0.000000 0.759807
O O9 0.750000 0.429460 0.557390
O O10 0.000000 0.500000 0.574114
O O11 0.000181 0.403531 0.507740
O O12 0.750000 0.068094 0.248860
O O13 0.537318 0.131417 0.296387
O O14 0.500000 0.000000 0.256479
O O15 0.250000 0.301899 0.205127
O O16 0.024133 0.251633 0.258405
O O17 0.250000 0.070254 0.958382
O O18 0.477117 0.130070 0.911400
O O19 0.500000 0.000000 0.941648
O O20 0.750000 0.150399 0.875903
O O21 0.957850 0.240295 0.850919
O O22 0.250000 0.776461 0.290313
#
# Coordination Sequence:
#
# PCOD9377961 Si02
#       8
#     8   8   8   8   8   8   8   8
#     4   9  18  31  44  58  81 113 144 173 207 246
#     4  10  19  30  44  62  86 113 142 175 209 248
#     4  10  19  31  46  62  83 111 143 178 213 248
#     4   9  16  26  40  60  84 109 137 168 204 242
#     4  10  18  27  42  62  83 108 139 173 208 247
#     4  11  21  31  43  60  84 110 139 176 212 248
#     4   9  17  30  46  60  78 109 144 175 208 247
#     4   8  16  30  43  56  80 111 140 172 208 246
#
# _framework density 14.158307000000001
#
# number of rings (size 3 to 8) (size 9 to 14) (size 15 to 20)
#    0.000    2.500    0.000    6.000    0.000    6.500 
#    0.000    0.000    0.000    0.000    0.000    0.000 
#    0.000    1.000    0.000    6.750    0.000    4.875 
#
# Total GULP energy -178276.152902 kJ/mol
# GULP energy per Si atom -5571.129778 kJ/mol
# Density = 1.412608 g / cm^3
# Si number density = 14.158307 Si / 1000 Ang^3
#
#
#
# Elastic Constant Matrix: (Units=GPa)
#
#
# Indices 1 2 3 4 5 6 
#
# 1 61.1250 44.2824 39.5153 0.0000 0.0000 0.0000
# 2 44.2824 108.6490 46.6146 0.0000 0.0000 0.0000
# 3 39.5153 46.6146 69.5799 0.0000 0.0000 0.0000
# 4 0.0000 0.0000 0.0000 24.7729 0.0000 0.0000
# 5 0.0000 0.0000 0.0000 0.0000 18.2121 0.0000
# 6 0.0000 0.0000 0.0000 0.0000 0.0000 26.4743
#
#
#
# Elastic Compliance Matrix: (Units=1/GPa)
#
#
# Indices 1 2 3 4 5 6 
#
# 1 0.028913 -0.006651 -0.011964 0.000000 0.000000 0.000000
# 2 -0.006651 0.014447 -0.005901 0.000000 0.000000 0.000000
# 3 -0.011964 -0.005901 0.025120 0.000000 0.000000 0.000000
# 4 0.000000 0.000000 0.000000 0.040367 0.000000 0.000000
# 5 0.000000 0.000000 0.000000 0.000000 0.054909 0.000000
# 6 0.000000 0.000000 0.000000 0.000000 0.000000 0.037772
#
#
# Mechanical properties :
#
#
# Convention : Reuss Voigt Hill
#
# Bulk Modulus (GPa) = 51.42267 55.57540 53.49903
# Shear Modulus (GPa) = 19.45211 21.15464 20.30337
#
# Velocity S-wave (km/s) = 3.71064 3.86962 3.79096
# Velocity P-wave (km/s) = 7.39980 7.70087 7.55183
#
# Compressibility (1/GPa) = 0.01944668
#
# Stress axis : x y z
#
# Youngs Moduli (GPa) = 34.58700 69.22076 39.80891
#
# Poissons Ratio (x) = 0.46038 0.47628
# Poissons Ratio (y) = 0.23004 0.23492
# Poissons Ratio (z) = 0.41380 0.40849
#
# Static dielectric constant tensor:
#      x y z
#    x 1.472250 0.000000 0.000000 
#    y 0.000000 1.474080 0.000000 
#    z 0.000000 0.000000 1.459240 
# 
# From -- ./inp_files/24409.got.cif
#   From: 2010.05.17/outbox.cif.g08.bks.cpg/sg46_13_cif.got.tgz:24409.got - 2010.06.03 19:58:25.
