data_PCOD9377111
_publ_section_title
;
Structure prediction by ZEFSAII (Michael W. Deem and Ramdas Pophale) SiO2 
 PCOD9377111
Probable space group: I B A 2
;
_chemical_formula_sum "Si O2"
_cell_formula_units_Z 64
_cell_length_a 28.277627
_cell_length_b 8.696027
_cell_length_c 11.066494
_cell_angle_alpha 90.000000
_cell_angle_beta 90.000000
_cell_angle_gamma 90.000000
_cell_volume 2721.284161
_symmetry_space_group_name_H-M "I B A 2"
_symmetry_group_IT_number 45
_symmetry_cell_setting 'orthorhombic'
loop_
_space_group_symop_operation_xyz
x,y,z
-x,-y,z
-x,y,1/2+z
x,-y,1/2+z
1/2+x,1/2+y,1/2+z
1/2-x,1/2-y,1/2+z
1/2-x,1/2+y,z
1/2+x,1/2-y,z
loop_
_atom_site_type_symbol
_atom_site_label
_atom_site_fract_x
_atom_site_fract_y
_atom_site_fract_z
Si Si1 0.096288 0.220056 0.545900
Si Si2 0.573165 0.615736 0.517921
Si Si3 0.867534 0.155254 0.284360
Si Si4 0.046513 0.393518 0.093610
Si Si5 0.208448 0.322814 0.951666
Si Si6 0.445247 0.951300 0.363942
Si Si7 0.689911 0.185287 0.418267
Si Si8 0.661522 0.677772 0.676010
O O1 0.105711 0.261367 0.685701
O O2 0.066883 0.300185 0.440206
O O3 0.150373 0.230443 0.498869
O O4 0.072647 0.056144 0.559788
O O5 0.592434 0.609750 0.381950
O O6 0.530404 0.720394 0.562079
O O7 0.613810 0.694999 0.599702
O O8 0.826734 0.249331 0.352509
O O9 0.843648 0.997872 0.228724
O O10 0.068336 0.425565 0.225019
O O11 0.000000 0.500000 0.093074
O O12 0.074939 0.433152 0.968118
O O13 0.262245 0.284268 0.918009
O O14 0.198790 0.507304 0.956304
O O15 0.199964 0.226282 0.075543
O O16 0.500000 0.000000 0.354275
O O17 0.668966 0.203480 0.284160
#
# Coordination Sequence:
#
# PCOD9377111 Si02
#       8
#     8   8   8   8   8   8   8   8
#     4  11  25  41  73 104 144 197 256 310 381 465
#     4  10  22  44  71 103 140 190 245 308 374 453
#     4  10  23  44  68 104 141 197 253 315 382 446
#     4  10  23  44  74 107 149 189 234 300 378 462
#     4  11  28  41  67 100 148 200 254 322 386 447
#     4  10  24  46  73 110 148 190 238 311 380 462
#     4  12  26  43  66 102 142 202 257 314 386 453
#     4  10  23  45  67  94 146 190 254 318 374 457
#
# _framework density 23.518308000000001
#
# number of rings (size 3 to 8) (size 9 to 14) (size 15 to 20)
#    0.000    1.500    1.250    1.500   14.000    0.000 
#    0.000    2.500    0.000    7.500    0.000    0.000 
#    0.000    0.000    0.000    0.000    0.000    0.000 
#
# Total GULP energy -178192.906853 kJ/mol
# GULP energy per Si atom -5568.528339 kJ/mol
# Density = 2.346478 g / cm^3
# Si number density = 23.518308 Si / 1000 Ang^3
#
#
#
# Elastic Constant Matrix: (Units=GPa)
#
#
# Indices 1 2 3 4 5 6 
#
# 1 67.2867 39.7617 12.9262 0.0000 0.0000 0.0000
# 2 39.7617 155.3485 41.3232 0.0000 0.0000 0.0000
# 3 12.9262 41.3232 149.5408 0.0000 0.0000 0.0000
# 4 0.0000 0.0000 0.0000 23.4450 0.0000 0.0000
# 5 0.0000 0.0000 0.0000 0.0000 30.1621 0.0000
# 6 0.0000 0.0000 0.0000 0.0000 0.0000 35.0597
#
#
#
# Elastic Compliance Matrix: (Units=1/GPa)
#
#
# Indices 1 2 3 4 5 6 
#
# 1 0.017522 -0.004406 -0.000297 0.000000 0.000000 0.000000
# 2 -0.004406 0.008056 -0.001845 0.000000 0.000000 0.000000
# 3 -0.000297 -0.001845 0.007223 0.000000 0.000000 0.000000
# 4 0.000000 0.000000 0.000000 0.042653 0.000000 0.000000
# 5 0.000000 0.000000 0.000000 0.000000 0.033154 0.000000
# 6 0.000000 0.000000 0.000000 0.000000 0.000000 0.028523
#
#
# Mechanical properties :
#
#
# Convention : Reuss Voigt Hill
#
# Bulk Modulus (GPa) = 50.75016 62.24426 56.49721
# Shear Modulus (GPa) = 31.88872 36.27770 34.08321
#
# Velocity S-wave (km/s) = 3.68626 3.93177 3.81099
# Velocity P-wave (km/s) = 6.30428 6.86553 6.59088
#
# Compressibility (1/GPa) = 0.01970437
#
# Stress axis : x y z
#
# Youngs Moduli (GPa) = 57.06986 124.13647 138.45207
#
# Poissons Ratio (x) = 0.54692 0.04114
# Poissons Ratio (y) = 0.25144 0.25547
# Poissons Ratio (z) = 0.01696 0.22906
#
# Static dielectric constant tensor:
#      x y z
#    x 2.053680 0.000000 0.000000 
#    y 0.000000 1.988480 0.000000 
#    z 0.000000 0.000000 1.928450 
# 
# From -- ./inp_files/4965.got.cif
#   From: 2010.05.17/outbox.cif.g08.bks.cpg/sg45_3_cif.got.tgz:4965.got - 2010.06.03 19:51:22.
