data_PCOD9377542
_publ_section_title
;
Structure prediction by ZEFSAII (Michael W. Deem and Ramdas Pophale) SiO2 
 PCOD9377542
Probable space group: I B A 2
;
_chemical_formula_sum "Si O2"
_cell_formula_units_Z 44
_cell_length_a 10.513136
_cell_length_b 16.217423
_cell_length_c 11.302502
_cell_angle_alpha 90.000000
_cell_angle_beta 90.000000
_cell_angle_gamma 90.000000
_cell_volume 1927.031082
_symmetry_space_group_name_H-M "I B A 2"
_symmetry_group_IT_number 45
_symmetry_cell_setting 'orthorhombic'
loop_
_space_group_symop_operation_xyz
x,y,z
-x,-y,z
-x,y,1/2+z
x,-y,1/2+z
1/2+x,1/2+y,1/2+z
1/2-x,1/2-y,1/2+z
1/2-x,1/2+y,z
1/2+x,1/2-y,z
loop_
_atom_site_type_symbol
_atom_site_label
_atom_site_fract_x
_atom_site_fract_y
_atom_site_fract_z
Si Si1 0.914014 0.891534 0.176030
Si Si2 0.919594 0.682679 0.877922
Si Si3 0.313753 0.353348 0.284632
Si Si4 0.097790 0.703788 0.646774
Si Si5 0.753267 0.523677 0.843117
Si Si6 0.500000 0.500000 0.973454
O O1 0.870105 0.799032 0.166256
O O2 0.797959 0.949880 0.214220
O O3 0.045439 0.888587 0.253726
O O4 0.953974 0.924477 0.050971
O O5 0.833396 0.765538 0.851029
O O6 0.854176 0.592365 0.877285
O O7 0.011707 0.682418 0.762260
O O8 0.962099 0.692816 0.016013
O O9 0.233305 0.340606 0.164408
O O10 0.232029 0.425115 0.349640
O O11 0.623263 0.536304 0.912498
#
# Coordination Sequence:
#
# PCOD9377542 Si02
#       6
#     8   8   8   8   8   4
#     4  11  22  40  66 105 135 176 229 294 356 412
#     4  11  27  47  72 105 143 191 238 290 352 428
#     4  11  22  44  70 102 140 181 235 292 355 417
#     4  11  26  47  69 101 148 189 234 286 354 428
#     4  12  23  43  68 106 135 181 233 295 349 415
#     4  12  20  38  74 100 138 170 238 292 360 404
#
# _framework density 22.833051000000001
#
# number of rings (size 3 to 8) (size 9 to 14) (size 15 to 20)
#    0.000    0.727    5.455    2.182    2.545    3.636 
#    3.273    1.818    0.000    0.000    0.000    0.000 
#    0.000    0.000    0.000    0.000    0.000    0.000 
#
# Total GULP energy -122489.924069 kJ/mol
# GULP energy per Si atom -5567.723821 kJ/mol
# Density = 2.278108 g / cm^3
# Si number density = 22.833051 Si / 1000 Ang^3
#
#
#
# Elastic Constant Matrix: (Units=GPa)
#
#
# Indices 1 2 3 4 5 6 
#
# 1 34.4006 37.9629 32.2857 0.0000 0.0000 0.0000
# 2 37.9629 115.0960 11.1474 -0.0003 -0.0001 0.0000
# 3 32.2857 11.1474 112.9214 -0.0004 -0.0001 0.0000
# 4 0.0000 -0.0003 -0.0004 35.2145 -0.0001 0.0000
# 5 0.0000 -0.0001 -0.0001 -0.0001 26.6728 0.0000
# 6 0.0000 0.0000 0.0000 0.0000 0.0000 39.1895
#
#
#
# Elastic Compliance Matrix: (Units=1/GPa)
#
#
# Indices 1 2 3 4 5 6 
#
# 1 0.068677 -0.020951 -0.017567 0.000000 0.000000 0.000000
# 2 -0.020951 0.015163 0.004493 0.000000 0.000000 0.000000
# 3 -0.017567 0.004493 0.013435 0.000000 0.000000 0.000000
# 4 0.000000 0.000000 0.000000 0.028397 0.000000 0.000000
# 5 0.000000 0.000000 0.000000 0.000000 0.037491 0.000000
# 6 0.000000 0.000000 0.000000 0.000000 0.000000 0.025517
#
#
# Mechanical properties :
#
#
# Convention : Reuss Voigt Hill
#
# Bulk Modulus (GPa) = 34.21681 47.24555 40.73118
# Shear Modulus (GPa) = 18.76370 32.28351 25.52360
#
# Velocity S-wave (km/s) = 2.86978 3.76426 3.34703
# Velocity P-wave (km/s) = 5.09892 6.29520 5.72837
#
# Compressibility (1/GPa) = 0.02922540
#
# Stress axis : x y z
#
# Youngs Moduli (GPa) = 14.56101 65.94788 74.43315
#
# Poissons Ratio (x) = 1.38165 1.30759
# Poissons Ratio (y) = 0.30506 -0.33444
# Poissons Ratio (z) = 0.25580 -0.29631
#
# Static dielectric constant tensor:
#      x y z
#    x 1.860370 0.000000 0.000000 
#    y 0.000000 1.850010 0.000000 
#    z 0.000000 0.000000 1.958770 
# 
# From -- ./inp_files/3634.got.cif
#   From: 2010.05.17/outbox.cif.g08.bks.cpg/sg45_2_cif.got.tgz:3634.got - 2010.06.03 19:51:22.
