data_PCOD9377383
_publ_section_title
;
Structure prediction by ZEFSAII (Michael W. Deem and Ramdas Pophale) SiO2 
 PCOD9377383
Probable space group: I B A 2
;
_chemical_formula_sum "Si O2"
_cell_formula_units_Z 56
_cell_length_a 13.249593
_cell_length_b 13.308297
_cell_length_c 14.508358
_cell_angle_alpha 90.000000
_cell_angle_beta 90.000000
_cell_angle_gamma 90.000000
_cell_volume 2558.251784
_symmetry_space_group_name_H-M "I B A 2"
_symmetry_group_IT_number 45
_symmetry_cell_setting 'orthorhombic'
loop_
_space_group_symop_operation_xyz
x,y,z
-x,-y,z
-x,y,1/2+z
x,-y,1/2+z
1/2+x,1/2+y,1/2+z
1/2-x,1/2-y,1/2+z
1/2-x,1/2+y,z
1/2+x,1/2-y,z
loop_
_atom_site_type_symbol
_atom_site_label
_atom_site_fract_x
_atom_site_fract_y
_atom_site_fract_z
Si Si1 0.250749 0.097835 0.441950
Si Si2 0.604526 0.715197 0.677909
Si Si3 0.088812 0.937010 0.519747
Si Si4 0.382477 0.017862 0.803944
Si Si5 0.736935 0.792646 0.829426
Si Si6 0.911871 0.426478 0.601276
Si Si7 0.959036 0.113939 0.325781
O O1 0.228509 0.212305 0.412269
O O2 0.328095 0.092079 0.525638
O O3 0.164538 0.016802 0.470759
O O4 0.309889 0.060802 0.351514
O O5 0.629330 0.636877 0.597165
O O6 0.705627 0.742637 0.732959
O O7 0.555552 0.815765 0.634842
O O8 0.528906 0.676385 0.757187
O O9 0.035490 0.874942 0.436917
O O10 0.000000 0.000000 0.567095
O O11 0.347951 0.123512 0.845705
O O12 0.368405 0.022652 0.694094
O O13 0.500000 0.000000 0.820920
O O14 0.842713 0.850981 0.813435
O O15 0.000000 0.500000 0.567476
O O16 0.000000 0.000000 0.310419
#
# Coordination Sequence:
#
# PCOD9377383 Si02
#       7
#     8   8   8   8   8   8   8
#     4  12  25  45  76 108 151 191 249 310 366 463
#     4  11  26  45  74 104 150 194 247 309 366 449
#     4  11  25  46  70 108 144 195 246 303 372 439
#     4  10  24  47  72 102 151 195 244 311 370 440
#     4  11  25  44  75 110 143 200 246 300 379 438
#     4  10  25  46  67 110 142 194 248 299 375 436
#     4  11  24  47  74 106 148 192 246 302 372 444
#
# _framework density 21.889949000000001
#
# number of rings (size 3 to 8) (size 9 to 14) (size 15 to 20)
#    0.000    1.143    1.429    3.429    8.000    3.429 
#   10.286    1.429    0.000    0.000    0.000    0.000 
#    0.000    0.000    0.000    0.000    0.000    0.000 
#
# Total GULP energy -156263.261733 kJ/mol
# GULP energy per Si atom -5580.830776 kJ/mol
# Density = 2.184013 g / cm^3
# Si number density = 21.889949 Si / 1000 Ang^3
#
#
#
# Elastic Constant Matrix: (Units=GPa)
#
#
# Indices 1 2 3 4 5 6 
#
# 1 99.4084 69.0744 56.5855 0.0000 0.0000 0.0000
# 2 69.0744 103.9858 58.1858 0.0000 0.0000 0.0000
# 3 56.5855 58.1858 81.8807 0.0000 0.0000 0.0000
# 4 0.0000 0.0000 0.0000 295.4145 0.0000 0.0000
# 5 0.0000 0.0000 0.0000 0.0000 39.6576 0.0000
# 6 0.0000 0.0000 0.0000 0.0000 0.0000 36.1591
#
#
#
# Elastic Compliance Matrix: (Units=1/GPa)
#
#
# Indices 1 2 3 4 5 6 
#
# 1 0.021275 -0.009804 -0.007736 0.000000 0.000000 0.000000
# 2 -0.009804 0.020482 -0.007780 0.000000 0.000000 0.000000
# 3 -0.007736 -0.007780 0.023088 0.000000 0.000000 0.000000
# 4 0.000000 0.000000 0.000000 0.003385 0.000000 0.000000
# 5 0.000000 0.000000 0.000000 0.000000 0.025216 0.000000
# 6 0.000000 0.000000 0.000000 0.000000 0.000000 0.027656
#
#
# Mechanical properties :
#
#
# Convention : Reuss Voigt Hill
#
# Bulk Modulus (GPa) = 70.39434 72.55182 71.47308
# Shear Modulus (GPa) = 28.33242 81.00817 54.67030
#
# Velocity S-wave (km/s) = 3.60156 6.08994 5.00293
# Velocity P-wave (km/s) = 7.03726 9.09207 8.12984
#
# Compressibility (1/GPa) = 0.01420569
#
# Stress axis : x y z
#
# Youngs Moduli (GPa) = 47.00318 48.82262 43.31323
#
# Poissons Ratio (x) = 0.47864 0.33507
# Poissons Ratio (y) = 0.46080 0.33698
# Poissons Ratio (z) = 0.36362 0.37984
#
# Static dielectric constant tensor:
#      x y z
#    x 1.838520 0.000000 0.000000 
#    y 0.000000 1.899560 0.000000 
#    z 0.000000 0.000000 1.786430 
# 
# From -- ./inp_files/6154.got.cif
#   From: 2010.05.17/outbox.cif.g08.bks.cpg/sg45_4_cif.got.tgz:6154.got - 2010.06.03 19:51:22.
