data_PCOD9377581
_publ_section_title
;
Structure prediction by ZEFSAII (Michael W. Deem and Ramdas Pophale) SiO2 
 PCOD9377581
Probable space group: I B A 2
;
_chemical_formula_sum "Si O2"
_cell_formula_units_Z 64
_cell_length_a 8.761028
_cell_length_b 13.550887
_cell_length_c 25.407856
_cell_angle_alpha 90.000000
_cell_angle_beta 90.000000
_cell_angle_gamma 90.000000
_cell_volume 3016.413053
_symmetry_space_group_name_H-M "I B A 2"
_symmetry_group_IT_number 45
_symmetry_cell_setting 'orthorhombic'
loop_
_space_group_symop_operation_xyz
x,y,z
-x,-y,z
-x,y,1/2+z
x,-y,1/2+z
1/2+x,1/2+y,1/2+z
1/2-x,1/2-y,1/2+z
1/2-x,1/2+y,z
1/2+x,1/2-y,z
loop_
_atom_site_type_symbol
_atom_site_label
_atom_site_fract_x
_atom_site_fract_y
_atom_site_fract_z
Si Si1 0.331429 0.648295 0.094370
Si Si2 0.331428 0.648295 0.219187
Si Si3 0.644899 0.177822 0.872703
Si Si4 0.182371 0.491280 0.512761
Si Si5 0.682371 0.008720 0.800796
Si Si6 0.144615 0.814455 0.275725
Si Si7 0.144896 0.677822 0.940854
Si Si8 0.644616 0.314455 0.537831
O O1 0.333248 0.639665 0.156778
O O2 0.235219 0.562363 0.066276
O O3 0.500506 0.646636 0.070099
O O4 0.253507 0.750625 0.075774
O O5 0.235218 0.562363 0.247280
O O6 0.253505 0.750625 0.237783
O O7 0.500504 0.646636 0.243458
O O8 0.727491 0.082320 0.848334
O O9 0.591237 0.240674 0.821900
O O10 0.750002 0.250000 0.906778
O O11 0.500002 0.146833 0.906779
O O12 0.227490 0.417680 0.465222
O O13 0.263022 0.596355 0.511642
O O14 0.000000 0.500000 0.511516
O O15 0.500000 0.000000 0.802041
O O16 0.763022 0.903644 0.801915
O O17 0.091236 0.740674 0.991657
#
# Coordination Sequence:
#
# PCOD9377581 Si02
#       8
#     8   8   8   8   8   8   8   8
#     4  11  24  42  66  94 127 169 211 260 320 376
#     4  11  24  42  66  94 127 169 211 260 320 376
#     4  11  23  41  64  91 125 167 211 258 317 377
#     4  11  24  42  64  94 130 166 212 262 311 376
#     4  11  24  42  64  94 130 166 212 262 311 376
#     4  11  23  42  64  94 130 163 212 266 313 378
#     4  11  23  41  64  91 125 167 211 258 317 377
#     4  11  23  42  64  94 130 163 212 266 313 378
#
# _framework density 21.217251999999998
#
# number of rings (size 3 to 8) (size 9 to 14) (size 15 to 20)
#    0.000    1.000    0.000    9.000    0.000    7.000 
#    0.000    1.250    0.000    0.000    0.000    0.000 
#    0.000    0.000    0.000    0.000    0.000    0.000 
#
# Total GULP energy -179175.414011 kJ/mol
# GULP energy per Si atom -5599.231688 kJ/mol
# Density = 2.116896 g / cm^3
# Si number density = 21.217252 Si / 1000 Ang^3
#
#
#
# Elastic Constant Matrix: (Units=GPa)
#
#
# Indices 1 2 3 4 5 6 
#
# 1 81.5049 18.1512 23.5649 0.0000 0.0000 0.0000
# 2 18.1512 100.2479 24.0823 0.0000 0.0000 0.0000
# 3 23.5649 24.0823 128.9928 0.0000 0.0000 0.0000
# 4 0.0000 0.0000 0.0000 23.5768 0.0000 0.0000
# 5 0.0000 0.0000 0.0000 0.0000 31.2060 0.0000
# 6 0.0000 0.0000 0.0000 0.0000 0.0000 38.0300
#
#
#
# Elastic Compliance Matrix: (Units=1/GPa)
#
#
# Indices 1 2 3 4 5 6 
#
# 1 0.013293 -0.001909 -0.002072 0.000000 0.000000 0.000000
# 2 -0.001909 0.010718 -0.001652 0.000000 0.000000 0.000000
# 3 -0.002072 -0.001652 0.008439 0.000000 0.000000 0.000000
# 4 0.000000 0.000000 0.000000 0.042414 0.000000 0.000000
# 5 0.000000 0.000000 0.000000 0.000000 0.032045 0.000000
# 6 0.000000 0.000000 0.000000 0.000000 0.000000 0.026295
#
#
# Mechanical properties :
#
#
# Convention : Reuss Voigt Hill
#
# Bulk Modulus (GPa) = 47.20592 49.14917 48.17755
# Shear Modulus (GPa) = 32.99600 34.89237 33.94418
#
# Velocity S-wave (km/s) = 3.94782 4.05968 4.00414
# Velocity P-wave (km/s) = 6.56334 6.72232 6.64331
#
# Compressibility (1/GPa) = 0.02118378
#
# Stress axis : x y z
#
# Youngs Moduli (GPa) = 75.22494 93.30227 118.49244
#
# Poissons Ratio (x) = 0.17813 0.24552
# Poissons Ratio (y) = 0.14362 0.19577
# Poissons Ratio (z) = 0.15587 0.15415
#
# Static dielectric constant tensor:
#      x y z
#    x 1.740600 0.000000 0.000000 
#    y 0.000000 1.781530 0.000000 
#    z 0.000000 0.000000 1.738910 
# 
# From -- ./inp_files/9598.got.cif
#   From: 2010.05.17/outbox.cif.g08.bks.cpg/sg45_5_cif.got.tgz:9598.got - 2010.06.03 19:51:22.
