data_PCOD9377675
_publ_section_title
;
Structure prediction by ZEFSAII (Michael W. Deem and Ramdas Pophale) SiO2 
 PCOD9377675
Probable space group: I B A 2
;
_chemical_formula_sum "Si O2"
_cell_formula_units_Z 32
_cell_length_a 9.928015
_cell_length_b 8.649771
_cell_length_c 15.390636
_cell_angle_alpha 90.000000
_cell_angle_beta 90.000000
_cell_angle_gamma 90.000000
_cell_volume 1321.671732
_symmetry_space_group_name_H-M "I B A 2"
_symmetry_group_IT_number 45
_symmetry_cell_setting 'orthorhombic'
loop_
_space_group_symop_operation_xyz
x,y,z
-x,-y,z
-x,y,1/2+z
x,-y,1/2+z
1/2+x,1/2+y,1/2+z
1/2-x,1/2-y,1/2+z
1/2-x,1/2+y,z
1/2+x,1/2-y,z
loop_
_atom_site_type_symbol
_atom_site_label
_atom_site_fract_x
_atom_site_fract_y
_atom_site_fract_z
Si Si1 0.190807 0.562844 0.208780
Si Si2 0.109018 0.885326 0.955859
Si Si3 0.065695 0.744301 0.769881
Si Si4 0.146103 0.554555 0.011486
O O1 0.150430 0.415937 0.267520
O O2 0.339342 0.631782 0.221104
O O3 0.172053 0.504392 0.110298
O O4 0.078291 0.694999 0.230083
O O5 0.053130 0.815327 0.866098
O O6 0.147097 0.738577 0.012574
O O7 0.000000 0.000000 0.995756
O O8 0.243302 0.985059 0.947973
O O9 0.000000 0.500000 0.983530
#
# Coordination Sequence:
#
# PCOD9377675 Si02
#       4
#     8   8   8   8
#     4  11  26  48  75 106 147 194 249 307 371 449
#     4  12  29  46  77 110 149 199 248 314 380 455
#     4  11  26  47  72 109 144 193 246 310 370 449
#     4  12  26  50  73 108 152 198 249 309 380 455
#
# _framework density 24.211760999999999
#
# number of rings (size 3 to 8) (size 9 to 14) (size 15 to 20)
#    0.000    0.500    2.500    4.500   17.500    0.000 
#    0.000    0.000    0.000    0.000    0.000    0.000 
#    0.000    0.000    0.000    0.000    0.000    0.000 
#
# Total GULP energy -89610.054647 kJ/mol
# GULP energy per Si atom -5600.628415 kJ/mol
# Density = 2.415665 g / cm^3
# Si number density = 24.211761 Si / 1000 Ang^3
#
#
#
# Elastic Constant Matrix: (Units=GPa)
#
#
# Indices 1 2 3 4 5 6 
#
# 1 62.2425 18.4856 -8.0678 0.0000 0.0000 0.0000
# 2 18.4856 116.8551 -1.8395 0.0000 0.0000 0.0000
# 3 -8.0678 -1.8395 55.6077 0.0000 0.0000 0.0000
# 4 0.0000 0.0000 0.0000 118.5966 0.0000 0.0000
# 5 0.0000 0.0000 0.0000 0.0000 47.3631 0.0000
# 6 0.0000 0.0000 0.0000 0.0000 0.0000 43.5242
#
#
#
# Elastic Compliance Matrix: (Units=1/GPa)
#
#
# Indices 1 2 3 4 5 6 
#
# 1 0.017173 -0.002679 0.002403 0.000000 0.000000 0.000000
# 2 -0.002679 0.008980 -0.000092 0.000000 0.000000 0.000000
# 3 0.002403 -0.000092 0.018329 0.000000 0.000000 0.000000
# 4 0.000000 0.000000 0.000000 0.008432 0.000000 0.000000
# 5 0.000000 0.000000 0.000000 0.000000 0.021113 0.000000
# 6 0.000000 0.000000 0.000000 0.000000 0.000000 0.022976
#
#
# Mechanical properties :
#
#
# Convention : Reuss Voigt Hill
#
# Bulk Modulus (GPa) = 22.85878 27.98467 25.42173
# Shear Modulus (GPa) = 44.51550 56.97190 50.74370
#
# Velocity S-wave (km/s) = 4.29253 4.85611 4.58299
# Velocity P-wave (km/s) = 5.83348 6.55940 6.20706
#
# Compressibility (1/GPa) = 0.04374686
#
# Stress axis : x y z
#
# Youngs Moduli (GPa) = 58.23005 111.35926 54.55923
#
# Poissons Ratio (x) = 0.29832 -0.13110
# Poissons Ratio (y) = 0.15599 0.00500
# Poissons Ratio (z) = -0.13992 0.01020
#
# Static dielectric constant tensor:
#      x y z
#    x 1.898900 0.000000 0.000000 
#    y 0.000000 1.926370 0.000000 
#    z 0.000000 0.000000 1.885750 
# 
# From -- ./inp_files/5930.got.cif
#   From: 2010.05.17/outbox.cif.g08.bks.cpg/sg45_3_cif.got.tgz:5930.got - 2010.06.03 19:51:22.
