data_PCOD9377895
_publ_section_title
;
Structure prediction by ZEFSAII (Michael W. Deem and Ramdas Pophale) SiO2 
 PCOD9377895
Probable space group: I M A 2
;
_chemical_formula_sum "Si O2"
_cell_formula_units_Z 64
_cell_length_a 7.807826
_cell_length_b 20.408485
_cell_length_c 21.367962
_cell_angle_alpha 90.000000
_cell_angle_beta 90.000000
_cell_angle_gamma 90.000000
_cell_volume 3404.897132
_symmetry_space_group_name_H-M "I M A 2"
_symmetry_group_IT_number 46
_symmetry_cell_setting 'orthorhombic'
loop_
_space_group_symop_operation_xyz
x,y,z
-x,-y,z
1/2-x,y,z
1/2+x,-y,z
1/2+x,1/2+y,1/2+z
1/2-x,1/2-y,1/2+z
-x,1/2+y,1/2+z
x,1/2-y,1/2+z
loop_
_atom_site_type_symbol
_atom_site_label
_atom_site_fract_x
_atom_site_fract_y
_atom_site_fract_z
Si Si1 0.960684 0.212484 0.959150
Si Si2 0.540530 0.291410 0.837980
Si Si3 0.455648 0.571581 0.643728
Si Si4 0.944271 0.073719 0.916596
Si Si5 0.050366 0.428298 0.274900
Si Si6 0.540604 0.212357 0.097740
Si Si7 0.543034 0.205854 0.717879
Si Si8 0.044393 0.571412 0.787726
O O1 0.750000 0.211953 0.957114
O O2 0.016943 0.258742 0.902445
O O3 0.025763 0.138456 0.946275
O O4 0.011474 0.233881 0.028527
O O5 0.750000 0.291032 0.838270
O O6 0.487256 0.247576 0.778547
O O7 0.483232 0.365731 0.825975
O O8 0.500000 0.500000 0.617246
O O9 0.250000 0.574845 0.645554
O O10 0.515092 0.637123 0.609257
O O11 0.519801 0.574449 0.715772
O O12 0.750000 0.076220 0.937624
O O13 0.955366 0.081909 0.841243
O O14 0.000000 0.000000 0.930983
O O15 0.250000 0.429537 0.290778
O O16 0.000000 0.500000 0.250274
O O17 0.012999 0.368638 0.228761
O O18 0.750000 0.212327 0.099432
O O19 0.483327 0.258528 0.154671
O O20 0.750000 0.206846 0.717374
O O21 0.250000 0.575967 0.784455
O O22 0.000000 0.500000 0.813491
#
# Coordination Sequence:
#
# PCOD9377895 Si02
#       8
#     8   8   8   8   8   8   8   8
#     4   9  17  28  46  72  97 125 165 204 236 285
#     4   9  15  27  48  70  93 124 161 198 238 282
#     4   9  16  27  43  65  93 124 158 189 226 275
#     4  10  18  30  48  70 101 135 170 204 241 287
#     4  11  21  33  51  76 102 127 162 204 252 300
#     4   9  17  29  47  71  98 129 165 200 241 293
#     4  10  17  31  53  74  96 126 164 206 248 288
#     4   9  16  27  45  68  92 120 152 192 233 277
#
# _framework density 18.796455000000002
#
# number of rings (size 3 to 8) (size 9 to 14) (size 15 to 20)
#    0.000    2.500    2.500    2.250    0.000    0.500 
#    0.000    1.250    0.000    3.000    0.000    1.750 
#    0.000    0.000    0.000    0.000    0.000    0.000 
#
# Total GULP energy -178462.622151 kJ/mol
# GULP energy per Si atom -5576.956942 kJ/mol
# Density = 1.875367 g / cm^3
# Si number density = 18.796455 Si / 1000 Ang^3
#
#
#
# Elastic Constant Matrix: (Units=GPa)
#
#
# Indices 1 2 3 4 5 6 
#
# 1 17.5598 -3.4238 -2.8507 0.0000 0.0000 0.0000
# 2 -3.4238 139.2394 74.5431 0.0000 0.0000 0.0000
# 3 -2.8507 74.5431 119.9655 0.0000 0.0000 0.0000
# 4 0.0000 0.0000 0.0000 21.2836 0.0000 0.0000
# 5 0.0000 0.0000 0.0000 0.0000 11.3916 0.0000
# 6 0.0000 0.0000 0.0000 0.0000 0.0000 21.2371
#
#
#
# Elastic Compliance Matrix: (Units=1/GPa)
#
#
# Indices 1 2 3 4 5 6 
#
# 1 0.057265 0.001018 0.000728 0.000000 0.000000 0.000000
# 2 0.001018 0.010780 -0.006674 0.000000 0.000000 0.000000
# 3 0.000728 -0.006674 0.012500 0.000000 0.000000 0.000000
# 4 0.000000 0.000000 0.000000 0.046984 0.000000 0.000000
# 5 0.000000 0.000000 0.000000 0.000000 0.087784 0.000000
# 6 0.000000 0.000000 0.000000 0.000000 0.000000 0.047088
#
#
# Mechanical properties :
#
#
# Convention : Reuss Voigt Hill
#
# Bulk Modulus (GPa) = 14.14635 45.92243 30.03439
# Shear Modulus (GPa) = 16.90218 24.68219 20.79218
#
# Velocity S-wave (km/s) = 3.00196 3.62765 3.32953
# Velocity P-wave (km/s) = 4.42245 6.48312 5.54928
#
# Compressibility (1/GPa) = 0.07068963
#
# Stress axis : x y z
#
# Youngs Moduli (GPa) = 17.46264 92.76427 79.99882
#
# Poissons Ratio (x) = -0.09447 -0.05824
# Poissons Ratio (y) = -0.01778 0.53393
# Poissons Ratio (z) = -0.01271 0.61913
#
# Static dielectric constant tensor:
#      x y z
#    x 1.690470 0.000000 0.000000 
#    y 0.000000 1.663190 0.000000 
#    z 0.000000 0.000000 1.637490 
# 
# From -- ./inp_files/21414.got.cif
#   From: 2010.05.17/outbox.cif.g08.bks.cpg/sg46_11_cif.got.tgz:21414.got - 2010.06.03 19:58:25.
