data_PCOD9377266
_publ_section_title
;
Structure prediction by ZEFSAII (Michael W. Deem and Ramdas Pophale) SiO2 
 PCOD9377266
Probable space group: I B A 2
;
_chemical_formula_sum "Si O2"
_cell_formula_units_Z 40
_cell_length_a 13.874487
_cell_length_b 8.745144
_cell_length_c 13.081792
_cell_angle_alpha 90.000000
_cell_angle_beta 90.000000
_cell_angle_gamma 90.000000
_cell_volume 1587.271210
_symmetry_space_group_name_H-M "I B A 2"
_symmetry_group_IT_number 45
_symmetry_cell_setting 'orthorhombic'
loop_
_space_group_symop_operation_xyz
x,y,z
-x,-y,z
-x,y,1/2+z
x,-y,1/2+z
1/2+x,1/2+y,1/2+z
1/2-x,1/2-y,1/2+z
1/2-x,1/2+y,z
1/2+x,1/2-y,z
loop_
_atom_site_type_symbol
_atom_site_label
_atom_site_fract_x
_atom_site_fract_y
_atom_site_fract_z
Si Si1 0.203885 0.342523 0.414710
Si Si2 0.849659 0.649146 0.020705
Si Si3 0.982501 0.324802 0.172248
Si Si4 0.201969 0.129130 0.700435
Si Si5 0.580992 0.391975 0.334056
O O1 0.155172 0.502896 0.444417
O O2 0.302334 0.300865 0.472876
O O3 0.231650 0.328185 0.296175
O O4 0.137373 0.193161 0.423614
O O5 0.952934 0.687515 0.069458
O O6 0.776416 0.597989 0.110404
O O7 0.026416 0.230303 0.264988
O O8 0.000000 0.500000 0.199857
O O9 0.873477 0.261271 0.166348
O O10 0.142600 0.989428 0.751039
O O11 0.500000 0.500000 0.380017
#
# Coordination Sequence:
#
# PCOD9377266 Si02
#       5
#     8   8   8   8   8
#     4  12  25  46  79 113 155 204 260 325 398 476
#     4  12  26  46  76 116 151 202 265 319 389 479
#     4  11  25  46  75 109 152 201 251 322 389 465
#     4  11  25  50  76 106 163 203 253 328 401 470
#     4  10  23  48  74 107 148 207 250 315 397 467
#
# _framework density 25.200482000000001
#
# number of rings (size 3 to 8) (size 9 to 14) (size 15 to 20)
#    0.000    0.800    4.000    2.400    5.600    0.000 
#   14.400    1.000    0.000    0.000    0.000    0.000 
#    0.000    0.000    0.000    0.000    0.000    0.000 
#
# Total GULP energy -111963.226734 kJ/mol
# GULP energy per Si atom -5598.161337 kJ/mol
# Density = 2.514312 g / cm^3
# Si number density = 25.200482 Si / 1000 Ang^3
#
#
#
# Elastic Constant Matrix: (Units=GPa)
#
#
# Indices 1 2 3 4 5 6 
#
# 1 103.7556 19.8439 40.6923 0.0000 0.0000 0.0000
# 2 19.8439 73.3593 21.6224 0.0000 0.0000 0.0000
# 3 40.6923 21.6224 73.8563 0.0000 0.0000 0.0000
# 4 0.0000 0.0000 0.0000 27.7315 0.0000 0.0000
# 5 0.0000 0.0000 0.0000 0.0000 28.7324 0.0000
# 6 0.0000 0.0000 0.0000 0.0000 0.0000 47.0776
#
#
#
# Elastic Compliance Matrix: (Units=1/GPa)
#
#
# Indices 1 2 3 4 5 6 
#
# 1 0.012438 -0.001472 -0.006422 0.000000 0.000000 0.000000
# 2 -0.001472 0.015093 -0.003608 0.000000 0.000000 0.000000
# 3 -0.006422 -0.003608 0.018134 0.000000 0.000000 0.000000
# 4 0.000000 0.000000 0.000000 0.036060 0.000000 0.000000
# 5 0.000000 0.000000 0.000000 0.000000 0.034804 0.000000
# 6 0.000000 0.000000 0.000000 0.000000 0.000000 0.021242
#
#
# Mechanical properties :
#
#
# Convention : Reuss Voigt Hill
#
# Bulk Modulus (GPa) = 44.12613 46.14317 45.13465
# Shear Modulus (GPa) = 29.70376 31.96247 30.83312
#
# Velocity S-wave (km/s) = 3.43694 3.56522 3.50167
# Velocity P-wave (km/s) = 5.77045 5.94121 5.85645
#
# Compressibility (1/GPa) = 0.02266231
#
# Stress axis : x y z
#
# Youngs Moduli (GPa) = 80.39715 66.25579 55.14357
#
# Poissons Ratio (x) = 0.09751 0.35414
# Poissons Ratio (y) = 0.11832 0.19895
# Poissons Ratio (z) = 0.51633 0.23904
#
# Static dielectric constant tensor:
#      x y z
#    x 2.149450 0.000000 0.000000 
#    y 0.000000 2.041860 0.000000 
#    z 0.000000 0.000000 1.970030 
# 
# From -- ./inp_files/3138.got.cif
#   From: 2010.05.17/outbox.cif.g08.bks.cpg/sg45_2_cif.got.tgz:3138.got - 2010.06.03 19:51:22.
