data_PCOD9377331
_publ_section_title
;
Structure prediction by ZEFSAII (Michael W. Deem and Ramdas Pophale) SiO2 
 PCOD9377331
Probable space group: I B A 2
;
_chemical_formula_sum "Si O2"
_cell_formula_units_Z 36
_cell_length_a 5.504060
_cell_length_b 26.006841
_cell_length_c 10.186960
_cell_angle_alpha 90.000000
_cell_angle_beta 90.000000
_cell_angle_gamma 90.000000
_cell_volume 1458.194188
_symmetry_space_group_name_H-M "I B A 2"
_symmetry_group_IT_number 45
_symmetry_cell_setting 'orthorhombic'
loop_
_space_group_symop_operation_xyz
x,y,z
-x,-y,z
-x,y,1/2+z
x,-y,1/2+z
1/2+x,1/2+y,1/2+z
1/2-x,1/2-y,1/2+z
1/2-x,1/2+y,z
1/2+x,1/2-y,z
loop_
_atom_site_type_symbol
_atom_site_label
_atom_site_fract_x
_atom_site_fract_y
_atom_site_fract_z
Si Si1 0.236561 0.240660 0.407820
Si Si2 0.350959 0.924865 0.460281
Si Si3 0.441336 0.666108 0.049680
Si Si4 0.727595 0.094304 0.736922
Si Si5 0.500000 0.500000 0.338556
O O1 0.989255 0.254647 0.331826
O O2 0.263685 0.287230 0.512237
O O3 0.190705 0.189886 0.495263
O O4 0.437499 0.920483 0.610160
O O5 0.552772 0.906168 0.360233
O O6 0.129649 0.883622 0.463828
O O7 0.227147 0.978824 0.422856
O O8 0.376332 0.645346 0.194279
O O9 0.913494 0.047515 0.752084
#
# Coordination Sequence:
#
# PCOD9377331 Si02
#       5
#     8   8   8   8   4
#     4   8  16  36  66  97 138 181 230 284 352 416
#     4  10  24  44  67 101 136 185 227 297 347 432
#     4   8  20  39  67  98 138 180 234 290 354 426
#     4  10  24  44  67 101 136 185 227 297 347 432
#     4  12  24  40  68 100 138 184 234 286 362 420
#
# _framework density 24.688071000000001
#
# number of rings (size 3 to 8) (size 9 to 14) (size 15 to 20)
#    2.667    0.000    0.000    1.333    0.000    8.889 
#    0.000    2.222    0.000    0.000    0.000    0.000 
#    0.000    0.000    0.000    0.000    0.000    0.000 
#
# Total GULP energy -100303.846724 kJ/mol
# GULP energy per Si atom -5572.435929 kJ/mol
# Density = 2.463188 g / cm^3
# Si number density = 24.688071 Si / 1000 Ang^3
#
#
#
# Elastic Constant Matrix: (Units=GPa)
#
#
# Indices 1 2 3 4 5 6 
#
# 1 106.2964 9.8077 26.5628 0.0000 0.0000 0.0000
# 2 9.8077 101.0565 -0.5511 -0.0001 0.0000 0.0000
# 3 26.5628 -0.5511 89.2716 -0.0001 0.0000 0.0000
# 4 0.0000 -0.0001 -0.0001 19.6599 0.0000 0.0000
# 5 0.0000 0.0000 0.0000 0.0000 27.5943 0.0000
# 6 0.0000 0.0000 0.0000 0.0000 0.0000 35.5924
#
#
#
# Elastic Compliance Matrix: (Units=1/GPa)
#
#
# Indices 1 2 3 4 5 6 
#
# 1 0.010266 -0.001013 -0.003061 0.000000 0.000000 0.000000
# 2 -0.001013 0.009996 0.000363 0.000000 0.000000 0.000000
# 3 -0.003061 0.000363 0.012115 0.000000 0.000000 0.000000
# 4 0.000000 0.000000 0.000000 0.050865 0.000000 0.000000
# 5 0.000000 0.000000 0.000000 0.000000 0.036239 0.000000
# 6 0.000000 0.000000 0.000000 0.000000 0.000000 0.028096
#
#
# Mechanical properties :
#
#
# Convention : Reuss Voigt Hill
#
# Bulk Modulus (GPa) = 40.07221 40.91815 40.49518
# Shear Modulus (GPa) = 30.61537 33.95633 32.28585
#
# Velocity S-wave (km/s) = 3.52531 3.71268 3.62021
# Velocity P-wave (km/s) = 5.73036 5.91513 5.82348
#
# Compressibility (1/GPa) = 0.02495495
#
# Stress axis : x y z
#
# Youngs Moduli (GPa) = 97.40861 100.04246 82.54372
#
# Poissons Ratio (x) = 0.10135 0.25266
# Poissons Ratio (y) = 0.09868 -0.02997
# Poissons Ratio (z) = 0.29816 -0.03633
#
# Static dielectric constant tensor:
#      x y z
#    x 2.008340 0.000000 0.000000 
#    y 0.000000 1.978700 0.000000 
#    z 0.000000 0.000000 2.004290 
# 
# From -- ./inp_files/2947.got.cif
#   From: 2010.05.17/outbox.cif.g08.bks.cpg/sg45_2_cif.got.tgz:2947.got - 2010.06.03 19:51:22.
