data_PCOD9377375
_publ_section_title
;
Structure prediction by ZEFSAII (Michael W. Deem and Ramdas Pophale) SiO2 
 PCOD9377375
Probable space group: I B A 2
;
_chemical_formula_sum "Si O2"
_cell_formula_units_Z 56
_cell_length_a 8.036361
_cell_length_b 13.637503
_cell_length_c 20.909787
_cell_angle_alpha 90.000000
_cell_angle_beta 90.000000
_cell_angle_gamma 90.000000
_cell_volume 2291.626867
_symmetry_space_group_name_H-M "I B A 2"
_symmetry_group_IT_number 45
_symmetry_cell_setting 'orthorhombic'
loop_
_space_group_symop_operation_xyz
x,y,z
-x,-y,z
-x,y,1/2+z
x,-y,1/2+z
1/2+x,1/2+y,1/2+z
1/2-x,1/2-y,1/2+z
1/2-x,1/2+y,z
1/2+x,1/2-y,z
loop_
_atom_site_type_symbol
_atom_site_label
_atom_site_fract_x
_atom_site_fract_y
_atom_site_fract_z
Si Si1 0.500000 0.500000 0.289871
Si Si2 0.650452 0.347946 0.705529
Si Si3 0.000000 0.500000 0.640834
Si Si4 0.415249 0.705374 0.456906
Si Si5 0.220814 0.075814 0.569720
Si Si6 0.236814 0.592341 0.972661
Si Si7 0.962471 0.364852 0.242683
Si Si8 0.205564 0.425699 0.870262
O O1 0.480843 0.404772 0.248070
O O2 0.661339 0.488829 0.331649
O O3 0.629015 0.391580 0.634434
O O4 0.612739 0.235733 0.718535
O O5 0.840093 0.363480 0.729375
O O6 0.910182 0.423887 0.594774
O O7 0.886221 0.557632 0.691545
O O8 0.327651 0.654712 0.517517
O O9 0.595450 0.652252 0.452107
O O10 0.403100 0.822172 0.468094
O O11 0.303200 0.669311 0.397341
O O12 0.209373 0.966681 0.537812
O O13 0.177294 0.501612 0.928496
O O14 0.926258 0.391907 0.316527
#
# Coordination Sequence:
#
# PCOD9377375 Si02
#       8
#     4   8   4   8   8   8   8   8
#     4  12  24  46  72 104 148 196 240 320 372 452
#     4  11  27  46  76 113 144 201 246 308 385 454
#     4  10  24  48  66 116 144 188 246 316 362 460
#     4  11  26  47  74 105 145 199 251 309 372 447
#     4  10  24  46  74 104 151 185 253 308 374 444
#     4  11  26  49  74 110 147 200 250 321 371 443
#     4  11  25  47  72 109 151 192 250 305 377 458
#     4  11  23  49  72 105 150 189 251 310 373 448
#
# _framework density 24.436788
#
# number of rings (size 3 to 8) (size 9 to 14) (size 15 to 20)
#    0.000    1.143    1.429    3.857    8.000    2.286 
#    7.714    0.000    0.000    0.000    0.000    0.000 
#    0.000    0.000    0.000    0.000    0.000    0.000 
#
# Total GULP energy -156397.161394 kJ/mol
# GULP energy per Si atom -5585.612907 kJ/mol
# Density = 2.438117 g / cm^3
# Si number density = 24.436788 Si / 1000 Ang^3
#
#
#
# Elastic Constant Matrix: (Units=GPa)
#
#
# Indices 1 2 3 4 5 6 
#
# 1 75.0854 26.5912 31.9843 0.0000 0.0000 0.0000
# 2 26.5912 177.9716 45.1011 0.0000 0.0000 0.0000
# 3 31.9843 45.1011 122.1999 0.0000 0.0000 0.0000
# 4 0.0000 0.0000 0.0000 23.8722 0.0000 0.0000
# 5 0.0000 0.0000 0.0000 0.0000 19.1193 0.0000
# 6 0.0000 0.0000 0.0000 0.0000 0.0000 38.9591
#
#
#
# Elastic Compliance Matrix: (Units=1/GPa)
#
#
# Indices 1 2 3 4 5 6 
#
# 1 0.015300 -0.001402 -0.003487 0.000000 0.000000 0.000000
# 2 -0.001402 0.006327 -0.001968 0.000000 0.000000 0.000000
# 3 -0.003487 -0.001968 0.009822 0.000000 0.000000 0.000000
# 4 0.000000 0.000000 0.000000 0.041890 0.000000 0.000000
# 5 0.000000 0.000000 0.000000 0.000000 0.052303 0.000000
# 6 0.000000 0.000000 0.000000 0.000000 0.000000 0.025668
#
#
# Mechanical properties :
#
#
# Convention : Reuss Voigt Hill
#
# Bulk Modulus (GPa) = 56.38691 64.73449 60.56070
# Shear Modulus (GPa) = 29.25045 34.49545 31.87295
#
# Velocity S-wave (km/s) = 3.46350 3.76123 3.61543
# Velocity P-wave (km/s) = 6.25453 6.73873 6.50114
#
# Compressibility (1/GPa) = 0.01773461
#
# Stress axis : x y z
#
# Youngs Moduli (GPa) = 65.35859 158.04853 101.80796
#
# Poissons Ratio (x) = 0.22164 0.35501
# Poissons Ratio (y) = 0.09166 0.20037
# Poissons Ratio (z) = 0.22791 0.31106
#
# Static dielectric constant tensor:
#      x y z
#    x 2.018100 0.000000 0.000000 
#    y 0.000000 1.769350 0.000000 
#    z 0.000000 0.000000 1.965700 
# 
# From -- ./inp_files/8914.got.cif
#   From: 2010.05.17/outbox.cif.g08.bks.cpg/sg45_5_cif.got.tgz:8914.got - 2010.06.03 19:51:22.
