data_PCOD9377671
_publ_section_title
;
Structure prediction by ZEFSAII (Michael W. Deem and Ramdas Pophale) SiO2 
 PCOD9377671
Probable space group: I B A 2
;
_chemical_formula_sum "Si O2"
_cell_formula_units_Z 64
_cell_length_a 21.928585
_cell_length_b 14.088821
_cell_length_c 9.708935
_cell_angle_alpha 90.000000
_cell_angle_beta 90.000000
_cell_angle_gamma 90.000000
_cell_volume 2999.555165
_symmetry_space_group_name_H-M "I B A 2"
_symmetry_group_IT_number 45
_symmetry_cell_setting 'orthorhombic'
loop_
_space_group_symop_operation_xyz
x,y,z
-x,-y,z
-x,y,1/2+z
x,-y,1/2+z
1/2+x,1/2+y,1/2+z
1/2-x,1/2-y,1/2+z
1/2-x,1/2+y,z
1/2+x,1/2-y,z
loop_
_atom_site_type_symbol
_atom_site_label
_atom_site_fract_x
_atom_site_fract_y
_atom_site_fract_z
Si Si1 0.900059 0.062618 0.209600
Si Si2 0.178742 0.544175 0.284751
Si Si3 0.489786 0.276276 0.312042
Si Si4 0.097796 0.532391 0.032292
Si Si5 0.238775 0.800453 0.935334
Si Si6 0.104276 0.113746 0.401904
Si Si7 0.022897 0.350001 0.050265
Si Si8 0.736455 0.633980 0.239925
O O1 0.951721 0.131933 0.268170
O O2 0.834804 0.109207 0.243566
O O3 0.901992 0.960061 0.278002
O O4 0.905082 0.058582 0.045141
O O5 0.135258 0.493770 0.396668
O O6 0.214127 0.630012 0.357407
O O7 0.226707 0.464276 0.236611
O O8 0.139920 0.575278 0.151940
O O9 0.551491 0.309231 0.386706
O O10 0.453940 0.211348 0.421372
O O11 0.507595 0.215578 0.179097
O O12 0.070165 0.432673 0.087092
O O13 0.039774 0.598501 0.004365
O O14 0.170685 0.839034 0.906604
O O15 0.245662 0.696665 0.871119
O O16 0.249469 0.808737 0.098877
#
# Coordination Sequence:
#
# PCOD9377671 Si02
#       8
#     8   8   8   8   8   8   8   8
#     4  11  26  46  68  98 138 178 225 283 340 404
#     4  12  24  45  72 105 134 184 228 282 342 412
#     4  12  25  43  72  98 134 180 236 273 339 400
#     4  11  26  44  72  96 144 179 228 274 348 399
#     4  11  27  45  69 103 139 181 230 284 345 406
#     4  11  26  46  68  98 138 178 225 283 340 404
#     4  11  26  46  65 104 138 182 223 288 328 407
#     4  11  27  45  69 103 139 181 230 284 345 406
#
# _framework density 21.336497000000001
#
# number of rings (size 3 to 8) (size 9 to 14) (size 15 to 20)
#    0.000    0.750    3.750    1.875   10.500    4.000 
#    0.000    0.000    0.000    0.000    0.000    0.000 
#    0.000    0.000    0.000    0.000    0.000    0.000 
#
# Total GULP energy -179209.044564 kJ/mol
# GULP energy per Si atom -5600.282643 kJ/mol
# Density = 2.128793 g / cm^3
# Si number density = 21.336497 Si / 1000 Ang^3
#
#
#
# Elastic Constant Matrix: (Units=GPa)
#
#
# Indices 1 2 3 4 5 6 
#
# 1 61.4231 -15.0250 5.5404 0.0000 0.0000 0.0000
# 2 -15.0250 29.0309 -5.7469 0.0000 0.0000 0.0000
# 3 5.5404 -5.7469 40.0231 0.0000 0.0000 0.0000
# 4 0.0000 0.0000 0.0000 41.3507 0.0000 0.0000
# 5 0.0000 0.0000 0.0000 0.0000 30.4534 0.0000
# 6 0.0000 0.0000 0.0000 0.0000 0.0000 20.2667
#
#
#
# Elastic Compliance Matrix: (Units=1/GPa)
#
#
# Indices 1 2 3 4 5 6 
#
# 1 0.018699 0.009434 -0.001234 0.000000 0.000000 0.000000
# 2 0.009434 0.040213 0.004468 0.000000 0.000000 0.000000
# 3 -0.001234 0.004468 0.025798 0.000000 0.000000 0.000000
# 4 0.000000 0.000000 0.000000 0.024183 0.000000 0.000000
# 5 0.000000 0.000000 0.000000 0.000000 0.032837 0.000000
# 6 0.000000 0.000000 0.000000 0.000000 0.000000 0.049342
#
#
# Mechanical properties :
#
#
# Convention : Reuss Voigt Hill
#
# Bulk Modulus (GPa) = 9.08709 11.11268 10.09988
# Shear Modulus (GPa) = 24.70124 28.12808 26.41466
#
# Velocity S-wave (km/s) = 3.40619 3.63479 3.52234
# Velocity P-wave (km/s) = 4.44271 4.77862 4.61372
#
# Compressibility (1/GPa) = 0.11004622
#
# Stress axis : x y z
#
# Youngs Moduli (GPa) = 53.47755 24.86761 38.76275
#
# Poissons Ratio (x) = -0.23459 0.04783
# Poissons Ratio (y) = -0.50449 -0.17320
# Poissons Ratio (z) = 0.06599 -0.11111
#
# Static dielectric constant tensor:
#      x y z
#    x 1.759460 0.000000 0.000000 
#    y 0.000000 1.742080 0.000000 
#    z 0.000000 0.000000 1.735900 
# 
# From -- ./inp_files/2553.got.cif
#   From: 2010.05.17/outbox.cif.g08.bks.cpg/sg45_2_cif.got.tgz:2553.got - 2010.06.03 19:51:22.
