data_PCOD9377764
_publ_section_title
;
Structure prediction by ZEFSAII (Michael W. Deem and Ramdas Pophale) SiO2 
 PCOD9377764
Probable space group: I M A 2
;
_chemical_formula_sum "Si O2"
_cell_formula_units_Z 48
_cell_length_a 8.531660
_cell_length_b 7.660597
_cell_length_c 33.777378
_cell_angle_alpha 90.000000
_cell_angle_beta 90.000000
_cell_angle_gamma 90.000000
_cell_volume 2207.608664
_symmetry_space_group_name_H-M "I M A 2"
_symmetry_group_IT_number 46
_symmetry_cell_setting 'orthorhombic'
loop_
_space_group_symop_operation_xyz
x,y,z
-x,-y,z
1/2-x,y,z
1/2+x,-y,z
1/2+x,1/2+y,1/2+z
1/2-x,1/2-y,1/2+z
-x,1/2+y,1/2+z
x,1/2-y,1/2+z
loop_
_atom_site_type_symbol
_atom_site_label
_atom_site_fract_x
_atom_site_fract_y
_atom_site_fract_z
Si Si1 0.063572 0.200680 0.754860
Si Si2 0.061698 0.195324 0.420943
Si Si3 0.063989 0.804953 0.835754
Si Si4 0.063538 0.700375 0.173042
Si Si5 0.938529 0.700743 0.091204
Si Si6 0.060687 0.200065 0.505711
O O1 0.250000 0.195781 0.754662
O O2 0.005148 0.283517 0.796136
O O3 0.001790 0.280217 0.713765
O O4 0.000000 0.000000 0.754316
O O5 0.250000 0.204582 0.417634
O O6 0.012997 0.281086 0.463201
O O7 0.990034 0.250195 0.379263
O O8 0.000000 0.000000 0.425365
O O9 0.250000 0.797896 0.833320
O O10 0.000000 0.000000 0.833235
O O11 0.250000 0.696290 0.174493
O O12 0.000000 0.500000 0.172309
O O13 0.007219 0.780357 0.131442
O O14 0.750000 0.699242 0.094026
O O15 0.000000 0.500000 0.090230
O O16 0.986822 0.778030 0.048320
O O17 0.250000 0.194231 0.505394
O O18 0.000000 0.000000 0.506295
#
# Coordination Sequence:
#
# PCOD9377764 Si02
#       6
#     8   8   8   8   8   8
#     4  10  17  27  41  58  81 112 146 184 226 274
#     4  10  19  33  50  71  96 126 160 197 237 281
#     4  11  21  34  50  70  94 124 158 197 239 284
#     4  10  16  22  32  50  76 108 142 178 217 265
#     4   9  14  21  32  50  75 107 142 177 215 261
#     4   8  15  25  39  57  82 113 147 183 223 267
#
# _framework density 21.742982999999999
#
# number of rings (size 3 to 8) (size 9 to 14) (size 15 to 20)
#    0.000    2.333    0.000    8.500    0.000    1.333 
#    0.000    0.000    0.000    0.000    0.000    0.000 
#    0.000    1.333    0.000   11.333    0.000   13.333 
#
# Total GULP energy -133723.928928 kJ/mol
# GULP energy per Si atom -5571.830372 kJ/mol
# Density = 2.169350 g / cm^3
# Si number density = 21.742983 Si / 1000 Ang^3
#
#
#
# Elastic Constant Matrix: (Units=GPa)
#
#
# Indices 1 2 3 4 5 6 
#
# 1 152.4093 1.0820 90.3075 0.0000 0.0000 0.0000
# 2 1.0820 31.2774 21.9614 0.0000 0.0000 0.0000
# 3 90.3075 21.9614 315.0251 0.0000 0.0000 0.0000
# 4 0.0000 0.0000 0.0000 1.7600 0.0000 0.0000
# 5 0.0000 0.0000 0.0000 0.0000 32.4726 0.0000
# 6 0.0000 0.0000 0.0000 0.0000 0.0000 4.9965
#
#
#
# Elastic Compliance Matrix: (Units=1/GPa)
#
#
# Indices 1 2 3 4 5 6 
#
# 1 0.007961 0.001395 -0.002380 0.000000 0.000000 0.000000
# 2 0.001395 0.033862 -0.002761 0.000000 0.000000 0.000000
# 3 -0.002380 -0.002761 0.004049 0.000000 0.000000 0.000000
# 4 0.000000 0.000000 0.000000 0.568185 0.000000 0.000000
# 5 0.000000 0.000000 0.000000 0.000000 0.030795 0.000000
# 6 0.000000 0.000000 0.000000 0.000000 0.000000 0.200140
#
#
# Mechanical properties :
#
#
# Convention : Reuss Voigt Hill
#
# Bulk Modulus (GPa) = 26.05337 80.60152 53.32744
# Shear Modulus (GPa) = 5.77850 33.53655 19.65752
#
# Velocity S-wave (km/s) = 1.63199 3.93161 3.01006
# Velocity P-wave (km/s) = 3.94457 7.60005 6.05476
#
# Compressibility (1/GPa) = 0.03838275
#
# Stress axis : x y z
#
# Youngs Moduli (GPa) = 125.60728 29.53156 246.97834
#
# Poissons Ratio (x) = -0.04121 0.58769
# Poissons Ratio (y) = -0.17527 0.68182
# Poissons Ratio (z) = 0.29889 0.08153
#
# Static dielectric constant tensor:
#      x y z
#    x 1.719690 0.000000 0.000000 
#    y 0.000000 2.045280 0.000000 
#    z 0.000000 0.000000 1.980640 
# 
# From -- ./inp_files/25121.got.cif
#   From: 2010.05.17/outbox.cif.g08.bks.cpg/sg46_13_cif.got.tgz:25121.got - 2010.06.03 19:58:25.
