data_PCOD9377286
_publ_section_title
;
Structure prediction by ZEFSAII (Michael W. Deem and Ramdas Pophale) SiO2 
 PCOD9377286
Probable space group: I B A 2
;
_chemical_formula_sum "Si O2"
_cell_formula_units_Z 60
_cell_length_a 20.148848
_cell_length_b 11.223913
_cell_length_c 12.267787
_cell_angle_alpha 90.000000
_cell_angle_beta 90.000000
_cell_angle_gamma 90.000000
_cell_volume 2774.346744
_symmetry_space_group_name_H-M "I B A 2"
_symmetry_group_IT_number 45
_symmetry_cell_setting 'orthorhombic'
loop_
_space_group_symop_operation_xyz
x,y,z
-x,-y,z
-x,y,1/2+z
x,-y,1/2+z
1/2+x,1/2+y,1/2+z
1/2-x,1/2-y,1/2+z
1/2-x,1/2+y,z
1/2+x,1/2-y,z
loop_
_atom_site_type_symbol
_atom_site_label
_atom_site_fract_x
_atom_site_fract_y
_atom_site_fract_z
Si Si1 0.842430 0.923420 0.687270
Si Si2 0.964605 0.322258 0.424797
Si Si3 0.677873 0.671551 0.793374
Si Si4 0.795491 0.340397 0.605199
Si Si5 0.597074 0.023220 0.574849
Si Si6 0.500000 0.000000 0.763117
Si Si7 0.583965 0.704214 0.003164
Si Si8 0.318682 0.247986 0.377350
O O1 0.780411 0.872262 0.620087
O O2 0.902218 0.874735 0.611418
O O3 0.828118 0.865734 0.806133
O O4 0.840045 0.062280 0.713903
O O5 0.947172 0.421689 0.514831
O O6 0.893158 0.302281 0.371885
O O7 0.011750 0.385530 0.337457
O O8 0.005628 0.211239 0.471341
O O9 0.673623 0.788372 0.716399
O O10 0.756152 0.673227 0.829512
O O11 0.630177 0.670600 0.899355
O O12 0.831566 0.462930 0.574985
O O13 0.804597 0.247314 0.506430
O O14 0.563810 0.027405 0.692127
O O15 0.599176 0.156641 0.530412
#
# Coordination Sequence:
#
# PCOD9377286 Si02
#       8
#     8   8   8   8   8   4   8   8
#     4  11  26  43  72 102 145 197 238 298 361 446
#     4  11  23  40  69 105 142 179 234 294 364 431
#     4  11  26  45  71 105 142 195 238 300 364 438
#     4  10  24  41  71 103 141 180 235 299 361 440
#     4  11  23  39  70 108 137 176 225 304 364 428
#     4  12  18  36  64 106 136 176 212 300 360 432
#     4  12  23  47  67 106 145 188 242 298 372 432
#     4  10  24  45  69 105 137 187 239 304 352 436
#
# _framework density 21.626712999999999
#
# number of rings (size 3 to 8) (size 9 to 14) (size 15 to 20)
#    0.000    1.067    4.000    1.600    7.467    3.200 
#    0.000    0.667    0.000    0.000    0.000    0.000 
#    0.000    0.000    0.000    0.000    0.000    0.000 
#
# Total GULP energy -167235.567994 kJ/mol
# GULP energy per Si atom -5574.518933 kJ/mol
# Density = 2.157749 g / cm^3
# Si number density = 21.626713 Si / 1000 Ang^3
#
#
#
# Elastic Constant Matrix: (Units=GPa)
#
#
# Indices 1 2 3 4 5 6 
#
# 1 71.0775 19.8959 14.5573 0.0000 0.0000 0.0000
# 2 19.8959 62.7615 20.5457 0.0000 0.0000 0.0000
# 3 14.5573 20.5457 78.8864 0.0000 0.0000 0.0000
# 4 0.0000 0.0000 0.0000 32.6691 0.0000 0.0000
# 5 0.0000 0.0000 0.0000 0.0000 26.8726 0.0000
# 6 0.0000 0.0000 0.0000 0.0000 0.0000 18.5002
#
#
#
# Elastic Compliance Matrix: (Units=1/GPa)
#
#
# Indices 1 2 3 4 5 6 
#
# 1 0.015656 -0.004392 -0.001745 0.000000 0.000000 0.000000
# 2 -0.004392 0.018650 -0.004047 0.000000 0.000000 0.000000
# 3 -0.001745 -0.004047 0.014053 0.000000 0.000000 0.000000
# 4 0.000000 0.000000 0.000000 0.030610 0.000000 0.000000
# 5 0.000000 0.000000 0.000000 0.000000 0.037213 0.000000
# 6 0.000000 0.000000 0.000000 0.000000 0.000000 0.054053
#
#
# Mechanical properties :
#
#
# Convention : Reuss Voigt Hill
#
# Bulk Modulus (GPa) = 35.72593 35.85814 35.79204
# Shear Modulus (GPa) = 25.00835 26.12347 25.56591
#
# Velocity S-wave (km/s) = 3.40422 3.47929 3.44196
# Velocity P-wave (km/s) = 5.65746 5.72338 5.69052
#
# Compressibility (1/GPa) = 0.02799087
#
# Stress axis : x y z
#
# Youngs Moduli (GPa) = 63.87355 53.61825 71.16147
#
# Poissons Ratio (x) = 0.23548 0.12420
# Poissons Ratio (y) = 0.28052 0.28799
# Poissons Ratio (z) = 0.11148 0.21699
#
# Static dielectric constant tensor:
#      x y z
#    x 1.893150 0.000000 0.000000 
#    y 0.000000 1.831620 0.000000 
#    z 0.000000 0.000000 1.870700 
# 
# From -- ./inp_files/4682.got.cif
#   From: 2010.05.17/outbox.cif.g08.bks.cpg/sg45_3_cif.got.tgz:4682.got - 2010.06.03 19:51:22.
