data_PCOD9377907
_publ_section_title
;
Structure prediction by ZEFSAII (Michael W. Deem and Ramdas Pophale) SiO2 
 PCOD9377907
Probable space group: I M A 2
;
_chemical_formula_sum "Si O2"
_cell_formula_units_Z 40
_cell_length_a 14.444778
_cell_length_b 16.913086
_cell_length_c 7.739477
_cell_angle_alpha 90.000000
_cell_angle_beta 90.000000
_cell_angle_gamma 90.000000
_cell_volume 1890.798908
_symmetry_space_group_name_H-M "I M A 2"
_symmetry_group_IT_number 46
_symmetry_cell_setting 'orthorhombic'
loop_
_space_group_symop_operation_xyz
x,y,z
-x,-y,z
1/2-x,y,z
1/2+x,-y,z
1/2+x,1/2+y,1/2+z
1/2-x,1/2-y,1/2+z
-x,1/2+y,1/2+z
x,1/2-y,1/2+z
loop_
_atom_site_type_symbol
_atom_site_label
_atom_site_fract_x
_atom_site_fract_y
_atom_site_fract_z
Si Si1 0.250000 0.236602 0.560971
Si Si2 0.250000 0.383350 0.733587
Si Si3 0.859766 0.987201 0.806969
Si Si4 0.481552 0.870749 0.910083
Si Si5 0.079178 0.058117 0.412675
Si Si6 0.460221 0.215766 0.588829
O O1 0.250000 0.331776 0.560433
O O2 0.250000 0.184836 0.386257
O O3 0.350804 0.218030 0.642756
O O4 0.338727 0.434997 0.776491
O O5 0.750000 0.978729 0.823455
O O6 0.896613 0.068597 0.893390
O O7 0.925179 0.922374 0.895459
O O8 0.885756 0.975664 0.600735
O O9 0.477443 0.820423 0.735510
O O10 0.501774 0.802043 0.046334
O O11 0.041863 0.147391 0.442861
O O12 0.000000 0.000000 0.350542
#
# Coordination Sequence:
#
# PCOD9377907 Si02
#       6
#     4   4   8   8   8   8
#     4  10  20  32  52  94 112 140 169 235 297 329
#     4  10  20  32  58  86 112 142 179 229 281 335
#     4  10  19  36  59  80 109 149 194 222 268 344
#     4  10  21  35  58  85 109 145 184 232 279 323
#     4  10  17  32  53  82 107 143 185 226 266 326
#     4  10  19  32  55  83 114 137 182 228 275 332
#
# _framework density 21.155078
#
# number of rings (size 3 to 8) (size 9 to 14) (size 15 to 20)
#    0.000    2.000    5.000    2.400    5.600    0.000 
#    0.000    1.000   19.800    0.000    0.000    0.000 
#    0.000    0.000    0.000    0.000    0.000    0.000 
#
# Total GULP energy -111535.884186 kJ/mol
# GULP energy per Si atom -5576.794209 kJ/mol
# Density = 2.110693 g / cm^3
# Si number density = 21.155078 Si / 1000 Ang^3
#
#
#
# Elastic Constant Matrix: (Units=GPa)
#
#
# Indices 1 2 3 4 5 6 
#
# 1 116.5093 61.6273 18.1000 0.0000 0.0000 0.0000
# 2 61.6273 137.1187 20.5118 0.0000 0.0000 0.0000
# 3 18.1000 20.5118 24.8058 0.0000 0.0000 0.0000
# 4 0.0000 0.0000 0.0000 34.2584 0.0000 0.0000
# 5 0.0000 0.0000 0.0000 0.0000 14.6103 0.0000
# 6 0.0000 0.0000 0.0000 0.0000 0.0000 39.9118
#
#
#
# Elastic Compliance Matrix: (Units=1/GPa)
#
#
# Indices 1 2 3 4 5 6 
#
# 1 0.011739 -0.004559 -0.004796 0.000000 0.000000 0.000000
# 2 -0.004559 0.010093 -0.005019 0.000000 0.000000 0.000000
# 3 -0.004796 -0.005019 0.047963 0.000000 0.000000 0.000000
# 4 0.000000 0.000000 0.000000 0.029190 0.000000 0.000000
# 5 0.000000 0.000000 0.000000 0.000000 0.068445 0.000000
# 6 0.000000 0.000000 0.000000 0.000000 0.000000 0.025055
#
#
# Mechanical properties :
#
#
# Convention : Reuss Voigt Hill
#
# Bulk Modulus (GPa) = 24.36244 53.21244 38.78744
# Shear Modulus (GPa) = 21.28421 29.63576 25.45999
#
# Velocity S-wave (km/s) = 3.17536 3.74690 3.47290
# Velocity P-wave (km/s) = 4.99850 6.62775 5.86993
#
# Compressibility (1/GPa) = 0.04104679
#
# Stress axis : x y z
#
# Youngs Moduli (GPa) = 85.18279 99.08162 20.84935
#
# Poissons Ratio (x) = 0.45169 0.10000
# Poissons Ratio (y) = 0.38833 0.10465
# Poissons Ratio (z) = 0.40856 0.49731
#
# Static dielectric constant tensor:
#      x y z
#    x 1.752160 0.000000 0.000000 
#    y 0.000000 1.870960 0.000000 
#    z 0.000000 0.000000 1.942980 
# 
# From -- ./inp_files/5433.got.cif
#   From: 2010.05.17/outbox.cif.g08.bks.cpg/sg46_3_cif.got.tgz:5433.got - 2010.06.03 19:58:25.
