data_PCOD9377788
_publ_section_title
;
Structure prediction by ZEFSAII (Michael W. Deem and Ramdas Pophale) SiO2 
 PCOD9377788
Probable space group: I M A 2
;
_chemical_formula_sum "Si O2"
_cell_formula_units_Z 64
_cell_length_a 7.780603
_cell_length_b 23.680980
_cell_length_c 20.075135
_cell_angle_alpha 90.000000
_cell_angle_beta 90.000000
_cell_angle_gamma 90.000000
_cell_volume 3698.889877
_symmetry_space_group_name_H-M "I M A 2"
_symmetry_group_IT_number 46
_symmetry_cell_setting 'orthorhombic'
loop_
_space_group_symop_operation_xyz
x,y,z
-x,-y,z
1/2-x,y,z
1/2+x,-y,z
1/2+x,1/2+y,1/2+z
1/2-x,1/2-y,1/2+z
-x,1/2+y,1/2+z
x,1/2-y,1/2+z
loop_
_atom_site_type_symbol
_atom_site_label
_atom_site_fract_x
_atom_site_fract_y
_atom_site_fract_z
Si Si1 0.039271 0.772925 0.081670
Si Si2 0.048026 0.065060 0.596574
Si Si3 0.539642 0.224442 0.373442
Si Si4 0.450384 0.760030 0.228493
Si Si5 0.455501 0.565584 0.358642
Si Si6 0.952823 0.630979 0.225075
Si Si7 0.959110 0.162890 0.952987
Si Si8 0.456348 0.661787 0.001932
O O1 0.250000 0.772496 0.083061
O O2 0.976291 0.778829 0.157178
O O3 0.985487 0.712107 0.051567
O O4 0.985464 0.819529 0.027283
O O5 0.250000 0.066321 0.606368
O O6 0.973942 0.096972 0.661531
O O7 0.006031 0.102035 0.531970
O O8 0.000000 0.000000 0.591872
O O9 0.750000 0.224285 0.371419
O O10 0.475030 0.218064 0.298292
O O11 0.491042 0.285430 0.404111
O O12 0.484172 0.178364 0.427907
O O13 0.250000 0.776506 0.227754
O O14 0.460368 0.691925 0.231590
O O15 0.500000 0.500000 0.364460
O O16 0.250000 0.570519 0.355524
O O17 0.524558 0.593210 0.290724
O O18 0.517032 0.604430 0.420304
O O19 0.750000 0.642132 0.215972
O O20 0.750000 0.162457 0.954456
O O21 0.250000 0.664580 0.000962
#
# Coordination Sequence:
#
# PCOD9377788 Si02
#       8
#     8   8   8   8   8   8   8   8
#     4   8  14  24  45  71  91 116 152 189 225 266
#     4  11  23  35  47  64  90 123 159 193 227 269
#     4   8  14  25  45  71  93 115 148 188 228 270
#     4  10  16  27  49  72  93 123 157 187 223 267
#     4  11  21  33  49  65  90 124 160 195 227 265
#     4  11  22  33  44  65  96 125 157 189 221 267
#     4   8  14  26  43  66  92 117 148 190 229 263
#     4   9  16  29  48  68  91 118 151 191 230 268
#
# _framework density 17.302488
#
# number of rings (size 3 to 8) (size 9 to 14) (size 15 to 20)
#    0.000    2.500    2.500    3.000    0.000    2.500 
#    0.000    0.625    0.000    1.500    0.000    0.875 
#    0.000    2.000    0.000    0.000    0.000    0.250 
#
# Total GULP energy -178408.653321 kJ/mol
# GULP energy per Si atom -5575.270416 kJ/mol
# Density = 1.726311 g / cm^3
# Si number density = 17.302488 Si / 1000 Ang^3
#
#
#
# Elastic Constant Matrix: (Units=GPa)
#
#
# Indices 1 2 3 4 5 6 
#
# 1 23.9920 -9.2208 -2.0630 0.0000 0.0000 0.0000
# 2 -9.2208 60.8071 50.5278 0.0000 0.0000 0.0000
# 3 -2.0630 50.5278 162.0182 0.0000 0.0000 0.0000
# 4 0.0000 0.0000 0.0000 38.6963 0.0000 0.0000
# 5 0.0000 0.0000 0.0000 0.0000 2.1487 0.0000
# 6 0.0000 0.0000 0.0000 0.0000 0.0000 15.0550
#
#
#
# Elastic Compliance Matrix: (Units=1/GPa)
#
#
# Indices 1 2 3 4 5 6 
#
# 1 0.044778 0.008526 -0.002089 0.000000 0.000000 0.000000
# 2 0.008526 0.023821 -0.007320 0.000000 0.000000 0.000000
# 3 -0.002089 -0.007320 0.008429 0.000000 0.000000 0.000000
# 4 0.000000 0.000000 0.000000 0.025842 0.000000 0.000000
# 5 0.000000 0.000000 0.000000 0.000000 0.465406 0.000000
# 6 0.000000 0.000000 0.000000 0.000000 0.000000 0.066423
#
#
# Mechanical properties :
#
#
# Convention : Reuss Voigt Hill
#
# Bulk Modulus (GPa) = 13.28718 36.14505 24.71611
# Shear Modulus (GPa) = 7.55797 25.01820 16.28809
#
# Velocity S-wave (km/s) = 2.09228 3.80666 3.07151
# Velocity P-wave (km/s) = 3.67870 6.34479 5.18600
#
# Compressibility (1/GPa) = 0.07526053
#
# Stress axis : x y z
#
# Youngs Moduli (GPa) = 22.33259 41.97929 118.64439
#
# Poissons Ratio (x) = -0.35791 0.24782
# Poissons Ratio (y) = -0.19040 0.86853
# Poissons Ratio (z) = 0.04665 0.30731
#
# Static dielectric constant tensor:
#      x y z
#    x 1.630220 0.000000 0.000000 
#    y 0.000000 1.552930 0.000000 
#    z 0.000000 0.000000 1.635040 
# 
# From -- ./inp_files/21443.got.cif
#   From: 2010.05.17/outbox.cif.g08.bks.cpg/sg46_11_cif.got.tgz:21443.got - 2010.06.03 19:58:25.
