data_PCOD9377708
_publ_section_title
;
Structure prediction by ZEFSAII (Michael W. Deem and Ramdas Pophale) SiO2 
 PCOD9377708
Probable space group: I B A 2
;
_chemical_formula_sum "Si O2"
_cell_formula_units_Z 48
_cell_length_a 21.557461
_cell_length_b 8.391576
_cell_length_c 11.867001
_cell_angle_alpha 90.000000
_cell_angle_beta 90.000000
_cell_angle_gamma 90.000000
_cell_volume 2146.753206
_symmetry_space_group_name_H-M "I B A 2"
_symmetry_group_IT_number 45
_symmetry_cell_setting 'orthorhombic'
loop_
_space_group_symop_operation_xyz
x,y,z
-x,-y,z
-x,y,1/2+z
x,-y,1/2+z
1/2+x,1/2+y,1/2+z
1/2-x,1/2-y,1/2+z
1/2-x,1/2+y,z
1/2+x,1/2-y,z
loop_
_atom_site_type_symbol
_atom_site_label
_atom_site_fract_x
_atom_site_fract_y
_atom_site_fract_z
Si Si1 0.687925 0.102032 0.148730
Si Si2 0.081271 0.762439 0.791763
Si Si3 0.618966 0.786621 0.444792
Si Si4 0.000000 0.000000 0.151662
Si Si5 0.104631 0.075895 0.517205
Si Si6 0.500000 0.000000 0.404052
Si Si7 0.316383 0.262165 0.203990
O O1 0.628304 0.171205 0.212315
O O2 0.747214 0.169996 0.214876
O O3 0.688753 0.912805 0.151817
O O4 0.677420 0.156642 0.020093
O O5 0.114756 0.828001 0.903230
O O6 0.028593 0.640847 0.830149
O O7 0.048528 0.908320 0.728993
O O8 0.601575 0.610840 0.488891
O O9 0.561457 0.912576 0.458595
O O10 0.642695 0.760796 0.316706
O O11 0.038048 0.881200 0.071344
O O12 0.152786 0.119840 0.613502
#
# Coordination Sequence:
#
# PCOD9377708 Si02
#       7
#     8   8   8   4   8   4   8
#     4  12  29  49  77 112 151 208 261 327 396 472
#     4  12  26  45  74 111 149 203 250 320 387 472
#     4  12  27  50  82 115 158 209 260 333 393 477
#     4  12  24  46  74 114 152 200 252 312 400 470
#     4  12  26  48  76 112 152 202 250 319 391 464
#     4  12  24  48  74 112 158 196 260 318 398 464
#     4  12  29  51  79 113 156 207 268 327 397 482
#
# _framework density 22.359348000000001
#
# number of rings (size 3 to 8) (size 9 to 14) (size 15 to 20)
#    0.000    0.000    3.333    6.500    4.667    0.667 
#    0.000    0.000    0.000    0.000    0.000    0.000 
#    0.000    0.000    0.000    0.000    0.000    0.000 
#
# Total GULP energy -134254.198749 kJ/mol
# GULP energy per Si atom -5593.924948 kJ/mol
# Density = 2.230846 g / cm^3
# Si number density = 22.359348 Si / 1000 Ang^3
#
#
#
# Elastic Constant Matrix: (Units=GPa)
#
#
# Indices 1 2 3 4 5 6 
#
# 1 77.1899 20.0331 3.3868 0.0000 0.0000 0.0000
# 2 20.0331 100.7179 26.3090 0.0000 0.0000 0.0000
# 3 3.3868 26.3090 90.8898 0.0000 0.0000 0.0000
# 4 0.0000 0.0000 0.0000 -74.7430 0.0000 0.0000
# 5 0.0000 0.0000 0.0000 0.0000 19.2697 0.0000
# 6 0.0000 0.0000 0.0000 0.0000 0.0000 30.9913
#
#
#
# Elastic Compliance Matrix: (Units=1/GPa)
#
#
# Indices 1 2 3 4 5 6 
#
# 1 0.013668 -0.002797 0.000300 0.000000 0.000000 0.000000
# 2 -0.002797 0.011313 -0.003171 0.000000 0.000000 0.000000
# 3 0.000300 -0.003171 0.011909 0.000000 0.000000 0.000000
# 4 0.000000 0.000000 0.000000 -0.013379 0.000000 0.000000
# 5 0.000000 0.000000 0.000000 0.000000 0.051895 0.000000
# 6 0.000000 0.000000 0.000000 0.000000 0.000000 0.032267
#
#
# Mechanical properties :
#
#
# Convention : Reuss Voigt Hill
#
# Bulk Modulus (GPa) = 39.13049 40.91726 40.02387
# Shear Modulus (GPa) = 39.20781 9.70818 24.45799
#
# Velocity S-wave (km/s) = 4.19206 2.08598 3.31094
# Velocity P-wave (km/s) = 6.40077 4.91338 5.70575
#
# Compressibility (1/GPa) = 0.02555552
#
# Stress axis : x y z
#
# Youngs Moduli (GPa) = 73.16466 88.39198 83.97098
#
# Poissons Ratio (x) = 0.24723 -0.02522
# Poissons Ratio (y) = 0.20464 0.26623
# Poissons Ratio (z) = -0.02197 0.28025
#
# Static dielectric constant tensor:
#      x y z
#    x 1.876560 0.000000 0.000000 
#    y 0.000000 1.786340 0.000000 
#    z 0.000000 0.000000 1.827120 
# 
# From -- ./inp_files/3296.got.cif
#   From: 2010.05.17/outbox.cif.g08.bks.cpg/sg45_2_cif.got.tgz:3296.got - 2010.06.03 19:51:22.
