data_PCOD9377306
_publ_section_title
;
Structure prediction by ZEFSAII (Michael W. Deem and Ramdas Pophale) SiO2 
 PCOD9377306
Probable space group: I B A 2
;
_chemical_formula_sum "Si O2"
_cell_formula_units_Z 40
_cell_length_a 9.304297
_cell_length_b 8.823802
_cell_length_c 20.296025
_cell_angle_alpha 90.000000
_cell_angle_beta 90.000000
_cell_angle_gamma 90.000000
_cell_volume 1666.288927
_symmetry_space_group_name_H-M "I B A 2"
_symmetry_group_IT_number 45
_symmetry_cell_setting 'orthorhombic'
loop_
_space_group_symop_operation_xyz
x,y,z
-x,-y,z
-x,y,1/2+z
x,-y,1/2+z
1/2+x,1/2+y,1/2+z
1/2-x,1/2-y,1/2+z
1/2-x,1/2+y,z
1/2+x,1/2-y,z
loop_
_atom_site_type_symbol
_atom_site_label
_atom_site_fract_x
_atom_site_fract_y
_atom_site_fract_z
Si Si1 0.250000 0.285654 0.987950
Si Si2 0.649586 0.050864 0.580193
Si Si3 0.850414 0.050864 0.395707
Si Si4 0.359270 0.400588 0.695633
Si Si5 0.640730 0.099411 0.280267
O O1 0.134055 0.172632 0.954677
O O2 0.296625 0.398787 0.930456
O O3 0.365945 0.172632 0.021223
O O4 0.203375 0.398787 0.045444
O O5 0.767639 0.120492 0.629004
O O6 0.500000 0.000000 0.613266
O O7 0.732361 0.120492 0.346896
O O8 0.000000 0.000000 0.362634
O O9 0.500000 0.500000 0.681762
O O10 0.392645 0.250000 0.737950
O O11 0.250000 0.500000 0.737950
O O12 0.500000 0.000000 0.294138
#
# Coordination Sequence:
#
# PCOD9377306 Si02
#       5
#     8   8   8   8   8
#     4  10  24  42  70 106 142 178 222 278 346 416
#     4  11  24  45  72 103 139 180 227 282 344 415
#     4  11  24  45  72 103 139 180 227 282 344 415
#     4  12  27  47  71 102 141 187 238 294 354 418
#     4  12  27  47  71 102 141 187 238 294 354 418
#
# _framework density 24.00544
#
# number of rings (size 3 to 8) (size 9 to 14) (size 15 to 20)
#    0.000    0.800    0.000    6.000    0.000   16.000 
#    0.000    2.000    0.000    0.000    0.000    0.000 
#    0.000    0.000    0.000    0.000    0.000    0.000 
#
# Total GULP energy -111860.092459 kJ/mol
# GULP energy per Si atom -5593.004623 kJ/mol
# Density = 2.395080 g / cm^3
# Si number density = 24.005440 Si / 1000 Ang^3
#
#
#
# Elastic Constant Matrix: (Units=GPa)
#
#
# Indices 1 2 3 4 5 6 
#
# 1 128.7742 41.8922 44.5553 0.0000 0.0000 0.0000
# 2 41.8922 166.9006 58.1417 0.0000 0.0000 0.0000
# 3 44.5553 58.1417 107.5595 0.0000 0.0000 0.0000
# 4 0.0000 0.0000 0.0000 44.7085 0.0000 0.0000
# 5 0.0000 0.0000 0.0000 0.0000 38.8246 0.0000
# 6 0.0000 0.0000 0.0000 0.0000 0.0000 26.2349
#
#
#
# Elastic Compliance Matrix: (Units=1/GPa)
#
#
# Indices 1 2 3 4 5 6 
#
# 1 0.009261 -0.001217 -0.003178 0.000000 0.000000 0.000000
# 2 -0.001217 0.007542 -0.003572 0.000000 0.000000 0.000000
# 3 -0.003178 -0.003572 0.012545 0.000000 0.000000 0.000000
# 4 0.000000 0.000000 0.000000 0.022367 0.000000 0.000000
# 5 0.000000 0.000000 0.000000 0.000000 0.025757 0.000000
# 6 0.000000 0.000000 0.000000 0.000000 0.000000 0.038117
#
#
# Mechanical properties :
#
#
# Convention : Reuss Voigt Hill
#
# Bulk Modulus (GPa) = 74.56244 76.93472 75.74858
# Shear Modulus (GPa) = 36.76596 39.19663 37.98129
#
# Velocity S-wave (km/s) = 3.91777 4.04520 3.98200
# Velocity P-wave (km/s) = 7.18285 7.34416 7.26395
#
# Compressibility (1/GPa) = 0.01341158
#
# Stress axis : x y z
#
# Youngs Moduli (GPa) = 107.97694 132.59736 79.71425
#
# Poissons Ratio (x) = 0.16142 0.25336
# Poissons Ratio (y) = 0.13145 0.28477
# Poissons Ratio (z) = 0.34318 0.47369
#
# Static dielectric constant tensor:
#      x y z
#    x 1.968140 0.000000 0.000000 
#    y 0.000000 1.925810 0.000000 
#    z 0.000000 0.000000 2.061450 
# 
# From -- ./inp_files/1013.got.cif
#   From: 2010.05.17/outbox.cif.g08.bks.cpg/sg45_1_cif.got.tgz:1013.got - 2010.06.03 19:51:22.
