data_PCOD9377642
_publ_section_title
;
Structure prediction by ZEFSAII (Michael W. Deem and Ramdas Pophale) SiO2 
 PCOD9377642
Probable space group: I B A 2
;
_chemical_formula_sum "Si O2"
_cell_formula_units_Z 40
_cell_length_a 21.722275
_cell_length_b 8.778640
_cell_length_c 7.617739
_cell_angle_alpha 90.000000
_cell_angle_beta 90.000000
_cell_angle_gamma 90.000000
_cell_volume 1452.642131
_symmetry_space_group_name_H-M "I B A 2"
_symmetry_group_IT_number 45
_symmetry_cell_setting 'orthorhombic'
loop_
_space_group_symop_operation_xyz
x,y,z
-x,-y,z
-x,y,1/2+z
x,-y,1/2+z
1/2+x,1/2+y,1/2+z
1/2-x,1/2-y,1/2+z
1/2-x,1/2+y,z
1/2+x,1/2-y,z
loop_
_atom_site_type_symbol
_atom_site_label
_atom_site_fract_x
_atom_site_fract_y
_atom_site_fract_z
Si Si1 0.633394 0.666253 0.598930
Si Si2 0.493143 0.674093 0.250523
Si Si3 0.684637 0.134783 0.422687
Si Si4 0.694957 0.634998 0.239384
Si Si5 0.942166 0.390120 0.045956
O O1 0.559191 0.669683 0.597096
O O2 0.658410 0.764900 0.761565
O O3 0.662657 0.703255 0.411923
O O4 0.654520 0.495679 0.649677
O O5 0.500000 0.500000 0.304218
O O6 0.461081 0.787598 0.383184
O O7 0.554788 0.761757 0.195200
O O8 0.706120 0.241188 0.585920
O O9 0.743338 0.060462 0.327585
O O10 0.625304 0.045641 0.503860
O O11 0.000000 0.500000 0.079601
#
# Coordination Sequence:
#
# PCOD9377642 Si02
#       5
#     8   8   8   8   8
#     4  11  25  43  70 109 145 191 262 320 380 457
#     4  11  25  45  76 110 147 200 257 321 380 458
#     4  11  25  46  73 107 152 201 252 314 398 470
#     4  12  23  46  72 109 147 193 256 327 388 460
#     4  11  26  50  72 113 156 204 254 317 401 472
#
# _framework density 27.536033
#
# number of rings (size 3 to 8) (size 9 to 14) (size 15 to 20)
#    0.000    0.800    4.000    2.400    8.400    0.000 
#   14.400    0.000    0.000    0.000    0.000    0.000 
#    0.000    0.000    0.000    0.000    0.000    0.000 
#
# Total GULP energy -111982.355484 kJ/mol
# GULP energy per Si atom -5599.117774 kJ/mol
# Density = 2.747336 g / cm^3
# Si number density = 27.536033 Si / 1000 Ang^3
#
#
#
# Elastic Constant Matrix: (Units=GPa)
#
#
# Indices 1 2 3 4 5 6 
#
# 1 168.9463 39.0220 38.5305 0.0000 0.0000 0.0000
# 2 39.0220 100.2681 31.0771 0.0000 0.0000 0.0000
# 3 38.5305 31.0771 159.2475 0.0000 0.0000 0.0000
# 4 0.0000 0.0000 0.0000 46.8891 0.0000 0.0000
# 5 0.0000 0.0000 0.0000 0.0000 55.3669 0.0000
# 6 0.0000 0.0000 0.0000 0.0000 0.0000 32.5440
#
#
#
# Elastic Compliance Matrix: (Units=1/GPa)
#
#
# Indices 1 2 3 4 5 6 
#
# 1 0.006707 -0.002243 -0.001185 0.000000 0.000000 0.000000
# 2 -0.002243 0.011365 -0.001675 0.000000 0.000000 0.000000
# 3 -0.001185 -0.001675 0.006893 0.000000 0.000000 0.000000
# 4 0.000000 0.000000 0.000000 0.021327 0.000000 0.000000
# 5 0.000000 0.000000 0.000000 0.000000 0.018061 0.000000
# 6 0.000000 0.000000 0.000000 0.000000 0.000000 0.030728
#
#
# Mechanical properties :
#
#
# Convention : Reuss Voigt Hill
#
# Bulk Modulus (GPa) = 67.75451 71.74679 69.75065
# Shear Modulus (GPa) = 45.36856 48.28217 46.82536
#
# Velocity S-wave (km/s) = 4.06348 4.19193 4.12820
# Velocity P-wave (km/s) = 6.83191 7.03860 6.93602
#
# Compressibility (1/GPa) = 0.01475916
#
# Stress axis : x y z
#
# Youngs Moduli (GPa) = 149.08873 87.98611 145.07032
#
# Poissons Ratio (x) = 0.19736 0.17193
# Poissons Ratio (y) = 0.33441 0.24303
# Poissons Ratio (z) = 0.17669 0.14740
#
# Static dielectric constant tensor:
#      x y z
#    x 2.234650 0.000000 0.000000 
#    y 0.000000 2.044110 0.000000 
#    z 0.000000 0.000000 2.164740 
# 
# From -- ./inp_files/2459.got.cif
#   From: 2010.05.17/outbox.cif.g08.bks.cpg/sg45_2_cif.got.tgz:2459.got - 2010.06.03 19:51:22.
