data_PCOD9377134
_publ_section_title
;
Structure prediction by ZEFSAII (Michael W. Deem and Ramdas Pophale) SiO2 
 PCOD9377134
Probable space group: I B A 2
;
_chemical_formula_sum "Si O2"
_cell_formula_units_Z 56
_cell_length_a 13.878027
_cell_length_b 13.709508
_cell_length_c 13.165381
_cell_angle_alpha 90.000000
_cell_angle_beta 90.000000
_cell_angle_gamma 90.000000
_cell_volume 2504.857530
_symmetry_space_group_name_H-M "I B A 2"
_symmetry_group_IT_number 45
_symmetry_cell_setting 'orthorhombic'
loop_
_space_group_symop_operation_xyz
x,y,z
-x,-y,z
-x,y,1/2+z
x,-y,1/2+z
1/2+x,1/2+y,1/2+z
1/2-x,1/2-y,1/2+z
1/2-x,1/2+y,z
1/2+x,1/2-y,z
loop_
_atom_site_type_symbol
_atom_site_label
_atom_site_fract_x
_atom_site_fract_y
_atom_site_fract_z
Si Si1 0.923270 0.803851 0.936560
Si Si2 0.814123 0.531098 0.622155
Si Si3 0.739838 0.162263 0.002199
Si Si4 0.500000 0.500000 0.884330
Si Si5 0.000000 0.500000 0.762311
Si Si6 0.988127 0.714182 0.267400
Si Si7 0.832449 0.124590 0.784121
Si Si8 0.910332 0.287549 0.054908
O O1 0.926414 0.779747 0.817083
O O2 0.838158 0.749082 0.992669
O O3 0.943360 0.918153 0.950012
O O4 0.021824 0.749200 0.966116
O O5 0.790700 0.434395 0.560357
O O6 0.902717 0.506232 0.696455
O O7 0.730365 0.580278 0.691875
O O8 0.853572 0.612033 0.543815
O O9 0.830441 0.204618 0.062832
O O10 0.769007 0.136958 0.886066
O O11 0.580050 0.552957 0.815938
O O12 0.991094 0.394676 0.815146
O O13 0.887106 0.772399 0.264552
O O14 0.021586 0.701478 0.151646
#
# Coordination Sequence:
#
# PCOD9377134 Si02
#       8
#     8   8   8   4   4   8   8   8
#     4  11  25  47  70 101 146 185 247 302 361 436
#     4  11  27  43  71 111 144 192 246 300 362 436
#     4  12  25  44  74 107 138 196 242 297 363 441
#     4  10  24  48  72 104 144 196 236 304 370 428
#     4  10  22  46  70  98 146 196 238 298 368 420
#     4  10  23  46  68 100 144 189 237 303 361 422
#     4  11  26  47  71 110 145 193 243 298 373 434
#     4  11  25  44  67 105 141 188 238 297 361 427
#
# _framework density 22.356560000000002
#
# number of rings (size 3 to 8) (size 9 to 14) (size 15 to 20)
#    0.000    1.143    2.857    3.429   10.000    3.429 
#    0.000    0.714    0.000    0.000    0.000    0.000 
#    0.000    0.000    0.000    0.000    0.000    0.000 
#
# Total GULP energy -156339.764591 kJ/mol
# GULP energy per Si atom -5583.563021 kJ/mol
# Density = 2.230568 g / cm^3
# Si number density = 22.356560 Si / 1000 Ang^3
#
#
#
# Elastic Constant Matrix: (Units=GPa)
#
#
# Indices 1 2 3 4 5 6 
#
# 1 116.1527 59.9281 23.1629 0.0000 0.0000 0.0000
# 2 59.9281 172.4117 45.0957 0.0000 0.0000 0.0000
# 3 23.1629 45.0957 35.7649 0.0000 0.0000 0.0000
# 4 0.0000 0.0000 0.0000 28.4073 0.0000 0.0000
# 5 0.0000 0.0000 0.0000 0.0000 25.1188 0.0000
# 6 0.0000 0.0000 0.0000 0.0000 0.0000 45.8106
#
#
#
# Elastic Compliance Matrix: (Units=1/GPa)
#
#
# Indices 1 2 3 4 5 6 
#
# 1 0.010755 -0.002859 -0.003360 0.000000 0.000000 0.000000
# 2 -0.002859 0.009414 -0.010019 0.000000 0.000000 0.000000
# 3 -0.003360 -0.010019 0.042769 0.000000 0.000000 0.000000
# 4 0.000000 0.000000 0.000000 0.035202 0.000000 0.000000
# 5 0.000000 0.000000 0.000000 0.000000 0.039811 0.000000
# 6 0.000000 0.000000 0.000000 0.000000 0.000000 0.021829
#
#
# Mechanical properties :
#
#
# Convention : Reuss Voigt Hill
#
# Bulk Modulus (GPa) = 32.82766 64.52254 48.67510
# Shear Modulus (GPa) = 24.70235 32.94350 28.82293
#
# Velocity S-wave (km/s) = 3.32765 3.84285 3.59449
# Velocity P-wave (km/s) = 5.42954 6.97232 6.24873
#
# Compressibility (1/GPa) = 0.03046211
#
# Stress axis : x y z
#
# Youngs Moduli (GPa) = 92.98313 106.21972 23.38151
#
# Poissons Ratio (x) = 0.30372 0.07856
# Poissons Ratio (y) = 0.26588 0.23425
# Poissons Ratio (z) = 0.31240 1.06419
#
# Static dielectric constant tensor:
#      x y z
#    x 1.820470 0.000000 0.000000 
#    y 0.000000 1.869760 0.000000 
#    z 0.000000 0.000000 1.880110 
# 
# From -- ./inp_files/6195.got.cif
#   From: 2010.05.17/outbox.cif.g08.bks.cpg/sg45_4_cif.got.tgz:6195.got - 2010.06.03 19:51:22.
