data_PCOD9377327
_publ_section_title
;
Structure prediction by ZEFSAII (Michael W. Deem and Ramdas Pophale) SiO2 
 PCOD9377327
Probable space group: I B A 2
;
_chemical_formula_sum "Si O2"
_cell_formula_units_Z 60
_cell_length_a 8.817842
_cell_length_b 10.591808
_cell_length_c 27.646410
_cell_angle_alpha 90.000000
_cell_angle_beta 90.000000
_cell_angle_gamma 90.000000
_cell_volume 2582.088698
_symmetry_space_group_name_H-M "I B A 2"
_symmetry_group_IT_number 45
_symmetry_cell_setting 'orthorhombic'
loop_
_space_group_symop_operation_xyz
x,y,z
-x,-y,z
-x,y,1/2+z
x,-y,1/2+z
1/2+x,1/2+y,1/2+z
1/2-x,1/2-y,1/2+z
1/2-x,1/2+y,z
1/2+x,1/2-y,z
loop_
_atom_site_type_symbol
_atom_site_label
_atom_site_fract_x
_atom_site_fract_y
_atom_site_fract_z
Si Si1 0.644008 0.175438 0.179900
Si Si2 0.000000 0.000000 0.792042
Si Si3 0.400305 0.747583 0.748642
Si Si4 0.038176 0.287828 0.495999
Si Si5 0.316328 0.421331 0.528531
Si Si6 0.335812 0.455586 0.636323
Si Si7 0.253310 0.106208 0.444804
Si Si8 0.828237 0.558466 0.833691
O O1 0.479086 0.176943 0.204530
O O2 0.750535 0.188811 0.226512
O O3 0.668577 0.304179 0.147695
O O4 0.703115 0.046462 0.156051
O O5 0.832658 0.991242 0.817937
O O6 0.993205 0.130368 0.762957
O O7 0.357516 0.830400 0.795013
O O8 0.151046 0.359441 0.530799
O O9 0.144645 0.224550 0.455406
O O10 0.945051 0.183238 0.524507
O O11 0.913252 0.371334 0.470518
O O12 0.335736 0.488231 0.579201
O O13 0.318990 0.495645 0.477575
O O14 0.500000 0.500000 0.656184
O O15 0.285391 0.091700 0.388799
O O16 0.000000 0.500000 0.835380
#
# Coordination Sequence:
#
# PCOD9377327 Si02
#       8
#     8   4   8   8   8   8   8   8
#     4  12  27  49  79 109 156 206 260 333 402 472
#     4  12  28  50  82 110 160 202 262 332 412 462
#     4  12  26  51  76 109 151 198 262 332 393 481
#     4  10  24  43  75 102 155 200 249 317 392 459
#     4  11  25  46  74 108 153 201 257 320 392 476
#     4  12  28  49  78 116 156 205 268 327 403 486
#     4  11  25  47  71 112 152 200 255 320 388 480
#     4  12  29  46  81 117 155 210 270 323 412 481
#
# _framework density 23.237002
#
# number of rings (size 3 to 8) (size 9 to 14) (size 15 to 20)
#    0.000    0.533    2.667    4.000   11.200    1.067 
#    2.400    0.000    0.000    0.000    0.000    0.000 
#    0.000    0.000    0.000    0.000    0.000    0.000 
#
# Total GULP energy -167507.206951 kJ/mol
# GULP energy per Si atom -5583.573565 kJ/mol
# Density = 2.318411 g / cm^3
# Si number density = 23.237002 Si / 1000 Ang^3
#
#
#
# Elastic Constant Matrix: (Units=GPa)
#
#
# Indices 1 2 3 4 5 6 
#
# 1 131.4294 22.9474 12.1917 0.0000 0.0000 0.0000
# 2 22.9474 75.2756 29.7387 0.0000 0.0000 -0.0001
# 3 12.1917 29.7387 113.9738 0.0000 0.0000 0.0000
# 4 0.0000 0.0000 0.0000 -61.0743 0.0000 0.0001
# 5 0.0000 0.0000 0.0000 0.0000 -26.2272 -0.0001
# 6 0.0000 -0.0001 0.0000 0.0001 -0.0001 1590.7022
#
#
#
# Elastic Compliance Matrix: (Units=1/GPa)
#
#
# Indices 1 2 3 4 5 6 
#
# 1 0.008043 -0.002355 -0.000246 0.000000 0.000000 0.000000
# 2 -0.002355 0.015501 -0.003793 0.000000 0.000000 0.000000
# 3 -0.000246 -0.003793 0.009790 0.000000 0.000000 0.000000
# 4 0.000000 0.000000 0.000000 -0.016373 0.000000 0.000000
# 5 0.000000 0.000000 0.000000 0.000000 -0.038128 0.000000
# 6 0.000000 0.000000 0.000000 0.000000 0.000000 0.000629
#
#
# Mechanical properties :
#
#
# Convention : Reuss Voigt Hill
#
# Bulk Modulus (GPa) = 48.66955 50.04828 49.35892
# Shear Modulus (GPa) = -5525.97747 317.73352 -2604.12198
#
# Velocity S-wave (km/s) = -48.81861 11.70610 -33.51286
# Velocity P-wave (km/s) = 56.18439 14.29320 38.42128
#
# Compressibility (1/GPa) = 0.02054673
#
# Stress axis : x y z
#
# Youngs Moduli (GPa) = 124.33844 64.51343 102.14659
#
# Poissons Ratio (x) = 0.15190 0.02512
# Poissons Ratio (y) = 0.29276 0.38741
# Poissons Ratio (z) = 0.03058 0.24468
#
# Static dielectric constant tensor:
#      x y z
#    x 1.932130 0.000000 0.000000 
#    y 0.000000 2.166080 0.000000 
#    z 0.000000 0.000000 1.838900 
# 
# From -- ./inp_files/9970.got.cif
#   From: 2010.05.17/outbox.cif.g08.bks.cpg/sg45_5_cif.got.tgz:9970.got - 2010.06.03 19:51:22.
