data_PCOD9377537
_publ_section_title
;
Structure prediction by ZEFSAII (Michael W. Deem and Ramdas Pophale) SiO2 
 PCOD9377537
Probable space group: I B A 2
;
_chemical_formula_sum "Si O2"
_cell_formula_units_Z 56
_cell_length_a 13.522623
_cell_length_b 10.064792
_cell_length_c 18.117369
_cell_angle_alpha 90.000000
_cell_angle_beta 90.000000
_cell_angle_gamma 90.000000
_cell_volume 2465.817181
_symmetry_space_group_name_H-M "I B A 2"
_symmetry_group_IT_number 45
_symmetry_cell_setting 'orthorhombic'
loop_
_space_group_symop_operation_xyz
x,y,z
-x,-y,z
-x,y,1/2+z
x,-y,1/2+z
1/2+x,1/2+y,1/2+z
1/2-x,1/2-y,1/2+z
1/2-x,1/2+y,z
1/2+x,1/2-y,z
loop_
_atom_site_type_symbol
_atom_site_label
_atom_site_fract_x
_atom_site_fract_y
_atom_site_fract_z
Si Si1 0.500000 0.500000 0.398940
Si Si2 0.419056 0.224918 0.836032
Si Si3 0.045730 0.643497 0.202390
Si Si4 0.740316 0.639641 0.762662
Si Si5 0.697939 0.109802 0.930675
Si Si6 0.176325 0.881727 0.490873
Si Si7 0.420967 0.615209 0.143882
Si Si8 0.000000 0.500000 0.432734
O O1 0.558481 0.378833 0.358027
O O2 0.423060 0.418389 0.447320
O O3 0.509227 0.179404 0.784579
O O4 0.317579 0.226093 0.788886
O O5 0.426227 0.109409 0.895793
O O6 0.164179 0.648657 0.209726
O O7 0.000000 0.500000 0.183259
O O8 0.989442 0.755739 0.156515
O O9 0.779630 0.587387 0.842916
O O10 0.650893 0.577608 0.713270
O O11 0.728047 0.259312 0.950298
O O12 0.758507 0.010933 0.980676
O O13 0.585101 0.098383 0.959686
O O14 0.149558 0.857669 0.575094
O O15 0.500000 0.500000 0.129806
#
# Coordination Sequence:
#
# PCOD9377537 Si02
#       8
#     4   8   8   8   8   8   8   4
#     4  12  22  44  70 102 154 204 256 316 398 464
#     4  11  22  39  70 110 148 194 251 331 385 459
#     4  11  24  46  70 107 155 198 261 322 393 467
#     4  11  24  44  76 112 146 202 258 319 398 457
#     4  12  26  45  79 111 150 199 267 331 390 460
#     4  12  27  50  73 112 152 209 259 321 391 478
#     4  11  29  50  74 108 159 211 257 316 397 486
#     4  12  22  42  68 114 150 184 250 330 382 456
#
# _framework density 22.710522999999998
#
# number of rings (size 3 to 8) (size 9 to 14) (size 15 to 20)
#    0.000    0.571    5.714    0.857    4.000    8.000 
#    3.857    0.000    0.000    0.000    0.000    0.000 
#    0.000    0.000    0.000    0.000    0.000    0.000 
#
# Total GULP energy -156031.710191 kJ/mol
# GULP energy per Si atom -5572.561078 kJ/mol
# Density = 2.265883 g / cm^3
# Si number density = 22.710523 Si / 1000 Ang^3
#
#
#
# Elastic Constant Matrix: (Units=GPa)
#
#
# Indices 1 2 3 4 5 6 
#
# 1 121.5836 11.0013 8.0564 0.0000 0.0000 0.0000
# 2 11.0013 128.8011 8.1523 0.0000 0.0000 0.0000
# 3 8.0564 8.1523 41.9087 0.0000 0.0000 0.0000
# 4 0.0000 0.0000 0.0000 18.3803 0.0000 0.0000
# 5 0.0000 0.0000 0.0000 0.0000 28.2889 0.0000
# 6 0.0000 0.0000 0.0000 0.0000 0.0000 36.0977
#
#
#
# Elastic Compliance Matrix: (Units=1/GPa)
#
#
# Indices 1 2 3 4 5 6 
#
# 1 0.008380 -0.000621 -0.001490 0.000000 0.000000 0.000000
# 2 -0.000621 0.007907 -0.001419 0.000000 0.000000 0.000000
# 3 -0.001490 -0.001419 0.024424 0.000000 0.000000 0.000000
# 4 0.000000 0.000000 0.000000 0.054406 0.000000 0.000000
# 5 0.000000 0.000000 0.000000 0.000000 0.035350 0.000000
# 6 0.000000 0.000000 0.000000 0.000000 0.000000 0.027703
#
#
# Mechanical properties :
#
#
# Convention : Reuss Voigt Hill
#
# Bulk Modulus (GPa) = 29.71750 38.52373 34.12061
# Shear Modulus (GPa) = 28.33738 34.22560 31.28149
#
# Velocity S-wave (km/s) = 3.53620 3.88627 3.71536
# Velocity P-wave (km/s) = 5.45772 6.09403 5.78463
#
# Compressibility (1/GPa) = 0.03365021
#
# Stress axis : x y z
#
# Youngs Moduli (GPa) = 119.33529 126.47382 40.94370
#
# Poissons Ratio (x) = 0.07860 0.06101
# Poissons Ratio (y) = 0.07416 0.05808
# Poissons Ratio (z) = 0.17781 0.17942
#
# Static dielectric constant tensor:
#      x y z
#    x 1.981070 0.000000 0.000000 
#    y 0.000000 1.850570 0.000000 
#    z 0.000000 0.000000 1.917750 
# 
# From -- ./inp_files/9206.got.cif
#   From: 2010.05.17/outbox.cif.g08.bks.cpg/sg45_5_cif.got.tgz:9206.got - 2010.06.03 19:51:22.
