data_PCOD9377333
_publ_section_title
;
Structure prediction by ZEFSAII (Michael W. Deem and Ramdas Pophale) SiO2 
 PCOD9377333
Probable space group: I B A 2
;
_chemical_formula_sum "Si O2"
_cell_formula_units_Z 52
_cell_length_a 8.658264
_cell_length_b 14.188535
_cell_length_c 19.660742
_cell_angle_alpha 90.000000
_cell_angle_beta 90.000000
_cell_angle_gamma 90.000000
_cell_volume 2415.284442
_symmetry_space_group_name_H-M "I B A 2"
_symmetry_group_IT_number 45
_symmetry_cell_setting 'orthorhombic'
loop_
_space_group_symop_operation_xyz
x,y,z
-x,-y,z
-x,y,1/2+z
x,-y,1/2+z
1/2+x,1/2+y,1/2+z
1/2-x,1/2-y,1/2+z
1/2-x,1/2+y,z
1/2+x,1/2-y,z
loop_
_atom_site_type_symbol
_atom_site_label
_atom_site_fract_x
_atom_site_fract_y
_atom_site_fract_z
Si Si1 0.000000 0.500000 0.144640
Si Si2 0.334127 0.033793 0.275690
Si Si3 0.684553 0.702659 0.843686
Si Si4 0.401692 0.820075 0.557537
Si Si5 0.354795 0.385629 0.346981
Si Si6 0.338157 0.460128 0.500436
Si Si7 0.718113 0.837540 0.498754
O O1 0.855830 0.492131 0.196752
O O2 0.987100 0.397090 0.107835
O O3 0.298882 0.140655 0.296632
O O4 0.500000 0.000000 0.306506
O O5 0.190375 0.976722 0.304833
O O6 0.512151 0.667725 0.830082
O O7 0.716952 0.812157 0.833799
O O8 0.721160 0.685758 0.923354
O O9 0.248836 0.878435 0.539245
O O10 0.539918 0.807838 0.503661
O O11 0.324002 0.714971 0.556090
O O12 0.362882 0.420808 0.424636
O O13 0.500000 0.500000 0.526654
O O14 0.227048 0.550013 0.502627
#
# Coordination Sequence:
#
# PCOD9377333 Si02
#       7
#     4   8   8   8   8   8   8
#     4  10  26  50  66  96 136 202 248 290 352 424
#     4  10  24  44  68  90 139 185 239 287 349 418
#     4  12  23  40  67 110 137 179 224 292 371 441
#     4  12  25  46  69  98 148 183 244 291 360 437
#     4  12  23  40  67 103 147 171 232 293 367 440
#     4  12  22  39  66 106 141 176 221 291 374 437
#     4  12  23  39  71 105 136 183 220 301 376 426
#
# _framework density 21.529555999999999
#
# number of rings (size 3 to 8) (size 9 to 14) (size 15 to 20)
#    0.462    0.000    6.154    3.231    2.154    0.000 
#    2.769    1.538    0.000    0.000    0.000    0.000 
#    0.000    0.000    0.000    0.000    0.000    0.000 
#
# Total GULP energy -144826.492613 kJ/mol
# GULP energy per Si atom -5570.249716 kJ/mol
# Density = 2.148055 g / cm^3
# Si number density = 21.529556 Si / 1000 Ang^3
#
#
#
# Elastic Constant Matrix: (Units=GPa)
#
#
# Indices 1 2 3 4 5 6 
#
# 1 107.3935 6.7809 -0.1195 0.0000 0.0000 0.0000
# 2 6.7809 107.7698 -1.8906 0.0000 0.0000 0.0000
# 3 -0.1195 -1.8906 40.1263 0.0000 0.0000 0.0000
# 4 0.0000 0.0000 0.0000 810.8742 0.0000 0.0000
# 5 0.0000 0.0000 0.0000 0.0000 -16.0687 0.0000
# 6 0.0000 0.0000 0.0000 0.0000 0.0000 44.6803
#
#
#
# Elastic Compliance Matrix: (Units=1/GPa)
#
#
# Indices 1 2 3 4 5 6 
#
# 1 0.009349 -0.000588 0.000000 0.000000 0.000000 0.000000
# 2 -0.000588 0.009324 0.000438 0.000000 0.000000 0.000000
# 3 0.000000 0.000438 0.024942 0.000000 0.000000 0.000000
# 4 0.000000 0.000000 0.000000 0.001233 0.000000 0.000000
# 5 0.000000 0.000000 0.000000 0.000000 -0.062233 0.000000
# 6 0.000000 0.000000 0.000000 0.000000 0.000000 0.022381
#
#
# Mechanical properties :
#
#
# Convention : Reuss Voigt Hill
#
# Bulk Modulus (GPa) = 23.08762 29.42568 26.25665
# Shear Modulus (GPa) = 253.35717 184.59841 218.97779
#
# Velocity S-wave (km/s) = 10.85975 9.26974 10.09609
# Velocity P-wave (km/s) = 12.96120 11.32554 12.17088
#
# Compressibility (1/GPa) = 0.04331326
#
# Stress axis : x y z
#
# Youngs Moduli (GPa) = 106.96682 107.25332 40.09314
#
# Poissons Ratio (x) = 0.06309 -0.00001
# Poissons Ratio (y) = 0.06292 -0.01754
# Poissons Ratio (z) = -0.00001 -0.04693
#
# Static dielectric constant tensor:
#      x y z
#    x 1.675690 0.000000 0.000000 
#    y 0.000000 -2.887320 0.000000 
#    z 0.000000 0.000000 1.817730 
# 
# From -- ./inp_files/8830.got.cif
#   From: 2010.05.17/outbox.cif.g08.bks.cpg/sg45_5_cif.got.tgz:8830.got - 2010.06.03 19:51:22.
