data_PCOD9377384
_publ_section_title
;
Structure prediction by ZEFSAII (Michael W. Deem and Ramdas Pophale) SiO2 
 PCOD9377384
Probable space group: I B A 2
;
_chemical_formula_sum "Si O2"
_cell_formula_units_Z 28
_cell_length_a 12.288222
_cell_length_b 9.136885
_cell_length_c 9.721657
_cell_angle_alpha 90.000000
_cell_angle_beta 90.000000
_cell_angle_gamma 90.000000
_cell_volume 1091.509454
_symmetry_space_group_name_H-M "I B A 2"
_symmetry_group_IT_number 45
_symmetry_cell_setting 'orthorhombic'
loop_
_space_group_symop_operation_xyz
x,y,z
-x,-y,z
-x,y,1/2+z
x,-y,1/2+z
1/2+x,1/2+y,1/2+z
1/2-x,1/2-y,1/2+z
1/2-x,1/2+y,z
1/2+x,1/2-y,z
loop_
_atom_site_type_symbol
_atom_site_label
_atom_site_fract_x
_atom_site_fract_y
_atom_site_fract_z
Si Si1 0.326687 0.594113 0.166520
Si Si2 0.000000 0.500000 0.272976
Si Si3 0.073856 0.197410 0.648498
Si Si4 0.312572 0.807042 0.403916
O O1 0.450819 0.644048 0.156290
O O2 0.343454 0.425215 0.211456
O O3 0.274537 0.697917 0.282673
O O4 0.268596 0.627412 0.020169
O O5 0.943019 0.366921 0.191471
O O6 0.898628 0.571530 0.353297
O O7 0.111719 0.197366 0.492124
#
# Coordination Sequence:
#
# PCOD9377384 Si02
#       4
#     8   4   8   8
#     4  10  26  48  77 109 148 199 255 314 384 462
#     4  10  24  48  74 108 148 196 250 316 382 456
#     4  10  24  47  73 108 151 199 251 312 383 460
#     4  11  25  47  75 109 150 194 251 315 383 458
#
# _framework density 25.652550000000002
#
# number of rings (size 3 to 8) (size 9 to 14) (size 15 to 20)
#    0.000    1.714    0.000    0.857    0.000   25.143 
#    0.000    5.714    0.000   18.857    0.000    0.000 
#    0.000    0.000    0.000    0.000    0.000    0.000 
#
# Total GULP energy -78154.494454 kJ/mol
# GULP energy per Si atom -5582.463890 kJ/mol
# Density = 2.559416 g / cm^3
# Si number density = 25.652550 Si / 1000 Ang^3
#
#
#
# Elastic Constant Matrix: (Units=GPa)
#
#
# Indices 1 2 3 4 5 6 
#
# 1 81.5972 88.2732 58.2715 0.0000 0.0000 0.0000
# 2 88.2732 221.6335 113.2265 0.0000 0.0000 0.0000
# 3 58.2715 113.2265 148.2111 0.0000 0.0000 0.0000
# 4 0.0000 0.0000 0.0000 29.4999 0.0000 0.0000
# 5 0.0000 0.0000 0.0000 0.0000 45.6985 0.0000
# 6 0.0000 0.0000 0.0000 0.0000 0.0000 62.7948
#
#
#
# Elastic Compliance Matrix: (Units=1/GPa)
#
#
# Indices 1 2 3 4 5 6 
#
# 1 0.022463 -0.007273 -0.003275 0.000000 0.000000 0.000000
# 2 -0.007273 0.009755 -0.004593 0.000000 0.000000 0.000000
# 3 -0.003275 -0.004593 0.011544 0.000000 0.000000 0.000000
# 4 0.000000 0.000000 0.000000 0.033898 0.000000 0.000000
# 5 0.000000 0.000000 0.000000 0.000000 0.021883 0.000000
# 6 0.000000 0.000000 0.000000 0.000000 0.000000 0.015925
#
#
# Mechanical properties :
#
#
# Convention : Reuss Voigt Hill
#
# Bulk Modulus (GPa) = 74.19075 107.88714 91.03894
# Shear Modulus (GPa) = 33.27952 40.37668 36.82810
#
# Velocity S-wave (km/s) = 3.60574 3.97165 3.79311
# Velocity P-wave (km/s) = 6.80583 7.94861 7.39931
#
# Compressibility (1/GPa) = 0.01347877
#
# Stress axis : x y z
#
# Youngs Moduli (GPa) = 44.51854 102.50923 86.62883
#
# Poissons Ratio (x) = 0.74559 0.28371
# Poissons Ratio (y) = 0.32380 0.39788
# Poissons Ratio (z) = 0.14580 0.47081
#
# Static dielectric constant tensor:
#      x y z
#    x 2.037310 0.000000 0.000000 
#    y 0.000000 2.154550 0.000000 
#    z 0.000000 0.000000 2.066400 
# 
# From -- ./inp_files/3957.got.cif
#   From: 2010.05.17/outbox.cif.g08.bks.cpg/sg45_2_cif.got.tgz:3957.got - 2010.06.03 19:51:22.
