data_PCOD9377338
_publ_section_title
;
Structure prediction by ZEFSAII (Michael W. Deem and Ramdas Pophale) SiO2 
 PCOD9377338
Probable space group: I B A 2
;
_chemical_formula_sum "Si O2"
_cell_formula_units_Z 56
_cell_length_a 12.752669
_cell_length_b 14.832215
_cell_length_c 12.533214
_cell_angle_alpha 90.000000
_cell_angle_beta 90.000000
_cell_angle_gamma 90.000000
_cell_volume 2370.661544
_symmetry_space_group_name_H-M "I B A 2"
_symmetry_group_IT_number 45
_symmetry_cell_setting 'orthorhombic'
loop_
_space_group_symop_operation_xyz
x,y,z
-x,-y,z
-x,y,1/2+z
x,-y,1/2+z
1/2+x,1/2+y,1/2+z
1/2-x,1/2-y,1/2+z
1/2-x,1/2+y,z
1/2+x,1/2-y,z
loop_
_atom_site_type_symbol
_atom_site_label
_atom_site_fract_x
_atom_site_fract_y
_atom_site_fract_z
Si Si1 0.334246 0.947866 0.180920
Si Si2 0.252218 0.890790 0.783029
Si Si3 0.000000 0.500000 0.021385
Si Si4 0.529197 0.660966 0.305382
Si Si5 0.000000 0.000000 0.646593
Si Si6 0.997364 0.635365 0.837066
Si Si7 0.291091 0.720498 0.659135
Si Si8 0.600568 0.624115 0.987129
O O1 0.395995 0.002043 0.091766
O O2 0.420536 0.920007 0.267431
O O3 0.292145 0.855882 0.131543
O O4 0.246229 0.009167 0.235580
O O5 0.376400 0.879242 0.806249
O O6 0.237769 0.813121 0.693832
O O7 0.184656 0.881966 0.890872
O O8 0.996813 0.408945 0.952748
O O9 0.481146 0.586238 0.224775
O O10 0.477498 0.760229 0.314009
O O11 0.644980 0.682695 0.262245
O O12 0.510624 0.627132 0.425172
O O13 0.089648 0.040062 0.567797
O O14 0.372765 0.711397 0.560765
#
# Coordination Sequence:
#
# PCOD9377338 Si02
#       8
#     8   8   4   8   4   8   8   8
#     4  12  24  44  69 103 146 181 244 307 362 442
#     4  11  23  46  71 103 146 186 240 311 359 446
#     4  12  22  40  74 106 136 190 240 296 374 438
#     4  10  24  45  73  99 153 187 250 306 354 454
#     4  10  24  44  70 110 140 196 242 300 380 444
#     4  11  23  45  70 105 139 191 239 301 368 425
#     4  10  26  45  68 108 140 193 246 296 376 442
#     4  11  24  44  72 103 147 192 244 296 373 437
#
# _framework density 23.622098999999999
#
# number of rings (size 3 to 8) (size 9 to 14) (size 15 to 20)
#    0.000    1.143    2.857    2.143    8.000    1.143 
#    0.000    5.714    0.000    0.000    0.000    0.000 
#    0.000    0.000    0.000    0.000    0.000    0.000 
#
# Total GULP energy -156305.755841 kJ/mol
# GULP energy per Si atom -5582.348423 kJ/mol
# Density = 2.356833 g / cm^3
# Si number density = 23.622099 Si / 1000 Ang^3
#
#
#
# Elastic Constant Matrix: (Units=GPa)
#
#
# Indices 1 2 3 4 5 6 
#
# 1 33.9038 9.3080 12.9628 0.0000 0.0000 0.0000
# 2 9.3080 166.1507 50.1890 0.0000 0.0000 0.0000
# 3 12.9628 50.1890 108.9161 0.0000 0.0000 0.0000
# 4 0.0000 0.0000 0.0000 39.8784 0.0000 0.0000
# 5 0.0000 0.0000 0.0000 0.0000 38.8102 0.0000
# 6 0.0000 0.0000 0.0000 0.0000 0.0000 36.9125
#
#
#
# Elastic Compliance Matrix: (Units=1/GPa)
#
#
# Indices 1 2 3 4 5 6 
#
# 1 0.030976 -0.000722 -0.003354 0.000000 0.000000 0.000000
# 2 -0.000722 0.007009 -0.003144 0.000000 0.000000 0.000000
# 3 -0.003354 -0.003144 0.011029 0.000000 0.000000 0.000000
# 4 0.000000 0.000000 0.000000 0.025076 0.000000 0.000000
# 5 0.000000 0.000000 0.000000 0.000000 0.025766 0.000000
# 6 0.000000 0.000000 0.000000 0.000000 0.000000 0.027091
#
#
# Mechanical properties :
#
#
# Convention : Reuss Voigt Hill
#
# Bulk Modulus (GPa) = 28.92331 50.43225 39.67778
# Shear Modulus (GPa) = 32.69863 38.88760 35.79311
#
# Velocity S-wave (km/s) = 3.72457 4.06179 3.89683
# Velocity P-wave (km/s) = 5.54683 6.58737 6.08937
#
# Compressibility (1/GPa) = 0.03457419
#
# Stress axis : x y z
#
# Youngs Moduli (GPa) = 32.28326 142.67971 90.66868
#
# Poissons Ratio (x) = 0.10305 0.30409
# Poissons Ratio (y) = 0.02332 0.28503
# Poissons Ratio (z) = 0.10827 0.44854
#
# Static dielectric constant tensor:
#      x y z
#    x 1.984590 0.000000 0.000000 
#    y 0.000000 1.934830 0.000000 
#    z 0.000000 0.000000 1.900210 
# 
# From -- ./inp_files/4186.got.cif
#   From: 2010.05.17/outbox.cif.g08.bks.cpg/sg45_3_cif.got.tgz:4186.got - 2010.06.03 19:51:22.
