data_PCOD9377651
_publ_section_title
;
Structure prediction by ZEFSAII (Michael W. Deem and Ramdas Pophale) SiO2 
 PCOD9377651
Probable space group: I B A 2
;
_chemical_formula_sum "Si O2"
_cell_formula_units_Z 48
_cell_length_a 13.591650
_cell_length_b 16.297769
_cell_length_c 9.338892
_cell_angle_alpha 90.000000
_cell_angle_beta 90.000000
_cell_angle_gamma 90.000000
_cell_volume 2068.691326
_symmetry_space_group_name_H-M "I B A 2"
_symmetry_group_IT_number 45
_symmetry_cell_setting 'orthorhombic'
loop_
_space_group_symop_operation_xyz
x,y,z
-x,-y,z
-x,y,1/2+z
x,-y,1/2+z
1/2+x,1/2+y,1/2+z
1/2-x,1/2-y,1/2+z
1/2-x,1/2+y,z
1/2+x,1/2-y,z
loop_
_atom_site_type_symbol
_atom_site_label
_atom_site_fract_x
_atom_site_fract_y
_atom_site_fract_z
Si Si1 0.181166 0.712915 0.913350
Si Si2 0.757457 0.052389 0.563325
Si Si3 0.018653 0.323606 0.761959
Si Si4 0.080107 0.431045 0.010685
Si Si5 0.164578 0.815508 0.162182
Si Si6 0.614950 0.486055 0.787270
O O1 0.203638 0.636595 0.019989
O O2 0.069692 0.708746 0.861139
O O3 0.250422 0.701820 0.777029
O O4 0.200955 0.794328 0.003955
O O5 0.834140 0.035397 0.436180
O O6 0.676651 0.979614 0.562919
O O7 0.820466 0.055364 0.708234
O O8 0.966589 0.378444 0.639970
O O9 0.088355 0.377023 0.866821
O O10 0.076878 0.247706 0.696116
O O11 0.000000 0.500000 0.971499
O O12 0.128215 0.907117 0.184742
O O13 0.500000 0.500000 0.804820
#
# Coordination Sequence:
#
# PCOD9377651 Si02
#       6
#     8   8   8   8   8   8
#     4  11  26  46  69 105 139 188 236 293 364 423
#     4  11  25  45  73 104 137 183 240 296 358 423
#     4  12  25  44  67 109 144 189 231 292 367 430
#     4  12  24  41  72 108 148 181 234 295 367 432
#     4  11  27  46  69 103 142 187 238 291 356 430
#     4  11  27  49  72 100 137 193 246 292 347 424
#
# _framework density 23.203074999999998
#
# number of rings (size 3 to 8) (size 9 to 14) (size 15 to 20)
#    0.000    0.667    3.333    3.000    9.333    5.333 
#    0.000    0.000    0.000    0.000    0.000    0.000 
#    0.000    0.000    0.000    0.000    0.000    0.000 
#
# Total GULP energy -134527.826551 kJ/mol
# GULP energy per Si atom -5605.326106 kJ/mol
# Density = 2.315026 g / cm^3
# Si number density = 23.203075 Si / 1000 Ang^3
#
#
#
# Elastic Constant Matrix: (Units=GPa)
#
#
# Indices 1 2 3 4 5 6 
#
# 1 123.1616 19.5492 -4.8683 0.0000 0.0000 0.0000
# 2 19.5492 46.1138 12.0441 0.0000 0.0000 0.0000
# 3 -4.8683 12.0441 57.2783 0.0000 0.0000 0.0000
# 4 0.0000 0.0000 0.0000 40.8821 0.0000 0.0000
# 5 0.0000 0.0000 0.0000 0.0000 26.6610 0.0000
# 6 0.0000 0.0000 0.0000 0.0000 0.0000 23.0072
#
#
#
# Elastic Compliance Matrix: (Units=1/GPa)
#
#
# Indices 1 2 3 4 5 6 
#
# 1 0.008847 -0.004176 0.001630 0.000000 0.000000 0.000000
# 2 -0.004176 0.024917 -0.005594 0.000000 0.000000 0.000000
# 3 0.001630 -0.005594 0.018773 0.000000 0.000000 0.000000
# 4 0.000000 0.000000 0.000000 0.024461 0.000000 0.000000
# 5 0.000000 0.000000 0.000000 0.000000 0.037508 0.000000
# 6 0.000000 0.000000 0.000000 0.000000 0.000000 0.043465
#
#
# Mechanical properties :
#
#
# Convention : Reuss Voigt Hill
#
# Bulk Modulus (GPa) = 27.58137 31.11153 29.34645
# Shear Modulus (GPa) = 26.83314 31.43198 29.13256
#
# Velocity S-wave (km/s) = 3.40435 3.68455 3.54721
# Velocity P-wave (km/s) = 5.23121 5.61593 5.42698
#
# Compressibility (1/GPa) = 0.03625635
#
# Stress axis : x y z
#
# Youngs Moduli (GPa) = 113.03618 40.13318 53.26657
#
# Poissons Ratio (x) = 0.16760 -0.08683
# Poissons Ratio (y) = 0.47206 0.29799
# Poissons Ratio (z) = -0.18426 0.22452
#
# Static dielectric constant tensor:
#      x y z
#    x 1.834270 0.000000 0.000000 
#    y 0.000000 1.891010 0.000000 
#    z 0.000000 0.000000 1.857300 
# 
# From -- ./inp_files/1703.got.cif
#   From: 2010.05.17/outbox.cif.g08.bks.cpg/sg45_1_cif.got.tgz:1703.got - 2010.06.03 19:51:22.
