data_PCOD9377042
_publ_section_title
;
Structure prediction by ZEFSAII (Michael W. Deem and Ramdas Pophale) SiO2 
 PCOD9377042
Probable space group: I B A 2
;
_chemical_formula_sum "Si O2"
_cell_formula_units_Z 60
_cell_length_a 20.608556
_cell_length_b 11.079630
_cell_length_c 11.336169
_cell_angle_alpha 90.000000
_cell_angle_beta 90.000000
_cell_angle_gamma 90.000000
_cell_volume 2588.446136
_symmetry_space_group_name_H-M "I B A 2"
_symmetry_group_IT_number 45
_symmetry_cell_setting 'orthorhombic'
loop_
_space_group_symop_operation_xyz
x,y,z
-x,-y,z
-x,y,1/2+z
x,-y,1/2+z
1/2+x,1/2+y,1/2+z
1/2-x,1/2-y,1/2+z
1/2-x,1/2+y,z
1/2+x,1/2-y,z
loop_
_atom_site_type_symbol
_atom_site_label
_atom_site_fract_x
_atom_site_fract_y
_atom_site_fract_z
Si Si1 0.765179 0.664765 0.057780
Si Si2 0.963288 0.276330 0.354013
Si Si3 0.595094 0.918576 0.547713
Si Si4 0.894414 0.319706 0.934004
Si Si5 0.246547 0.310360 0.317589
Si Si6 0.880081 0.052121 0.290073
Si Si7 0.500000 0.000000 0.730162
Si Si8 0.869391 0.930081 0.534838
O O1 0.830868 0.594041 0.079417
O O2 0.754743 0.738799 0.181230
O O3 0.708343 0.568080 0.038655
O O4 0.769360 0.733790 0.932337
O O5 0.926405 0.300959 0.475618
O O6 0.927870 0.166614 0.293990
O O7 0.040569 0.270947 0.370826
O O8 0.953809 0.406332 0.294506
O O9 0.587166 0.050978 0.488633
O O10 0.546810 0.918649 0.654917
O O11 0.828658 0.335431 0.856237
O O12 0.881068 0.215465 0.031252
O O13 0.303909 0.409890 0.303405
O O14 0.890766 0.005472 0.156007
O O15 0.894210 0.978016 0.409286
#
# Coordination Sequence:
#
# PCOD9377042 Si02
#       8
#     8   8   8   8   8   8   4   8
#     4  10  22  41  70 102 140 183 233 289 351 420
#     4  12  24  42  69 102 141 182 229 293 352 426
#     4  12  22  41  67 104 141 183 225 288 358 422
#     4  11  22  44  66 104 143 181 231 287 356 426
#     4  10  22  42  69 105 139 183 231 291 350 415
#     4  11  24  47  70 100 141 183 240 290 347 414
#     4  12  22  40  66 108 140 182 228 282 368 428
#     4  10  25  47  68  99 136 188 237 291 344 416
#
# _framework density 23.179929999999999
#
# number of rings (size 3 to 8) (size 9 to 14) (size 15 to 20)
#    0.000    1.067    4.000    2.400    0.000    2.667 
#    2.400    4.000    0.000    0.000    0.000    0.000 
#    0.000    0.000    0.000    0.000    0.000    0.000 
#
# Total GULP energy -167133.656339 kJ/mol
# GULP energy per Si atom -5571.121878 kJ/mol
# Density = 2.312717 g / cm^3
# Si number density = 23.179930 Si / 1000 Ang^3
#
#
#
# Elastic Constant Matrix: (Units=GPa)
#
#
# Indices 1 2 3 4 5 6 
#
# 1 66.4715 -4.4690 14.3776 0.0000 0.0000 0.0000
# 2 -4.4690 34.8217 45.5767 0.0000 0.0000 0.0000
# 3 14.3776 45.5767 163.3677 0.0000 0.0000 0.0000
# 4 0.0000 0.0000 0.0000 127.1169 0.0000 0.0000
# 5 0.0000 0.0000 0.0000 0.0000 17.3759 0.0000
# 6 0.0000 0.0000 0.0000 0.0000 0.0000 23.5757
#
#
#
# Elastic Compliance Matrix: (Units=1/GPa)
#
#
# Indices 1 2 3 4 5 6 
#
# 1 0.016141 0.006192 -0.003148 0.000000 0.000000 0.000000
# 2 0.006192 0.047610 -0.013827 0.000000 0.000000 0.000000
# 3 -0.003148 -0.013827 0.010256 0.000000 0.000000 0.000000
# 4 0.000000 0.000000 0.000000 0.007867 0.000000 0.000000
# 5 0.000000 0.000000 0.000000 0.000000 0.057551 0.000000
# 6 0.000000 0.000000 0.000000 0.000000 0.000000 0.042417
#
#
# Mechanical properties :
#
#
# Convention : Reuss Voigt Hill
#
# Bulk Modulus (GPa) = 19.06930 41.73683 30.40307
# Shear Modulus (GPa) = 22.63580 47.55874 35.09727
#
# Velocity S-wave (km/s) = 3.12833 4.53451 3.89539
# Velocity P-wave (km/s) = 4.61445 6.74243 5.77726
#
# Compressibility (1/GPa) = 0.05244030
#
# Stress axis : x y z
#
# Youngs Moduli (GPa) = 61.95326 21.00378 97.50580
#
# Poissons Ratio (x) = -0.13005 0.30694
# Poissons Ratio (y) = -0.38360 1.34825
# Poissons Ratio (z) = 0.19502 0.29043
#
# Static dielectric constant tensor:
#      x y z
#    x 1.861010 0.000000 0.000000 
#    y 0.000000 0.855300 0.000000 
#    z 0.000000 0.000000 1.982960 
# 
# From -- ./inp_files/4672.got.cif
#   From: 2010.05.17/outbox.cif.g08.bks.cpg/sg45_3_cif.got.tgz:4672.got - 2010.06.03 19:51:22.
