data_PCOD9377590
_publ_section_title
;
Structure prediction by ZEFSAII (Michael W. Deem and Ramdas Pophale) SiO2 
 PCOD9377590
Probable space group: I B A 2
;
_chemical_formula_sum "Si O2"
_cell_formula_units_Z 40
_cell_length_a 10.160357
_cell_length_b 10.037158
_cell_length_c 14.894154
_cell_angle_alpha 90.000000
_cell_angle_beta 90.000000
_cell_angle_gamma 90.000000
_cell_volume 1518.922336
_symmetry_space_group_name_H-M "I B A 2"
_symmetry_group_IT_number 45
_symmetry_cell_setting 'orthorhombic'
loop_
_space_group_symop_operation_xyz
x,y,z
-x,-y,z
-x,y,1/2+z
x,-y,1/2+z
1/2+x,1/2+y,1/2+z
1/2-x,1/2-y,1/2+z
1/2-x,1/2+y,z
1/2+x,1/2-y,z
loop_
_atom_site_type_symbol
_atom_site_label
_atom_site_fract_x
_atom_site_fract_y
_atom_site_fract_z
Si Si1 0.896758 0.910437 0.648840
Si Si2 0.294574 0.432805 0.974557
Si Si3 0.766976 0.626980 0.317107
Si Si4 0.497680 0.754692 0.886014
Si Si5 0.961605 0.645890 0.071706
O O1 0.859256 0.001524 0.561913
O O2 0.777205 0.901658 0.717028
O O3 0.965151 0.769890 0.620634
O O4 0.000000 0.000000 0.703184
O O5 0.230591 0.513084 0.893066
O O6 0.418635 0.368422 0.924141
O O7 0.192190 0.344208 0.036367
O O8 0.649868 0.722242 0.356412
O O9 0.911219 0.688162 0.308678
O O10 0.517998 0.850649 0.970632
O O11 0.000000 0.500000 0.109702
#
# Coordination Sequence:
#
# PCOD9377590 Si02
#       5
#     8   8   8   8   8
#     4  11  27  45  75 113 155 207 267 331 406 487
#     4  11  23  46  76 103 154 204 259 322 401 480
#     4  12  25  47  76 110 153 205 264 327 397 489
#     4  11  23  43  73 107 147 200 256 316 397 473
#     4  11  23  46  74 114 152 204 262 334 400 478
#
# _framework density 26.334458999999999
#
# number of rings (size 3 to 8) (size 9 to 14) (size 15 to 20)
#    0.000    0.800    4.000    4.200    2.800    0.000 
#    3.600    1.000    0.000    0.000    0.000    0.000 
#    0.000    0.000    0.000    0.000    0.000    0.000 
#
# Total GULP energy -111394.768505 kJ/mol
# GULP energy per Si atom -5569.738425 kJ/mol
# Density = 2.627452 g / cm^3
# Si number density = 26.334459 Si / 1000 Ang^3
#
#
#
# Elastic Constant Matrix: (Units=GPa)
#
#
# Indices 1 2 3 4 5 6 
#
# 1 45.7458 12.6833 -7.5577 0.0000 0.0000 0.0000
# 2 12.6833 83.5214 21.6388 0.0000 0.0000 0.0000
# 3 -7.5577 21.6388 141.6988 0.0000 0.0000 0.0000
# 4 0.0000 0.0000 0.0000 21.8217 0.0000 0.0000
# 5 0.0000 0.0000 0.0000 0.0000 41.7003 0.0000
# 6 0.0000 0.0000 0.0000 0.0000 0.0000 44.8965
#
#
#
# Elastic Compliance Matrix: (Units=1/GPa)
#
#
# Indices 1 2 3 4 5 6 
#
# 1 0.023280 -0.004016 0.001855 0.000000 0.000000 0.000000
# 2 -0.004016 0.013159 -0.002224 0.000000 0.000000 0.000000
# 3 0.001855 -0.002224 0.007496 0.000000 0.000000 0.000000
# 4 0.000000 0.000000 0.000000 0.045826 0.000000 0.000000
# 5 0.000000 0.000000 0.000000 0.000000 0.023981 0.000000
# 6 0.000000 0.000000 0.000000 0.000000 0.000000 0.022273
#
#
# Mechanical properties :
#
#
# Convention : Reuss Voigt Hill
#
# Bulk Modulus (GPa) = 28.43709 36.05499 32.24604
# Shear Modulus (GPa) = 31.94781 37.96381 34.95581
#
# Velocity S-wave (km/s) = 3.48682 3.80096 3.64727
# Velocity P-wave (km/s) = 5.19927 5.74317 5.47797
#
# Compressibility (1/GPa) = 0.03516534
#
# Stress axis : x y z
#
# Youngs Moduli (GPa) = 42.95574 75.99416 133.40920
#
# Poissons Ratio (x) = 0.30517 -0.24746
# Poissons Ratio (y) = 0.17250 0.29666
# Poissons Ratio (z) = -0.07968 0.16899
#
# Static dielectric constant tensor:
#      x y z
#    x 2.469820 0.000000 0.000000 
#    y 0.000000 2.339310 0.000000 
#    z 0.000000 0.000000 2.062350 
# 
# From -- ./inp_files/5985.got.cif
#   From: 2010.05.17/outbox.cif.g08.bks.cpg/sg45_3_cif.got.tgz:5985.got - 2010.06.03 19:51:22.
