data_PCOD9377981
_publ_section_title
;
Structure prediction by ZEFSAII (Michael W. Deem and Ramdas Pophale) SiO2 
 PCOD9377981
Probable space group: I M A 2
;
_chemical_formula_sum "Si O2"
_cell_formula_units_Z 64
_cell_length_a 8.915632
_cell_length_b 18.889720
_cell_length_c 26.804113
_cell_angle_alpha 90.000000
_cell_angle_beta 90.000000
_cell_angle_gamma 90.000000
_cell_volume 4514.182314
_symmetry_space_group_name_H-M "I M A 2"
_symmetry_group_IT_number 46
_symmetry_cell_setting 'orthorhombic'
loop_
_space_group_symop_operation_xyz
x,y,z
-x,-y,z
1/2-x,y,z
1/2+x,-y,z
1/2+x,1/2+y,1/2+z
1/2-x,1/2-y,1/2+z
-x,1/2+y,1/2+z
x,1/2-y,1/2+z
loop_
_atom_site_type_symbol
_atom_site_label
_atom_site_fract_x
_atom_site_fract_y
_atom_site_fract_z
Si Si1 0.927535 0.837766 0.074740
Si Si2 0.929952 0.922226 0.971911
Si Si3 0.071562 0.704151 0.417189
Si Si4 0.429651 0.287442 0.008931
Si Si5 0.069629 0.172183 0.360230
Si Si6 0.930113 0.076581 0.276555
Si Si7 0.571975 0.923615 0.456752
Si Si8 0.927864 0.424757 0.660172
O O1 0.750000 0.845272 0.083669
O O2 0.957966 0.756465 0.059009
O O3 0.014429 0.865894 0.122291
O O4 0.963505 0.885184 0.025612
O O5 0.750000 0.924510 0.967086
O O6 0.999274 0.872087 0.928955
O O7 0.000000 0.000000 0.970811
O O8 0.250000 0.699440 0.412011
O O9 0.024993 0.748716 0.466383
O O10 0.999250 0.751149 0.373205
O O11 0.250000 0.277774 0.997401
O O12 0.462264 0.370244 0.002606
O O13 0.250000 0.176744 0.357890
O O14 0.030022 0.119251 0.406381
O O15 0.001366 0.136318 0.311330
O O16 0.750000 0.074132 0.282549
O O17 0.965760 0.089240 0.218145
O O18 0.000000 0.000000 0.290006
O O19 0.750000 0.932959 0.455005
O O20 0.500000 0.000000 0.459685
O O21 0.750000 0.431286 0.656551
O O22 0.000000 0.500000 0.646012
#
# Coordination Sequence:
#
# PCOD9377981 Si02
#       8
#     8   8   8   8   8   8   8   8
#     4   9  17  29  45  60  79 110 145 176 209 249
#     4  10  19  30  43  62  87 114 144 177 211 250
#     4  10  18  28  43  62  83 109 140 174 210 251
#     4   8  16  30  42  56  81 111 140 173 209 247
#     4  10  19  31  45  60  82 113 144 176 210 248
#     4  10  20  32  44  61  84 111 142 177 213 250
#     4   9  17  27  40  59  83 108 136 168 204 242
#     4  10  20  31  43  60  84 110 140 177 213 249
#
# _framework density 14.17754
#
# number of rings (size 3 to 8) (size 9 to 14) (size 15 to 20)
#    0.000    2.500    0.000    4.875    0.000    8.500 
#    0.000    0.000    0.000    0.000    0.000    0.000 
#    0.000    1.000    0.000    5.250    0.000    4.875 
#
# Total GULP energy -178282.780571 kJ/mol
# GULP energy per Si atom -5571.336893 kJ/mol
# Density = 1.414527 g / cm^3
# Si number density = 14.177540 Si / 1000 Ang^3
#
#
#
# Elastic Constant Matrix: (Units=GPa)
#
#
# Indices 1 2 3 4 5 6 
#
# 1 48.4822 35.8578 29.7033 0.0000 0.0000 0.0000
# 2 35.8578 92.6217 33.0777 0.0000 0.0000 0.0000
# 3 29.7033 33.0777 53.9409 0.0000 0.0000 0.0000
# 4 0.0000 0.0000 0.0000 24.5495 0.0000 0.0000
# 5 0.0000 0.0000 0.0000 0.0000 21.7916 0.0000
# 6 0.0000 0.0000 0.0000 0.0000 0.0000 26.5921
#
#
#
# Elastic Compliance Matrix: (Units=1/GPa)
#
#
# Indices 1 2 3 4 5 6 
#
# 1 0.035942 -0.008766 -0.014416 0.000000 0.000000 0.000000
# 2 -0.008766 0.015962 -0.004961 0.000000 0.000000 0.000000
# 3 -0.014416 -0.004961 0.029520 0.000000 0.000000 0.000000
# 4 0.000000 0.000000 0.000000 0.040734 0.000000 0.000000
# 5 0.000000 0.000000 0.000000 0.000000 0.045889 0.000000
# 6 0.000000 0.000000 0.000000 0.000000 0.000000 0.037605
#
#
# Mechanical properties :
#
#
# Convention : Reuss Voigt Hill
#
# Bulk Modulus (GPa) = 39.78283 43.59140 41.68711
# Shear Modulus (GPa) = 18.49668 21.01368 19.75518
#
# Velocity S-wave (km/s) = 3.61591 3.85409 3.73690
# Velocity P-wave (km/s) = 6.74940 7.11469 6.93445
#
# Compressibility (1/GPa) = 0.02513648
#
# Stress axis : x y z
#
# Youngs Moduli (GPa) = 27.82251 62.64830 33.87573
#
# Poissons Ratio (x) = 0.54919 0.48837
# Poissons Ratio (y) = 0.24390 0.16806
# Poissons Ratio (z) = 0.40110 0.31080
#
# Static dielectric constant tensor:
#      x y z
#    x 1.472280 0.000000 0.000000 
#    y 0.000000 1.474800 0.000000 
#    z 0.000000 0.000000 1.463840 
# 
# From -- ./inp_files/23296.got.cif
#   From: 2010.05.17/outbox.cif.g08.bks.cpg/sg46_12_cif.got.tgz:23296.got - 2010.06.03 19:58:25.
