data_PCOD9377624
_publ_section_title
;
Structure prediction by ZEFSAII (Michael W. Deem and Ramdas Pophale) SiO2 
 PCOD9377624
Probable space group: I B A 2
;
_chemical_formula_sum "Si O2"
_cell_formula_units_Z 64
_cell_length_a 21.935751
_cell_length_b 9.121492
_cell_length_c 13.577952
_cell_angle_alpha 90.000000
_cell_angle_beta 90.000000
_cell_angle_gamma 90.000000
_cell_volume 2716.768657
_symmetry_space_group_name_H-M "I B A 2"
_symmetry_group_IT_number 45
_symmetry_cell_setting 'orthorhombic'
loop_
_space_group_symop_operation_xyz
x,y,z
-x,-y,z
-x,y,1/2+z
x,-y,1/2+z
1/2+x,1/2+y,1/2+z
1/2-x,1/2-y,1/2+z
1/2-x,1/2+y,z
1/2+x,1/2-y,z
loop_
_atom_site_type_symbol
_atom_site_label
_atom_site_fract_x
_atom_site_fract_y
_atom_site_fract_z
Si Si1 0.673879 0.883327 0.000000
Si Si2 0.674909 0.073549 0.725790
Si Si3 0.288531 0.560995 0.481204
Si Si4 0.314073 0.475766 0.702117
Si Si5 0.531102 0.341569 0.023092
Si Si6 0.897717 0.280519 0.712796
Si Si7 0.452850 0.129684 0.906890
Si Si8 0.132864 0.160097 0.854501
O O1 0.696249 0.728118 0.954297
O O2 0.610697 0.925559 0.950684
O O3 0.717956 0.021014 0.985199
O O4 0.674989 0.853971 0.117180
O O5 0.743978 0.012273 0.739653
O O6 0.656294 0.186364 0.811073
O O7 0.624236 0.948208 0.713796
O O8 0.313151 0.524872 0.589748
O O9 0.318512 0.437447 0.413785
O O10 0.334716 0.309095 0.714586
O O11 0.368609 0.563107 0.755454
O O12 0.500000 0.500000 0.037816
O O13 0.478981 0.228147 0.994147
O O14 0.575431 0.337683 0.926886
O O15 0.566892 0.279676 0.117722
O O16 0.938279 0.271423 0.811327
O O17 0.500000 0.000000 0.883277
#
# Coordination Sequence:
#
# PCOD9377624 Si02
#       8
#     8   8   8   8   8   8   8   8
#     4  11  26  48  74 111 158 199 264 319 405 468
#     4  11  26  44  77 114 158 205 246 329 398 494
#     4  11  25  44  75 117 153 208 251 337 395 481
#     4  11  24  45  73 115 158 198 259 318 405 481
#     4  12  28  51  79 110 151 209 267 327 389 467
#     4  12  27  49  75 112 153 200 268 325 397 473
#     4  12  29  52  74 110 151 210 267 324 389 470
#     4  12  25  47  75 111 154 206 263 321 406 464
#
# _framework density 23.557396000000001
#
# number of rings (size 3 to 8) (size 9 to 14) (size 15 to 20)
#    0.000    0.500    2.500    4.500   10.500    5.000 
#    0.000    0.000    0.000    0.000    0.000    0.000 
#    0.000    0.000    0.000    0.000    0.000    0.000 
#
# Total GULP energy -179018.542613 kJ/mol
# GULP energy per Si atom -5594.329457 kJ/mol
# Density = 2.350378 g / cm^3
# Si number density = 23.557396 Si / 1000 Ang^3
#
#
#
# Elastic Constant Matrix: (Units=GPa)
#
#
# Indices 1 2 3 4 5 6 
#
# 1 73.5527 16.0278 34.6508 0.0000 0.0000 0.0000
# 2 16.0278 88.6952 22.8596 0.0000 0.0000 0.0000
# 3 34.6508 22.8596 94.6599 0.0000 0.0000 0.0000
# 4 0.0000 0.0000 0.0000 20.2555 0.0000 0.0000
# 5 0.0000 0.0000 0.0000 0.0000 11.5150 0.0000
# 6 0.0000 0.0000 0.0000 0.0000 0.0000 33.5517
#
#
#
# Elastic Compliance Matrix: (Units=1/GPa)
#
#
# Indices 1 2 3 4 5 6 
#
# 1 0.016621 -0.001531 -0.005715 0.000000 0.000000 0.000000
# 2 -0.001531 0.012164 -0.002377 0.000000 0.000000 0.000000
# 3 -0.005715 -0.002377 0.013230 0.000000 0.000000 0.000000
# 4 0.000000 0.000000 0.000000 0.049369 0.000000 0.000000
# 5 0.000000 0.000000 0.000000 0.000000 0.086843 0.000000
# 6 0.000000 0.000000 0.000000 0.000000 0.000000 0.029805
#
#
# Mechanical properties :
#
#
# Convention : Reuss Voigt Hill
#
# Bulk Modulus (GPa) = 43.91703 44.88716 44.40209
# Shear Modulus (GPa) = 21.28857 25.28909 23.28883
#
# Velocity S-wave (km/s) = 3.00940 3.28000 3.14761
# Velocity P-wave (km/s) = 5.54602 5.78276 5.66563
#
# Compressibility (1/GPa) = 0.02277021
#
# Stress axis : x y z
#
# Youngs Moduli (GPa) = 60.16317 82.21087 75.58526
#
# Poissons Ratio (x) = 0.12584 0.43195
# Poissons Ratio (y) = 0.09209 0.17968
# Poissons Ratio (z) = 0.34382 0.19543
#
# Static dielectric constant tensor:
#      x y z
#    x 1.951150 0.000000 0.000000 
#    y 0.000000 1.901500 0.000000 
#    z 0.000000 0.000000 1.972520 
# 
# From -- ./inp_files/7073.got.cif
#   From: 2010.05.17/outbox.cif.g08.bks.cpg/sg45_4_cif.got.tgz:7073.got - 2010.06.03 19:51:22.
