data_PCOD9377181
_publ_section_title
;
Structure prediction by ZEFSAII (Michael W. Deem and Ramdas Pophale) SiO2 
 PCOD9377181
Probable space group: I B A 2
;
_chemical_formula_sum "Si O2"
_cell_formula_units_Z 60
_cell_length_a 8.983573
_cell_length_b 16.527959
_cell_length_c 16.908128
_cell_angle_alpha 90.000000
_cell_angle_beta 90.000000
_cell_angle_gamma 90.000000
_cell_volume 2510.520980
_symmetry_space_group_name_H-M "I B A 2"
_symmetry_group_IT_number 45
_symmetry_cell_setting 'orthorhombic'
loop_
_space_group_symop_operation_xyz
x,y,z
-x,-y,z
-x,y,1/2+z
x,-y,1/2+z
1/2+x,1/2+y,1/2+z
1/2-x,1/2-y,1/2+z
1/2-x,1/2+y,z
1/2+x,1/2-y,z
loop_
_atom_site_type_symbol
_atom_site_label
_atom_site_fract_x
_atom_site_fract_y
_atom_site_fract_z
Si Si1 0.086521 0.076137 0.800570
Si Si2 0.561163 0.581910 0.972904
Si Si3 0.358884 0.862073 0.379240
Si Si4 0.161107 0.204793 0.020228
Si Si5 0.109698 0.393655 0.000414
Si Si6 0.844776 0.656236 0.674296
Si Si7 0.937859 0.767081 0.250239
Si Si8 0.000000 0.500000 0.642557
O O1 0.261360 0.078576 0.823077
O O2 0.002853 0.085360 0.884663
O O3 0.051139 0.158388 0.755380
O O4 0.000000 0.000000 0.762566
O O5 0.500000 0.500000 0.011283
O O6 0.495772 0.657465 0.020126
O O7 0.735565 0.576811 0.965797
O O8 0.244500 0.819142 0.439305
O O9 0.479119 0.903137 0.436331
O O10 0.430883 0.790952 0.326625
O O11 0.130943 0.299186 0.018432
O O12 0.265833 0.171376 0.090116
O O13 0.085125 0.441352 0.081493
O O14 0.722759 0.692987 0.734518
O O15 0.994705 0.708666 0.683596
O O16 0.890527 0.562511 0.686874
#
# Coordination Sequence:
#
# PCOD9377181 Si02
#       8
#     8   8   8   8   8   8   8   4
#     4  10  23  44  68 106 152 190 252 313 387 461
#     4  10  23  41  71 109 152 187 250 321 385 451
#     4  11  23  46  77 113 148 196 266 320 384 466
#     4  11  23  47  73 110 150 199 255 321 380 468
#     4  12  24  41  78 108 148 197 260 324 379 455
#     4  12  28  49  74 109 159 206 261 322 388 482
#     4  12  26  49  76 108 154 212 257 318 397 473
#     4  12  28  50  68 114 156 198 264 318 392 468
#
# _framework density 23.899422000000001
#
# number of rings (size 3 to 8) (size 9 to 14) (size 15 to 20)
#    0.000    0.800    2.667    4.800    7.467    1.067 
#    2.400    1.333    0.000    0.000    0.000    0.000 
#    0.000    0.000    0.000    0.000    0.000    0.000 
#
# Total GULP energy -167885.498997 kJ/mol
# GULP energy per Si atom -5596.183300 kJ/mol
# Density = 2.384503 g / cm^3
# Si number density = 23.899422 Si / 1000 Ang^3
#
#
#
# Elastic Constant Matrix: (Units=GPa)
#
#
# Indices 1 2 3 4 5 6 
#
# 1 126.5104 45.2748 2.3247 0.0000 0.0000 0.0000
# 2 45.2748 152.9005 13.3850 0.0000 0.0000 0.0000
# 3 2.3247 13.3850 40.0891 0.0000 0.0000 0.0000
# 4 0.0000 0.0000 0.0000 20.3976 0.0000 0.0000
# 5 0.0000 0.0000 0.0000 0.0000 12.8915 0.0000
# 6 0.0000 0.0000 0.0000 0.0000 0.0000 21.9997
#
#
#
# Elastic Compliance Matrix: (Units=1/GPa)
#
#
# Indices 1 2 3 4 5 6 
#
# 1 0.008847 -0.002652 0.000373 0.000000 0.000000 0.000000
# 2 -0.002652 0.007532 -0.002361 0.000000 0.000000 0.000000
# 3 0.000373 -0.002361 0.025711 0.000000 0.000000 0.000000
# 4 0.000000 0.000000 0.000000 0.049025 0.000000 0.000000
# 5 0.000000 0.000000 0.000000 0.000000 0.077570 0.000000
# 6 0.000000 0.000000 0.000000 0.000000 0.000000 0.045455
#
#
# Mechanical properties :
#
#
# Convention : Reuss Voigt Hill
#
# Bulk Modulus (GPa) = 30.47979 49.05213 39.76596
# Shear Modulus (GPa) = 21.33481 28.29213 24.81347
#
# Velocity S-wave (km/s) = 2.99104 3.44437 3.22568
# Velocity P-wave (km/s) = 4.97086 6.03218 5.52705
#
# Compressibility (1/GPa) = 0.03280863
#
# Stress axis : x y z
#
# Youngs Moduli (GPa) = 113.03520 132.76288 38.89366
#
# Poissons Ratio (x) = 0.35211 -0.01449
# Poissons Ratio (y) = 0.29979 0.09183
# Poissons Ratio (z) = -0.04211 0.31346
#
# Static dielectric constant tensor:
#      x y z
#    x 1.938920 0.000000 0.000000 
#    y 0.000000 2.144090 0.000000 
#    z 0.000000 0.000000 1.904910 
# 
# From -- ./inp_files/7695.got.cif
#   From: 2010.05.17/outbox.cif.g08.bks.cpg/sg45_4_cif.got.tgz:7695.got - 2010.06.03 19:51:22.
