data_PCOD9377686
_publ_section_title
;
Structure prediction by ZEFSAII (Michael W. Deem and Ramdas Pophale) SiO2 
 PCOD9377686
Probable space group: I B A 2
;
_chemical_formula_sum "Si O2"
_cell_formula_units_Z 44
_cell_length_a 8.619395
_cell_length_b 13.148350
_cell_length_c 16.714756
_cell_angle_alpha 90.000000
_cell_angle_beta 90.000000
_cell_angle_gamma 90.000000
_cell_volume 1894.297041
_symmetry_space_group_name_H-M "I B A 2"
_symmetry_group_IT_number 45
_symmetry_cell_setting 'orthorhombic'
loop_
_space_group_symop_operation_xyz
x,y,z
-x,-y,z
-x,y,1/2+z
x,-y,1/2+z
1/2+x,1/2+y,1/2+z
1/2-x,1/2-y,1/2+z
1/2-x,1/2+y,z
1/2+x,1/2-y,z
loop_
_atom_site_type_symbol
_atom_site_label
_atom_site_fract_x
_atom_site_fract_y
_atom_site_fract_z
Si Si1 0.500000 0.500000 0.264650
Si Si2 0.738347 0.370014 0.872273
Si Si3 0.486271 0.175135 0.589541
Si Si4 0.254616 0.027058 0.498738
Si Si5 0.067520 0.215236 0.433356
Si Si6 0.806496 0.875791 0.138092
O O1 0.374933 0.429396 0.311610
O O2 0.605498 0.427426 0.210767
O O3 0.815996 0.455756 0.927756
O O4 0.866798 0.282488 0.859625
O O5 0.612966 0.304095 0.921477
O O6 0.377533 0.088928 0.551687
O O7 0.582134 0.222247 0.515337
O O8 0.620662 0.135224 0.647962
O O9 0.382705 0.265730 0.624156
O O10 0.147985 0.108138 0.452158
O O11 0.171903 0.951170 0.561646
#
# Coordination Sequence:
#
# PCOD9377686 Si02
#       6
#     4   8   8   8   8   8
#     4  12  30  48  68 100 158 210 230 288 378 448
#     4  12  26  44  73 105 145 186 244 297 365 434
#     4  12  23  43  77 113 134 179 250 308 359 409
#     4  12  21  42  80 105 136 181 248 308 355 411
#     4  12  21  41  74 108 135 180 233 314 355 407
#     4  12  27  44  72 105 149 191 237 299 362 445
#
# _framework density 23.227613999999999
#
# number of rings (size 3 to 8) (size 9 to 14) (size 15 to 20)
#    0.000    0.000    9.091    1.636    0.000    1.455 
#    0.000    0.000    8.000    0.000    0.000    0.000 
#    0.000    0.000    0.000    0.000    0.000    0.000 
#
# Total GULP energy -122929.061933 kJ/mol
# GULP energy per Si atom -5587.684633 kJ/mol
# Density = 2.317475 g / cm^3
# Si number density = 23.227614 Si / 1000 Ang^3
#
#
#
# Elastic Constant Matrix: (Units=GPa)
#
#
# Indices 1 2 3 4 5 6 
#
# 1 112.6827 47.4710 21.6932 0.0000 0.0000 0.0000
# 2 47.4710 113.9396 27.4836 0.0000 0.0000 0.0000
# 3 21.6932 27.4836 57.3521 0.0000 0.0000 0.0000
# 4 0.0000 0.0000 0.0000 14.1129 0.0000 0.0000
# 5 0.0000 0.0000 0.0000 0.0000 17.5017 0.0000
# 6 0.0000 0.0000 0.0000 0.0000 0.0000 51.3833
#
#
#
# Elastic Compliance Matrix: (Units=1/GPa)
#
#
# Indices 1 2 3 4 5 6 
#
# 1 0.011009 -0.004050 -0.002223 0.000000 0.000000 0.000000
# 2 -0.004050 0.011414 -0.003938 0.000000 0.000000 0.000000
# 3 -0.002223 -0.003938 0.020164 0.000000 0.000000 0.000000
# 4 0.000000 0.000000 0.000000 0.070857 0.000000 0.000000
# 5 0.000000 0.000000 0.000000 0.000000 0.057137 0.000000
# 6 0.000000 0.000000 0.000000 0.000000 0.000000 0.019462
#
#
# Mechanical properties :
#
#
# Convention : Reuss Voigt Hill
#
# Bulk Modulus (GPa) = 45.11703 53.02999 49.07351
# Shear Modulus (GPa) = 22.95124 29.08802 26.01963
#
# Velocity S-wave (km/s) = 3.14682 3.54263 3.35057
# Velocity P-wave (km/s) = 5.71571 6.29395 6.01178
#
# Compressibility (1/GPa) = 0.02216458
#
# Stress axis : x y z
#
# Youngs Moduli (GPa) = 90.83638 87.61235 49.59345
#
# Poissons Ratio (x) = 0.35487 0.11025
# Poissons Ratio (y) = 0.36792 0.19528
# Poissons Ratio (z) = 0.20193 0.34498
#
# Static dielectric constant tensor:
#      x y z
#    x 1.887090 0.000000 0.000000 
#    y 0.000000 1.929410 0.000000 
#    z 0.000000 0.000000 1.868170 
# 
# From -- ./inp_files/7514.got.cif
#   From: 2010.05.17/outbox.cif.g08.bks.cpg/sg45_4_cif.got.tgz:7514.got - 2010.06.03 19:51:22.
