data_PCOD9377144
_publ_section_title
;
Structure prediction by ZEFSAII (Michael W. Deem and Ramdas Pophale) SiO2 
 PCOD9377144
Probable space group: I B A 2
;
_chemical_formula_sum "Si O2"
_cell_formula_units_Z 48
_cell_length_a 11.717901
_cell_length_b 10.248518
_cell_length_c 17.323570
_cell_angle_alpha 90.000000
_cell_angle_beta 90.000000
_cell_angle_gamma 90.000000
_cell_volume 2080.406912
_symmetry_space_group_name_H-M "I B A 2"
_symmetry_group_IT_number 45
_symmetry_cell_setting 'orthorhombic'
loop_
_space_group_symop_operation_xyz
x,y,z
-x,-y,z
-x,y,1/2+z
x,-y,1/2+z
1/2+x,1/2+y,1/2+z
1/2-x,1/2-y,1/2+z
1/2-x,1/2+y,z
1/2+x,1/2-y,z
loop_
_atom_site_type_symbol
_atom_site_label
_atom_site_fract_x
_atom_site_fract_y
_atom_site_fract_z
Si Si1 0.288811 0.369283 0.331160
Si Si2 0.000000 0.000000 0.902763
Si Si3 0.399760 0.592691 0.555419
Si Si4 0.297921 0.896175 0.165928
Si Si5 0.859579 0.613963 0.885639
Si Si6 0.529298 0.848509 0.553182
Si Si7 0.000000 0.500000 0.764202
O O1 0.417357 0.412028 0.352017
O O2 0.274882 0.351960 0.239241
O O3 0.202695 0.475642 0.368858
O O4 0.271475 0.228078 0.367409
O O5 0.912619 0.066318 0.964085
O O6 0.500000 0.500000 0.588282
O O7 0.285565 0.552646 0.599298
O O8 0.426697 0.746544 0.562020
O O9 0.378940 0.800953 0.116842
O O10 0.390273 0.984649 0.210275
O O11 0.963077 0.614253 0.823101
O O12 0.912970 0.645251 0.968794
O O13 0.500000 0.000000 0.566510
#
# Coordination Sequence:
#
# PCOD9377144 Si02
#       7
#     8   4   8   8   8   8   4
#     4  11  26  43  76 105 150 187 248 311 365 440
#     4  10  22  48  68 106 142 188 246 294 374 442
#     4  10  25  46  71 107 146 190 250 308 363 447
#     4  11  26  46  75 107 152 191 252 305 383 433
#     4  11  24  48  69 111 142 203 247 307 371 453
#     4  12  25  45  76 102 146 197 244 299 367 448
#     4  10  24  46  72 106 152 194 248 310 382 448
#
# _framework density 23.072410000000001
#
# number of rings (size 3 to 8) (size 9 to 14) (size 15 to 20)
#    0.500    0.667    3.333    1.000    3.500    9.333 
#    0.000    0.000    0.000    0.000    0.000    0.000 
#    0.000    0.000    0.000    0.000    0.000    0.000 
#
# Total GULP energy -133707.999502 kJ/mol
# GULP energy per Si atom -5571.166646 kJ/mol
# Density = 2.301990 g / cm^3
# Si number density = 23.072410 Si / 1000 Ang^3
#
#
#
# Elastic Constant Matrix: (Units=GPa)
#
#
# Indices 1 2 3 4 5 6 
#
# 1 94.1783 30.1088 59.9209 0.0000 0.0000 0.0000
# 2 30.1088 118.3874 21.1832 0.0000 0.0000 0.0000
# 3 59.9209 21.1832 163.4006 0.0000 0.0000 0.0000
# 4 0.0000 0.0000 0.0000 -2.2686 0.0000 0.0000
# 5 0.0000 0.0000 0.0000 0.0000 89.6017 0.0000
# 6 0.0000 0.0000 0.0000 0.0000 0.0000 24.1570
#
#
#
# Elastic Compliance Matrix: (Units=1/GPa)
#
#
# Indices 1 2 3 4 5 6 
#
# 1 0.014730 -0.002846 -0.005033 0.000000 0.000000 0.000000
# 2 -0.002846 0.009197 -0.000149 0.000000 0.000000 0.000000
# 3 -0.005033 -0.000149 0.007985 0.000000 0.000000 0.000000
# 4 0.000000 0.000000 0.000000 -0.440792 0.000000 0.000000
# 5 0.000000 0.000000 0.000000 0.000000 0.011161 0.000000
# 6 0.000000 0.000000 0.000000 0.000000 0.000000 0.041396
#
#
# Mechanical properties :
#
#
# Convention : Reuss Voigt Hill
#
# Bulk Modulus (GPa) = 63.06139 66.48800 64.77470
# Shear Modulus (GPa) = -14.92611 39.94823 12.51106
#
# Velocity S-wave (km/s) = -2.54623 4.16556 2.33116
# Velocity P-wave (km/s) = 4.32977 7.21218 5.94821
#
# Compressibility (1/GPa) = 0.01585756
#
# Stress axis : x y z
#
# Youngs Moduli (GPa) = 67.88863 108.72886 125.23821
#
# Poissons Ratio (x) = 0.30941 0.63029
# Poissons Ratio (y) = 0.19319 0.01863
# Poissons Ratio (z) = 0.34167 0.01618
#
# Static dielectric constant tensor:
#      x y z
#    x 1.949700 0.000000 0.000000 
#    y 0.000000 1.897470 0.000000 
#    z 0.000000 0.000000 1.904370 
# 
# From -- ./inp_files/7903.got.cif
#   From: 2010.05.17/outbox.cif.g08.bks.cpg/sg45_4_cif.got.tgz:7903.got - 2010.06.03 19:51:22.
