data_PCOD9377354
_publ_section_title
;
Structure prediction by ZEFSAII (Michael W. Deem and Ramdas Pophale) SiO2 
 PCOD9377354
Probable space group: I B A 2
;
_chemical_formula_sum "Si O2"
_cell_formula_units_Z 48
_cell_length_a 8.428779
_cell_length_b 13.938931
_cell_length_c 17.896239
_cell_angle_alpha 90.000000
_cell_angle_beta 90.000000
_cell_angle_gamma 90.000000
_cell_volume 2102.596350
_symmetry_space_group_name_H-M "I B A 2"
_symmetry_group_IT_number 45
_symmetry_cell_setting 'orthorhombic'
loop_
_space_group_symop_operation_xyz
x,y,z
-x,-y,z
-x,y,1/2+z
x,-y,1/2+z
1/2+x,1/2+y,1/2+z
1/2-x,1/2-y,1/2+z
1/2-x,1/2+y,z
1/2+x,1/2-y,z
loop_
_atom_site_type_symbol
_atom_site_label
_atom_site_fract_x
_atom_site_fract_y
_atom_site_fract_z
Si Si1 0.337595 0.060623 0.712060
Si Si2 0.502865 0.216495 0.109793
Si Si3 0.850843 0.699982 0.948619
Si Si4 0.845978 0.630967 0.374275
Si Si5 0.675061 0.398313 0.127103
Si Si6 0.172451 0.012172 0.470663
O O1 0.380476 0.139220 0.649143
O O2 0.302510 0.114252 0.788758
O O3 0.500000 0.000000 0.723522
O O4 0.209729 0.981381 0.686871
O O5 0.532195 0.323900 0.140656
O O6 0.329169 0.171379 0.120613
O O7 0.547647 0.222320 0.022605
O O8 0.762750 0.789306 0.913098
O O9 0.722377 0.621957 0.975048
O O10 0.972580 0.660068 0.886990
O O11 0.807049 0.536311 0.420938
O O12 0.663643 0.455660 0.048986
O O13 0.000000 0.000000 0.434477
#
# Coordination Sequence:
#
# PCOD9377354 Si02
#       6
#     8   8   8   8   8   8
#     4  10  24  45  69 103 145 192 235 293 367 422
#     4  11  22  41  71 101 135 189 234 294 351 425
#     4  12  23  43  71 105 139 188 241 294 357 428
#     4  12  26  45  72 104 146 186 237 300 363 426
#     4  11  24  43  72 103 140 181 242 289 355 422
#     4  12  25  41  69 104 142 188 245 292 353 429
#
# _framework density 22.828918000000002
#
# number of rings (size 3 to 8) (size 9 to 14) (size 15 to 20)
#    0.000    0.667    5.000    2.500    2.333    4.000 
#    0.000    2.500    0.000    2.000    0.000    0.000 
#    0.000    0.000    0.000    0.000    0.000    0.000 
#
# Total GULP energy -134396.931106 kJ/mol
# GULP energy per Si atom -5599.872129 kJ/mol
# Density = 2.277696 g / cm^3
# Si number density = 22.828918 Si / 1000 Ang^3
#
#
#
# Elastic Constant Matrix: (Units=GPa)
#
#
# Indices 1 2 3 4 5 6 
#
# 1 71.9409 35.0872 18.6382 0.0000 0.0000 0.0000
# 2 35.0872 129.7734 55.5595 0.0000 0.0000 0.0000
# 3 18.6382 55.5595 99.0261 0.0000 0.0000 0.0000
# 4 0.0000 0.0000 0.0000 -4.7330 0.0000 0.0000
# 5 0.0000 0.0000 0.0000 0.0000 -1.8829 0.0000
# 6 0.0000 0.0000 0.0000 0.0000 0.0000 39.7901
#
#
#
# Elastic Compliance Matrix: (Units=1/GPa)
#
#
# Indices 1 2 3 4 5 6 
#
# 1 0.016056 -0.004011 -0.000772 0.000000 0.000000 0.000000
# 2 -0.004011 0.011144 -0.005497 0.000000 0.000000 0.000000
# 3 -0.000772 -0.005497 0.013328 0.000000 0.000000 0.000000
# 4 0.000000 0.000000 0.000000 -0.211284 0.000000 0.000000
# 5 0.000000 0.000000 0.000000 0.000000 -0.531083 0.000000
# 6 0.000000 0.000000 0.000000 0.000000 0.000000 0.025132
#
#
# Mechanical properties :
#
#
# Convention : Reuss Voigt Hill
#
# Bulk Modulus (GPa) = 50.07966 57.70113 53.89039
# Shear Modulus (GPa) = -7.69835 19.39854 5.85009
#
# Velocity S-wave (km/s) = -1.83834 2.91818 1.60254
# Velocity P-wave (km/s) = 4.18074 6.05679 5.20400
#
# Compressibility (1/GPa) = 0.01996819
#
# Stress axis : x y z
#
# Youngs Moduli (GPa) = 62.28048 89.73644 75.03017
#
# Poissons Ratio (x) = 0.35992 0.05790
# Poissons Ratio (y) = 0.24979 0.41247
# Poissons Ratio (z) = 0.04806 0.49332
#
# Static dielectric constant tensor:
#      x y z
#    x 1.869370 0.000000 0.000000 
#    y 0.000000 1.899200 0.000000 
#    z 0.000000 0.000000 1.813970 
# 
# From -- ./inp_files/7546.got.cif
#   From: 2010.05.17/outbox.cif.g08.bks.cpg/sg45_4_cif.got.tgz:7546.got - 2010.06.03 19:51:22.
