data_PCOD9377259
_publ_section_title
;
Structure prediction by ZEFSAII (Michael W. Deem and Ramdas Pophale) SiO2 
 PCOD9377259
Probable space group: I B A 2
;
_chemical_formula_sum "Si O2"
_cell_formula_units_Z 48
_cell_length_a 11.581569
_cell_length_b 16.215773
_cell_length_c 11.783586
_cell_angle_alpha 90.000000
_cell_angle_beta 90.000000
_cell_angle_gamma 90.000000
_cell_volume 2213.005691
_symmetry_space_group_name_H-M "I B A 2"
_symmetry_group_IT_number 45
_symmetry_cell_setting 'orthorhombic'
loop_
_space_group_symop_operation_xyz
x,y,z
-x,-y,z
-x,y,1/2+z
x,-y,1/2+z
1/2+x,1/2+y,1/2+z
1/2-x,1/2-y,1/2+z
1/2-x,1/2+y,z
1/2+x,1/2-y,z
loop_
_atom_site_type_symbol
_atom_site_label
_atom_site_fract_x
_atom_site_fract_y
_atom_site_fract_z
Si Si1 0.817875 0.093042 0.500000
Si Si2 0.238601 0.413419 0.060023
Si Si3 0.711692 0.683555 0.737434
Si Si4 0.333917 0.868045 0.288729
Si Si5 0.936217 0.664744 0.890996
Si Si6 0.557002 0.661495 0.945095
O O1 0.789834 0.139330 0.617263
O O2 0.748767 0.134615 0.397037
O O3 0.953036 0.101546 0.475297
O O4 0.779281 0.998915 0.506778
O O5 0.213028 0.427441 0.191885
O O6 0.126222 0.380755 0.994520
O O7 0.341831 0.347895 0.037939
O O8 0.669863 0.778079 0.730011
O O9 0.835993 0.682403 0.799076
O O10 0.620919 0.643299 0.826088
O O11 0.461798 0.886378 0.332062
O O12 0.998846 0.748280 0.934369
#
# Coordination Sequence:
#
# PCOD9377259 Si02
#       6
#     8   8   8   8   8   8
#     4  12  26  46  71 110 146 185 240 304 369 422
#     4  11  27  45  72 107 148 185 242 303 370 422
#     4  10  24  45  74 104 139 187 248 294 351 434
#     4  11  26  43  74 101 142 191 240 294 363 432
#     4  10  23  48  72 102 139 190 244 293 356 438
#     4  10  23  47  74 101 140 191 242 301 353 425
#
# _framework density 21.689958000000001
#
# number of rings (size 3 to 8) (size 9 to 14) (size 15 to 20)
#    0.000    1.333    1.667    1.500   14.000    0.667 
#    0.000    0.000    0.000    0.000    0.000    0.000 
#    0.000    0.000    0.000    0.000    0.000    0.000 
#
# Total GULP energy -134273.354142 kJ/mol
# GULP energy per Si atom -5594.723089 kJ/mol
# Density = 2.164059 g / cm^3
# Si number density = 21.689958 Si / 1000 Ang^3
#
#
#
# Elastic Constant Matrix: (Units=GPa)
#
#
# Indices 1 2 3 4 5 6 
#
# 1 144.0309 24.1766 69.8204 0.0000 0.0000 0.0000
# 2 24.1766 67.0043 40.5950 -0.0001 0.0000 0.0000
# 3 69.8204 40.5950 121.1784 -0.0003 0.0001 -0.0001
# 4 0.0000 -0.0001 -0.0003 24.3427 0.0000 0.0000
# 5 0.0000 0.0000 0.0001 0.0000 18.7834 0.0000
# 6 0.0000 0.0000 -0.0001 0.0000 0.0000 20.5942
#
#
#
# Elastic Compliance Matrix: (Units=1/GPa)
#
#
# Indices 1 2 3 4 5 6 
#
# 1 0.009635 -0.000142 -0.005504 0.000000 0.000000 0.000000
# 2 -0.000142 0.018727 -0.006192 0.000000 0.000000 0.000000
# 3 -0.005504 -0.006192 0.013498 0.000000 0.000000 0.000000
# 4 0.000000 0.000000 0.000000 0.041080 0.000000 0.000000
# 5 0.000000 0.000000 0.000000 0.000000 0.053239 0.000000
# 6 0.000000 0.000000 0.000000 0.000000 0.000000 0.048557
#
#
# Mechanical properties :
#
#
# Convention : Reuss Voigt Hill
#
# Bulk Modulus (GPa) = 54.99210 66.82196 60.90703
# Shear Modulus (GPa) = 23.31305 25.91882 24.61594
#
# Velocity S-wave (km/s) = 3.28202 3.46058 3.37248
# Velocity P-wave (km/s) = 6.30642 6.84413 6.58077
#
# Compressibility (1/GPa) = 0.01818443
#
# Stress axis : x y z
#
# Youngs Moduli (GPa) = 103.79031 53.39891 74.08639
#
# Poissons Ratio (x) = 0.00758 0.40776
# Poissons Ratio (y) = 0.01473 0.45873
# Poissons Ratio (z) = 0.57124 0.33064
#
# Static dielectric constant tensor:
#      x y z
#    x 1.766200 0.000000 0.000000 
#    y 0.000000 1.812880 0.000000 
#    z 0.000000 0.000000 1.788350 
# 
# From -- ./inp_files/3670.got.cif
#   From: 2010.05.17/outbox.cif.g08.bks.cpg/sg45_2_cif.got.tgz:3670.got - 2010.06.03 19:51:22.
