data_PCOD9377264
_publ_section_title
;
Structure prediction by ZEFSAII (Michael W. Deem and Ramdas Pophale) SiO2 
 PCOD9377264
Probable space group: I B A 2
;
_chemical_formula_sum "Si O2"
_cell_formula_units_Z 52
_cell_length_a 11.473656
_cell_length_b 8.604461
_cell_length_c 24.381528
_cell_angle_alpha 90.000000
_cell_angle_beta 90.000000
_cell_angle_gamma 90.000000
_cell_volume 2407.057223
_symmetry_space_group_name_H-M "I B A 2"
_symmetry_group_IT_number 45
_symmetry_cell_setting 'orthorhombic'
loop_
_space_group_symop_operation_xyz
x,y,z
-x,-y,z
-x,y,1/2+z
x,-y,1/2+z
1/2+x,1/2+y,1/2+z
1/2-x,1/2-y,1/2+z
1/2-x,1/2+y,z
1/2+x,1/2-y,z
loop_
_atom_site_type_symbol
_atom_site_label
_atom_site_fract_x
_atom_site_fract_y
_atom_site_fract_z
Si Si1 0.332793 0.844614 0.241510
Si Si2 0.500000 0.000000 0.154458
Si Si3 0.433325 0.841538 0.934209
Si Si4 0.865222 0.027534 0.694097
Si Si5 0.232073 0.145501 0.515887
Si Si6 0.000000 0.000000 0.479209
Si Si7 0.197031 0.414981 0.592006
Si Si8 0.500000 0.000000 0.828561
O O1 0.408234 0.912221 0.191503
O O2 0.350355 0.662133 0.239334
O O3 0.395009 0.926370 0.293071
O O4 0.201289 0.884143 0.223179
O O5 0.575282 0.877956 0.120433
O O6 0.479317 0.667628 0.948792
O O7 0.445398 0.870831 0.869342
O O8 0.500000 0.000000 0.956048
O O9 0.304802 0.852414 0.960199
O O10 0.796741 0.080572 0.638617
O O11 0.000000 0.000000 0.682541
O O12 0.202582 0.315156 0.537001
O O13 0.309228 0.087084 0.567043
O O14 0.117006 0.039866 0.512623
#
# Coordination Sequence:
#
# PCOD9377264 Si02
#       8
#     8   4   8   8   8   4   8   4
#     4  10  23  48  69 103 140 189 239 310 370 440
#     4   9  22  37  70  94 144 179 240 285 356 434
#     4  10  25  50  71 102 143 191 253 321 363 443
#     4  11  26  44  71 107 151 187 243 303 369 458
#     4  12  25  43  66 102 145 191 250 298 358 448
#     4  12  26  46  72 102 148 196 248 312 380 432
#     4  11  24  39  67 102 141 198 233 293 365 437
#     4   9  24  51  80  94 142 195 244 323 388 422
#
# _framework density 21.603142999999999
#
# number of rings (size 3 to 8) (size 9 to 14) (size 15 to 20)
#    0.462    0.923    1.538    2.769   12.923    0.000 
#    6.923    0.000    0.000    0.000    0.000    0.000 
#    0.000    0.000    0.000    0.000    0.000    0.000 
#
# Total GULP energy -144856.331994 kJ/mol
# GULP energy per Si atom -5571.397384 kJ/mol
# Density = 2.155397 g / cm^3
# Si number density = 21.603143 Si / 1000 Ang^3
#
#
#
# Elastic Constant Matrix: (Units=GPa)
#
#
# Indices 1 2 3 4 5 6 
#
# 1 139.7552 25.6651 54.3444 0.0000 0.0000 0.0000
# 2 25.6651 83.8158 16.6955 0.0000 0.0000 0.0000
# 3 54.3444 16.6955 99.8053 0.0000 0.0000 0.0000
# 4 0.0000 0.0000 0.0000 18.5473 0.0000 0.0000
# 5 0.0000 0.0000 0.0000 0.0000 12.4637 0.0000
# 6 0.0000 0.0000 0.0000 0.0000 0.0000 25.8306
#
#
#
# Elastic Compliance Matrix: (Units=1/GPa)
#
#
# Indices 1 2 3 4 5 6 
#
# 1 0.009366 -0.001916 -0.004779 0.000000 0.000000 0.000000
# 2 -0.001916 0.012734 -0.001087 0.000000 0.000000 0.000000
# 3 -0.004779 -0.001087 0.012804 0.000000 0.000000 0.000000
# 4 0.000000 0.000000 0.000000 0.053916 0.000000 0.000000
# 5 0.000000 0.000000 0.000000 0.000000 0.080233 0.000000
# 6 0.000000 0.000000 0.000000 0.000000 0.000000 0.038714
#
#
# Mechanical properties :
#
#
# Convention : Reuss Voigt Hill
#
# Bulk Modulus (GPa) = 51.70801 57.42073 54.56437
# Shear Modulus (GPa) = 21.76025 26.47973 24.11999
#
# Velocity S-wave (km/s) = 3.17720 3.50485 3.34504
# Velocity P-wave (km/s) = 6.11938 6.55867 6.34283
#
# Compressibility (1/GPa) = 0.01933936
#
# Stress axis : x y z
#
# Youngs Moduli (GPa) = 106.77394 78.52934 78.10313
#
# Poissons Ratio (x) = 0.15045 0.37326
# Poissons Ratio (y) = 0.20456 0.08490
# Poissons Ratio (z) = 0.51028 0.08536
#
# Static dielectric constant tensor:
#      x y z
#    x 1.954420 0.000000 0.000000 
#    y 0.000000 1.850430 0.000000 
#    z 0.000000 0.000000 1.777160 
# 
# From -- ./inp_files/10016.got.cif
#   From: 2010.05.17/outbox.cif.g08.bks.cpg/sg45_6_cif.got.tgz:10016.got - 2010.06.03 19:51:22.
