data_PCOD9377924
_publ_section_title
;
Structure prediction by ZEFSAII (Michael W. Deem and Ramdas Pophale) SiO2 
 PCOD9377924
Probable space group: I M A 2
;
_chemical_formula_sum "Si O2"
_cell_formula_units_Z 64
_cell_length_a 18.672159
_cell_length_b 21.353832
_cell_length_c 9.299249
_cell_angle_alpha 90.000000
_cell_angle_beta 90.000000
_cell_angle_gamma 90.000000
_cell_volume 3707.816521
_symmetry_space_group_name_H-M "I M A 2"
_symmetry_group_IT_number 46
_symmetry_cell_setting 'orthorhombic'
loop_
_space_group_symop_operation_xyz
x,y,z
-x,-y,z
1/2-x,y,z
1/2+x,-y,z
1/2+x,1/2+y,1/2+z
1/2-x,1/2-y,1/2+z
-x,1/2+y,1/2+z
x,1/2-y,1/2+z
loop_
_atom_site_type_symbol
_atom_site_label
_atom_site_fract_x
_atom_site_fract_y
_atom_site_fract_z
Si Si1 0.831710 0.066091 0.010360
Si Si2 0.445735 0.784795 0.698580
Si Si3 0.598042 0.832276 0.178468
Si Si4 0.060916 0.861239 0.209373
Si Si5 0.574939 0.032631 0.445565
Si Si6 0.168986 0.042330 0.221841
Si Si7 0.047218 0.252420 0.438154
Si Si8 0.165243 0.897992 0.682176
O O1 0.750000 0.084139 0.046872
O O2 0.885388 0.110930 0.093729
O O3 0.843365 0.997219 0.076119
O O4 0.839539 0.072881 0.841157
O O5 0.422383 0.712527 0.727738
O O6 0.493806 0.781315 0.552933
O O7 0.498243 0.796761 0.835187
O O8 0.381278 0.833610 0.684203
O O9 0.520638 0.864992 0.155940
O O10 0.656420 0.885001 0.194999
O O11 0.585573 0.793378 0.325172
O O12 0.603267 0.787855 0.040203
O O13 0.064108 0.904370 0.350485
O O14 0.626256 0.054629 0.573541
O O15 0.500000 0.000000 0.488903
O O16 0.615078 0.984031 0.340803
O O17 0.250000 0.029779 0.269292
O O18 0.250000 0.888168 0.648222
#
# Coordination Sequence:
#
# PCOD9377924 Si02
#       8
#     8   8   8   8   8   8   8   8
#     4   9  20  36  51  74 112 145 180 228 267 319
#     4  10  18  33  53  78 112 143 180 223 277 318
#     4  10  17  34  55  79 105 136 174 224 277 322
#     4   9  18  34  56  80 105 142 193 225 262 328
#     4  11  21  37  56  83 111 147 193 235 269 326
#     4  10  21  38  59  77 103 145 185 224 274 332
#     4   8  18  32  54  79 108 133 176 232 266 326
#     4  11  22  36  51  79 121 151 182 232 285 331
#
# _framework density 17.260833000000002
#
# number of rings (size 3 to 8) (size 9 to 14) (size 15 to 20)
#    0.000    2.500    1.250    3.375    0.000    1.000 
#    4.500    3.750    0.000    0.000    0.000    0.000 
#    0.000    0.000    0.000    0.000    0.000    0.000 
#
# Total GULP energy -178245.187636 kJ/mol
# GULP energy per Si atom -5570.162114 kJ/mol
# Density = 1.722155 g / cm^3
# Si number density = 17.260833 Si / 1000 Ang^3
#
#
#
# Elastic Constant Matrix: (Units=GPa)
#
#
# Indices 1 2 3 4 5 6 
#
# 1 41.6839 28.2098 15.2860 0.0000 0.0000 0.0000
# 2 28.2098 77.6614 29.4829 0.0000 0.0000 0.0000
# 3 15.2860 29.4829 75.4479 0.0000 0.0000 0.0000
# 4 0.0000 0.0000 0.0000 14.2781 0.0000 0.0000
# 5 0.0000 0.0000 0.0000 0.0000 18.2615 0.0000
# 6 0.0000 0.0000 0.0000 0.0000 0.0000 175.9674
#
#
#
# Elastic Compliance Matrix: (Units=1/GPa)
#
#
# Indices 1 2 3 4 5 6 
#
# 1 0.032143 -0.010807 -0.002289 0.000000 0.000000 0.000000
# 2 -0.010807 0.018753 -0.005139 0.000000 0.000000 0.000000
# 3 -0.002289 -0.005139 0.015726 0.000000 0.000000 0.000000
# 4 0.000000 0.000000 0.000000 0.070037 0.000000 0.000000
# 5 0.000000 0.000000 0.000000 0.000000 0.054760 0.000000
# 6 0.000000 0.000000 0.000000 0.000000 0.000000 0.005683
#
#
# Mechanical properties :
#
#
# Convention : Reuss Voigt Hill
#
# Bulk Modulus (GPa) = 33.16457 37.86119 35.51288
# Shear Modulus (GPa) = 20.52365 49.82236 35.17301
#
# Velocity S-wave (km/s) = 3.45197 5.37839 4.51903
# Velocity P-wave (km/s) = 5.92821 7.78150 6.91720
#
# Compressibility (1/GPa) = 0.03015266
#
# Stress axis : x y z
#
# Youngs Moduli (GPa) = 31.11097 53.32615 63.58888
#
# Poissons Ratio (x) = 0.57627 0.14558
# Poissons Ratio (y) = 0.33620 0.32675
# Poissons Ratio (z) = 0.07123 0.27402
#
# Static dielectric constant tensor:
#      x y z
#    x 1.577230 0.000000 0.000000 
#    y 0.000000 1.602450 0.000000 
#    z 0.000000 0.000000 1.599290 
# 
# From -- ./inp_files/6921.got.cif
#   From: 2010.05.17/outbox.cif.g08.bks.cpg/sg46_4_cif.got.tgz:6921.got - 2010.06.03 19:58:25.
