data_PCOD9377586
_publ_section_title
;
Structure prediction by ZEFSAII (Michael W. Deem and Ramdas Pophale) SiO2 
 PCOD9377586
Probable space group: I B A 2
;
_chemical_formula_sum "Si O2"
_cell_formula_units_Z 64
_cell_length_a 32.713613
_cell_length_b 9.365611
_cell_length_c 10.607670
_cell_angle_alpha 90.000000
_cell_angle_beta 90.000000
_cell_angle_gamma 90.000000
_cell_volume 3250.009479
_symmetry_space_group_name_H-M "I B A 2"
_symmetry_group_IT_number 45
_symmetry_cell_setting 'orthorhombic'
loop_
_space_group_symop_operation_xyz
x,y,z
-x,-y,z
-x,y,1/2+z
x,-y,1/2+z
1/2+x,1/2+y,1/2+z
1/2-x,1/2-y,1/2+z
1/2-x,1/2+y,z
1/2+x,1/2-y,z
loop_
_atom_site_type_symbol
_atom_site_label
_atom_site_fract_x
_atom_site_fract_y
_atom_site_fract_z
Si Si1 0.774946 0.621466 0.849700
Si Si2 0.388499 0.788267 0.196044
Si Si3 0.025184 0.350528 0.504828
Si Si4 0.180811 0.500779 0.099173
Si Si5 0.359440 0.498662 0.593322
Si Si6 0.481176 0.158653 0.733063
Si Si7 0.616070 0.213140 0.492373
Si Si8 0.694599 0.447499 0.843256
O O1 0.795318 0.547564 0.725808
O O2 0.727929 0.573904 0.845221
O O3 0.783657 0.791317 0.843627
O O4 0.792873 0.560821 0.982340
O O5 0.386383 0.637151 0.128203
O O6 0.434153 0.850263 0.191461
O O7 0.378470 0.770494 0.343380
O O8 0.353627 0.886158 0.136442
O O9 0.017568 0.275012 0.371576
O O10 0.073772 0.371340 0.513770
O O11 0.000000 0.500000 0.503183
O O12 0.007876 0.269224 0.625358
O O13 0.155321 0.635096 0.048326
O O14 0.386525 0.634217 0.557535
O O15 0.331884 0.535697 0.715867
O O16 0.332024 0.462062 0.470563
O O17 0.500000 0.000000 0.748378
#
# Coordination Sequence:
#
# PCOD9377586 Si02
#       8
#     8   8   8   8   8   8   8   8
#     4  12  28  42  68  96 127 174 220 280 334 396
#     4  11  23  41  69  98 136 174 217 275 328 389
#     4   9  18  36  60  95 128 162 203 257 316 376
#     4  12  23  42  65 100 128 168 226 268 333 402
#     4  12  25  46  67  94 136 176 224 274 333 394
#     4   9  18  36  60  95 128 162 203 257 316 376
#     4  11  23  41  69  98 136 174 217 275 328 389
#     4  12  28  46  66  96 133 175 224 277 337 399
#
# _framework density 19.692250000000001
#
# number of rings (size 3 to 8) (size 9 to 14) (size 15 to 20)
#    0.000    1.000    5.000    2.250    3.500    2.000 
#    4.500    0.625    0.000    3.000    0.000    0.000 
#    0.000    0.000    0.000    0.000    0.000    0.000 
#
# Total GULP energy -178608.739169 kJ/mol
# GULP energy per Si atom -5581.523099 kJ/mol
# Density = 1.964743 g / cm^3
# Si number density = 19.692250 Si / 1000 Ang^3
#
#
#
# Elastic Constant Matrix: (Units=GPa)
#
#
# Indices 1 2 3 4 5 6 
#
# 1 53.5297 4.7776 15.4122 0.0000 0.0000 0.0000
# 2 4.7776 78.5182 -1.1492 0.0000 0.0000 0.0000
# 3 15.4122 -1.1492 130.2368 0.0000 0.0000 0.0000
# 4 0.0000 0.0000 0.0000 26.1224 0.0000 0.0000
# 5 0.0000 0.0000 0.0000 0.0000 32.4903 0.0000
# 6 0.0000 0.0000 0.0000 0.0000 0.0000 17.8723
#
#
#
# Elastic Compliance Matrix: (Units=1/GPa)
#
#
# Indices 1 2 3 4 5 6 
#
# 1 0.019456 -0.001218 -0.002313 0.000000 0.000000 0.000000
# 2 -0.001218 0.012814 0.000257 0.000000 0.000000 0.000000
# 3 -0.002313 0.000257 0.007954 0.000000 0.000000 0.000000
# 4 0.000000 0.000000 0.000000 0.038281 0.000000 0.000000
# 5 0.000000 0.000000 0.000000 0.000000 0.030778 0.000000
# 6 0.000000 0.000000 0.000000 0.000000 0.000000 0.055953
#
#
# Mechanical properties :
#
#
# Convention : Reuss Voigt Hill
#
# Bulk Modulus (GPa) = 29.69415 33.37397 31.53406
# Shear Modulus (GPa) = 27.32102 31.51327 29.41715
#
# Velocity S-wave (km/s) = 3.72882 4.00470 3.86922
# Velocity P-wave (km/s) = 5.80092 6.19420 6.00078
#
# Compressibility (1/GPa) = 0.03367666
#
# Stress axis : x y z
#
# Youngs Moduli (GPa) = 51.39830 78.04113 125.71775
#
# Poissons Ratio (x) = 0.09503 0.29080
# Poissons Ratio (y) = 0.06259 -0.03233
# Poissons Ratio (z) = 0.11889 -0.02007
#
# Static dielectric constant tensor:
#      x y z
#    x 1.703380 0.000000 0.000000 
#    y 0.000000 1.694300 0.000000 
#    z 0.000000 0.000000 1.747620 
# 
# From -- ./inp_files/4957.got.cif
#   From: 2010.05.17/outbox.cif.g08.bks.cpg/sg45_3_cif.got.tgz:4957.got - 2010.06.03 19:51:22.
