data_PCOD9377547
_publ_section_title
;
Structure prediction by ZEFSAII (Michael W. Deem and Ramdas Pophale) SiO2 
 PCOD9377547
Probable space group: I B A 2
;
_chemical_formula_sum "Si O2"
_cell_formula_units_Z 32
_cell_length_a 19.296030
_cell_length_b 5.201758
_cell_length_c 13.363258
_cell_angle_alpha 90.000000
_cell_angle_beta 90.000000
_cell_angle_gamma 90.000000
_cell_volume 1341.314016
_symmetry_space_group_name_H-M "I B A 2"
_symmetry_group_IT_number 45
_symmetry_cell_setting 'orthorhombic'
loop_
_space_group_symop_operation_xyz
x,y,z
-x,-y,z
-x,y,1/2+z
x,-y,1/2+z
1/2+x,1/2+y,1/2+z
1/2-x,1/2-y,1/2+z
1/2-x,1/2+y,z
1/2+x,1/2-y,z
loop_
_atom_site_type_symbol
_atom_site_label
_atom_site_fract_x
_atom_site_fract_y
_atom_site_fract_z
Si Si1 0.867544 0.829567 0.772170
Si Si2 0.208396 0.109588 0.587340
Si Si3 0.932009 0.341249 0.693943
Si Si4 0.078619 0.092999 0.987952
O O1 0.801400 0.916821 0.707708
O O2 0.875056 0.539461 0.731761
O O3 0.880645 0.818792 0.889711
O O4 0.921778 0.057060 0.738845
O O5 0.251585 0.354650 0.555597
O O6 0.131239 0.110612 0.539710
O O7 0.929681 0.303921 0.575013
O O8 0.000000 0.500000 0.724025
O O9 0.000000 0.000000 0.966315
#
# Coordination Sequence:
#
# PCOD9377547 Si02
#       4
#     8   8   8   8
#     4  11  25  43  69 101 141 189 236 287 353 425
#     4  11  25  47  71 100 142 189 235 287 348 423
#     4  11  22  41  64  99 144 181 226 288 351 420
#     4  11  25  45  75 110 143 185 239 300 363 422
#
# _framework density 23.857202000000001
#
# number of rings (size 3 to 8) (size 9 to 14) (size 15 to 20)
#    0.000    1.000    0.000    8.250    0.000   12.000 
#    0.000    0.000    0.000    0.000    0.000    0.000 
#    0.000    0.000    0.000    0.000    0.000    0.000 
#
# Total GULP energy -89278.968114 kJ/mol
# GULP energy per Si atom -5579.935507 kJ/mol
# Density = 2.380290 g / cm^3
# Si number density = 23.857202 Si / 1000 Ang^3
#
#
#
# Elastic Constant Matrix: (Units=GPa)
#
#
# Indices 1 2 3 4 5 6 
#
# 1 96.3167 13.6560 -10.4802 0.0000 0.0000 0.0000
# 2 13.6560 103.9312 5.2772 0.0000 0.0000 0.0000
# 3 -10.4802 5.2772 104.6786 0.0000 0.0000 0.0000
# 4 0.0000 0.0000 0.0000 25.9265 0.0000 0.0000
# 5 0.0000 0.0000 0.0000 0.0000 28.7712 0.0000
# 6 0.0000 0.0000 0.0000 0.0000 0.0000 34.8069
#
#
#
# Elastic Compliance Matrix: (Units=1/GPa)
#
#
# Indices 1 2 3 4 5 6 
#
# 1 0.010715 -0.001466 0.001147 0.000000 0.000000 0.000000
# 2 -0.001466 0.009847 -0.000643 0.000000 0.000000 0.000000
# 3 0.001147 -0.000643 0.009700 0.000000 0.000000 0.000000
# 4 0.000000 0.000000 0.000000 0.038571 0.000000 0.000000
# 5 0.000000 0.000000 0.000000 0.000000 0.034757 0.000000
# 6 0.000000 0.000000 0.000000 0.000000 0.000000 0.028730
#
#
# Mechanical properties :
#
#
# Convention : Reuss Voigt Hill
#
# Bulk Modulus (GPa) = 35.28943 35.75916 35.52429
# Shear Modulus (GPa) = 34.79694 37.66584 36.23139
#
# Velocity S-wave (km/s) = 3.82324 3.97773 3.90125
# Velocity P-wave (km/s) = 5.85778 6.00981 5.93428
#
# Compressibility (1/GPa) = 0.02833709
#
# Stress axis : x y z
#
# Youngs Moduli (GPa) = 93.32659 101.55331 103.08980
#
# Poissons Ratio (x) = 0.14889 -0.11821
# Poissons Ratio (y) = 0.13683 0.06631
# Poissons Ratio (z) = -0.10702 0.06532
#
# Static dielectric constant tensor:
#      x y z
#    x 2.036660 0.000000 0.000000 
#    y 0.000000 1.918980 0.000000 
#    z 0.000000 0.000000 1.950810 
# 
# From -- ./inp_files/4566.got.cif
#   From: 2010.05.17/outbox.cif.g08.bks.cpg/sg45_3_cif.got.tgz:4566.got - 2010.06.03 19:51:22.
