data_PCOD9377113
_publ_section_title
;
Structure prediction by ZEFSAII (Michael W. Deem and Ramdas Pophale) SiO2 
 PCOD9377113
Probable space group: I B A 2
;
_chemical_formula_sum "Si O2"
_cell_formula_units_Z 64
_cell_length_a 8.998223
_cell_length_b 21.376852
_cell_length_c 14.837478
_cell_angle_alpha 90.000000
_cell_angle_beta 90.000000
_cell_angle_gamma 90.000000
_cell_volume 2854.043515
_symmetry_space_group_name_H-M "I B A 2"
_symmetry_group_IT_number 45
_symmetry_cell_setting 'orthorhombic'
loop_
_space_group_symop_operation_xyz
x,y,z
-x,-y,z
-x,y,1/2+z
x,-y,1/2+z
1/2+x,1/2+y,1/2+z
1/2-x,1/2-y,1/2+z
1/2-x,1/2+y,z
1/2+x,1/2-y,z
loop_
_atom_site_type_symbol
_atom_site_label
_atom_site_fract_x
_atom_site_fract_y
_atom_site_fract_z
Si Si1 0.225903 0.642663 0.463800
Si Si2 0.328815 0.401694 0.574648
Si Si3 0.468501 0.161911 0.095342
Si Si4 0.837924 0.490524 0.209445
Si Si5 0.957319 0.376826 0.303424
Si Si6 0.001422 0.932107 0.400449
Si Si7 0.779497 0.125177 0.271359
Si Si8 0.416730 0.303671 0.110820
O O1 0.146374 0.661091 0.371010
O O2 0.342158 0.588798 0.437433
O O3 0.325094 0.691553 0.518002
O O4 0.095147 0.629130 0.535551
O O5 0.189486 0.357084 0.554026
O O6 0.272895 0.451006 0.648125
O O7 0.389847 0.435231 0.486185
O O8 0.459861 0.357788 0.611106
O O9 0.457946 0.140845 0.198828
O O10 0.489151 0.235959 0.105931
O O11 0.888957 0.447613 0.295811
O O12 0.762404 0.557071 0.228956
O O13 0.000000 0.500000 0.162921
O O14 0.128977 0.365875 0.329360
O O15 0.074576 0.882900 0.332139
O O16 0.000000 0.000000 0.355924
O O17 0.811266 0.177608 0.195394
#
# Coordination Sequence:
#
# PCOD9377113 Si02
#       8
#     8   8   8   8   8   8   8   8
#     4  11  24  47  67 103 140 176 238 293 348 424
#     4  10  24  40  68  99 134 183 230 281 358 414
#     4  11  23  48  70  98 136 190 238 294 343 422
#     4   9  21  40  68 102 140 184 231 280 348 432
#     4  10  22  44  73 100 135 188 234 283 357 427
#     4  11  26  41  67 108 144 179 226 300 361 424
#     4  11  23  43  67 103 139 185 229 285 355 424
#     4  11  25  43  70  97 141 178 238 298 348 402
#
# _framework density 22.424323999999999
#
# number of rings (size 3 to 8) (size 9 to 14) (size 15 to 20)
#    0.000    1.500    1.250    2.250    8.750    0.000 
#    9.000    1.875    0.000    0.000    0.000    0.000 
#    0.000    0.000    0.000    0.000    0.000    0.000 
#
# Total GULP energy -178563.111560 kJ/mol
# GULP energy per Si atom -5580.097236 kJ/mol
# Density = 2.237329 g / cm^3
# Si number density = 22.424324 Si / 1000 Ang^3
#
#
#
# Elastic Constant Matrix: (Units=GPa)
#
#
# Indices 1 2 3 4 5 6 
#
# 1 119.6896 27.3693 54.4655 0.0000 0.0000 0.0000
# 2 27.3693 49.0456 13.0252 0.0000 0.0000 0.0000
# 3 54.4655 13.0252 88.9029 0.0000 0.0000 0.0000
# 4 0.0000 0.0000 0.0000 12.5083 0.0000 0.0000
# 5 0.0000 0.0000 0.0000 0.0000 31.9281 0.0000
# 6 0.0000 0.0000 0.0000 0.0000 0.0000 26.1322
#
#
#
# Elastic Compliance Matrix: (Units=1/GPa)
#
#
# Indices 1 2 3 4 5 6 
#
# 1 0.012764 -0.005250 -0.007050 0.000000 0.000000 0.000000
# 2 -0.005250 0.023374 -0.000208 0.000000 0.000000 0.000000
# 3 -0.007050 -0.000208 0.015598 0.000000 0.000000 0.000000
# 4 0.000000 0.000000 0.000000 0.079947 0.000000 0.000000
# 5 0.000000 0.000000 0.000000 0.000000 0.031320 0.000000
# 6 0.000000 0.000000 0.000000 0.000000 0.000000 0.038267
#
#
# Mechanical properties :
#
#
# Convention : Reuss Voigt Hill
#
# Bulk Modulus (GPa) = 37.42695 49.70647 43.56671
# Shear Modulus (GPa) = 21.25901 24.96559 23.11230
#
# Velocity S-wave (km/s) = 3.08236 3.34027 3.21390
# Velocity P-wave (km/s) = 5.42167 6.09024 5.76565
#
# Compressibility (1/GPa) = 0.02671872
#
# Stress axis : x y z
#
# Youngs Moduli (GPa) = 78.34608 42.78197 64.11039
#
# Poissons Ratio (x) = 0.22462 0.45201
# Poissons Ratio (y) = 0.41134 0.01334
# Poissons Ratio (z) = 0.55237 0.00890
#
# Static dielectric constant tensor:
#      x y z
#    x 1.879740 0.000000 0.000000 
#    y 0.000000 1.853590 0.000000 
#    z 0.000000 0.000000 1.842540 
# 
# From -- ./inp_files/5837.got.cif
#   From: 2010.05.17/outbox.cif.g08.bks.cpg/sg45_3_cif.got.tgz:5837.got - 2010.06.03 19:51:22.
