data_PCOD9377330
_publ_section_title
;
Structure prediction by ZEFSAII (Michael W. Deem and Ramdas Pophale) SiO2 
 PCOD9377330
Probable space group: I B A 2
;
_chemical_formula_sum "Si O2"
_cell_formula_units_Z 48
_cell_length_a 11.678141
_cell_length_b 21.097130
_cell_length_c 8.713630
_cell_angle_alpha 90.000000
_cell_angle_beta 90.000000
_cell_angle_gamma 90.000000
_cell_volume 2146.822847
_symmetry_space_group_name_H-M "I B A 2"
_symmetry_group_IT_number 45
_symmetry_cell_setting 'orthorhombic'
loop_
_space_group_symop_operation_xyz
x,y,z
-x,-y,z
-x,y,1/2+z
x,-y,1/2+z
1/2+x,1/2+y,1/2+z
1/2-x,1/2-y,1/2+z
1/2-x,1/2+y,z
1/2+x,1/2-y,z
loop_
_atom_site_type_symbol
_atom_site_label
_atom_site_fract_x
_atom_site_fract_y
_atom_site_fract_z
Si Si1 0.438569 0.150168 0.343750
Si Si2 0.728205 0.416415 0.481563
Si Si3 0.663992 0.140020 0.504468
Si Si4 0.878668 0.208547 0.442272
Si Si5 0.837073 0.957645 0.141208
Si Si6 0.534375 0.637843 0.149549
O O1 0.355634 0.108011 0.452069
O O2 0.569018 0.130965 0.375157
O O3 0.400456 0.144867 0.167355
O O4 0.416895 0.222576 0.391170
O O5 0.701099 0.471344 0.603390
O O6 0.690145 0.442751 0.317215
O O7 0.642661 0.361232 0.536010
O O8 0.743233 0.200303 0.465860
O O9 0.755546 0.084173 0.530672
O O10 0.920955 0.156835 0.316563
O O11 0.941684 0.189860 0.599156
O O12 0.965521 0.928718 0.127473
#
# Coordination Sequence:
#
# PCOD9377330 Si02
#       6
#     8   8   8   8   8   8
#     4  11  26  44  69 100 143 191 243 292 368 435
#     4  11  25  42  68 101 137 185 232 296 359 430
#     4  10  26  45  65 101 138 189 241 293 360 436
#     4  11  25  42  71 101 146 182 242 301 365 438
#     4  10  24  44  66 101 140 177 239 290 362 432
#     4  11  23  43  68 104 138 187 234 303 364 424
#
# _framework density 22.358620999999999
#
# number of rings (size 3 to 8) (size 9 to 14) (size 15 to 20)
#    0.000    1.333    1.667    1.500   11.667    2.000 
#    0.000    3.333    0.000    0.000    0.000    0.000 
#    0.000    0.000    0.000    0.000    0.000    0.000 
#
# Total GULP energy -134121.141300 kJ/mol
# GULP energy per Si atom -5588.380888 kJ/mol
# Density = 2.230773 g / cm^3
# Si number density = 22.358621 Si / 1000 Ang^3
#
#
#
# Elastic Constant Matrix: (Units=GPa)
#
#
# Indices 1 2 3 4 5 6 
#
# 1 104.1945 -0.0046 46.5023 -0.0002 0.0000 0.0000
# 2 -0.0046 54.5532 7.7984 -0.0006 0.0000 0.0001
# 3 46.5023 7.7984 79.1557 -0.0020 0.0001 0.0007
# 4 -0.0002 -0.0006 -0.0020 8.7033 0.0003 0.0000
# 5 0.0000 0.0000 0.0001 0.0003 39.6139 -0.0002
# 6 0.0000 0.0001 0.0007 0.0000 -0.0002 15.7598
#
#
#
# Elastic Compliance Matrix: (Units=1/GPa)
#
#
# Indices 1 2 3 4 5 6 
#
# 1 0.013075 0.001115 -0.007791 -0.000001 0.000000 0.000000
# 2 0.001115 0.018688 -0.002496 0.000001 0.000000 0.000000
# 3 -0.007791 -0.002496 0.017456 0.000004 0.000000 -0.000001
# 4 -0.000001 0.000001 0.000004 0.114899 -0.000001 0.000000
# 5 0.000000 0.000000 0.000000 -0.000001 0.025244 0.000000
# 6 0.000000 0.000000 -0.000001 0.000000 0.000000 0.063453
#
#
# Mechanical properties :
#
#
# Convention : Reuss Voigt Hill
#
# Bulk Modulus (GPa) = 32.38950 38.49954 35.44452
# Shear Modulus (GPa) = 17.76521 25.05589 21.41055
#
# Velocity S-wave (km/s) = 2.82185 3.35122 3.09786
# Velocity P-wave (km/s) = 5.01347 5.67721 5.35563
#
# Compressibility (1/GPa) = 0.03087421
#
# Stress axis : x y z
#
# Youngs Moduli (GPa) = 76.48429 53.51136 57.28621
#
# Poissons Ratio (x) = -0.05965 0.44631
# Poissons Ratio (y) = -0.08527 0.14299
# Poissons Ratio (z) = 0.59588 0.13357
#
# Static dielectric constant tensor:
#      x y z
#    x 1.830370 0.000000 0.000000 
#    y 0.000000 1.854800 0.000000 
#    z 0.000000 0.000000 1.799450 
# 
# From -- ./inp_files/1359.got.cif
#   From: 2010.05.17/outbox.cif.g08.bks.cpg/sg45_1_cif.got.tgz:1359.got - 2010.06.03 19:51:22.
