data_PCOD9377871
_publ_section_title
;
Structure prediction by ZEFSAII (Michael W. Deem and Ramdas Pophale) SiO2 
 PCOD9377871
Probable space group: I M A 2
;
_chemical_formula_sum "Si O2"
_cell_formula_units_Z 48
_cell_length_a 8.748586
_cell_length_b 14.142069
_cell_length_c 19.321375
_cell_angle_alpha 90.000000
_cell_angle_beta 90.000000
_cell_angle_gamma 90.000000
_cell_volume 2390.500544
_symmetry_space_group_name_H-M "I M A 2"
_symmetry_group_IT_number 46
_symmetry_cell_setting 'orthorhombic'
loop_
_space_group_symop_operation_xyz
x,y,z
-x,-y,z
1/2-x,y,z
1/2+x,-y,z
1/2+x,1/2+y,1/2+z
1/2-x,1/2-y,1/2+z
-x,1/2+y,1/2+z
x,1/2-y,1/2+z
loop_
_atom_site_type_symbol
_atom_site_label
_atom_site_fract_x
_atom_site_fract_y
_atom_site_fract_z
Si Si1 0.424870 0.745265 0.139780
Si Si2 0.067140 0.602056 0.745829
Si Si3 0.929614 0.901544 0.880318
Si Si4 0.924155 0.411667 0.529741
Si Si5 0.431678 0.796353 0.384762
Si Si6 0.436637 0.894600 0.528039
O O1 0.250000 0.721142 0.160710
O O2 0.494208 0.808103 0.201537
O O3 0.419689 0.821052 0.077381
O O4 0.490505 0.654103 0.100155
O O5 0.250000 0.598774 0.732712
O O6 0.041632 0.625022 0.826426
O O7 0.000000 0.500000 0.728756
O O8 0.750000 0.903915 0.870606
O O9 0.996733 0.801228 0.857192
O O10 0.000000 0.000000 0.852588
O O11 0.975363 0.898942 0.961591
O O12 0.750000 0.432852 0.508630
O O13 0.000000 0.500000 0.568336
O O14 0.250000 0.779433 0.390805
O O15 0.484135 0.833600 0.460055
O O16 0.250000 0.895089 0.528515
O O17 0.500000 0.000000 0.521676
#
# Coordination Sequence:
#
# PCOD9377871 Si02
#       6
#     8   8   8   8   8   8
#     4   9  18  34  54  77 111 148 181 224 279 333
#     4  10  21  37  59  85 114 151 187 228 281 337
#     4  11  21  33  53  81 112 144 185 231 279 329
#     4  10  17  29  49  75 109 143 177 219 273 324
#     4  10  20  37  58  81 114 151 185 229 283 335
#     4  10  20  36  56  79 109 144 186 234 282 331
#
# _framework density 20.079476
#
# number of rings (size 3 to 8) (size 9 to 14) (size 15 to 20)
#    0.000    2.000    1.667    4.000    0.000    1.333 
#    0.000    2.500    0.000    2.000    0.000    0.000 
#    0.000    0.000    0.000    0.000    0.000    0.000 
#
# Total GULP energy -133747.152613 kJ/mol
# GULP energy per Si atom -5572.798026 kJ/mol
# Density = 2.003377 g / cm^3
# Si number density = 20.079476 Si / 1000 Ang^3
#
#
#
# Elastic Constant Matrix: (Units=GPa)
#
#
# Indices 1 2 3 4 5 6 
#
# 1 21.4138 28.1436 18.9835 0.0000 0.0000 0.0000
# 2 28.1436 128.1767 31.6669 0.0000 0.0000 0.0000
# 3 18.9835 31.6669 65.0629 0.0000 0.0000 0.0000
# 4 0.0000 0.0000 0.0000 14.2214 0.0000 0.0000
# 5 0.0000 0.0000 0.0000 0.0000 7.0768 0.0000
# 6 0.0000 0.0000 0.0000 0.0000 0.0000 33.6053
#
#
#
# Elastic Compliance Matrix: (Units=1/GPa)
#
#
# Indices 1 2 3 4 5 6 
#
# 1 0.078704 -0.013194 -0.016542 0.000000 0.000000 0.000000
# 2 -0.013194 0.011080 -0.001543 0.000000 0.000000 0.000000
# 3 -0.016542 -0.001543 0.020947 0.000000 0.000000 0.000000
# 4 0.000000 0.000000 0.000000 0.070316 0.000000 0.000000
# 5 0.000000 0.000000 0.000000 0.000000 0.141308 0.000000
# 6 0.000000 0.000000 0.000000 0.000000 0.000000 0.029757
#
#
# Mechanical properties :
#
#
# Convention : Reuss Voigt Hill
#
# Bulk Modulus (GPa) = 20.75844 41.36013 31.05929
# Shear Modulus (GPa) = 11.60824 20.03799 15.82312
#
# Velocity S-wave (km/s) = 2.40701 3.16244 2.81022
# Velocity P-wave (km/s) = 4.25271 5.82903 5.10211
#
# Compressibility (1/GPa) = 0.04817318
#
# Stress axis : x y z
#
# Youngs Moduli (GPa) = 12.70581 90.25281 47.73908
#
# Poissons Ratio (x) = 1.19081 0.78969
# Poissons Ratio (y) = 0.16764 0.07367
# Poissons Ratio (z) = 0.21018 0.13927
#
# Static dielectric constant tensor:
#      x y z
#    x 1.721910 0.000000 0.000000 
#    y 0.000000 1.779730 0.000000 
#    z 0.000000 0.000000 1.741440 
# 
# From -- ./inp_files/20922.got.cif
#   From: 2010.05.17/outbox.cif.g08.bks.cpg/sg46_11_cif.got.tgz:20922.got - 2010.06.03 19:58:25.
