data_PCOD9377782
_publ_section_title
;
Structure prediction by ZEFSAII (Michael W. Deem and Ramdas Pophale) SiO2 
 PCOD9377782
Probable space group: I M A 2
;
_chemical_formula_sum "Si O2"
_cell_formula_units_Z 64
_cell_length_a 19.432456
_cell_length_b 20.885480
_cell_length_c 6.950271
_cell_angle_alpha 90.000000
_cell_angle_beta 90.000000
_cell_angle_gamma 90.000000
_cell_volume 2820.810376
_symmetry_space_group_name_H-M "I M A 2"
_symmetry_group_IT_number 46
_symmetry_cell_setting 'orthorhombic'
loop_
_space_group_symop_operation_xyz
x,y,z
-x,-y,z
1/2-x,y,z
1/2+x,-y,z
1/2+x,1/2+y,1/2+z
1/2-x,1/2-y,1/2+z
-x,1/2+y,1/2+z
x,1/2-y,1/2+z
loop_
_atom_site_type_symbol
_atom_site_label
_atom_site_fract_x
_atom_site_fract_y
_atom_site_fract_z
Si Si1 0.394699 0.306516 0.363950
Si Si2 0.324021 0.071049 0.885972
Si Si3 0.168754 0.920775 0.534066
Si Si4 0.457035 0.831738 0.973394
Si Si5 0.327013 0.443283 0.919211
Si Si6 0.074264 0.692192 0.027088
Si Si7 0.072955 0.967878 0.889453
Si Si8 0.424279 0.332316 0.919147
O O1 0.335814 0.354441 0.429789
O O2 0.461825 0.317555 0.496763
O O3 0.414209 0.329637 0.150486
O O4 0.383955 0.231043 0.351386
O O5 0.250000 0.047377 0.948393
O O6 0.325835 0.064065 0.653394
O O7 0.383486 0.026905 0.970762
O O8 0.250000 0.914990 0.584012
O O9 0.137089 0.853209 0.466042
O O10 0.120853 0.942623 0.713798
O O11 0.163152 0.980875 0.389209
O O12 0.444923 0.827569 0.743318
O O13 0.439868 0.905232 0.020436
O O14 0.415740 0.768861 0.040971
O O15 0.250000 0.423620 0.857068
O O16 0.387793 0.396893 0.851873
O O17 0.006688 0.676884 0.896852
O O18 0.000000 0.000000 0.827578
#
# Coordination Sequence:
#
# PCOD9377782 Si02
#       8
#     8   8   8   8   8   8   8   8
#     4   9  16  28  42  65  92 119 150 188 230 278
#     4   9  16  26  41  65  94 119 148 196 242 279
#     4   9  18  29  44  70  98 123 155 202 245 282
#     4   9  17  30  47  73  90 124 154 195 235 278
#     4   8  15  26  41  63  90 114 147 191 232 269
#     4   9  18  30  48  68  96 121 157 194 232 283
#     4  10  16  26  48  70  94 122 161 202 243 281
#     4   9  17  27  45  66  90 120 154 187 231 277
#
# _framework density 22.688514999999999
#
# number of rings (size 3 to 8) (size 9 to 14) (size 15 to 20)
#    0.000    3.000    1.250    1.125    5.250    0.500 
#    0.000    3.125    0.000    1.500    0.000    1.750 
#    0.000    0.000    0.000    0.000    0.000    0.000 
#
# Total GULP energy -178363.560004 kJ/mol
# GULP energy per Si atom -5573.861250 kJ/mol
# Density = 2.263688 g / cm^3
# Si number density = 22.688515 Si / 1000 Ang^3
#
#
#
# Elastic Constant Matrix: (Units=GPa)
#
#
# Indices 1 2 3 4 5 6 
#
# 1 131.5993 89.1686 2.2179 0.0000 0.0000 0.0000
# 2 89.1686 174.9542 -3.8347 0.0000 0.0000 0.0000
# 3 2.2179 -3.8347 54.9468 0.0000 0.0000 0.0000
# 4 0.0000 0.0000 0.0000 25.2520 0.0000 0.0000
# 5 0.0000 0.0000 0.0000 0.0000 -18.8710 0.0000
# 6 0.0000 0.0000 0.0000 0.0000 0.0000 33.3434
#
#
#
# Elastic Compliance Matrix: (Units=1/GPa)
#
#
# Indices 1 2 3 4 5 6 
#
# 1 0.011650 -0.005957 -0.000886 0.000000 0.000000 0.000000
# 2 -0.005957 0.008771 0.000853 0.000000 0.000000 0.000000
# 3 -0.000886 0.000853 0.018295 0.000000 0.000000 0.000000
# 4 0.000000 0.000000 0.000000 0.039601 0.000000 0.000000
# 5 0.000000 0.000000 0.000000 0.000000 -0.052991 0.000000
# 6 0.000000 0.000000 0.000000 0.000000 0.000000 0.029991
#
#
# Mechanical properties :
#
#
# Convention : Reuss Voigt Hill
#
# Bulk Modulus (GPa) = 37.40509 59.62264 48.51387
# Shear Modulus (GPa) = 65.60933 26.20810 45.90872
#
# Velocity S-wave (km/s) = 5.38333 3.40240 4.50314
# Velocity P-wave (km/s) = 7.42714 6.46304 6.96180
#
# Compressibility (1/GPa) = 0.02673433
#
# Stress axis : x y z
#
# Youngs Moduli (GPa) = 85.83552 114.01676 54.66068
#
# Poissons Ratio (x) = 0.67922 0.04843
# Poissons Ratio (y) = 0.51134 -0.04660
# Poissons Ratio (z) = 0.07605 -0.09721
#
# Static dielectric constant tensor:
#      x y z
#    x 1.863830 0.000000 0.000000 
#    y 0.000000 1.892030 0.000000 
#    z 0.000000 0.000000 1.957260 
# 
# From -- ./inp_files/12053.got.cif
#   From: 2010.05.17/outbox.cif.g08.bks.cpg/sg46_7_cif.got.tgz:12053.got - 2010.06.03 19:58:25.
