data_PCOD9377367
_publ_section_title
;
Structure prediction by ZEFSAII (Michael W. Deem and Ramdas Pophale) SiO2 
 PCOD9377367
Probable space group: I B A 2
;
_chemical_formula_sum "Si O2"
_cell_formula_units_Z 44
_cell_length_a 33.344275
_cell_length_b 7.172862
_cell_length_c 8.023216
_cell_angle_alpha 90.000000
_cell_angle_beta 90.000000
_cell_angle_gamma 90.000000
_cell_volume 1918.943725
_symmetry_space_group_name_H-M "I B A 2"
_symmetry_group_IT_number 45
_symmetry_cell_setting 'orthorhombic'
loop_
_space_group_symop_operation_xyz
x,y,z
-x,-y,z
-x,y,1/2+z
x,-y,1/2+z
1/2+x,1/2+y,1/2+z
1/2-x,1/2-y,1/2+z
1/2-x,1/2+y,z
1/2+x,1/2-y,z
loop_
_atom_site_type_symbol
_atom_site_label
_atom_site_fract_x
_atom_site_fract_y
_atom_site_fract_z
Si Si1 0.438577 0.132542 0.924250
Si Si2 0.372990 0.385387 0.053221
Si Si3 0.877553 0.709189 0.922109
Si Si4 0.208442 0.103705 0.363372
Si Si5 0.206839 0.283184 0.995854
Si Si6 0.500000 0.000000 0.168984
O O1 0.407262 0.297047 0.938158
O O2 0.467287 0.118908 0.767186
O O3 0.412719 0.940975 0.938531
O O4 0.471785 0.138391 0.067635
O O5 0.378126 0.609924 0.043773
O O6 0.329628 0.338150 0.974050
O O7 0.377877 0.294132 0.235195
O O8 0.834895 0.610564 0.966533
O O9 0.251117 0.123353 0.455078
O O10 0.203559 0.881386 0.358637
O O11 0.208195 0.200672 0.183339
#
# Coordination Sequence:
#
# PCOD9377367 Si02
#       6
#     8   8   8   8   8   4
#     4  11  24  46  72  96 138 174 218 276 344 391
#     4  11  24  42  68  99 134 178 224 271 333 401
#     4  11  24  42  68  99 134 178 224 271 333 401
#     4  11  23  40  62  92 132 171 222 271 319 388
#     4  11  23  40  62  92 132 171 222 271 319 388
#     4  10  24  46  70 102 132 168 224 282 326 418
#
# _framework density 22.929282000000001
#
# number of rings (size 3 to 8) (size 9 to 14) (size 15 to 20)
#    0.000    1.091    1.818    6.545    7.636    0.000 
#    0.000    5.455    0.000    0.000    0.000    0.000 
#    0.000    0.000    0.000    0.000    0.000    0.000 
#
# Total GULP energy -122950.464669 kJ/mol
# GULP energy per Si atom -5588.657485 kJ/mol
# Density = 2.287709 g / cm^3
# Si number density = 22.929282 Si / 1000 Ang^3
#
#
#
# Elastic Constant Matrix: (Units=GPa)
#
#
# Indices 1 2 3 4 5 6 
#
# 1 197.5943 45.2899 43.8271 0.0000 0.0000 0.0000
# 2 45.2899 64.6777 -5.1317 0.0000 0.0000 0.0000
# 3 43.8271 -5.1317 83.6838 0.0000 0.0000 0.0000
# 4 0.0000 0.0000 0.0000 3091.5660 0.0000 0.0000
# 5 0.0000 0.0000 0.0000 0.0000 47.4444 0.0000
# 6 0.0000 0.0000 0.0000 0.0000 0.0000 19.5009
#
#
#
# Elastic Compliance Matrix: (Units=1/GPa)
#
#
# Indices 1 2 3 4 5 6 
#
# 1 0.007201 -0.005367 -0.004100 0.000000 0.000000 0.000000
# 2 -0.005367 0.019538 0.004009 0.000000 0.000000 0.000000
# 3 -0.004100 0.004009 0.014343 0.000000 0.000000 0.000000
# 4 0.000000 0.000000 0.000000 0.000323 0.000000 0.000000
# 5 0.000000 0.000000 0.000000 0.000000 0.021077 0.000000
# 6 0.000000 0.000000 0.000000 0.000000 0.000000 0.051280
#
#
# Mechanical properties :
#
#
# Convention : Reuss Voigt Hill
#
# Bulk Modulus (GPa) = 33.15167 57.10295 45.12731
# Shear Modulus (GPa) = 37.11019 649.16694 343.13857
#
# Velocity S-wave (km/s) = 4.02738 16.84433 12.24646
# Velocity P-wave (km/s) = 6.00966 20.08150 14.82199
#
# Compressibility (1/GPa) = 0.03016439
#
# Stress axis : x y z
#
# Youngs Moduli (GPa) = 138.87757 51.18261 69.72040
#
# Poissons Ratio (x) = 0.27472 0.28587
# Poissons Ratio (y) = 0.74542 -0.27952
# Poissons Ratio (z) = 0.56943 -0.20520
#
# Static dielectric constant tensor:
#      x y z
#    x 1.870430 0.000000 0.000000 
#    y 0.000000 1.430720 0.000000 
#    z 0.000000 0.000000 1.934850 
# 
# From -- ./inp_files/1032.got.cif
#   From: 2010.05.17/outbox.cif.g08.bks.cpg/sg45_1_cif.got.tgz:1032.got - 2010.06.03 19:51:22.
