data_PCOD9377352
_publ_section_title
;
Structure prediction by ZEFSAII (Michael W. Deem and Ramdas Pophale) SiO2 
 PCOD9377352
Probable space group: I B A 2
;
_chemical_formula_sum "Si O2"
_cell_formula_units_Z 64
_cell_length_a 24.603102
_cell_length_b 9.280478
_cell_length_c 12.737545
_cell_angle_alpha 90.000000
_cell_angle_beta 90.000000
_cell_angle_gamma 90.000000
_cell_volume 2908.345140
_symmetry_space_group_name_H-M "I B A 2"
_symmetry_group_IT_number 45
_symmetry_cell_setting 'orthorhombic'
loop_
_space_group_symop_operation_xyz
x,y,z
-x,-y,z
-x,y,1/2+z
x,-y,1/2+z
1/2+x,1/2+y,1/2+z
1/2-x,1/2-y,1/2+z
1/2-x,1/2+y,z
1/2+x,1/2-y,z
loop_
_atom_site_type_symbol
_atom_site_label
_atom_site_fract_x
_atom_site_fract_y
_atom_site_fract_z
Si Si1 0.912040 0.227625 0.393480
Si Si2 0.212628 0.659800 0.063283
Si Si3 0.792525 0.328009 0.826360
Si Si4 0.625709 0.951501 0.220216
Si Si5 0.985040 0.161019 0.754696
Si Si6 0.540347 0.885634 0.586447
Si Si7 0.131087 0.939258 0.814911
Si Si8 0.207635 0.056015 0.665026
O O1 0.883500 0.333701 0.310180
O O2 0.919785 0.307451 0.504212
O O3 0.972181 0.202070 0.344996
O O4 0.881990 0.072028 0.393357
O O5 0.157762 0.613800 0.121552
O O6 0.213465 0.831451 0.071591
O O7 0.260739 0.586178 0.129153
O O8 0.215154 0.615010 0.943527
O O9 0.837250 0.422578 0.766938
O O10 0.818154 0.167508 0.834725
O O11 0.737883 0.359547 0.760768
O O12 0.571859 0.021665 0.173839
O O13 0.989365 0.263700 0.654507
O O14 0.923688 0.152453 0.799109
O O15 0.000000 0.000000 0.721003
O O16 0.500000 0.000000 0.531695
O O17 0.148088 0.016154 0.705308
#
# Coordination Sequence:
#
# PCOD9377352 Si02
#       8
#     8   8   8   8   8   8   8   8
#     4  11  25  44  69 101 138 185 231 283 351 412
#     4  11  25  42  69  98 132 181 224 283 354 406
#     4  11  25  44  70  99 135 180 232 289 352 418
#     4  11  23  46  66 101 138 173 237 286 338 417
#     4  10  24  45  67  99 140 178 231 287 340 412
#     4  12  25  41  72 101 138 188 228 291 349 414
#     4  11  23  47  70  96 142 179 223 297 340 411
#     4  11  24  45  65 100 140 174 232 288 343 417
#
# _framework density 22.00564
#
# number of rings (size 3 to 8) (size 9 to 14) (size 15 to 20)
#    0.000    1.000    5.000    0.750    3.500    3.500 
#    4.500    0.000    0.000    0.000    0.000    0.000 
#    0.000    0.000    0.000    0.000    0.000    0.000 
#
# Total GULP energy -178819.546980 kJ/mol
# GULP energy per Si atom -5588.110843 kJ/mol
# Density = 2.195555 g / cm^3
# Si number density = 22.005640 Si / 1000 Ang^3
#
#
#
# Elastic Constant Matrix: (Units=GPa)
#
#
# Indices 1 2 3 4 5 6 
#
# 1 37.9041 -5.9378 -6.6865 0.0000 0.0000 0.0000
# 2 -5.9378 80.2253 11.4338 0.0000 0.0000 0.0000
# 3 -6.6865 11.4338 79.0878 0.0000 0.0000 0.0000
# 4 0.0000 0.0000 0.0000 26.3005 0.0000 0.0000
# 5 0.0000 0.0000 0.0000 0.0000 14.9150 0.0000
# 6 0.0000 0.0000 0.0000 0.0000 0.0000 19.7999
#
#
#
# Elastic Compliance Matrix: (Units=1/GPa)
#
#
# Indices 1 2 3 4 5 6 
#
# 1 0.027009 0.001709 0.002036 0.000000 0.000000 0.000000
# 2 0.001709 0.012835 -0.001711 0.000000 0.000000 0.000000
# 3 0.002036 -0.001711 0.013064 0.000000 0.000000 0.000000
# 4 0.000000 0.000000 0.000000 0.038022 0.000000 0.000000
# 5 0.000000 0.000000 0.000000 0.000000 0.067047 0.000000
# 6 0.000000 0.000000 0.000000 0.000000 0.000000 0.050505
#
#
# Mechanical properties :
#
#
# Convention : Reuss Voigt Hill
#
# Bulk Modulus (GPa) = 17.55105 21.64846 19.59976
# Shear Modulus (GPa) = 22.38076 25.43026 23.90551
#
# Velocity S-wave (km/s) = 3.19258 3.40314 3.29954
# Velocity P-wave (km/s) = 4.64576 5.02999 4.84169
#
# Compressibility (1/GPa) = 0.05697663
#
# Stress axis : x y z
#
# Youngs Moduli (GPa) = 37.02428 77.91041 76.54784
#
# Poissons Ratio (x) = -0.13314 -0.15589
# Poissons Ratio (y) = -0.06327 0.13098
# Poissons Ratio (z) = -0.07540 0.13332
#
# Static dielectric constant tensor:
#      x y z
#    x 1.816250 0.000000 0.000000 
#    y 0.000000 1.901230 0.000000 
#    z 0.000000 0.000000 1.758510 
# 
# From -- ./inp_files/3426.got.cif
#   From: 2010.05.17/outbox.cif.g08.bks.cpg/sg45_2_cif.got.tgz:3426.got - 2010.06.03 19:51:22.
