data_PCOD9377208
_publ_section_title
;
Structure prediction by ZEFSAII (Michael W. Deem and Ramdas Pophale) SiO2 
 PCOD9377208
Probable space group: I B A 2
;
_chemical_formula_sum "Si O2"
_cell_formula_units_Z 36
_cell_length_a 19.296285
_cell_length_b 8.790641
_cell_length_c 7.945316
_cell_angle_alpha 90.000000
_cell_angle_beta 90.000000
_cell_angle_gamma 90.000000
_cell_volume 1347.737845
_symmetry_space_group_name_H-M "I B A 2"
_symmetry_group_IT_number 45
_symmetry_cell_setting 'orthorhombic'
loop_
_space_group_symop_operation_xyz
x,y,z
-x,-y,z
-x,y,1/2+z
x,-y,1/2+z
1/2+x,1/2+y,1/2+z
1/2-x,1/2-y,1/2+z
1/2-x,1/2+y,z
1/2+x,1/2-y,z
loop_
_atom_site_type_symbol
_atom_site_label
_atom_site_fract_x
_atom_site_fract_y
_atom_site_fract_z
Si Si1 0.869794 0.196990 0.487420
Si Si2 0.635160 0.032255 0.222060
Si Si3 0.386416 0.251428 0.023896
Si Si4 0.293515 0.455897 0.807894
Si Si5 0.000000 0.000000 0.499653
O O1 0.868027 0.369702 0.548331
O O2 0.835720 0.117239 0.654377
O O3 0.821536 0.124655 0.346088
O O4 0.945026 0.129769 0.442696
O O5 0.600645 0.143212 0.359469
O O6 0.714164 0.988032 0.267798
O O7 0.606235 0.867760 0.174968
O O8 0.315549 0.340509 0.961706
O O9 0.441277 0.382972 0.059552
#
# Coordination Sequence:
#
# PCOD9377208 Si02
#       5
#     8   8   8   8   4
#     4  10  24  43  72 101 143 190 231 293 348 431
#     4  11  24  43  72 111 139 183 243 297 354 414
#     4  10  25  46  74 103 147 189 233 299 351 431
#     4  10  23  43  67 104 145 183 226 291 370 419
#     4  10  24  50  70 100 140 194 238 276 370 422
#
# _framework density 26.711425999999999
#
# number of rings (size 3 to 8) (size 9 to 14) (size 15 to 20)
#    0.000    1.778    0.000    1.333    0.000   32.000 
#    0.000    4.444    0.000    1.333    0.000    0.000 
#    0.000    0.000    0.000    0.000    0.000    0.000 
#
# Total GULP energy -100353.088738 kJ/mol
# GULP energy per Si atom -5575.171597 kJ/mol
# Density = 2.665063 g / cm^3
# Si number density = 26.711426 Si / 1000 Ang^3
#
#
#
# Elastic Constant Matrix: (Units=GPa)
#
#
# Indices 1 2 3 4 5 6 
#
# 1 121.6754 38.7637 16.5723 0.0000 0.0000 0.0000
# 2 38.7637 222.6615 14.1584 0.0000 0.0000 0.0000
# 3 16.5723 14.1584 73.2532 0.0000 0.0000 0.0000
# 4 0.0000 0.0000 0.0000 -5.2410 0.0000 0.0000
# 5 0.0000 0.0000 0.0000 0.0000 -25.3739 0.0000
# 6 0.0000 0.0000 0.0000 0.0000 0.0000 18.8540
#
#
#
# Elastic Compliance Matrix: (Units=1/GPa)
#
#
# Indices 1 2 3 4 5 6 
#
# 1 0.008915 -0.001441 -0.001738 0.000000 0.000000 0.000000
# 2 -0.001441 0.004780 -0.000598 0.000000 0.000000 0.000000
# 3 -0.001738 -0.000598 0.014160 0.000000 0.000000 0.000000
# 4 0.000000 0.000000 0.000000 -0.190803 0.000000 0.000000
# 5 0.000000 0.000000 0.000000 0.000000 -0.039410 0.000000
# 6 0.000000 0.000000 0.000000 0.000000 0.000000 0.053039
#
#
# Mechanical properties :
#
#
# Convention : Reuss Voigt Hill
#
# Bulk Modulus (GPa) = 49.26136 61.84210 55.55173
# Shear Modulus (GPa) = -37.03755 20.85419 -8.09168
#
# Velocity S-wave (km/s) = -3.72772 2.79717 -1.74238
# Velocity P-wave (km/s) = 0.21398 5.79952 4.09809
#
# Compressibility (1/GPa) = 0.02029989
#
# Stress axis : x y z
#
# Youngs Moduli (GPa) = 112.17628 209.20167 70.62124
#
# Poissons Ratio (x) = 0.30155 0.12275
# Poissons Ratio (y) = 0.16169 0.04222
# Poissons Ratio (z) = 0.19498 0.12506
#
# Static dielectric constant tensor:
#      x y z
#    x 2.034090 0.000000 0.000000 
#    y 0.000000 2.113490 0.000000 
#    z 0.000000 0.000000 2.380330 
# 
# From -- ./inp_files/2267.got.cif
#   From: 2010.05.17/outbox.cif.g08.bks.cpg/sg45_2_cif.got.tgz:2267.got - 2010.06.03 19:51:22.
