data_PCOD9377132
_publ_section_title
;
Structure prediction by ZEFSAII (Michael W. Deem and Ramdas Pophale) SiO2 
 PCOD9377132
Probable space group: I B A 2
;
_chemical_formula_sum "Si O2"
_cell_formula_units_Z 56
_cell_length_a 14.177230
_cell_length_b 13.997454
_cell_length_c 13.516066
_cell_angle_alpha 90.000000
_cell_angle_beta 90.000000
_cell_angle_gamma 90.000000
_cell_volume 2682.197404
_symmetry_space_group_name_H-M "I B A 2"
_symmetry_group_IT_number 45
_symmetry_cell_setting 'orthorhombic'
loop_
_space_group_symop_operation_xyz
x,y,z
-x,-y,z
-x,y,1/2+z
x,-y,1/2+z
1/2+x,1/2+y,1/2+z
1/2-x,1/2-y,1/2+z
1/2-x,1/2+y,z
1/2+x,1/2-y,z
loop_
_atom_site_type_symbol
_atom_site_label
_atom_site_fract_x
_atom_site_fract_y
_atom_site_fract_z
Si Si1 0.000074 0.323252 0.013500
Si Si2 0.812152 0.610507 0.611535
Si Si3 0.665600 0.768104 0.658114
Si Si4 0.200603 0.006280 0.453181
Si Si5 0.687240 0.041678 0.268849
Si Si6 0.394109 0.323291 0.867242
Si Si7 0.000000 0.500000 0.883883
Si Si8 0.000000 0.000000 0.913769
O O1 0.080087 0.275884 0.080546
O O2 0.918658 0.365636 0.083755
O O3 0.038533 0.413339 0.950934
O O4 0.946122 0.251387 0.939037
O O5 0.748407 0.704628 0.612186
O O6 0.770048 0.533468 0.534922
O O7 0.806022 0.560253 0.716851
O O8 0.696521 0.874185 0.690011
O O9 0.635870 0.721467 0.763650
O O10 0.233916 0.954094 0.353035
O O11 0.189423 0.119014 0.425975
O O12 0.092805 0.977328 0.477322
O O13 0.584539 0.043686 0.319641
O O14 0.467825 0.409848 0.849926
#
# Coordination Sequence:
#
# PCOD9377132 Si02
#       8
#     8   8   8   8   8   8   4   4
#     4  12  26  44  72 106 139 188 238 290 360 423
#     4  12  25  45  72 106 135 190 236 296 355 422
#     4  12  26  45  71 107 142 179 246 290 353 429
#     4  10  22  46  69 101 139 180 231 288 360 406
#     4  12  25  46  68 100 143 186 240 290 348 424
#     4  10  22  47  66 102 136 181 227 290 358 420
#     4  12  24  48  70  96 152 188 236 304 346 412
#     4   8  20  40  72  92 136 178 218 286 356 416
#
# _framework density 20.878402999999999
#
# number of rings (size 3 to 8) (size 9 to 14) (size 15 to 20)
#    0.857    0.000    4.286    2.571    2.000    1.143 
#    5.143    0.714    0.000    0.000    0.000    0.000 
#    0.000    0.000    0.000    0.000    0.000    0.000 
#
# Total GULP energy -156307.103049 kJ/mol
# GULP energy per Si atom -5582.396537 kJ/mol
# Density = 2.083088 g / cm^3
# Si number density = 20.878403 Si / 1000 Ang^3
#
#
#
# Elastic Constant Matrix: (Units=GPa)
#
#
# Indices 1 2 3 4 5 6 
#
# 1 46.8510 11.2838 5.2269 0.0000 0.0000 0.0000
# 2 11.2838 96.2733 17.5116 0.0000 0.0000 0.0000
# 3 5.2269 17.5116 61.4671 0.0000 0.0000 0.0000
# 4 0.0000 0.0000 0.0000 52.0160 0.0000 0.0000
# 5 0.0000 0.0000 0.0000 0.0000 15.9048 0.0000
# 6 0.0000 0.0000 0.0000 0.0000 0.0000 40.2811
#
#
#
# Elastic Compliance Matrix: (Units=1/GPa)
#
#
# Indices 1 2 3 4 5 6 
#
# 1 0.022048 -0.002366 -0.001201 0.000000 0.000000 0.000000
# 2 -0.002366 0.011209 -0.002992 0.000000 0.000000 0.000000
# 3 -0.001201 -0.002992 0.017223 0.000000 0.000000 0.000000
# 4 0.000000 0.000000 0.000000 0.019225 0.000000 0.000000
# 5 0.000000 0.000000 0.000000 0.000000 0.062874 0.000000
# 6 0.000000 0.000000 0.000000 0.000000 0.000000 0.024826
#
#
# Mechanical properties :
#
#
# Convention : Reuss Voigt Hill
#
# Bulk Modulus (GPa) = 26.76470 30.29289 28.52880
# Shear Modulus (GPa) = 27.32597 33.01166 30.16881
#
# Velocity S-wave (km/s) = 3.62168 3.98067 3.80541
# Velocity P-wave (km/s) = 5.50780 5.97230 5.74475
#
# Compressibility (1/GPa) = 0.03736264
#
# Stress axis : x y z
#
# Youngs Moduli (GPa) = 45.35555 89.21707 58.06052
#
# Poissons Ratio (x) = 0.21106 0.06972
# Poissons Ratio (y) = 0.10730 0.17372
# Poissons Ratio (z) = 0.05447 0.26695
#
# Static dielectric constant tensor:
#      x y z
#    x 1.742540 0.000000 0.000000 
#    y 0.000000 1.766740 0.000000 
#    z 0.000000 0.000000 1.728070 
# 
# From -- ./inp_files/4190.got.cif
#   From: 2010.05.17/outbox.cif.g08.bks.cpg/sg45_3_cif.got.tgz:4190.got - 2010.06.03 19:51:22.
