data_PCOD9377878
_publ_section_title
;
Structure prediction by ZEFSAII (Michael W. Deem and Ramdas Pophale) SiO2 
 PCOD9377878
Probable space group: I M A 2
;
_chemical_formula_sum "Si O2"
_cell_formula_units_Z 48
_cell_length_a 15.239060
_cell_length_b 15.834885
_cell_length_c 8.889315
_cell_angle_alpha 90.000000
_cell_angle_beta 90.000000
_cell_angle_gamma 90.000000
_cell_volume 2145.069603
_symmetry_space_group_name_H-M "I M A 2"
_symmetry_group_IT_number 46
_symmetry_cell_setting 'orthorhombic'
loop_
_space_group_symop_operation_xyz
x,y,z
-x,-y,z
1/2-x,y,z
1/2+x,-y,z
1/2+x,1/2+y,1/2+z
1/2-x,1/2-y,1/2+z
-x,1/2+y,1/2+z
x,1/2-y,1/2+z
loop_
_atom_site_type_symbol
_atom_site_label
_atom_site_fract_x
_atom_site_fract_y
_atom_site_fract_z
Si Si1 0.986239 0.136983 0.290690
Si Si2 0.155164 0.146346 0.140193
Si Si3 0.848979 0.406328 0.000529
Si Si4 0.072247 0.734411 0.499101
Si Si5 0.529570 0.086194 0.782543
Si Si6 0.847059 0.834447 0.778497
O O1 0.912092 0.076468 0.358329
O O2 0.002162 0.203105 0.428576
O O3 0.072920 0.101095 0.215933
O O4 0.946135 0.197368 0.161790
O O5 0.250000 0.106819 0.170514
O O6 0.154147 0.239155 0.216459
O O7 0.146576 0.157924 0.960601
O O8 0.750000 0.437424 0.993540
O O9 0.903364 0.432867 0.147798
O O10 0.850003 0.302658 0.003337
O O11 0.074987 0.654039 0.390671
O O12 0.436999 0.123346 0.723454
O O13 0.500000 0.000000 0.862568
O O14 0.750000 0.870593 0.737234
#
# Coordination Sequence:
#
# PCOD9377878 Si02
#       6
#     8   8   8   8   8   8
#     4  10  17  33  59  86 119 148 211 273 307 366
#     4  10  17  29  57  89 117 147 194 251 303 368
#     4  10  22  40  64  90 120 170 232 276 312 377
#     4  10  18  35  63  87 123 159 219 268 318 378
#     4  12  24  39  61  95 134 174 201 268 344 396
#     4  10  20  34  56  89 119 154 197 245 305 377
#
# _framework density 22.376899000000002
#
# number of rings (size 3 to 8) (size 9 to 14) (size 15 to 20)
#    1.000    0.667    5.000    0.000    2.333    3.333 
#    0.000    0.833    0.000    0.000    0.000    0.000 
#    0.000    0.000    0.000    0.000    0.000    0.000 
#
# Total GULP energy -133682.755180 kJ/mol
# GULP energy per Si atom -5570.114799 kJ/mol
# Density = 2.232597 g / cm^3
# Si number density = 22.376899 Si / 1000 Ang^3
#
#
#
# Elastic Constant Matrix: (Units=GPa)
#
#
# Indices 1 2 3 4 5 6 
#
# 1 152.3614 -5.7295 32.5807 0.0000 0.0000 0.0000
# 2 -5.7295 59.0562 15.5881 0.0000 0.0000 0.0000
# 3 32.5807 15.5881 97.9907 0.0000 0.0000 0.0000
# 4 0.0000 0.0000 0.0000 8.9722 0.0000 0.0000
# 5 0.0000 0.0000 0.0000 0.0000 24.1138 0.0000
# 6 0.0000 0.0000 0.0000 0.0000 0.0000 -2.1372
#
#
#
# Elastic Compliance Matrix: (Units=1/GPa)
#
#
# Indices 1 2 3 4 5 6 
#
# 1 0.007172 0.001383 -0.002605 0.000000 0.000000 0.000000
# 2 0.001383 0.017942 -0.003314 0.000000 0.000000 0.000000
# 3 -0.002605 -0.003314 0.011598 0.000000 0.000000 0.000000
# 4 0.000000 0.000000 0.000000 0.111455 0.000000 0.000000
# 5 0.000000 0.000000 0.000000 0.000000 0.041470 0.000000
# 6 0.000000 0.000000 0.000000 0.000000 0.000000 -0.467892
#
#
# Mechanical properties :
#
#
# Convention : Reuss Voigt Hill
#
# Bulk Modulus (GPa) = 36.17730 43.80965 39.99348
# Shear Modulus (GPa) = -19.23304 23.98769 2.37732
#
# Velocity S-wave (km/s) = -2.93491 3.27767 1.03185
# Velocity P-wave (km/s) = 2.17196 5.82621 4.39671
#
# Compressibility (1/GPa) = 0.02764164
#
# Stress axis : x y z
#
# Youngs Moduli (GPa) = 139.42401 55.73510 86.21947
#
# Poissons Ratio (x) = -0.07710 0.22458
# Poissons Ratio (y) = -0.19288 0.28574
# Poissons Ratio (z) = 0.36317 0.18471
#
# Static dielectric constant tensor:
#      x y z
#    x 1.876930 0.000000 0.000000 
#    y 0.000000 1.849080 0.000000 
#    z 0.000000 0.000000 1.831740 
# 
# From -- ./inp_files/5686.got.cif
#   From: 2010.05.17/outbox.cif.g08.bks.cpg/sg46_3_cif.got.tgz:5686.got - 2010.06.03 19:58:25.
