data_PCOD9377395
_publ_section_title
;
Structure prediction by ZEFSAII (Michael W. Deem and Ramdas Pophale) SiO2 
 PCOD9377395
Probable space group: I B A 2
;
_chemical_formula_sum "Si O2"
_cell_formula_units_Z 48
_cell_length_a 9.766482
_cell_length_b 17.651548
_cell_length_c 13.385253
_cell_angle_alpha 90.000000
_cell_angle_beta 90.000000
_cell_angle_gamma 90.000000
_cell_volume 2307.530959
_symmetry_space_group_name_H-M "I B A 2"
_symmetry_group_IT_number 45
_symmetry_cell_setting 'orthorhombic'
loop_
_space_group_symop_operation_xyz
x,y,z
-x,-y,z
-x,y,1/2+z
x,-y,1/2+z
1/2+x,1/2+y,1/2+z
1/2-x,1/2-y,1/2+z
1/2-x,1/2+y,z
1/2+x,1/2-y,z
loop_
_atom_site_type_symbol
_atom_site_label
_atom_site_fract_x
_atom_site_fract_y
_atom_site_fract_z
Si Si1 0.211894 0.992991 0.956230
Si Si2 0.609399 0.396939 0.125950
Si Si3 0.000000 0.000000 0.780987
Si Si4 0.474594 0.760629 0.576183
Si Si5 0.130419 0.356078 0.755470
Si Si6 0.269878 0.820695 0.969051
Si Si7 0.000000 0.500000 0.364234
O O1 0.130046 0.999081 0.852688
O O2 0.212070 0.905074 0.988256
O O3 0.367805 0.015774 0.932793
O O4 0.138897 0.045761 0.036194
O O5 0.503235 0.429183 0.206894
O O6 0.555133 0.317800 0.087437
O O7 0.751414 0.388865 0.184861
O O8 0.446775 0.796898 0.684405
O O9 0.580109 0.813906 0.517496
O O10 0.335914 0.739981 0.515505
O O11 0.203640 0.316238 0.850258
O O12 0.040353 0.425906 0.798671
#
# Coordination Sequence:
#
# PCOD9377395 Si02
#       7
#     8   8   4   8   8   8   4
#     4  11  26  46  74 106 140 189 244 302 351 422
#     4  12  26  45  73 105 141 187 242 291 362 421
#     4  12  22  48  72 104 138 182 240 300 346 426
#     4  12  27  46  73 106 147 194 229 303 357 437
#     4  11  27  46  69 108 142 187 241 291 362 429
#     4  11  26  48  71 107 145 189 241 291 365 423
#     4  10  24  48  76 102 148 186 236 310 356 424
#
# _framework density 20.801454
#
# number of rings (size 3 to 8) (size 9 to 14) (size 15 to 20)
#    0.000    0.667    5.000    2.500    9.333    1.333 
#    0.000    0.000    0.000    0.000    0.000    0.000 
#    0.000    0.000    0.000    0.000    0.000    0.000 
#
# Total GULP energy -134192.341511 kJ/mol
# GULP energy per Si atom -5591.347563 kJ/mol
# Density = 2.075411 g / cm^3
# Si number density = 20.801454 Si / 1000 Ang^3
#
#
#
# Elastic Constant Matrix: (Units=GPa)
#
#
# Indices 1 2 3 4 5 6 
#
# 1 90.4539 43.3278 31.5408 0.0000 0.0000 0.0000
# 2 43.3278 94.5105 62.4810 -0.0001 0.0000 0.0000
# 3 31.5408 62.4810 128.4285 -0.0001 0.0000 0.0000
# 4 0.0000 -0.0001 -0.0001 29.9138 0.0000 0.0000
# 5 0.0000 0.0000 0.0000 0.0000 50.1126 0.0000
# 6 0.0000 0.0000 0.0000 0.0000 0.0000 39.1546
#
#
#
# Elastic Compliance Matrix: (Units=1/GPa)
#
#
# Indices 1 2 3 4 5 6 
#
# 1 0.014186 -0.006191 -0.000472 0.000000 0.000000 0.000000
# 2 -0.006191 0.018300 -0.007382 0.000000 0.000000 0.000000
# 3 -0.000472 -0.007382 0.011494 0.000000 0.000000 0.000000
# 4 0.000000 0.000000 0.000000 0.033429 0.000000 0.000000
# 5 0.000000 0.000000 0.000000 0.000000 0.019955 0.000000
# 6 0.000000 0.000000 0.000000 0.000000 0.000000 0.025540
#
#
# Mechanical properties :
#
#
# Convention : Reuss Voigt Hill
#
# Bulk Modulus (GPa) = 62.93990 65.34358 64.14174
# Shear Modulus (GPa) = 31.99171 35.57241 33.78206
#
# Velocity S-wave (km/s) = 3.92593 4.13981 4.03429
# Velocity P-wave (km/s) = 7.13258 7.37102 7.25278
#
# Compressibility (1/GPa) = 0.01588817
#
# Stress axis : x y z
#
# Youngs Moduli (GPa) = 70.49420 54.64544 87.00328
#
# Poissons Ratio (x) = 0.33834 0.04104
# Poissons Ratio (y) = 0.43646 0.64229
# Poissons Ratio (z) = 0.03325 0.40341
#
# Static dielectric constant tensor:
#      x y z
#    x 1.770660 0.000000 0.000000 
#    y 0.000000 1.751970 0.000000 
#    z 0.000000 0.000000 1.712900 
# 
# From -- ./inp_files/5641.got.cif
#   From: 2010.05.17/outbox.cif.g08.bks.cpg/sg45_3_cif.got.tgz:5641.got - 2010.06.03 19:51:22.
