data_PCOD9377154
_publ_section_title
;
Structure prediction by ZEFSAII (Michael W. Deem and Ramdas Pophale) SiO2 
 PCOD9377154
Probable space group: I B A 2
;
_chemical_formula_sum "Si O2"
_cell_formula_units_Z 64
_cell_length_a 7.555024
_cell_length_b 18.297393
_cell_length_c 21.135965
_cell_angle_alpha 90.000000
_cell_angle_beta 90.000000
_cell_angle_gamma 90.000000
_cell_volume 2921.777535
_symmetry_space_group_name_H-M "I B A 2"
_symmetry_group_IT_number 45
_symmetry_cell_setting 'orthorhombic'
loop_
_space_group_symop_operation_xyz
x,y,z
-x,-y,z
-x,y,1/2+z
x,-y,1/2+z
1/2+x,1/2+y,1/2+z
1/2-x,1/2-y,1/2+z
1/2-x,1/2+y,z
1/2+x,1/2-y,z
loop_
_atom_site_type_symbol
_atom_site_label
_atom_site_fract_x
_atom_site_fract_y
_atom_site_fract_z
Si Si1 0.351149 0.109572 0.649560
Si Si2 0.792511 0.678403 0.487821
Si Si3 0.675708 0.532729 0.706862
Si Si4 0.841764 0.153784 0.795200
Si Si5 0.792220 0.657177 0.008089
Si Si6 0.737451 0.150416 0.629665
Si Si7 0.015011 0.086407 0.423493
Si Si8 0.182221 0.223494 0.733306
O O1 0.275995 0.145423 0.584304
O O2 0.557012 0.104283 0.633122
O O3 0.319794 0.163323 0.709122
O O4 0.276826 0.032865 0.673705
O O5 0.778344 0.765761 0.479386
O O6 0.720136 0.672865 0.559581
O O7 0.665766 0.627336 0.445716
O O8 0.998923 0.654686 0.489805
O O9 0.500000 0.500000 0.737605
O O10 0.757440 0.586380 0.759904
O O11 0.620535 0.592016 0.653692
O O12 0.723753 0.226461 0.794159
O O13 0.915895 0.126490 0.860674
O O14 0.003943 0.181335 0.750608
O O15 0.667310 0.597515 0.976060
O O16 0.692133 0.219100 0.674636
O O17 0.000000 0.000000 0.412221
#
# Coordination Sequence:
#
# PCOD9377154 Si02
#       8
#     8   8   8   8   8   8   8   8
#     4  11  22  39  66 103 143 169 226 291 368 421
#     4  11  24  44  75 104 144 183 248 299 367 437
#     4  11  23  37  66  95 137 179 221 280 358 424
#     4  11  26  45  68  99 136 184 248 279 355 430
#     4  11  25  43  75 111 138 189 245 300 366 448
#     4  10  23  39  62 105 139 170 220 290 359 428
#     4  12  30  50  71 100 150 201 246 304 360 433
#     4  11  21  40  72  99 130 177 227 292 347 424
#
# _framework density 21.904472999999999
#
# number of rings (size 3 to 8) (size 9 to 14) (size 15 to 20)
#    0.000    1.000    5.000    0.750    5.250    0.500 
#    0.000    0.000    5.500    0.000    0.000    0.000 
#    0.000    0.000    0.000    0.000    0.000    0.000 
#
# Total GULP energy -178441.817395 kJ/mol
# GULP energy per Si atom -5576.306794 kJ/mol
# Density = 2.185462 g / cm^3
# Si number density = 21.904473 Si / 1000 Ang^3
#
#
#
# Elastic Constant Matrix: (Units=GPa)
#
#
# Indices 1 2 3 4 5 6 
#
# 1 60.6077 28.6932 15.6848 0.0000 0.0000 0.0000
# 2 28.6932 139.1190 41.9185 0.0000 0.0000 0.0000
# 3 15.6848 41.9185 75.4741 0.0000 0.0000 0.0000
# 4 0.0000 0.0000 0.0000 34.4821 0.0000 0.0000
# 5 0.0000 0.0000 0.0000 0.0000 28.9485 0.0000
# 6 0.0000 0.0000 0.0000 0.0000 0.0000 36.8131
#
#
#
# Elastic Compliance Matrix: (Units=1/GPa)
#
#
# Indices 1 2 3 4 5 6 
#
# 1 0.018552 -0.003200 -0.002078 0.000000 0.000000 0.000000
# 2 -0.003200 0.009185 -0.004436 0.000000 0.000000 0.000000
# 3 -0.002078 -0.004436 0.016145 0.000000 0.000000 0.000000
# 4 0.000000 0.000000 0.000000 0.029001 0.000000 0.000000
# 5 0.000000 0.000000 0.000000 0.000000 0.034544 0.000000
# 6 0.000000 0.000000 0.000000 0.000000 0.000000 0.027164
#
#
# Mechanical properties :
#
#
# Convention : Reuss Voigt Hill
#
# Bulk Modulus (GPa) = 40.89397 49.75487 45.32442
# Shear Modulus (GPa) = 30.83150 32.64235 31.73693
#
# Velocity S-wave (km/s) = 3.75579 3.86452 3.81054
# Velocity P-wave (km/s) = 6.12517 6.53272 6.33223
#
# Compressibility (1/GPa) = 0.02445348
#
# Stress axis : x y z
#
# Youngs Moduli (GPa) = 53.90127 108.87508 61.93747
#
# Poissons Ratio (x) = 0.34843 0.12871
# Poissons Ratio (y) = 0.17250 0.27477
# Poissons Ratio (z) = 0.11201 0.48299
#
# Static dielectric constant tensor:
#      x y z
#    x 1.881500 0.000000 0.000000 
#    y 0.000000 1.816640 0.000000 
#    z 0.000000 0.000000 1.831050 
# 
# From -- ./inp_files/8968.got.cif
#   From: 2010.05.17/outbox.cif.g08.bks.cpg/sg45_5_cif.got.tgz:8968.got - 2010.06.03 19:51:22.
