data_PCOD9377016
_publ_section_title
;
Structure prediction by ZEFSAII (Michael W. Deem and Ramdas Pophale) SiO2 
 PCOD9377016
Probable space group: I B A 2
;
_chemical_formula_sum "Si O2"
_cell_formula_units_Z 44
_cell_length_a 9.093625
_cell_length_b 27.284978
_cell_length_c 8.388290
_cell_angle_alpha 90.000000
_cell_angle_beta 90.000000
_cell_angle_gamma 90.000000
_cell_volume 2081.297130
_symmetry_space_group_name_H-M "I B A 2"
_symmetry_group_IT_number 45
_symmetry_cell_setting 'orthorhombic'
loop_
_space_group_symop_operation_xyz
x,y,z
-x,-y,z
-x,y,1/2+z
x,-y,1/2+z
1/2+x,1/2+y,1/2+z
1/2-x,1/2-y,1/2+z
1/2-x,1/2+y,z
1/2+x,1/2-y,z
loop_
_atom_site_type_symbol
_atom_site_label
_atom_site_fract_x
_atom_site_fract_y
_atom_site_fract_z
Si Si1 0.616808 0.571549 0.818420
Si Si2 0.669564 0.147878 0.938042
Si Si3 0.500000 0.500000 0.578392
Si Si4 0.647820 0.282485 0.000063
Si Si5 0.934128 0.159398 0.194319
Si Si6 0.548682 0.803972 0.123438
O O1 0.766150 0.601468 0.844204
O O2 0.615075 0.530483 0.683176
O O3 0.480626 0.609175 0.782000
O O4 0.579817 0.540930 0.974937
O O5 0.618139 0.185736 0.797170
O O6 0.806622 0.158113 0.060097
O O7 0.526373 0.147031 0.051550
O O8 0.583294 0.326637 0.104694
O O9 0.580133 0.235574 0.090570
O O10 0.821569 0.283458 0.013188
O O11 0.601986 0.297985 0.822040
#
# Coordination Sequence:
#
# PCOD9377016 Si02
#       6
#     8   8   4   8   8   8
#     4  11  21  42  72 115 137 183 234 307 376 434
#     4  12  25  46  68 106 148 197 242 304 369 444
#     4  10  22  40  76 114 142 172 242 316 368 458
#     4  12  24  41  65 101 146 192 254 293 352 425
#     4  12  22  42  72 103 144 190 241 311 364 435
#     4  12  27  44  65 102 146 204 247 297 354 427
#
# _framework density 21.140664000000001
#
# number of rings (size 3 to 8) (size 9 to 14) (size 15 to 20)
#    0.000    0.364    5.455    3.273    0.000    2.909 
#    0.000    0.000    0.000    3.273    0.000    0.000 
#    0.000    0.000    0.000    0.000    0.000    0.000 
#
# Total GULP energy -122692.386461 kJ/mol
# GULP energy per Si atom -5576.926657 kJ/mol
# Density = 2.109255 g / cm^3
# Si number density = 21.140664 Si / 1000 Ang^3
#
#
#
# Elastic Constant Matrix: (Units=GPa)
#
#
# Indices 1 2 3 4 5 6 
#
# 1 116.9730 39.4391 26.3980 0.0014 -0.0005 0.0002
# 2 39.4391 116.5589 55.6328 0.0006 0.0004 0.0000
# 3 26.3980 55.6328 116.4513 0.0030 0.0012 0.0007
# 4 0.0014 0.0006 0.0030 28.9039 0.0021 0.0005
# 5 -0.0005 0.0004 0.0012 0.0021 39.3011 0.0003
# 6 0.0002 0.0000 0.0007 0.0005 0.0003 37.1647
#
#
#
# Elastic Compliance Matrix: (Units=1/GPa)
#
#
# Indices 1 2 3 4 5 6 
#
# 1 0.009710 -0.002895 -0.000818 0.000000 0.000000 0.000000
# 2 -0.002895 0.011977 -0.005065 0.000000 0.000000 0.000000
# 3 -0.000818 -0.005065 0.011193 -0.000001 0.000000 0.000000
# 4 0.000000 0.000000 -0.000001 0.034597 -0.000002 0.000000
# 5 0.000000 0.000000 0.000000 -0.000002 0.025445 0.000000
# 6 0.000000 0.000000 0.000000 0.000000 0.000000 0.026907
#
#
# Mechanical properties :
#
#
# Convention : Reuss Voigt Hill
#
# Bulk Modulus (GPa) = 65.26501 65.88033 65.57267
# Shear Modulus (GPa) = 35.08967 36.30818 35.69893
#
# Velocity S-wave (km/s) = 4.07851 4.14872 4.11376
# Velocity P-wave (km/s) = 7.28819 7.36068 7.32453
#
# Compressibility (1/GPa) = 0.01532215
#
# Stress axis : x y z
#
# Youngs Moduli (GPa) = 102.99027 83.49646 89.34454
#
# Poissons Ratio (x) = 0.24172 0.07309
# Poissons Ratio (y) = 0.29815 0.45256
# Poissons Ratio (z) = 0.08425 0.42294
#
# Static dielectric constant tensor:
#      x y z
#    x 1.732770 0.000000 0.000000 
#    y 0.000000 1.877080 0.000000 
#    z 0.000000 0.000000 1.870160 
# 
# From -- ./inp_files/1035.got.cif
#   From: 2010.05.17/outbox.cif.g08.bks.cpg/sg45_1_cif.got.tgz:1035.got - 2010.06.03 19:51:22.
