data_PCOD9377006
_publ_section_title
;
Structure prediction by ZEFSAII (Michael W. Deem and Ramdas Pophale) SiO2 
 PCOD9377006
Probable space group: I B A 2
;
_chemical_formula_sum "Si O2"
_cell_formula_units_Z 52
_cell_length_a 15.873639
_cell_length_b 9.649223
_cell_length_c 16.939016
_cell_angle_alpha 90.000000
_cell_angle_beta 90.000000
_cell_angle_gamma 90.000000
_cell_volume 2594.519989
_symmetry_space_group_name_H-M "I B A 2"
_symmetry_group_IT_number 45
_symmetry_cell_setting 'orthorhombic'
loop_
_space_group_symop_operation_xyz
x,y,z
-x,-y,z
-x,y,1/2+z
x,-y,1/2+z
1/2+x,1/2+y,1/2+z
1/2-x,1/2-y,1/2+z
1/2-x,1/2+y,z
1/2+x,1/2-y,z
loop_
_atom_site_type_symbol
_atom_site_label
_atom_site_fract_x
_atom_site_fract_y
_atom_site_fract_z
Si Si1 0.106767 0.260556 0.140650
Si Si2 0.259960 0.214430 0.258459
Si Si3 0.684688 0.477388 0.854816
Si Si4 0.636366 0.932895 0.123634
Si Si5 0.050048 0.174082 0.557824
Si Si6 0.000000 0.000000 0.413072
Si Si7 0.193049 0.055495 0.037065
O O1 0.171340 0.229831 0.211374
O O2 0.088859 0.424046 0.140749
O O3 0.159941 0.204315 0.065989
O O4 0.019084 0.178110 0.128156
O O5 0.291710 0.358898 0.292809
O O6 0.331051 0.148892 0.201256
O O7 0.236289 0.111665 0.328900
O O8 0.584009 0.498579 0.861379
O O9 0.707816 0.441482 0.944439
O O10 0.590845 0.825341 0.065285
O O11 0.722736 0.979544 0.082757
O O12 0.006158 0.130552 0.474643
O O13 0.123934 0.060131 0.561659
#
# Coordination Sequence:
#
# PCOD9377006 Si02
#       7
#     8   8   8   8   8   4   8
#     4  11  21  42  62  98 129 172 227 278 336 394
#     4  11  25  42  64  98 140 183 217 276 345 414
#     4  11  24  43  65  97 139 177 229 271 347 412
#     4  11  24  39  65  98 130 174 226 276 339 392
#     4  11  21  41  69  95 128 167 235 283 322 391
#     4  10  24  44  68 104 128 184 230 280 344 404
#     4  10  22  40  68  91 127 175 230 274 328 408
#
# _framework density 20.042242999999999
#
# number of rings (size 3 to 8) (size 9 to 14) (size 15 to 20)
#    0.000    1.231    4.615    2.308    8.615    1.231 
#    0.000    0.000    0.000    0.000    0.000    0.000 
#    0.000    0.000    0.000    0.000    0.000    0.000 
#
# Total GULP energy -145009.867986 kJ/mol
# GULP energy per Si atom -5577.302615 kJ/mol
# Density = 1.999663 g / cm^3
# Si number density = 20.042243 Si / 1000 Ang^3
#
#
#
# Elastic Constant Matrix: (Units=GPa)
#
#
# Indices 1 2 3 4 5 6 
#
# 1 58.3173 -0.3317 16.8489 0.0000 0.0000 0.0000
# 2 -0.3317 76.3235 6.9436 0.0000 0.0000 0.0000
# 3 16.8489 6.9436 57.4535 0.0000 0.0000 0.0000
# 4 0.0000 0.0000 0.0000 20.3732 0.0000 0.0000
# 5 0.0000 0.0000 0.0000 0.0000 28.8147 0.0000
# 6 0.0000 0.0000 0.0000 0.0000 0.0000 36.7615
#
#
#
# Elastic Compliance Matrix: (Units=1/GPa)
#
#
# Indices 1 2 3 4 5 6 
#
# 1 0.018761 0.000589 -0.005573 0.000000 0.000000 0.000000
# 2 0.000589 0.013266 -0.001776 0.000000 0.000000 0.000000
# 3 -0.005573 -0.001776 0.019254 0.000000 0.000000 0.000000
# 4 0.000000 0.000000 0.000000 0.049084 0.000000 0.000000
# 5 0.000000 0.000000 0.000000 0.000000 0.034705 0.000000
# 6 0.000000 0.000000 0.000000 0.000000 0.000000 0.027202
#
#
# Mechanical properties :
#
#
# Convention : Reuss Voigt Hill
#
# Bulk Modulus (GPa) = 26.48242 26.55732 26.51987
# Shear Modulus (GPa) = 26.54203 28.43210 27.48706
#
# Velocity S-wave (km/s) = 3.64305 3.77053 3.70734
# Velocity P-wave (km/s) = 5.56217 5.67761 5.62019
#
# Compressibility (1/GPa) = 0.03776090
#
# Stress axis : x y z
#
# Youngs Moduli (GPa) = 53.30191 75.37921 51.93627
#
# Poissons Ratio (x) = -0.04437 0.28944
# Poissons Ratio (y) = -0.03137 0.09223
# Poissons Ratio (z) = 0.29705 0.13387
#
# Static dielectric constant tensor:
#      x y z
#    x 1.770560 0.000000 0.000000 
#    y 0.000000 1.729880 0.000000 
#    z 0.000000 0.000000 1.684770 
# 
# From -- ./inp_files/8328.got.cif
#   From: 2010.05.17/outbox.cif.g08.bks.cpg/sg45_5_cif.got.tgz:8328.got - 2010.06.03 19:51:22.
