data_PCOD9377069
_publ_section_title
;
Structure prediction by ZEFSAII (Michael W. Deem and Ramdas Pophale) SiO2 
 PCOD9377069
Probable space group: I B A 2
;
_chemical_formula_sum "Si O2"
_cell_formula_units_Z 64
_cell_length_a 9.112540
_cell_length_b 23.489950
_cell_length_c 12.530100
_cell_angle_alpha 90.000000
_cell_angle_beta 90.000000
_cell_angle_gamma 90.000000
_cell_volume 2682.106861
_symmetry_space_group_name_H-M "I B A 2"
_symmetry_group_IT_number 45
_symmetry_cell_setting 'orthorhombic'
loop_
_space_group_symop_operation_xyz
x,y,z
-x,-y,z
-x,y,1/2+z
x,-y,1/2+z
1/2+x,1/2+y,1/2+z
1/2-x,1/2-y,1/2+z
1/2-x,1/2+y,z
1/2+x,1/2-y,z
loop_
_atom_site_type_symbol
_atom_site_label
_atom_site_fract_x
_atom_site_fract_y
_atom_site_fract_z
Si Si1 0.203900 0.143556 0.721350
Si Si2 0.842374 0.531381 0.118437
Si Si3 0.378017 0.546218 0.024235
Si Si4 0.622956 0.625950 0.711258
Si Si5 0.158223 0.688672 0.073920
Si Si6 0.646451 0.896018 0.895647
Si Si7 0.834881 0.709589 0.028641
Si Si8 0.329741 0.902893 0.893669
O O1 0.276927 0.081289 0.692989
O O2 0.303045 0.156284 0.823344
O O3 0.235255 0.182976 0.621987
O O4 0.034797 0.145204 0.753856
O O5 0.726339 0.481180 0.113782
O O6 0.000000 0.500000 0.132220
O O7 0.823750 0.559010 0.000074
O O8 0.500000 0.500000 0.998126
O O9 0.429905 0.599775 0.095208
O O10 0.282246 0.562621 0.921173
O O11 0.748338 0.671451 0.677706
O O12 0.702542 0.591080 0.806705
O O13 0.264013 0.729796 0.007164
O O14 0.997460 0.715705 0.078285
O O15 0.122048 0.629207 0.014392
O O16 0.492531 0.918167 0.851887
O O17 0.832697 0.663101 0.934035
#
# Coordination Sequence:
#
# PCOD9377069 Si02
#       8
#     8   8   8   8   8   8   8   8
#     4  11  24  40  63  95 129 167 212 264 320 377
#     4  11  23  43  64  89 125 173 217 264 320 377
#     4  11  23  43  62  89 129 168 217 266 320 373
#     4  11  24  40  63  94 131 167 210 267 316 380
#     4  10  22  42  68  93 126 167 210 262 322 381
#     4  10  23  41  63  92 128 168 212 266 317 379
#     4  10  22  42  68  93 125 167 210 261 322 384
#     4  10  23  41  63  93 127 168 214 262 320 380
#
# _framework density 23.861836
#
# number of rings (size 3 to 8) (size 9 to 14) (size 15 to 20)
#    0.000    1.500    2.500    1.500    5.250    4.000 
#    0.000    2.500    0.000    0.000    0.000    0.000 
#    0.000    0.000    0.000    0.000    0.000    0.000 
#
# Total GULP energy -178355.779400 kJ/mol
# GULP energy per Si atom -5573.618106 kJ/mol
# Density = 2.380753 g / cm^3
# Si number density = 23.861836 Si / 1000 Ang^3
#
#
#
# Elastic Constant Matrix: (Units=GPa)
#
#
# Indices 1 2 3 4 5 6 
#
# 1 158.8666 5.1130 25.4570 0.0000 0.0000 0.0000
# 2 5.1130 53.8179 7.8779 0.0000 0.0000 0.0000
# 3 25.4570 7.8779 76.7068 -0.0001 0.0000 0.0000
# 4 0.0000 0.0000 -0.0001 26.1490 0.0000 0.0000
# 5 0.0000 0.0000 0.0000 0.0000 24.0333 0.0000
# 6 0.0000 0.0000 0.0000 0.0000 0.0000 34.3225
#
#
#
# Elastic Compliance Matrix: (Units=1/GPa)
#
#
# Indices 1 2 3 4 5 6 
#
# 1 0.006653 -0.000314 -0.002176 0.000000 0.000000 0.000000
# 2 -0.000314 0.018880 -0.001835 0.000000 0.000000 0.000000
# 3 -0.002176 -0.001835 0.013947 0.000000 0.000000 0.000000
# 4 0.000000 0.000000 0.000000 0.038242 0.000000 0.000000
# 5 0.000000 0.000000 0.000000 0.000000 0.041609 0.000000
# 6 0.000000 0.000000 0.000000 0.000000 0.000000 0.029135
#
#
# Mechanical properties :
#
#
# Convention : Reuss Voigt Hill
#
# Bulk Modulus (GPa) = 32.43445 40.69857 36.56651
# Shear Modulus (GPa) = 29.86988 33.63051 31.75020
#
# Velocity S-wave (km/s) = 3.54190 3.75825 3.65168
# Velocity P-wave (km/s) = 5.50898 5.99379 5.75649
#
# Compressibility (1/GPa) = 0.03083142
#
# Stress axis : x y z
#
# Youngs Moduli (GPa) = 150.30028 52.96736 71.69887
#
# Poissons Ratio (x) = 0.01661 0.15601
# Poissons Ratio (y) = 0.04713 0.13156
# Poissons Ratio (z) = 0.32703 0.09719
#
# Static dielectric constant tensor:
#      x y z
#    x 1.950540 0.000000 0.000000 
#    y 0.000000 2.044510 0.000000 
#    z 0.000000 0.000000 1.997500 
# 
# From -- ./inp_files/5839.got.cif
#   From: 2010.05.17/outbox.cif.g08.bks.cpg/sg45_3_cif.got.tgz:5839.got - 2010.06.03 19:51:22.
