data_PCOD9377584
_publ_section_title
;
Structure prediction by ZEFSAII (Michael W. Deem and Ramdas Pophale) SiO2 
 PCOD9377584
Probable space group: I B A 2
;
_chemical_formula_sum "Si O2"
_cell_formula_units_Z 56
_cell_length_a 14.477125
_cell_length_b 18.968022
_cell_length_c 8.025245
_cell_angle_alpha 90.000000
_cell_angle_beta 90.000000
_cell_angle_gamma 90.000000
_cell_volume 2203.751742
_symmetry_space_group_name_H-M "I B A 2"
_symmetry_group_IT_number 45
_symmetry_cell_setting 'orthorhombic'
loop_
_space_group_symop_operation_xyz
x,y,z
-x,-y,z
-x,y,1/2+z
x,-y,1/2+z
1/2+x,1/2+y,1/2+z
1/2-x,1/2-y,1/2+z
1/2-x,1/2+y,z
1/2+x,1/2-y,z
loop_
_atom_site_type_symbol
_atom_site_label
_atom_site_fract_x
_atom_site_fract_y
_atom_site_fract_z
Si Si1 0.394836 0.581315 0.448450
Si Si2 0.684511 0.794400 0.981986
Si Si3 0.864609 0.386042 0.677282
Si Si4 0.276946 0.839218 0.852251
Si Si5 0.512107 0.225072 0.672022
Si Si6 0.578407 0.325696 0.956013
Si Si7 0.810295 0.061401 0.309755
O O1 0.322359 0.625470 0.344178
O O2 0.494845 0.617003 0.441195
O O3 0.360507 0.583843 0.639155
O O4 0.369232 0.503427 0.383105
O O5 0.691000 0.831733 0.163099
O O6 0.577827 0.769955 0.008898
O O7 0.680648 0.829985 0.801858
O O8 0.754876 0.731037 0.958116
O O9 0.840976 0.382720 0.481796
O O10 0.970478 0.354681 0.689542
O O11 0.798773 0.450153 0.756133
O O12 0.570255 0.266023 0.812537
O O13 0.432183 0.280230 0.622185
O O14 0.668778 0.374068 0.936334
#
# Coordination Sequence:
#
# PCOD9377584 Si02
#       7
#     8   8   8   8   8   8   8
#     4  11  25  45  64  96 137 183 233 278 342 428
#     4  12  23  40  67 102 135 181 219 282 370 412
#     4  11  25  42  64  96 139 180 234 287 344 427
#     4  11  23  41  66 100 139 174 227 286 352 431
#     4  12  23  42  65 100 139 171 225 287 357 422
#     4  12  23  40  65  99 138 176 222 285 350 419
#     4  11  27  44  64  98 134 189 234 278 349 428
#
# _framework density 25.411210000000001
#
# number of rings (size 3 to 8) (size 9 to 14) (size 15 to 20)
#    0.000    0.571    5.714    2.143    6.000    1.143 
#    0.000    0.000    0.000    0.857    0.000    0.000 
#    0.000    0.000    0.000    0.000    0.000    0.000 
#
# Total GULP energy -155972.324557 kJ/mol
# GULP energy per Si atom -5570.440163 kJ/mol
# Density = 2.535337 g / cm^3
# Si number density = 25.411210 Si / 1000 Ang^3
#
#
#
# Elastic Constant Matrix: (Units=GPa)
#
#
# Indices 1 2 3 4 5 6 
#
# 1 93.0932 17.4656 13.3128 0.0000 0.0000 0.0000
# 2 17.4656 35.2730 16.9254 0.0000 0.0000 0.0000
# 3 13.3128 16.9254 112.2973 0.0000 0.0000 0.0000
# 4 0.0000 0.0000 0.0000 31.2383 0.0000 0.0000
# 5 0.0000 0.0000 0.0000 0.0000 45.7868 0.0000
# 6 0.0000 0.0000 0.0000 0.0000 0.0000 33.0531
#
#
#
# Elastic Compliance Matrix: (Units=1/GPa)
#
#
# Indices 1 2 3 4 5 6 
#
# 1 0.011875 -0.005610 -0.000562 0.000000 0.000000 0.000000
# 2 -0.005610 0.033211 -0.004340 0.000000 0.000000 0.000000
# 3 -0.000562 -0.004340 0.009626 0.000000 0.000000 0.000000
# 4 0.000000 0.000000 0.000000 0.032012 0.000000 0.000000
# 5 0.000000 0.000000 0.000000 0.000000 0.021840 0.000000
# 6 0.000000 0.000000 0.000000 0.000000 0.000000 0.030254
#
#
# Mechanical properties :
#
#
# Convention : Reuss Voigt Hill
#
# Bulk Modulus (GPa) = 29.68596 37.34122 33.51359
# Shear Modulus (GPa) = 29.22741 34.87963 32.05352
#
# Velocity S-wave (km/s) = 3.39511 3.70889 3.55546
# Velocity P-wave (km/s) = 5.20352 5.75047 5.48381
#
# Compressibility (1/GPa) = 0.03368596
#
# Stress axis : x y z
#
# Youngs Moduli (GPa) = 84.21152 30.11063 103.88776
#
# Poissons Ratio (x) = 0.16892 0.05841
# Poissons Ratio (y) = 0.47244 0.45092
# Poissons Ratio (z) = 0.04734 0.13069
#
# Static dielectric constant tensor:
#      x y z
#    x 2.239250 0.000000 0.000000 
#    y 0.000000 2.163910 0.000000 
#    z 0.000000 0.000000 2.024680 
# 
# From -- ./inp_files/1813.got.cif
#   From: 2010.05.17/outbox.cif.g08.bks.cpg/sg45_1_cif.got.tgz:1813.got - 2010.06.03 19:51:22.
