data_PCOD9377049
_publ_section_title
;
Structure prediction by ZEFSAII (Michael W. Deem and Ramdas Pophale) SiO2 
 PCOD9377049
Probable space group: I B A 2
;
_chemical_formula_sum "Si O2"
_cell_formula_units_Z 48
_cell_length_a 15.895240
_cell_length_b 24.047995
_cell_length_c 5.242610
_cell_angle_alpha 90.000000
_cell_angle_beta 90.000000
_cell_angle_gamma 90.000000
_cell_volume 2003.980606
_symmetry_space_group_name_H-M "I B A 2"
_symmetry_group_IT_number 45
_symmetry_cell_setting 'orthorhombic'
loop_
_space_group_symop_operation_xyz
x,y,z
-x,-y,z
-x,y,1/2+z
x,-y,1/2+z
1/2+x,1/2+y,1/2+z
1/2-x,1/2-y,1/2+z
1/2-x,1/2+y,z
1/2+x,1/2-y,z
loop_
_atom_site_type_symbol
_atom_site_label
_atom_site_fract_x
_atom_site_fract_y
_atom_site_fract_z
Si Si1 0.149839 0.525119 0.402910
Si Si2 0.032354 0.812526 0.410306
Si Si3 0.196157 0.643229 0.608114
Si Si4 0.032354 0.312524 0.314674
Si Si5 0.649841 0.474881 0.322068
Si Si6 0.803842 0.143229 0.616860
O O1 0.113718 0.485320 0.622580
O O2 0.150306 0.587223 0.511862
O O3 0.249999 0.512753 0.362490
O O4 0.125231 0.814765 0.522317
O O5 0.025735 0.839037 0.130464
O O6 0.999999 0.750001 0.362490
O O7 0.249999 0.662561 0.362487
O O8 0.125231 0.685236 0.702659
O O9 0.250000 0.630319 0.862487
O O10 0.974265 0.339034 0.094517
O O11 0.613720 0.485320 0.602398
O O12 0.650308 0.412778 0.213114
#
# Coordination Sequence:
#
# PCOD9377049 Si02
#       6
#     8   8   8   8   8   8
#     4   9  16  28  49  82 121 153 186 240 302 346
#     4  10  22  42  62  82 116 162 196 238 315 374
#     4  11  21  35  61  93 118 151 207 256 287 350
#     4  10  22  42  62  82 116 162 196 238 315 374
#     4   9  16  28  49  82 121 153 186 240 302 346
#     4  11  21  35  61  93 118 151 207 256 287 350
#
# _framework density 23.952328999999999
#
# number of rings (size 3 to 8) (size 9 to 14) (size 15 to 20)
#    0.000    2.000    0.000    7.000    0.000    0.000 
#    0.000   13.333    0.000    6.000    0.000    0.000 
#    0.000    0.000    0.000    0.000    0.000    0.000 
#
# Total GULP energy -133947.684553 kJ/mol
# GULP energy per Si atom -5581.153523 kJ/mol
# Density = 2.389781 g / cm^3
# Si number density = 23.952329 Si / 1000 Ang^3
#
#
#
# Elastic Constant Matrix: (Units=GPa)
#
#
# Indices 1 2 3 4 5 6 
#
# 1 50.2038 53.9876 22.4868 0.0000 0.0000 0.0000
# 2 53.9876 78.5303 54.3958 0.0000 0.0000 0.0000
# 3 22.4868 54.3958 198.2619 0.0000 0.0000 0.0000
# 4 0.0000 0.0000 0.0000 23.9557 0.0000 0.0000
# 5 0.0000 0.0000 0.0000 0.0000 34.2904 0.0000
# 6 0.0000 0.0000 0.0000 0.0000 0.0000 3.8697
#
#
#
# Elastic Compliance Matrix: (Units=1/GPa)
#
#
# Indices 1 2 3 4 5 6 
#
# 1 0.085437 -0.064230 0.007932 0.000000 0.000000 0.000000
# 2 -0.064230 0.064009 -0.010277 0.000000 0.000000 0.000000
# 3 0.007932 -0.010277 0.006964 0.000000 0.000000 0.000000
# 4 0.000000 0.000000 0.000000 0.041744 0.000000 0.000000
# 5 0.000000 0.000000 0.000000 0.000000 0.029163 0.000000
# 6 0.000000 0.000000 0.000000 0.000000 0.000000 0.258416
#
#
# Mechanical properties :
#
#
# Convention : Reuss Voigt Hill
#
# Bulk Modulus (GPa) = 42.99191 65.41517 54.20354
# Shear Modulus (GPa) = 7.97912 25.49821 16.73866
#
# Velocity S-wave (km/s) = 1.82715 3.26627 2.64641
# Velocity P-wave (km/s) = 4.73701 6.44938 5.65835
#
# Compressibility (1/GPa) = 0.02326019
#
# Stress axis : x y z
#
# Youngs Moduli (GPa) = 11.70451 15.62278 143.60120
#
# Poissons Ratio (x) = 1.00346 -1.13907
# Poissons Ratio (y) = 0.75178 1.47575
# Poissons Ratio (z) = -0.09284 0.16055
#
# Static dielectric constant tensor:
#      x y z
#    x 1.947510 0.000000 0.000000 
#    y 0.000000 1.967400 0.000000 
#    z 0.000000 0.000000 2.113620 
# 
# From -- ./inp_files/313.got.cif
#   From: 2010.05.17/outbox.cif.g08.bks.cpg/sg45_1_cif.got.tgz:313.got - 2010.06.03 19:51:22.
