data_PCOD9377657
_publ_section_title
;
Structure prediction by ZEFSAII (Michael W. Deem and Ramdas Pophale) SiO2 
 PCOD9377657
Probable space group: I B A 2
;
_chemical_formula_sum "Si O2"
_cell_formula_units_Z 40
_cell_length_a 9.634704
_cell_length_b 17.894503
_cell_length_c 9.120791
_cell_angle_alpha 90.000000
_cell_angle_beta 90.000000
_cell_angle_gamma 90.000000
_cell_volume 1572.499520
_symmetry_space_group_name_H-M "I B A 2"
_symmetry_group_IT_number 45
_symmetry_cell_setting 'orthorhombic'
loop_
_space_group_symop_operation_xyz
x,y,z
-x,-y,z
-x,y,1/2+z
x,-y,1/2+z
1/2+x,1/2+y,1/2+z
1/2-x,1/2-y,1/2+z
1/2-x,1/2+y,z
1/2+x,1/2-y,z
loop_
_atom_site_type_symbol
_atom_site_label
_atom_site_fract_x
_atom_site_fract_y
_atom_site_fract_z
Si Si1 0.253137 0.920117 0.049730
Si Si2 0.741789 0.309054 0.293975
Si Si3 0.554727 0.141344 0.545355
Si Si4 0.699952 0.429009 0.881150
Si Si5 0.533579 0.294737 0.886296
O O1 0.419546 0.909192 0.071791
O O2 0.184340 0.929808 0.206794
O O3 0.222005 0.846999 0.953032
O O4 0.207243 0.989377 0.950327
O O5 0.842374 0.353746 0.185641
O O6 0.581698 0.298874 0.257931
O O7 0.821064 0.232146 0.315606
O O8 0.650254 0.105216 0.421362
O O9 0.510871 0.223826 0.486740
O O10 0.578623 0.375772 0.945019
#
# Coordination Sequence:
#
# PCOD9377657 Si02
#       5
#     8   8   8   8   8
#     4  11  26  48  73 112 153 210 258 324 394 469
#     4  11  26  46  77 115 154 195 263 323 399 470
#     4  11  25  46  78 115 153 202 264 330 391 478
#     4  12  26  48  76 109 158 206 266 324 392 477
#     4  11  26  44  77 117 152 203 254 331 398 468
#
# _framework density 25.437211000000001
#
# number of rings (size 3 to 8) (size 9 to 14) (size 15 to 20)
#    0.000    0.800    2.000    4.200    5.600    2.400 
#    0.000    2.000    0.000    0.000    0.000    0.000 
#    0.000    0.000    0.000    0.000    0.000    0.000 
#
# Total GULP energy -111894.821184 kJ/mol
# GULP energy per Si atom -5594.741059 kJ/mol
# Density = 2.537931 g / cm^3
# Si number density = 25.437211 Si / 1000 Ang^3
#
#
#
# Elastic Constant Matrix: (Units=GPa)
#
#
# Indices 1 2 3 4 5 6 
#
# 1 106.2144 24.5933 -10.9499 0.0000 0.0000 0.0000
# 2 24.5933 100.4738 19.9479 -0.0002 0.0000 0.0000
# 3 -10.9499 19.9479 120.7258 -0.0002 0.0000 0.0000
# 4 0.0000 -0.0002 -0.0002 33.2450 0.0000 0.0000
# 5 0.0000 0.0000 0.0000 0.0000 33.7621 0.0000
# 6 0.0000 0.0000 0.0000 0.0000 0.0000 49.4255
#
#
#
# Elastic Compliance Matrix: (Units=1/GPa)
#
#
# Indices 1 2 3 4 5 6 
#
# 1 0.010199 -0.002771 0.001383 0.000000 0.000000 0.000000
# 2 -0.002771 0.011043 -0.002076 0.000000 0.000000 0.000000
# 3 0.001383 -0.002076 0.008752 0.000000 0.000000 0.000000
# 4 0.000000 0.000000 0.000000 0.030080 0.000000 0.000000
# 5 0.000000 0.000000 0.000000 0.000000 0.029619 0.000000
# 6 0.000000 0.000000 0.000000 0.000000 0.000000 0.020232
#
#
# Mechanical properties :
#
#
# Convention : Reuss Voigt Hill
#
# Bulk Modulus (GPa) = 43.35423 43.84405 43.59914
# Shear Modulus (GPa) = 40.14705 42.87471 41.51088
#
# Velocity S-wave (km/s) = 3.97707 4.10995 4.04406
# Velocity P-wave (km/s) = 6.17819 6.30840 6.24363
#
# Compressibility (1/GPa) = 0.02306580
#
# Stress axis : x y z
#
# Youngs Moduli (GPa) = 98.04782 90.55270 114.26359
#
# Poissons Ratio (x) = 0.25092 -0.15802
# Poissons Ratio (y) = 0.27169 0.23722
# Poissons Ratio (z) = -0.13559 0.18799
#
# Static dielectric constant tensor:
#      x y z
#    x 2.110150 0.000000 0.000000 
#    y 0.000000 2.000460 0.000000 
#    z 0.000000 0.000000 2.026710 
# 
# From -- ./inp_files/1252.got.cif
#   From: 2010.05.17/outbox.cif.g08.bks.cpg/sg45_1_cif.got.tgz:1252.got - 2010.06.03 19:51:22.
