data_PCOD9377985
_publ_section_title
;
Structure prediction by ZEFSAII (Michael W. Deem and Ramdas Pophale) SiO2 
 PCOD9377985
Probable space group: I M A 2
;
_chemical_formula_sum "Si O2"
_cell_formula_units_Z 56
_cell_length_a 8.771793
_cell_length_b 14.027678
_cell_length_c 30.201025
_cell_angle_alpha 90.000000
_cell_angle_beta 90.000000
_cell_angle_gamma 90.000000
_cell_volume 3716.172332
_symmetry_space_group_name_H-M "I M A 2"
_symmetry_group_IT_number 46
_symmetry_cell_setting 'orthorhombic'
loop_
_space_group_symop_operation_xyz
x,y,z
-x,-y,z
1/2-x,y,z
1/2+x,-y,z
1/2+x,1/2+y,1/2+z
1/2-x,1/2-y,1/2+z
-x,1/2+y,1/2+z
x,1/2-y,1/2+z
loop_
_atom_site_type_symbol
_atom_site_label
_atom_site_fract_x
_atom_site_fract_y
_atom_site_fract_z
Si Si1 0.933101 0.606895 0.473320
Si Si2 0.933903 0.216372 0.249310
Si Si3 0.066537 0.283983 0.384279
Si Si4 0.433679 0.893575 0.161863
Si Si5 0.067875 0.895655 0.338413
Si Si6 0.932243 0.895797 0.795406
Si Si7 0.067159 0.892977 0.064116
O O1 0.750000 0.600078 0.475253
O O2 0.977325 0.670010 0.431017
O O3 0.000000 0.500000 0.468233
O O4 0.995451 0.649242 0.519562
O O5 0.750000 0.225250 0.249238
O O6 0.983544 0.171688 0.202711
O O7 0.975557 0.145346 0.289740
O O8 0.005711 0.318013 0.260887
O O9 0.250000 0.274084 0.383461
O O10 0.023495 0.355023 0.344022
O O11 0.993190 0.182456 0.373023
O O12 0.250000 0.901509 0.163718
O O13 0.471982 0.853504 0.112873
O O14 0.500000 0.000000 0.166304
O O15 0.250000 0.899853 0.340505
O O16 0.000000 0.000000 0.345057
O O17 0.750000 0.899601 0.793366
O O18 0.000000 0.000000 0.788652
O O19 0.250000 0.896079 0.059720
O O20 0.000000 0.000000 0.065283
#
# Coordination Sequence:
#
# PCOD9377985 Si02
#       7
#     8   8   8   8   8   8   8
#     4  10  18  28  43  63  88 117 145 178 215 254
#     4   9  18  31  45  64  88 116 148 178 211 253
#     4   9  19  32  45  63  87 115 148 179 212 254
#     4   9  17  28  43  63  89 118 146 177 213 252
#     4  10  19  30  46  65  88 116 145 179 215 251
#     4  10  19  31  46  64  87 115 145 180 216 253
#     4   9  16  26  40  60  86 115 144 175 212 255
#
# _framework density 15.069269
#
# number of rings (size 3 to 8) (size 9 to 14) (size 15 to 20)
#    0.000    2.571    0.000    3.429    0.000    3.429 
#    0.000    0.000    0.000    0.000    0.000    1.000 
#    0.000    6.857    0.000    0.000    0.000    0.000 
#
# Total GULP energy -156038.328108 kJ/mol
# GULP energy per Si atom -5572.797432 kJ/mol
# Density = 1.503497 g / cm^3
# Si number density = 15.069269 Si / 1000 Ang^3
#
#
#
# Elastic Constant Matrix: (Units=GPa)
#
#
# Indices 1 2 3 4 5 6 
#
# 1 32.4212 33.9397 40.3795 0.0000 0.0000 0.0000
# 2 33.9397 111.7228 71.8590 0.0000 0.0000 0.0000
# 3 40.3795 71.8590 152.4783 0.0000 0.0000 0.0000
# 4 0.0000 0.0000 0.0000 23.2855 0.0000 0.0000
# 5 0.0000 0.0000 0.0000 0.0000 20.9103 0.0000
# 6 0.0000 0.0000 0.0000 0.0000 0.0000 22.4391
#
#
#
# Elastic Compliance Matrix: (Units=1/GPa)
#
#
# Indices 1 2 3 4 5 6 
#
# 1 0.052987 -0.010147 -0.009250 0.000000 0.000000 0.000000
# 2 -0.010147 0.014787 -0.004282 0.000000 0.000000 0.000000
# 3 -0.009250 -0.004282 0.011026 0.000000 0.000000 0.000000
# 4 0.000000 0.000000 0.000000 0.042945 0.000000 0.000000
# 5 0.000000 0.000000 0.000000 0.000000 0.047823 0.000000
# 6 0.000000 0.000000 0.000000 0.000000 0.000000 0.044565
#
#
# Mechanical properties :
#
#
# Convention : Reuss Voigt Hill
#
# Bulk Modulus (GPa) = 31.80429 65.44208 48.62318
# Shear Modulus (GPa) = 18.38427 23.35658 20.87042
#
# Velocity S-wave (km/s) = 3.49662 3.94121 3.72555
# Velocity P-wave (km/s) = 6.11988 8.01453 7.13041
#
# Compressibility (1/GPa) = 0.03144230
#
# Stress axis : x y z
#
# Youngs Moduli (GPa) = 18.87260 67.62622 90.69694
#
# Poissons Ratio (x) = 0.68621 0.83895
# Poissons Ratio (y) = 0.19150 0.38833
# Poissons Ratio (z) = 0.17457 0.28955
#
# Static dielectric constant tensor:
#      x y z
#    x 1.505200 0.000000 0.000000 
#    y 0.000000 1.462200 0.000000 
#    z 0.000000 0.000000 1.530960 
# 
# From -- ./inp_files/25228.got.cif
#   From: 2010.05.17/outbox.cif.g08.bks.cpg/sg46_13_cif.got.tgz:25228.got - 2010.06.03 19:58:25.
