data_PCOD9377074
_publ_section_title
;
Structure prediction by ZEFSAII (Michael W. Deem and Ramdas Pophale) SiO2 
 PCOD9377074
Probable space group: I B A 2
;
_chemical_formula_sum "Si O2"
_cell_formula_units_Z 36
_cell_length_a 4.854956
_cell_length_b 9.046911
_cell_length_c 26.452511
_cell_angle_alpha 90.000000
_cell_angle_beta 90.000000
_cell_angle_gamma 90.000000
_cell_volume 1161.856575
_symmetry_space_group_name_H-M "I B A 2"
_symmetry_group_IT_number 45
_symmetry_cell_setting 'orthorhombic'
loop_
_space_group_symop_operation_xyz
x,y,z
-x,-y,z
-x,y,1/2+z
x,-y,1/2+z
1/2+x,1/2+y,1/2+z
1/2-x,1/2-y,1/2+z
1/2-x,1/2+y,z
1/2+x,1/2-y,z
loop_
_atom_site_type_symbol
_atom_site_label
_atom_site_fract_x
_atom_site_fract_y
_atom_site_fract_z
Si Si1 0.500000 0.000000 0.045241
Si Si2 0.000000 0.500000 0.747117
Si Si3 0.206461 0.838961 0.454811
Si Si4 0.000000 0.000000 0.614811
Si Si5 0.715112 0.652745 0.342839
Si Si6 0.494796 0.717928 0.702019
O O1 0.741746 0.055934 0.081971
O O2 0.322750 0.096677 0.006238
O O3 0.796843 0.428251 0.792177
O O4 0.775698 0.654889 0.732600
O O5 0.380166 0.685351 0.455456
O O6 0.268633 0.904594 0.399518
O O7 0.093887 0.857628 0.648477
O O8 0.399372 0.699335 0.341436
O O9 0.696042 0.876668 0.701540
#
# Coordination Sequence:
#
# PCOD9377074 Si02
#       6
#     4   4   8   4   8   8
#     4  12  25  45  74  98 132 188 237 287 356 420
#     4  12  25  45  76 102 140 190 237 283 350 424
#     4  10  22  42  69 105 142 175 224 284 351 432
#     4  12  28  46  68 102 144 186 236 298 350 402
#     4  10  23  42  68 106 146 181 223 285 356 426
#     4  12  27  48  70  99 137 185 241 294 347 409
#
# _framework density 30.984888000000002
#
# number of rings (size 3 to 8) (size 9 to 14) (size 15 to 20)
#    0.000    0.889    0.000    6.000    0.000    8.000 
#    0.000    6.667    0.000    0.000    0.000    0.000 
#    0.000    3.556    0.000    0.000    0.000    0.000 
#
# Total GULP energy -100337.794710 kJ/mol
# GULP energy per Si atom -5574.321928 kJ/mol
# Density = 3.091437 g / cm^3
# Si number density = 30.984888 Si / 1000 Ang^3
#
#
#
# Elastic Constant Matrix: (Units=GPa)
#
#
# Indices 1 2 3 4 5 6 
#
# 1 242.0315 22.3448 38.6970 0.0000 0.0000 0.0000
# 2 22.3448 204.1391 101.3866 0.0000 0.0000 0.0000
# 3 38.6970 101.3866 272.7963 0.0000 0.0000 0.0000
# 4 0.0000 0.0000 0.0000 51.2919 0.0000 0.0000
# 5 0.0000 0.0000 0.0000 0.0000 63.5632 0.0000
# 6 0.0000 0.0000 0.0000 0.0000 0.0000 61.3787
#
#
#
# Elastic Compliance Matrix: (Units=1/GPa)
#
#
# Indices 1 2 3 4 5 6 
#
# 1 0.004234 -0.000203 -0.000525 0.000000 0.000000 0.000000
# 2 -0.000203 0.006017 -0.002208 0.000000 0.000000 0.000000
# 3 -0.000525 -0.002208 0.004561 0.000000 0.000000 0.000000
# 4 0.000000 0.000000 0.000000 0.019496 0.000000 0.000000
# 5 0.000000 0.000000 0.000000 0.000000 0.015732 0.000000
# 6 0.000000 0.000000 0.000000 0.000000 0.000000 0.016292
#
#
# Mechanical properties :
#
#
# Convention : Reuss Voigt Hill
#
# Bulk Modulus (GPa) = 111.84109 115.98038 113.91074
# Shear Modulus (GPa) = 66.50286 72.34935 69.42611
#
# Velocity S-wave (km/s) = 4.63784 4.83741 4.73868
# Velocity P-wave (km/s) = 8.05315 8.28935 8.17210
#
# Compressibility (1/GPa) = 0.00894126
#
# Stress axis : x y z
#
# Youngs Moduli (GPa) = 236.16131 166.19000 219.26283
#
# Poissons Ratio (x) = 0.03366 0.11520
# Poissons Ratio (y) = 0.04784 0.48405
# Poissons Ratio (z) = 0.12407 0.36688
#
# Static dielectric constant tensor:
#      x y z
#    x 2.462680 0.000000 0.000000 
#    y 0.000000 8.267620 0.000000 
#    z 0.000000 0.000000 2.288160 
# 
# From -- ./inp_files/9396.got.cif
#   From: 2010.05.17/outbox.cif.g08.bks.cpg/sg45_5_cif.got.tgz:9396.got - 2010.06.03 19:51:22.
