data_PCOD9377450
_publ_section_title
;
Structure prediction by ZEFSAII (Michael W. Deem and Ramdas Pophale) SiO2 
 PCOD9377450
Probable space group: I B A 2
;
_chemical_formula_sum "Si O2"
_cell_formula_units_Z 48
_cell_length_a 8.846237
_cell_length_b 21.096194
_cell_length_c 9.510561
_cell_angle_alpha 90.000000
_cell_angle_beta 90.000000
_cell_angle_gamma 90.000000
_cell_volume 1774.879267
_symmetry_space_group_name_H-M "I B A 2"
_symmetry_group_IT_number 45
_symmetry_cell_setting 'orthorhombic'
loop_
_space_group_symop_operation_xyz
x,y,z
-x,-y,z
-x,y,1/2+z
x,-y,1/2+z
1/2+x,1/2+y,1/2+z
1/2-x,1/2-y,1/2+z
1/2-x,1/2+y,z
1/2+x,1/2-y,z
loop_
_atom_site_type_symbol
_atom_site_label
_atom_site_fract_x
_atom_site_fract_y
_atom_site_fract_z
Si Si1 0.949336 0.397319 0.046090
Si Si2 0.058128 0.159858 0.994902
Si Si3 0.553470 0.431145 0.258246
Si Si4 0.215859 0.233353 0.610964
Si Si5 0.340655 0.013408 0.414259
Si Si6 0.494546 0.816492 0.281559
O O1 0.823584 0.444692 0.985520
O O2 0.925646 0.374819 0.202178
O O3 0.101693 0.438248 0.033418
O O4 0.972596 0.337819 0.940826
O O5 0.048575 0.112603 0.862240
O O6 0.893826 0.195169 0.005715
O O7 0.072589 0.115212 0.129361
O O8 0.186682 0.213426 0.026367
O O9 0.500000 0.500000 0.204117
O O10 0.699909 0.455208 0.343052
O O11 0.338325 0.193554 0.698924
O O12 0.103104 0.259994 0.732707
O O13 0.500000 0.000000 0.330612
#
# Coordination Sequence:
#
# PCOD9377450 Si02
#       6
#     8   8   8   8   8   8
#     4   9  22  39  67  89 129 167 227 285 337 435
#     4  11  27  46  73 103 151 184 259 298 376 451
#     4  12  26  47  70 110 148 195 236 311 381 448
#     4  10  26  42  70 102 132 196 230 316 360 432
#     4   8  22  42  67 101 121 188 227 284 347 430
#     4  11  22  41  63  93 131 172 231 290 358 421
#
# _framework density 27.044094000000001
#
# number of rings (size 3 to 8) (size 9 to 14) (size 15 to 20)
#    1.000    0.667    0.000    2.500    4.667   10.667 
#    6.000    0.000    0.000    0.000    0.000    0.000 
#    0.000    0.000    0.000    0.000    0.000    0.000 
#
# Total GULP energy -134285.053897 kJ/mol
# GULP energy per Si atom -5595.210579 kJ/mol
# Density = 2.698254 g / cm^3
# Si number density = 27.044094 Si / 1000 Ang^3
#
#
#
# Elastic Constant Matrix: (Units=GPa)
#
#
# Indices 1 2 3 4 5 6 
#
# 1 112.7982 33.4617 -2.5874 0.0001 0.0000 0.0001
# 2 33.4617 132.6452 9.1634 0.0000 0.0000 0.0000
# 3 -2.5874 9.1634 68.9542 0.0002 0.0000 0.0001
# 4 0.0001 0.0000 0.0002 38.9961 0.0000 0.0000
# 5 0.0000 0.0000 0.0000 0.0000 30.1376 0.0000
# 6 0.0001 0.0000 0.0001 0.0000 0.0000 45.0060
#
#
#
# Elastic Compliance Matrix: (Units=1/GPa)
#
#
# Indices 1 2 3 4 5 6 
#
# 1 0.009615 -0.002473 0.000689 0.000000 0.000000 0.000000
# 2 -0.002473 0.008245 -0.001188 0.000000 0.000000 0.000000
# 3 0.000689 -0.001188 0.014686 0.000000 0.000000 0.000000
# 4 0.000000 0.000000 0.000000 0.025644 0.000000 0.000000
# 5 0.000000 0.000000 0.000000 0.000000 0.033181 0.000000
# 6 0.000000 0.000000 0.000000 0.000000 0.000000 0.022219
#
#
# Mechanical properties :
#
#
# Convention : Reuss Voigt Hill
#
# Bulk Modulus (GPa) = 37.59168 43.83034 40.71101
# Shear Modulus (GPa) = 38.94039 41.11862 40.02950
#
# Velocity S-wave (km/s) = 3.79870 3.90350 3.85145
# Velocity P-wave (km/s) = 5.75938 6.04637 5.90462
#
# Compressibility (1/GPa) = 0.02660163
#
# Stress axis : x y z
#
# Youngs Moduli (GPa) = 104.00575 121.28725 68.09118
#
# Poissons Ratio (x) = 0.29996 -0.04694
# Poissons Ratio (y) = 0.25722 0.08092
# Poissons Ratio (z) = -0.07171 0.14415
#
# Static dielectric constant tensor:
#      x y z
#    x 2.183180 0.000000 0.000000 
#    y 0.000000 2.206490 0.000000 
#    z 0.000000 0.000000 2.046190 
# 
# From -- ./inp_files/3276.got.cif
#   From: 2010.05.17/outbox.cif.g08.bks.cpg/sg45_2_cif.got.tgz:3276.got - 2010.06.03 19:51:22.
