data_PCOD9377173
_publ_section_title
;
Structure prediction by ZEFSAII (Michael W. Deem and Ramdas Pophale) SiO2 
 PCOD9377173
Probable space group: I B A 2
;
_chemical_formula_sum "Si O2"
_cell_formula_units_Z 60
_cell_length_a 15.337024
_cell_length_b 18.389920
_cell_length_c 9.141986
_cell_angle_alpha 90.000000
_cell_angle_beta 90.000000
_cell_angle_gamma 90.000000
_cell_volume 2578.466474
_symmetry_space_group_name_H-M "I B A 2"
_symmetry_group_IT_number 45
_symmetry_cell_setting 'orthorhombic'
loop_
_space_group_symop_operation_xyz
x,y,z
-x,-y,z
-x,y,1/2+z
x,-y,1/2+z
1/2+x,1/2+y,1/2+z
1/2-x,1/2-y,1/2+z
1/2-x,1/2+y,z
1/2+x,1/2-y,z
loop_
_atom_site_type_symbol
_atom_site_label
_atom_site_fract_x
_atom_site_fract_y
_atom_site_fract_z
Si Si1 0.681140 0.127503 0.389660
Si Si2 0.619699 0.829938 0.569621
Si Si3 0.506881 0.663316 0.754073
Si Si4 0.797168 0.528462 0.988404
Si Si5 0.308287 0.535093 0.223444
Si Si6 0.433672 0.242891 0.030517
Si Si7 0.170261 0.829227 0.550262
Si Si8 0.000000 0.000000 0.245919
O O1 0.639014 0.148098 0.236367
O O2 0.645257 0.188399 0.501876
O O3 0.786442 0.137262 0.404370
O O4 0.657361 0.046306 0.440394
O O5 0.647498 0.899041 0.474251
O O6 0.519863 0.807337 0.547040
O O7 0.676168 0.757357 0.541419
O O8 0.552207 0.708604 0.883681
O O9 0.428592 0.708309 0.678169
O O10 0.571198 0.660854 0.611300
O O11 0.490975 0.581665 0.811643
O O12 0.708360 0.534108 0.894516
O O13 0.763537 0.516515 0.152047
O O14 0.287470 0.616574 0.169556
O O15 0.404243 0.509854 0.175585
#
# Coordination Sequence:
#
# PCOD9377173 Si02
#       8
#     8   8   8   8   8   8   8   4
#     4  11  23  46  69 101 138 185 220 298 341 421
#     4  11  24  45  70 102 136 184 225 289 353 411
#     4  10  23  43  66 106 140 182 228 291 332 433
#     4  11  24  44  67  99 138 174 240 282 346 411
#     4  10  23  41  64 101 134 178 226 288 327 432
#     4  11  23  45  69 102 144 171 242 285 348 413
#     4   9  22  41  68  93 139 171 236 264 349 411
#     4  10  24  42  70  94 146 182 222 268 368 386
#
# _framework density 23.269645000000001
#
# number of rings (size 3 to 8) (size 9 to 14) (size 15 to 20)
#    0.000    1.600    4.000    0.000    1.867   12.267 
#    2.400    1.333    0.000    0.000    0.000    0.000 
#    0.000    0.000    0.000    0.000    0.000    0.000 
#
# Total GULP energy -167056.569008 kJ/mol
# GULP energy per Si atom -5568.552300 kJ/mol
# Density = 2.321668 g / cm^3
# Si number density = 23.269645 Si / 1000 Ang^3
#
#
#
# Elastic Constant Matrix: (Units=GPa)
#
#
# Indices 1 2 3 4 5 6 
#
# 1 65.5069 34.7597 24.0331 0.0000 0.0000 0.0000
# 2 34.7597 189.9042 19.4167 0.0000 0.0000 0.0000
# 3 24.0331 19.4167 42.2147 0.0000 0.0000 0.0000
# 4 0.0000 0.0000 0.0000 23.0537 0.0000 0.0000
# 5 0.0000 0.0000 0.0000 0.0000 17.8284 0.0000
# 6 0.0000 0.0000 0.0000 0.0000 0.0000 30.8027
#
#
#
# Elastic Compliance Matrix: (Units=1/GPa)
#
#
# Indices 1 2 3 4 5 6 
#
# 1 0.020526 -0.002689 -0.010449 0.000000 0.000000 0.000000
# 2 -0.002689 0.005878 -0.001173 0.000000 0.000000 0.000000
# 3 -0.010449 -0.001173 0.030176 0.000000 0.000000 0.000000
# 4 0.000000 0.000000 0.000000 0.043377 0.000000 0.000000
# 5 0.000000 0.000000 0.000000 0.000000 0.056090 0.000000
# 6 0.000000 0.000000 0.000000 0.000000 0.000000 0.032465
#
#
# Mechanical properties :
#
#
# Convention : Reuss Voigt Hill
#
# Bulk Modulus (GPa) = 35.76606 50.44939 43.10773
# Shear Modulus (GPa) = 22.07971 28.96472 25.52222
#
# Velocity S-wave (km/s) = 3.08370 3.53192 3.31539
# Velocity P-wave (km/s) = 5.29930 6.19355 5.76379
#
# Compressibility (1/GPa) = 0.02795947
#
# Stress axis : x y z
#
# Youngs Moduli (GPa) = 48.71955 170.13002 33.13844
#
# Poissons Ratio (x) = 0.45742 0.34625
# Poissons Ratio (y) = 0.13099 0.03887
# Poissons Ratio (z) = 0.50906 0.19954
#
# Static dielectric constant tensor:
#      x y z
#    x 1.961510 0.000000 0.000000 
#    y 0.000000 1.927950 0.000000 
#    z 0.000000 0.000000 1.878470 
# 
# From -- ./inp_files/2154.got.cif
#   From: 2010.05.17/outbox.cif.g08.bks.cpg/sg45_2_cif.got.tgz:2154.got - 2010.06.03 19:51:22.
