data_PCOD9377255
_publ_section_title
;
Structure prediction by ZEFSAII (Michael W. Deem and Ramdas Pophale) SiO2 
 PCOD9377255
Probable space group: I B A 2
;
_chemical_formula_sum "Si O2"
_cell_formula_units_Z 48
_cell_length_a 16.878902
_cell_length_b 8.133200
_cell_length_c 14.395491
_cell_angle_alpha 90.000000
_cell_angle_beta 90.000000
_cell_angle_gamma 90.000000
_cell_volume 1976.205602
_symmetry_space_group_name_H-M "I B A 2"
_symmetry_group_IT_number 45
_symmetry_cell_setting 'orthorhombic'
loop_
_space_group_symop_operation_xyz
x,y,z
-x,-y,z
-x,y,1/2+z
x,-y,1/2+z
1/2+x,1/2+y,1/2+z
1/2-x,1/2-y,1/2+z
1/2-x,1/2+y,z
1/2+x,1/2-y,z
loop_
_atom_site_type_symbol
_atom_site_label
_atom_site_fract_x
_atom_site_fract_y
_atom_site_fract_z
Si Si1 0.073960 0.797271 0.436240
Si Si2 0.053073 0.669254 0.814656
Si Si3 0.216376 0.026650 0.487102
Si Si4 0.494015 0.299746 0.619080
Si Si5 0.172539 0.681766 0.107877
Si Si6 0.686489 0.077285 0.814810
O O1 0.125262 0.708570 0.357857
O O2 0.985734 0.791611 0.391110
O O3 0.057309 0.718570 0.536746
O O4 0.132496 0.941430 0.467983
O O5 0.141212 0.597467 0.823250
O O6 0.000000 0.500000 0.815112
O O7 0.044308 0.760964 0.717446
O O8 0.204796 0.143684 0.574824
O O9 0.241461 0.089085 0.385876
O O10 0.292370 0.924720 0.523502
O O11 0.500000 0.500000 0.606074
O O12 0.578797 0.209870 0.615885
O O13 0.201917 0.619914 0.207970
#
# Coordination Sequence:
#
# PCOD9377255 Si02
#       6
#     8   8   8   8   8   8
#     4  11  24  46  70 106 149 194 250 307 382 444
#     4  10  23  46  75 105 141 196 254 316 365 453
#     4  12  27  49  76 111 158 200 248 318 389 467
#     4  12  25  46  72 109 146 191 258 316 378 447
#     4  12  27  49  75 113 150 201 254 319 384 459
#     4  11  26  50  75 112 149 205 258 308 385 460
#
# _framework density 24.288969999999999
#
# number of rings (size 3 to 8) (size 9 to 14) (size 15 to 20)
#    0.000    0.667    6.667    1.000    4.667    2.667 
#    3.000    0.000    0.000    0.000    0.000    0.000 
#    0.000    0.000    0.000    0.000    0.000    0.000 
#
# Total GULP energy -133934.024067 kJ/mol
# GULP energy per Si atom -5580.584336 kJ/mol
# Density = 2.423369 g / cm^3
# Si number density = 24.288970 Si / 1000 Ang^3
#
#
#
# Elastic Constant Matrix: (Units=GPa)
#
#
# Indices 1 2 3 4 5 6 
#
# 1 63.5521 41.0743 64.3611 0.0000 0.0000 0.0000
# 2 41.0743 48.3241 45.7062 0.0000 0.0000 0.0000
# 3 64.3611 45.7062 190.4133 0.0000 0.0000 0.0000
# 4 0.0000 0.0000 0.0000 26.6999 0.0000 0.0000
# 5 0.0000 0.0000 0.0000 0.0000 73.6313 0.0000
# 6 0.0000 0.0000 0.0000 0.0000 0.0000 8.8374
#
#
#
# Elastic Compliance Matrix: (Units=1/GPa)
#
#
# Indices 1 2 3 4 5 6 
#
# 1 0.041292 -0.028327 -0.007157 0.000000 0.000000 0.000000
# 2 -0.028327 0.046205 -0.001516 0.000000 0.000000 0.000000
# 3 -0.007157 -0.001516 0.008035 0.000000 0.000000 0.000000
# 4 0.000000 0.000000 0.000000 0.037453 0.000000 0.000000
# 5 0.000000 0.000000 0.000000 0.000000 0.013581 0.000000
# 6 0.000000 0.000000 0.000000 0.000000 0.000000 0.113156
#
#
# Mechanical properties :
#
#
# Convention : Reuss Voigt Hill
#
# Bulk Modulus (GPa) = 46.44634 67.17473 56.81054
# Shear Modulus (GPa) = 14.66702 31.91023 23.28863
#
# Velocity S-wave (km/s) = 2.46001 3.62854 3.09983
# Velocity P-wave (km/s) = 5.21851 6.72841 6.02098
#
# Compressibility (1/GPa) = 0.02153022
#
# Stress axis : x y z
#
# Youngs Moduli (GPa) = 24.21786 21.64259 124.45761
#
# Poissons Ratio (x) = 0.61308 0.89078
# Poissons Ratio (y) = 0.68603 0.18868
# Poissons Ratio (z) = 0.17333 0.03281
#
# Static dielectric constant tensor:
#      x y z
#    x 1.971940 0.000000 0.000000 
#    y 0.000000 1.973260 0.000000 
#    z 0.000000 0.000000 1.856750 
# 
# From -- ./inp_files/6741.got.cif
#   From: 2010.05.17/outbox.cif.g08.bks.cpg/sg45_4_cif.got.tgz:6741.got - 2010.06.03 19:51:22.
