data_PCOD9377482
_publ_section_title
;
Structure prediction by ZEFSAII (Michael W. Deem and Ramdas Pophale) SiO2 
 PCOD9377482
Probable space group: I B A 2
;
_chemical_formula_sum "Si O2"
_cell_formula_units_Z 60
_cell_length_a 23.216710
_cell_length_b 12.323435
_cell_length_c 9.727522
_cell_angle_alpha 90.000000
_cell_angle_beta 90.000000
_cell_angle_gamma 90.000000
_cell_volume 2783.137590
_symmetry_space_group_name_H-M "I B A 2"
_symmetry_group_IT_number 45
_symmetry_cell_setting 'orthorhombic'
loop_
_space_group_symop_operation_xyz
x,y,z
-x,-y,z
-x,y,1/2+z
x,-y,1/2+z
1/2+x,1/2+y,1/2+z
1/2-x,1/2-y,1/2+z
1/2-x,1/2+y,z
1/2+x,1/2-y,z
loop_
_atom_site_type_symbol
_atom_site_label
_atom_site_fract_x
_atom_site_fract_y
_atom_site_fract_z
Si Si1 0.002893 0.851502 0.089800
Si Si2 0.084867 0.471890 0.843457
Si Si3 0.933824 0.369325 0.068696
Si Si4 0.299899 0.150459 0.098260
Si Si5 0.385940 0.759722 0.018408
Si Si6 0.221584 0.210645 0.855235
Si Si7 0.309082 0.924069 0.196349
Si Si8 0.500000 0.500000 0.842859
O O1 0.027872 0.733129 0.087899
O O2 0.021968 0.913196 0.228817
O O3 0.934060 0.824408 0.074484
O O4 0.026527 0.918337 0.957724
O O5 0.058893 0.449580 0.695741
O O6 0.148426 0.518278 0.805893
O O7 0.055659 0.565781 0.930197
O O8 0.087857 0.359974 0.929215
O O9 0.867492 0.330616 0.076278
O O10 0.281595 0.188835 0.250336
O O11 0.293625 0.020136 0.090639
O O12 0.263911 0.216085 0.985871
O O13 0.346566 0.825353 0.130303
O O14 0.341648 0.696912 0.918646
O O15 0.250863 0.117326 0.764814
#
# Coordination Sequence:
#
# PCOD9377482 Si02
#       8
#     8   8   8   8   8   8   8   4
#     4  11  27  49  76  97 138 183 242 285 354 412
#     4  11  21  41  68 104 149 170 221 283 364 411
#     4  11  23  43  71 104 138 186 217 289 361 425
#     4  11  24  41  68  98 143 182 226 282 350 403
#     4  12  23  43  68 105 136 179 228 291 343 425
#     4  12  23  41  67  97 138 188 226 275 348 415
#     4  11  22  42  65  96 142 178 216 288 347 402
#     4  10  26  54  70  90 138 190 226 308 334 388
#
# _framework density 21.558402000000001
#
# number of rings (size 3 to 8) (size 9 to 14) (size 15 to 20)
#    0.000    0.800    8.000    0.800    1.867    0.533 
#    4.800    1.333    0.000    0.000    0.000    0.000 
#    0.000    0.000    0.000    0.000    0.000    0.000 
#
# Total GULP energy -167306.705919 kJ/mol
# GULP energy per Si atom -5576.890197 kJ/mol
# Density = 2.150933 g / cm^3
# Si number density = 21.558402 Si / 1000 Ang^3
#
#
#
# Elastic Constant Matrix: (Units=GPa)
#
#
# Indices 1 2 3 4 5 6 
#
# 1 87.1343 32.6306 12.0902 0.0000 0.0000 0.0000
# 2 32.6306 67.7193 33.8455 0.0000 0.0000 0.0000
# 3 12.0902 33.8455 119.8329 0.0000 0.0000 0.0000
# 4 0.0000 0.0000 0.0000 30.1409 0.0000 0.0000
# 5 0.0000 0.0000 0.0000 0.0000 25.8690 0.0000
# 6 0.0000 0.0000 0.0000 0.0000 0.0000 39.8504
#
#
#
# Elastic Compliance Matrix: (Units=1/GPa)
#
#
# Indices 1 2 3 4 5 6 
#
# 1 0.014037 -0.007051 0.000575 0.000000 0.000000 0.000000
# 2 -0.007051 0.020736 -0.005145 0.000000 0.000000 0.000000
# 3 0.000575 -0.005145 0.009740 0.000000 0.000000 0.000000
# 4 0.000000 0.000000 0.000000 0.033178 0.000000 0.000000
# 5 0.000000 0.000000 0.000000 0.000000 0.038656 0.000000
# 6 0.000000 0.000000 0.000000 0.000000 0.000000 0.025094
#
#
# Mechanical properties :
#
#
# Convention : Reuss Voigt Hill
#
# Bulk Modulus (GPa) = 47.01261 47.97991 47.49626
# Shear Modulus (GPa) = 29.10795 32.24674 30.67734
#
# Velocity S-wave (km/s) = 3.67848 3.87173 3.77634
# Velocity P-wave (km/s) = 6.31633 6.50317 6.41043
#
# Compressibility (1/GPa) = 0.02127089
#
# Stress axis : x y z
#
# Youngs Moduli (GPa) = 71.23834 48.22496 102.66810
#
# Poissons Ratio (x) = 0.34006 -0.05907
# Poissons Ratio (y) = 0.50234 0.52825
# Poissons Ratio (z) = -0.04099 0.24813
#
# Static dielectric constant tensor:
#      x y z
#    x 1.816790 0.000000 0.000000 
#    y 0.000000 1.786160 0.000000 
#    z 0.000000 0.000000 1.826160 
# 
# From -- ./inp_files/2529.got.cif
#   From: 2010.05.17/outbox.cif.g08.bks.cpg/sg45_2_cif.got.tgz:2529.got - 2010.06.03 19:51:22.
