data_PCOD9377298
_publ_section_title
;
Structure prediction by ZEFSAII (Michael W. Deem and Ramdas Pophale) SiO2 
 PCOD9377298
Probable space group: I B A 2
;
_chemical_formula_sum "Si O2"
_cell_formula_units_Z 56
_cell_length_a 22.075332
_cell_length_b 13.262077
_cell_length_c 8.703177
_cell_angle_alpha 90.000000
_cell_angle_beta 90.000000
_cell_angle_gamma 90.000000
_cell_volume 2547.983463
_symmetry_space_group_name_H-M "I B A 2"
_symmetry_group_IT_number 45
_symmetry_cell_setting 'orthorhombic'
loop_
_space_group_symop_operation_xyz
x,y,z
-x,-y,z
-x,y,1/2+z
x,-y,1/2+z
1/2+x,1/2+y,1/2+z
1/2-x,1/2-y,1/2+z
1/2-x,1/2+y,z
1/2+x,1/2-y,z
loop_
_atom_site_type_symbol
_atom_site_label
_atom_site_fract_x
_atom_site_fract_y
_atom_site_fract_z
Si Si1 0.500000 0.000000 0.467340
Si Si2 0.416700 0.458270 0.831973
Si Si3 0.703417 0.964942 0.053204
Si Si4 0.128492 0.817978 0.343661
Si Si5 0.236641 0.634015 0.743852
Si Si6 0.921016 0.607847 0.710649
Si Si7 0.500000 0.500000 0.086635
Si Si8 0.316510 0.660855 0.180752
O O1 0.552431 0.954153 0.356991
O O2 0.471762 0.913045 0.578183
O O3 0.409466 0.579045 0.829018
O O4 0.460332 0.429001 0.693326
O O5 0.353879 0.407057 0.798750
O O6 0.452783 0.437332 0.985743
O O7 0.640135 0.935417 0.131490
O O8 0.757176 0.899371 0.129121
O O9 0.719739 0.080886 0.084850
O O10 0.710953 0.939525 0.874901
O O11 0.192428 0.842434 0.259635
O O12 0.095904 0.720210 0.271626
O O13 0.146778 0.811724 0.524521
O O14 0.202111 0.737669 0.762582
#
# Coordination Sequence:
#
# PCOD9377298 Si02
#       8
#     4   8   8   8   8   8   4   8
#     4  10  26  48  76  94 146 188 248 290 344 396
#     4  11  22  46  68 100 140 181 231 294 341 425
#     4  11  24  43  73 103 141 179 225 298 358 416
#     4  11  24  43  71 104 142 181 231 292 357 425
#     4  11  25  42  70 111 141 183 226 287 371 429
#     4  11  24  49  70 105 136 190 234 295 343 426
#     4  10  24  42  68  94 134 188 230 276 350 400
#     4  11  24  44  70 108 141 185 226 293 363 429
#
# _framework density 21.978164
#
# number of rings (size 3 to 8) (size 9 to 14) (size 15 to 20)
#    0.000    1.143    4.286    0.857    4.000    2.286 
#    0.000    0.000    0.000    0.000    0.000    0.000 
#    0.000    0.000    0.000    0.000    0.000    0.000 
#
# Total GULP energy -156440.380963 kJ/mol
# GULP energy per Si atom -5587.156463 kJ/mol
# Density = 2.192814 g / cm^3
# Si number density = 21.978164 Si / 1000 Ang^3
#
#
#
# Elastic Constant Matrix: (Units=GPa)
#
#
# Indices 1 2 3 4 5 6 
#
# 1 98.5502 25.7815 33.5798 0.0000 0.0000 0.0000
# 2 25.7815 85.9660 5.0603 0.0000 0.0000 0.0000
# 3 33.5798 5.0603 53.9194 0.0000 0.0000 0.0000
# 4 0.0000 0.0000 0.0000 25.0431 0.0000 0.0000
# 5 0.0000 0.0000 0.0000 0.0000 31.6779 0.0000
# 6 0.0000 0.0000 0.0000 0.0000 0.0000 26.7771
#
#
#
# Elastic Compliance Matrix: (Units=1/GPa)
#
#
# Indices 1 2 3 4 5 6 
#
# 1 0.013957 -0.003695 -0.008346 0.000000 0.000000 0.000000
# 2 -0.003695 0.012675 0.001111 0.000000 0.000000 0.000000
# 3 -0.008346 0.001111 0.023639 0.000000 0.000000 0.000000
# 4 0.000000 0.000000 0.000000 0.039931 0.000000 0.000000
# 5 0.000000 0.000000 0.000000 0.000000 0.031568 0.000000
# 6 0.000000 0.000000 0.000000 0.000000 0.000000 0.037345
#
#
# Mechanical properties :
#
#
# Convention : Reuss Voigt Hill
#
# Bulk Modulus (GPa) = 35.19376 40.80878 38.00127
# Shear Modulus (GPa) = 26.25431 28.30056 27.27743
#
# Velocity S-wave (km/s) = 3.46000 3.59230 3.52677
# Velocity P-wave (km/s) = 5.65773 5.98451 5.82341
#
# Compressibility (1/GPa) = 0.02841413
#
# Stress axis : x y z
#
# Youngs Moduli (GPa) = 71.64704 78.89478 42.30239
#
# Poissons Ratio (x) = 0.29148 0.35304
# Poissons Ratio (y) = 0.26471 -0.04701
# Poissons Ratio (z) = 0.59794 -0.08768
#
# Static dielectric constant tensor:
#      x y z
#    x 1.934360 0.000000 0.000000 
#    y 0.000000 1.768450 0.000000 
#    z 0.000000 0.000000 1.860830 
# 
# From -- ./inp_files/2357.got.cif
#   From: 2010.05.17/outbox.cif.g08.bks.cpg/sg45_2_cif.got.tgz:2357.got - 2010.06.03 19:51:22.
