data_PCOD9377573
_publ_section_title
;
Structure prediction by ZEFSAII (Michael W. Deem and Ramdas Pophale) SiO2 
 PCOD9377573
Probable space group: I B A 2
;
_chemical_formula_sum "Si O2"
_cell_formula_units_Z 56
_cell_length_a 5.326051
_cell_length_b 19.504005
_cell_length_c 24.334798
_cell_angle_alpha 90.000000
_cell_angle_beta 90.000000
_cell_angle_gamma 90.000000
_cell_volume 2527.882398
_symmetry_space_group_name_H-M "I B A 2"
_symmetry_group_IT_number 45
_symmetry_cell_setting 'orthorhombic'
loop_
_space_group_symop_operation_xyz
x,y,z
-x,-y,z
-x,y,1/2+z
x,-y,1/2+z
1/2+x,1/2+y,1/2+z
1/2-x,1/2-y,1/2+z
1/2-x,1/2+y,z
1/2+x,1/2-y,z
loop_
_atom_site_type_symbol
_atom_site_label
_atom_site_fract_x
_atom_site_fract_y
_atom_site_fract_z
Si Si1 0.931179 0.296899 0.177570
Si Si2 0.937106 0.793213 0.493216
Si Si3 0.832537 0.436440 0.712255
Si Si4 0.595649 0.068868 0.467213
Si Si5 0.097467 0.903993 0.906247
Si Si6 0.500000 0.500000 0.126523
Si Si7 0.762805 0.874679 0.071363
Si Si8 0.500000 0.500000 0.307037
O O1 0.669144 0.254707 0.186264
O O2 0.874845 0.329920 0.117427
O O3 0.013028 0.365422 0.212392
O O4 0.178187 0.745399 0.497359
O O5 0.978692 0.843819 0.545801
O O6 0.947389 0.828682 0.432556
O O7 0.616506 0.440433 0.666003
O O8 0.708440 0.464372 0.768314
O O9 0.000000 0.500000 0.693562
O O10 0.384140 0.084282 0.423154
O O11 0.603775 0.122011 0.515806
O O12 0.864362 0.060857 0.438876
O O13 0.500000 0.000000 0.493768
O O14 0.081895 0.936571 0.845894
O O15 0.682216 0.452408 0.090607
#
# Coordination Sequence:
#
# PCOD9377573 Si02
#       8
#     8   8   8   8   8   4   8   4
#     4  12  27  49  74 107 154 200 249 300 381 462
#     4  11  24  44  64  99 150 194 241 286 352 451
#     4  11  26  49  75 109 141 189 252 336 375 442
#     4  11  23  38  63 105 147 174 235 288 356 425
#     4  11  24  45  69 102 133 183 233 303 364 436
#     4  11  24  45  68 112 156 191 260 313 380 430
#     4  11  25  40  73 103 153 207 243 296 364 462
#     4  11  26  47  80 104 132 179 252 317 402 440
#
# _framework density 22.152927999999999
#
# number of rings (size 3 to 8) (size 9 to 14) (size 15 to 20)
#    0.000    0.857    2.857    3.429   10.000    3.429 
#    0.000    1.429    0.000    0.000    0.000    0.000 
#    0.000    0.000    0.000    0.000    0.000    0.000 
#
# Total GULP energy -155945.164053 kJ/mol
# GULP energy per Si atom -5569.470145 kJ/mol
# Density = 2.210251 g / cm^3
# Si number density = 22.152928 Si / 1000 Ang^3
#
#
#
# Elastic Constant Matrix: (Units=GPa)
#
#
# Indices 1 2 3 4 5 6 
#
# 1 119.4154 44.2847 26.5963 0.0000 0.0000 0.0000
# 2 44.2847 111.2267 29.2446 0.0000 0.0000 0.0000
# 3 26.5963 29.2446 98.5593 0.0000 0.0000 0.0000
# 4 0.0000 0.0000 0.0000 20.1530 0.0000 0.0000
# 5 0.0000 0.0000 0.0000 0.0000 28.9795 0.0000
# 6 0.0000 0.0000 0.0000 0.0000 0.0000 52.2717
#
#
#
# Elastic Compliance Matrix: (Units=1/GPa)
#
#
# Indices 1 2 3 4 5 6 
#
# 1 0.010068 -0.003573 -0.001657 0.000000 0.000000 0.000000
# 2 -0.003573 0.011019 -0.002306 0.000000 0.000000 0.000000
# 3 -0.001657 -0.002306 0.011277 0.000000 0.000000 0.000000
# 4 0.000000 0.000000 0.000000 0.049621 0.000000 0.000000
# 5 0.000000 0.000000 0.000000 0.000000 0.034507 0.000000
# 6 0.000000 0.000000 0.000000 0.000000 0.000000 0.019131
#
#
# Mechanical properties :
#
#
# Convention : Reuss Voigt Hill
#
# Bulk Modulus (GPa) = 57.82211 58.82808 58.32510
# Shear Modulus (GPa) = 31.95733 35.55256 33.75495
#
# Velocity S-wave (km/s) = 3.80225 4.01043 3.90773
# Velocity P-wave (km/s) = 6.74048 6.93237 6.83710
#
# Compressibility (1/GPa) = 0.01729442
#
# Stress axis : x y z
#
# Youngs Moduli (GPa) = 99.32314 90.74894 88.67346
#
# Poissons Ratio (x) = 0.32425 0.14691
# Poissons Ratio (y) = 0.35488 0.20444
# Poissons Ratio (z) = 0.16455 0.20922
#
# Static dielectric constant tensor:
#      x y z
#    x 0.135370 0.000000 0.000000 
#    y 0.000000 2.050560 0.000000 
#    z 0.000000 0.000000 1.805280 
# 
# From -- ./inp_files/9448.got.cif
#   From: 2010.05.17/outbox.cif.g08.bks.cpg/sg45_5_cif.got.tgz:9448.got - 2010.06.03 19:51:22.
