data_PCOD9377819
_publ_section_title
;
Structure prediction by ZEFSAII (Michael W. Deem and Ramdas Pophale) SiO2 
 PCOD9377819
Probable space group: I M A 2
;
_chemical_formula_sum "Si O2"
_cell_formula_units_Z 64
_cell_length_a 18.049411
_cell_length_b 9.990156
_cell_length_c 15.115439
_cell_angle_alpha 90.000000
_cell_angle_beta 90.000000
_cell_angle_gamma 90.000000
_cell_volume 2725.562023
_symmetry_space_group_name_H-M "I M A 2"
_symmetry_group_IT_number 46
_symmetry_cell_setting 'orthorhombic'
loop_
_space_group_symop_operation_xyz
x,y,z
-x,-y,z
1/2-x,y,z
1/2+x,-y,z
1/2+x,1/2+y,1/2+z
1/2-x,1/2-y,1/2+z
-x,1/2+y,1/2+z
x,1/2-y,1/2+z
loop_
_atom_site_type_symbol
_atom_site_label
_atom_site_fract_x
_atom_site_fract_y
_atom_site_fract_z
Si Si1 0.336674 0.941187 0.125000
Si Si2 0.466621 0.651302 0.516872
Si Si3 0.123887 0.204439 0.017843
Si Si4 0.533379 0.348698 0.312170
Si Si5 0.664979 0.494813 0.010402
Si Si6 0.123887 0.295561 0.311199
Si Si7 0.335021 0.994813 0.318639
Si Si8 0.163326 0.941187 0.704042
O O1 0.250000 0.904069 0.122012
O O2 0.344204 0.088698 0.079944
O O3 0.365661 0.946782 0.225431
O O4 0.391217 0.846911 0.070302
O O5 0.500000 0.500000 0.525249
O O6 0.538430 0.736297 0.543456
O O7 0.450410 0.675842 0.414521
O O8 0.165857 0.343942 0.018874
O O9 0.123479 0.156575 0.914521
O O10 0.500000 0.500000 0.303792
O O11 0.461570 0.263703 0.285585
O O12 0.608783 0.346911 0.258740
O O13 0.750000 0.447880 0.007493
O O14 0.634339 0.446782 0.103611
O O15 0.629743 0.463615 0.914521
O O16 0.165857 0.156058 0.310168
O O17 0.155796 0.411302 0.249098
O O18 0.250000 0.947880 0.321549
O O19 0.250000 0.904069 0.707030
#
# Coordination Sequence:
#
# PCOD9377819 Si02
#       8
#     8   8   8   8   8   8   8   8
#     4  10  17  24  38  60  84 107 131 163 205 249
#     4   8  15  26  38  54  79 110 138 164 199 244
#     4   9  16  26  39  55  80 111 137 164 201 245
#     4   8  15  26  38  54  79 110 138 164 199 244
#     4   9  17  27  39  59  86 112 137 165 199 242
#     4   9  16  26  39  55  80 111 137 164 201 245
#     4   9  17  27  39  59  86 112 137 165 199 242
#     4  10  17  24  38  60  84 107 131 163 205 249
#
# _framework density 23.481396
#
# number of rings (size 3 to 8) (size 9 to 14) (size 15 to 20)
#    0.000    3.000    0.000    3.750    0.000    5.000 
#    0.000    0.000    0.000    6.750    0.000    0.000 
#    0.000   38.000    0.000    9.750    0.000    5.000 
#
# Total GULP energy -178672.497940 kJ/mol
# GULP energy per Si atom -5583.515561 kJ/mol
# Density = 2.342795 g / cm^3
# Si number density = 23.481396 Si / 1000 Ang^3
#
#
#
# Elastic Constant Matrix: (Units=GPa)
#
#
# Indices 1 2 3 4 5 6 
#
# 1 116.9045 14.1549 61.1172 0.0000 0.0000 0.0000
# 2 14.1549 57.4613 20.8663 0.0000 0.0000 0.0000
# 3 61.1172 20.8663 155.5539 0.0000 0.0000 0.0000
# 4 0.0000 0.0000 0.0000 -4.9091 0.0000 0.0000
# 5 0.0000 0.0000 0.0000 0.0000 115.6229 0.0000
# 6 0.0000 0.0000 0.0000 0.0000 0.0000 7.4349
#
#
#
# Elastic Compliance Matrix: (Units=1/GPa)
#
#
# Indices 1 2 3 4 5 6 
#
# 1 0.010841 -0.001181 -0.004101 0.000000 0.000000 0.000000
# 2 -0.001181 0.018423 -0.002007 0.000000 0.000000 0.000000
# 3 -0.004101 -0.002007 0.008309 0.000000 0.000000 0.000000
# 4 0.000000 0.000000 0.000000 -0.203705 0.000000 0.000000
# 5 0.000000 0.000000 0.000000 0.000000 0.008649 0.000000
# 6 0.000000 0.000000 0.000000 0.000000 0.000000 0.134502
#
#
# Mechanical properties :
#
#
# Convention : Reuss Voigt Hill
#
# Bulk Modulus (GPa) = 43.48929 58.02184 50.75556
# Shear Modulus (GPa) = -6780.28340 39.21515 -3370.53413
#
# Velocity S-wave (km/s) = -53.79388 4.09106 -37.92786
# Velocity P-wave (km/s) = 61.96624 6.86142 43.54730
#
# Compressibility (1/GPa) = 0.02299417
#
# Stress axis : x y z
#
# Youngs Moduli (GPa) = 92.24248 54.28025 120.34920
#
# Poissons Ratio (x) = 0.06412 0.49355
# Poissons Ratio (y) = 0.10897 0.24156
# Poissons Ratio (z) = 0.37828 0.10895
#
# Static dielectric constant tensor:
#      x y z
#    x 1.924260 0.000000 0.000000 
#    y 0.000000 1.890260 0.000000 
#    z 0.000000 0.000000 1.901440 
# 
# From -- ./inp_files/16194.got.cif
#   From: 2010.05.17/outbox.cif.g08.bks.cpg/sg46_9_cif.got.tgz:16194.got - 2010.06.03 19:58:25.
