data_PCOD9377994
_publ_section_title
;
Structure prediction by ZEFSAII (Michael W. Deem and Ramdas Pophale) SiO2 
 PCOD9377994
Probable space group: I M A 2
;
_chemical_formula_sum "Si O2"
_cell_formula_units_Z 64
_cell_length_a 31.263747
_cell_length_b 26.173786
_cell_length_c 5.275057
_cell_angle_alpha 90.000000
_cell_angle_beta 90.000000
_cell_angle_gamma 90.000000
_cell_volume 4316.529682
_symmetry_space_group_name_H-M "I M A 2"
_symmetry_group_IT_number 46
_symmetry_cell_setting 'orthorhombic'
loop_
_space_group_symop_operation_xyz
x,y,z
-x,-y,z
1/2-x,y,z
1/2+x,-y,z
1/2+x,1/2+y,1/2+z
1/2-x,1/2-y,1/2+z
-x,1/2+y,1/2+z
x,1/2-y,1/2+z
loop_
_atom_site_type_symbol
_atom_site_label
_atom_site_fract_x
_atom_site_fract_y
_atom_site_fract_z
Si Si1 0.799587 0.626019 0.563470
Si Si2 0.700166 0.939691 0.554806
Si Si3 0.931319 0.476885 0.587351
Si Si4 0.060386 0.384726 0.074060
Si Si5 0.175700 0.268486 0.352144
Si Si6 0.579097 0.728829 0.218076
Si Si7 0.015078 0.082607 0.073059
Si Si8 0.614231 0.509688 0.085070
O O1 0.750000 0.641631 0.588285
O O2 0.802677 0.587360 0.328050
O O3 0.824708 0.676031 0.478794
O O4 0.812070 0.599012 0.825572
O O5 0.750000 0.954051 0.512147
O O6 0.664935 0.983719 0.559982
O O7 0.965010 0.430579 0.588455
O O8 0.901691 0.482331 0.340428
O O9 0.960115 0.528332 0.583637
O O10 0.904604 0.480426 0.844022
O O11 0.080838 0.329630 0.126977
O O12 0.093741 0.432410 0.082519
O O13 0.027607 0.393797 0.304468
O O14 0.035111 0.386790 0.808755
O O15 0.196252 0.233138 0.571190
O O16 0.127444 0.252778 0.279737
O O17 0.558415 0.738045 0.493271
#
# Coordination Sequence:
#
# PCOD9377994 Si02
#       8
#     8   8   8   8   8   8   8   8
#     4  10  20  32  44  56  72  93 121 163 207 249
#     4  10  20  32  44  59  78 100 129 163 196 233
#     4   9  17  28  42  63  85 100 120 154 195 241
#     4  10  18  28  44  60  77 106 133 158 201 248
#     4  10  20  31  43  56  71  92 120 162 210 252
#     4  10  20  31  41  56  77 100 131 168 199 230
#     4   9  17  28  42  62  84 101 122 154 195 243
#     4  10  18  28  45  62  78 104 130 156 199 248
#
# _framework density 14.826725
#
# number of rings (size 3 to 8) (size 9 to 14) (size 15 to 20)
#    0.000    2.250    0.000    3.750    0.000    7.500 
#    0.000    0.000    0.000    0.000    0.000    0.000 
#    0.000    0.000    0.000    0.000    0.000    0.000 
#
# Total GULP energy -178301.692314 kJ/mol
# GULP energy per Si atom -5571.927885 kJ/mol
# Density = 1.479298 g / cm^3
# Si number density = 14.826725 Si / 1000 Ang^3
#
#
#
# Elastic Constant Matrix: (Units=GPa)
#
#
# Indices 1 2 3 4 5 6 
#
# 1 59.0397 14.0244 30.2102 0.0000 0.0000 0.0000
# 2 14.0244 13.1902 11.6829 0.0000 0.0000 0.0000
# 3 30.2102 11.6829 113.1338 0.0000 0.0000 0.0000
# 4 0.0000 0.0000 0.0000 14.7636 0.0000 0.0000
# 5 0.0000 0.0000 0.0000 0.0000 11.9210 0.0000
# 6 0.0000 0.0000 0.0000 0.0000 0.0000 33.2547
#
#
#
# Elastic Compliance Matrix: (Units=1/GPa)
#
#
# Indices 1 2 3 4 5 6 
#
# 1 0.024361 -0.022167 -0.004216 0.000000 0.000000 0.000000
# 2 -0.022167 0.103617 -0.004781 0.000000 0.000000 0.000000
# 3 -0.004216 -0.004781 0.010459 0.000000 0.000000 0.000000
# 4 0.000000 0.000000 0.000000 0.067734 0.000000 0.000000
# 5 0.000000 0.000000 0.000000 0.000000 0.083885 0.000000
# 6 0.000000 0.000000 0.000000 0.000000 0.000000 0.030071
#
#
# Mechanical properties :
#
#
# Convention : Reuss Voigt Hill
#
# Bulk Modulus (GPa) = 13.13911 33.02206 23.08059
# Shear Modulus (GPa) = 12.26020 20.61762 16.43891
#
# Velocity S-wave (km/s) = 2.87870 3.73308 3.33338
# Velocity P-wave (km/s) = 4.46433 6.39543 5.51506
#
# Compressibility (1/GPa) = 0.07610866
#
# Stress axis : x y z
#
# Youngs Moduli (GPa) = 41.04992 9.65093 95.61537
#
# Poissons Ratio (x) = 0.21393 0.40311
# Poissons Ratio (y) = 0.90995 0.45712
# Poissons Ratio (z) = 0.17306 0.04614
#
# Static dielectric constant tensor:
#      x y z
#    x 1.507000 0.000000 0.000000 
#    y 0.000000 1.478740 0.000000 
#    z 0.000000 0.000000 1.580610 
# 
# From -- ./inp_files/2639.got.cif
#   From: 2010.05.17/outbox.cif.g08.bks.cpg/sg46_2_cif.got.tgz:2639.got - 2010.06.03 19:58:25.
