data_PCOD9377363
_publ_section_title
;
Structure prediction by ZEFSAII (Michael W. Deem and Ramdas Pophale) SiO2 
 PCOD9377363
Probable space group: I B A 2
;
_chemical_formula_sum "Si O2"
_cell_formula_units_Z 32
_cell_length_a 8.945334
_cell_length_b 9.920870
_cell_length_c 14.616491
_cell_angle_alpha 90.000000
_cell_angle_beta 90.000000
_cell_angle_gamma 90.000000
_cell_volume 1297.147739
_symmetry_space_group_name_H-M "I B A 2"
_symmetry_group_IT_number 45
_symmetry_cell_setting 'orthorhombic'
loop_
_space_group_symop_operation_xyz
x,y,z
-x,-y,z
-x,y,1/2+z
x,-y,1/2+z
1/2+x,1/2+y,1/2+z
1/2-x,1/2-y,1/2+z
1/2-x,1/2+y,z
1/2+x,1/2-y,z
loop_
_atom_site_type_symbol
_atom_site_label
_atom_site_fract_x
_atom_site_fract_y
_atom_site_fract_z
Si Si1 0.156935 0.438647 0.250000
Si Si2 0.874101 0.417150 0.056527
Si Si3 0.586939 0.284238 0.980617
Si Si4 0.325892 0.656778 0.348164
O O1 0.153799 0.490118 0.145300
O O2 0.288758 0.519820 0.297705
O O3 0.169292 0.282044 0.275827
O O4 0.000000 0.500000 0.285697
O O5 0.000000 0.500000 0.000481
O O6 0.710780 0.385373 0.019886
O O7 0.972302 0.277676 0.057557
O O8 0.476239 0.342165 0.905333
O O9 0.696373 0.186608 0.922357
#
# Coordination Sequence:
#
# PCOD9377363 Si02
#       4
#     8   8   8   8
#     4  11  25  47  73 108 156 200 247 323 385 462
#     4  10  25  46  75 106 158 196 258 318 390 453
#     4  10  24  45  75 108 147 203 258 312 382 463
#     4  11  24  46  75 108 149 200 258 311 390 456
#
# _framework density 24.669509000000001
#
# number of rings (size 3 to 8) (size 9 to 14) (size 15 to 20)
#    0.000    1.500    2.500    0.000   14.000    1.000 
#    4.500    0.000    0.000    0.000    0.000    0.000 
#    0.000    0.000    0.000    0.000    0.000    0.000 
#
# Total GULP energy -89273.559091 kJ/mol
# GULP energy per Si atom -5579.597443 kJ/mol
# Density = 2.461336 g / cm^3
# Si number density = 24.669509 Si / 1000 Ang^3
#
#
#
# Elastic Constant Matrix: (Units=GPa)
#
#
# Indices 1 2 3 4 5 6 
#
# 1 205.0569 57.4889 61.3084 0.0000 0.0000 0.0000
# 2 57.4889 107.5832 50.1437 0.0000 0.0000 0.0000
# 3 61.3084 50.1437 128.7301 0.0000 0.0000 0.0000
# 4 0.0000 0.0000 0.0000 12.4281 0.0000 0.0000
# 5 0.0000 0.0000 0.0000 0.0000 39.2405 0.0000
# 6 0.0000 0.0000 0.0000 0.0000 0.0000 50.9763
#
#
#
# Elastic Compliance Matrix: (Units=1/GPa)
#
#
# Indices 1 2 3 4 5 6 
#
# 1 0.006134 -0.002341 -0.002009 0.000000 0.000000 0.000000
# 2 -0.002341 0.012251 -0.003657 0.000000 0.000000 0.000000
# 3 -0.002009 -0.003657 0.010150 0.000000 0.000000 0.000000
# 4 0.000000 0.000000 0.000000 0.080463 0.000000 0.000000
# 5 0.000000 0.000000 0.000000 0.000000 0.025484 0.000000
# 6 0.000000 0.000000 0.000000 0.000000 0.000000 0.019617
#
#
# Mechanical properties :
#
#
# Convention : Reuss Voigt Hill
#
# Bulk Modulus (GPa) = 79.87727 86.58356 83.23042
# Shear Modulus (GPa) = 28.68848 38.69091 33.68969
#
# Velocity S-wave (km/s) = 3.41385 3.96456 3.69947
# Velocity P-wave (km/s) = 6.92737 7.49203 7.21523
#
# Compressibility (1/GPa) = 0.01251921
#
# Stress axis : x y z
#
# Youngs Moduli (GPa) = 163.03089 81.62828 98.52595
#
# Poissons Ratio (x) = 0.19111 0.19797
# Poissons Ratio (y) = 0.38169 0.36030
# Poissons Ratio (z) = 0.32758 0.29851
#
# Static dielectric constant tensor:
#      x y z
#    x 2.035920 0.000000 0.000000 
#    y 0.000000 2.131370 0.000000 
#    z 0.000000 0.000000 2.023890 
# 
# From -- ./inp_files/5361.got.cif
#   From: 2010.05.17/outbox.cif.g08.bks.cpg/sg45_3_cif.got.tgz:5361.got - 2010.06.03 19:51:22.
