data_PCOD9377240
_publ_section_title
;
Structure prediction by ZEFSAII (Michael W. Deem and Ramdas Pophale) SiO2 
 PCOD9377240
Probable space group: I B A 2
;
_chemical_formula_sum "Si O2"
_cell_formula_units_Z 56
_cell_length_a 19.350768
_cell_length_b 10.477011
_cell_length_c 10.530165
_cell_angle_alpha 90.000000
_cell_angle_beta 90.000000
_cell_angle_gamma 90.000000
_cell_volume 2134.866795
_symmetry_space_group_name_H-M "I B A 2"
_symmetry_group_IT_number 45
_symmetry_cell_setting 'orthorhombic'
loop_
_space_group_symop_operation_xyz
x,y,z
-x,-y,z
-x,y,1/2+z
x,-y,1/2+z
1/2+x,1/2+y,1/2+z
1/2-x,1/2-y,1/2+z
1/2-x,1/2+y,z
1/2+x,1/2-y,z
loop_
_atom_site_type_symbol
_atom_site_label
_atom_site_fract_x
_atom_site_fract_y
_atom_site_fract_z
Si Si1 0.500000 0.000000 0.673600
Si Si2 0.967312 0.250810 0.532934
Si Si3 0.290611 0.080514 0.887175
Si Si4 0.678738 0.245651 0.165348
Si Si5 0.153812 0.986056 0.263607
Si Si6 0.500000 0.500000 0.681531
Si Si7 0.676661 0.265083 0.585320
Si Si8 0.112069 0.620596 0.323898
O O1 0.505011 0.124295 0.586018
O O2 0.565245 0.008891 0.765508
O O3 0.894422 0.250957 0.603402
O O4 0.942407 0.282105 0.390313
O O5 0.002159 0.122756 0.586200
O O6 0.305447 0.118861 0.742080
O O7 0.205628 0.071247 0.872274
O O8 0.329105 0.945439 0.910709
O O9 0.340356 0.182747 0.961888
O O10 0.682063 0.371162 0.252207
O O11 0.741965 0.257906 0.071462
O O12 0.069830 0.996861 0.268386
O O13 0.163568 0.910076 0.128528
O O14 0.649492 0.193077 0.710110
#
# Coordination Sequence:
#
# PCOD9377240 Si02
#       8
#     4   8   8   8   8   4   8   8
#     4  12  24  46  74 112 150 204 270 330 386 476
#     4  11  25  47  78 108 160 208 263 330 395 484
#     4  11  24  44  75 114 151 204 265 340 388 459
#     4  10  23  45  69 109 144 196 257 317 395 456
#     4  10  23  46  76 109 156 204 261 322 395 482
#     4  10  24  52  76 118 168 222 264 318 414 512
#     4  11  25  43  73 109 148 192 261 326 390 462
#     4  12  25  45  75 114 151 206 263 327 396 462
#
# _framework density 26.231145000000001
#
# number of rings (size 3 to 8) (size 9 to 14) (size 15 to 20)
#    0.000    1.143    2.857    2.143    4.000    2.286 
#    2.571    2.857    0.000    0.000    0.000    0.000 
#    0.000    0.000    0.000    0.000    0.000    0.000 
#
# Total GULP energy -156163.784257 kJ/mol
# GULP energy per Si atom -5577.278009 kJ/mol
# Density = 2.617144 g / cm^3
# Si number density = 26.231145 Si / 1000 Ang^3
#
#
#
# Elastic Constant Matrix: (Units=GPa)
#
#
# Indices 1 2 3 4 5 6 
#
# 1 125.0684 25.6313 6.4225 0.0000 0.0000 0.0000
# 2 25.6313 119.0293 21.3013 0.0000 0.0000 0.0000
# 3 6.4225 21.3013 58.7095 0.0000 0.0000 0.0000
# 4 0.0000 0.0000 0.0000 2.3994 0.0000 0.0000
# 5 0.0000 0.0000 0.0000 0.0000 36.0536 0.0000
# 6 0.0000 0.0000 0.0000 0.0000 0.0000 35.8247
#
#
#
# Elastic Compliance Matrix: (Units=1/GPa)
#
#
# Indices 1 2 3 4 5 6 
#
# 1 0.008369 -0.001752 -0.000280 0.000000 0.000000 0.000000
# 2 -0.001752 0.009351 -0.003201 0.000000 0.000000 0.000000
# 3 -0.000280 -0.003201 0.018225 0.000000 0.000000 0.000000
# 4 0.000000 0.000000 0.000000 0.416772 0.000000 0.000000
# 5 0.000000 0.000000 0.000000 0.000000 0.027736 0.000000
# 6 0.000000 0.000000 0.000000 0.000000 0.000000 0.027914
#
#
# Mechanical properties :
#
#
# Convention : Reuss Voigt Hill
#
# Bulk Modulus (GPa) = 39.24756 45.50192 42.37474
# Shear Modulus (GPa) = 9.48177 31.48568 20.48373
#
# Velocity S-wave (km/s) = 1.90330 3.46832 2.79748
# Velocity P-wave (km/s) = 4.45250 5.78128 5.15984
#
# Compressibility (1/GPa) = 0.02547929
#
# Stress axis : x y z
#
# Youngs Moduli (GPa) = 119.48768 106.93494 54.86924
#
# Poissons Ratio (x) = 0.18736 0.01535
# Poissons Ratio (y) = 0.20935 0.17565
# Poissons Ratio (z) = 0.03344 0.34233
#
# Static dielectric constant tensor:
#      x y z
#    x 2.672350 0.000000 0.000000 
#    y 0.000000 2.188290 0.000000 
#    z 0.000000 0.000000 2.152130 
# 
# From -- ./inp_files/4658.got.cif
#   From: 2010.05.17/outbox.cif.g08.bks.cpg/sg45_3_cif.got.tgz:4658.got - 2010.06.03 19:51:22.
