data_PCOD9377776
_publ_section_title
;
Structure prediction by ZEFSAII (Michael W. Deem and Ramdas Pophale) SiO2 
 PCOD9377776
Probable space group: I M A 2
;
_chemical_formula_sum "Si O2"
_cell_formula_units_Z 56
_cell_length_a 15.786423
_cell_length_b 9.483820
_cell_length_c 13.976991
_cell_angle_alpha 90.000000
_cell_angle_beta 90.000000
_cell_angle_gamma 90.000000
_cell_volume 2092.573512
_symmetry_space_group_name_H-M "I M A 2"
_symmetry_group_IT_number 46
_symmetry_cell_setting 'orthorhombic'
loop_
_space_group_symop_operation_xyz
x,y,z
-x,-y,z
1/2-x,y,z
1/2+x,-y,z
1/2+x,1/2+y,1/2+z
1/2-x,1/2-y,1/2+z
-x,1/2+y,1/2+z
x,1/2-y,1/2+z
loop_
_atom_site_type_symbol
_atom_site_label
_atom_site_fract_x
_atom_site_fract_y
_atom_site_fract_z
Si Si1 0.611592 0.259027 0.234160
Si Si2 0.344109 0.720983 0.439664
Si Si3 0.348419 0.064550 0.215712
Si Si4 0.945257 0.853345 0.815551
Si Si5 0.850638 0.538001 0.136549
Si Si6 0.146201 0.040414 0.428406
Si Si7 0.854646 0.579865 0.506345
O O1 0.660933 0.317564 0.327169
O O2 0.646621 0.106425 0.209157
O O3 0.516690 0.249939 0.273871
O O4 0.617945 0.376976 0.152820
O O5 0.250000 0.739544 0.480089
O O6 0.382645 0.876347 0.436051
O O7 0.380430 0.584912 0.490928
O O8 0.250000 0.106677 0.215294
O O9 0.380692 0.093805 0.323532
O O10 0.382817 0.116121 0.113803
O O11 0.898512 0.842228 0.917402
O O12 0.880231 0.877203 0.729071
O O13 0.000000 0.000000 0.821838
O O14 0.750000 0.535102 0.134879
O O15 0.878822 0.595453 0.033030
O O16 0.250000 0.043470 0.424151
O O17 0.750000 0.590826 0.498805
#
# Coordination Sequence:
#
# PCOD9377776 Si02
#       7
#     8   8   8   8   8   8   8
#     4  10  17  26  39  61  90 125 148 188 231 278
#     4   9  14  22  38  59  83 112 144 179 222 273
#     4   9  17  28  45  68  93 122 152 185 233 290
#     4  10  19  27  39  61  91 130 155 188 231 281
#     4  10  16  25  40  58  86 117 148 188 228 272
#     4   8  15  24  37  61  85 110 146 183 222 271
#     4  10  17  27  43  64  92 120 153 192 237 289
#
# _framework density 26.761306000000001
#
# number of rings (size 3 to 8) (size 9 to 14) (size 15 to 20)
#    0.000    2.571    2.857    3.429    0.000    2.286 
#    0.000    0.000    0.000    2.571    0.000    0.000 
#    0.000   16.000    1.714    2.286    0.000    0.000 
#
# Total GULP energy -156542.731598 kJ/mol
# GULP energy per Si atom -5590.811843 kJ/mol
# Density = 2.670040 g / cm^3
# Si number density = 26.761306 Si / 1000 Ang^3
#
#
#
# Elastic Constant Matrix: (Units=GPa)
#
#
# Indices 1 2 3 4 5 6 
#
# 1 91.1020 17.4503 52.1035 0.0000 0.0000 0.0000
# 2 17.4503 85.4602 74.7865 0.0000 0.0000 0.0000
# 3 52.1035 74.7865 306.4054 0.0000 0.0000 0.0000
# 4 0.0000 0.0000 0.0000 58.3860 0.0000 0.0000
# 5 0.0000 0.0000 0.0000 0.0000 11.5065 0.0000
# 6 0.0000 0.0000 0.0000 0.0000 0.0000 17.6944
#
#
#
# Elastic Compliance Matrix: (Units=1/GPa)
#
#
# Indices 1 2 3 4 5 6 
#
# 1 0.012209 -0.000860 -0.001866 0.000000 0.000000 0.000000
# 2 -0.000860 0.014940 -0.003500 0.000000 0.000000 0.000000
# 3 -0.001866 -0.003500 0.004435 0.000000 0.000000 0.000000
# 4 0.000000 0.000000 0.000000 0.017127 0.000000 0.000000
# 5 0.000000 0.000000 0.000000 0.000000 0.086908 0.000000
# 6 0.000000 0.000000 0.000000 0.000000 0.000000 0.056515
#
#
# Mechanical properties :
#
#
# Convention : Reuss Voigt Hill
#
# Bulk Modulus (GPa) = 52.26986 85.73868 69.00427
# Shear Modulus (GPa) = 23.70072 40.09253 31.89663
#
# Velocity S-wave (km/s) = 2.97919 3.87480 3.45613
# Velocity P-wave (km/s) = 5.60432 7.21987 6.46278
#
# Compressibility (1/GPa) = 0.01913149
#
# Stress axis : x y z
#
# Youngs Moduli (GPa) = 81.90859 66.93414 225.46179
#
# Poissons Ratio (x) = 0.05755 0.42076
# Poissons Ratio (y) = 0.07042 0.78919
# Poissons Ratio (z) = 0.15286 0.23429
#
# Static dielectric constant tensor:
#      x y z
#    x 2.108950 0.000000 0.000000 
#    y 0.000000 2.211400 0.000000 
#    z 0.000000 0.000000 2.070700 
# 
# From -- ./inp_files/16060.got.cif
#   From: 2010.05.17/outbox.cif.g08.bks.cpg/sg46_9_cif.got.tgz:16060.got - 2010.06.03 19:58:25.
