data_PCOD9377544
_publ_section_title
;
Structure prediction by ZEFSAII (Michael W. Deem and Ramdas Pophale) SiO2 
 PCOD9377544
Probable space group: I B A 2
;
_chemical_formula_sum "Si O2"
_cell_formula_units_Z 56
_cell_length_a 17.632363
_cell_length_b 14.457439
_cell_length_c 8.230065
_cell_angle_alpha 90.000000
_cell_angle_beta 90.000000
_cell_angle_gamma 90.000000
_cell_volume 2097.998397
_symmetry_space_group_name_H-M "I B A 2"
_symmetry_group_IT_number 45
_symmetry_cell_setting 'orthorhombic'
loop_
_space_group_symop_operation_xyz
x,y,z
-x,-y,z
-x,y,1/2+z
x,-y,1/2+z
1/2+x,1/2+y,1/2+z
1/2-x,1/2-y,1/2+z
1/2-x,1/2+y,z
1/2+x,1/2-y,z
loop_
_atom_site_type_symbol
_atom_site_label
_atom_site_fract_x
_atom_site_fract_y
_atom_site_fract_z
Si Si1 0.764364 0.792825 0.159700
Si Si2 0.387834 0.641127 0.400657
Si Si3 0.141222 0.568881 0.028375
Si Si4 0.965965 0.294334 0.114771
Si Si5 0.886902 0.967309 0.739212
Si Si6 0.278312 0.083647 0.704632
Si Si7 0.906402 0.792855 0.942722
O O1 0.810480 0.822832 0.319731
O O2 0.694662 0.860145 0.128987
O O3 0.745897 0.684758 0.168172
O O4 0.820976 0.800148 0.006162
O O5 0.428982 0.730360 0.472828
O O6 0.418765 0.570326 0.262073
O O7 0.389649 0.573936 0.558384
O O8 0.056653 0.600405 0.074966
O O9 0.176346 0.468653 0.063419
O O10 0.159050 0.589758 0.843294
O O11 0.929634 0.268646 0.287510
O O12 0.051103 0.257116 0.093646
O O13 0.795450 0.972944 0.765451
O O14 0.921339 0.895180 0.869021
#
# Coordination Sequence:
#
# PCOD9377544 Si02
#       7
#     8   8   8   8   8   8   8
#     4  12  24  44  75 105 150 194 245 315 386 457
#     4  11  22  41  67 105 148 190 246 299 383 456
#     4  12  27  45  74 114 150 192 252 319 388 457
#     4  11  26  46  72 101 150 198 249 302 378 458
#     4  11  22  40  69 107 147 190 243 311 371 464
#     4  12  26  42  73 112 146 191 248 314 389 450
#     4  11  25  46  71 103 143 202 245 305 369 453
#
# _framework density 26.692107
#
# number of rings (size 3 to 8) (size 9 to 14) (size 15 to 20)
#    0.000    0.571    4.286    4.286    2.000    0.571 
#    0.000    3.571    0.000    0.000    0.000    0.000 
#    0.000    0.000    0.000    0.000    0.000    0.000 
#
# Total GULP energy -156706.012411 kJ/mol
# GULP energy per Si atom -5596.643300 kJ/mol
# Density = 2.663136 g / cm^3
# Si number density = 26.692107 Si / 1000 Ang^3
#
#
#
# Elastic Constant Matrix: (Units=GPa)
#
#
# Indices 1 2 3 4 5 6 
#
# 1 63.5598 9.6092 9.2073 0.0000 0.0000 0.0000
# 2 9.6092 70.5886 16.4175 0.0000 0.0000 0.0000
# 3 9.2073 16.4175 129.2421 0.0000 0.0000 0.0000
# 4 0.0000 0.0000 0.0000 32.2784 0.0000 0.0000
# 5 0.0000 0.0000 0.0000 0.0000 22.5529 0.0000
# 6 0.0000 0.0000 0.0000 0.0000 0.0000 34.7714
#
#
#
# Elastic Compliance Matrix: (Units=1/GPa)
#
#
# Indices 1 2 3 4 5 6 
#
# 1 0.016164 -0.001991 -0.000899 0.000000 0.000000 0.000000
# 2 -0.001991 0.014843 -0.001744 0.000000 0.000000 0.000000
# 3 -0.000899 -0.001744 0.008023 0.000000 0.000000 0.000000
# 4 0.000000 0.000000 0.000000 0.030980 0.000000 0.000000
# 5 0.000000 0.000000 0.000000 0.000000 0.044340 0.000000
# 6 0.000000 0.000000 0.000000 0.000000 0.000000 0.028759
#
#
# Mechanical properties :
#
#
# Convention : Reuss Voigt Hill
#
# Bulk Modulus (GPa) = 33.59852 37.09539 35.34696
# Shear Modulus (GPa) = 30.80733 33.13097 31.96915
#
# Velocity S-wave (km/s) = 3.40100 3.52693 3.46454
# Velocity P-wave (km/s) = 5.29501 5.52389 5.41066
#
# Compressibility (1/GPa) = 0.02976321
#
# Stress axis : x y z
#
# Youngs Moduli (GPa) = 61.86406 67.37078 124.64281
#
# Poissons Ratio (x) = 0.13417 0.11200
# Poissons Ratio (y) = 0.12320 0.21733
# Poissons Ratio (z) = 0.05559 0.11747
#
# Static dielectric constant tensor:
#      x y z
#    x 2.214290 0.000000 0.000000 
#    y 0.000000 2.092950 0.000000 
#    z 0.000000 0.000000 2.090630 
# 
# From -- ./inp_files/1819.got.cif
#   From: 2010.05.17/outbox.cif.g08.bks.cpg/sg45_1_cif.got.tgz:1819.got - 2010.06.03 19:51:22.
