data_PCOD9377362
_publ_section_title
;
Structure prediction by ZEFSAII (Michael W. Deem and Ramdas Pophale) SiO2 
 PCOD9377362
Probable space group: I B A 2
;
_chemical_formula_sum "Si O2"
_cell_formula_units_Z 32
_cell_length_a 4.841944
_cell_length_b 24.484123
_cell_length_c 9.716700
_cell_angle_alpha 90.000000
_cell_angle_beta 90.000000
_cell_angle_gamma 90.000000
_cell_volume 1151.922096
_symmetry_space_group_name_H-M "I B A 2"
_symmetry_group_IT_number 45
_symmetry_cell_setting 'orthorhombic'
loop_
_space_group_symop_operation_xyz
x,y,z
-x,-y,z
-x,y,1/2+z
x,-y,1/2+z
1/2+x,1/2+y,1/2+z
1/2-x,1/2-y,1/2+z
1/2-x,1/2+y,z
1/2+x,1/2-y,z
loop_
_atom_site_type_symbol
_atom_site_label
_atom_site_fract_x
_atom_site_fract_y
_atom_site_fract_z
Si Si1 0.307156 0.284742 0.213880
Si Si2 0.070619 0.057892 0.291434
Si Si3 0.941192 0.560617 0.099989
Si Si4 0.857521 0.148879 0.487321
O O1 0.988814 0.269997 0.188852
O O2 0.311602 0.303998 0.372639
O O3 0.459831 0.326759 0.111906
O O4 0.380141 0.059197 0.240190
O O5 0.868959 0.062158 0.159011
O O6 0.026416 0.105546 0.396978
O O7 0.000000 0.000000 0.355873
O O8 0.000000 0.500000 0.037319
O O9 0.085158 0.613510 0.029342
#
# Coordination Sequence:
#
# PCOD9377362 Si02
#       4
#     8   8   8   8
#     4  12  30  52  78 117 157 210 284 350 403 476
#     4  10  24  45  74 116 162 203 258 319 402 499
#     4  10  24  45  74 118 161 205 257 321 398 506
#     4  12  26  52  85 113 163 214 272 336 429 471
#
# _framework density 27.779655999999999
#
# number of rings (size 3 to 8) (size 9 to 14) (size 15 to 20)
#    0.000    1.000    2.500    1.500    3.500   12.000 
#    0.000    0.000    0.000    0.000    0.000    0.000 
#    0.000    0.000    0.000    0.000    0.000    0.000 
#
# Total GULP energy -89653.599637 kJ/mol
# GULP energy per Si atom -5603.349977 kJ/mol
# Density = 2.771643 g / cm^3
# Si number density = 27.779656 Si / 1000 Ang^3
#
#
#
# Elastic Constant Matrix: (Units=GPa)
#
#
# Indices 1 2 3 4 5 6 
#
# 1 95.9938 18.5513 30.4590 0.0000 0.0000 0.0000
# 2 18.5513 131.2756 30.5231 0.0000 0.0000 0.0000
# 3 30.4590 30.5231 129.9547 0.0000 0.0000 0.0000
# 4 0.0000 0.0000 0.0000 32.5935 0.0000 0.0000
# 5 0.0000 0.0000 0.0000 0.0000 51.4620 0.0000
# 6 0.0000 0.0000 0.0000 0.0000 0.0000 51.6701
#
#
#
# Elastic Compliance Matrix: (Units=1/GPa)
#
#
# Indices 1 2 3 4 5 6 
#
# 1 0.011388 -0.001046 -0.002424 0.000000 0.000000 0.000000
# 2 -0.001046 0.008154 -0.001670 0.000000 0.000000 0.000000
# 3 -0.002424 -0.001670 0.008655 0.000000 0.000000 0.000000
# 4 0.000000 0.000000 0.000000 0.030681 0.000000 0.000000
# 5 0.000000 0.000000 0.000000 0.000000 0.019432 0.000000
# 6 0.000000 0.000000 0.000000 0.000000 0.000000 0.019354
#
#
# Mechanical properties :
#
#
# Convention : Reuss Voigt Hill
#
# Bulk Modulus (GPa) = 55.80808 57.36565 56.58686
# Shear Modulus (GPa) = 43.89225 45.65785 44.77505
#
# Velocity S-wave (km/s) = 3.97925 4.05850 4.01907
# Velocity P-wave (km/s) = 6.42229 6.53123 6.47699
#
# Compressibility (1/GPa) = 0.01791855
#
# Stress axis : x y z
#
# Youngs Moduli (GPa) = 87.80815 122.64461 115.53659
#
# Poissons Ratio (x) = 0.12827 0.28001
# Poissons Ratio (y) = 0.09183 0.19294
# Poissons Ratio (z) = 0.21281 0.20481
#
# Static dielectric constant tensor:
#      x y z
#    x 2.111850 0.000000 0.000000 
#    y 0.000000 2.256490 0.000000 
#    z 0.000000 0.000000 2.148410 
# 
# From -- ./inp_files/783.got.cif
#   From: 2010.05.17/outbox.cif.g08.bks.cpg/sg45_1_cif.got.tgz:783.got - 2010.06.03 19:51:22.
