data_PCOD9377475
_publ_section_title
;
Structure prediction by ZEFSAII (Michael W. Deem and Ramdas Pophale) SiO2 
 PCOD9377475
Probable space group: I B A 2
;
_chemical_formula_sum "Si O2"
_cell_formula_units_Z 32
_cell_length_a 28.388615
_cell_length_b 4.822359
_cell_length_c 8.246735
_cell_angle_alpha 90.000000
_cell_angle_beta 90.000000
_cell_angle_gamma 90.000000
_cell_volume 1128.978789
_symmetry_space_group_name_H-M "I B A 2"
_symmetry_group_IT_number 45
_symmetry_cell_setting 'orthorhombic'
loop_
_space_group_symop_operation_xyz
x,y,z
-x,-y,z
-x,y,1/2+z
x,-y,1/2+z
1/2+x,1/2+y,1/2+z
1/2-x,1/2-y,1/2+z
1/2-x,1/2+y,z
1/2+x,1/2-y,z
loop_
_atom_site_type_symbol
_atom_site_label
_atom_site_fract_x
_atom_site_fract_y
_atom_site_fract_z
Si Si1 0.400639 0.586551 0.764040
Si Si2 0.034403 0.753447 0.989310
Si Si3 0.216466 0.244262 0.731916
Si Si4 0.342281 0.817967 0.045845
O O1 0.500000 0.500000 0.541656
O O2 0.437553 0.366116 0.835045
O O3 0.384991 0.775553 0.916442
O O4 0.359058 0.392383 0.688200
O O5 0.000000 0.500000 0.957499
O O6 0.073279 0.728883 0.130375
O O7 0.238560 0.944201 0.707539
O O8 0.175690 0.394470 0.624286
O O9 0.199091 0.251782 0.917052
#
# Coordination Sequence:
#
# PCOD9377475 Si02
#       4
#     8   8   8   8
#     4  10  26  50  82 119 160 216 276 337 408 482
#     4  11  26  50  77 114 160 212 270 334 403 482
#     4  12  27  50  78 113 153 202 255 321 400 478
#     4  11  26  50  80 118 162 208 270 336 404 488
#
# _framework density 28.344197000000001
#
# number of rings (size 3 to 8) (size 9 to 14) (size 15 to 20)
#    0.000    1.000    0.000    3.750    0.000   20.000 
#    0.000    3.750    0.000    0.000    0.000    0.000 
#    0.000    0.000    0.000    0.000    0.000    0.000 
#
# Total GULP energy -89719.729143 kJ/mol
# GULP energy per Si atom -5607.483071 kJ/mol
# Density = 2.827968 g / cm^3
# Si number density = 28.344197 Si / 1000 Ang^3
#
#
#
# Elastic Constant Matrix: (Units=GPa)
#
#
# Indices 1 2 3 4 5 6 
#
# 1 200.7053 64.2303 73.0906 0.0000 0.0000 0.0000
# 2 64.2303 106.8296 64.5595 0.0000 0.0000 0.0000
# 3 73.0906 64.5595 177.5606 0.0000 0.0000 0.0000
# 4 0.0000 0.0000 0.0000 42.1797 0.0000 0.0000
# 5 0.0000 0.0000 0.0000 0.0000 86.9153 0.0000
# 6 0.0000 0.0000 0.0000 0.0000 0.0000 57.7930
#
#
#
# Elastic Compliance Matrix: (Units=1/GPa)
#
#
# Indices 1 2 3 4 5 6 
#
# 1 0.006510 -0.002941 -0.001611 0.000000 0.000000 0.000000
# 2 -0.002941 0.013325 -0.003634 0.000000 0.000000 0.000000
# 3 -0.001611 -0.003634 0.007616 0.000000 0.000000 0.000000
# 4 0.000000 0.000000 0.000000 0.023708 0.000000 0.000000
# 5 0.000000 0.000000 0.000000 0.000000 0.011505 0.000000
# 6 0.000000 0.000000 0.000000 0.000000 0.000000 0.017303
#
#
# Mechanical properties :
#
#
# Convention : Reuss Voigt Hill
#
# Bulk Modulus (GPa) = 90.25230 98.76181 94.50706
# Shear Modulus (GPa) = 49.98352 56.25862 53.12107
#
# Velocity S-wave (km/s) = 4.20390 4.45998 4.33383
# Velocity P-wave (km/s) = 7.44811 7.83845 7.64577
#
# Compressibility (1/GPa) = 0.01108005
#
# Stress axis : x y z
#
# Youngs Moduli (GPa) = 153.60829 75.04591 131.29812
#
# Poissons Ratio (x) = 0.22070 0.21146
# Poissons Ratio (y) = 0.45174 0.47719
# Poissons Ratio (z) = 0.24739 0.27274
#
# Static dielectric constant tensor:
#      x y z
#    x 2.355160 0.000000 0.000000 
#    y 0.000000 2.178970 0.000000 
#    z 0.000000 0.000000 2.122240 
# 
# From -- ./inp_files/2678.got.cif
#   From: 2010.05.17/outbox.cif.g08.bks.cpg/sg45_2_cif.got.tgz:2678.got - 2010.06.03 19:51:22.
