data_PCOD9377270
_publ_section_title
;
Structure prediction by ZEFSAII (Michael W. Deem and Ramdas Pophale) SiO2 
 PCOD9377270
Probable space group: I B A 2
;
_chemical_formula_sum "Si O2"
_cell_formula_units_Z 60
_cell_length_a 16.867849
_cell_length_b 19.067629
_cell_length_c 8.758217
_cell_angle_alpha 90.000000
_cell_angle_beta 90.000000
_cell_angle_gamma 90.000000
_cell_volume 2816.904342
_symmetry_space_group_name_H-M "I B A 2"
_symmetry_group_IT_number 45
_symmetry_cell_setting 'orthorhombic'
loop_
_space_group_symop_operation_xyz
x,y,z
-x,-y,z
-x,y,1/2+z
x,-y,1/2+z
1/2+x,1/2+y,1/2+z
1/2-x,1/2-y,1/2+z
1/2-x,1/2+y,z
1/2+x,1/2-y,z
loop_
_atom_site_type_symbol
_atom_site_label
_atom_site_fract_x
_atom_site_fract_y
_atom_site_fract_z
Si Si1 0.840985 0.198591 0.157600
Si Si2 0.096458 0.329909 0.776794
Si Si3 0.576647 0.808231 0.639208
Si Si4 0.500000 0.500000 0.035724
Si Si5 0.207863 0.412520 0.178385
Si Si6 0.037122 0.099081 0.785071
Si Si7 0.779613 0.437259 0.317289
Si Si8 0.634661 0.334045 0.300150
O O1 0.837204 0.278263 0.206988
O O2 0.768540 0.150699 0.206714
O O3 0.914004 0.167960 0.255471
O O4 0.854993 0.190384 0.976732
O O5 0.136065 0.406057 0.760586
O O6 0.014523 0.315118 0.689971
O O7 0.084596 0.312834 0.955937
O O8 0.623121 0.875985 0.704638
O O9 0.616645 0.735670 0.699603
O O10 0.553093 0.548354 0.142657
O O11 0.448600 0.552209 0.932923
O O12 0.227570 0.482311 0.269969
O O13 0.217395 0.431165 0.000167
O O14 0.945087 0.119513 0.789822
O O15 0.707566 0.386419 0.263758
#
# Coordination Sequence:
#
# PCOD9377270 Si02
#       8
#     8   8   8   4   8   8   8   8
#     4  11  23  40  64  94 129 164 211 260 315 378
#     4  11  24  43  67  94 127 166 217 265 318 378
#     4  11  24  43  67  94 127 166 217 265 318 378
#     4  10  24  34  52  86 132 166 200 250 304 374
#     4  10  25  44  65  95 128 168 211 265 321 380
#     4  11  22  36  56  88 125 166 208 244 309 368
#     4  10  25  44  65  95 128 168 211 265 321 380
#     4  11  23  40  64  94 129 164 211 260 315 378
#
# _framework density 21.299977999999999
#
# number of rings (size 3 to 8) (size 9 to 14) (size 15 to 20)
#    0.000    1.333    2.667    1.600    5.600    3.733 
#    0.000    2.667    0.000    0.000    0.000    0.000 
#    0.000    0.000    0.000    0.000    0.000    0.000 
#
# Total GULP energy -167618.646315 kJ/mol
# GULP energy per Si atom -5587.288211 kJ/mol
# Density = 2.125150 g / cm^3
# Si number density = 21.299978 Si / 1000 Ang^3
#
#
#
# Elastic Constant Matrix: (Units=GPa)
#
#
# Indices 1 2 3 4 5 6 
#
# 1 84.4696 45.0875 9.0788 0.0000 0.0000 0.0000
# 2 45.0875 67.6061 11.0245 0.0000 0.0000 0.0000
# 3 9.0788 11.0245 44.5364 0.0000 0.0000 0.0000
# 4 0.0000 0.0000 0.0000 29.8917 0.0000 0.0000
# 5 0.0000 0.0000 0.0000 0.0000 15.2383 0.0000
# 6 0.0000 0.0000 0.0000 0.0000 0.0000 16.6000
#
#
#
# Elastic Compliance Matrix: (Units=1/GPa)
#
#
# Indices 1 2 3 4 5 6 
#
# 1 0.018406 -0.012154 -0.000743 0.000000 0.000000 0.000000
# 2 -0.012154 0.023439 -0.003325 0.000000 0.000000 0.000000
# 3 -0.000743 -0.003325 0.023428 0.000000 0.000000 0.000000
# 4 0.000000 0.000000 0.000000 0.033454 0.000000 0.000000
# 5 0.000000 0.000000 0.000000 0.000000 0.065624 0.000000
# 6 0.000000 0.000000 0.000000 0.000000 0.000000 0.060241
#
#
# Mechanical properties :
#
#
# Convention : Reuss Voigt Hill
#
# Bulk Modulus (GPa) = 30.46058 36.33264 33.39661
# Shear Modulus (GPa) = 18.65815 21.10743 19.88279
#
# Velocity S-wave (km/s) = 2.96289 3.15137 3.05858
# Velocity P-wave (km/s) = 5.10262 5.50782 5.30909
#
# Compressibility (1/GPa) = 0.03282932
#
# Stress axis : x y z
#
# Youngs Moduli (GPa) = 54.33043 42.66337 42.68387
#
# Poissons Ratio (x) = 0.51853 0.03173
# Poissons Ratio (y) = 0.66033 0.14191
# Poissons Ratio (z) = 0.04039 0.14184
#
# Static dielectric constant tensor:
#      x y z
#    x 1.838950 0.000000 0.000000 
#    y 0.000000 2.050100 0.000000 
#    z 0.000000 0.000000 1.761190 
# 
# From -- ./inp_files/2156.got.cif
#   From: 2010.05.17/outbox.cif.g08.bks.cpg/sg45_2_cif.got.tgz:2156.got - 2010.06.03 19:51:22.
