data_PCOD9377373
_publ_section_title
;
Structure prediction by ZEFSAII (Michael W. Deem and Ramdas Pophale) SiO2 
 PCOD9377373
Probable space group: I B A 2
;
_chemical_formula_sum "Si O2"
_cell_formula_units_Z 52
_cell_length_a 10.787562
_cell_length_b 8.910935
_cell_length_c 22.140943
_cell_angle_alpha 90.000000
_cell_angle_beta 90.000000
_cell_angle_gamma 90.000000
_cell_volume 2128.348268
_symmetry_space_group_name_H-M "I B A 2"
_symmetry_group_IT_number 45
_symmetry_cell_setting 'orthorhombic'
loop_
_space_group_symop_operation_xyz
x,y,z
-x,-y,z
-x,y,1/2+z
x,-y,1/2+z
1/2+x,1/2+y,1/2+z
1/2-x,1/2-y,1/2+z
1/2-x,1/2+y,z
1/2+x,1/2-y,z
loop_
_atom_site_type_symbol
_atom_site_label
_atom_site_fract_x
_atom_site_fract_y
_atom_site_fract_z
Si Si1 0.673511 0.260322 0.705640
Si Si2 0.742294 0.841344 0.434901
Si Si3 0.500000 0.000000 0.895053
Si Si4 0.500000 0.000000 0.186161
Si Si5 0.355456 0.756528 0.315571
Si Si6 0.665951 0.814311 0.595842
Si Si7 0.500000 0.500000 0.249884
Si Si8 0.194310 0.934852 0.515114
O O1 0.778142 0.292302 0.755569
O O2 0.728964 0.243107 0.639026
O O3 0.593743 0.410945 0.707628
O O4 0.594072 0.110928 0.720998
O O5 0.762186 0.805334 0.365571
O O6 0.761262 0.695522 0.476283
O O7 0.603368 0.912651 0.435406
O O8 0.844936 0.956829 0.460600
O O9 0.428366 0.114466 0.850813
O O10 0.428892 0.887099 0.141866
O O11 0.443918 0.625145 0.293165
O O12 0.613323 0.673255 0.557628
O O13 0.724296 0.949144 0.555442
#
# Coordination Sequence:
#
# PCOD9377373 Si02
#       8
#     8   8   4   4   8   8   4   8
#     4  12  27  49  74 110 149 184 244 309 362 441
#     4  11  24  49  72 111 146 197 243 310 359 439
#     4  12  26  48  80 106 144 203 241 292 394 436
#     4  12  26  48  80 106 144 203 241 292 394 436
#     4  12  27  49  74 110 149 184 244 309 362 441
#     4  11  24  49  72 111 146 197 243 310 359 439
#     4  12  28  42  72 108 136 190 236 284 386 436
#     4  10  24  46  73 102 157 190 246 314 355 420
#
# _framework density 24.432092000000001
#
# number of rings (size 3 to 8) (size 9 to 14) (size 15 to 20)
#    0.000    0.615    3.077    3.692    4.308    6.769 
#    0.000    1.538    0.000    0.000    0.000    0.000 
#    0.000    0.000    0.000    0.000    0.000    0.000 
#
# Total GULP energy -145278.488034 kJ/mol
# GULP energy per Si atom -5587.634155 kJ/mol
# Density = 2.437648 g / cm^3
# Si number density = 24.432092 Si / 1000 Ang^3
#
#
#
# Elastic Constant Matrix: (Units=GPa)
#
#
# Indices 1 2 3 4 5 6 
#
# 1 64.1605 24.5632 20.2872 0.0000 0.0000 0.0000
# 2 24.5632 116.4607 33.2024 0.0000 0.0000 0.0000
# 3 20.2872 33.2024 102.0516 0.0000 0.0000 0.0000
# 4 0.0000 0.0000 0.0000 46.4196 0.0000 0.0000
# 5 0.0000 0.0000 0.0000 0.0000 6.5288 0.0000
# 6 0.0000 0.0000 0.0000 0.0000 0.0000 37.7086
#
#
#
# Elastic Compliance Matrix: (Units=1/GPa)
#
#
# Indices 1 2 3 4 5 6 
#
# 1 0.017521 -0.002979 -0.002514 0.000000 0.000000 0.000000
# 2 -0.002979 0.009971 -0.002652 0.000000 0.000000 0.000000
# 3 -0.002514 -0.002652 0.011162 0.000000 0.000000 0.000000
# 4 0.000000 0.000000 0.000000 0.021543 0.000000 0.000000
# 5 0.000000 0.000000 0.000000 0.000000 0.153168 0.000000
# 6 0.000000 0.000000 0.000000 0.000000 0.000000 0.026519
#
#
# Mechanical properties :
#
#
# Convention : Reuss Voigt Hill
#
# Bulk Modulus (GPa) = 44.71384 48.75314 46.73349
# Shear Modulus (GPa) = 18.96619 31.77273 25.36946
#
# Velocity S-wave (km/s) = 2.78921 3.61009 3.22586
# Velocity P-wave (km/s) = 5.35854 6.11350 5.74842
#
# Compressibility (1/GPa) = 0.02236444
#
# Stress axis : x y z
#
# Youngs Moduli (GPa) = 57.07370 100.29208 89.59363
#
# Poissons Ratio (x) = 0.29874 0.22524
# Poissons Ratio (y) = 0.17001 0.23759
# Poissons Ratio (z) = 0.14348 0.26596
#
# Static dielectric constant tensor:
#      x y z
#    x 2.022600 0.000000 0.000000 
#    y 0.000000 1.945400 0.000000 
#    z 0.000000 0.000000 1.955350 
# 
# From -- ./inp_files/10015.got.cif
#   From: 2010.05.17/outbox.cif.g08.bks.cpg/sg45_6_cif.got.tgz:10015.got - 2010.06.03 19:51:22.
