data_PCOD9377727
_publ_section_title
;
Structure prediction by ZEFSAII (Michael W. Deem and Ramdas Pophale) SiO2 
 PCOD9377727
Probable space group: I B A 2
;
_chemical_formula_sum "Si O2"
_cell_formula_units_Z 32
_cell_length_a 15.601352
_cell_length_b 10.392757
_cell_length_c 7.856827
_cell_angle_alpha 90.000000
_cell_angle_beta 90.000000
_cell_angle_gamma 90.000000
_cell_volume 1273.914260
_symmetry_space_group_name_H-M "I B A 2"
_symmetry_group_IT_number 45
_symmetry_cell_setting 'orthorhombic'
loop_
_space_group_symop_operation_xyz
x,y,z
-x,-y,z
-x,y,1/2+z
x,-y,1/2+z
1/2+x,1/2+y,1/2+z
1/2-x,1/2-y,1/2+z
1/2-x,1/2+y,z
1/2+x,1/2-y,z
loop_
_atom_site_type_symbol
_atom_site_label
_atom_site_fract_x
_atom_site_fract_y
_atom_site_fract_z
Si Si1 0.584909 0.749999 0.188570
Si Si2 0.500000 0.500000 0.113137
Si Si3 0.162467 0.164924 0.016406
Si Si4 0.837533 0.664924 0.360736
Si Si5 0.000000 0.500000 0.264005
O O1 0.527145 0.625966 0.213935
O O2 0.635409 0.761068 0.363679
O O3 0.527146 0.874034 0.163208
O O4 0.635407 0.738928 0.013459
O O5 0.410603 0.555392 0.035293
O O6 0.172407 0.250001 0.188570
O O7 0.250001 0.106503 0.938573
O O8 0.910604 0.555392 0.341850
#
# Coordination Sequence:
#
# PCOD9377727 Si02
#       5
#     8   4   8   8   4
#     4  12  28  50  82 122 168 222 276 344 416 500
#     4  12  28  52  86 124 172 218 280 344 424 490
#     4  12  28  52  84 123 168 221 279 343 417 498
#     4  12  28  52  84 123 168 221 279 343 417 498
#     4  12  28  52  86 124 172 218 280 344 424 490
#
# _framework density 25.119430999999999
#
# number of rings (size 3 to 8) (size 9 to 14) (size 15 to 20)
#    0.000    0.000    5.000    3.000    7.000    4.000 
#    0.000    0.000    0.000    0.000    0.000    0.000 
#    0.000    0.000    0.000    0.000    0.000    0.000 
#
# Total GULP energy -89244.461068 kJ/mol
# GULP energy per Si atom -5577.778817 kJ/mol
# Density = 2.506226 g / cm^3
# Si number density = 25.119431 Si / 1000 Ang^3
#
#
#
# Elastic Constant Matrix: (Units=GPa)
#
#
# Indices 1 2 3 4 5 6 
#
# 1 198.7172 53.0030 75.7355 0.0000 0.0000 0.0000
# 2 53.0030 135.7970 51.4310 0.0000 0.0000 0.0000
# 3 75.7355 51.4310 169.5867 0.0000 0.0000 0.0000
# 4 0.0000 0.0000 0.0000 14.3462 0.0000 0.0000
# 5 0.0000 0.0000 0.0000 0.0000 115.1789 0.0000
# 6 0.0000 0.0000 0.0000 0.0000 0.0000 18.0527
#
#
#
# Elastic Compliance Matrix: (Units=1/GPa)
#
#
# Indices 1 2 3 4 5 6 
#
# 1 0.006354 -0.001588 -0.002356 0.000000 0.000000 0.000000
# 2 -0.001588 0.008716 -0.001934 0.000000 0.000000 0.000000
# 3 -0.002356 -0.001934 0.007535 0.000000 0.000000 0.000000
# 4 0.000000 0.000000 0.000000 0.069705 0.000000 0.000000
# 5 0.000000 0.000000 0.000000 0.000000 0.008682 0.000000
# 6 0.000000 0.000000 0.000000 0.000000 0.000000 0.055393
#
#
# Mechanical properties :
#
#
# Convention : Reuss Voigt Hill
#
# Bulk Modulus (GPa) = 92.17100 96.04887 94.10994
# Shear Modulus (GPa) = 29.11071 51.11099 40.11085
#
# Velocity S-wave (km/s) = 3.40794 4.51568 4.00034
# Velocity P-wave (km/s) = 7.22898 8.09372 7.67354
#
# Compressibility (1/GPa) = 0.01084940
#
# Stress axis : x y z
#
# Youngs Moduli (GPa) = 157.38977 114.72880 132.70529
#
# Poissons Ratio (x) = 0.18214 0.31265
# Poissons Ratio (y) = 0.24987 0.25670
# Poissons Ratio (z) = 0.37081 0.22193
#
# Static dielectric constant tensor:
#      x y z
#    x 2.142440 0.000000 0.000000 
#    y 0.000000 1.940860 0.000000 
#    z 0.000000 0.000000 2.105100 
# 
# From -- ./inp_files/1205.got.cif
#   From: 2010.05.17/outbox.cif.g08.bks.cpg/sg45_1_cif.got.tgz:1205.got - 2010.06.03 19:51:22.
