data_PCOD9377543
_publ_section_title
;
Structure prediction by ZEFSAII (Michael W. Deem and Ramdas Pophale) SiO2 
 PCOD9377543
Probable space group: I B A 2
;
_chemical_formula_sum "Si O2"
_cell_formula_units_Z 64
_cell_length_a 15.312522
_cell_length_b 8.647287
_cell_length_c 21.054648
_cell_angle_alpha 90.000000
_cell_angle_beta 90.000000
_cell_angle_gamma 90.000000
_cell_volume 2787.883260
_symmetry_space_group_name_H-M "I B A 2"
_symmetry_group_IT_number 45
_symmetry_cell_setting 'orthorhombic'
loop_
_space_group_symop_operation_xyz
x,y,z
-x,-y,z
-x,y,1/2+z
x,-y,1/2+z
1/2+x,1/2+y,1/2+z
1/2-x,1/2-y,1/2+z
1/2-x,1/2+y,z
1/2+x,1/2-y,z
loop_
_atom_site_type_symbol
_atom_site_label
_atom_site_fract_x
_atom_site_fract_y
_atom_site_fract_z
Si Si1 0.979914 0.315055 0.746720
Si Si2 0.429651 0.614670 0.859603
Si Si3 0.196545 0.694682 0.088637
Si Si4 0.400208 0.056480 0.406575
Si Si5 0.491235 0.812922 0.602942
Si Si6 0.746602 0.542285 0.312826
Si Si7 0.659250 0.127450 0.040660
Si Si8 0.777787 0.786588 0.226173
O O1 0.877420 0.273582 0.735324
O O2 0.000000 0.500000 0.758748
O O3 0.024311 0.201632 0.798500
O O4 0.017773 0.280698 0.677351
O O5 0.500000 0.500000 0.888441
O O6 0.401604 0.758549 0.901329
O O7 0.345016 0.509905 0.846062
O O8 0.098284 0.750338 0.075614
O O9 0.259528 0.759413 0.034732
O O10 0.188940 0.509328 0.087943
O O11 0.236243 0.740271 0.157478
O O12 0.368928 0.034165 0.478306
O O13 0.500000 0.000000 0.398584
O O14 0.331946 0.986426 0.355464
O O15 0.580866 0.768795 0.569377
O O16 0.500000 0.000000 0.596721
O O17 0.735732 0.719659 0.291205
O O18 0.740636 0.465004 0.243106
#
# Coordination Sequence:
#
# PCOD9377543 Si02
#       8
#     8   8   8   8   8   8   8   8
#     4  11  22  40  69 102 149 190 231 292 366 438
#     4  12  25  45  67 104 141 184 237 298 354 421
#     4  11  23  43  71 104 137 181 234 300 355 423
#     4  12  28  50  73  98 142 198 247 291 362 436
#     4   9  20  40  65  97 134 182 230 280 351 428
#     4  12  26  42  66 103 144 188 236 291 360 425
#     4  11  25  48  71 102 136 186 243 290 358 430
#     4  12  23  41  69 105 147 181 236 300 367 429
#
# _framework density 22.956484
#
# number of rings (size 3 to 8) (size 9 to 14) (size 15 to 20)
#    0.000    0.750    3.750    4.500    5.250    0.000 
#    2.250    0.625    0.000    0.000    0.000    0.000 
#    0.000    0.000    0.000    0.000    0.000    0.000 
#
# Total GULP energy -178438.449006 kJ/mol
# GULP energy per Si atom -5576.201531 kJ/mol
# Density = 2.290423 g / cm^3
# Si number density = 22.956484 Si / 1000 Ang^3
#
#
#
# Elastic Constant Matrix: (Units=GPa)
#
#
# Indices 1 2 3 4 5 6 
#
# 1 150.8969 22.4832 27.2201 0.0000 0.0000 0.0000
# 2 22.4832 38.1216 19.4275 0.0000 0.0000 0.0000
# 3 27.2201 19.4275 79.6952 0.0000 0.0000 0.0000
# 4 0.0000 0.0000 0.0000 20.8498 0.0000 0.0000
# 5 0.0000 0.0000 0.0000 0.0000 34.0264 0.0000
# 6 0.0000 0.0000 0.0000 0.0000 0.0000 35.7071
#
#
#
# Elastic Compliance Matrix: (Units=1/GPa)
#
#
# Indices 1 2 3 4 5 6 
#
# 1 0.007458 -0.003540 -0.001684 0.000000 0.000000 0.000000
# 2 -0.003540 0.031634 -0.006502 0.000000 0.000000 0.000000
# 3 -0.001684 -0.006502 0.014708 0.000000 0.000000 0.000000
# 4 0.000000 0.000000 0.000000 0.047962 0.000000 0.000000
# 5 0.000000 0.000000 0.000000 0.000000 0.029389 0.000000
# 6 0.000000 0.000000 0.000000 0.000000 0.000000 0.028006
#
#
# Mechanical properties :
#
#
# Convention : Reuss Voigt Hill
#
# Bulk Modulus (GPa) = 32.95306 45.21951 39.08629
# Shear Modulus (GPa) = 25.94357 31.42219 28.68288
#
# Velocity S-wave (km/s) = 3.36537 3.70371 3.53858
# Velocity P-wave (km/s) = 5.43017 6.16690 5.81022
#
# Compressibility (1/GPa) = 0.03034619
#
# Stress axis : x y z
#
# Youngs Moduli (GPa) = 134.07715 31.61204 67.98946
#
# Poissons Ratio (x) = 0.11192 0.11452
# Poissons Ratio (y) = 0.47469 0.44208
# Poissons Ratio (z) = 0.22584 0.20555
#
# Static dielectric constant tensor:
#      x y z
#    x 1.951790 0.000000 0.000000 
#    y 0.000000 1.878920 0.000000 
#    z 0.000000 0.000000 1.872710 
# 
# From -- ./inp_files/9783.got.cif
#   From: 2010.05.17/outbox.cif.g08.bks.cpg/sg45_5_cif.got.tgz:9783.got - 2010.06.03 19:51:22.
