data_PCOD9377380
_publ_section_title
;
Structure prediction by ZEFSAII (Michael W. Deem and Ramdas Pophale) SiO2 
 PCOD9377380
Probable space group: I B A 2
;
_chemical_formula_sum "Si O2"
_cell_formula_units_Z 40
_cell_length_a 13.542821
_cell_length_b 13.542761
_cell_length_c 8.987404
_cell_angle_alpha 90.000000
_cell_angle_beta 90.000000
_cell_angle_gamma 90.000000
_cell_volume 1648.354496
_symmetry_space_group_name_H-M "I B A 2"
_symmetry_group_IT_number 45
_symmetry_cell_setting 'orthorhombic'
loop_
_space_group_symop_operation_xyz
x,y,z
-x,-y,z
-x,y,1/2+z
x,-y,1/2+z
1/2+x,1/2+y,1/2+z
1/2-x,1/2-y,1/2+z
1/2-x,1/2+y,z
1/2+x,1/2-y,z
loop_
_atom_site_type_symbol
_atom_site_label
_atom_site_fract_x
_atom_site_fract_y
_atom_site_fract_z
Si Si1 0.346154 0.311706 0.412040
Si Si2 0.811707 0.346147 0.162034
Si Si3 0.500000 0.500000 0.536356
Si Si4 0.964679 0.637374 0.048405
Si Si5 0.362625 0.464675 0.798402
Si Si6 0.500000 0.000000 0.286366
O O1 0.253317 0.322537 0.518764
O O2 0.322557 0.246686 0.268761
O O3 0.423153 0.244624 0.509459
O O4 0.366523 0.420018 0.344092
O O5 0.920013 0.366531 0.094078
O O6 0.744621 0.423143 0.259454
O O7 0.425788 0.446771 0.649866
O O8 0.570328 0.427871 0.437369
O O9 0.927877 0.570335 0.187381
O O10 0.946764 0.574208 0.899873
#
# Coordination Sequence:
#
# PCOD9377380 Si02
#       6
#     8   8   4   8   8   4
#     4  12  30  49  82 118 164 213 285 341 426 508
#     4  12  30  49  82 118 164 213 285 341 426 508
#     4  10  24  46  82 104 162 204 270 318 422 474
#     4  11  26  49  77 119 152 219 263 349 408 503
#     4  11  26  49  77 119 152 219 263 349 408 503
#     4  10  24  46  82 104 162 204 270 318 422 474
#
# _framework density 24.266625000000001
#
# number of rings (size 3 to 8) (size 9 to 14) (size 15 to 20)
#    0.000    0.800    4.000    0.000   11.200    3.200 
#    0.000    0.000    0.000    0.000    0.000    0.000 
#    0.000    0.000    0.000    0.000    0.000    0.000 
#
# Total GULP energy -111539.714631 kJ/mol
# GULP energy per Si atom -5576.985732 kJ/mol
# Density = 2.421139 g / cm^3
# Si number density = 24.266625 Si / 1000 Ang^3
#
#
#
# Elastic Constant Matrix: (Units=GPa)
#
#
# Indices 1 2 3 4 5 6 
#
# 1 145.0536 48.6091 33.4492 0.0000 0.0000 0.0000
# 2 48.6091 145.0086 33.4466 0.0000 0.0000 0.0000
# 3 33.4492 33.4466 152.2316 0.0000 0.0000 0.0000
# 4 0.0000 0.0000 0.0000 44.2617 0.0000 0.0000
# 5 0.0000 0.0000 0.0000 0.0000 44.2720 0.0000
# 6 0.0000 0.0000 0.0000 0.0000 0.0000 10.7043
#
#
#
# Elastic Compliance Matrix: (Units=1/GPa)
#
#
# Indices 1 2 3 4 5 6 
#
# 1 0.007978 -0.002391 -0.001228 0.000000 0.000000 0.000000
# 2 -0.002391 0.007981 -0.001228 0.000000 0.000000 0.000000
# 3 -0.001228 -0.001228 0.007109 0.000000 0.000000 0.000000
# 4 0.000000 0.000000 0.000000 0.022593 0.000000 0.000000
# 5 0.000000 0.000000 0.000000 0.000000 0.022588 0.000000
# 6 0.000000 0.000000 0.000000 0.000000 0.000000 0.093421
#
#
# Mechanical properties :
#
#
# Convention : Reuss Voigt Hill
#
# Bulk Modulus (GPa) = 74.77285 74.81151 74.79218
# Shear Modulus (GPa) = 28.43797 41.63350 35.03574
#
# Velocity S-wave (km/s) = 3.42701 4.14656 3.80384
# Velocity P-wave (km/s) = 6.82196 7.33629 7.08379
#
# Compressibility (1/GPa) = 0.01337384
#
# Stress axis : x y z
#
# Youngs Moduli (GPa) = 125.33729 125.29740 140.67652
#
# Poissons Ratio (x) = 0.29963 0.17271
# Poissons Ratio (y) = 0.29972 0.17276
# Poissons Ratio (z) = 0.15387 0.15387
#
# Static dielectric constant tensor:
#      x y z
#    x 2.040370 0.000000 0.000000 
#    y 0.000000 2.040410 0.000000 
#    z 0.000000 0.000000 1.960050 
# 
# From -- ./inp_files/1632.got.cif
#   From: 2010.05.17/outbox.cif.g08.bks.cpg/sg45_1_cif.got.tgz:1632.got - 2010.06.03 19:51:22.
