data_PCOD9377661
_publ_section_title
;
Structure prediction by ZEFSAII (Michael W. Deem and Ramdas Pophale) SiO2 
 PCOD9377661
Probable space group: I B A 2
;
_chemical_formula_sum "Si O2"
_cell_formula_units_Z 40
_cell_length_a 7.864792
_cell_length_b 20.666736
_cell_length_c 11.140902
_cell_angle_alpha 90.000000
_cell_angle_beta 90.000000
_cell_angle_gamma 90.000000
_cell_volume 1810.837531
_symmetry_space_group_name_H-M "I B A 2"
_symmetry_group_IT_number 45
_symmetry_cell_setting 'orthorhombic'
loop_
_space_group_symop_operation_xyz
x,y,z
-x,-y,z
-x,y,1/2+z
x,-y,1/2+z
1/2+x,1/2+y,1/2+z
1/2-x,1/2-y,1/2+z
1/2-x,1/2+y,z
1/2+x,1/2-y,z
loop_
_atom_site_type_symbol
_atom_site_label
_atom_site_fract_x
_atom_site_fract_y
_atom_site_fract_z
Si Si1 0.418171 0.063700 0.176240
Si Si2 0.223458 0.322664 0.837804
Si Si3 0.254984 0.379103 0.096345
Si Si4 0.399177 0.320803 0.319431
Si Si5 0.085209 0.937185 0.511710
O O1 0.377097 0.120509 0.270277
O O2 0.575666 0.085551 0.094269
O O3 0.253601 0.051914 0.091838
O O4 0.500000 0.000000 0.237937
O O5 0.406617 0.320619 0.773209
O O6 0.135322 0.253513 0.850977
O O7 0.266679 0.341285 0.973313
O O8 0.267464 0.336476 0.214436
O O9 0.426929 0.421062 0.099298
O O10 0.381638 0.376930 0.420996
O O11 0.000000 0.000000 0.445235
#
# Coordination Sequence:
#
# PCOD9377661 Si02
#       5
#     8   8   8   8   8
#     4  12  26  45  77 107 149 197 250 304 370 438
#     4  11  27  46  72 112 149 200 247 301 372 441
#     4  11  26  46  70 111 148 193 247 307 368 438
#     4  11  26  47  74 106 157 196 245 309 364 445
#     4  11  25  48  72 109 147 199 248 307 368 432
#
# _framework density 22.089226
#
# number of rings (size 3 to 8) (size 9 to 14) (size 15 to 20)
#    0.000    0.800    4.000    1.200    8.400    6.400 
#    0.000    0.000    0.000    0.000    0.000    0.000 
#    0.000    0.000    0.000    0.000    0.000    0.000 
#
# Total GULP energy -111562.689847 kJ/mol
# GULP energy per Si atom -5578.134492 kJ/mol
# Density = 2.203895 g / cm^3
# Si number density = 22.089226 Si / 1000 Ang^3
#
#
#
# Elastic Constant Matrix: (Units=GPa)
#
#
# Indices 1 2 3 4 5 6 
#
# 1 162.1529 63.9457 32.4345 0.0000 0.0000 0.0000
# 2 63.9457 161.7846 45.8327 -0.0001 0.0000 0.0000
# 3 32.4345 45.8327 66.3347 0.0002 -0.0001 0.0000
# 4 0.0000 -0.0001 0.0002 17.8032 -0.0001 0.0000
# 5 0.0000 0.0000 -0.0001 -0.0001 -1.0552 0.0000
# 6 0.0000 0.0000 0.0000 0.0000 0.0000 54.5673
#
#
#
# Elastic Compliance Matrix: (Units=1/GPa)
#
#
# Indices 1 2 3 4 5 6 
#
# 1 0.007517 -0.002399 -0.002017 0.000000 0.000000 0.000000
# 2 -0.002399 0.008451 -0.004666 0.000000 0.000000 0.000000
# 3 -0.002017 -0.004666 0.019285 0.000000 -0.000001 0.000000
# 4 0.000000 0.000000 0.000000 0.056170 -0.000004 0.000000
# 5 0.000000 0.000000 -0.000001 -0.000004 -0.947678 0.000000
# 6 0.000000 0.000000 0.000000 0.000000 0.000000 0.018326
#
#
# Mechanical properties :
#
#
# Convention : Reuss Voigt Hill
#
# Bulk Modulus (GPa) = 58.52220 74.96643 66.74432
# Shear Modulus (GPa) = -6.14200 30.80036 12.32918
#
# Velocity S-wave (km/s) = -1.66930 3.73817 2.36509
# Velocity P-wave (km/s) = 4.77866 7.25559 6.14325
#
# Compressibility (1/GPa) = 0.01708753
#
# Stress axis : x y z
#
# Youngs Moduli (GPa) = 133.03508 118.32463 51.85268
#
# Poissons Ratio (x) = 0.28392 0.10461
# Poissons Ratio (y) = 0.31922 0.24195
# Poissons Ratio (z) = 0.26840 0.55211
#
# Static dielectric constant tensor:
#      x y z
#    x 1.822190 0.000000 0.000000 
#    y 0.000000 1.946860 0.000000 
#    z 0.000000 0.000000 1.774370 
# 
# From -- ./inp_files/3143.got.cif
#   From: 2010.05.17/outbox.cif.g08.bks.cpg/sg45_2_cif.got.tgz:3143.got - 2010.06.03 19:51:22.
