data_PCOD9377826
_publ_section_title
;
Structure prediction by ZEFSAII (Michael W. Deem and Ramdas Pophale) SiO2 
 PCOD9377826
Probable space group: I M A 2
;
_chemical_formula_sum "Si O2"
_cell_formula_units_Z 56
_cell_length_a 9.000953
_cell_length_b 22.546618
_cell_length_c 18.300026
_cell_angle_alpha 90.000000
_cell_angle_beta 90.000000
_cell_angle_gamma 90.000000
_cell_volume 3713.826472
_symmetry_space_group_name_H-M "I M A 2"
_symmetry_group_IT_number 46
_symmetry_cell_setting 'orthorhombic'
loop_
_space_group_symop_operation_xyz
x,y,z
-x,-y,z
1/2-x,y,z
1/2+x,-y,z
1/2+x,1/2+y,1/2+z
1/2-x,1/2-y,1/2+z
-x,1/2+y,1/2+z
x,1/2-y,1/2+z
loop_
_atom_site_type_symbol
_atom_site_label
_atom_site_fract_x
_atom_site_fract_y
_atom_site_fract_z
Si Si1 0.427507 0.215188 0.858340
Si Si2 0.071033 0.655777 0.657237
Si Si3 0.428781 0.218022 0.694628
Si Si4 0.922612 0.318018 0.050167
Si Si5 0.079037 0.820510 0.000396
Si Si6 0.928334 0.849911 0.403856
Si Si7 0.927630 0.064396 0.285668
O O1 0.250000 0.212545 0.861876
O O2 0.473123 0.198343 0.776298
O O3 0.491852 0.177059 0.924802
O O4 0.468631 0.284320 0.872605
O O5 0.250000 0.667601 0.657128
O O6 0.026620 0.644857 0.572747
O O7 0.041934 0.602211 0.712167
O O8 0.987466 0.714638 0.684619
O O9 0.250000 0.217636 0.688696
O O10 0.500498 0.180414 0.629151
O O11 0.750000 0.335318 0.053356
O O12 0.927711 0.248440 0.026420
O O13 0.009404 0.351908 0.986243
O O14 0.250000 0.835640 0.986430
O O15 0.750000 0.855097 0.403148
O O16 0.002704 0.898580 0.352433
O O17 0.750000 0.060177 0.294443
O O18 0.000000 0.000000 0.281639
#
# Coordination Sequence:
#
# PCOD9377826 Si02
#       7
#     8   8   8   8   8   8   8
#     4   9  17  26  39  62  89 115 144 176 214 261
#     4   9  18  31  44  59  82 114 149 185 224 264
#     4  10  17  26  41  63  89 117 147 179 215 260
#     4   9  17  28  41  61  85 114 148 179 216 264
#     4   8  15  26  40  58  80 109 144 176 211 259
#     4  10  18  31  46  62  85 115 149 186 227 266
#     4  11  22  34  48  65  87 116 154 195 231 268
#
# _framework density 15.078787999999999
#
# number of rings (size 3 to 8) (size 9 to 14) (size 15 to 20)
#    0.000    2.571    1.429    2.571    0.000    5.714 
#    0.000    0.000    0.000    0.000    0.000    0.000 
#    0.000    1.143    0.000    6.000    0.000    5.571 
#
# Total GULP energy -155966.036358 kJ/mol
# GULP energy per Si atom -5570.215584 kJ/mol
# Density = 1.504447 g / cm^3
# Si number density = 15.078788 Si / 1000 Ang^3
#
#
#
# Elastic Constant Matrix: (Units=GPa)
#
#
# Indices 1 2 3 4 5 6 
#
# 1 55.5861 26.9020 58.8027 0.0000 0.0000 0.0000
# 2 26.9020 46.0991 43.8968 0.0000 0.0000 0.0000
# 3 58.8027 43.8968 174.6280 0.0000 0.0000 0.0000
# 4 0.0000 0.0000 0.0000 11.1080 0.0000 0.0000
# 5 0.0000 0.0000 0.0000 0.0000 29.0269 0.0000
# 6 0.0000 0.0000 0.0000 0.0000 0.0000 15.2665
#
#
#
# Elastic Compliance Matrix: (Units=1/GPa)
#
#
# Indices 1 2 3 4 5 6 
#
# 1 0.031650 -0.010940 -0.007907 0.000000 0.000000 0.000000
# 2 -0.010940 0.032300 -0.004436 0.000000 0.000000 0.000000
# 3 -0.007907 -0.004436 0.009504 0.000000 0.000000 0.000000
# 4 0.000000 0.000000 0.000000 0.090025 0.000000 0.000000
# 5 0.000000 0.000000 0.000000 0.000000 0.034451 0.000000
# 6 0.000000 0.000000 0.000000 0.000000 0.000000 0.065503
#
#
# Mechanical properties :
#
#
# Convention : Reuss Voigt Hill
#
# Bulk Modulus (GPa) = 37.19129 59.50181 48.34655
# Shear Modulus (GPa) = 15.67585 20.86107 18.26846
#
# Velocity S-wave (km/s) = 3.22777 3.72354 3.48449
# Velocity P-wave (km/s) = 6.21366 7.61791 6.95134
#
# Compressibility (1/GPa) = 0.02688802
#
# Stress axis : x y z
#
# Youngs Moduli (GPa) = 31.59575 30.95941 105.21762
#
# Poissons Ratio (x) = 0.33870 0.83200
# Poissons Ratio (y) = 0.34566 0.46670
# Poissons Ratio (z) = 0.24984 0.13732
#
# Static dielectric constant tensor:
#      x y z
#    x 1.506640 0.000000 0.000000 
#    y 0.000000 1.462430 0.000000 
#    z 0.000000 0.000000 1.531260 
# 
# From -- ./inp_files/18441.got.cif
#   From: 2010.05.17/outbox.cif.g08.bks.cpg/sg46_10_cif.got.tgz:18441.got - 2010.06.03 19:58:25.
