data_PCOD9377489
_publ_section_title
;
Structure prediction by ZEFSAII (Michael W. Deem and Ramdas Pophale) SiO2 
 PCOD9377489
Probable space group: I B A 2
;
_chemical_formula_sum "Si O2"
_cell_formula_units_Z 40
_cell_length_a 15.392347
_cell_length_b 9.656757
_cell_length_c 10.485776
_cell_angle_alpha 90.000000
_cell_angle_beta 90.000000
_cell_angle_gamma 90.000000
_cell_volume 1558.607366
_symmetry_space_group_name_H-M "I B A 2"
_symmetry_group_IT_number 45
_symmetry_cell_setting 'orthorhombic'
loop_
_space_group_symop_operation_xyz
x,y,z
-x,-y,z
-x,y,1/2+z
x,-y,1/2+z
1/2+x,1/2+y,1/2+z
1/2-x,1/2-y,1/2+z
1/2-x,1/2+y,z
1/2+x,1/2-y,z
loop_
_atom_site_type_symbol
_atom_site_label
_atom_site_fract_x
_atom_site_fract_y
_atom_site_fract_z
Si Si1 0.548819 0.216059 0.569480
Si Si2 0.500000 0.000000 0.274194
Si Si3 0.717278 0.973068 0.092436
Si Si4 0.882238 0.356633 0.418489
Si Si5 0.500000 0.500000 0.964268
Si Si6 0.823613 0.076039 0.335964
O O1 0.645475 0.150945 0.576957
O O2 0.538313 0.379860 0.556867
O O3 0.483185 0.175252 0.453387
O O4 0.504602 0.136904 0.686733
O O5 0.596149 0.993185 0.337762
O O6 0.775328 0.003761 0.217457
O O7 0.777342 0.955891 0.969239
O O8 0.664734 0.111576 0.050437
O O9 0.832125 0.243380 0.336714
O O10 0.421783 0.533630 0.867895
#
# Coordination Sequence:
#
# PCOD9377489 Si02
#       6
#     8   4   8   8   4   8
#     4  11  24  49  82 121 172 228 290 358 447 534
#     4  12  20  44  88 114 166 228 290 354 430 548
#     4  12  25  51  83 128 169 227 294 371 438 535
#     4  11  25  48  77 127 162 228 291 364 442 537
#     4  10  28  58  78 130 176 240 286 366 460 548
#     4  11  30  50  84 121 178 225 292 371 447 529
#
# _framework density 25.663933
#
# number of rings (size 3 to 8) (size 9 to 14) (size 15 to 20)
#    0.000    0.800    4.000    1.200    5.600    2.400 
#   10.800    0.000    0.000    0.000    0.000    0.000 
#    0.000    0.000    0.000    0.000    0.000    0.000 
#
# Total GULP energy -111507.575149 kJ/mol
# GULP energy per Si atom -5575.378757 kJ/mol
# Density = 2.560552 g / cm^3
# Si number density = 25.663933 Si / 1000 Ang^3
#
#
#
# Elastic Constant Matrix: (Units=GPa)
#
#
# Indices 1 2 3 4 5 6 
#
# 1 197.9238 63.3021 102.1020 0.0000 0.0000 0.0000
# 2 63.3021 121.0649 60.5947 0.0000 0.0000 0.0000
# 3 102.1020 60.5947 191.5684 0.0000 0.0000 0.0000
# 4 0.0000 0.0000 0.0000 21.0736 0.0000 0.0000
# 5 0.0000 0.0000 0.0000 0.0000 20.9561 0.0000
# 6 0.0000 0.0000 0.0000 0.0000 0.0000 46.3352
#
#
#
# Elastic Compliance Matrix: (Units=1/GPa)
#
#
# Indices 1 2 3 4 5 6 
#
# 1 0.007459 -0.002270 -0.003257 0.000000 0.000000 0.000000
# 2 -0.002270 0.010504 -0.002113 0.000000 0.000000 0.000000
# 3 -0.003257 -0.002113 0.007625 0.000000 0.000000 0.000000
# 4 0.000000 0.000000 0.000000 0.047453 0.000000 0.000000
# 5 0.000000 0.000000 0.000000 0.000000 0.047719 0.000000
# 6 0.000000 0.000000 0.000000 0.000000 0.000000 0.021582
#
#
# Mechanical properties :
#
#
# Convention : Reuss Voigt Hill
#
# Bulk Modulus (GPa) = 97.01577 106.95052 101.98315
# Shear Modulus (GPa) = 31.04490 36.64353 33.84422
#
# Velocity S-wave (km/s) = 3.48180 3.78275 3.63539
# Velocity P-wave (km/s) = 7.35176 7.80019 7.57929
#
# Compressibility (1/GPa) = 0.01030760
#
# Stress axis : x y z
#
# Youngs Moduli (GPa) = 134.07073 95.19891 131.15489
#
# Poissons Ratio (x) = 0.21606 0.42723
# Poissons Ratio (y) = 0.30429 0.27712
# Poissons Ratio (z) = 0.43673 0.20115
#
# Static dielectric constant tensor:
#      x y z
#    x 2.142200 0.000000 0.000000 
#    y 0.000000 2.209680 0.000000 
#    z 0.000000 0.000000 2.490140 
# 
# From -- ./inp_files/4380.got.cif
#   From: 2010.05.17/outbox.cif.g08.bks.cpg/sg45_3_cif.got.tgz:4380.got - 2010.06.03 19:51:22.
