data_PCOD9377435
_publ_section_title
;
Structure prediction by ZEFSAII (Michael W. Deem and Ramdas Pophale) SiO2 
 PCOD9377435
Probable space group: I B A 2
;
_chemical_formula_sum "Si O2"
_cell_formula_units_Z 48
_cell_length_a 8.491532
_cell_length_b 15.350405
_cell_length_c 14.822368
_cell_angle_alpha 90.000000
_cell_angle_beta 90.000000
_cell_angle_gamma 90.000000
_cell_volume 1932.072772
_symmetry_space_group_name_H-M "I B A 2"
_symmetry_group_IT_number 45
_symmetry_cell_setting 'orthorhombic'
loop_
_space_group_symop_operation_xyz
x,y,z
-x,-y,z
-x,y,1/2+z
x,-y,1/2+z
1/2+x,1/2+y,1/2+z
1/2-x,1/2-y,1/2+z
1/2-x,1/2+y,z
1/2+x,1/2-y,z
loop_
_atom_site_type_symbol
_atom_site_label
_atom_site_fract_x
_atom_site_fract_y
_atom_site_fract_z
Si Si1 0.164072 0.328031 0.680840
Si Si2 0.838051 0.121117 0.919806
Si Si3 0.834678 0.924426 0.872865
Si Si4 0.365058 0.216759 0.789829
Si Si5 0.424943 0.906693 0.050016
Si Si6 0.335850 0.489568 0.176907
O O1 0.269934 0.242875 0.698081
O O2 0.266547 0.414794 0.693524
O O3 0.032865 0.316789 0.758267
O O4 0.064979 0.346815 0.589712
O O5 0.856684 0.193296 0.843586
O O6 0.025163 0.105887 0.938528
O O7 0.787219 0.022090 0.896581
O O8 0.695240 0.145160 0.985657
O O9 0.702530 0.853160 0.859961
O O10 0.883960 0.937155 0.767274
O O11 0.500000 0.000000 0.017055
O O12 0.306480 0.940247 0.128662
O O13 0.500000 0.500000 0.123975
#
# Coordination Sequence:
#
# PCOD9377435 Si02
#       6
#     8   8   8   8   8   8
#     4  11  24  43  71 107 148 195 257 306 376 461
#     4  11  24  45  67 109 151 191 251 312 397 448
#     4  11  22  41  74 103 140 198 248 313 377 461
#     4  12  23  43  74 109 145 197 258 316 372 461
#     4  10  25  47  71 106 151 199 255 324 388 447
#     4  11  21  43  76 104 138 190 254 310 377 454
#
# _framework density 24.843783999999999
#
# number of rings (size 3 to 8) (size 9 to 14) (size 15 to 20)
#    0.000    1.000    6.667    0.000    2.333    1.333 
#    3.000    1.667    0.000    0.000    0.000    0.000 
#    0.000    0.000    0.000    0.000    0.000    0.000 
#
# Total GULP energy -133890.973888 kJ/mol
# GULP energy per Si atom -5578.790579 kJ/mol
# Density = 2.478724 g / cm^3
# Si number density = 24.843784 Si / 1000 Ang^3
#
#
#
# Elastic Constant Matrix: (Units=GPa)
#
#
# Indices 1 2 3 4 5 6 
#
# 1 147.3188 50.7478 29.0326 0.0000 0.0000 0.0000
# 2 50.7478 124.0514 4.0794 0.0000 0.0000 0.0000
# 3 29.0326 4.0794 41.4943 0.0000 0.0000 0.0000
# 4 0.0000 0.0000 0.0000 19.5836 0.0000 0.0000
# 5 0.0000 0.0000 0.0000 0.0000 15.4789 0.0000
# 6 0.0000 0.0000 0.0000 0.0000 0.0000 38.3970
#
#
#
# Elastic Compliance Matrix: (Units=1/GPa)
#
#
# Indices 1 2 3 4 5 6 
#
# 1 0.009220 -0.003571 -0.006100 0.000000 0.000000 0.000000
# 2 -0.003571 0.009471 0.001568 0.000000 0.000000 0.000000
# 3 -0.006100 0.001568 0.028214 0.000000 0.000000 0.000000
# 4 0.000000 0.000000 0.000000 0.051063 0.000000 0.000000
# 5 0.000000 0.000000 0.000000 0.000000 0.064604 0.000000
# 6 0.000000 0.000000 0.000000 0.000000 0.000000 0.026044
#
#
# Mechanical properties :
#
#
# Convention : Reuss Voigt Hill
#
# Bulk Modulus (GPa) = 32.57639 53.39823 42.98731
# Shear Modulus (GPa) = 23.24981 29.95890 26.60436
#
# Velocity S-wave (km/s) = 3.06247 3.47636 3.27596
# Velocity P-wave (km/s) = 5.06418 6.13626 5.62582
#
# Compressibility (1/GPa) = 0.03069708
#
# Stress axis : x y z
#
# Youngs Moduli (GPa) = 108.45476 105.58983 35.44372
#
# Poissons Ratio (x) = 0.37710 0.21621
# Poissons Ratio (y) = 0.38733 -0.05557
# Poissons Ratio (z) = 0.66160 -0.16553
#
# Static dielectric constant tensor:
#      x y z
#    x 2.020520 0.000000 0.000000 
#    y 0.000000 1.942240 0.000000 
#    z 0.000000 0.000000 2.094450 
# 
# From -- ./inp_files/5594.got.cif
#   From: 2010.05.17/outbox.cif.g08.bks.cpg/sg45_3_cif.got.tgz:5594.got - 2010.06.03 19:51:22.
