data_PCOD9377893
_publ_section_title
;
Structure prediction by ZEFSAII (Michael W. Deem and Ramdas Pophale) SiO2 
 PCOD9377893
Probable space group: I M A 2
;
_chemical_formula_sum "Si O2"
_cell_formula_units_Z 64
_cell_length_a 8.649134
_cell_length_b 23.874838
_cell_length_c 19.699773
_cell_angle_alpha 90.000000
_cell_angle_beta 90.000000
_cell_angle_gamma 90.000000
_cell_volume 4067.937585
_symmetry_space_group_name_H-M "I M A 2"
_symmetry_group_IT_number 46
_symmetry_cell_setting 'orthorhombic'
loop_
_space_group_symop_operation_xyz
x,y,z
-x,-y,z
1/2-x,y,z
1/2+x,-y,z
1/2+x,1/2+y,1/2+z
1/2-x,1/2-y,1/2+z
-x,1/2+y,1/2+z
x,1/2-y,1/2+z
loop_
_atom_site_type_symbol
_atom_site_label
_atom_site_fract_x
_atom_site_fract_y
_atom_site_fract_z
Si Si1 0.063231 0.750403 0.187930
Si Si2 0.562543 0.269201 0.338347
Si Si3 0.565995 0.937518 0.332350
Si Si4 0.437476 0.832402 0.968691
Si Si5 0.433928 0.275910 0.045630
Si Si6 0.563531 0.117567 0.195557
Si Si7 0.435635 0.658603 0.922662
Si Si8 0.063704 0.938425 0.053147
O O1 0.250000 0.746221 0.182815
O O2 0.010799 0.726782 0.260875
O O3 0.025053 0.816788 0.187967
O O4 0.989017 0.721149 0.123080
O O5 0.750000 0.269065 0.336467
O O6 0.515155 0.316791 0.391970
O O7 0.517744 0.209635 0.371826
O O8 0.750000 0.939194 0.334220
O O9 0.511057 0.909430 0.261826
O O10 0.502692 0.898217 0.392454
O O11 0.500000 0.000000 0.336479
O O12 0.250000 0.829348 0.972391
O O13 0.501851 0.782932 0.016021
O O14 0.485940 0.892246 0.997821
O O15 0.250000 0.276505 0.041207
O O16 0.503321 0.323296 0.996282
O O17 0.750000 0.114133 0.202735
O O18 0.517351 0.084674 0.127423
O O19 0.250000 0.656428 0.923373
O O20 0.250000 0.940359 0.052439
O O21 0.000000 0.000000 0.041227
#
# Coordination Sequence:
#
# PCOD9377893 Si02
#       8
#     8   8   8   8   8   8   8   8
#     4  10  17  31  51  73  98 131 167 200 245 302
#     4   8  15  28  52  73  90 119 162 203 245 297
#     4  12  24  36  51  73 102 137 175 214 252 298
#     4   9  17  33  50  68  92 128 166 207 250 295
#     4  11  21  31  47  75 103 129 161 204 253 302
#     4  10  19  33  49  70  99 135 175 211 245 292
#     4  10  19  36  55  72  96 132 170 210 252 297
#     4  10  20  32  47  66  95 131 172 209 244 289
#
# _framework density 15.732789
#
# number of rings (size 3 to 8) (size 9 to 14) (size 15 to 20)
#    0.000    2.000    2.500    3.750    0.000    2.500 
#    0.000    0.625    0.000    0.000    0.000    0.875 
#    0.000    4.000    0.000    0.000    0.000    0.000 
#
# Total GULP energy -178554.763162 kJ/mol
# GULP energy per Si atom -5579.836349 kJ/mol
# Density = 1.569698 g / cm^3
# Si number density = 15.732789 Si / 1000 Ang^3
#
#
#
# Elastic Constant Matrix: (Units=GPa)
#
#
# Indices 1 2 3 4 5 6 
#
# 1 45.6160 34.5347 39.6820 0.0000 0.0000 0.0000
# 2 34.5347 92.7242 68.2012 0.0000 0.0000 0.0000
# 3 39.6820 68.2012 146.5293 0.0000 0.0000 0.0000
# 4 0.0000 0.0000 0.0000 19.9320 0.0000 0.0000
# 5 0.0000 0.0000 0.0000 0.0000 15.3104 0.0000
# 6 0.0000 0.0000 0.0000 0.0000 0.0000 20.6559
#
#
#
# Elastic Compliance Matrix: (Units=1/GPa)
#
#
# Indices 1 2 3 4 5 6 
#
# 1 0.032640 -0.008599 -0.004837 0.000000 0.000000 0.000000
# 2 -0.008599 0.018664 -0.006358 0.000000 0.000000 0.000000
# 3 -0.004837 -0.006358 0.011094 0.000000 0.000000 0.000000
# 4 0.000000 0.000000 0.000000 0.050171 0.000000 0.000000
# 5 0.000000 0.000000 0.000000 0.000000 0.065315 0.000000
# 6 0.000000 0.000000 0.000000 0.000000 0.000000 0.048412
#
#
# Mechanical properties :
#
#
# Convention : Reuss Voigt Hill
#
# Bulk Modulus (GPa) = 43.84154 63.30058 53.57106
# Shear Modulus (GPa) = 18.28236 20.67643 19.47939
#
# Velocity S-wave (km/s) = 3.41259 3.62916 3.52254
# Velocity P-wave (km/s) = 6.59201 7.60810 7.11821
#
# Compressibility (1/GPa) = 0.02280942
#
# Stress axis : x y z
#
# Youngs Moduli (GPa) = 30.63738 53.57899 90.13899
#
# Poissons Ratio (x) = 0.46072 0.43600
# Poissons Ratio (y) = 0.26345 0.57314
# Poissons Ratio (z) = 0.14819 0.34068
#
# Static dielectric constant tensor:
#      x y z
#    x 1.530460 0.000000 0.000000 
#    y 0.000000 1.501140 0.000000 
#    z 0.000000 0.000000 1.535550 
# 
# From -- ./inp_files/18660.got.cif
#   From: 2010.05.17/outbox.cif.g08.bks.cpg/sg46_10_cif.got.tgz:18660.got - 2010.06.03 19:58:25.
