data_PCOD9377733
_publ_section_title
;
Structure prediction by ZEFSAII (Michael W. Deem and Ramdas Pophale) SiO2 
 PCOD9377733
Probable space group: I B A 2
;
_chemical_formula_sum "Si O2"
_cell_formula_units_Z 22
_cell_length_a 15.000000
_cell_length_b 18.000000
_cell_length_c 9.000000
_cell_angle_alpha 90.000000
_cell_angle_beta 90.000000
_cell_angle_gamma 90.000000
_cell_volume 2430.000000
_symmetry_space_group_name_H-M "I B A 2"
_symmetry_group_IT_number 45
_symmetry_cell_setting 'orthorhombic'
loop_
_space_group_symop_operation_xyz
x,y,z
-x,-y,z
-x,y,1/2+z
x,-y,1/2+z
1/2+x,1/2+y,1/2+z
1/2-x,1/2-y,1/2+z
1/2-x,1/2+y,z
1/2+x,1/2-y,z
loop_
_atom_site_type_symbol
_atom_site_label
_atom_site_fract_x
_atom_site_fract_y
_atom_site_fract_z
Si Si1 0.108584 0.912102 0.925510
Si Si2 0.913748 0.265746 0.947148
Si Si3 0.500000 0.500000 0.176048
Si Si4 0.814210 0.446336 0.447655
Si Si5 0.878536 0.408927 0.777355
Si Si6 0.937397 0.336986 0.269141
O O1 0.108874 0.821463 0.932121
O O2 0.208973 0.942636 0.922142
O O3 0.057126 0.945502 0.782531
O O4 0.059965 0.947935 0.069222
O O5 0.857632 0.327024 0.849424
O O6 0.013561 0.279670 0.881389
O O7 0.912657 0.295787 0.116430
O O8 0.833563 0.429041 0.620833
O O9 0.855163 0.525341 0.393066
O O10 0.859107 0.381196 0.349445
O O11 0.984077 0.398253 0.743236
#
# Coordination Sequence:
#
# PCOD9377733 Si02
#       6
#     8   8   4   8   8   8
#     4  11  24  43  69  90 122 169 217 275 305 400
#     4  10  21  39  61  90 126 172 206 252 335 368
#     4  10  24  46  64  88 124 170 214 262 342 364
#     4  12  22  38  63  96 126 164 225 254 319 381
#     4  10  22  37  59  93 132 167 200 263 318 392
#     4  10  20  38  61  91 128 171 201 259 323 395
#
# _framework density 9.0534979999999994
#
# number of rings (size 3 to 8) (size 9 to 14) (size 15 to 20)
#    1.091    0.364    1.818    3.818    0.000    2.909 
#    0.000    3.636    0.000    0.000    0.000    0.000 
#    0.000    0.000    0.000    0.000    0.000    0.000 
#
# Total GULP energy -122665.950209 kJ/mol
# GULP energy per Si atom -5575.725010 kJ/mol
# Density = 0.903289 g / cm^3
# Si number density = 9.053498 Si / 1000 Ang^3
#
#
#
# Elastic Constant Matrix: (Units=GPa)
#
#
# Indices 1 2 3 4 5 6 
#
# 1 81.1835 23.6049 19.5799 0.0000 0.0000 0.0000
# 2 23.6049 156.9094 54.9915 0.0000 0.0000 0.0000
# 3 19.5799 54.9915 119.4099 0.0000 0.0000 0.0000
# 4 0.0000 0.0000 0.0000 31.3658 0.0000 0.0000
# 5 0.0000 0.0000 0.0000 0.0000 18.9540 0.0000
# 6 0.0000 0.0000 0.0000 0.0000 0.0000 17.0330
#
#
#
# Elastic Compliance Matrix: (Units=1/GPa)
#
#
# Indices 1 2 3 4 5 6 
#
# 1 0.013097 -0.001452 -0.001479 0.000000 0.000000 0.000000
# 2 -0.001452 0.007761 -0.003336 0.000000 0.000000 0.000000
# 3 -0.001479 -0.003336 0.010153 0.000000 0.000000 0.000000
# 4 0.000000 0.000000 0.000000 0.031882 0.000000 0.000000
# 5 0.000000 0.000000 0.000000 0.000000 0.052759 0.000000
# 6 0.000000 0.000000 0.000000 0.000000 0.000000 0.058710
#
#
# Mechanical properties :
#
#
# Convention : Reuss Voigt Hill
#
# Bulk Modulus (GPa) = 54.12076 61.53949 57.83012
# Shear Modulus (GPa) = 25.89952 30.75898 28.32925
#
# Velocity S-wave (km/s) = 3.78611 4.12604 3.95973
# Velocity P-wave (km/s) = 7.00480 7.53388 7.27415
#
# Compressibility (1/GPa) = 0.01847720
#
# Stress axis : x y z
#
# Youngs Moduli (GPa) = 76.35571 128.85511 98.49029
#
# Poissons Ratio (x) = 0.18709 0.14565
# Poissons Ratio (y) = 0.11086 0.32856
# Poissons Ratio (z) = 0.11292 0.42985
#
# Static dielectric constant tensor:
#      x y z
#    x 1.618780 0.000000 0.000000 
#    y 0.000000 1.603850 0.000000 
#    z 0.000000 0.000000 1.624110 
# 
# From -- ./inp_files/1674.got.cif
#   From: 2010.05.17/outbox.ucp.g08.bks.cvg/sg45_1_cif.got.tgz:1674.got - 2010.06.11 16:34:12.
