data_PCOD9377725
_publ_section_title
;
Structure prediction by ZEFSAII (Michael W. Deem and Ramdas Pophale) SiO2 
 PCOD9377725
Probable space group: I B A 2
;
_chemical_formula_sum "Si O2"
_cell_formula_units_Z 40
_cell_length_a 9.687596
_cell_length_b 8.845706
_cell_length_c 19.334616
_cell_angle_alpha 90.000000
_cell_angle_beta 90.000000
_cell_angle_gamma 90.000000
_cell_volume 1656.853354
_symmetry_space_group_name_H-M "I B A 2"
_symmetry_group_IT_number 45
_symmetry_cell_setting 'orthorhombic'
loop_
_space_group_symop_operation_xyz
x,y,z
-x,-y,z
-x,y,1/2+z
x,-y,1/2+z
1/2+x,1/2+y,1/2+z
1/2-x,1/2-y,1/2+z
1/2-x,1/2+y,z
1/2+x,1/2-y,z
loop_
_atom_site_type_symbol
_atom_site_label
_atom_site_fract_x
_atom_site_fract_y
_atom_site_fract_z
Si Si1 0.380852 0.880815 0.504740
Si Si2 0.154349 0.938508 0.068799
Si Si3 0.842857 0.525995 0.698208
Si Si4 0.255002 0.232594 0.793075
Si Si5 0.506869 0.329312 0.382747
O O1 0.354765 0.740456 0.556058
O O2 0.433873 0.794589 0.436037
O O3 0.500000 0.000000 0.523066
O O4 0.241046 0.979158 0.507241
O O5 0.240842 0.980382 0.136928
O O6 0.000000 0.000000 0.074057
O O7 0.815010 0.692538 0.726286
O O8 0.815006 0.424812 0.766296
O O9 0.000000 0.500000 0.677375
O O10 0.384294 0.328907 0.819836
O O11 0.141503 0.217290 0.852887
O O12 0.500000 0.500000 0.410378
#
# Coordination Sequence:
#
# PCOD9377725 Si02
#       5
#     8   8   8   8   8
#     4  12  30  53  81 118 161 214 273 344 416 501
#     4  12  29  51  82 117 159 217 279 344 419 493
#     4  12  27  50  79 115 161 208 271 343 408 492
#     4  12  27  47  78 118 158 210 264 334 413 488
#     4  12  29  49  80 118 166 216 270 336 413 506
#
# _framework density 24.142149
#
# number of rings (size 3 to 8) (size 9 to 14) (size 15 to 20)
#    0.000    0.000    4.000    3.600   14.000    3.200 
#    0.000    0.000    0.000    0.000    0.000    0.000 
#    0.000    0.000    0.000    0.000    0.000    0.000 
#
# Total GULP energy -112084.859978 kJ/mol
# GULP energy per Si atom -5604.242999 kJ/mol
# Density = 2.408720 g / cm^3
# Si number density = 24.142149 Si / 1000 Ang^3
#
#
#
# Elastic Constant Matrix: (Units=GPa)
#
#
# Indices 1 2 3 4 5 6 
#
# 1 205.5014 53.7406 36.4000 0.0000 0.0000 0.0000
# 2 53.7406 143.1669 20.4721 0.0000 0.0000 0.0000
# 3 36.4000 20.4721 88.8133 0.0000 0.0000 0.0000
# 4 0.0000 0.0000 0.0000 38.9498 0.0000 0.0000
# 5 0.0000 0.0000 0.0000 0.0000 42.3502 0.0000
# 6 0.0000 0.0000 0.0000 0.0000 0.0000 33.4843
#
#
#
# Elastic Compliance Matrix: (Units=1/GPa)
#
#
# Indices 1 2 3 4 5 6 
#
# 1 0.005691 -0.001864 -0.001903 0.000000 0.000000 0.000000
# 2 -0.001864 0.007834 -0.001042 0.000000 0.000000 0.000000
# 3 -0.001903 -0.001042 0.012279 0.000000 0.000000 0.000000
# 4 0.000000 0.000000 0.000000 0.025674 0.000000 0.000000
# 5 0.000000 0.000000 0.000000 0.000000 0.023613 0.000000
# 6 0.000000 0.000000 0.000000 0.000000 0.000000 0.029865
#
#
# Mechanical properties :
#
#
# Convention : Reuss Voigt Hill
#
# Bulk Modulus (GPa) = 61.77835 73.18966 67.48400
# Shear Modulus (GPa) = 41.67798 44.74812 43.21305
#
# Velocity S-wave (km/s) = 4.15945 4.30993 4.23536
# Velocity P-wave (km/s) = 6.97947 7.42626 7.20633
#
# Compressibility (1/GPa) = 0.01618690
#
# Stress axis : x y z
#
# Youngs Moduli (GPa) = 175.72801 127.65661 81.43664
#
# Poissons Ratio (x) = 0.23795 0.15494
# Poissons Ratio (y) = 0.32756 0.08483
# Poissons Ratio (z) = 0.33434 0.13298
#
# Static dielectric constant tensor:
#      x y z
#    x 1.871950 0.000000 0.000000 
#    y 0.000000 1.980430 0.000000 
#    z 0.000000 0.000000 1.974040 
# 
# From -- ./inp_files/9490.got.cif
#   From: 2010.05.17/outbox.cif.g08.bks.cpg/sg45_5_cif.got.tgz:9490.got - 2010.06.03 19:51:22.
