data_PCOD9377076
_publ_section_title
;
Structure prediction by ZEFSAII (Michael W. Deem and Ramdas Pophale) SiO2 
 PCOD9377076
Probable space group: I B A 2
;
_chemical_formula_sum "Si O2"
_cell_formula_units_Z 48
_cell_length_a 13.739913
_cell_length_b 13.220569
_cell_length_c 10.162146
_cell_angle_alpha 90.000000
_cell_angle_beta 90.000000
_cell_angle_gamma 90.000000
_cell_volume 1845.948413
_symmetry_space_group_name_H-M "I B A 2"
_symmetry_group_IT_number 45
_symmetry_cell_setting 'orthorhombic'
loop_
_space_group_symop_operation_xyz
x,y,z
-x,-y,z
-x,y,1/2+z
x,-y,1/2+z
1/2+x,1/2+y,1/2+z
1/2-x,1/2-y,1/2+z
1/2-x,1/2+y,z
1/2+x,1/2-y,z
loop_
_atom_site_type_symbol
_atom_site_label
_atom_site_fract_x
_atom_site_fract_y
_atom_site_fract_z
Si Si1 0.874858 0.228970 0.117720
Si Si2 0.390045 0.967835 0.969724
Si Si3 0.063091 0.897283 0.343162
Si Si4 0.799571 0.558072 0.716292
Si Si5 0.145769 0.188415 0.326308
Si Si6 0.602415 0.747006 0.554463
O O1 0.874521 0.130180 0.212861
O O2 0.841862 0.329380 0.191791
O O3 0.988320 0.245376 0.086776
O O4 0.824426 0.219695 0.973669
O O5 0.363255 0.002146 0.823279
O O6 0.500000 0.000000 0.004771
O O7 0.382331 0.847229 0.971674
O O8 0.313458 0.007156 0.076208
O O9 0.119959 0.856659 0.472130
O O10 0.970094 0.822406 0.333883
O O11 0.000000 0.000000 0.355658
O O12 0.696667 0.582218 0.785795
O O13 0.159026 0.253889 0.193476
#
# Coordination Sequence:
#
# PCOD9377076 Si02
#       6
#     8   8   8   8   8   8
#     4  10  22  42  69  96 140 192 240 291 360 433
#     4  12  26  44  73 107 144 194 252 291 371 448
#     4  10  22  44  75 100 137 193 247 292 354 444
#     4  12  27  43  68 109 146 192 237 313 367 434
#     4  10  26  43  67 104 142 183 241 299 375 419
#     4  10  22  45  72 102 139 191 246 297 355 446
#
# _framework density 26.002891999999999
#
# number of rings (size 3 to 8) (size 9 to 14) (size 15 to 20)
#    0.000    1.333    3.333    0.500    4.667    8.667 
#    0.000    0.000    0.000    0.000    0.000    0.000 
#    0.000    0.000    0.000    0.000    0.000    0.000 
#
# Total GULP energy -134030.842914 kJ/mol
# GULP energy per Si atom -5584.618455 kJ/mol
# Density = 2.594371 g / cm^3
# Si number density = 26.002892 Si / 1000 Ang^3
#
#
#
# Elastic Constant Matrix: (Units=GPa)
#
#
# Indices 1 2 3 4 5 6 
#
# 1 72.7118 -10.6011 33.9090 0.0000 0.0000 0.0000
# 2 -10.6011 104.1704 71.1979 0.0000 0.0000 0.0000
# 3 33.9090 71.1979 205.1944 0.0000 0.0000 0.0000
# 4 0.0000 0.0000 0.0000 41.1862 0.0000 0.0000
# 5 0.0000 0.0000 0.0000 0.0000 21.1111 0.0000
# 6 0.0000 0.0000 0.0000 0.0000 0.0000 18.6997
#
#
#
# Elastic Compliance Matrix: (Units=1/GPa)
#
#
# Indices 1 2 3 4 5 6 
#
# 1 0.016444 0.004628 -0.004323 0.000000 0.000000 0.000000
# 2 0.004628 0.013887 -0.005583 0.000000 0.000000 0.000000
# 3 -0.004323 -0.005583 0.007525 0.000000 0.000000 0.000000
# 4 0.000000 0.000000 0.000000 0.024280 0.000000 0.000000
# 5 0.000000 0.000000 0.000000 0.000000 0.047368 0.000000
# 6 0.000000 0.000000 0.000000 0.000000 0.000000 0.053477
#
#
# Mechanical properties :
#
#
# Convention : Reuss Voigt Hill
#
# Bulk Modulus (GPa) = 36.63104 63.45426 50.04265
# Shear Modulus (GPa) = 27.37670 35.37079 31.37375
#
# Velocity S-wave (km/s) = 3.24826 3.69218 3.47731
# Velocity P-wave (km/s) = 5.30906 6.52932 5.95055
#
# Compressibility (1/GPa) = 0.02729925
#
# Stress axis : x y z
#
# Youngs Moduli (GPa) = 60.81286 72.01160 132.88825
#
# Poissons Ratio (x) = -0.33329 0.57452
# Poissons Ratio (y) = -0.28146 0.74194
# Poissons Ratio (z) = 0.26291 0.40206
#
# Static dielectric constant tensor:
#      x y z
#    x 2.062840 0.000000 0.000000 
#    y 0.000000 2.022700 0.000000 
#    z 0.000000 0.000000 2.128140 
# 
# From -- ./inp_files/2084.got.cif
#   From: 2010.05.17/outbox.cif.g08.bks.cpg/sg45_2_cif.got.tgz:2084.got - 2010.06.03 19:51:22.
