data_PCOD9377845
_publ_section_title
;
Structure prediction by ZEFSAII (Michael W. Deem and Ramdas Pophale) SiO2 
 PCOD9377845
Probable space group: I M A 2
;
_chemical_formula_sum "Si O2"
_cell_formula_units_Z 48
_cell_length_a 26.377607
_cell_length_b 19.417819
_cell_length_c 5.348356
_cell_angle_alpha 90.000000
_cell_angle_beta 90.000000
_cell_angle_gamma 90.000000
_cell_volume 2739.404402
_symmetry_space_group_name_H-M "I M A 2"
_symmetry_group_IT_number 46
_symmetry_cell_setting 'orthorhombic'
loop_
_space_group_symop_operation_xyz
x,y,z
-x,-y,z
1/2-x,y,z
1/2+x,-y,z
1/2+x,1/2+y,1/2+z
1/2-x,1/2-y,1/2+z
-x,1/2+y,1/2+z
x,1/2-y,1/2+z
loop_
_atom_site_type_symbol
_atom_site_label
_atom_site_fract_x
_atom_site_fract_y
_atom_site_fract_z
Si Si1 0.972598 0.074285 0.701700
Si Si2 0.859142 0.581233 0.607958
Si Si3 0.640575 0.827023 0.607314
Si Si4 0.443562 0.967246 0.200922
Si Si5 0.750000 0.585632 0.686234
Si Si6 0.470856 0.213563 0.623585
Si Si7 0.750000 0.824726 0.687788
O O1 0.935016 0.067858 0.467812
O O2 0.012555 0.134392 0.649108
O O3 0.946107 0.084229 0.967837
O O4 0.000000 0.000000 0.724974
O O5 0.862229 0.619077 0.339858
O O6 0.903905 0.526991 0.641018
O O7 0.803159 0.548346 0.637888
O O8 0.861869 0.634593 0.840106
O O9 0.590223 0.782413 0.625615
O O10 0.695288 0.790314 0.640826
O O11 0.500000 0.000000 0.225253
O O12 0.750000 0.644654 0.468270
O O13 0.750000 0.616664 0.967599
O O14 0.489547 0.244703 0.363689
#
# Coordination Sequence:
#
# PCOD9377845 Si02
#       7
#     8   8   8   8   4   8   4
#     4  10  20  34  51  71  94 124 162 199 242 296
#     4  10  17  29  49  72  98 128 167 208 246 292
#     4  10  18  32  47  66  93 129 170 211 248 282
#     4  10  17  27  46  71  92 121 160 202 237 284
#     4   8  16  26  42  69  98 128 156 201 258 284
#     4  12  24  37  51  72 100 132 165 209 256 295
#     4   8  16  28  46  63  86 124 172 211 240 278
#
# _framework density 17.522057
#
# number of rings (size 3 to 8) (size 9 to 14) (size 15 to 20)
#    0.000    2.000    0.000    7.000    0.000    0.000 
#    0.000    0.833    0.000    0.000    0.000    0.000 
#    0.000    0.000    0.000   15.000    0.000    4.833 
#
# Total GULP energy -133856.699552 kJ/mol
# GULP energy per Si atom -5577.362481 kJ/mol
# Density = 1.748218 g / cm^3
# Si number density = 17.522057 Si / 1000 Ang^3
#
#
#
# Elastic Constant Matrix: (Units=GPa)
#
#
# Indices 1 2 3 4 5 6 
#
# 1 60.5337 13.9375 -5.5976 0.0000 0.0000 0.0000
# 2 13.9375 41.0033 -1.9204 0.0000 0.0000 0.0000
# 3 -5.5976 -1.9204 86.4352 0.0000 0.0000 0.0000
# 4 0.0000 0.0000 0.0000 26.0021 0.0000 0.0000
# 5 0.0000 0.0000 0.0000 0.0000 15.5818 0.0000
# 6 0.0000 0.0000 0.0000 0.0000 0.0000 15.3992
#
#
#
# Elastic Compliance Matrix: (Units=1/GPa)
#
#
# Indices 1 2 3 4 5 6 
#
# 1 0.018014 -0.006075 0.001032 0.000000 0.000000 0.000000
# 2 -0.006075 0.026462 0.000195 0.000000 0.000000 0.000000
# 3 0.001032 0.000195 0.011640 0.000000 0.000000 0.000000
# 4 0.000000 0.000000 0.000000 0.038459 0.000000 0.000000
# 5 0.000000 0.000000 0.000000 0.000000 0.064177 0.000000
# 6 0.000000 0.000000 0.000000 0.000000 0.000000 0.064938
#
#
# Mechanical properties :
#
#
# Convention : Reuss Voigt Hill
#
# Bulk Modulus (GPa) = 21.54277 22.31235 21.92756
# Shear Modulus (GPa) = 20.09153 23.50014 21.79583
#
# Velocity S-wave (km/s) = 3.38988 3.66618 3.53073
# Velocity P-wave (km/s) = 5.25767 5.53919 5.40027
#
# Compressibility (1/GPa) = 0.04641930
#
# Stress axis : x y z
#
# Youngs Moduli (GPa) = 55.51298 37.78963 85.90703
#
# Poissons Ratio (x) = 0.22956 -0.08862
# Poissons Ratio (y) = 0.33723 -0.01671
# Poissons Ratio (z) = -0.05727 -0.00735
#
# Static dielectric constant tensor:
#      x y z
#    x 1.603720 0.000000 0.000000 
#    y 0.000000 1.574940 0.000000 
#    z 0.000000 0.000000 1.708210 
# 
# From -- ./inp_files/2353.got.cif
#   From: 2010.05.17/outbox.cif.g08.bks.cpg/sg46_2_cif.got.tgz:2353.got - 2010.06.03 19:58:25.
