data_PCOD9377254
_publ_section_title
;
Structure prediction by ZEFSAII (Michael W. Deem and Ramdas Pophale) SiO2 
 PCOD9377254
Probable space group: I B A 2
;
_chemical_formula_sum "Si O2"
_cell_formula_units_Z 64
_cell_length_a 21.375673
_cell_length_b 8.532827
_cell_length_c 14.060040
_cell_angle_alpha 90.000000
_cell_angle_beta 90.000000
_cell_angle_gamma 90.000000
_cell_volume 2564.479867
_symmetry_space_group_name_H-M "I B A 2"
_symmetry_group_IT_number 45
_symmetry_cell_setting 'orthorhombic'
loop_
_space_group_symop_operation_xyz
x,y,z
-x,-y,z
-x,y,1/2+z
x,-y,1/2+z
1/2+x,1/2+y,1/2+z
1/2-x,1/2-y,1/2+z
1/2-x,1/2+y,z
1/2+x,1/2-y,z
loop_
_atom_site_type_symbol
_atom_site_label
_atom_site_fract_x
_atom_site_fract_y
_atom_site_fract_z
Si Si1 0.531055 0.666265 0.373020
Si Si2 0.523355 0.319931 0.183648
Si Si3 0.721295 0.374865 0.026360
Si Si4 0.734944 0.583577 0.752086
Si Si5 0.896613 0.315287 0.540854
Si Si6 0.589050 0.180228 0.572983
Si Si7 0.341939 0.718633 0.758114
Si Si8 0.828871 0.193967 0.931252
O O1 0.500000 0.500000 0.401452
O O2 0.484887 0.732654 0.292059
O O3 0.552761 0.770175 0.460573
O O4 0.598031 0.655777 0.315855
O O5 0.500000 0.500000 0.179452
O O6 0.588839 0.293452 0.132869
O O7 0.477105 0.216363 0.120061
O O8 0.731763 0.383165 0.139527
O O9 0.671540 0.236879 0.006947
O O10 0.784524 0.329431 0.973141
O O11 0.692337 0.532562 0.982560
O O12 0.713582 0.405525 0.762605
O O13 0.805580 0.622473 0.786534
O O14 0.685561 0.672604 0.820563
O O15 0.900471 0.495974 0.566072
O O16 0.635074 0.257516 0.650651
O O17 0.603095 0.262019 0.472152
#
# Coordination Sequence:
#
# PCOD9377254 Si02
#       8
#     8   8   8   8   8   8   8   8
#     4  10  24  47  76 108 149 200 266 325 390 485
#     4  10  23  46  74  99 137 192 247 314 384 457
#     4  12  25  43  67 106 148 192 249 316 377 470
#     4  12  24  42  71 102 147 198 250 315 387 476
#     4  12  25  44  71 108 146 192 245 316 393 458
#     4  11  24  46  68 100 149 186 243 315 380 469
#     4  11  25  47  70 106 152 199 255 319 394 466
#     4  12  24  43  70 103 145 199 250 303 392 462
#
# _framework density 24.956326000000001
#
# number of rings (size 3 to 8) (size 9 to 14) (size 15 to 20)
#    0.000    0.750    2.500    4.500    5.250    2.000 
#    2.250    2.500    0.000    0.000    0.000    0.000 
#    0.000    0.000    0.000    0.000    0.000    0.000 
#
# Total GULP energy -179167.450862 kJ/mol
# GULP energy per Si atom -5598.982839 kJ/mol
# Density = 2.489952 g / cm^3
# Si number density = 24.956326 Si / 1000 Ang^3
#
#
#
# Elastic Constant Matrix: (Units=GPa)
#
#
# Indices 1 2 3 4 5 6 
#
# 1 60.4888 16.8781 11.2505 0.0000 0.0000 0.0000
# 2 16.8781 105.6584 21.4159 0.0000 0.0000 0.0000
# 3 11.2505 21.4159 140.7627 0.0000 0.0000 0.0000
# 4 0.0000 0.0000 0.0000 23.6965 0.0000 0.0000
# 5 0.0000 0.0000 0.0000 0.0000 37.1623 0.0000
# 6 0.0000 0.0000 0.0000 0.0000 0.0000 41.4652
#
#
#
# Elastic Compliance Matrix: (Units=1/GPa)
#
#
# Indices 1 2 3 4 5 6 
#
# 1 0.017439 -0.002583 -0.001001 0.000000 0.000000 0.000000
# 2 -0.002583 0.010148 -0.001338 0.000000 0.000000 0.000000
# 3 -0.001001 -0.001338 0.007388 0.000000 0.000000 0.000000
# 4 0.000000 0.000000 0.000000 0.042200 0.000000 0.000000
# 5 0.000000 0.000000 0.000000 0.000000 0.026909 0.000000
# 6 0.000000 0.000000 0.000000 0.000000 0.000000 0.024117
#
#
# Mechanical properties :
#
#
# Convention : Reuss Voigt Hill
#
# Bulk Modulus (GPa) = 39.78964 45.11099 42.45032
# Shear Modulus (GPa) = 34.14824 37.62250 35.88537
#
# Velocity S-wave (km/s) = 3.70309 3.88691 3.79611
# Velocity P-wave (km/s) = 5.85339 6.18541 6.02169
#
# Compressibility (1/GPa) = 0.02513217
#
# Stress axis : x y z
#
# Youngs Moduli (GPa) = 57.34334 98.54008 135.36128
#
# Poissons Ratio (x) = 0.25452 0.13547
# Poissons Ratio (y) = 0.14811 0.18105
# Poissons Ratio (z) = 0.05739 0.13180
#
# Static dielectric constant tensor:
#      x y z
#    x 2.012350 0.000000 0.000000 
#    y 0.000000 1.950290 0.000000 
#    z 0.000000 0.000000 1.994950 
# 
# From -- ./inp_files/7069.got.cif
#   From: 2010.05.17/outbox.cif.g08.bks.cpg/sg45_4_cif.got.tgz:7069.got - 2010.06.03 19:51:22.
