data_PCOD9377257
_publ_section_title
;
Structure prediction by ZEFSAII (Michael W. Deem and Ramdas Pophale) SiO2 
 PCOD9377257
Probable space group: I B A 2
;
_chemical_formula_sum "Si O2"
_cell_formula_units_Z 60
_cell_length_a 11.667201
_cell_length_b 25.542088
_cell_length_c 8.687000
_cell_angle_alpha 90.000000
_cell_angle_beta 90.000000
_cell_angle_gamma 90.000000
_cell_volume 2588.766609
_symmetry_space_group_name_H-M "I B A 2"
_symmetry_group_IT_number 45
_symmetry_cell_setting 'orthorhombic'
loop_
_space_group_symop_operation_xyz
x,y,z
-x,-y,z
-x,y,1/2+z
x,-y,1/2+z
1/2+x,1/2+y,1/2+z
1/2-x,1/2-y,1/2+z
1/2-x,1/2+y,z
1/2+x,1/2-y,z
loop_
_atom_site_type_symbol
_atom_site_label
_atom_site_fract_x
_atom_site_fract_y
_atom_site_fract_z
Si Si1 0.235495 0.623473 0.452310
Si Si2 0.149581 0.843408 0.444098
Si Si3 0.927773 0.811774 0.604272
Si Si4 0.006661 0.636605 0.289576
Si Si5 0.206235 0.431973 0.275852
Si Si6 0.500000 0.500000 0.515242
Si Si7 0.335375 0.539434 0.271815
Si Si8 0.616521 0.196278 0.517389
O O1 0.322234 0.668443 0.499295
O O2 0.236050 0.585225 0.600952
O O3 0.273698 0.593622 0.297955
O O4 0.106757 0.638957 0.415780
O O5 0.103111 0.820998 0.281807
O O6 0.216883 0.896397 0.391731
O O7 0.246166 0.806167 0.518792
O O8 0.040257 0.844213 0.555417
O O9 0.937652 0.750589 0.568978
O O10 0.927500 0.584462 0.293449
O O11 0.918212 0.681431 0.343319
O O12 0.067898 0.651653 0.131490
O O13 0.245465 0.491812 0.294904
O O14 0.431504 0.538391 0.404749
O O15 0.592890 0.528371 0.620224
#
# Coordination Sequence:
#
# PCOD9377257 Si02
#       8
#     8   8   8   8   8   4   8   8
#     4  11  25  44  68 103 139 185 236 301 351 437
#     4  10  26  42  66 102 136 184 235 297 351 440
#     4  11  26  42  69 101 145 181 245 290 368 431
#     4  11  24  47  71  99 140 186 242 300 364 425
#     4  10  23  47  67 100 139 182 235 294 361 431
#     4  10  24  38  66 100 136 182 226 282 354 430
#     4  11  23  42  69  99 139 186 228 288 359 419
#     4  11  25  44  71  97 142 190 235 301 365 429
#
# _framework density 23.177060999999998
#
# number of rings (size 3 to 8) (size 9 to 14) (size 15 to 20)
#    0.000    1.333    2.667    0.800    9.333    2.667 
#    0.000    1.333    0.000    0.000    0.000    0.000 
#    0.000    0.000    0.000    0.000    0.000    0.000 
#
# Total GULP energy -167751.130201 kJ/mol
# GULP energy per Si atom -5591.704340 kJ/mol
# Density = 2.312431 g / cm^3
# Si number density = 23.177061 Si / 1000 Ang^3
#
#
#
# Elastic Constant Matrix: (Units=GPa)
#
#
# Indices 1 2 3 4 5 6 
#
# 1 140.8102 19.6268 31.2453 0.0004 -0.0002 -0.0002
# 2 19.6268 48.0837 5.5859 0.0002 -0.0002 -0.0001
# 3 31.2453 5.5859 71.3981 -0.0010 0.0018 0.0003
# 4 0.0004 0.0002 -0.0010 24.2918 0.0003 0.0002
# 5 -0.0002 -0.0002 0.0018 0.0003 47.4881 -0.0002
# 6 -0.0002 -0.0001 0.0003 0.0002 -0.0002 16.5955
#
#
#
# Elastic Compliance Matrix: (Units=1/GPa)
#
#
# Indices 1 2 3 4 5 6 
#
# 1 0.008269 -0.002982 -0.003385 0.000000 0.000000 0.000000
# 2 -0.002982 0.022063 -0.000421 0.000000 0.000000 0.000000
# 3 -0.003385 -0.000421 0.015520 0.000001 -0.000001 0.000000
# 4 0.000000 0.000000 0.000001 0.041166 0.000000 -0.000001
# 5 0.000000 0.000000 -0.000001 0.000000 0.021058 0.000000
# 6 0.000000 0.000000 0.000000 -0.000001 0.000000 0.060257
#
#
# Mechanical properties :
#
#
# Convention : Reuss Voigt Hill
#
# Bulk Modulus (GPa) = 30.98321 41.46756 36.22539
# Shear Modulus (GPa) = 25.95135 31.26403 28.60769
#
# Velocity S-wave (km/s) = 3.34982 3.67675 3.51709
# Velocity P-wave (km/s) = 5.32530 5.99626 5.67071
#
# Compressibility (1/GPa) = 0.03227554
#
# Stress axis : x y z
#
# Youngs Moduli (GPa) = 120.94038 45.32452 64.43150
#
# Poissons Ratio (x) = 0.13515 0.21811
# Poissons Ratio (y) = 0.36062 0.02714
# Poissons Ratio (z) = 0.40941 0.01909
#
# Static dielectric constant tensor:
#      x y z
#    x 1.909580 0.000000 0.000000 
#    y 0.000000 1.944010 0.000000 
#    z 0.000000 0.000000 1.890750 
# 
# From -- ./inp_files/1442.got.cif
#   From: 2010.05.17/outbox.cif.g08.bks.cpg/sg45_1_cif.got.tgz:1442.got - 2010.06.03 19:51:22.
