data_PCOD9377447
_publ_section_title
;
Structure prediction by ZEFSAII (Michael W. Deem and Ramdas Pophale) SiO2 
 PCOD9377447
Probable space group: I B A 2
;
_chemical_formula_sum "Si O2"
_cell_formula_units_Z 44
_cell_length_a 10.653470
_cell_length_b 9.141885
_cell_length_c 17.832798
_cell_angle_alpha 90.000000
_cell_angle_beta 90.000000
_cell_angle_gamma 90.000000
_cell_volume 1736.786086
_symmetry_space_group_name_H-M "I B A 2"
_symmetry_group_IT_number 45
_symmetry_cell_setting 'orthorhombic'
loop_
_space_group_symop_operation_xyz
x,y,z
-x,-y,z
-x,y,1/2+z
x,-y,1/2+z
1/2+x,1/2+y,1/2+z
1/2-x,1/2-y,1/2+z
1/2-x,1/2+y,z
1/2+x,1/2-y,z
loop_
_atom_site_type_symbol
_atom_site_label
_atom_site_fract_x
_atom_site_fract_y
_atom_site_fract_z
Si Si1 0.812515 0.291425 0.389000
Si Si2 0.218622 0.186075 0.730643
Si Si3 0.876156 0.096400 0.785997
Si Si4 0.353184 0.476045 0.497581
Si Si5 0.818208 0.719383 0.569035
Si Si6 0.500000 0.000000 0.479574
O O1 0.852342 0.253828 0.303355
O O2 0.701104 0.364368 0.518381
O O3 0.810618 0.136122 0.431710
O O4 0.908182 0.403600 0.427157
O O5 0.221898 0.015094 0.747057
O O6 0.357228 0.256536 0.738629
O O7 0.157009 0.225275 0.652257
O O8 0.825775 0.142570 0.868429
O O9 0.000000 0.000000 0.786497
O O10 0.500000 0.500000 0.493089
O O11 0.309186 0.375262 0.567482
O O12 0.921388 0.613261 0.531207
#
# Coordination Sequence:
#
# PCOD9377447 Si02
#       6
#     8   8   8   8   8   4
#     4  10  27  50  79 119 164 225 284 346 425 512
#     4  10  26  49  78 122 158 215 285 339 423 511
#     4  10  25  52  82 118 164 210 279 351 424 489
#     4  12  27  52  82 117 170 223 280 355 432 507
#     4  12  28  49  83 122 168 225 282 349 439 515
#     4  12  26  54  78 120 178 214 286 356 424 514
#
# _framework density 25.334149
#
# number of rings (size 3 to 8) (size 9 to 14) (size 15 to 20)
#    1.091    0.000    1.818    2.182    5.091    7.273 
#    3.273    0.000    0.000    0.000    0.000    0.000 
#    0.000    0.000    0.000    0.000    0.000    0.000 
#
# Total GULP energy -122860.234121 kJ/mol
# GULP energy per Si atom -5584.556096 kJ/mol
# Density = 2.527649 g / cm^3
# Si number density = 25.334149 Si / 1000 Ang^3
#
#
#
# Elastic Constant Matrix: (Units=GPa)
#
#
# Indices 1 2 3 4 5 6 
#
# 1 92.8237 45.9285 2.4292 0.0000 0.0000 0.0000
# 2 45.9285 180.9075 34.7695 0.0000 0.0000 0.0000
# 3 2.4292 34.7695 140.5067 0.0000 0.0000 0.0000
# 4 0.0000 0.0000 0.0000 43.2319 0.0000 0.0000
# 5 0.0000 0.0000 0.0000 0.0000 21.6736 0.0000
# 6 0.0000 0.0000 0.0000 0.0000 0.0000 44.9090
#
#
#
# Elastic Compliance Matrix: (Units=1/GPa)
#
#
# Indices 1 2 3 4 5 6 
#
# 1 0.012367 -0.003253 0.000591 0.000000 0.000000 0.000000
# 2 -0.003253 0.006660 -0.001592 0.000000 0.000000 0.000000
# 3 0.000591 -0.001592 0.007501 0.000000 0.000000 0.000000
# 4 0.000000 0.000000 0.000000 0.023131 0.000000 0.000000
# 5 0.000000 0.000000 0.000000 0.000000 0.046139 0.000000
# 6 0.000000 0.000000 0.000000 0.000000 0.000000 0.022267
#
#
# Mechanical properties :
#
#
# Convention : Reuss Voigt Hill
#
# Bulk Modulus (GPa) = 55.49403 64.49916 59.99659
# Shear Modulus (GPa) = 37.71319 44.03694 40.87506
#
# Velocity S-wave (km/s) = 3.86246 4.17375 4.02112
# Velocity P-wave (km/s) = 6.46868 6.98151 6.72999
#
# Compressibility (1/GPa) = 0.01801996
#
# Stress axis : x y z
#
# Youngs Moduli (GPa) = 80.85762 150.15935 133.31984
#
# Poissons Ratio (x) = 0.48854 -0.07883
# Poissons Ratio (y) = 0.26307 0.21221
# Poissons Ratio (z) = -0.04781 0.23901
#
# Static dielectric constant tensor:
#      x y z
#    x 2.163450 0.000000 0.000000 
#    y 0.000000 1.998410 0.000000 
#    z 0.000000 0.000000 2.121870 
# 
# From -- ./inp_files/7872.got.cif
#   From: 2010.05.17/outbox.cif.g08.bks.cpg/sg45_4_cif.got.tgz:7872.got - 2010.06.03 19:51:22.
