data_PCOD9377691
_publ_section_title
;
Structure prediction by ZEFSAII (Michael W. Deem and Ramdas Pophale) SiO2 
 PCOD9377691
Probable space group: I B A 2
;
_chemical_formula_sum "Si O2"
_cell_formula_units_Z 56
_cell_length_a 14.027056
_cell_length_b 9.528388
_cell_length_c 16.680234
_cell_angle_alpha 90.000000
_cell_angle_beta 90.000000
_cell_angle_gamma 90.000000
_cell_volume 2229.400546
_symmetry_space_group_name_H-M "I B A 2"
_symmetry_group_IT_number 45
_symmetry_cell_setting 'orthorhombic'
loop_
_space_group_symop_operation_xyz
x,y,z
-x,-y,z
-x,y,1/2+z
x,-y,1/2+z
1/2+x,1/2+y,1/2+z
1/2-x,1/2-y,1/2+z
1/2-x,1/2+y,z
1/2+x,1/2-y,z
loop_
_atom_site_type_symbol
_atom_site_label
_atom_site_fract_x
_atom_site_fract_y
_atom_site_fract_z
Si Si1 0.500000 0.500000 0.373510
Si Si2 0.428065 0.236945 0.769881
Si Si3 0.931932 0.371772 0.132808
Si Si4 0.756386 0.081521 0.734972
Si Si5 0.680436 0.118474 0.916825
Si Si6 0.178066 0.915976 0.485083
Si Si7 0.102728 0.936089 0.136079
Si Si8 0.000000 0.500000 0.373844
O O1 0.530425 0.365908 0.321065
O O2 0.408384 0.464849 0.427694
O O3 0.503271 0.189763 0.704129
O O4 0.329948 0.286938 0.730358
O O5 0.426959 0.099124 0.825299
O O6 0.833648 0.422510 0.174787
O O7 0.905091 0.218374 0.094464
O O8 0.000000 0.500000 0.099731
O O9 0.720030 0.100085 0.826487
O O10 0.825667 0.949544 0.712158
O O11 0.705170 0.262474 0.958183
O O12 0.726739 0.001416 0.970660
O O13 0.567134 0.105616 0.919477
O O14 0.143801 0.951072 0.573440
O O15 0.000000 0.000000 0.157656
#
# Coordination Sequence:
#
# PCOD9377691 Si02
#       8
#     4   8   8   8   8   8   8   4
#     4  12  22  44  74 102 150 206 260 320 410 488
#     4  12  22  41  74 116 152 202 266 345 409 481
#     4  12  27  48  75 115 161 207 270 343 418 497
#     4  12  26  45  82 113 158 211 273 335 415 491
#     4  12  27  48  77 115 157 210 278 339 413 503
#     4  12  28  51  75 110 157 212 264 340 415 496
#     4  12  29  51  78 112 163 217 274 339 425 516
#     4  12  24  42  74 122 156 196 264 352 414 482
#
# _framework density 25.118862
#
# number of rings (size 3 to 8) (size 9 to 14) (size 15 to 20)
#    0.000    0.000    7.143    1.714    8.000    0.000 
#    0.000    0.000    1.571    0.000    0.000    0.000 
#    0.000    0.000    0.000    0.000    0.000    0.000 
#
# Total GULP energy -156616.930995 kJ/mol
# GULP energy per Si atom -5593.461821 kJ/mol
# Density = 2.506169 g / cm^3
# Si number density = 25.118862 Si / 1000 Ang^3
#
#
#
# Elastic Constant Matrix: (Units=GPa)
#
#
# Indices 1 2 3 4 5 6 
#
# 1 132.4660 43.3498 11.5752 0.0000 0.0000 0.0000
# 2 43.3498 161.1413 31.3930 0.0000 0.0000 0.0000
# 3 11.5752 31.3930 73.7469 0.0000 0.0000 0.0000
# 4 0.0000 0.0000 0.0000 1.8665 0.0000 0.0000
# 5 0.0000 0.0000 0.0000 0.0000 -3.0871 0.0000
# 6 0.0000 0.0000 0.0000 0.0000 0.0000 45.2281
#
#
#
# Elastic Compliance Matrix: (Units=1/GPa)
#
#
# Indices 1 2 3 4 5 6 
#
# 1 0.008288 -0.002155 -0.000384 0.000000 0.000000 0.000000
# 2 -0.002155 0.007327 -0.002781 0.000000 0.000000 0.000000
# 3 -0.000384 -0.002781 0.014804 0.000000 0.000000 0.000000
# 4 0.000000 0.000000 0.000000 0.535749 0.000000 0.000000
# 5 0.000000 0.000000 0.000000 0.000000 -0.323924 0.000000
# 6 0.000000 0.000000 0.000000 0.000000 0.000000 0.022110
#
#
# Mechanical properties :
#
#
# Convention : Reuss Voigt Hill
#
# Bulk Modulus (GPa) = 50.55524 59.99891 55.27708
# Shear Modulus (GPa) = 17.75662 27.53725 22.64693
#
# Velocity S-wave (km/s) = 2.66165 3.31460 3.00591
# Velocity P-wave (km/s) = 5.44205 6.21181 5.83963
#
# Compressibility (1/GPa) = 0.01978034
#
# Stress axis : x y z
#
# Youngs Moduli (GPa) = 120.65931 136.47818 67.54989
#
# Poissons Ratio (x) = 0.29409 0.02591
# Poissons Ratio (y) = 0.26000 0.18785
# Poissons Ratio (z) = 0.04628 0.37953
#
# Static dielectric constant tensor:
#      x y z
#    x 1.990970 0.000000 0.000000 
#    y 0.000000 2.109590 0.000000 
#    z 0.000000 0.000000 2.023690 
# 
# From -- ./inp_files/9205.got.cif
#   From: 2010.05.17/outbox.cif.g08.bks.cpg/sg45_5_cif.got.tgz:9205.got - 2010.06.03 19:51:22.
