data_PCOD9377775
_publ_section_title
;
Structure prediction by ZEFSAII (Michael W. Deem and Ramdas Pophale) SiO2 
 PCOD9377775
Probable space group: I M A 2
;
_chemical_formula_sum "Si O2"
_cell_formula_units_Z 56
_cell_length_a 20.966947
_cell_length_b 28.682189
_cell_length_c 5.539302
_cell_angle_alpha 90.000000
_cell_angle_beta 90.000000
_cell_angle_gamma 90.000000
_cell_volume 3331.214007
_symmetry_space_group_name_H-M "I M A 2"
_symmetry_group_IT_number 46
_symmetry_cell_setting 'orthorhombic'
loop_
_space_group_symop_operation_xyz
x,y,z
-x,-y,z
1/2-x,y,z
1/2+x,-y,z
1/2+x,1/2+y,1/2+z
1/2-x,1/2-y,1/2+z
-x,1/2+y,1/2+z
x,1/2-y,1/2+z
loop_
_atom_site_type_symbol
_atom_site_label
_atom_site_fract_x
_atom_site_fract_y
_atom_site_fract_z
Si Si1 0.570419 0.523764 0.992210
Si Si2 0.320011 0.721045 0.992192
Si Si3 0.860246 0.072310 0.492192
Si Si4 0.054134 0.659564 0.992192
Si Si5 0.180628 0.614649 0.492192
Si Si6 0.039023 0.645904 0.492192
Si Si7 0.034809 0.449475 0.492210
O O1 0.500000 0.500000 0.992216
O O2 0.573650 0.551876 0.742150
O O3 0.619507 0.481126 0.992196
O O4 0.573654 0.551873 0.242276
O O5 0.250000 0.697667 0.992192
O O6 0.323535 0.750000 0.742192
O O7 0.379066 0.686546 0.992192
O O8 0.923950 0.105099 0.492191
O O9 0.825547 0.085510 0.241392
O O10 0.825547 0.085511 0.742990
O O11 0.018875 0.668788 0.742570
O O12 0.018875 0.668788 0.241813
O O13 0.250000 0.638450 0.492193
O O14 0.116753 0.645939 0.492192
O O15 0.015653 0.592473 0.492195
O O16 0.000000 0.500000 0.492215
#
# Coordination Sequence:
#
# PCOD9377775 Si02
#       7
#     8   8   8   8   8   8   8
#     4  10  16  25  40  54  74  98 115 139 172 211
#     4  10  21  35  47  58  70  89 123 161 200 248
#     4  10  19  29  39  58  74  91 124 148 178 237
#     4  10  18  29  43  55  73  91 107 149 189 221
#     4  10  18  27  36  48  71  95 116 148 180 211
#     4  10  19  28  40  61  78  92 121 144 177 239
#     4  10  16  25  39  56  76  98 114 137 171 213
#
# _framework density 16.810689
#
# number of rings (size 3 to 8) (size 9 to 14) (size 15 to 20)
#    0.000    2.000    0.000    9.857    0.000    4.571 
#    0.000    1.429    0.000    0.000    0.000    0.000 
#    0.000    0.000    0.000    0.000    0.000    0.000 
#
# Total GULP energy -156079.458040 kJ/mol
# GULP energy per Si atom -5574.266359 kJ/mol
# Density = 1.677243 g / cm^3
# Si number density = 16.810689 Si / 1000 Ang^3
#
#
#
# Elastic Constant Matrix: (Units=GPa)
#
#
# Indices 1 2 3 4 5 6 
#
# 1 6.1713 5.3661 12.8397 0.0000 0.0000 0.0000
# 2 5.3661 22.8591 22.7018 0.0000 0.0000 0.0000
# 3 12.8397 22.7018 212.3141 0.0000 0.0000 0.0000
# 4 0.0000 0.0000 0.0000 23.4646 0.0000 0.0000
# 5 0.0000 0.0000 0.0000 0.0000 13.6282 0.0000
# 6 0.0000 0.0000 0.0000 0.0000 0.0000 12.4883
#
#
#
# Elastic Compliance Matrix: (Units=1/GPa)
#
#
# Indices 1 2 3 4 5 6 
#
# 1 0.216716 -0.042356 -0.008577 0.000000 0.000000 0.000000
# 2 -0.042356 0.057222 -0.003557 0.000000 0.000000 0.000000
# 3 -0.008577 -0.003557 0.005609 0.000000 0.000000 0.000000
# 4 0.000000 0.000000 0.000000 0.042617 0.000000 0.000000
# 5 0.000000 0.000000 0.000000 0.000000 0.073377 0.000000
# 6 0.000000 0.000000 0.000000 0.000000 0.000000 0.080075
#
#
# Mechanical properties :
#
#
# Convention : Reuss Voigt Hill
#
# Bulk Modulus (GPa) = 5.86280 35.90664 20.88472
# Shear Modulus (GPa) = 7.79482 23.27867 15.53674
#
# Velocity S-wave (km/s) = 2.15566 3.72527 3.04339
# Velocity P-wave (km/s) = 3.11303 6.31738 4.97997
#
# Compressibility (1/GPa) = 0.17056701
#
# Stress axis : x y z
#
# Youngs Moduli (GPa) = 4.61434 17.47586 178.28404
#
# Poissons Ratio (x) = 0.74020 1.52913
# Poissons Ratio (y) = 0.19544 0.63416
# Poissons Ratio (z) = 0.03958 0.06216
#
# Static dielectric constant tensor:
#      x y z
#    x 1.539700 0.000000 0.000000 
#    y 0.000000 1.693020 0.000000 
#    z 0.000000 0.000000 1.728160 
# 
# From -- ./inp_files/2183.got.cif
#   From: 2010.05.17/outbox.cif.g08.bks.cpg/sg46_2_cif.got.tgz:2183.got - 2010.06.03 19:58:25.
