data_PCOD9377493
_publ_section_title
;
Structure prediction by ZEFSAII (Michael W. Deem and Ramdas Pophale) SiO2 
 PCOD9377493
Probable space group: I B A 2
;
_chemical_formula_sum "Si O2"
_cell_formula_units_Z 52
_cell_length_a 9.286610
_cell_length_b 17.023675
_cell_length_c 14.582512
_cell_angle_alpha 90.000000
_cell_angle_beta 90.000000
_cell_angle_gamma 90.000000
_cell_volume 2305.381848
_symmetry_space_group_name_H-M "I B A 2"
_symmetry_group_IT_number 45
_symmetry_cell_setting 'orthorhombic'
loop_
_space_group_symop_operation_xyz
x,y,z
-x,-y,z
-x,y,1/2+z
x,-y,1/2+z
1/2+x,1/2+y,1/2+z
1/2-x,1/2-y,1/2+z
1/2-x,1/2+y,z
1/2+x,1/2-y,z
loop_
_atom_site_type_symbol
_atom_site_label
_atom_site_fract_x
_atom_site_fract_y
_atom_site_fract_z
Si Si1 0.883512 0.322387 0.405440
Si Si2 0.775484 0.212969 0.542291
Si Si3 0.500000 0.000000 0.088606
Si Si4 0.435360 0.679099 0.641274
Si Si5 0.109994 0.230832 0.306322
Si Si6 0.357129 0.923547 0.424004
Si Si7 0.813568 0.400962 0.722293
O O1 0.816659 0.298354 0.501508
O O2 0.752929 0.314397 0.335157
O O3 0.002662 0.255127 0.387510
O O4 0.975561 0.400811 0.402344
O O5 0.650480 0.240256 0.612797
O O6 0.720225 0.155428 0.462265
O O7 0.921659 0.174888 0.579739
O O8 0.560586 0.065048 0.158613
O O9 0.373684 0.027213 0.018216
O O10 0.506713 0.684678 0.740309
O O11 0.324602 0.607955 0.656383
O O12 0.150568 0.311989 0.254940
O O13 0.296314 0.944026 0.322426
#
# Coordination Sequence:
#
# PCOD9377493 Si02
#       7
#     8   8   4   8   8   8   8
#     4  11  19  35  61  95 134 162 210 285 362 408
#     4  12  20  35  62  99 142 163 221 286 362 425
#     4  12  26  46  66  92 134 198 258 272 328 432
#     4  12  21  35  62 103 139 174 209 290 367 427
#     4  11  19  35  60  97 134 161 211 285 365 417
#     4  11  24  42  67  98 136 187 234 293 338 426
#     4  11  23  41  66  96 138 184 234 287 347 420
#
# _framework density 22.555916
#
# number of rings (size 3 to 8) (size 9 to 14) (size 15 to 20)
#    0.000    0.615    7.692    2.308    0.000    1.231 
#    0.000    0.769    0.000    1.846    0.000    0.000 
#    0.000    0.000    0.000    0.000    0.000    0.000 
#
# Total GULP energy -144813.859397 kJ/mol
# GULP energy per Si atom -5569.763823 kJ/mol
# Density = 2.250458 g / cm^3
# Si number density = 22.555916 Si / 1000 Ang^3
#
#
#
# Elastic Constant Matrix: (Units=GPa)
#
#
# Indices 1 2 3 4 5 6 
#
# 1 122.7203 21.5268 43.0486 0.0000 0.0000 0.0000
# 2 21.5268 21.3569 26.7073 0.0000 0.0000 0.0000
# 3 43.0486 26.7073 123.2817 0.0000 0.0000 0.0000
# 4 0.0000 0.0000 0.0000 28.4338 0.0000 0.0000
# 5 0.0000 0.0000 0.0000 0.0000 55.6000 0.0000
# 6 0.0000 0.0000 0.0000 0.0000 0.0000 12.4472
#
#
#
# Elastic Compliance Matrix: (Units=1/GPa)
#
#
# Indices 1 2 3 4 5 6 
#
# 1 0.010191 -0.007985 -0.001829 0.000000 0.000000 0.000000
# 2 -0.007985 0.070478 -0.012480 0.000000 0.000000 0.000000
# 3 -0.001829 -0.012480 0.011454 0.000000 0.000000 0.000000
# 4 0.000000 0.000000 0.000000 0.035169 0.000000 0.000000
# 5 0.000000 0.000000 0.000000 0.000000 0.017986 0.000000
# 6 0.000000 0.000000 0.000000 0.000000 0.000000 0.080339
#
#
# Mechanical properties :
#
#
# Convention : Reuss Voigt Hill
#
# Bulk Modulus (GPa) = 21.03692 49.99159 35.51426
# Shear Modulus (GPa) = 17.47951 31.03461 24.25706
#
# Velocity S-wave (km/s) = 2.78680 3.71333 3.28292
# Velocity P-wave (km/s) = 4.43867 6.37155 5.49083
#
# Compressibility (1/GPa) = 0.04753547
#
# Stress axis : x y z
#
# Youngs Moduli (GPa) = 98.12802 14.18877 87.30842
#
# Poissons Ratio (x) = 0.11330 0.15966
# Poissons Ratio (y) = 0.78356 1.08960
# Poissons Ratio (z) = 0.17944 0.17707
#
# Static dielectric constant tensor:
#      x y z
#    x 1.905340 0.000000 0.000000 
#    y 0.000000 1.894560 0.000000 
#    z 0.000000 0.000000 1.946600 
# 
# From -- ./inp_files/5696.got.cif
#   From: 2010.05.17/outbox.cif.g08.bks.cpg/sg45_3_cif.got.tgz:5696.got - 2010.06.03 19:51:22.
