data_PCOD9377889
_publ_section_title
;
Structure prediction by ZEFSAII (Michael W. Deem and Ramdas Pophale) SiO2 
 PCOD9377889
Probable space group: I M A 2
;
_chemical_formula_sum "Si O2"
_cell_formula_units_Z 64
_cell_length_a 8.657053
_cell_length_b 23.883453
_cell_length_c 19.703905
_cell_angle_alpha 90.000000
_cell_angle_beta 90.000000
_cell_angle_gamma 90.000000
_cell_volume 4073.985672
_symmetry_space_group_name_H-M "I M A 2"
_symmetry_group_IT_number 46
_symmetry_cell_setting 'orthorhombic'
loop_
_space_group_symop_operation_xyz
x,y,z
-x,-y,z
1/2-x,y,z
1/2+x,-y,z
1/2+x,1/2+y,1/2+z
1/2-x,1/2-y,1/2+z
-x,1/2+y,1/2+z
x,1/2-y,1/2+z
loop_
_atom_site_type_symbol
_atom_site_label
_atom_site_fract_x
_atom_site_fract_y
_atom_site_fract_z
Si Si1 0.066321 0.438034 0.664690
Si Si2 0.063578 0.562000 0.384886
Si Si3 0.064357 0.838515 0.250152
Si Si4 0.562791 0.226872 0.379626
Si Si5 0.436722 0.836126 0.792749
Si Si6 0.566623 0.769332 0.672296
Si Si7 0.436615 0.750850 0.028813
Si Si8 0.063738 0.616830 0.528155
O O1 0.250000 0.439792 0.665556
O O2 0.000000 0.500000 0.673636
O O3 0.005817 0.395327 0.721755
O O4 0.010035 0.413278 0.592612
O O5 0.250000 0.560508 0.384977
O O6 0.016235 0.605265 0.325935
O O7 0.016058 0.587694 0.457752
O O8 0.000000 0.500000 0.376207
O O9 0.250000 0.841480 0.247657
O O10 0.014743 0.820673 0.326180
O O11 0.011398 0.787204 0.202083
O O12 0.750000 0.226041 0.381438
O O13 0.521045 0.286406 0.345535
O O14 0.510662 0.224762 0.457197
O O15 0.250000 0.834997 0.785974
O O16 0.511047 0.819038 0.721571
O O17 0.750000 0.763206 0.675773
O O18 0.511613 0.775576 0.595228
O O19 0.250000 0.746432 0.033597
O O20 0.474167 0.817231 0.027312
O O21 0.250000 0.612553 0.533739
#
# Coordination Sequence:
#
# PCOD9377889 Si02
#       8
#     8   8   8   8   8   8   8   8
#     4  12  24  36  50  70  99 134 174 209 243 287
#     4  10  20  33  50  72  98 132 173 209 246 292
#     4  10  19  34  53  72  96 128 164 204 248 293
#     4   8  15  29  52  74  92 122 165 203 239 290
#     4   9  17  33  51  68  92 129 169 204 243 291
#     4  11  21  31  46  73 102 128 162 204 249 293
#     4  10  17  30  52  74  98 133 167 197 241 295
#     4  10  19  32  50  71 100 136 172 205 238 285
#
# _framework density 15.709433000000001
#
# number of rings (size 3 to 8) (size 9 to 14) (size 15 to 20)
#    0.000    2.000    2.500    3.750    0.000    2.000 
#    0.000    3.125    0.000    0.000    0.000    0.875 
#    0.000    4.000    0.000    0.000    0.000    0.000 
#
# Total GULP energy -178558.490522 kJ/mol
# GULP energy per Si atom -5579.952829 kJ/mol
# Density = 1.567368 g / cm^3
# Si number density = 15.709433 Si / 1000 Ang^3
#
#
#
# Elastic Constant Matrix: (Units=GPa)
#
#
# Indices 1 2 3 4 5 6 
#
# 1 42.5965 35.6980 39.1459 0.0000 0.0000 0.0000
# 2 35.6980 101.6141 77.4233 0.0000 0.0000 0.0000
# 3 39.1459 77.4233 155.2157 0.0000 0.0000 0.0000
# 4 0.0000 0.0000 0.0000 19.4883 0.0000 0.0000
# 5 0.0000 0.0000 0.0000 0.0000 0.1567 0.0000
# 6 0.0000 0.0000 0.0000 0.0000 0.0000 23.5456
#
#
#
# Elastic Compliance Matrix: (Units=1/GPa)
#
#
# Indices 1 2 3 4 5 6 
#
# 1 0.034999 -0.008985 -0.004345 0.000000 0.000000 0.000000
# 2 -0.008985 0.018181 -0.006803 0.000000 0.000000 0.000000
# 3 -0.004345 -0.006803 0.010932 0.000000 0.000000 0.000000
# 4 0.000000 0.000000 0.000000 0.051313 0.000000 0.000000
# 5 0.000000 0.000000 0.000000 0.000000 6.381902 0.000000
# 6 0.000000 0.000000 0.000000 0.000000 0.000000 0.042471
#
#
# Mechanical properties :
#
#
# Convention : Reuss Voigt Hill
#
# Bulk Modulus (GPa) = 41.93545 67.10675 54.52110
# Shear Modulus (GPa) = 0.75895 18.44873 9.60384
#
# Velocity S-wave (km/s) = 0.69582 3.43063 2.47522
# Velocity P-wave (km/s) = 5.23431 7.64869 6.55364
#
# Compressibility (1/GPa) = 0.02384617
#
# Stress axis : x y z
#
# Youngs Moduli (GPa) = 28.57234 55.00270 91.47578
#
# Poissons Ratio (x) = 0.49418 0.39747
# Poissons Ratio (y) = 0.25672 0.62230
# Poissons Ratio (z) = 0.12415 0.37418
#
# Static dielectric constant tensor:
#      x y z
#    x 1.528330 0.000000 0.000000 
#    y 0.000000 1.500440 0.000000 
#    z 0.000000 0.000000 1.532800 
# 
# From -- ./inp_files/18645.got.cif
#   From: 2010.05.17/outbox.cif.g08.bks.cpg/sg46_10_cif.got.tgz:18645.got - 2010.06.03 19:58:25.
