data_PCOD9377125
_publ_section_title
;
Structure prediction by ZEFSAII (Michael W. Deem and Ramdas Pophale) SiO2 
 PCOD9377125
Probable space group: I B A 2
;
_chemical_formula_sum "Si O2"
_cell_formula_units_Z 40
_cell_length_a 21.256391
_cell_length_b 8.173444
_cell_length_c 9.020580
_cell_angle_alpha 90.000000
_cell_angle_beta 90.000000
_cell_angle_gamma 90.000000
_cell_volume 1567.216820
_symmetry_space_group_name_H-M "I B A 2"
_symmetry_group_IT_number 45
_symmetry_cell_setting 'orthorhombic'
loop_
_space_group_symop_operation_xyz
x,y,z
-x,-y,z
-x,y,1/2+z
x,-y,1/2+z
1/2+x,1/2+y,1/2+z
1/2-x,1/2-y,1/2+z
1/2-x,1/2+y,z
1/2+x,1/2-y,z
loop_
_atom_site_type_symbol
_atom_site_label
_atom_site_fract_x
_atom_site_fract_y
_atom_site_fract_z
Si Si1 0.764531 0.547285 0.241120
Si Si2 0.374877 0.184610 0.181078
Si Si3 0.303076 0.347264 0.944937
Si Si4 0.049159 0.377849 0.159875
Si Si5 0.991168 0.812280 0.876885
O O1 0.808248 0.382638 0.245888
O O2 0.700724 0.492393 0.326175
O O3 0.794274 0.684191 0.346597
O O4 0.749264 0.606442 0.073707
O O5 0.426413 0.268747 0.287001
O O6 0.396905 0.004036 0.121856
O O7 0.361922 0.309271 0.048831
O O8 0.000000 0.500000 0.237722
O O9 0.052359 0.235822 0.278780
O O10 0.015847 0.298414 0.020772
O O11 0.000000 0.000000 0.916052
#
# Coordination Sequence:
#
# PCOD9377125 Si02
#       5
#     8   8   8   8   8
#     4  12  24  46  71 106 149 194 249 303 360 442
#     4  11  24  45  76 103 144 203 237 294 386 437
#     4  12  24  46  70 105 149 192 249 303 358 444
#     4  10  22  45  73 101 142 189 239 295 366 461
#     4  11  24  46  71 111 143 181 247 310 360 438
#
# _framework density 25.522952
#
# number of rings (size 3 to 8) (size 9 to 14) (size 15 to 20)
#    0.000    0.800    4.000    3.600    0.000    1.600 
#   18.000    0.000    0.000    0.000    0.000    0.000 
#    0.000    0.000    0.000    0.000    0.000    0.000 
#
# Total GULP energy -111586.282375 kJ/mol
# GULP energy per Si atom -5579.314119 kJ/mol
# Density = 2.546486 g / cm^3
# Si number density = 25.522952 Si / 1000 Ang^3
#
#
#
# Elastic Constant Matrix: (Units=GPa)
#
#
# Indices 1 2 3 4 5 6 
#
# 1 67.5900 15.6105 15.7280 0.0000 0.0000 0.0000
# 2 15.6105 78.5499 26.6767 0.0000 0.0000 0.0000
# 3 15.7280 26.6767 135.7263 0.0000 0.0000 0.0000
# 4 0.0000 0.0000 0.0000 39.8053 0.0000 0.0000
# 5 0.0000 0.0000 0.0000 0.0000 45.3205 0.0000
# 6 0.0000 0.0000 0.0000 0.0000 0.0000 49.7737
#
#
#
# Elastic Compliance Matrix: (Units=1/GPa)
#
#
# Indices 1 2 3 4 5 6 
#
# 1 0.015716 -0.002684 -0.001294 0.000000 0.000000 0.000000
# 2 -0.002684 0.014100 -0.002460 0.000000 0.000000 0.000000
# 3 -0.001294 -0.002460 0.008001 0.000000 0.000000 0.000000
# 4 0.000000 0.000000 0.000000 0.025122 0.000000 0.000000
# 5 0.000000 0.000000 0.000000 0.000000 0.022065 0.000000
# 6 0.000000 0.000000 0.000000 0.000000 0.000000 0.020091
#
#
# Mechanical properties :
#
#
# Convention : Reuss Voigt Hill
#
# Bulk Modulus (GPa) = 40.09427 44.21073 42.15250
# Shear Modulus (GPa) = 39.59309 41.90330 40.74820
#
# Velocity S-wave (km/s) = 3.94289 4.05630 4.00000
# Velocity P-wave (km/s) = 6.03919 6.26878 6.15505
#
# Compressibility (1/GPa) = 0.02494122
#
# Stress axis : x y z
#
# Youngs Moduli (GPa) = 63.62940 70.92352 124.98077
#
# Poissons Ratio (x) = 0.19036 0.16168
# Poissons Ratio (y) = 0.17078 0.30748
# Poissons Ratio (z) = 0.08231 0.17449
#
# Static dielectric constant tensor:
#      x y z
#    x 2.245560 0.000000 0.000000 
#    y 0.000000 2.016380 0.000000 
#    z 0.000000 0.000000 1.971120 
# 
# From -- ./inp_files/945.got.cif
#   From: 2010.05.17/outbox.cif.g08.bks.cpg/sg45_1_cif.got.tgz:945.got - 2010.06.03 19:51:22.
