data_PCOD9377054
_publ_section_title
;
Structure prediction by ZEFSAII (Michael W. Deem and Ramdas Pophale) SiO2 
 PCOD9377054
Probable space group: I B A 2
;
_chemical_formula_sum "Si O2"
_cell_formula_units_Z 48
_cell_length_a 8.888834
_cell_length_b 22.608404
_cell_length_c 8.938595
_cell_angle_alpha 90.000000
_cell_angle_beta 90.000000
_cell_angle_gamma 90.000000
_cell_volume 1796.321058
_symmetry_space_group_name_H-M "I B A 2"
_symmetry_group_IT_number 45
_symmetry_cell_setting 'orthorhombic'
loop_
_space_group_symop_operation_xyz
x,y,z
-x,-y,z
-x,y,1/2+z
x,-y,1/2+z
1/2+x,1/2+y,1/2+z
1/2-x,1/2-y,1/2+z
1/2-x,1/2+y,z
1/2+x,1/2-y,z
loop_
_atom_site_type_symbol
_atom_site_label
_atom_site_fract_x
_atom_site_fract_y
_atom_site_fract_z
Si Si1 0.951168 0.061989 0.059280
Si Si2 0.179664 0.871177 0.340098
Si Si3 0.556466 0.233733 0.057657
Si Si4 0.636378 0.953662 0.420748
Si Si5 0.987138 0.385467 0.706762
Si Si6 0.787403 0.236175 0.845055
O O1 0.890772 0.107109 0.184058
O O2 0.078474 0.097325 0.965448
O O3 0.000000 0.000000 0.133489
O O4 0.811994 0.037925 0.956865
O O5 0.355667 0.888865 0.332656
O O6 0.200965 0.800041 0.343274
O O7 0.489484 0.181908 0.159867
O O8 0.648738 0.273121 0.178542
O O9 0.667740 0.200148 0.942325
O O10 0.426347 0.261634 0.959733
O O11 0.634403 0.915124 0.270335
O O12 0.577141 0.921199 0.568494
O O13 0.500000 0.000000 0.391076
#
# Coordination Sequence:
#
# PCOD9377054 Si02
#       6
#     8   8   8   8   8   8
#     4  11  24  42  67 100 137 179 230 286 347 417
#     4  10  24  43  65  96 136 178 225 282 346 419
#     4  11  24  44  72 102 140 182 234 298 358 429
#     4  11  23  39  65  97 135 180 229 281 343 420
#     4  10  22  42  64  97 135 178 227 279 346 417
#     4  11  25  46  71 104 139 181 234 292 362 428
#
# _framework density 26.721278999999999
#
# number of rings (size 3 to 8) (size 9 to 14) (size 15 to 20)
#    0.000    1.333    0.000    5.000    0.000   12.000 
#    0.000    0.000    0.000    0.000    0.000    0.000 
#    0.000    0.000    0.000    0.000    0.000    0.000 
#
# Total GULP energy -134227.846736 kJ/mol
# GULP energy per Si atom -5592.826947 kJ/mol
# Density = 2.666046 g / cm^3
# Si number density = 26.721279 Si / 1000 Ang^3
#
#
#
# Elastic Constant Matrix: (Units=GPa)
#
#
# Indices 1 2 3 4 5 6 
#
# 1 87.4294 9.8519 45.4989 0.0000 0.0003 -0.0001
# 2 9.8519 69.8309 8.7091 0.0008 -0.0003 0.0001
# 3 45.4989 8.7091 121.6464 -0.0008 0.0018 -0.0005
# 4 0.0000 0.0008 -0.0008 34.3017 -0.0002 0.0001
# 5 0.0003 -0.0003 0.0018 -0.0002 56.4186 -0.0001
# 6 -0.0001 0.0001 -0.0005 0.0001 -0.0001 37.6552
#
#
#
# Elastic Compliance Matrix: (Units=1/GPa)
#
#
# Indices 1 2 3 4 5 6 
#
# 1 0.014330 -0.001365 -0.005262 0.000000 0.000000 0.000000
# 2 -0.001365 0.014579 -0.000533 0.000000 0.000000 0.000000
# 3 -0.005262 -0.000533 0.010227 0.000000 0.000000 0.000000
# 4 0.000000 0.000000 0.000000 0.029153 0.000000 0.000000
# 5 0.000000 0.000000 0.000000 0.000000 0.017725 0.000000
# 6 0.000000 0.000000 0.000000 0.000000 0.000000 0.026557
#
#
# Mechanical properties :
#
#
# Convention : Reuss Voigt Hill
#
# Bulk Modulus (GPa) = 40.29790 45.22516 42.76153
# Shear Modulus (GPa) = 36.99219 39.99825 38.49522
#
# Velocity S-wave (km/s) = 3.72475 3.87314 3.79967
# Velocity P-wave (km/s) = 5.79758 6.07973 5.94033
#
# Compressibility (1/GPa) = 0.02481519
#
# Stress axis : x y z
#
# Youngs Moduli (GPa) = 69.78333 68.58978 97.78174
#
# Poissons Ratio (x) = 0.09366 0.51453
# Poissons Ratio (y) = 0.09528 0.05213
# Poissons Ratio (z) = 0.36720 0.03656
#
# Static dielectric constant tensor:
#      x y z
#    x 2.123800 0.000000 0.000000 
#    y 0.000000 2.188030 0.000000 
#    z 0.000000 0.000000 2.076920 
# 
# From -- ./inp_files/1068.got.cif
#   From: 2010.05.17/outbox.cif.g08.bks.cpg/sg45_1_cif.got.tgz:1068.got - 2010.06.03 19:51:22.
