data_PCOD9377140
_publ_section_title
;
Structure prediction by ZEFSAII (Michael W. Deem and Ramdas Pophale) SiO2 
 PCOD9377140
Probable space group: I B A 2
;
_chemical_formula_sum "Si O2"
_cell_formula_units_Z 60
_cell_length_a 19.073279
_cell_length_b 11.145544
_cell_length_c 12.187250
_cell_angle_alpha 90.000000
_cell_angle_beta 90.000000
_cell_angle_gamma 90.000000
_cell_volume 2590.790836
_symmetry_space_group_name_H-M "I B A 2"
_symmetry_group_IT_number 45
_symmetry_cell_setting 'orthorhombic'
loop_
_space_group_symop_operation_xyz
x,y,z
-x,-y,z
-x,y,1/2+z
x,-y,1/2+z
1/2+x,1/2+y,1/2+z
1/2-x,1/2-y,1/2+z
1/2-x,1/2+y,z
1/2+x,1/2-y,z
loop_
_atom_site_type_symbol
_atom_site_label
_atom_site_fract_x
_atom_site_fract_y
_atom_site_fract_z
Si Si1 0.916355 0.602358 0.680060
Si Si2 0.843183 0.733781 0.057389
Si Si3 0.355941 0.601932 0.852494
Si Si4 0.445566 0.827177 0.242251
Si Si5 0.000000 0.000000 0.910467
Si Si6 0.726475 0.384903 0.450966
Si Si7 0.224416 0.281234 0.725096
Si Si8 0.417205 0.269710 0.979707
O O1 0.930988 0.465818 0.711621
O O2 0.836409 0.624044 0.706463
O O3 0.932094 0.656775 0.559307
O O4 0.970534 0.682684 0.750398
O O5 0.908697 0.733277 0.138487
O O6 0.781671 0.792023 0.130668
O O7 0.864927 0.797011 0.945619
O O8 0.799399 0.615147 0.018445
O O9 0.431650 0.539401 0.840041
O O10 0.301770 0.510735 0.909289
O O11 0.317626 0.656729 0.746840
O O12 0.415776 0.780379 0.355906
O O13 0.970372 0.115653 0.978470
O O14 0.740078 0.307918 0.341512
O O15 0.659964 0.321044 0.508358
#
# Coordination Sequence:
#
# PCOD9377140 Si02
#       8
#     8   8   8   8   4   8   8   8
#     4  11  26  43  69 100 135 187 230 286 350 422
#     4  11  23  41  66  97 136 177 230 286 349 427
#     4  10  24  41  66  99 131 181 227 291 356 419
#     4  11  26  43  69 100 135 187 230 286 350 422
#     4  10  22  46  72  96 142 184 224 302 356 424
#     4  10  23  40  68  97 133 178 221 288 344 416
#     4  11  23  41  66  97 136 177 230 286 349 427
#     4  11  22  46  67 101 144 174 237 286 353 416
#
# _framework density 23.158950999999998
#
# number of rings (size 3 to 8) (size 9 to 14) (size 15 to 20)
#    0.000    1.333    2.667    1.600    3.733    5.333 
#    0.000    4.667    0.000    0.000    0.000    0.000 
#    0.000    0.000    0.000    0.000    0.000    0.000 
#
# Total GULP energy -167368.396937 kJ/mol
# GULP energy per Si atom -5578.946565 kJ/mol
# Density = 2.310624 g / cm^3
# Si number density = 23.158951 Si / 1000 Ang^3
#
#
#
# Elastic Constant Matrix: (Units=GPa)
#
#
# Indices 1 2 3 4 5 6 
#
# 1 101.2505 16.0858 18.5776 0.0000 0.0000 0.0000
# 2 16.0858 73.0517 26.6254 0.0000 0.0000 0.0000
# 3 18.5776 26.6254 105.2440 0.0000 0.0000 0.0000
# 4 0.0000 0.0000 0.0000 200.4055 0.0000 0.0000
# 5 0.0000 0.0000 0.0000 0.0000 6.8101 0.0000
# 6 0.0000 0.0000 0.0000 0.0000 0.0000 2.8417
#
#
#
# Elastic Compliance Matrix: (Units=1/GPa)
#
#
# Indices 1 2 3 4 5 6 
#
# 1 0.010415 -0.001788 -0.001386 0.000000 0.000000 0.000000
# 2 -0.001788 0.015386 -0.003577 0.000000 0.000000 0.000000
# 3 -0.001386 -0.003577 0.010651 0.000000 0.000000 0.000000
# 4 0.000000 0.000000 0.000000 0.004990 0.000000 0.000000
# 5 0.000000 0.000000 0.000000 0.000000 0.146841 0.000000
# 6 0.000000 0.000000 0.000000 0.000000 0.000000 0.351901
#
#
# Mechanical properties :
#
#
# Convention : Reuss Voigt Hill
#
# Bulk Modulus (GPa) = 43.57235 44.68043 44.12639
# Shear Modulus (GPa) = 8.90731 56.56195 32.73463
#
# Velocity S-wave (km/s) = 1.96329 4.94736 3.76370
# Velocity P-wave (km/s) = 4.89844 7.20902 6.16298
#
# Compressibility (1/GPa) = 0.02295034
#
# Stress axis : x y z
#
# Youngs Moduli (GPa) = 96.01625 64.99256 93.88518
#
# Poissons Ratio (x) = 0.11622 0.13013
# Poissons Ratio (y) = 0.17169 0.33582
# Poissons Ratio (z) = 0.13308 0.23247
#
# Static dielectric constant tensor:
#      x y z
#    x 1.914800 0.000000 0.000000 
#    y 0.000000 1.446390 0.000000 
#    z 0.000000 0.000000 1.856080 
# 
# From -- ./inp_files/4684.got.cif
#   From: 2010.05.17/outbox.cif.g08.bks.cpg/sg45_3_cif.got.tgz:4684.got - 2010.06.03 19:51:22.
