data_PCOD9377824
_publ_section_title
;
Structure prediction by ZEFSAII (Michael W. Deem and Ramdas Pophale) SiO2 
 PCOD9377824
Probable space group: I M A 2
;
_chemical_formula_sum "Si O2"
_cell_formula_units_Z 48
_cell_length_a 8.331407
_cell_length_b 33.396499
_cell_length_c 7.341035
_cell_angle_alpha 90.000000
_cell_angle_beta 90.000000
_cell_angle_gamma 90.000000
_cell_volume 2042.568298
_symmetry_space_group_name_H-M "I M A 2"
_symmetry_group_IT_number 46
_symmetry_cell_setting 'orthorhombic'
loop_
_space_group_symop_operation_xyz
x,y,z
-x,-y,z
1/2-x,y,z
1/2+x,-y,z
1/2+x,1/2+y,1/2+z
1/2-x,1/2-y,1/2+z
-x,1/2+y,1/2+z
x,1/2-y,1/2+z
loop_
_atom_site_type_symbol
_atom_site_label
_atom_site_fract_x
_atom_site_fract_y
_atom_site_fract_z
Si Si1 0.565874 0.290153 0.801220
Si Si2 0.931544 0.707359 0.415232
Si Si3 0.557322 0.542843 0.902444
Si Si4 0.060081 0.874984 0.966938
Si Si5 0.059230 0.042020 0.971764
Si Si6 0.941164 0.630292 0.886019
O O1 0.750000 0.295367 0.741511
O O2 0.443432 0.293457 0.634050
O O3 0.523594 0.327267 0.933746
O O4 0.541247 0.245259 0.869565
O O5 0.750000 0.713834 0.352463
O O6 0.992828 0.663434 0.360704
O O7 0.500000 0.500000 0.978300
O O8 0.750000 0.543114 0.916000
O O9 0.513136 0.541859 0.686747
O O10 0.502508 0.587271 0.966057
O O11 0.250000 0.871472 0.985929
O O12 0.015215 0.918118 0.888479
O O13 0.980141 0.874075 0.168905
O O14 0.250000 0.044540 0.958812
O O15 0.000000 0.000000 0.895147
O O16 0.750000 0.633621 0.912800
#
# Coordination Sequence:
#
# PCOD9377824 Si02
#       6
#     8   8   8   8   8   8
#     4  11  21  34  51  73  97 125 161 203 244 287
#     4  11  21  35  52  71  96 129 163 199 242 291
#     4   8  14  21  32  50  76 108 144 180 219 267
#     4  10  17  26  40  60  85 116 151 190 232 278
#     4   9  15  23  34  52  78 111 147 184 225 275
#     4   9  16  27  40  58  84 117 152 188 230 280
#
# _framework density 23.499825000000001
#
# number of rings (size 3 to 8) (size 9 to 14) (size 15 to 20)
#    0.000    2.333    0.000    8.500    0.000    4.667 
#    0.000    0.000    0.000    0.000    0.000    0.000 
#    0.000    1.333    0.000   11.333    0.000   12.667 
#
# Total GULP energy -133901.198640 kJ/mol
# GULP energy per Si atom -5579.216610 kJ/mol
# Density = 2.344634 g / cm^3
# Si number density = 23.499825 Si / 1000 Ang^3
#
#
#
# Elastic Constant Matrix: (Units=GPa)
#
#
# Indices 1 2 3 4 5 6 
#
# 1 40.0513 55.8122 5.4067 0.0004 -0.0004 -0.0002
# 2 55.8122 251.3404 -7.1105 0.0017 0.0007 0.0004
# 3 5.4067 -7.1105 40.0097 0.0038 -0.0005 0.0009
# 4 0.0004 0.0017 0.0038 -4.1125 0.0004 -0.0002
# 5 -0.0004 0.0007 -0.0005 0.0004 -0.6274 0.0006
# 6 -0.0002 0.0004 0.0009 -0.0002 0.0006 41.3750
#
#
#
# Elastic Compliance Matrix: (Units=1/GPa)
#
#
# Indices 1 2 3 4 5 6 
#
# 1 0.037833 -0.008589 -0.006639 -0.000006 -0.000025 0.000000
# 2 -0.008589 0.005949 0.002218 0.000004 0.000009 0.000000
# 3 -0.006639 0.002218 0.026285 0.000024 -0.000015 -0.000001
# 4 -0.000006 0.000004 0.000024 -0.243159 -0.000173 -0.000001
# 5 -0.000025 0.000009 -0.000015 -0.000173 -1.594003 0.000024
# 6 0.000000 0.000000 -0.000001 -0.000001 0.000024 0.024169
#
#
# Mechanical properties :
#
#
# Convention : Reuss Voigt Hill
#
# Bulk Modulus (GPa) = 22.70310 48.84647 35.77479
# Shear Modulus (GPa) = -2.93734 25.81321 11.43794
#
# Velocity S-wave (km/s) = -1.11922 3.31787 2.20858
# Velocity P-wave (km/s) = 2.83050 5.95892 4.66479
#
# Compressibility (1/GPa) = 0.04404684
#
# Stress axis : x y z
#
# Youngs Moduli (GPa) = 26.43186 168.10491 38.04417
#
# Poissons Ratio (x) = 1.44385 0.25257
# Poissons Ratio (y) = 0.22702 -0.08438
# Poissons Ratio (z) = 0.17548 -0.37283
#
# Static dielectric constant tensor:
#      x y z
#    x 1.776060 0.000000 0.000000 
#    y 0.000000 2.023380 0.000000 
#    z 0.000000 0.000000 2.023490 
# 
# From -- ./inp_files/9562.got.cif
#   From: 2010.05.17/outbox.cif.g08.bks.cpg/sg46_5_cif.got.tgz:9562.got - 2010.06.03 19:58:25.
