data_PCOD9377166
_publ_section_title
;
Structure prediction by ZEFSAII (Michael W. Deem and Ramdas Pophale) SiO2 
 PCOD9377166
Probable space group: I B A 2
;
_chemical_formula_sum "Si O2"
_cell_formula_units_Z 60
_cell_length_a 29.841533
_cell_length_b 8.200191
_cell_length_c 13.127843
_cell_angle_alpha 90.000000
_cell_angle_beta 90.000000
_cell_angle_gamma 90.000000
_cell_volume 3212.465498
_symmetry_space_group_name_H-M "I B A 2"
_symmetry_group_IT_number 45
_symmetry_cell_setting 'orthorhombic'
loop_
_space_group_symop_operation_xyz
x,y,z
-x,-y,z
-x,y,1/2+z
x,-y,1/2+z
1/2+x,1/2+y,1/2+z
1/2-x,1/2-y,1/2+z
1/2-x,1/2+y,z
1/2+x,1/2-y,z
loop_
_atom_site_type_symbol
_atom_site_label
_atom_site_fract_x
_atom_site_fract_y
_atom_site_fract_z
Si Si1 0.531546 0.343543 0.648520
Si Si2 0.804101 0.221224 0.284246
Si Si3 0.908673 0.200342 0.954390
Si Si4 0.260037 0.004729 0.413710
Si Si5 0.000000 0.500000 0.122781
Si Si6 0.949119 0.466008 0.424424
Si Si7 0.308110 0.731839 0.539451
Si Si8 0.905337 0.137762 0.334750
O O1 0.500000 0.500000 0.651693
O O2 0.551739 0.319122 0.536718
O O3 0.571667 0.372213 0.725489
O O4 0.458054 0.036143 0.546718
O O5 0.768033 0.097892 0.331545
O O6 0.791822 0.384794 0.344437
O O7 0.853166 0.168744 0.319226
O O8 0.802584 0.230670 0.161653
O O9 0.918884 0.374844 0.900706
O O10 0.859922 0.206956 0.007711
O O11 0.911325 0.036674 0.888273
O O12 0.290099 0.898261 0.489568
O O13 0.223946 0.099807 0.483802
O O14 0.008954 0.670634 0.177429
O O15 0.928194 0.294313 0.390280
O O16 0.000000 0.500000 0.385716
#
# Coordination Sequence:
#
# PCOD9377166 Si02
#       8
#     8   8   8   8   4   8   8   8
#     4  11  24  38  62  90 123 166 212 257 306 372
#     4  11  22  41  63  95 121 162 212 254 318 397
#     4  11  23  42  62  89 129 161 207 262 314 362
#     4  10  23  40  67  89 126 163 201 257 327 390
#     4   8  20  40  58  82 122 164 208 248 306 366
#     4   9  22  39  60  84 121 171 204 250 310 365
#     4  11  21  42  64  91 126 163 202 265 319 379
#     4  12  24  38  64  92 124 162 211 261 308 371
#
# _framework density 18.677243000000001
#
# number of rings (size 3 to 8) (size 9 to 14) (size 15 to 20)
#    0.400    1.067    2.667    2.400    2.800    0.000 
#    0.000    0.000    2.933    0.000    0.000    0.000 
#    0.000    0.000    0.000    0.000    0.000    0.000 
#
# Total GULP energy -167282.339506 kJ/mol
# GULP energy per Si atom -5576.077984 kJ/mol
# Density = 1.863473 g / cm^3
# Si number density = 18.677243 Si / 1000 Ang^3
#
#
#
# Elastic Constant Matrix: (Units=GPa)
#
#
# Indices 1 2 3 4 5 6 
#
# 1 41.2763 22.8228 -6.7666 0.0000 0.0000 0.0000
# 2 22.8228 97.8365 19.9676 0.0000 0.0000 0.0000
# 3 -6.7666 19.9676 55.1804 0.0000 0.0000 0.0000
# 4 0.0000 0.0000 0.0000 12.5338 0.0000 0.0000
# 5 0.0000 0.0000 0.0000 0.0000 54.1208 0.0000
# 6 0.0000 0.0000 0.0000 0.0000 0.0000 21.6665
#
#
#
# Elastic Compliance Matrix: (Units=1/GPa)
#
#
# Indices 1 2 3 4 5 6 
#
# 1 0.029942 -0.008351 0.006693 0.000000 0.000000 0.000000
# 2 -0.008351 0.013365 -0.005860 0.000000 0.000000 0.000000
# 3 0.006693 -0.005860 0.021064 0.000000 0.000000 0.000000
# 4 0.000000 0.000000 0.000000 0.079784 0.000000 0.000000
# 5 0.000000 0.000000 0.000000 0.000000 0.018477 0.000000
# 6 0.000000 0.000000 0.000000 0.000000 0.000000 0.046154
#
#
# Mechanical properties :
#
#
# Convention : Reuss Voigt Hill
#
# Bulk Modulus (GPa) = 20.26943 29.59342 24.93142
# Shear Modulus (GPa) = 20.81024 28.21553 24.51288
#
# Velocity S-wave (km/s) = 3.34159 3.89098 3.62670
# Velocity P-wave (km/s) = 5.07586 6.00544 5.56011
#
# Compressibility (1/GPa) = 0.04933539
#
# Stress axis : x y z
#
# Youngs Moduli (GPa) = 33.39834 74.82113 47.47474
#
# Poissons Ratio (x) = 0.62481 -0.31777
# Poissons Ratio (y) = 0.27890 0.27822
# Poissons Ratio (z) = -0.22355 0.43848
#
# Static dielectric constant tensor:
#      x y z
#    x 1.523780 0.000000 0.000000 
#    y 0.000000 1.641960 0.000000 
#    z 0.000000 0.000000 1.633540 
# 
# From -- ./inp_files/4940.got.cif
#   From: 2010.05.17/outbox.cif.g08.bks.cpg/sg45_3_cif.got.tgz:4940.got - 2010.06.03 19:51:22.
