data_PCOD9377011
_publ_section_title
;
Structure prediction by ZEFSAII (Michael W. Deem and Ramdas Pophale) SiO2 
 PCOD9377011
Probable space group: I B A 2
;
_chemical_formula_sum "Si O2"
_cell_formula_units_Z 64
_cell_length_a 7.823665
_cell_length_b 18.531231
_cell_length_c 18.206224
_cell_angle_alpha 90.000000
_cell_angle_beta 90.000000
_cell_angle_gamma 90.000000
_cell_volume 2639.577378
_symmetry_space_group_name_H-M "I B A 2"
_symmetry_group_IT_number 45
_symmetry_cell_setting 'orthorhombic'
loop_
_space_group_symop_operation_xyz
x,y,z
-x,-y,z
-x,y,1/2+z
x,-y,1/2+z
1/2+x,1/2+y,1/2+z
1/2-x,1/2-y,1/2+z
1/2-x,1/2+y,z
1/2+x,1/2-y,z
loop_
_atom_site_type_symbol
_atom_site_label
_atom_site_fract_x
_atom_site_fract_y
_atom_site_fract_z
Si Si1 0.820763 0.640068 0.437640
Si Si2 0.385384 0.651533 0.159579
Si Si3 0.364824 0.936514 0.143543
Si Si4 0.328895 0.471737 0.539368
Si Si5 0.236867 0.799973 0.108756
Si Si6 0.561255 0.294170 0.451852
Si Si7 0.260382 0.550572 0.808649
Si Si8 0.651539 0.605367 0.821870
O O1 0.808602 0.571163 0.491235
O O2 0.630095 0.673978 0.449460
O O3 0.944311 0.707402 0.447638
O O4 0.844132 0.606639 0.357404
O O5 0.371674 0.582072 0.107004
O O6 0.290073 0.718386 0.122301
O O7 0.583643 0.675552 0.162837
O O8 0.312607 0.634817 0.240106
O O9 0.396780 0.852464 0.127513
O O10 0.288069 0.945831 0.224047
O O11 0.500000 0.000000 0.138038
O O12 0.239253 0.957210 0.077779
O O13 0.500000 0.500000 0.498003
O O14 0.157742 0.808968 0.027989
O O15 0.656737 0.333381 0.383981
O O16 0.455810 0.576603 0.817798
O O17 0.242836 0.467899 0.835443
#
# Coordination Sequence:
#
# PCOD9377011 Si02
#       8
#     8   8   8   8   8   8   8   8
#     4  11  25  42  72  98 136 178 226 281 344 412
#     4  12  24  41  69  98 136 180 228 289 339 419
#     4  12  27  44  68 100 142 175 234 294 341 407
#     4  12  22  44  72  98 133 184 230 279 345 414
#     4  12  25  43  67 103 138 177 232 283 353 410
#     4  11  23  43  64 101 137 177 221 282 340 416
#     4  10  22  43  64  98 130 180 229 275 336 407
#     4  10  22  40  71  95 131 181 232 272 335 417
#
# _framework density 24.246307000000002
#
# number of rings (size 3 to 8) (size 9 to 14) (size 15 to 20)
#    0.000    0.750    6.250    0.000    8.750    1.000 
#    2.250    0.625    0.000    0.000    0.000    0.000 
#    0.000    0.000    0.000    0.000    0.000    0.000 
#
# Total GULP energy -179079.060282 kJ/mol
# GULP energy per Si atom -5596.220634 kJ/mol
# Density = 2.419112 g / cm^3
# Si number density = 24.246307 Si / 1000 Ang^3
#
#
#
# Elastic Constant Matrix: (Units=GPa)
#
#
# Indices 1 2 3 4 5 6 
#
# 1 40.2216 18.8381 10.3175 0.0000 0.0000 0.0000
# 2 18.8381 122.9506 42.2363 0.0000 0.0000 0.0000
# 3 10.3175 42.2363 83.0868 0.0000 0.0000 0.0000
# 4 0.0000 0.0000 0.0000 48.4821 0.0000 0.0000
# 5 0.0000 0.0000 0.0000 0.0000 16.4843 0.0000
# 6 0.0000 0.0000 0.0000 0.0000 0.0000 37.7644
#
#
#
# Elastic Compliance Matrix: (Units=1/GPa)
#
#
# Indices 1 2 3 4 5 6 
#
# 1 0.026940 -0.003609 -0.001511 0.000000 0.000000 0.000000
# 2 -0.003609 0.010338 -0.004807 0.000000 0.000000 0.000000
# 3 -0.001511 -0.004807 0.014667 0.000000 0.000000 0.000000
# 4 0.000000 0.000000 0.000000 0.020626 0.000000 0.000000
# 5 0.000000 0.000000 0.000000 0.000000 0.060664 0.000000
# 6 0.000000 0.000000 0.000000 0.000000 0.000000 0.026480
#
#
# Mechanical properties :
#
#
# Convention : Reuss Voigt Hill
#
# Bulk Modulus (GPa) = 31.16099 43.22697 37.19398
# Shear Modulus (GPa) = 26.27927 32.20398 29.24162
#
# Velocity S-wave (km/s) = 3.29575 3.64840 3.47655
# Velocity P-wave (km/s) = 5.23091 5.96781 5.61147
#
# Compressibility (1/GPa) = 0.03209141
#
# Stress axis : x y z
#
# Youngs Moduli (GPa) = 37.11962 96.73510 68.18147
#
# Poissons Ratio (x) = 0.34908 0.10302
# Poissons Ratio (y) = 0.13395 0.32774
# Poissons Ratio (z) = 0.05608 0.46499
#
# Static dielectric constant tensor:
#      x y z
#    x 2.040620 0.000000 0.000000 
#    y 0.000000 1.894830 0.000000 
#    z 0.000000 0.000000 1.901630 
# 
# From -- ./inp_files/8974.got.cif
#   From: 2010.05.17/outbox.cif.g08.bks.cpg/sg45_5_cif.got.tgz:8974.got - 2010.06.03 19:51:22.
