data_PCOD9377119
_publ_section_title
;
Structure prediction by ZEFSAII (Michael W. Deem and Ramdas Pophale) SiO2 
 PCOD9377119
Probable space group: I B A 2
;
_chemical_formula_sum "Si O2"
_cell_formula_units_Z 56
_cell_length_a 31.605520
_cell_length_b 5.499782
_cell_length_c 13.411323
_cell_angle_alpha 90.000000
_cell_angle_beta 90.000000
_cell_angle_gamma 90.000000
_cell_volume 2331.202701
_symmetry_space_group_name_H-M "I B A 2"
_symmetry_group_IT_number 45
_symmetry_cell_setting 'orthorhombic'
loop_
_space_group_symop_operation_xyz
x,y,z
-x,-y,z
-x,y,1/2+z
x,-y,1/2+z
1/2+x,1/2+y,1/2+z
1/2-x,1/2-y,1/2+z
1/2-x,1/2+y,z
1/2+x,1/2-y,z
loop_
_atom_site_type_symbol
_atom_site_label
_atom_site_fract_x
_atom_site_fract_y
_atom_site_fract_z
Si Si1 0.269595 0.902013 0.522630
Si Si2 0.368775 0.075474 0.006426
Si Si3 0.080939 0.520354 0.681631
Si Si4 0.000000 0.500000 0.555495
Si Si5 0.765776 0.336075 0.784941
Si Si6 0.415044 0.272603 0.368723
Si Si7 0.859103 0.851440 0.296303
Si Si8 0.500000 0.500000 0.935343
O O1 0.256554 0.634611 0.561237
O O2 0.319401 0.961283 0.530555
O O3 0.259252 0.874579 0.404032
O O4 0.393054 0.155698 0.105982
O O5 0.368597 0.240316 0.907007
O O6 0.396233 0.843142 0.969083
O O7 0.068257 0.419205 0.789218
O O8 0.112025 0.738070 0.710594
O O9 0.038541 0.577605 0.624699
O O10 0.008343 0.255652 0.492452
O O11 0.764623 0.616140 0.748586
O O12 0.811425 0.213443 0.772138
O O13 0.373265 0.375264 0.313758
O O14 0.454646 0.451086 0.382667
#
# Coordination Sequence:
#
# PCOD9377119 Si02
#       8
#     8   8   8   4   8   8   8   4
#     4   9  19  35  63  99 130 181 236 290 345 415
#     4  10  22  45  67  97 144 186 236 292 359 425
#     4  11  26  45  70 106 141 186 237 293 355 428
#     4  12  28  50  76 106 142 186 236 290 364 420
#     4   9  19  35  64  94 136 181 234 289 347 417
#     4  11  26  43  74 101 142 189 236 298 354 429
#     4  10  24  41  67 103 139 188 239 291 360 420
#     4  12  28  50  78 106 142 188 240 292 364 426
#
# _framework density 24.021937000000001
#
# number of rings (size 3 to 8) (size 9 to 14) (size 15 to 20)
#    0.000    1.714    1.429    0.857   18.000    1.143 
#    0.000    1.429    0.000    0.000    0.000    0.000 
#    0.000    0.000    0.000    0.000    0.000    0.000 
#
# Total GULP energy -156267.367785 kJ/mol
# GULP energy per Si atom -5580.977421 kJ/mol
# Density = 2.396726 g / cm^3
# Si number density = 24.021937 Si / 1000 Ang^3
#
#
#
# Elastic Constant Matrix: (Units=GPa)
#
#
# Indices 1 2 3 4 5 6 
#
# 1 107.8304 32.7317 27.0236 0.0000 0.0000 0.0000
# 2 32.7317 84.5703 17.7376 0.0000 0.0000 0.0000
# 3 27.0236 17.7376 71.4448 0.0000 0.0000 0.0000
# 4 0.0000 0.0000 0.0000 6.5632 0.0000 0.0000
# 5 0.0000 0.0000 0.0000 0.0000 12.2579 0.0000
# 6 0.0000 0.0000 0.0000 0.0000 0.0000 31.8370
#
#
#
# Elastic Compliance Matrix: (Units=1/GPa)
#
#
# Indices 1 2 3 4 5 6 
#
# 1 0.011216 -0.003641 -0.003338 0.000000 0.000000 0.000000
# 2 -0.003641 0.013656 -0.002013 0.000000 0.000000 0.000000
# 3 -0.003338 -0.002013 0.015759 0.000000 0.000000 0.000000
# 4 0.000000 0.000000 0.000000 0.152364 0.000000 0.000000
# 5 0.000000 0.000000 0.000000 0.000000 0.081580 0.000000
# 6 0.000000 0.000000 0.000000 0.000000 0.000000 0.031410
#
#
# Mechanical properties :
#
#
# Convention : Reuss Voigt Hill
#
# Bulk Modulus (GPa) = 44.15757 46.53682 45.34719
# Shear Modulus (GPa) = 15.08214 22.55514 18.81864
#
# Velocity S-wave (km/s) = 2.50841 3.06754 2.80195
# Velocity P-wave (km/s) = 5.17799 5.65341 5.42091
#
# Compressibility (1/GPa) = 0.02264618
#
# Stress axis : x y z
#
# Youngs Moduli (GPa) = 89.16179 73.22898 63.45430
#
# Poissons Ratio (x) = 0.26660 0.21183
# Poissons Ratio (y) = 0.32461 0.12775
# Poissons Ratio (z) = 0.29765 0.14743
#
# Static dielectric constant tensor:
#      x y z
#    x 1.911300 0.000000 0.000000 
#    y 0.000000 1.973380 0.000000 
#    z 0.000000 0.000000 1.986840 
# 
# From -- ./inp_files/7186.got.cif
#   From: 2010.05.17/outbox.cif.g08.bks.cpg/sg45_4_cif.got.tgz:7186.got - 2010.06.03 19:51:22.
