data_PCOD9377218
_publ_section_title
;
Structure prediction by ZEFSAII (Michael W. Deem and Ramdas Pophale) SiO2 
 PCOD9377218
Probable space group: I B A 2
;
_chemical_formula_sum "Si O2"
_cell_formula_units_Z 52
_cell_length_a 17.976865
_cell_length_b 5.245590
_cell_length_c 24.672238
_cell_angle_alpha 90.000000
_cell_angle_beta 90.000000
_cell_angle_gamma 90.000000
_cell_volume 2326.573867
_symmetry_space_group_name_H-M "I B A 2"
_symmetry_group_IT_number 45
_symmetry_cell_setting 'orthorhombic'
loop_
_space_group_symop_operation_xyz
x,y,z
-x,-y,z
-x,y,1/2+z
x,-y,1/2+z
1/2+x,1/2+y,1/2+z
1/2-x,1/2-y,1/2+z
1/2-x,1/2+y,z
1/2+x,1/2-y,z
loop_
_atom_site_type_symbol
_atom_site_label
_atom_site_fract_x
_atom_site_fract_y
_atom_site_fract_z
Si Si1 0.060519 0.807046 0.665740
Si Si2 0.618010 0.173305 0.002205
Si Si3 0.500000 0.500000 0.438853
Si Si4 0.297098 0.065716 0.393844
Si Si5 0.799097 0.938772 0.099314
Si Si6 0.500000 0.000000 0.250490
Si Si7 0.061113 0.324856 0.355054
Si Si8 0.500000 0.000000 0.569544
O O1 0.139935 0.907686 0.647045
O O2 0.064393 0.563844 0.706342
O O3 0.020671 0.725161 0.610117
O O4 0.000000 0.000000 0.691510
O O5 0.662272 0.362739 0.041968
O O6 0.576374 0.956210 0.037102
O O7 0.546983 0.316961 0.977177
O O8 0.668444 0.061751 0.954492
O O9 0.436480 0.592099 0.395925
O O10 0.264369 0.346570 0.386646
O O11 0.363410 0.982566 0.353567
O O12 0.736573 0.717446 0.103052
O O13 0.476682 0.790913 0.296629
O O14 0.000000 0.500000 0.385082
#
# Coordination Sequence:
#
# PCOD9377218 Si02
#       8
#     8   8   4   8   8   4   8   4
#     4  10  23  43  73  97 129 171 234 292 344 413
#     4  11  22  38  65  96 138 190 231 275 331 419
#     4  12  22  40  70 102 138 178 250 292 344 388
#     4  12  25  43  63  98 145 183 225 277 347 415
#     4  11  27  44  65 100 147 184 221 280 352 420
#     4   9  22  43  74 104 116 171 240 293 354 410
#     4  10  23  44  68  97 131 177 231 299 338 417
#     4   9  22  37  62  98 134 165 236 285 326 382
#
# _framework density 22.350463000000001
#
# number of rings (size 3 to 8) (size 9 to 14) (size 15 to 20)
#    0.462    0.923    1.538    2.769   11.846    1.231 
#    0.000    1.538    0.000    0.000    0.000    0.000 
#    0.000    0.000    0.000    0.000    0.000    0.000 
#
# Total GULP energy -144747.921982 kJ/mol
# GULP energy per Si atom -5567.227769 kJ/mol
# Density = 2.229959 g / cm^3
# Si number density = 22.350463 Si / 1000 Ang^3
#
#
#
# Elastic Constant Matrix: (Units=GPa)
#
#
# Indices 1 2 3 4 5 6 
#
# 1 89.3065 20.0065 22.9380 0.0000 0.0000 0.0000
# 2 20.0065 41.1247 5.6125 0.0000 0.0000 0.0000
# 3 22.9380 5.6125 78.5862 0.0000 0.0000 0.0000
# 4 0.0000 0.0000 0.0000 17.6842 0.0000 0.0000
# 5 0.0000 0.0000 0.0000 0.0000 15.2913 0.0000
# 6 0.0000 0.0000 0.0000 0.0000 0.0000 44.0567
#
#
#
# Elastic Compliance Matrix: (Units=1/GPa)
#
#
# Indices 1 2 3 4 5 6 
#
# 1 0.013454 -0.006068 -0.003494 0.000000 0.000000 0.000000
# 2 -0.006068 0.027293 -0.000178 0.000000 0.000000 0.000000
# 3 -0.003494 -0.000178 0.013757 0.000000 0.000000 0.000000
# 4 0.000000 0.000000 0.000000 0.056548 0.000000 0.000000
# 5 0.000000 0.000000 0.000000 0.000000 0.065397 0.000000
# 6 0.000000 0.000000 0.000000 0.000000 0.000000 0.022698
#
#
# Mechanical properties :
#
#
# Convention : Reuss Voigt Hill
#
# Bulk Modulus (GPa) = 28.55167 34.01462 31.28315
# Shear Modulus (GPa) = 21.71068 26.10379 23.90724
#
# Velocity S-wave (km/s) = 3.12007 3.42121 3.27410
# Velocity P-wave (km/s) = 5.07760 5.55500 5.32166
#
# Compressibility (1/GPa) = 0.03502422
#
# Stress axis : x y z
#
# Youngs Moduli (GPa) = 74.32634 36.63972 72.68851
#
# Poissons Ratio (x) = 0.22235 0.25395
# Poissons Ratio (y) = 0.45105 0.01293
# Poissons Ratio (z) = 0.25967 0.00652
#
# Static dielectric constant tensor:
#      x y z
#    x 1.863620 0.000000 0.000000 
#    y 0.000000 2.099630 0.000000 
#    z 0.000000 0.000000 1.842690 
# 
# From -- ./inp_files/10079.got.cif
#   From: 2010.05.17/outbox.cif.g08.bks.cpg/sg45_6_cif.got.tgz:10079.got - 2010.06.03 19:51:22.
