data_PCOD9377351
_publ_section_title
;
Structure prediction by ZEFSAII (Michael W. Deem and Ramdas Pophale) SiO2 
 PCOD9377351
Probable space group: I B A 2
;
_chemical_formula_sum "Si O2"
_cell_formula_units_Z 56
_cell_length_a 12.681684
_cell_length_b 22.974525
_cell_length_c 9.114770
_cell_angle_alpha 90.000000
_cell_angle_beta 90.000000
_cell_angle_gamma 90.000000
_cell_volume 2655.639885
_symmetry_space_group_name_H-M "I B A 2"
_symmetry_group_IT_number 45
_symmetry_cell_setting 'orthorhombic'
loop_
_space_group_symop_operation_xyz
x,y,z
-x,-y,z
-x,y,1/2+z
x,-y,1/2+z
1/2+x,1/2+y,1/2+z
1/2-x,1/2-y,1/2+z
1/2-x,1/2+y,z
1/2+x,1/2-y,z
loop_
_atom_site_type_symbol
_atom_site_label
_atom_site_fract_x
_atom_site_fract_y
_atom_site_fract_z
Si Si1 0.923610 0.444635 0.366810
Si Si2 0.614492 0.658589 0.418402
Si Si3 0.598914 0.473094 0.017799
Si Si4 0.901324 0.816954 0.254514
Si Si5 0.694749 0.443825 0.299677
Si Si6 0.853195 0.306237 0.859173
Si Si7 0.508704 0.138817 0.615893
O O1 0.803133 0.461201 0.374910
O O2 0.954182 0.406554 0.506477
O O3 0.000000 0.500000 0.349866
O O4 0.926819 0.401080 0.228403
O O5 0.590758 0.590854 0.449856
O O6 0.603546 0.689016 0.578138
O O7 0.522922 0.679909 0.308662
O O8 0.734811 0.667785 0.364515
O O9 0.500000 0.500000 0.104774
O O10 0.692435 0.466816 0.134364
O O11 0.612844 0.521032 0.895518
O O12 0.839703 0.876481 0.294456
O O13 0.848049 0.762779 0.335723
O O14 0.923445 0.329148 0.720716
O O15 0.916253 0.322728 0.009487
#
# Coordination Sequence:
#
# PCOD9377351 Si02
#       7
#     8   8   8   8   8   8   8
#     4  11  25  42  68 100 143 183 238 292 351 427
#     4  11  26  44  72 104 141 186 238 294 364 425
#     4  11  23  43  67  99 136 174 227 292 349 429
#     4  11  25  46  69 105 138 186 241 293 357 435
#     4  11  26  40  68  98 136 181 230 287 355 423
#     4  11  25  47  75 100 148 188 240 300 358 430
#     4  10  24  45  66 104 138 186 239 289 353 431
#
# _framework density 21.087197
#
# number of rings (size 3 to 8) (size 9 to 14) (size 15 to 20)
#    0.000    1.143    1.429    3.429   10.000    6.857 
#    0.000    0.000    0.000    0.000    0.000    0.000 
#    0.000    0.000    0.000    0.000    0.000    0.000 
#
# Total GULP energy -156328.355247 kJ/mol
# GULP energy per Si atom -5583.155545 kJ/mol
# Density = 2.103920 g / cm^3
# Si number density = 21.087197 Si / 1000 Ang^3
#
#
#
# Elastic Constant Matrix: (Units=GPa)
#
#
# Indices 1 2 3 4 5 6 
#
# 1 131.0059 39.3526 22.1077 0.0004 0.0001 0.0000
# 2 39.3526 110.0325 47.2376 0.0006 0.0000 0.0000
# 3 22.1077 47.2376 90.9311 0.0037 0.0006 0.0001
# 4 0.0004 0.0006 0.0037 3.8004 0.0003 0.0000
# 5 0.0001 0.0000 0.0006 0.0003 19.5745 0.0000
# 6 0.0000 0.0000 0.0001 0.0000 0.0000 17.5611
#
#
#
# Elastic Compliance Matrix: (Units=1/GPa)
#
#
# Indices 1 2 3 4 5 6 
#
# 1 0.008580 -0.002797 -0.000633 0.000000 0.000000 0.000000
# 2 -0.002797 0.012609 -0.005870 0.000004 0.000000 0.000000
# 3 -0.000633 -0.005870 0.014201 -0.000013 0.000000 0.000000
# 4 0.000000 0.000004 -0.000013 0.263132 -0.000004 0.000000
# 5 0.000000 0.000000 0.000000 -0.000004 0.051087 0.000000
# 6 0.000000 0.000000 0.000000 0.000000 0.000000 0.056944
#
#
# Mechanical properties :
#
#
# Convention : Reuss Voigt Hill
#
# Bulk Modulus (GPa) = 59.56126 61.04058 60.30092
# Shear Modulus (GPa) = 11.60770 23.07197 17.33983
#
# Velocity S-wave (km/s) = 2.34874 3.31134 2.87067
# Velocity P-wave (km/s) = 5.97176 6.60527 6.29649
#
# Compressibility (1/GPa) = 0.01678944
#
# Stress axis : x y z
#
# Youngs Moduli (GPa) = 116.54693 79.31142 70.41928
#
# Poissons Ratio (x) = 0.22182 0.04459
# Poissons Ratio (y) = 0.32597 0.41336
# Poissons Ratio (z) = 0.07379 0.46556
#
# Static dielectric constant tensor:
#      x y z
#    x 1.869340 0.000000 0.000000 
#    y 0.000000 1.737720 0.000000 
#    z 0.000000 0.000000 1.792060 
# 
# From -- ./inp_files/1815.got.cif
#   From: 2010.05.17/outbox.cif.g08.bks.cpg/sg45_1_cif.got.tgz:1815.got - 2010.06.03 19:51:22.
