data_PCOD9377616
_publ_section_title
;
Structure prediction by ZEFSAII (Michael W. Deem and Ramdas Pophale) SiO2 
 PCOD9377616
Probable space group: I B A 2
;
_chemical_formula_sum "Si O2"
_cell_formula_units_Z 56
_cell_length_a 9.076830
_cell_length_b 18.855687
_cell_length_c 13.398034
_cell_angle_alpha 90.000000
_cell_angle_beta 90.000000
_cell_angle_gamma 90.000000
_cell_volume 2293.071716
_symmetry_space_group_name_H-M "I B A 2"
_symmetry_group_IT_number 45
_symmetry_cell_setting 'orthorhombic'
loop_
_space_group_symop_operation_xyz
x,y,z
-x,-y,z
-x,y,1/2+z
x,-y,1/2+z
1/2+x,1/2+y,1/2+z
1/2-x,1/2-y,1/2+z
1/2-x,1/2+y,z
1/2+x,1/2-y,z
loop_
_atom_site_type_symbol
_atom_site_label
_atom_site_fract_x
_atom_site_fract_y
_atom_site_fract_z
Si Si1 0.104424 0.113549 0.297500
Si Si2 0.467257 0.415497 0.495301
Si Si3 0.873452 0.678198 0.907518
Si Si4 0.956857 0.267966 0.715060
Si Si5 0.951870 0.428479 0.570000
Si Si6 0.259284 0.040604 0.136356
Si Si7 0.311531 0.293552 0.079585
O O1 0.253470 0.126291 0.359326
O O2 0.142529 0.050781 0.222867
O O3 0.977984 0.100506 0.377873
O O4 0.083967 0.186054 0.237015
O O5 0.500000 0.500000 0.508940
O O6 0.579893 0.358629 0.546316
O O7 0.307620 0.414110 0.545276
O O8 0.977778 0.706322 0.820778
O O9 0.951779 0.633185 0.992312
O O10 0.773790 0.730358 0.977970
O O11 0.085032 0.263060 0.632965
O O12 0.816604 0.306420 0.663881
O O13 0.799043 0.459097 0.613203
O O14 0.000000 0.500000 0.510483
O O15 0.078106 0.425799 0.654397
#
# Coordination Sequence:
#
# PCOD9377616 Si02
#       7
#     8   8   8   8   8   8   8
#     4  11  24  43  68 110 145 198 254 316 378 468
#     4  11  24  47  70 107 151 192 258 318 391 456
#     4  11  25  46  72 107 151 196 263 315 385 477
#     4  12  26  47  71 117 147 207 262 314 396 467
#     4   8  22  45  72 108 145 203 235 318 395 445
#     4   9  20  44  72 102 153 188 252 301 393 455
#     4  11  27  46  78 107 158 204 257 331 392 458
#
# _framework density 24.421389000000001
#
# number of rings (size 3 to 8) (size 9 to 14) (size 15 to 20)
#    0.857    0.571    2.857    1.714    6.000    1.714 
#    5.143    0.000    0.000    0.000    0.000    0.000 
#    0.000    0.000    0.000    0.000    0.000    0.000 
#
# Total GULP energy -156057.454257 kJ/mol
# GULP energy per Si atom -5573.480509 kJ/mol
# Density = 2.436581 g / cm^3
# Si number density = 24.421389 Si / 1000 Ang^3
#
#
#
# Elastic Constant Matrix: (Units=GPa)
#
#
# Indices 1 2 3 4 5 6 
#
# 1 86.6966 33.2375 53.1015 0.0000 0.0000 0.0000
# 2 33.2375 92.8384 61.9594 0.0000 0.0000 0.0000
# 3 53.1015 61.9594 140.4338 -0.0001 0.0000 0.0000
# 4 0.0000 0.0000 -0.0001 25.4161 0.0000 0.0000
# 5 0.0000 0.0000 0.0000 0.0000 45.6028 0.0000
# 6 0.0000 0.0000 0.0000 0.0000 0.0000 27.6700
#
#
#
# Elastic Compliance Matrix: (Units=1/GPa)
#
#
# Indices 1 2 3 4 5 6 
#
# 1 0.015350 -0.002299 -0.004790 0.000000 0.000000 0.000000
# 2 -0.002299 0.015611 -0.006018 0.000000 0.000000 0.000000
# 3 -0.004790 -0.006018 0.011587 0.000000 0.000000 0.000000
# 4 0.000000 0.000000 0.000000 0.039345 0.000000 0.000000
# 5 0.000000 0.000000 0.000000 0.000000 0.021928 0.000000
# 6 0.000000 0.000000 0.000000 0.000000 0.000000 0.036140
#
#
# Mechanical properties :
#
#
# Convention : Reuss Voigt Hill
#
# Bulk Modulus (GPa) = 61.22217 68.50729 64.86473
# Shear Modulus (GPa) = 29.13413 31.18247 30.15830
#
# Velocity S-wave (km/s) = 3.45770 3.57718 3.51795
# Velocity P-wave (km/s) = 6.40815 6.72121 6.56655
#
# Compressibility (1/GPa) = 0.01633395
#
# Stress axis : x y z
#
# Youngs Moduli (GPa) = 65.14864 64.05758 86.30159
#
# Poissons Ratio (x) = 0.14725 0.41337
# Poissons Ratio (y) = 0.14975 0.51940
# Poissons Ratio (z) = 0.31205 0.38552
#
# Static dielectric constant tensor:
#      x y z
#    x 2.056040 0.000000 0.000000 
#    y 0.000000 2.035310 0.000000 
#    z 0.000000 0.000000 1.972640 
# 
# From -- ./inp_files/5741.got.cif
#   From: 2010.05.17/outbox.cif.g08.bks.cpg/sg45_3_cif.got.tgz:5741.got - 2010.06.03 19:51:22.
