data_PCOD9377067
_publ_section_title
;
Structure prediction by ZEFSAII (Michael W. Deem and Ramdas Pophale) SiO2 
 PCOD9377067
Probable space group: I B A 2
;
_chemical_formula_sum "Si O2"
_cell_formula_units_Z 56
_cell_length_a 29.079671
_cell_length_b 5.276032
_cell_length_c 14.535145
_cell_angle_alpha 90.000000
_cell_angle_beta 90.000000
_cell_angle_gamma 90.000000
_cell_volume 2230.058615
_symmetry_space_group_name_H-M "I B A 2"
_symmetry_group_IT_number 45
_symmetry_cell_setting 'orthorhombic'
loop_
_space_group_symop_operation_xyz
x,y,z
-x,-y,z
-x,y,1/2+z
x,-y,1/2+z
1/2+x,1/2+y,1/2+z
1/2-x,1/2-y,1/2+z
1/2-x,1/2+y,z
1/2+x,1/2-y,z
loop_
_atom_site_type_symbol
_atom_site_label
_atom_site_fract_x
_atom_site_fract_y
_atom_site_fract_z
Si Si1 0.376669 0.330212 0.809310
Si Si2 0.546697 0.373126 0.888507
Si Si3 0.725183 0.053870 0.118873
Si Si4 0.644046 0.422930 0.120480
Si Si5 0.946826 0.580867 0.712709
Si Si6 0.178165 0.316706 0.467923
Si Si7 0.085550 0.442600 0.027691
O O1 0.407402 0.457699 0.889983
O O2 0.363932 0.516778 0.724182
O O3 0.410421 0.112421 0.764614
O O4 0.328960 0.261404 0.862307
O O5 0.500000 0.500000 0.917625
O O6 0.546421 0.312649 0.780969
O O7 0.550996 0.118751 0.947183
O O8 0.757682 0.281838 0.153088
O O9 0.675162 0.169374 0.139471
O O10 0.720156 0.984131 0.008546
O O11 0.596443 0.322038 0.079175
O O12 0.670007 0.592762 0.044393
O O13 0.928272 0.624563 0.610016
O O14 0.000000 0.500000 0.700513
O O15 0.132897 0.487449 0.480181
#
# Coordination Sequence:
#
# PCOD9377067 Si02
#       7
#     8   8   8   8   8   8   8
#     4  11  23  41  65  98 135 175 239 286 341 433
#     4  12  23  40  65  95 134 186 242 308 362 411
#     4  11  23  45  75 103 139 175 221 287 357 428
#     4  10  22  42  68 101 132 186 224 283 353 421
#     4  11  23  41  59  89 134 178 230 302 359 407
#     4  11  21  42  72  96 136 184 226 283 354 429
#     4  10  23  39  62  94 130 181 239 285 354 431
#
# _framework density 25.111446999999998
#
# number of rings (size 3 to 8) (size 9 to 14) (size 15 to 20)
#    0.000    1.143    5.714    0.857    0.000    1.714 
#    5.143    1.429    0.000    0.000    0.000    0.000 
#    0.000    0.000    0.000    0.000    0.000    0.000 
#
# Total GULP energy -155984.207922 kJ/mol
# GULP energy per Si atom -5570.864569 kJ/mol
# Density = 2.505429 g / cm^3
# Si number density = 25.111447 Si / 1000 Ang^3
#
#
#
# Elastic Constant Matrix: (Units=GPa)
#
#
# Indices 1 2 3 4 5 6 
#
# 1 42.3615 7.0037 -2.8195 0.0000 0.0000 0.0000
# 2 7.0037 83.8046 12.9555 0.0000 0.0000 0.0000
# 3 -2.8195 12.9555 107.6944 0.0000 0.0000 0.0000
# 4 0.0000 0.0000 0.0000 34.7992 0.0000 0.0000
# 5 0.0000 0.0000 0.0000 0.0000 8.0268 0.0000
# 6 0.0000 0.0000 0.0000 0.0000 0.0000 37.0996
#
#
#
# Elastic Compliance Matrix: (Units=1/GPa)
#
#
# Indices 1 2 3 4 5 6 
#
# 1 0.024020 -0.002144 0.000887 0.000000 0.000000 0.000000
# 2 -0.002144 0.012350 -0.001542 0.000000 0.000000 0.000000
# 3 0.000887 -0.001542 0.009494 0.000000 0.000000 0.000000
# 4 0.000000 0.000000 0.000000 0.028736 0.000000 0.000000
# 5 0.000000 0.000000 0.000000 0.000000 0.124583 0.000000
# 6 0.000000 0.000000 0.000000 0.000000 0.000000 0.026954
#
#
# Mechanical properties :
#
#
# Convention : Reuss Voigt Hill
#
# Bulk Modulus (GPa) = 24.83530 29.79332 27.31431
# Shear Modulus (GPa) = 20.39494 30.43318 25.41406
#
# Velocity S-wave (km/s) = 2.85296 3.48505 3.18473
# Velocity P-wave (km/s) = 4.55676 5.29946 4.94208
#
# Compressibility (1/GPa) = 0.04026526
#
# Stress axis : x y z
#
# Youngs Moduli (GPa) = 41.63208 80.97102 105.32714
#
# Poissons Ratio (x) = 0.17364 -0.09341
# Poissons Ratio (y) = 0.08928 0.16240
# Poissons Ratio (z) = -0.03692 0.12484
#
# Static dielectric constant tensor:
#      x y z
#    x 2.088240 0.000000 0.000000 
#    y 0.000000 2.149670 0.000000 
#    z 0.000000 0.000000 2.056910 
# 
# From -- ./inp_files/5250.got.cif
#   From: 2010.05.17/outbox.cif.g08.bks.cpg/sg45_3_cif.got.tgz:5250.got - 2010.06.03 19:51:22.
