data_PCOD9377242
_publ_section_title
;
Structure prediction by ZEFSAII (Michael W. Deem and Ramdas Pophale) SiO2 
 PCOD9377242
Probable space group: I B A 2
;
_chemical_formula_sum "Si O2"
_cell_formula_units_Z 60
_cell_length_a 25.809411
_cell_length_b 8.979292
_cell_length_c 12.105359
_cell_angle_alpha 90.000000
_cell_angle_beta 90.000000
_cell_angle_gamma 90.000000
_cell_volume 2805.419826
_symmetry_space_group_name_H-M "I B A 2"
_symmetry_group_IT_number 45
_symmetry_cell_setting 'orthorhombic'
loop_
_space_group_symop_operation_xyz
x,y,z
-x,-y,z
-x,y,1/2+z
x,-y,1/2+z
1/2+x,1/2+y,1/2+z
1/2-x,1/2-y,1/2+z
1/2-x,1/2+y,z
1/2+x,1/2-y,z
loop_
_atom_site_type_symbol
_atom_site_label
_atom_site_fract_x
_atom_site_fract_y
_atom_site_fract_z
Si Si1 0.743007 0.855014 0.494050
Si Si2 0.575705 0.800805 0.184910
Si Si3 0.444878 0.240204 0.426111
Si Si4 0.092007 0.953404 0.010679
Si Si5 0.500000 0.000000 0.565385
Si Si6 0.349100 0.067666 0.340866
Si Si7 0.659822 0.720511 0.850624
Si Si8 0.194132 0.911431 0.621179
O O1 0.707738 0.911400 0.391965
O O2 0.794894 0.783080 0.442826
O O3 0.708870 0.735835 0.556233
O O4 0.760705 0.974527 0.585684
O O5 0.545886 0.748294 0.295129
O O6 0.573149 0.672808 0.094360
O O7 0.547947 0.947891 0.139785
O O8 0.633624 0.845272 0.228626
O O9 0.441381 0.402753 0.479152
O O10 0.390657 0.144579 0.424884
O O11 0.485020 0.137828 0.488877
O O12 0.142152 0.021577 0.070777
O O13 0.111816 0.871114 0.900288
O O14 0.356085 0.890658 0.326837
O O15 0.683326 0.632288 0.746748
#
# Coordination Sequence:
#
# PCOD9377242 Si02
#       8
#     8   8   8   8   4   8   8   8
#     4  11  23  42  60  96 138 185 236 282 332 401
#     4  10  25  45  75 103 137 178 239 289 368 435
#     4  10  24  45  73 100 141 172 238 290 357 445
#     4  11  23  45  68 103 138 183 227 297 350 427
#     4  12  24  48  76 106 136 180 230 304 370 438
#     4  10  23  45  70  96 136 188 238 285 346 435
#     4  11  25  39  66  98 138 186 238 287 341 405
#     4  11  24  38  64  93 141 181 232 281 338 393
#
# _framework density 21.387174000000002
#
# number of rings (size 3 to 8) (size 9 to 14) (size 15 to 20)
#    0.800    0.533    2.667    2.000    3.733    3.733 
#    0.000    1.333    0.000    0.000    0.000    0.000 
#    0.000    0.000    0.000    0.000    0.000    0.000 
#
# Total GULP energy -167416.279970 kJ/mol
# GULP energy per Si atom -5580.542666 kJ/mol
# Density = 2.133850 g / cm^3
# Si number density = 21.387174 Si / 1000 Ang^3
#
#
#
# Elastic Constant Matrix: (Units=GPa)
#
#
# Indices 1 2 3 4 5 6 
#
# 1 32.5754 41.4614 24.4376 0.0000 0.0000 0.0000
# 2 41.4614 138.8270 62.6614 0.0000 0.0000 0.0000
# 3 24.4376 62.6614 86.2940 0.0000 0.0000 0.0000
# 4 0.0000 0.0000 0.0000 -164.9755 0.0000 0.0000
# 5 0.0000 0.0000 0.0000 0.0000 21.3247 0.0000
# 6 0.0000 0.0000 0.0000 0.0000 0.0000 79.2114
#
#
#
# Elastic Compliance Matrix: (Units=1/GPa)
#
#
# Indices 1 2 3 4 5 6 
#
# 1 0.050947 -0.012947 -0.005027 0.000000 0.000000 0.000000
# 2 -0.012947 0.014005 -0.006503 0.000000 0.000000 0.000000
# 3 -0.005027 -0.006503 0.017734 0.000000 0.000000 0.000000
# 4 0.000000 0.000000 0.000000 -0.006062 0.000000 0.000000
# 5 0.000000 0.000000 0.000000 0.000000 0.046894 0.000000
# 6 0.000000 0.000000 0.000000 0.000000 0.000000 0.012624
#
#
# Mechanical properties :
#
#
# Convention : Reuss Voigt Hill
#
# Bulk Modulus (GPa) = 29.64438 57.20192 43.42315
# Shear Modulus (GPa) = 25.46582 -4.27883 10.59350
#
# Velocity S-wave (km/s) = 3.45440 -1.41598 2.22799
# Velocity P-wave (km/s) = 5.45907 4.91229 5.19288
#
# Compressibility (1/GPa) = 0.03373321
#
# Stress axis : x y z
#
# Youngs Moduli (GPa) = 19.62806 71.40188 56.38869
#
# Poissons Ratio (x) = 0.92443 0.28344
# Poissons Ratio (y) = 0.25412 0.36671
# Poissons Ratio (z) = 0.09866 0.46435
#
# Static dielectric constant tensor:
#      x y z
#    x 1.799010 0.000000 0.000000 
#    y 0.000000 1.789400 0.000000 
#    z 0.000000 0.000000 1.782420 
# 
# From -- ./inp_files/4880.got.cif
#   From: 2010.05.17/outbox.cif.g08.bks.cpg/sg45_3_cif.got.tgz:4880.got - 2010.06.03 19:51:22.
