data_PCOD9377591
_publ_section_title
;
Structure prediction by ZEFSAII (Michael W. Deem and Ramdas Pophale) SiO2 
 PCOD9377591
Probable space group: I B A 2
;
_chemical_formula_sum "Si O2"
_cell_formula_units_Z 40
_cell_length_a 9.502320
_cell_length_b 23.643947
_cell_length_c 7.358603
_cell_angle_alpha 90.000000
_cell_angle_beta 90.000000
_cell_angle_gamma 90.000000
_cell_volume 1653.274632
_symmetry_space_group_name_H-M "I B A 2"
_symmetry_group_IT_number 45
_symmetry_cell_setting 'orthorhombic'
loop_
_space_group_symop_operation_xyz
x,y,z
-x,-y,z
-x,y,1/2+z
x,-y,1/2+z
1/2+x,1/2+y,1/2+z
1/2-x,1/2-y,1/2+z
1/2-x,1/2+y,z
1/2+x,1/2-y,z
loop_
_atom_site_type_symbol
_atom_site_label
_atom_site_fract_x
_atom_site_fract_y
_atom_site_fract_z
Si Si1 0.645263 0.640380 0.053730
Si Si2 0.838493 0.311744 0.233089
Si Si3 0.297646 0.039352 0.664694
Si Si4 0.372616 0.702951 0.917237
Si Si5 0.901098 0.427558 0.056546
O O1 0.666665 0.573284 0.082836
O O2 0.686961 0.669635 0.243744
O O3 0.741830 0.661907 0.890440
O O4 0.490750 0.663189 0.005760
O O5 0.926627 0.262142 0.330555
O O6 0.909240 0.365089 0.137578
O O7 0.741569 0.285703 0.073094
O O8 0.437137 0.053361 0.547996
O O9 0.305229 0.971483 0.672687
O O10 0.332994 0.065480 0.860078
#
# Coordination Sequence:
#
# PCOD9377591 Si02
#       5
#     8   8   8   8   8
#     4  12  25  46  72 104 151 195 254 319 386 457
#     4  12  25  45  72 104 147 202 251 312 376 466
#     4  11  23  44  72 114 148 192 251 329 380 465
#     4  12  26  44  71 103 148 201 255 311 385 463
#     4  11  23  43  76 110 150 194 257 314 394 456
#
# _framework density 24.194406000000001
#
# number of rings (size 3 to 8) (size 9 to 14) (size 15 to 20)
#    0.000    0.400    6.000    4.800    0.000    4.800 
#    0.000    1.000    0.000    0.000    0.000    0.000 
#    0.000    0.000    0.000    0.000    0.000    0.000 
#
# Total GULP energy -111863.473695 kJ/mol
# GULP energy per Si atom -5593.173685 kJ/mol
# Density = 2.413934 g / cm^3
# Si number density = 24.194406 Si / 1000 Ang^3
#
#
#
# Elastic Constant Matrix: (Units=GPa)
#
#
# Indices 1 2 3 4 5 6 
#
# 1 41.8869 34.6816 18.6924 0.0000 -0.0004 0.0000
# 2 34.6816 164.9375 30.4496 -0.0005 0.0001 0.0000
# 3 18.6924 30.4496 138.5734 -0.0001 -0.0021 -0.0003
# 4 0.0000 -0.0005 -0.0001 42.3655 0.0000 0.0000
# 5 -0.0004 0.0001 -0.0021 0.0000 27.1950 0.0001
# 6 0.0000 0.0000 -0.0003 0.0000 0.0001 38.7057
#
#
#
# Elastic Compliance Matrix: (Units=1/GPa)
#
#
# Indices 1 2 3 4 5 6 
#
# 1 0.029888 -0.005775 -0.002763 0.000000 0.000000 0.000000
# 2 -0.005775 0.007435 -0.000855 0.000000 0.000000 0.000000
# 3 -0.002763 -0.000855 0.007777 0.000000 0.000001 0.000000
# 4 0.000000 0.000000 0.000000 0.023604 0.000000 0.000000
# 5 0.000000 0.000000 0.000001 0.000000 0.036771 0.000000
# 6 0.000000 0.000000 0.000000 0.000000 0.000000 0.025836
#
#
# Mechanical properties :
#
#
# Convention : Reuss Voigt Hill
#
# Bulk Modulus (GPa) = 38.00025 57.00499 47.50262
# Shear Modulus (GPa) = 31.47281 39.09153 35.28217
#
# Velocity S-wave (km/s) = 3.61062 4.02397 3.82288
# Velocity P-wave (km/s) = 5.75520 6.72325 6.25798
#
# Compressibility (1/GPa) = 0.02631561
#
# Stress axis : x y z
#
# Youngs Moduli (GPa) = 33.45833 134.50042 128.58608
#
# Poissons Ratio (x) = 0.77668 0.35525
# Poissons Ratio (y) = 0.19321 0.10991
# Poissons Ratio (z) = 0.09244 0.11497
#
# Static dielectric constant tensor:
#      x y z
#    x 1.908510 0.000000 0.000000 
#    y 0.000000 2.050560 0.000000 
#    z 0.000000 0.000000 1.931120 
# 
# From -- ./inp_files/1314.got.cif
#   From: 2010.05.17/outbox.cif.g08.bks.cpg/sg45_1_cif.got.tgz:1314.got - 2010.06.03 19:51:22.
