data_PCOD9377947
_publ_section_title
;
Structure prediction by ZEFSAII (Michael W. Deem and Ramdas Pophale) SiO2 
 PCOD9377947
Probable space group: I M A 2
;
_chemical_formula_sum "Si O2"
_cell_formula_units_Z 48
_cell_length_a 9.798955
_cell_length_b 7.453820
_cell_length_c 29.526368
_cell_angle_alpha 90.000000
_cell_angle_beta 90.000000
_cell_angle_gamma 90.000000
_cell_volume 2156.595489
_symmetry_space_group_name_H-M "I M A 2"
_symmetry_group_IT_number 46
_symmetry_cell_setting 'orthorhombic'
loop_
_space_group_symop_operation_xyz
x,y,z
-x,-y,z
1/2-x,y,z
1/2+x,-y,z
1/2+x,1/2+y,1/2+z
1/2-x,1/2-y,1/2+z
-x,1/2+y,1/2+z
x,1/2-y,1/2+z
loop_
_atom_site_type_symbol
_atom_site_label
_atom_site_fract_x
_atom_site_fract_y
_atom_site_fract_z
Si Si1 0.250000 0.333650 0.079401
Si Si2 0.914863 0.689026 0.809863
Si Si3 0.250000 0.194664 0.477794
Si Si4 0.519166 0.717838 0.909479
Si Si5 0.516501 0.208048 0.129452
Si Si6 0.250000 0.741633 0.956823
Si Si7 0.915307 0.309277 0.727648
Si Si8 0.750000 0.251044 0.058442
O O1 0.380180 0.295535 0.110316
O O2 0.250000 0.535079 0.062133
O O3 0.250000 0.241888 0.029879
O O4 0.750000 0.668723 0.801054
O O5 0.931381 0.773172 0.859762
O O6 0.000000 0.500000 0.814371
O O7 0.000415 0.781022 0.769022
O O8 0.120906 0.260495 0.450020
O O9 0.250000 0.975861 0.468005
O O10 0.500000 0.500000 0.908625
O O11 0.376741 0.791400 0.926084
O O12 0.567065 0.281260 0.178073
O O13 0.620305 0.203741 0.088020
O O14 0.500000 0.000000 0.138695
O O15 0.250000 0.817437 0.007508
O O16 0.750000 0.329485 0.735435
O O17 0.000000 0.500000 0.725940
#
# Coordination Sequence:
#
# PCOD9377947 Si02
#       8
#     4   8   4   8   8   4   8   4
#     4  11  23  35  62  81 113 159 187 239 284 335
#     4  10  18  26  43  68 102 139 181 222 275 345
#     4   9  16  31  42  71 101 137 181 213 278 325
#     4   9  16  25  41  66 101 138 175 214 270 336
#     4  11  23  38  58  83 116 152 192 238 288 338
#     4   9  18  27  48  67 103 145 173 225 270 333
#     4  10  20  32  50  72 105 142 184 231 285 342
#     4  11  21  41  56  85 117 149 201 233 284 337
#
# _framework density 22.257300999999998
#
# number of rings (size 3 to 8) (size 9 to 14) (size 15 to 20)
#    0.000    2.000    1.667    4.000    9.333    2.667 
#    0.000    0.000    0.000    0.000    0.000    0.000 
#    0.000   26.667    0.000    0.000    0.000    0.000 
#
# Total GULP energy -133636.081072 kJ/mol
# GULP energy per Si atom -5568.170045 kJ/mol
# Density = 2.220664 g / cm^3
# Si number density = 22.257301 Si / 1000 Ang^3
#
#
#
# Elastic Constant Matrix: (Units=GPa)
#
#
# Indices 1 2 3 4 5 6 
#
# 1 208.1997 -8.5291 88.4508 0.0000 0.0000 0.0000
# 2 -8.5291 32.1210 -2.3418 0.0000 0.0000 0.0000
# 3 88.4508 -2.3418 205.7446 0.0000 0.0000 0.0000
# 4 0.0000 0.0000 0.0000 13.5983 0.0000 0.0000
# 5 0.0000 0.0000 0.0000 0.0000 10.9829 0.0000
# 6 0.0000 0.0000 0.0000 0.0000 0.0000 10.4480
#
#
#
# Elastic Compliance Matrix: (Units=1/GPa)
#
#
# Indices 1 2 3 4 5 6 
#
# 1 0.005938 0.001392 -0.002537 0.000000 0.000000 0.000000
# 2 0.001392 0.031484 -0.000240 0.000000 0.000000 0.000000
# 3 -0.002537 -0.000240 0.005948 0.000000 0.000000 0.000000
# 4 0.000000 0.000000 0.000000 0.073539 0.000000 0.000000
# 5 0.000000 0.000000 0.000000 0.000000 0.091051 0.000000
# 6 0.000000 0.000000 0.000000 0.000000 0.000000 0.095712
#
#
# Mechanical properties :
#
#
# Convention : Reuss Voigt Hill
#
# Bulk Modulus (GPa) = 24.63039 66.80279 45.71659
# Shear Modulus (GPa) = 15.62620 31.57152 23.59886
#
# Velocity S-wave (km/s) = 2.65254 3.77036 3.25972
# Velocity P-wave (km/s) = 4.52454 7.00237 5.89511
#
# Compressibility (1/GPa) = 0.04060025
#
# Stress axis : x y z
#
# Youngs Moduli (GPa) = 168.41105 31.76184 168.11571
#
# Poissons Ratio (x) = -0.04420 0.42649
# Poissons Ratio (y) = -0.23438 0.04034
# Poissons Ratio (z) = 0.42724 0.00762
#
# Static dielectric constant tensor:
#      x y z
#    x 1.686100 0.000000 0.000000 
#    y 0.000000 1.942940 0.000000 
#    z 0.000000 0.000000 1.955660 
# 
# From -- ./inp_files/25105.got.cif
#   From: 2010.05.17/outbox.cif.g08.bks.cpg/sg46_13_cif.got.tgz:25105.got - 2010.06.03 19:58:25.
