data_PCOD9377910
_publ_section_title
;
Structure prediction by ZEFSAII (Michael W. Deem and Ramdas Pophale) SiO2 
 PCOD9377910
Probable space group: I M A 2
;
_chemical_formula_sum "Si O2"
_cell_formula_units_Z 64
_cell_length_a 7.652976
_cell_length_b 23.291397
_cell_length_c 16.715193
_cell_angle_alpha 90.000000
_cell_angle_beta 90.000000
_cell_angle_gamma 90.000000
_cell_volume 2979.458117
_symmetry_space_group_name_H-M "I M A 2"
_symmetry_group_IT_number 46
_symmetry_cell_setting 'orthorhombic'
loop_
_space_group_symop_operation_xyz
x,y,z
-x,-y,z
1/2-x,y,z
1/2+x,-y,z
1/2+x,1/2+y,1/2+z
1/2-x,1/2-y,1/2+z
-x,1/2+y,1/2+z
x,1/2-y,1/2+z
loop_
_atom_site_type_symbol
_atom_site_label
_atom_site_fract_x
_atom_site_fract_y
_atom_site_fract_z
Si Si1 0.948485 0.848197 0.806120
Si Si2 0.043927 0.726233 0.158931
Si Si3 0.543089 0.635727 0.035725
Si Si4 0.550618 0.343102 0.867035
Si Si5 0.041124 0.434584 0.186632
Si Si6 0.540798 0.345828 0.599182
Si Si7 0.449055 0.774862 0.946223
Si Si8 0.960756 0.431756 0.729218
O O1 0.750000 0.855940 0.835059
O O2 0.024220 0.905748 0.767697
O O3 0.947145 0.806199 0.729275
O O4 0.058369 0.819873 0.874342
O O5 0.250000 0.715954 0.167553
O O6 0.014175 0.793791 0.161859
O O7 0.986590 0.699128 0.073686
O O8 0.750000 0.627523 0.024803
O O9 0.473989 0.596135 0.107083
O O10 0.452131 0.624362 0.952147
O O11 0.750000 0.328821 0.842181
O O12 0.471211 0.281884 0.900146
O O13 0.478621 0.387579 0.800355
O O14 0.250000 0.424955 0.186999
O O15 0.000000 0.500000 0.183353
O O16 0.750000 0.352993 0.586169
O O17 0.473197 0.314816 0.518008
O O18 0.478039 0.403225 0.644469
O O19 0.250000 0.758198 0.970871
O O20 0.750000 0.427983 0.730337
O O21 0.000000 0.500000 0.738241
#
# Coordination Sequence:
#
# PCOD9377910 Si02
#       8
#     8   8   8   8   8   8   8   8
#     4  10  21  35  50  79 116 143 173 224 285 341
#     4  10  17  32  57  82 108 144 184 225 276 337
#     4  10  20  33  51  82 119 145 174 227 289 339
#     4  10  20  36  58  84 113 147 194 237 275 335
#     4   9  20  36  52  72 103 142 184 223 264 326
#     4   9  18  35  60  83 106 139 189 242 279 327
#     4  10  19  35  59  87 110 138 186 236 286 340
#     4  10  22  40  59  81 113 154 198 244 284 337
#
# _framework density 21.480416000000002
#
# number of rings (size 3 to 8) (size 9 to 14) (size 15 to 20)
#    0.000    2.250    1.250    2.625    0.000    6.500 
#    0.000    6.250    0.000    3.000    0.000    0.000 
#    0.000    0.000    0.000    0.000    0.000    0.000 
#
# Total GULP energy -178177.413287 kJ/mol
# GULP energy per Si atom -5568.044165 kJ/mol
# Density = 2.143153 g / cm^3
# Si number density = 21.480416 Si / 1000 Ang^3
#
#
#
# Elastic Constant Matrix: (Units=GPa)
#
#
# Indices 1 2 3 4 5 6 
#
# 1 45.0383 7.0226 6.0241 0.0000 0.0000 0.0000
# 2 7.0226 133.8362 73.8734 0.0000 0.0000 0.0000
# 3 6.0241 73.8734 107.7449 -0.0001 0.0001 0.0000
# 4 0.0000 0.0000 -0.0001 25.7136 0.0000 0.0000
# 5 0.0000 0.0000 0.0001 0.0000 -7.0277 0.0000
# 6 0.0000 0.0000 0.0000 0.0000 0.0000 22.1120
#
#
#
# Elastic Compliance Matrix: (Units=1/GPa)
#
#
# Indices 1 2 3 4 5 6 
#
# 1 0.022421 -0.000780 -0.000719 0.000000 0.000000 0.000000
# 2 -0.000780 0.012048 -0.008217 0.000000 0.000000 0.000000
# 3 -0.000719 -0.008217 0.014955 0.000000 0.000000 0.000000
# 4 0.000000 0.000000 0.000000 0.038890 0.000000 0.000000
# 5 0.000000 0.000000 0.000000 0.000000 -0.142295 0.000000
# 6 0.000000 0.000000 0.000000 0.000000 0.000000 0.045224
#
#
# Mechanical properties :
#
#
# Convention : Reuss Voigt Hill
#
# Bulk Modulus (GPa) = 33.34096 51.16218 42.25157
# Shear Modulus (GPa) = 241.85411 21.47287 131.66349
#
# Velocity S-wave (km/s) = 10.62249 3.16515 7.83758
# Velocity P-wave (km/s) = 12.88429 6.10142 10.08048
#
# Compressibility (1/GPa) = 0.02999314
#
# Stress axis : x y z
#
# Youngs Moduli (GPa) = 44.60095 82.99907 66.86584
#
# Poissons Ratio (x) = 0.06470 0.04808
# Poissons Ratio (y) = 0.03477 0.54945
# Poissons Ratio (z) = 0.03207 0.68201
#
# Static dielectric constant tensor:
#      x y z
#    x 1.707690 0.000000 0.000000 
#    y 0.000000 1.808010 0.000000 
#    z 0.000000 0.000000 1.824630 
# 
# From -- ./inp_files/18576.got.cif
#   From: 2010.05.17/outbox.cif.g08.bks.cpg/sg46_10_cif.got.tgz:18576.got - 2010.06.03 19:58:25.
