data_PCOD9377792
_publ_section_title
;
Structure prediction by ZEFSAII (Michael W. Deem and Ramdas Pophale) SiO2 
 PCOD9377792
Probable space group: I M A 2
;
_chemical_formula_sum "Si O2"
_cell_formula_units_Z 56
_cell_length_a 33.083828
_cell_length_b 9.617817
_cell_length_c 6.810318
_cell_angle_alpha 90.000000
_cell_angle_beta 90.000000
_cell_angle_gamma 90.000000
_cell_volume 2167.003711
_symmetry_space_group_name_H-M "I M A 2"
_symmetry_group_IT_number 46
_symmetry_cell_setting 'orthorhombic'
loop_
_space_group_symop_operation_xyz
x,y,z
-x,-y,z
1/2-x,y,z
1/2+x,-y,z
1/2+x,1/2+y,1/2+z
1/2-x,1/2-y,1/2+z
-x,1/2+y,1/2+z
x,1/2-y,1/2+z
loop_
_atom_site_type_symbol
_atom_site_label
_atom_site_fract_x
_atom_site_fract_y
_atom_site_fract_z
Si Si1 0.473829 0.300479 0.960150
Si Si2 0.061219 0.882013 0.480683
Si Si3 0.796319 0.953279 0.676012
Si Si4 0.633197 0.028956 0.213174
Si Si5 0.413154 0.259164 0.214145
Si Si6 0.375961 0.937462 0.765507
Si Si7 0.295185 0.132450 0.131245
O O1 0.522519 0.283797 0.959527
O O2 0.460408 0.465364 0.958510
O O3 0.424673 0.245537 0.964341
O O4 0.466330 0.255519 0.213353
O O5 0.101688 0.890011 0.348313
O O6 0.083138 0.866030 0.689247
O O7 0.750000 0.989350 0.619041
O O8 0.832356 0.067686 0.658164
O O9 0.807373 0.795191 0.606399
O O10 0.795430 0.927900 0.912087
O O11 0.614196 0.876177 0.211034
O O12 0.679155 0.981529 0.252957
O O13 0.629971 0.090228 0.994699
O O14 0.388824 0.402835 0.223363
O O15 0.250000 0.140484 0.210829
#
# Coordination Sequence:
#
# PCOD9377792 Si02
#       7
#     8   8   8   8   8   8   8
#     4   9  18  32  42  65  84 108 145 196 217 255
#     4   9  20  32  43  60  90 110 146 187 227 252
#     4   9  17  25  37  60  85 111 147 183 206 239
#     4  10  18  29  45  62  83 120 148 179 216 259
#     4  10  16  28  47  62  80 112 155 184 210 254
#     4  10  18  29  45  62  83 120 148 179 216 259
#     4   9  17  25  37  60  85 111 147 183 206 239
#
# _framework density 25.842133
#
# number of rings (size 3 to 8) (size 9 to 14) (size 15 to 20)
#    0.000    2.571    2.857    0.000    2.000    0.000 
#    2.571    2.857    0.000    0.000    0.000    0.000 
#    0.000    0.000    0.000    5.143    0.000    0.571 
#
# Total GULP energy -155909.600785 kJ/mol
# GULP energy per Si atom -5568.200028 kJ/mol
# Density = 2.578332 g / cm^3
# Si number density = 25.842133 Si / 1000 Ang^3
#
#
#
# Elastic Constant Matrix: (Units=GPa)
#
#
# Indices 1 2 3 4 5 6 
#
# 1 175.5173 21.1649 23.4380 0.0000 0.0000 0.0000
# 2 21.1649 50.9002 1.6246 0.0000 0.0000 0.0000
# 3 23.4380 1.6246 98.9649 0.0000 0.0000 0.0000
# 4 0.0000 0.0000 0.0000 10.0625 0.0000 0.0000
# 5 0.0000 0.0000 0.0000 0.0000 30.4323 0.0000
# 6 0.0000 0.0000 0.0000 0.0000 0.0000 39.5505
#
#
#
# Elastic Compliance Matrix: (Units=1/GPa)
#
#
# Indices 1 2 3 4 5 6 
#
# 1 0.006193 -0.002530 -0.001425 0.000000 0.000000 0.000000
# 2 -0.002530 0.020690 0.000259 0.000000 0.000000 0.000000
# 3 -0.001425 0.000259 0.010438 0.000000 0.000000 0.000000
# 4 0.000000 0.000000 0.000000 0.099379 0.000000 0.000000
# 5 0.000000 0.000000 0.000000 0.000000 0.032860 0.000000
# 6 0.000000 0.000000 0.000000 0.000000 0.000000 0.025284
#
#
# Mechanical properties :
#
#
# Convention : Reuss Voigt Hill
#
# Bulk Modulus (GPa) = 33.41133 46.42638 39.91885
# Shear Modulus (GPa) = 23.56154 34.61939 29.09047
#
# Velocity S-wave (km/s) = 3.02279 3.66409 3.35878
# Velocity P-wave (km/s) = 5.01399 5.99209 5.52473
#
# Compressibility (1/GPa) = 0.02992997
#
# Stress axis : x y z
#
# Youngs Moduli (GPa) = 161.47844 48.33297 95.80522
#
# Poissons Ratio (x) = 0.12226 0.13653
# Poissons Ratio (y) = 0.40847 -0.02485
# Poissons Ratio (z) = 0.23013 -0.01254
#
# Static dielectric constant tensor:
#      x y z
#    x 2.065320 0.000000 0.000000 
#    y 0.000000 2.017560 0.000000 
#    z 0.000000 0.000000 2.340690 
# 
# From -- ./inp_files/8520.got.cif
#   From: 2010.05.17/outbox.cif.g08.bks.cpg/sg46_5_cif.got.tgz:8520.got - 2010.06.03 19:58:25.
