data_PCOD9377609
_publ_section_title
;
Structure prediction by ZEFSAII (Michael W. Deem and Ramdas Pophale) SiO2 
 PCOD9377609
Probable space group: I B A 2
;
_chemical_formula_sum "Si O2"
_cell_formula_units_Z 60
_cell_length_a 19.165236
_cell_length_b 8.108397
_cell_length_c 15.882321
_cell_angle_alpha 90.000000
_cell_angle_beta 90.000000
_cell_angle_gamma 90.000000
_cell_volume 2468.102234
_symmetry_space_group_name_H-M "I B A 2"
_symmetry_group_IT_number 45
_symmetry_cell_setting 'orthorhombic'
loop_
_space_group_symop_operation_xyz
x,y,z
-x,-y,z
-x,y,1/2+z
x,-y,1/2+z
1/2+x,1/2+y,1/2+z
1/2-x,1/2-y,1/2+z
1/2-x,1/2+y,z
1/2+x,1/2-y,z
loop_
_atom_site_type_symbol
_atom_site_label
_atom_site_fract_x
_atom_site_fract_y
_atom_site_fract_z
Si Si1 0.295348 0.132487 0.209170
Si Si2 0.983911 0.690938 0.219488
Si Si3 0.388943 0.656676 0.818657
Si Si4 0.225791 0.322222 0.929018
Si Si5 0.483013 0.802197 0.528549
Si Si6 0.173416 0.287166 0.279163
Si Si7 0.500000 0.500000 0.407919
Si Si8 0.675747 0.130842 0.525820
O O1 0.337613 0.295924 0.240321
O O2 0.215762 0.188163 0.207503
O O3 0.322722 0.067810 0.121001
O O4 0.307337 0.982157 0.273972
O O5 0.907261 0.715925 0.256191
O O6 0.000000 0.500000 0.210520
O O7 0.041943 0.751235 0.285111
O O8 0.994440 0.751729 0.123188
O O9 0.338423 0.715934 0.893549
O O10 0.428758 0.495118 0.852546
O O11 0.289004 0.297025 0.860837
O O12 0.262339 0.259864 0.013870
O O13 0.192798 0.494422 0.956365
O O14 0.510830 0.664652 0.464011
O O15 0.400078 0.793572 0.516027
O O16 0.500000 0.000000 0.514996
#
# Coordination Sequence:
#
# PCOD9377609 Si02
#       8
#     8   8   8   8   8   8   4   8
#     4  11  23  48  75 107 157 202 271 320 404 487
#     4  11  23  47  83 109 157 216 278 330 416 490
#     4  11  25  47  70 112 154 200 264 335 397 494
#     4  11  27  44  73 113 160 199 268 332 419 481
#     4  11  26  52  79 117 162 213 276 343 415 496
#     4  11  24  45  76 115 148 212 257 339 402 498
#     4  12  30  46  80 118 162 212 268 346 418 482
#     4  12  25  47  75 111 152 215 260 342 405 490
#
# _framework density 24.310175999999998
#
# number of rings (size 3 to 8) (size 9 to 14) (size 15 to 20)
#    0.000    0.800    2.667    4.000    3.733    4.267 
#    2.400    0.000    0.000    0.000    0.000    0.000 
#    0.000    0.000    0.000    0.000    0.000    0.000 
#
# Total GULP energy -167348.841664 kJ/mol
# GULP energy per Si atom -5578.294722 kJ/mol
# Density = 2.425485 g / cm^3
# Si number density = 24.310176 Si / 1000 Ang^3
#
#
#
# Elastic Constant Matrix: (Units=GPa)
#
#
# Indices 1 2 3 4 5 6 
#
# 1 171.3655 46.9562 30.7645 0.0000 0.0000 0.0000
# 2 46.9562 67.3497 42.9471 0.0000 0.0000 0.0000
# 3 30.7645 42.9471 120.9848 0.0000 0.0000 0.0000
# 4 0.0000 0.0000 0.0000 18.6067 0.0000 0.0000
# 5 0.0000 0.0000 0.0000 0.0000 23.8851 0.0000
# 6 0.0000 0.0000 0.0000 0.0000 0.0000 33.6346
#
#
#
# Elastic Compliance Matrix: (Units=1/GPa)
#
#
# Indices 1 2 3 4 5 6 
#
# 1 0.007214 -0.004989 -0.000063 0.000000 0.000000 0.000000
# 2 -0.004989 0.022643 -0.006769 0.000000 0.000000 0.000000
# 3 -0.000063 -0.006769 0.010684 0.000000 0.000000 0.000000
# 4 0.000000 0.000000 0.000000 0.053744 0.000000 0.000000
# 5 0.000000 0.000000 0.000000 0.000000 0.041867 0.000000
# 6 0.000000 0.000000 0.000000 0.000000 0.000000 0.029731
#
#
# Mechanical properties :
#
#
# Convention : Reuss Voigt Hill
#
# Bulk Modulus (GPa) = 59.17835 66.78173 62.98004
# Shear Modulus (GPa) = 25.62007 31.16076 28.39042
#
# Velocity S-wave (km/s) = 3.24988 3.58411 3.42108
# Velocity P-wave (km/s) = 6.20308 6.68267 6.44733
#
# Compressibility (1/GPa) = 0.01689807
#
# Stress axis : x y z
#
# Youngs Moduli (GPa) = 138.62040 44.16422 93.59373
#
# Poissons Ratio (x) = 0.22034 0.00593
# Poissons Ratio (y) = 0.69160 0.63354
# Poissons Ratio (z) = 0.00878 0.29895
#
# Static dielectric constant tensor:
#      x y z
#    x 1.904460 0.000000 0.000000 
#    y 0.000000 2.225910 0.000000 
#    z 0.000000 0.000000 2.037740 
# 
# From -- ./inp_files/8362.got.cif
#   From: 2010.05.17/outbox.cif.g08.bks.cpg/sg45_5_cif.got.tgz:8362.got - 2010.06.03 19:51:22.
