data_PCOD9377763
_publ_section_title
;
Structure prediction by ZEFSAII (Michael W. Deem and Ramdas Pophale) SiO2 
 PCOD9377763
Probable space group: I M A 2
;
_chemical_formula_sum "Si O2"
_cell_formula_units_Z 48
_cell_length_a 8.508590
_cell_length_b 7.646948
_cell_length_c 33.749790
_cell_angle_alpha 90.000000
_cell_angle_beta 90.000000
_cell_angle_gamma 90.000000
_cell_volume 2195.921490
_symmetry_space_group_name_H-M "I M A 2"
_symmetry_group_IT_number 46
_symmetry_cell_setting 'orthorhombic'
loop_
_space_group_symop_operation_xyz
x,y,z
-x,-y,z
1/2-x,y,z
1/2+x,-y,z
1/2+x,1/2+y,1/2+z
1/2-x,1/2-y,1/2+z
-x,1/2+y,1/2+z
x,1/2-y,1/2+z
loop_
_atom_site_type_symbol
_atom_site_label
_atom_site_fract_x
_atom_site_fract_y
_atom_site_fract_z
Si Si1 0.437097 0.701366 0.090130
Si Si2 0.561453 0.695860 0.008780
Si Si3 0.562987 0.200993 0.754374
Si Si4 0.437161 0.298987 0.172263
Si Si5 0.939366 0.695592 0.421578
Si Si6 0.560879 0.798383 0.836454
O O1 0.500000 0.500000 0.090793
O O2 0.250000 0.697407 0.090172
O O3 0.496767 0.784094 0.048864
O O4 0.498927 0.780726 0.131310
O O5 0.500000 0.500000 0.011976
O O6 0.750000 0.705039 0.009807
O O7 0.503965 0.748242 0.964983
O O8 0.750000 0.197635 0.752725
O O9 0.496310 0.280370 0.713700
O O10 0.507230 0.281141 0.796091
O O11 0.500000 0.000000 0.755072
O O12 0.500000 0.500000 0.172748
O O13 0.250000 0.301992 0.171480
O O14 0.750000 0.702805 0.422655
O O15 0.987082 0.780773 0.379362
O O16 0.000000 0.500000 0.418309
O O17 0.750000 0.800310 0.833958
O O18 0.500000 0.000000 0.836958
#
# Coordination Sequence:
#
# PCOD9377763 Si02
#       6
#     8   8   8   8   8   8
#     4  10  17  26  39  57  80 110 143 179 219 264
#     4  10  19  32  47  67  91 120 153 189 227 270
#     4  10  16  22  32  50  75 105 138 173 209 256
#     4  10  16  23  34  50  74 106 139 174 212 258
#     4   9  19  32  48  67  91 119 153 190 228 269
#     4   9  15  25  38  55  78 108 140 175 215 259
#
# _framework density 21.858705
#
# number of rings (size 3 to 8) (size 9 to 14) (size 15 to 20)
#    0.000    2.333    0.000    9.500    0.000    2.000 
#    0.000    0.000    0.000    0.000    0.000    0.000 
#    0.000    1.333    0.000    8.333    0.000   11.000 
#
# Total GULP energy -133758.298503 kJ/mol
# GULP energy per Si atom -5573.262438 kJ/mol
# Density = 2.180895 g / cm^3
# Si number density = 21.858705 Si / 1000 Ang^3
#
#
#
# Elastic Constant Matrix: (Units=GPa)
#
#
# Indices 1 2 3 4 5 6 
#
# 1 141.7661 0.2073 78.9073 0.0000 0.0000 0.0000
# 2 0.2073 32.8541 21.9555 0.0000 0.0000 0.0000
# 3 78.9073 21.9555 314.9127 0.0000 0.0000 0.0000
# 4 0.0000 0.0000 0.0000 8.6843 0.0000 0.0000
# 5 0.0000 0.0000 0.0000 0.0000 30.6429 0.0000
# 6 0.0000 0.0000 0.0000 0.0000 0.0000 -0.3852
#
#
#
# Elastic Compliance Matrix: (Units=1/GPa)
#
#
# Indices 1 2 3 4 5 6 
#
# 1 0.008258 0.001396 -0.002166 0.000000 0.000000 0.000000
# 2 0.001396 0.032161 -0.002592 0.000000 0.000000 0.000000
# 3 -0.002166 -0.002592 0.003899 0.000000 0.000000 0.000000
# 4 0.000000 0.000000 0.000000 0.115150 0.000000 0.000000
# 5 0.000000 0.000000 0.000000 0.000000 0.032634 0.000000
# 6 0.000000 0.000000 0.000000 0.000000 0.000000 -2.596227
#
#
# Mechanical properties :
#
#
# Convention : Reuss Voigt Hill
#
# Bulk Modulus (GPa) = 26.60124 76.85258 51.72691
# Shear Modulus (GPa) = -2.09655 33.68592 15.79468
#
# Velocity S-wave (km/s) = -0.98042 3.92991 2.69100
# Velocity P-wave (km/s) = 3.30370 7.47177 5.77676
#
# Compressibility (1/GPa) = 0.03759223
#
# Stress axis : x y z
#
# Youngs Moduli (GPa) = 121.09959 31.09359 256.47402
#
# Poissons Ratio (x) = -0.04340 0.55563
# Poissons Ratio (y) = -0.16901 0.66477
# Poissons Ratio (z) = 0.26235 0.08059
#
# Static dielectric constant tensor:
#      x y z
#    x 1.720070 0.000000 0.000000 
#    y 0.000000 1.905400 0.000000 
#    z 0.000000 0.000000 1.976530 
# 
# From -- ./inp_files/25118.got.cif
#   From: 2010.05.17/outbox.cif.g08.bks.cpg/sg46_13_cif.got.tgz:25118.got - 2010.06.03 19:58:25.
