data_PCOD9377340
_publ_section_title
;
Structure prediction by ZEFSAII (Michael W. Deem and Ramdas Pophale) SiO2 
 PCOD9377340
Probable space group: I B A 2
;
_chemical_formula_sum "Si O2"
_cell_formula_units_Z 60
_cell_length_a 17.736209
_cell_length_b 9.070053
_cell_length_c 16.095255
_cell_angle_alpha 90.000000
_cell_angle_beta 90.000000
_cell_angle_gamma 90.000000
_cell_volume 2589.217206
_symmetry_space_group_name_H-M "I B A 2"
_symmetry_group_IT_number 45
_symmetry_cell_setting 'orthorhombic'
loop_
_space_group_symop_operation_xyz
x,y,z
-x,-y,z
-x,y,1/2+z
x,-y,1/2+z
1/2+x,1/2+y,1/2+z
1/2-x,1/2-y,1/2+z
1/2-x,1/2+y,z
1/2+x,1/2-y,z
loop_
_atom_site_type_symbol
_atom_site_label
_atom_site_fract_x
_atom_site_fract_y
_atom_site_fract_z
Si Si1 0.632854 0.372268 0.509200
Si Si2 0.282172 0.860727 0.315729
Si Si3 0.042419 0.369675 0.703246
Si Si4 0.582640 0.962076 0.017863
Si Si5 0.571689 0.670434 0.772224
Si Si6 0.706129 0.867636 0.427451
Si Si7 0.500000 0.500000 0.910439
Si Si8 0.351646 0.376869 0.206014
O O1 0.611064 0.200525 0.490411
O O2 0.715630 0.400108 0.474523
O O3 0.573166 0.484575 0.468516
O O4 0.634859 0.385707 0.608096
O O5 0.356305 0.764843 0.299836
O O6 0.224256 0.785859 0.381844
O O7 0.235156 0.880461 0.231592
O O8 0.303862 0.015276 0.354112
O O9 0.071588 0.441639 0.617449
O O10 0.111935 0.276448 0.736237
O O11 0.000000 0.500000 0.752424
O O12 0.975934 0.246964 0.698916
O O13 0.500000 0.000000 0.984018
O O14 0.638894 0.092313 0.990482
O O15 0.514427 0.637881 0.848346
O O16 0.605695 0.513798 0.746710
#
# Coordination Sequence:
#
# PCOD9377340 Si02
#       8
#     8   8   8   8   8   8   4   8
#     4  11  26  45  75 110 147 197 263 312 380 465
#     4  12  26  47  72 109 147 197 254 315 384 463
#     4  10  24  44  71 105 143 189 248 309 375 446
#     4  10  24  47  71 108 155 193 249 318 387 451
#     4  12  24  46  74 107 149 199 254 312 384 464
#     4  12  24  50  74 108 156 199 254 312 388 464
#     4  12  22  44  74 108 148 190 260 318 378 458
#     4  11  25  45  73 104 143 199 251 305 380 452
#
# _framework density 23.173027000000001
#
# number of rings (size 3 to 8) (size 9 to 14) (size 15 to 20)
#    0.000    0.800    5.333    0.000    5.600    6.400 
#    4.800    0.000    0.000    0.000    0.000    0.000 
#    0.000    0.000    0.000    0.000    0.000    0.000 
#
# Total GULP energy -167599.638065 kJ/mol
# GULP energy per Si atom -5586.654602 kJ/mol
# Density = 2.312028 g / cm^3
# Si number density = 23.173027 Si / 1000 Ang^3
#
#
#
# Elastic Constant Matrix: (Units=GPa)
#
#
# Indices 1 2 3 4 5 6 
#
# 1 124.7884 13.0043 46.8807 0.0000 0.0000 0.0000
# 2 13.0043 76.0097 23.7691 0.0000 0.0000 0.0000
# 3 46.8807 23.7691 93.2956 0.0000 0.0000 0.0000
# 4 0.0000 0.0000 0.0000 27.2517 0.0000 0.0000
# 5 0.0000 0.0000 0.0000 0.0000 38.7210 0.0000
# 6 0.0000 0.0000 0.0000 0.0000 0.0000 44.0803
#
#
#
# Elastic Compliance Matrix: (Units=1/GPa)
#
#
# Indices 1 2 3 4 5 6 
#
# 1 0.009880 -0.000150 -0.004926 0.000000 0.000000 0.000000
# 2 -0.000150 0.014297 -0.003567 0.000000 0.000000 0.000000
# 3 -0.004926 -0.003567 0.014103 0.000000 0.000000 0.000000
# 4 0.000000 0.000000 0.000000 0.036695 0.000000 0.000000
# 5 0.000000 0.000000 0.000000 0.000000 0.025826 0.000000
# 6 0.000000 0.000000 0.000000 0.000000 0.000000 0.022686
#
#
# Mechanical properties :
#
#
# Convention : Reuss Voigt Hill
#
# Bulk Modulus (GPa) = 47.63445 51.26689 49.45067
# Shear Modulus (GPa) = 33.83593 36.03990 34.93791
#
# Velocity S-wave (km/s) = 3.82533 3.94795 3.88712
# Velocity P-wave (km/s) = 6.33336 6.55387 6.44456
#
# Compressibility (1/GPa) = 0.02099321
#
# Stress axis : x y z
#
# Youngs Moduli (GPa) = 101.21491 69.94293 70.90681
#
# Poissons Ratio (x) = 0.01048 0.34932
# Poissons Ratio (y) = 0.01516 0.25295
# Poissons Ratio (z) = 0.49863 0.24951
#
# Static dielectric constant tensor:
#      x y z
#    x 1.861510 0.000000 0.000000 
#    y 0.000000 1.886820 0.000000 
#    z 0.000000 0.000000 1.902080 
# 
# From -- ./inp_files/8345.got.cif
#   From: 2010.05.17/outbox.cif.g08.bks.cpg/sg45_5_cif.got.tgz:8345.got - 2010.06.03 19:51:22.
