data_PCOD9377195
_publ_section_title
;
Structure prediction by ZEFSAII (Michael W. Deem and Ramdas Pophale) SiO2 
 PCOD9377195
Probable space group: I B A 2
;
_chemical_formula_sum "Si O2"
_cell_formula_units_Z 40
_cell_length_a 8.643017
_cell_length_b 19.809917
_cell_length_c 9.309972
_cell_angle_alpha 90.000000
_cell_angle_beta 90.000000
_cell_angle_gamma 90.000000
_cell_volume 1594.029660
_symmetry_space_group_name_H-M "I B A 2"
_symmetry_group_IT_number 45
_symmetry_cell_setting 'orthorhombic'
loop_
_space_group_symop_operation_xyz
x,y,z
-x,-y,z
-x,y,1/2+z
x,-y,1/2+z
1/2+x,1/2+y,1/2+z
1/2-x,1/2-y,1/2+z
1/2-x,1/2+y,z
1/2+x,1/2-y,z
loop_
_atom_site_type_symbol
_atom_site_label
_atom_site_fract_x
_atom_site_fract_y
_atom_site_fract_z
Si Si1 0.678481 0.348738 0.346900
Si Si2 0.465705 0.237190 0.325271
Si Si3 0.679950 0.503705 0.711602
Si Si4 0.408500 0.839290 0.083874
Si Si5 0.629496 0.952680 0.946154
O O1 0.517019 0.313762 0.309268
O O2 0.800638 0.294014 0.281623
O O3 0.697072 0.422629 0.284968
O O4 0.741065 0.351900 0.511713
O O5 0.577044 0.182270 0.247536
O O6 0.468647 0.226596 0.496826
O O7 0.500000 0.500000 0.674758
O O8 0.784166 0.506654 0.571287
O O9 0.742201 0.446703 0.821325
O O10 0.531349 0.894976 0.027434
O O11 0.500000 0.000000 0.874030
#
# Coordination Sequence:
#
# PCOD9377195 Si02
#       5
#     8   8   8   8   8
#     4  10  24  43  65 101 139 179 234 293 362 427
#     4  10  23  42  69 100 135 181 236 290 359 427
#     4  12  27  46  67 111 145 190 242 315 369 429
#     4  10  23  42  71  99 133 183 238 288 351 439
#     4  12  23  46  75 100 144 192 248 288 366 450
#
# _framework density 25.093637000000001
#
# number of rings (size 3 to 8) (size 9 to 14) (size 15 to 20)
#    1.200    0.000    4.000    1.200    5.600    1.600 
#    7.200    0.000    0.000    0.000    0.000    0.000 
#    0.000    0.000    0.000    0.000    0.000    0.000 
#
# Total GULP energy -111489.973108 kJ/mol
# GULP energy per Si atom -5574.498655 kJ/mol
# Density = 2.503652 g / cm^3
# Si number density = 25.093637 Si / 1000 Ang^3
#
#
#
# Elastic Constant Matrix: (Units=GPa)
#
#
# Indices 1 2 3 4 5 6 
#
# 1 87.3341 41.3125 11.6900 0.0001 -0.0003 0.0000
# 2 41.3125 85.9289 -6.0672 0.0002 -0.0010 -0.0001
# 3 11.6900 -6.0672 65.7415 0.0004 -0.0029 0.0001
# 4 0.0001 0.0002 0.0004 14.6894 -0.0006 0.0000
# 5 -0.0003 -0.0010 -0.0029 -0.0006 14.3382 0.0002
# 6 0.0000 -0.0001 0.0001 0.0000 0.0002 54.9786
#
#
#
# Elastic Compliance Matrix: (Units=1/GPa)
#
#
# Indices 1 2 3 4 5 6 
#
# 1 0.015575 -0.007734 -0.003483 0.000000 -0.000001 0.000000
# 2 -0.007734 0.015554 0.002811 0.000000 0.000002 0.000000
# 3 -0.003483 0.002811 0.016090 0.000000 0.000003 0.000000
# 4 0.000000 0.000000 0.000000 0.068076 0.000003 0.000000
# 5 -0.000001 0.000002 0.000003 0.000003 0.069744 0.000000
# 6 0.000000 0.000000 0.000000 0.000000 0.000000 0.018189
#
#
# Mechanical properties :
#
#
# Convention : Reuss Voigt Hill
#
# Bulk Modulus (GPa) = 32.88818 36.98614 34.93716
# Shear Modulus (GPa) = 21.72245 29.60587 25.66416
#
# Velocity S-wave (km/s) = 2.94539 3.43857 3.20149
# Velocity P-wave (km/s) = 4.97009 5.52596 5.25538
#
# Compressibility (1/GPa) = 0.03040606
#
# Stress axis : x y z
#
# Youngs Moduli (GPa) = 64.20533 64.29083 62.15094
#
# Poissons Ratio (x) = 0.49723 0.21649
# Poissons Ratio (y) = 0.49657 -0.17469
# Poissons Ratio (z) = 0.22364 -0.18070
#
# Static dielectric constant tensor:
#      x y z
#    x 2.014410 0.000000 0.000000 
#    y 0.000000 1.987940 0.000000 
#    z 0.000000 0.000000 1.957910 
# 
# From -- ./inp_files/968.got.cif
#   From: 2010.05.17/outbox.cif.g08.bks.cpg/sg45_1_cif.got.tgz:968.got - 2010.06.03 19:51:22.
