data_PCOD9377285
_publ_section_title
;
Structure prediction by ZEFSAII (Michael W. Deem and Ramdas Pophale) SiO2 
 PCOD9377285
Probable space group: I B A 2
;
_chemical_formula_sum "Si O2"
_cell_formula_units_Z 64
_cell_length_a 28.074781
_cell_length_b 8.835951
_cell_length_c 12.527305
_cell_angle_alpha 90.000000
_cell_angle_beta 90.000000
_cell_angle_gamma 90.000000
_cell_volume 3107.615846
_symmetry_space_group_name_H-M "I B A 2"
_symmetry_group_IT_number 45
_symmetry_cell_setting 'orthorhombic'
loop_
_space_group_symop_operation_xyz
x,y,z
-x,-y,z
-x,y,1/2+z
x,-y,1/2+z
1/2+x,1/2+y,1/2+z
1/2-x,1/2-y,1/2+z
1/2-x,1/2+y,z
1/2+x,1/2-y,z
loop_
_atom_site_type_symbol
_atom_site_label
_atom_site_fract_x
_atom_site_fract_y
_atom_site_fract_z
Si Si1 0.249099 0.969744 0.250000
Si Si2 0.692369 0.216655 0.873905
Si Si3 0.582661 0.176852 0.860063
Si Si4 0.446893 0.073680 0.151386
Si Si5 0.027863 0.845543 0.514360
Si Si6 0.087595 0.248488 0.207846
Si Si7 0.060609 0.663241 0.935561
Si Si8 0.691843 0.281650 0.126927
O O1 0.211564 0.862543 0.310496
O O2 0.287024 0.861723 0.191382
O O3 0.274434 0.077945 0.336439
O O4 0.223721 0.076058 0.162682
O O5 0.638703 0.175816 0.840022
O O6 0.693242 0.247284 0.000858
O O7 0.552401 0.184312 0.751936
O O8 0.573041 0.315122 0.939771
O O9 0.567193 0.013468 0.907561
O O10 0.500000 0.000000 0.134229
O O11 0.415734 0.926980 0.179293
O O12 0.420766 0.163641 0.056516
O O13 0.045768 0.822980 0.635151
O O14 0.992293 0.720525 0.463609
O O15 0.000000 0.000000 0.503474
O O16 0.079923 0.242840 0.335440
O O17 0.138212 0.190394 0.168241
#
# Coordination Sequence:
#
# PCOD9377285 Si02
#       8
#     8   8   8   8   8   8   8   8
#     4  10  24  41  70 104 128 181 216 279 356 418
#     4  11  22  44  69 101 135 172 225 278 348 412
#     4  11  22  40  67  95 128 170 229 274 321 401
#     4  11  19  38  66  92 122 171 233 280 316 366
#     4  12  25  42  61  92 133 177 213 274 341 383
#     4  11  23  41  65  96 129 173 217 278 324 393
#     4  11  22  41  66  91 127 178 229 269 319 384
#     4  11  22  45  69  95 142 168 223 282 344 409
#
# _framework density 20.594567000000001
#
# number of rings (size 3 to 8) (size 9 to 14) (size 15 to 20)
#    0.000    1.000    3.750    4.125    0.000    2.000 
#    2.250    5.000    0.000    0.000    0.000    0.000 
#    0.000    0.000    0.000    0.000    0.000    0.000 
#
# Total GULP energy -178449.838633 kJ/mol
# GULP energy per Si atom -5576.557457 kJ/mol
# Density = 2.054769 g / cm^3
# Si number density = 20.594567 Si / 1000 Ang^3
#
#
#
# Elastic Constant Matrix: (Units=GPa)
#
#
# Indices 1 2 3 4 5 6 
#
# 1 98.6935 44.4783 22.1049 0.0000 0.0000 0.0000
# 2 44.4783 80.5765 31.0974 0.0000 0.0000 0.0000
# 3 22.1049 31.0974 149.4744 0.0000 0.0000 0.0000
# 4 0.0000 0.0000 0.0000 15.6438 0.0000 0.0000
# 5 0.0000 0.0000 0.0000 0.0000 21.4734 0.0000
# 6 0.0000 0.0000 0.0000 0.0000 0.0000 21.3774
#
#
#
# Elastic Compliance Matrix: (Units=1/GPa)
#
#
# Indices 1 2 3 4 5 6 
#
# 1 0.013520 -0.007276 -0.000486 0.000000 0.000000 0.000000
# 2 -0.007276 0.017409 -0.002546 0.000000 0.000000 0.000000
# 3 -0.000486 -0.002546 0.007292 0.000000 0.000000 0.000000
# 4 0.000000 0.000000 0.000000 0.063923 0.000000 0.000000
# 5 0.000000 0.000000 0.000000 0.000000 0.046569 0.000000
# 6 0.000000 0.000000 0.000000 0.000000 0.000000 0.046778
#
#
# Mechanical properties :
#
#
# Convention : Reuss Voigt Hill
#
# Bulk Modulus (GPa) = 56.79781 58.23396 57.51589
# Shear Modulus (GPa) = 22.52502 27.10316 24.81409
#
# Velocity S-wave (km/s) = 3.31076 3.63165 3.47491
# Velocity P-wave (km/s) = 6.50028 6.77665 6.63991
#
# Compressibility (1/GPa) = 0.01760631
#
# Stress axis : x y z
#
# Youngs Moduli (GPa) = 73.96392 57.44049 137.14373
#
# Poissons Ratio (x) = 0.41792 0.06662
# Poissons Ratio (y) = 0.53814 0.34916
# Poissons Ratio (z) = 0.03593 0.14624
#
# Static dielectric constant tensor:
#      x y z
#    x 1.897550 0.000000 0.000000 
#    y 0.000000 1.728070 0.000000 
#    z 0.000000 0.000000 1.815620 
# 
# From -- ./inp_files/4982.got.cif
#   From: 2010.05.17/outbox.cif.g08.bks.cpg/sg45_3_cif.got.tgz:4982.got - 2010.06.03 19:51:22.
