data_PCOD9377371
_publ_section_title
;
Structure prediction by ZEFSAII (Michael W. Deem and Ramdas Pophale) SiO2 
 PCOD9377371
Probable space group: I B A 2
;
_chemical_formula_sum "Si O2"
_cell_formula_units_Z 56
_cell_length_a 12.366830
_cell_length_b 14.476425
_cell_length_c 13.969129
_cell_angle_alpha 90.000000
_cell_angle_beta 90.000000
_cell_angle_gamma 90.000000
_cell_volume 2500.858060
_symmetry_space_group_name_H-M "I B A 2"
_symmetry_group_IT_number 45
_symmetry_cell_setting 'orthorhombic'
loop_
_space_group_symop_operation_xyz
x,y,z
-x,-y,z
-x,y,1/2+z
x,-y,1/2+z
1/2+x,1/2+y,1/2+z
1/2-x,1/2-y,1/2+z
1/2-x,1/2+y,z
1/2+x,1/2-y,z
loop_
_atom_site_type_symbol
_atom_site_label
_atom_site_fract_x
_atom_site_fract_y
_atom_site_fract_z
Si Si1 0.082001 0.573906 0.403830
Si Si2 0.452174 0.400372 0.705426
Si Si3 0.431592 0.736619 0.833946
Si Si4 0.758355 0.700631 0.710973
Si Si5 0.985304 0.898358 0.495157
Si Si6 0.374529 0.975802 0.697678
Si Si7 0.741033 0.872209 0.572575
O O1 0.022936 0.661207 0.353740
O O2 0.138257 0.523416 0.313503
O O3 0.160265 0.615921 0.483217
O O4 0.000000 0.500000 0.447104
O O5 0.500000 0.500000 0.732033
O O6 0.528396 0.318330 0.741136
O O7 0.336935 0.367955 0.742735
O O8 0.444315 0.399463 0.591393
O O9 0.306732 0.752975 0.806687
O O10 0.467910 0.675304 0.922268
O O11 0.847676 0.629843 0.668946
O O12 0.728146 0.777839 0.633338
O O13 0.862733 0.881423 0.531365
O O14 0.000000 0.000000 0.451495
O O15 0.500000 0.000000 0.678879
O O16 0.293377 0.045063 0.644499
#
# Coordination Sequence:
#
# PCOD9377371 Si02
#       7
#     8   8   8   8   8   8   8
#     4  10  25  46  69 111 151 198 259 309 384 445
#     4  11  24  48  76 106 151 191 250 310 374 452
#     4  11  25  47  72 108 150 194 242 314 372 458
#     4  11  26  43  76 109 144 201 246 301 390 443
#     4  11  25  45  71 109 145 198 255 312 373 449
#     4  10  24  46  72 105 154 199 250 317 376 451
#     4  12  25  45  76 110 147 202 252 318 380 449
#
# _framework density 22.392313999999999
#
# number of rings (size 3 to 8) (size 9 to 14) (size 15 to 20)
#    0.000    1.143    1.429    3.429   10.000    3.429 
#    0.000    1.429    0.000    0.000    0.000    0.000 
#    0.000    0.000    0.000    0.000    0.000    0.000 
#
# Total GULP energy -156388.754295 kJ/mol
# GULP energy per Si atom -5585.312653 kJ/mol
# Density = 2.234135 g / cm^3
# Si number density = 22.392314 Si / 1000 Ang^3
#
#
#
# Elastic Constant Matrix: (Units=GPa)
#
#
# Indices 1 2 3 4 5 6 
#
# 1 114.1798 62.6276 33.5204 0.0000 0.0000 0.0000
# 2 62.6276 163.2523 59.8907 0.0000 0.0000 0.0000
# 3 33.5204 59.8907 114.2549 0.0000 0.0000 0.0000
# 4 0.0000 0.0000 0.0000 60.9166 0.0000 0.0000
# 5 0.0000 0.0000 0.0000 0.0000 30.8317 0.0000
# 6 0.0000 0.0000 0.0000 0.0000 0.0000 45.7910
#
#
#
# Elastic Compliance Matrix: (Units=1/GPa)
#
#
# Indices 1 2 3 4 5 6 
#
# 1 0.011242 -0.003842 -0.001285 0.000000 0.000000 0.000000
# 2 -0.003842 0.008897 -0.003536 0.000000 0.000000 0.000000
# 3 -0.001285 -0.003536 0.010983 0.000000 0.000000 0.000000
# 4 0.000000 0.000000 0.000000 0.016416 0.000000 0.000000
# 5 0.000000 0.000000 0.000000 0.000000 0.032434 0.000000
# 6 0.000000 0.000000 0.000000 0.000000 0.000000 0.021838
#
#
# Mechanical properties :
#
#
# Convention : Reuss Voigt Hill
#
# Bulk Modulus (GPa) = 72.48098 78.19603 75.33851
# Shear Modulus (GPa) = 40.40916 43.21776 41.81346
#
# Velocity S-wave (km/s) = 4.25267 4.39797 4.32593
# Velocity P-wave (km/s) = 7.52014 7.79656 7.65960
#
# Compressibility (1/GPa) = 0.01379672
#
# Stress axis : x y z
#
# Youngs Moduli (GPa) = 88.94946 112.40295 91.05009
#
# Poissons Ratio (x) = 0.43180 0.11696
# Poissons Ratio (y) = 0.34170 0.32199
# Poissons Ratio (z) = 0.11427 0.39750
#
# Static dielectric constant tensor:
#      x y z
#    x 1.916780 0.000000 0.000000 
#    y 0.000000 1.660670 0.000000 
#    z 0.000000 0.000000 1.841330 
# 
# From -- ./inp_files/6153.got.cif
#   From: 2010.05.17/outbox.cif.g08.bks.cpg/sg45_4_cif.got.tgz:6153.got - 2010.06.03 19:51:22.
