data_PCOD9377923
_publ_section_title
;
Structure prediction by ZEFSAII (Michael W. Deem and Ramdas Pophale) SiO2 
 PCOD9377923
Probable space group: I M A 2
;
_chemical_formula_sum "Si O2"
_cell_formula_units_Z 56
_cell_length_a 20.144314
_cell_length_b 19.284745
_cell_length_c 7.341216
_cell_angle_alpha 90.000000
_cell_angle_beta 90.000000
_cell_angle_gamma 90.000000
_cell_volume 2851.900606
_symmetry_space_group_name_H-M "I M A 2"
_symmetry_group_IT_number 46
_symmetry_cell_setting 'orthorhombic'
loop_
_space_group_symop_operation_xyz
x,y,z
-x,-y,z
1/2-x,y,z
1/2+x,-y,z
1/2+x,1/2+y,1/2+z
1/2-x,1/2-y,1/2+z
-x,1/2+y,1/2+z
x,1/2-y,1/2+z
loop_
_atom_site_type_symbol
_atom_site_label
_atom_site_fract_x
_atom_site_fract_y
_atom_site_fract_z
Si Si1 0.493900 0.840801 0.861230
Si Si2 0.031285 0.814785 0.437384
Si Si3 0.677776 0.017216 0.237713
Si Si4 0.446833 0.438185 0.829009
Si Si5 0.069896 0.457994 0.247315
Si Si6 0.859696 0.088805 0.887730
Si Si7 0.824670 0.143072 0.501445
O O1 0.478635 0.840485 0.644039
O O2 0.497526 0.761911 0.920659
O O3 0.428938 0.875842 0.945777
O O4 0.510579 0.867456 0.310144
O O5 0.111687 0.815881 0.419893
O O6 0.750000 0.983265 0.249260
O O7 0.667764 0.066485 0.413306
O O8 0.617673 0.963133 0.219296
O O9 0.678328 0.071860 0.071247
O O10 0.500000 0.500000 0.808480
O O11 0.442850 0.390940 0.373014
O O12 0.420938 0.437356 0.037909
O O13 0.124116 0.512696 0.307901
O O14 0.000000 0.500000 0.255198
O O15 0.830699 0.133449 0.720634
O O16 0.750000 0.168597 0.457923
#
# Coordination Sequence:
#
# PCOD9377923 Si02
#       7
#     8   8   8   8   8   8   8
#     4   9  20  32  52  79 111 143 185 226 270 329
#     4  10  20  34  53  77 111 147 185 225 272 326
#     4  11  22  33  55  84 104 138 185 222 271 331
#     4  10  17  34  55  77 105 142 179 225 278 320
#     4   8  15  32  52  77 106 137 173 225 278 321
#     4  10  19  35  55  78 110 140 183 229 274 327
#     4  10  20  37  53  73 113 148 177 225 270 315
#
# _framework density 19.636028
#
# number of rings (size 3 to 8) (size 9 to 14) (size 15 to 20)
#    0.000    2.286    2.857    2.143    2.000    2.857 
#    0.000    3.571    0.000    0.000    0.000   10.000 
#    0.000    0.000    0.000    0.000    0.000    0.000 
#
# Total GULP energy -156059.348040 kJ/mol
# GULP energy per Si atom -5573.548144 kJ/mol
# Density = 1.959134 g / cm^3
# Si number density = 19.636028 Si / 1000 Ang^3
#
#
#
# Elastic Constant Matrix: (Units=GPa)
#
#
# Indices 1 2 3 4 5 6 
#
# 1 44.2544 14.9924 12.4689 0.0000 0.0000 0.0000
# 2 14.9924 90.8601 -2.0049 0.0000 0.0000 0.0000
# 3 12.4689 -2.0049 54.4976 0.0000 0.0000 0.0000
# 4 0.0000 0.0000 0.0000 20.3782 0.0000 0.0000
# 5 0.0000 0.0000 0.0000 0.0000 8.4326 0.0000
# 6 0.0000 0.0000 0.0000 0.0000 0.0000 16.6602
#
#
#
# Elastic Compliance Matrix: (Units=1/GPa)
#
#
# Indices 1 2 3 4 5 6 
#
# 1 0.025792 -0.004390 -0.006063 0.000000 0.000000 0.000000
# 2 -0.004390 0.011762 0.001437 0.000000 0.000000 0.000000
# 3 -0.006063 0.001437 0.019789 0.000000 0.000000 0.000000
# 4 0.000000 0.000000 0.000000 0.049072 0.000000 0.000000
# 5 0.000000 0.000000 0.000000 0.000000 0.118588 0.000000
# 6 0.000000 0.000000 0.000000 0.000000 0.000000 0.060023
#
#
# Mechanical properties :
#
#
# Convention : Reuss Voigt Hill
#
# Bulk Modulus (GPa) = 25.43691 26.72498 26.08094
# Shear Modulus (GPa) = 15.81474 20.03792 17.92633
#
# Velocity S-wave (km/s) = 2.84102 3.19794 3.02475
# Velocity P-wave (km/s) = 4.87280 5.22259 5.05073
#
# Compressibility (1/GPa) = 0.03931296
#
# Stress axis : x y z
#
# Youngs Moduli (GPa) = 38.77195 85.02002 50.53210
#
# Poissons Ratio (x) = 0.37320 0.30635
# Poissons Ratio (y) = 0.17019 -0.07262
# Poissons Ratio (z) = 0.23506 -0.12218
#
# Static dielectric constant tensor:
#      x y z
#    x 1.736170 0.000000 0.000000 
#    y 0.000000 1.704950 0.000000 
#    z 0.000000 0.000000 1.769840 
# 
# From -- ./inp_files/2420.got.cif
#   From: 2010.05.17/outbox.cif.g08.bks.cpg/sg46_2_cif.got.tgz:2420.got - 2010.06.03 19:58:25.
