data_PCOD9377187
_publ_section_title
;
Structure prediction by ZEFSAII (Michael W. Deem and Ramdas Pophale) SiO2 
 PCOD9377187
Probable space group: I B A 2
;
_chemical_formula_sum "Si O2"
_cell_formula_units_Z 64
_cell_length_a 25.811019
_cell_length_b 8.613579
_cell_length_c 11.118259
_cell_angle_alpha 90.000000
_cell_angle_beta 90.000000
_cell_angle_gamma 90.000000
_cell_volume 2471.869725
_symmetry_space_group_name_H-M "I B A 2"
_symmetry_group_IT_number 45
_symmetry_cell_setting 'orthorhombic'
loop_
_space_group_symop_operation_xyz
x,y,z
-x,-y,z
-x,y,1/2+z
x,-y,1/2+z
1/2+x,1/2+y,1/2+z
1/2-x,1/2-y,1/2+z
1/2-x,1/2+y,z
1/2+x,1/2-y,z
loop_
_atom_site_type_symbol
_atom_site_label
_atom_site_fract_x
_atom_site_fract_y
_atom_site_fract_z
Si Si1 0.655759 0.094906 0.020470
Si Si2 0.974846 0.173612 0.034034
Si Si3 0.719393 0.676891 0.661146
Si Si4 0.363666 0.782647 0.622841
Si Si5 0.779635 0.459749 0.820782
Si Si6 0.000109 0.688638 0.282104
Si Si7 0.391493 0.670332 0.864333
Si Si8 0.180016 0.046441 0.479609
O O1 0.706873 0.188559 0.063302
O O2 0.631744 0.967412 0.108592
O O3 0.672030 0.010435 0.898795
O O4 0.615514 0.225159 0.982403
O O5 0.916097 0.194062 0.082405
O O6 0.008148 0.256315 0.143035
O O7 0.000000 0.000000 0.021759
O O8 0.970107 0.256094 0.902636
O O9 0.767237 0.571708 0.706166
O O10 0.681375 0.547520 0.606674
O O11 0.711298 0.785042 0.777024
O O12 0.354074 0.727207 0.757581
O O13 0.320822 0.719966 0.529722
O O14 0.728821 0.481988 0.904632
O O15 0.053008 0.782083 0.315773
O O16 0.000000 0.500000 0.282467
O O17 0.370309 0.502913 0.902247
#
# Coordination Sequence:
#
# PCOD9377187 Si02
#       8
#     8   8   8   8   8   8   8   8
#     4  11  24  41  64  93 129 173 221 278 335 400
#     4  11  24  44  72 105 145 187 233 293 365 445
#     4  11  24  39  59  86 120 162 212 269 326 386
#     4  11  24  44  68  98 134 173 223 283 347 415
#     4  12  24  40  61  89 123 168 220 270 329 395
#     4  11  23  43  71 103 139 185 236 292 357 436
#     4  10  23  42  63  95 135 171 220 278 339 411
#     4  11  24  41  64  91 126 171 220 275 336 404
#
# _framework density 25.891332999999999
#
# number of rings (size 3 to 8) (size 9 to 14) (size 15 to 20)
#    0.000    1.000    0.000    6.750    0.000    7.000 
#    0.000    6.250    0.000    0.000    0.000    0.000 
#    0.000    0.000    0.000    0.000    0.000    0.000 
#
# Total GULP energy -178339.172783 kJ/mol
# GULP energy per Si atom -5573.099149 kJ/mol
# Density = 2.583240 g / cm^3
# Si number density = 25.891333 Si / 1000 Ang^3
#
#
#
# Elastic Constant Matrix: (Units=GPa)
#
#
# Indices 1 2 3 4 5 6 
#
# 1 47.4277 -21.1043 4.3111 0.0000 0.0000 0.0000
# 2 -21.1043 115.7498 51.2359 0.0000 0.0000 0.0000
# 3 4.3111 51.2359 123.0751 0.0000 0.0000 0.0000
# 4 0.0000 0.0000 0.0000 53.0493 0.0000 0.0000
# 5 0.0000 0.0000 0.0000 0.0000 45.8187 0.0000
# 6 0.0000 0.0000 0.0000 0.0000 0.0000 16.9818
#
#
#
# Elastic Compliance Matrix: (Units=1/GPa)
#
#
# Indices 1 2 3 4 5 6 
#
# 1 0.023967 0.005813 -0.003259 0.000000 0.000000 0.000000
# 2 0.005813 0.012001 -0.005199 0.000000 0.000000 0.000000
# 3 -0.003259 -0.005199 0.010404 0.000000 0.000000 0.000000
# 4 0.000000 0.000000 0.000000 0.018850 0.000000 0.000000
# 5 0.000000 0.000000 0.000000 0.000000 0.021825 0.000000
# 6 0.000000 0.000000 0.000000 0.000000 0.000000 0.058887
#
#
# Mechanical properties :
#
#
# Convention : Reuss Voigt Hill
#
# Bulk Modulus (GPa) = 24.34296 39.45978 31.90137
# Shear Modulus (GPa) = 30.31784 39.95729 35.13757
#
# Velocity S-wave (km/s) = 3.42565 3.93271 3.68790
# Velocity P-wave (km/s) = 5.00691 5.99126 5.52107
#
# Compressibility (1/GPa) = 0.04107963
#
# Stress axis : x y z
#
# Youngs Moduli (GPa) = 41.72320 83.32904 96.11870
#
# Poissons Ratio (x) = -0.48436 0.31328
# Poissons Ratio (y) = -0.24252 0.49976
# Poissons Ratio (z) = 0.13599 0.43326
#
# Static dielectric constant tensor:
#      x y z
#    x 2.179480 0.000000 0.000000 
#    y 0.000000 2.042830 0.000000 
#    z 0.000000 0.000000 2.138370 
# 
# From -- ./inp_files/4986.got.cif
#   From: 2010.05.17/outbox.cif.g08.bks.cpg/sg45_3_cif.got.tgz:4986.got - 2010.06.03 19:51:22.
