data_PCOD9377850
_publ_section_title
;
Structure prediction by ZEFSAII (Michael W. Deem and Ramdas Pophale) SiO2 
 PCOD9377850
Probable space group: I M A 2
;
_chemical_formula_sum "Si O2"
_cell_formula_units_Z 64
_cell_length_a 7.710652
_cell_length_b 31.044378
_cell_length_c 15.230898
_cell_angle_alpha 90.000000
_cell_angle_beta 90.000000
_cell_angle_gamma 90.000000
_cell_volume 3645.856537
_symmetry_space_group_name_H-M "I M A 2"
_symmetry_group_IT_number 46
_symmetry_cell_setting 'orthorhombic'
loop_
_space_group_symop_operation_xyz
x,y,z
-x,-y,z
1/2-x,y,z
1/2+x,-y,z
1/2+x,1/2+y,1/2+z
1/2-x,1/2-y,1/2+z
-x,1/2+y,1/2+z
x,1/2-y,1/2+z
loop_
_atom_site_type_symbol
_atom_site_label
_atom_site_fract_x
_atom_site_fract_y
_atom_site_fract_z
Si Si1 0.955154 0.863802 0.231610
Si Si2 0.456681 0.223040 0.562011
Si Si3 0.541073 0.049226 0.959067
Si Si4 0.044198 0.951033 0.159177
Si Si5 0.547120 0.788087 0.755978
Si Si6 0.536499 0.794275 0.369606
Si Si7 0.543221 0.825521 0.049273
Si Si8 0.052257 0.632408 0.369654
O O1 0.750000 0.855267 0.229016
O O2 0.019767 0.835598 0.312850
O O3 0.025281 0.845648 0.139433
O O4 0.981100 0.914813 0.226281
O O5 0.250000 0.213060 0.563086
O O6 0.528526 0.210400 0.657606
O O7 0.525373 0.204503 0.470154
O O8 0.475596 0.274430 0.554047
O O9 0.750000 0.053840 0.961724
O O10 0.475609 0.085265 0.891277
O O11 0.500000 0.000000 0.935993
O O12 0.475028 0.056656 0.059290
O O13 0.250000 0.947335 0.154500
O O14 0.000000 0.000000 0.182944
O O15 0.750000 0.777131 0.744957
O O16 0.479343 0.749312 0.818157
O O17 0.534208 0.833811 0.804155
O O18 0.750000 0.792896 0.372968
O O19 0.750000 0.834576 0.040121
O O20 0.452512 0.844928 0.964802
O O21 0.250000 0.627334 0.339546
#
# Coordination Sequence:
#
# PCOD9377850 Si02
#       8
#     8   8   8   8   8   8   8   8
#     4  10  18  28  46  72  96 126 162 196 235 278
#     4   9  16  28  47  70  94 122 162 206 231 257
#     4   9  19  32  46  65  91 121 152 187 231 279
#     4  10  19  32  47  67  95 126 156 193 235 285
#     4  10  18  30  49  70  91 124 166 198 229 274
#     4   9  16  27  46  70  96 123 159 200 232 268
#     4  10  17  27  47  69  92 126 164 196 225 268
#     4  11  21  32  44  67  99 128 155 192 239 281
#
# _framework density 17.554174
#
# number of rings (size 3 to 8) (size 9 to 14) (size 15 to 20)
#    0.000    2.250    3.750    0.750    0.000    1.500 
#    0.000    1.250    0.000    0.000    0.000    0.875 
#    0.000    2.000    0.000    0.000    0.000    0.000 
#
# Total GULP energy -178395.750986 kJ/mol
# GULP energy per Si atom -5574.867218 kJ/mol
# Density = 1.751422 g / cm^3
# Si number density = 17.554174 Si / 1000 Ang^3
#
#
#
# Elastic Constant Matrix: (Units=GPa)
#
#
# Indices 1 2 3 4 5 6 
#
# 1 24.5483 -2.2425 0.8828 0.0000 0.0000 0.0000
# 2 -2.2425 88.2202 58.1184 0.0000 0.0000 0.0000
# 3 0.8828 58.1184 123.6131 0.0001 0.0001 0.0000
# 4 0.0000 0.0000 0.0001 18.1003 0.0000 0.0000
# 5 0.0000 0.0000 0.0001 0.0000 -2.4430 0.0000
# 6 0.0000 0.0000 0.0000 0.0000 0.0000 11.9464
#
#
#
# Elastic Compliance Matrix: (Units=1/GPa)
#
#
# Indices 1 2 3 4 5 6 
#
# 1 0.040940 0.001787 -0.001132 0.000000 0.000000 0.000000
# 2 0.001787 0.016500 -0.007770 0.000000 0.000000 0.000000
# 3 -0.001132 -0.007770 0.011751 0.000000 0.000001 0.000000
# 4 0.000000 0.000000 0.000000 0.055248 -0.000001 0.000000
# 5 0.000000 0.000000 0.000001 -0.000001 -0.409340 0.000001
# 6 0.000000 0.000000 0.000000 0.000000 0.000001 0.083707
#
#
# Mechanical properties :
#
#
# Convention : Reuss Voigt Hill
#
# Bulk Modulus (GPa) = 18.19544 38.87765 28.53654
# Shear Modulus (GPa) = -29.64854 17.49561 -6.07646
#
# Velocity S-wave (km/s) = -4.11417 3.16042 -1.86254
# Velocity P-wave (km/s) = 3.49009 5.95928 3.41557
#
# Compressibility (1/GPa) = 0.05495883
#
# Stress axis : x y z
#
# Youngs Moduli (GPa) = 24.42598 60.60725 85.09802
#
# Poissons Ratio (x) = -0.10829 0.09637
# Poissons Ratio (y) = -0.04364 0.66124
# Poissons Ratio (z) = 0.02766 0.47094
#
# Static dielectric constant tensor:
#      x y z
#    x 1.641720 0.000000 0.000000 
#    y 0.000000 1.631560 0.000000 
#    z 0.000000 0.000000 1.606590 
# 
# From -- ./inp_files/14723.got.cif
#   From: 2010.05.17/outbox.cif.g08.bks.cpg/sg46_8_cif.got.tgz:14723.got - 2010.06.03 19:58:25.
