data_PCOD9377833
_publ_section_title
;
Structure prediction by ZEFSAII (Michael W. Deem and Ramdas Pophale) SiO2 
 PCOD9377833
Probable space group: I M A 2
;
_chemical_formula_sum "Si O2"
_cell_formula_units_Z 48
_cell_length_a 8.771343
_cell_length_b 32.224701
_cell_length_c 9.136009
_cell_angle_alpha 90.000000
_cell_angle_beta 90.000000
_cell_angle_gamma 90.000000
_cell_volume 2582.328625
_symmetry_space_group_name_H-M "I M A 2"
_symmetry_group_IT_number 46
_symmetry_cell_setting 'orthorhombic'
loop_
_space_group_symop_operation_xyz
x,y,z
-x,-y,z
1/2-x,y,z
1/2+x,-y,z
1/2+x,1/2+y,1/2+z
1/2-x,1/2-y,1/2+z
-x,1/2+y,1/2+z
x,1/2-y,1/2+z
loop_
_atom_site_type_symbol
_atom_site_label
_atom_site_fract_x
_atom_site_fract_y
_atom_site_fract_z
Si Si1 0.567903 0.127630 0.404930
Si Si2 0.931209 0.542039 0.898978
Si Si3 0.069537 0.210801 0.890379
Si Si4 0.567749 0.366213 0.558983
Si Si5 0.932322 0.458523 0.569629
Si Si6 0.432131 0.712899 0.068912
O O1 0.750000 0.120524 0.412934
O O2 0.485586 0.086139 0.461298
O O3 0.532088 0.134906 0.232892
O O4 0.529787 0.168851 0.494249
O O5 0.750000 0.539253 0.896115
O O6 0.000000 0.500000 0.967483
O O7 0.996387 0.542945 0.732680
O O8 0.250000 0.212317 0.867275
O O9 0.983163 0.212369 0.736317
O O10 0.022311 0.168934 0.974402
O O11 0.015323 0.249864 0.985925
O O12 0.750000 0.359076 0.543914
O O13 0.534623 0.413133 0.504391
O O14 0.750000 0.462389 0.582872
O O15 0.000000 0.500000 0.497346
O O16 0.250000 0.718891 0.057549
#
# Coordination Sequence:
#
# PCOD9377833 Si02
#       6
#     8   8   8   8   8   8
#     4   9  19  35  56  81 107 140 184 228 268 318
#     4  10  17  26  45  73 108 144 178 220 267 315
#     4  12  25  39  58  85 114 141 179 231 276 320
#     4   9  18  34  55  80 111 147 185 223 271 330
#     4   9  16  27  46  73 106 141 180 224 266 314
#     4  11  23  41  63  82 108 147 184 220 272 337
#
# _framework density 18.587875
#
# number of rings (size 3 to 8) (size 9 to 14) (size 15 to 20)
#    0.000    2.000    0.000    7.000    0.000    6.000 
#    0.000    0.000    0.000    1.000    0.000    4.667 
#    0.000    0.000    0.000    0.000    0.000    0.000 
#
# Total GULP energy -133950.776868 kJ/mol
# GULP energy per Si atom -5581.282370 kJ/mol
# Density = 1.854557 g / cm^3
# Si number density = 18.587875 Si / 1000 Ang^3
#
#
#
# Elastic Constant Matrix: (Units=GPa)
#
#
# Indices 1 2 3 4 5 6 
#
# 1 56.0173 45.0182 -0.8080 -0.0001 0.0001 0.0000
# 2 45.0182 141.8598 24.1043 -0.0002 0.0001 0.0001
# 3 -0.8080 24.1043 34.5417 -0.0001 0.0002 -0.0002
# 4 -0.0001 -0.0002 -0.0001 17.2204 0.0001 0.0001
# 5 0.0001 0.0001 0.0002 0.0001 17.3435 -0.0002
# 6 0.0000 0.0001 -0.0002 0.0001 -0.0002 37.3157
#
#
#
# Elastic Compliance Matrix: (Units=1/GPa)
#
#
# Indices 1 2 3 4 5 6 
#
# 1 0.025392 -0.009257 0.007054 0.000000 0.000000 0.000000
# 2 -0.009257 0.011372 -0.008152 0.000000 0.000000 0.000000
# 3 0.007054 -0.008152 0.034804 0.000000 0.000000 0.000000
# 4 0.000000 0.000000 0.000000 0.058071 0.000000 0.000000
# 5 0.000000 0.000000 0.000000 0.000000 0.057659 0.000000
# 6 0.000000 0.000000 0.000000 0.000000 0.000000 0.026798
#
#
# Mechanical properties :
#
#
# Convention : Reuss Voigt Hill
#
# Bulk Modulus (GPa) = 19.66248 41.00530 30.33389
# Shear Modulus (GPa) = 19.86018 25.31619 22.58818
#
# Velocity S-wave (km/s) = 3.27226 3.69450 3.48977
# Velocity P-wave (km/s) = 4.98778 6.34879 5.70899
#
# Compressibility (1/GPa) = 0.05085829
#
# Stress axis : x y z
#
# Youngs Moduli (GPa) = 39.38173 87.93566 28.73193
#
# Poissons Ratio (x) = 0.81399 -0.20266
# Poissons Ratio (y) = 0.36454 0.23423
# Poissons Ratio (z) = -0.27778 0.71687
#
# Static dielectric constant tensor:
#      x y z
#    x 1.618370 0.000000 0.000000 
#    y 0.000000 1.683760 0.000000 
#    z 0.000000 0.000000 1.621650 
# 
# From -- ./inp_files/3936.got.cif
#   From: 2010.05.17/outbox.cif.g08.bks.cpg/sg46_2_cif.got.tgz:3936.got - 2010.06.03 19:58:25.
