data_PCOD9377462
_publ_section_title
;
Structure prediction by ZEFSAII (Michael W. Deem and Ramdas Pophale) SiO2 
 PCOD9377462
Probable space group: I B A 2
;
_chemical_formula_sum "Si O2"
_cell_formula_units_Z 40
_cell_length_a 8.139795
_cell_length_b 17.051325
_cell_length_c 12.231561
_cell_angle_alpha 90.000000
_cell_angle_beta 90.000000
_cell_angle_gamma 90.000000
_cell_volume 1697.670824
_symmetry_space_group_name_H-M "I B A 2"
_symmetry_group_IT_number 45
_symmetry_cell_setting 'orthorhombic'
loop_
_space_group_symop_operation_xyz
x,y,z
-x,-y,z
-x,y,1/2+z
x,-y,1/2+z
1/2+x,1/2+y,1/2+z
1/2-x,1/2-y,1/2+z
1/2-x,1/2+y,z
1/2+x,1/2-y,z
loop_
_atom_site_type_symbol
_atom_site_label
_atom_site_fract_x
_atom_site_fract_y
_atom_site_fract_z
Si Si1 0.754848 0.368810 0.139970
Si Si2 0.191512 0.973367 0.035878
Si Si3 0.141182 0.643284 0.367153
Si Si4 0.074769 0.913683 0.255272
Si Si5 0.222370 0.307690 0.421567
O O1 0.779154 0.445364 0.064465
O O2 0.881032 0.372889 0.238624
O O3 0.581834 0.371043 0.203215
O O4 0.744783 0.301189 0.051122
O O5 0.193298 0.925794 0.150574
O O6 0.270243 0.925001 0.937005
O O7 0.000000 0.000000 0.020583
O O8 0.249914 0.721666 0.374419
O O9 0.963262 0.663816 0.411976
O O10 0.159008 0.867148 0.353951
O O11 0.000000 0.000000 0.283187
#
# Coordination Sequence:
#
# PCOD9377462 Si02
#       5
#     8   8   8   8   8
#     4  10  26  47  75 111 148 208 256 318 390 459
#     4   9  24  47  81 105 152 205 260 315 386 461
#     4  12  29  48  77 115 164 199 266 321 399 470
#     4   9  23  47  79 105 151 201 265 309 388 458
#     4  12  29  47  78 115 160 204 259 327 399 469
#
# _framework density 23.561692000000001
#
# number of rings (size 3 to 8) (size 9 to 14) (size 15 to 20)
#    0.000    2.000    0.000    1.200   22.400    2.400 
#    3.600    0.000    0.000    0.000    0.000    0.000 
#    0.000    0.000    0.000    0.000    0.000    0.000 
#
# Total GULP energy -111808.912814 kJ/mol
# GULP energy per Si atom -5590.445641 kJ/mol
# Density = 2.350806 g / cm^3
# Si number density = 23.561692 Si / 1000 Ang^3
#
#
#
# Elastic Constant Matrix: (Units=GPa)
#
#
# Indices 1 2 3 4 5 6 
#
# 1 90.7011 34.9163 31.5684 0.0000 0.0000 0.0000
# 2 34.9163 101.2209 58.1712 0.0000 0.0000 0.0000
# 3 31.5684 58.1712 167.3513 0.0000 0.0000 0.0000
# 4 0.0000 0.0000 0.0000 29.9497 0.0000 0.0000
# 5 0.0000 0.0000 0.0000 0.0000 12.7147 0.0000
# 6 0.0000 0.0000 0.0000 0.0000 0.0000 33.4847
#
#
#
# Elastic Compliance Matrix: (Units=1/GPa)
#
#
# Indices 1 2 3 4 5 6 
#
# 1 0.012875 -0.003806 -0.001106 0.000000 0.000000 0.000000
# 2 -0.003806 0.013471 -0.003964 0.000000 0.000000 0.000000
# 3 -0.001106 -0.003964 0.007562 0.000000 0.000000 0.000000
# 4 0.000000 0.000000 0.000000 0.033389 0.000000 0.000000
# 5 0.000000 0.000000 0.000000 0.000000 0.078649 0.000000
# 6 0.000000 0.000000 0.000000 0.000000 0.000000 0.029864
#
#
# Mechanical properties :
#
#
# Convention : Reuss Voigt Hill
#
# Bulk Modulus (GPa) = 61.89772 67.62057 64.75915
# Shear Modulus (GPa) = 25.13218 30.87096 28.00157
#
# Velocity S-wave (km/s) = 3.26951 3.62362 3.45111
# Velocity P-wave (km/s) = 6.37028 6.80214 6.58975
#
# Compressibility (1/GPa) = 0.01615568
#
# Stress axis : x y z
#
# Youngs Moduli (GPa) = 77.66877 74.23607 132.23855
#
# Poissons Ratio (x) = 0.28253 0.14623
# Poissons Ratio (y) = 0.29559 0.52425
# Poissons Ratio (z) = 0.08589 0.29430
#
# Static dielectric constant tensor:
#      x y z
#    x 1.985580 0.000000 0.000000 
#    y 0.000000 1.916820 0.000000 
#    z 0.000000 0.000000 2.036090 
# 
# From -- ./inp_files/3147.got.cif
#   From: 2010.05.17/outbox.cif.g08.bks.cpg/sg45_2_cif.got.tgz:3147.got - 2010.06.03 19:51:22.
