data_PCOD9377988
_publ_section_title
;
Structure prediction by ZEFSAII (Michael W. Deem and Ramdas Pophale) SiO2 
 PCOD9377988
Probable space group: I M A 2
;
_chemical_formula_sum "Si O2"
_cell_formula_units_Z 64
_cell_length_a 8.709664
_cell_length_b 27.062963
_cell_length_c 18.865254
_cell_angle_alpha 90.000000
_cell_angle_beta 90.000000
_cell_angle_gamma 90.000000
_cell_volume 4446.716090
_symmetry_space_group_name_H-M "I M A 2"
_symmetry_group_IT_number 46
_symmetry_cell_setting 'orthorhombic'
loop_
_space_group_symop_operation_xyz
x,y,z
-x,-y,z
1/2-x,y,z
1/2+x,-y,z
1/2+x,1/2+y,1/2+z
1/2-x,1/2-y,1/2+z
-x,1/2+y,1/2+z
x,1/2-y,1/2+z
loop_
_atom_site_type_symbol
_atom_site_label
_atom_site_fract_x
_atom_site_fract_y
_atom_site_fract_z
Si Si1 0.572111 0.800924 0.982790
Si Si2 0.934128 0.946187 0.773420
Si Si3 0.564459 0.446511 0.116142
Si Si4 0.433739 0.852301 0.527155
Si Si5 0.565461 0.246717 0.611346
Si Si6 0.564448 0.742457 0.267994
Si Si7 0.433456 0.647827 0.351007
Si Si8 0.573584 0.696759 0.897400
O O1 0.750000 0.814839 0.992102
O O2 0.486410 0.838490 0.930581
O O3 0.569255 0.748767 0.940173
O O4 0.492259 0.788816 0.057257
O O5 0.750000 0.947658 0.771548
O O6 0.998723 0.935693 0.694418
O O7 0.993636 0.903110 0.824336
O O8 0.000000 0.000000 0.793549
O O9 0.500000 0.500000 0.095124
O O10 0.750000 0.448087 0.120098
O O11 0.515477 0.403349 0.062550
O O12 0.250000 0.852123 0.527426
O O13 0.482430 0.805902 0.576250
O O14 0.487855 0.841706 0.447441
O O15 0.750000 0.247589 0.615984
O O16 0.492046 0.250318 0.688557
O O17 0.750000 0.739171 0.271459
O O18 0.495385 0.691974 0.300368
O O19 0.514776 0.787349 0.320081
O O20 0.250000 0.646071 0.346400
O O21 0.750000 0.681190 0.891061
#
# Coordination Sequence:
#
# PCOD9377988 Si02
#       8
#     8   8   8   8   8   8   8   8
#     4   9  17  30  44  61  85 113 143 178 215 256
#     4  11  21  33  47  64  86 114 146 182 220 257
#     4  10  19  31  44  62  86 113 145 182 218 255
#     4   9  18  29  42  59  82 110 143 177 212 251
#     4  10  18  28  43  64  87 115 146 179 216 256
#     4  10  19  30  43  63  88 116 147 180 216 258
#     4  11  20  31  46  64  86 115 149 183 217 259
#     4   8  16  28  42  59  81 108 141 175 211 252
#
# _framework density 14.392644000000001
#
# number of rings (size 3 to 8) (size 9 to 14) (size 15 to 20)
#    0.000    2.250    0.000    6.000    0.000    6.000 
#    0.000    0.000    0.000    0.000    0.000    0.000 
#    0.000    1.000    0.000    7.000    0.000    6.125 
#
# Total GULP energy -178399.290261 kJ/mol
# GULP energy per Si atom -5574.977821 kJ/mol
# Density = 1.435989 g / cm^3
# Si number density = 14.392644 Si / 1000 Ang^3
#
#
#
# Elastic Constant Matrix: (Units=GPa)
#
#
# Indices 1 2 3 4 5 6 
#
# 1 82.5002 39.1616 40.7171 0.0000 0.0000 0.0000
# 2 39.1616 90.8573 61.0594 0.0000 0.0000 0.0000
# 3 40.7171 61.0594 115.3562 0.0001 0.0000 0.0000
# 4 0.0000 0.0000 0.0001 26.9227 0.0000 0.0000
# 5 0.0000 0.0000 0.0000 0.0000 26.1379 0.0000
# 6 0.0000 0.0000 0.0000 0.0000 0.0000 21.4764
#
#
#
# Elastic Compliance Matrix: (Units=1/GPa)
#
#
# Indices 1 2 3 4 5 6 
#
# 1 0.015916 -0.004788 -0.003084 0.000000 0.000000 0.000000
# 2 -0.004788 0.018523 -0.008115 0.000000 0.000000 0.000000
# 3 -0.003084 -0.008115 0.014052 0.000000 0.000000 0.000000
# 4 0.000000 0.000000 0.000000 0.037143 0.000000 0.000000
# 5 0.000000 0.000000 0.000000 0.000000 0.038259 0.000000
# 6 0.000000 0.000000 0.000000 0.000000 0.000000 0.046563
#
#
# Mechanical properties :
#
#
# Convention : Reuss Voigt Hill
#
# Bulk Modulus (GPa) = 60.53478 63.39888 61.96683
# Shear Modulus (GPa) = 24.04605 24.75911 24.40258
#
# Velocity S-wave (km/s) = 4.09188 4.15210 4.12210
# Velocity P-wave (km/s) = 8.02966 8.19340 8.11194
#
# Compressibility (1/GPa) = 0.01651943
#
# Stress axis : x y z
#
# Youngs Moduli (GPa) = 62.83094 53.98617 71.16247
#
# Poissons Ratio (x) = 0.25848 0.21943
# Poissons Ratio (y) = 0.30082 0.57746
# Poissons Ratio (z) = 0.19374 0.43808
#
# Static dielectric constant tensor:
#      x y z
#    x 1.485740 0.000000 0.000000 
#    y 0.000000 1.462310 0.000000 
#    z 0.000000 0.000000 1.472660 
# 
# From -- ./inp_files/18679.got.cif
#   From: 2010.05.17/outbox.cif.g08.bks.cpg/sg46_10_cif.got.tgz:18679.got - 2010.06.03 19:58:25.
