data_PCOD9377196
_publ_section_title
;
Structure prediction by ZEFSAII (Michael W. Deem and Ramdas Pophale) SiO2 
 PCOD9377196
Probable space group: I B A 2
;
_chemical_formula_sum "Si O2"
_cell_formula_units_Z 56
_cell_length_a 28.466732
_cell_length_b 5.688139
_cell_length_c 14.510150
_cell_angle_alpha 90.000000
_cell_angle_beta 90.000000
_cell_angle_gamma 90.000000
_cell_volume 2349.523079
_symmetry_space_group_name_H-M "I B A 2"
_symmetry_group_IT_number 45
_symmetry_cell_setting 'orthorhombic'
loop_
_space_group_symop_operation_xyz
x,y,z
-x,-y,z
-x,y,1/2+z
x,-y,1/2+z
1/2+x,1/2+y,1/2+z
1/2-x,1/2-y,1/2+z
1/2-x,1/2+y,z
1/2+x,1/2-y,z
loop_
_atom_site_type_symbol
_atom_site_label
_atom_site_fract_x
_atom_site_fract_y
_atom_site_fract_z
Si Si1 0.129273 0.816162 0.638050
Si Si2 0.571951 0.020348 0.998339
Si Si3 0.762441 0.137388 0.630169
Si Si4 0.125193 0.216715 0.348936
Si Si5 0.954429 0.837705 0.848768
Si Si6 0.956171 0.176221 0.149166
Si Si7 0.729000 0.198054 0.420437
O O1 0.112236 0.637938 0.560380
O O2 0.181974 0.894635 0.617544
O O3 0.128058 0.713717 0.741657
O O4 0.091482 0.025632 0.637987
O O5 0.544306 0.859026 0.068073
O O6 0.541273 0.207896 0.944625
O O7 0.595055 0.884033 0.913628
O O8 0.755534 0.395187 0.676140
O O9 0.736705 0.172298 0.531321
O O10 0.177086 0.221241 0.391178
O O11 0.095373 0.974925 0.351546
O O12 0.955488 0.705786 0.750482
O O13 0.000000 0.000000 0.842505
O O14 0.000000 0.000000 0.143902
O O15 0.760116 0.427026 0.389475
#
# Coordination Sequence:
#
# PCOD9377196 Si02
#       7
#     8   8   8   8   8   8   8
#     4  11  26  44  69 107 149 193 248 317 386 460
#     4  12  24  43  76 104 140 196 254 298 385 464
#     4  10  23  42  69 103 144 194 252 319 383 463
#     4  11  26  44  69 107 149 193 248 317 386 460
#     4  10  25  48  73 108 151 192 249 319 386 463
#     4  10  25  48  73 108 151 192 249 319 386 463
#     4  10  23  42  69 103 144 194 252 319 383 463
#
# _framework density 23.834624999999999
#
# number of rings (size 3 to 8) (size 9 to 14) (size 15 to 20)
#    0.000    1.429    0.000    3.429   12.000    5.714 
#    0.000    4.286    0.000    2.571    0.000    0.000 
#    0.000    0.000    0.000    0.000    0.000    0.000 
#
# Total GULP energy -156600.729500 kJ/mol
# GULP energy per Si atom -5592.883196 kJ/mol
# Density = 2.378038 g / cm^3
# Si number density = 23.834625 Si / 1000 Ang^3
#
#
#
# Elastic Constant Matrix: (Units=GPa)
#
#
# Indices 1 2 3 4 5 6 
#
# 1 111.0777 29.5003 10.4502 0.0000 0.0000 0.0000
# 2 29.5003 95.2011 19.2148 0.0000 0.0000 0.0000
# 3 10.4502 19.2148 126.4435 0.0000 0.0000 0.0000
# 4 0.0000 0.0000 0.0000 46.2878 0.0000 0.0000
# 5 0.0000 0.0000 0.0000 0.0000 47.2943 0.0000
# 6 0.0000 0.0000 0.0000 0.0000 0.0000 57.5642
#
#
#
# Elastic Compliance Matrix: (Units=1/GPa)
#
#
# Indices 1 2 3 4 5 6 
#
# 1 0.009826 -0.002972 -0.000360 0.000000 0.000000 0.000000
# 2 -0.002972 0.011735 -0.001538 0.000000 0.000000 0.000000
# 3 -0.000360 -0.001538 0.008172 0.000000 0.000000 0.000000
# 4 0.000000 0.000000 0.000000 0.021604 0.000000 0.000000
# 5 0.000000 0.000000 0.000000 0.000000 0.021144 0.000000
# 6 0.000000 0.000000 0.000000 0.000000 0.000000 0.017372
#
#
# Mechanical properties :
#
#
# Convention : Reuss Voigt Hill
#
# Bulk Modulus (GPa) = 50.01734 50.11696 50.06715
# Shear Modulus (GPa) = 47.05514 48.46640 47.76077
#
# Velocity S-wave (km/s) = 4.44806 4.51427 4.48128
# Velocity P-wave (km/s) = 6.88556 6.94579 6.91574
#
# Compressibility (1/GPa) = 0.01999307
#
# Stress axis : x y z
#
# Youngs Moduli (GPa) = 101.77139 85.21223 122.36696
#
# Poissons Ratio (x) = 0.25325 0.04411
# Poissons Ratio (y) = 0.30247 0.18817
# Poissons Ratio (z) = 0.03668 0.13103
#
# Static dielectric constant tensor:
#      x y z
#    x 1.864230 0.000000 0.000000 
#    y 0.000000 2.006850 0.000000 
#    z 0.000000 0.000000 1.882330 
# 
# From -- ./inp_files/7162.got.cif
#   From: 2010.05.17/outbox.cif.g08.bks.cpg/sg45_4_cif.got.tgz:7162.got - 2010.06.03 19:51:22.
