data_PCOD9377818
_publ_section_title
;
Structure prediction by ZEFSAII (Michael W. Deem and Ramdas Pophale) SiO2 
 PCOD9377818
Probable space group: I M A 2
;
_chemical_formula_sum "Si O2"
_cell_formula_units_Z 64
_cell_length_a 7.391511
_cell_length_b 23.913121
_cell_length_c 14.243076
_cell_angle_alpha 90.000000
_cell_angle_beta 90.000000
_cell_angle_gamma 90.000000
_cell_volume 2517.522036
_symmetry_space_group_name_H-M "I M A 2"
_symmetry_group_IT_number 46
_symmetry_cell_setting 'orthorhombic'
loop_
_space_group_symop_operation_xyz
x,y,z
-x,-y,z
1/2-x,y,z
1/2+x,-y,z
1/2+x,1/2+y,1/2+z
1/2-x,1/2-y,1/2+z
-x,1/2+y,1/2+z
x,1/2-y,1/2+z
loop_
_atom_site_type_symbol
_atom_site_label
_atom_site_fract_x
_atom_site_fract_y
_atom_site_fract_z
Si Si1 0.038039 0.195118 0.399370
Si Si2 0.533864 0.062157 0.939474
Si Si3 0.533350 0.439084 0.060224
Si Si4 0.530194 0.205899 0.116187
Si Si5 0.527808 0.083946 0.152536
Si Si6 0.034769 0.817066 0.898503
Si Si7 0.454072 0.676695 0.114330
Si Si8 0.455979 0.574773 0.849984
O O1 0.250000 0.184364 0.411417
O O2 0.018328 0.256880 0.355831
O O3 0.948481 0.190212 0.502635
O O4 0.953273 0.142342 0.347749
O O5 0.750000 0.068503 0.944601
O O6 0.469178 0.063258 0.049190
O O7 0.500000 0.000000 0.900404
O O8 0.468904 0.118598 0.884927
O O9 0.500000 0.500000 0.101606
O O10 0.750000 0.430476 0.054123
O O11 0.463679 0.385147 0.117029
O O12 0.462314 0.438877 0.952280
O O13 0.750000 0.208386 0.123044
O O14 0.468449 0.148436 0.159816
O O15 0.487057 0.194969 0.007039
O O16 0.459438 0.265839 0.149659
O O17 0.750000 0.081882 0.152967
O O18 0.462320 0.057385 0.250061
O O19 0.250000 0.818739 0.887306
O O20 0.250000 0.673142 0.153496
O O21 0.250000 0.553789 0.852978
#
# Coordination Sequence:
#
# PCOD9377818 Si02
#       8
#     8   8   8   8   8   8   8   8
#     4  10  17  24  38  59  77  94 124 166 206 237
#     4   9  17  28  42  60  82 109 140 170 198 231
#     4   9  17  26  36  51  73 103 133 158 183 215
#     4   7  10  20  40  59  70  86 120 160 192 226
#     4   8  14  25  41  58  75 101 135 164 189 226
#     4   8  14  26  41  55  75 103 130 158 198 243
#     4   8  14  26  41  55  73  97 122 153 199 243
#     4   9  17  29  41  53  75 107 137 161 192 233
#
# _framework density 25.421824000000001
#
# number of rings (size 3 to 8) (size 9 to 14) (size 15 to 20)
#    0.000    3.500    0.000    4.125    0.000    3.000 
#    0.000    0.625    0.000    3.000    0.000    0.000 
#    0.000    1.000    0.000    4.250    0.000    2.250 
#
# Total GULP energy -178225.777620 kJ/mol
# GULP energy per Si atom -5569.555551 kJ/mol
# Density = 2.536396 g / cm^3
# Si number density = 25.421824 Si / 1000 Ang^3
#
#
#
# Elastic Constant Matrix: (Units=GPa)
#
#
# Indices 1 2 3 4 5 6 
#
# 1 105.3021 1.3241 -8.2172 0.0000 0.0000 0.0000
# 2 1.3241 267.9051 3.7759 0.0000 0.0000 0.0000
# 3 -8.2172 3.7759 47.9359 -0.0002 0.0000 0.0000
# 4 0.0000 0.0000 -0.0002 -18.0651 0.0000 0.0000
# 5 0.0000 0.0000 0.0000 0.0000 -18.2956 0.0000
# 6 0.0000 0.0000 0.0000 0.0000 0.0000 17.0313
#
#
#
# Elastic Compliance Matrix: (Units=1/GPa)
#
#
# Indices 1 2 3 4 5 6 
#
# 1 0.009627 -0.000071 0.001656 0.000000 0.000000 0.000000
# 2 -0.000071 0.003737 -0.000307 0.000000 0.000000 0.000000
# 3 0.001656 -0.000307 0.021169 0.000000 0.000000 0.000000
# 4 0.000000 0.000000 0.000000 -0.055355 0.000000 0.000000
# 5 0.000000 0.000000 0.000000 0.000000 -0.054658 0.000000
# 6 0.000000 0.000000 0.000000 0.000000 0.000000 0.058715
#
#
# Mechanical properties :
#
#
# Convention : Reuss Voigt Hill
#
# Bulk Modulus (GPa) = 26.96163 46.10096 36.53129
# Shear Modulus (GPa) = -718.57067 24.41815 -347.07626
#
# Velocity S-wave (km/s) = -16.83070 3.10259 -11.69715
# Velocity P-wave (km/s) = 19.15902 5.56853 12.96263
#
# Compressibility (1/GPa) = 0.03708975
#
# Stress axis : x y z
#
# Youngs Moduli (GPa) = 103.87899 267.57031 47.23852
#
# Poissons Ratio (x) = 0.01897 -0.07822
# Poissons Ratio (y) = 0.00737 0.01448
# Poissons Ratio (z) = -0.17200 0.08202
#
# Static dielectric constant tensor:
#      x y z
#    x 2.000670 0.000000 0.000000 
#    y 0.000000 2.083450 0.000000 
#    z 0.000000 0.000000 2.011450 
# 
# From -- ./inp_files/21480.got.cif
#   From: 2010.05.17/outbox.cif.g08.bks.cpg/sg46_11_cif.got.tgz:21480.got - 2010.06.03 19:58:25.
