data_PCOD9377023
_publ_section_title
;
Structure prediction by ZEFSAII (Michael W. Deem and Ramdas Pophale) SiO2 
 PCOD9377023
Probable space group: I B A 2
;
_chemical_formula_sum "Si O2"
_cell_formula_units_Z 40
_cell_length_a 10.399440
_cell_length_b 15.321115
_cell_length_c 11.537354
_cell_angle_alpha 90.000000
_cell_angle_beta 90.000000
_cell_angle_gamma 90.000000
_cell_volume 1838.258337
_symmetry_space_group_name_H-M "I B A 2"
_symmetry_group_IT_number 45
_symmetry_cell_setting 'orthorhombic'
loop_
_space_group_symop_operation_xyz
x,y,z
-x,-y,z
-x,y,1/2+z
x,-y,1/2+z
1/2+x,1/2+y,1/2+z
1/2-x,1/2-y,1/2+z
1/2-x,1/2+y,z
1/2+x,1/2-y,z
loop_
_atom_site_type_symbol
_atom_site_label
_atom_site_fract_x
_atom_site_fract_y
_atom_site_fract_z
Si Si1 0.381608 0.150999 0.944770
Si Si2 0.000000 0.000000 0.109097
Si Si3 0.733011 0.933098 0.179070
Si Si4 0.727430 0.751376 0.734906
Si Si5 0.000000 0.500000 0.807917
Si Si6 0.525893 0.696779 0.087662
O O1 0.289614 0.187804 0.845251
O O2 0.477372 0.081800 0.889808
O O3 0.377938 0.005659 0.224913
O O4 0.460782 0.235249 0.984690
O O5 0.868270 0.982536 0.178363
O O6 0.013106 0.904442 0.049954
O O7 0.734182 0.848438 0.261998
O O8 0.694014 0.893788 0.052478
O O9 0.593184 0.732797 0.665595
O O10 0.840274 0.791891 0.656928
#
# Coordination Sequence:
#
# PCOD9377023 Si02
#       6
#     8   4   8   8   4   8
#     4  11  23  40  67  95 128 173 215 269 332 382
#     4  10  22  42  64  90 132 166 202 274 326 372
#     4  10  24  42  64  98 130 170 224 269 323 399
#     4  10  22  41  64  90 128 168 211 266 323 388
#     4  12  24  42  68  94 128 174 224 272 324 394
#     4  10  23  42  64  94 128 166 218 265 318 394
#
# _framework density 21.759727999999999
#
# number of rings (size 3 to 8) (size 9 to 14) (size 15 to 20)
#    0.000    1.600    0.000    4.200    0.000   12.800 
#    0.000    8.000    0.000    0.000    0.000    0.000 
#    0.000    0.000    0.000    0.000    0.000    0.000 
#
# Total GULP energy -111625.581601 kJ/mol
# GULP energy per Si atom -5581.279080 kJ/mol
# Density = 2.171020 g / cm^3
# Si number density = 21.759728 Si / 1000 Ang^3
#
#
#
# Elastic Constant Matrix: (Units=GPa)
#
#
# Indices 1 2 3 4 5 6 
#
# 1 125.5439 62.5936 37.0428 0.0000 0.0000 0.0000
# 2 62.5936 145.7682 49.2095 -0.0001 0.0000 0.0000
# 3 37.0428 49.2095 63.1775 -0.0002 0.0000 0.0001
# 4 0.0000 -0.0001 -0.0002 21.0935 0.0000 0.0001
# 5 0.0000 0.0000 0.0000 0.0000 -4.4046 0.0000
# 6 0.0000 0.0000 0.0001 0.0001 0.0000 38.9252
#
#
#
# Elastic Compliance Matrix: (Units=1/GPa)
#
#
# Indices 1 2 3 4 5 6 
#
# 1 0.010726 -0.003369 -0.003665 0.000000 0.000000 0.000000
# 2 -0.003369 0.010366 -0.006099 0.000000 0.000000 0.000000
# 3 -0.003665 -0.006099 0.022728 0.000000 0.000000 0.000000
# 4 0.000000 0.000000 0.000000 0.047408 0.000000 0.000000
# 5 0.000000 0.000000 0.000000 0.000000 -0.227034 0.000000
# 6 0.000000 0.000000 0.000000 0.000000 0.000000 0.025690
#
#
# Mechanical properties :
#
#
# Convention : Reuss Voigt Hill
#
# Bulk Modulus (GPa) = 56.96559 70.24237 63.60398
# Shear Modulus (GPa) = -64.10349 23.49907 -20.30221
#
# Velocity S-wave (km/s) = -5.43357 3.28980 -3.05785
# Velocity P-wave (km/s) = 3.62335 6.83969 4.10199
#
# Compressibility (1/GPa) = 0.01755446
#
# Stress axis : x y z
#
# Youngs Moduli (GPa) = 93.22853 96.47363 43.99888
#
# Poissons Ratio (x) = 0.32498 0.16127
# Poissons Ratio (y) = 0.31405 0.26834
# Poissons Ratio (z) = 0.34172 0.58836
#
# Static dielectric constant tensor:
#      x y z
#    x 1.833500 0.000000 0.000000 
#    y 0.000000 1.807480 0.000000 
#    z 0.000000 0.000000 1.801670 
# 
# From -- ./inp_files/3597.got.cif
#   From: 2010.05.17/outbox.cif.g08.bks.cpg/sg45_2_cif.got.tgz:3597.got - 2010.06.03 19:51:22.
