data_PCOD9377793
_publ_section_title
;
Structure prediction by ZEFSAII (Michael W. Deem and Ramdas Pophale) SiO2 
 PCOD9377793
Probable space group: I M A 2
;
_chemical_formula_sum "Si O2"
_cell_formula_units_Z 64
_cell_length_a 7.931330
_cell_length_b 30.981564
_cell_length_c 15.199782
_cell_angle_alpha 90.000000
_cell_angle_beta 90.000000
_cell_angle_gamma 90.000000
_cell_volume 3734.966554
_symmetry_space_group_name_H-M "I M A 2"
_symmetry_group_IT_number 46
_symmetry_cell_setting 'orthorhombic'
loop_
_space_group_symop_operation_xyz
x,y,z
-x,-y,z
1/2-x,y,z
1/2+x,-y,z
1/2+x,1/2+y,1/2+z
1/2-x,1/2-y,1/2+z
-x,1/2+y,1/2+z
x,1/2-y,1/2+z
loop_
_atom_site_type_symbol
_atom_site_label
_atom_site_fract_x
_atom_site_fract_y
_atom_site_fract_z
Si Si1 0.455303 0.865639 0.517460
Si Si2 0.457773 0.703080 0.158339
Si Si3 0.439599 0.363266 0.656035
Si Si4 0.952897 0.048362 0.433421
Si Si5 0.052274 0.779746 0.849509
Si Si6 0.946474 0.285550 0.544609
Si Si7 0.549232 0.048656 0.231694
Si Si8 0.946606 0.323090 0.834219
O O1 0.250000 0.865793 0.521318
O O2 0.510978 0.838144 0.601046
O O3 0.512944 0.914430 0.499409
O O4 0.502140 0.840074 0.428783
O O5 0.250000 0.704568 0.161319
O O6 0.519009 0.701220 0.258873
O O7 0.513214 0.746881 0.107091
O O8 0.250000 0.360594 0.623566
O O9 0.543782 0.331142 0.594102
O O10 0.489309 0.413077 0.668570
O O11 0.454780 0.343187 0.753549
O O12 0.750000 0.051154 0.429969
O O13 0.014775 0.055644 0.332601
O O14 0.000000 0.000000 0.459136
O O15 0.250000 0.793087 0.852802
O O16 0.046890 0.728298 0.834757
O O17 0.978129 0.788218 0.946372
O O18 0.750000 0.273714 0.531511
O O19 0.750000 0.051025 0.235159
O O20 0.500000 0.000000 0.205907
O O21 0.750000 0.336304 0.822055
#
# Coordination Sequence:
#
# PCOD9377793 Si02
#       8
#     8   8   8   8   8   8   8   8
#     4   9  15  25  43  69  95 123 155 193 236 282
#     4   9  15  24  45  72  94 117 157 203 240 284
#     4  12  23  32  44  68  99 133 167 195 233 284
#     4   9  17  28  44  66  93 123 154 188 231 279
#     4   9  16  26  46  73  93 118 159 205 242 281
#     4  10  18  30  49  69  92 122 159 201 243 287
#     4  10  19  33  51  71  96 125 158 197 241 289
#     4  10  16  28  48  68  93 125 162 198 238 280
#
# _framework density 17.135359999999999
#
# number of rings (size 3 to 8) (size 9 to 14) (size 15 to 20)
#    0.000    2.250    3.750    1.500    0.000    0.500 
#    0.000    0.625    0.000    0.750    0.000    0.875 
#    0.000    2.000    0.000    0.000    0.000    0.000 
#
# Total GULP energy -178354.811816 kJ/mol
# GULP energy per Si atom -5573.587869 kJ/mol
# Density = 1.709636 g / cm^3
# Si number density = 17.135360 Si / 1000 Ang^3
#
#
#
# Elastic Constant Matrix: (Units=GPa)
#
#
# Indices 1 2 3 4 5 6 
#
# 1 15.0561 -5.8590 -1.2553 0.0000 0.0000 0.0000
# 2 -5.8590 78.3094 36.4159 0.0000 0.0000 0.0000
# 3 -1.2553 36.4159 99.0710 0.0000 0.0000 0.0000
# 4 0.0000 0.0000 0.0000 21.2898 0.0000 0.0000
# 5 0.0000 0.0000 0.0000 0.0000 15.0617 0.0000
# 6 0.0000 0.0000 0.0000 0.0000 0.0000 14.6093
#
#
#
# Elastic Compliance Matrix: (Units=1/GPa)
#
#
# Indices 1 2 3 4 5 6 
#
# 1 0.068533 0.005698 -0.001226 0.000000 0.000000 0.000000
# 2 0.005698 0.015876 -0.005764 0.000000 0.000000 0.000000
# 3 -0.001226 -0.005764 0.012197 0.000000 0.000000 0.000000
# 4 0.000000 0.000000 0.000000 0.046971 0.000000 0.000000
# 5 0.000000 0.000000 0.000000 0.000000 0.066394 0.000000
# 6 0.000000 0.000000 0.000000 0.000000 0.000000 0.068450
#
#
# Mechanical properties :
#
#
# Convention : Reuss Voigt Hill
#
# Bulk Modulus (GPa) = 10.63571 27.89329 19.26450
# Shear Modulus (GPa) = 16.00794 21.06781 18.53787
#
# Velocity S-wave (km/s) = 3.05979 3.51022 3.29272
# Velocity P-wave (km/s) = 4.32475 5.72210 5.07178
#
# Compressibility (1/GPa) = 0.09402285
#
# Stress axis : x y z
#
# Youngs Moduli (GPa) = 14.59143 62.98677 81.98897
#
# Poissons Ratio (x) = -0.35888 0.10051
# Poissons Ratio (y) = -0.08314 0.47255
# Poissons Ratio (z) = 0.01789 0.36303
#
# Static dielectric constant tensor:
#      x y z
#    x 1.614250 0.000000 0.000000 
#    y 0.000000 1.613360 0.000000 
#    z 0.000000 0.000000 1.588710 
# 
# From -- ./inp_files/14729.got.cif
#   From: 2010.05.17/outbox.cif.g08.bks.cpg/sg46_8_cif.got.tgz:14729.got - 2010.06.03 19:58:25.
