data_PCOD9377439
_publ_section_title
;
Structure prediction by ZEFSAII (Michael W. Deem and Ramdas Pophale) SiO2 
 PCOD9377439
Probable space group: I B A 2
;
_chemical_formula_sum "Si O2"
_cell_formula_units_Z 60
_cell_length_a 26.320132
_cell_length_b 9.422645
_cell_length_c 10.476682
_cell_angle_alpha 90.000000
_cell_angle_beta 90.000000
_cell_angle_gamma 90.000000
_cell_volume 2598.272245
_symmetry_space_group_name_H-M "I B A 2"
_symmetry_group_IT_number 45
_symmetry_cell_setting 'orthorhombic'
loop_
_space_group_symop_operation_xyz
x,y,z
-x,-y,z
-x,y,1/2+z
x,-y,1/2+z
1/2+x,1/2+y,1/2+z
1/2-x,1/2-y,1/2+z
1/2-x,1/2+y,z
1/2+x,1/2-y,z
loop_
_atom_site_type_symbol
_atom_site_label
_atom_site_fract_x
_atom_site_fract_y
_atom_site_fract_z
Si Si1 0.186361 0.792743 0.117020
Si Si2 0.451674 0.194592 0.250018
Si Si3 0.069760 0.612401 0.746827
Si Si4 0.086319 0.196771 0.476555
Si Si5 0.269620 0.001571 0.012622
Si Si6 0.813809 0.788803 0.908329
Si Si7 0.582200 0.699597 0.518624
Si Si8 0.500000 0.500000 0.003669
O O1 0.141859 0.845825 0.023741
O O2 0.168935 0.799941 0.262607
O O3 0.199196 0.626857 0.084693
O O4 0.233839 0.899654 0.099716
O O5 0.510045 0.147172 0.258955
O O6 0.439589 0.249354 0.108456
O O7 0.439428 0.283460 0.375839
O O8 0.419666 0.051305 0.264314
O O9 0.083007 0.660878 0.604725
O O10 0.095463 0.696317 0.861326
O O11 0.042819 0.088903 0.428417
O O12 0.232959 0.102897 0.927872
O O13 0.299972 0.876590 0.938267
O O14 0.859231 0.837667 0.001112
O O15 0.540438 0.595781 0.582883
#
# Coordination Sequence:
#
# PCOD9377439 Si02
#       8
#     8   8   8   8   8   8   8   4
#     4  11  24  47  73 103 135 182 229 289 349 414
#     4  11  22  44  66  95 137 180 230 279 327 388
#     4  11  24  42  66  99 135 182 228 277 327 394
#     4  12  25  42  69  99 138 182 222 274 337 408
#     4  10  25  48  70 102 134 176 233 296 348 406
#     4  11  24  47  73 103 135 182 229 289 349 414
#     4  12  25  42  69  99 138 182 222 274 337 408
#     4  12  26  46  62 102 144 182 218 276 332 416
#
# _framework density 23.092268000000001
#
# number of rings (size 3 to 8) (size 9 to 14) (size 15 to 20)
#    0.000    0.800    4.000    2.400    3.733    4.267 
#   16.800    0.000    0.000    0.000    0.000    0.000 
#    0.000    0.000    0.000    0.000    0.000    0.000 
#
# Total GULP energy -167320.396870 kJ/mol
# GULP energy per Si atom -5577.346562 kJ/mol
# Density = 2.303971 g / cm^3
# Si number density = 23.092268 Si / 1000 Ang^3
#
#
#
# Elastic Constant Matrix: (Units=GPa)
#
#
# Indices 1 2 3 4 5 6 
#
# 1 97.1773 26.2896 9.3389 0.0000 0.0000 0.0000
# 2 26.2896 138.4422 18.1788 0.0000 0.0000 0.0000
# 3 9.3389 18.1788 58.8053 0.0000 0.0000 0.0000
# 4 0.0000 0.0000 0.0000 20.5017 0.0000 0.0000
# 5 0.0000 0.0000 0.0000 0.0000 32.2687 0.0000
# 6 0.0000 0.0000 0.0000 0.0000 0.0000 -227.6678
#
#
#
# Elastic Compliance Matrix: (Units=1/GPa)
#
#
# Indices 1 2 3 4 5 6 
#
# 1 0.010921 -0.001924 -0.001139 0.000000 0.000000 0.000000
# 2 -0.001924 0.007868 -0.002127 0.000000 0.000000 0.000000
# 3 -0.001139 -0.002127 0.017844 0.000000 0.000000 0.000000
# 4 0.000000 0.000000 0.000000 0.048776 0.000000 0.000000
# 5 0.000000 0.000000 0.000000 0.000000 0.030990 0.000000
# 6 0.000000 0.000000 0.000000 0.000000 0.000000 -0.004392
#
#
# Mechanical properties :
#
#
# Convention : Reuss Voigt Hill
#
# Bulk Modulus (GPa) = 38.09306 44.67104 41.38205
# Shear Modulus (GPa) = 38.12810 -18.93832 9.59489
#
# Velocity S-wave (km/s) = 4.06781 -2.86687 2.04060
# Velocity P-wave (km/s) = 6.21245 2.90310 4.84884
#
# Compressibility (1/GPa) = 0.02625150
#
# Stress axis : x y z
#
# Youngs Moduli (GPa) = 91.57080 127.09930 56.04230
#
# Poissons Ratio (x) = 0.24456 0.06386
# Poissons Ratio (y) = 0.17619 0.11918
# Poissons Ratio (z) = 0.10434 0.27030
#
# Static dielectric constant tensor:
#      x y z
#    x 1.881730 0.000000 0.000000 
#    y 0.000000 1.952440 0.000000 
#    z 0.000000 0.000000 1.862170 
# 
# From -- ./inp_files/4886.got.cif
#   From: 2010.05.17/outbox.cif.g08.bks.cpg/sg45_3_cif.got.tgz:4886.got - 2010.06.03 19:51:22.
