data_PCOD9377012
_publ_section_title
;
Structure prediction by ZEFSAII (Michael W. Deem and Ramdas Pophale) SiO2 
 PCOD9377012
Probable space group: I B A 2
;
_chemical_formula_sum "Si O2"
_cell_formula_units_Z 56
_cell_length_a 12.583115
_cell_length_b 15.940045
_cell_length_c 11.433432
_cell_angle_alpha 90.000000
_cell_angle_beta 90.000000
_cell_angle_gamma 90.000000
_cell_volume 2293.265418
_symmetry_space_group_name_H-M "I B A 2"
_symmetry_group_IT_number 45
_symmetry_cell_setting 'orthorhombic'
loop_
_space_group_symop_operation_xyz
x,y,z
-x,-y,z
-x,y,1/2+z
x,-y,1/2+z
1/2+x,1/2+y,1/2+z
1/2-x,1/2-y,1/2+z
1/2-x,1/2+y,z
1/2+x,1/2-y,z
loop_
_atom_site_type_symbol
_atom_site_label
_atom_site_fract_x
_atom_site_fract_y
_atom_site_fract_z
Si Si1 0.588134 0.355790 0.848820
Si Si2 0.000000 0.000000 0.971450
Si Si3 0.500000 0.000000 0.099999
Si Si4 0.766371 0.362497 0.016343
Si Si5 0.885599 0.154630 0.087496
Si Si6 0.793762 0.554845 0.976531
Si Si7 0.466181 0.220117 0.915932
Si Si8 0.137269 0.374951 0.753543
O O1 0.575654 0.452041 0.881400
O O2 0.664319 0.323153 0.953149
O O3 0.636562 0.343051 0.723585
O O4 0.472753 0.310205 0.848627
O O5 0.954362 0.073035 0.052592
O O6 0.442301 0.067505 0.179897
O O7 0.585146 0.050295 0.022748
O O8 0.753973 0.463576 0.019645
O O9 0.865674 0.341445 0.928575
O O10 0.790376 0.335139 0.150020
O O11 0.774211 0.132930 0.024624
O O12 0.952247 0.235987 0.044751
O O13 0.794443 0.565548 0.837722
O O14 0.564397 0.178039 0.845214
#
# Coordination Sequence:
#
# PCOD9377012 Si02
#       8
#     8   4   4   8   8   8   8   8
#     4  11  25  46  72 104 147 190 251 312 366 456
#     4  10  22  46  74 104 140 188 248 306 374 436
#     4  10  22  40  72 106 146 186 238 310 368 444
#     4  11  25  45  73 107 143 196 250 307 379 436
#     4  11  25  46  72 107 142 194 244 309 378 437
#     4  11  24  42  73 109 140 189 252 305 376 439
#     4  11  26  48  64 103 146 197 247 297 383 432
#     4  11  23  44  69 105 144 192 241 305 375 442
#
# _framework density 24.419328
#
# number of rings (size 3 to 8) (size 9 to 14) (size 15 to 20)
#    0.000    1.143    1.429    4.286    8.000    0.000 
#   12.857    0.000    0.000    0.000    0.000    0.000 
#    0.000    0.000    0.000    0.000    0.000    0.000 
#
# Total GULP energy -155927.682457 kJ/mol
# GULP energy per Si atom -5568.845802 kJ/mol
# Density = 2.436375 g / cm^3
# Si number density = 24.419328 Si / 1000 Ang^3
#
#
#
# Elastic Constant Matrix: (Units=GPa)
#
#
# Indices 1 2 3 4 5 6 
#
# 1 83.7000 15.9139 64.6484 0.0000 0.0000 0.0000
# 2 15.9139 80.3259 44.0695 0.0000 0.0000 0.0000
# 3 64.6484 44.0695 162.3500 0.0000 0.0000 0.0000
# 4 0.0000 0.0000 0.0000 31.1351 0.0000 0.0000
# 5 0.0000 0.0000 0.0000 0.0000 39.4094 0.0000
# 6 0.0000 0.0000 0.0000 0.0000 0.0000 27.4960
#
#
#
# Elastic Compliance Matrix: (Units=1/GPa)
#
#
# Indices 1 2 3 4 5 6 
#
# 1 0.017266 0.000413 -0.006987 0.000000 0.000000 0.000000
# 2 0.000413 0.014638 -0.004138 0.000000 0.000000 0.000000
# 3 -0.006987 -0.004138 0.010065 0.000000 0.000000 0.000000
# 4 0.000000 0.000000 0.000000 0.032118 0.000000 0.000000
# 5 0.000000 0.000000 0.000000 0.000000 0.025375 0.000000
# 6 0.000000 0.000000 0.000000 0.000000 0.000000 0.036369
#
#
# Mechanical properties :
#
#
# Convention : Reuss Voigt Hill
#
# Bulk Modulus (GPa) = 48.67591 63.95993 56.31792
# Shear Modulus (GPa) = 30.46868 33.05770 31.76319
#
# Velocity S-wave (km/s) = 3.53615 3.68333 3.61049
# Velocity P-wave (km/s) = 6.05385 6.65871 6.36347
#
# Compressibility (1/GPa) = 0.02054404
#
# Stress axis : x y z
#
# Youngs Moduli (GPa) = 57.91764 68.31722 99.35286
#
# Poissons Ratio (x) = -0.02821 0.69422
# Poissons Ratio (y) = -0.02391 0.41110
# Poissons Ratio (z) = 0.40470 0.28268
#
# Static dielectric constant tensor:
#      x y z
#    x 2.099580 0.000000 0.000000 
#    y 0.000000 2.051080 0.000000 
#    z 0.000000 0.000000 1.908380 
# 
# From -- ./inp_files/4163.got.cif
#   From: 2010.05.17/outbox.cif.g08.bks.cpg/sg45_3_cif.got.tgz:4163.got - 2010.06.03 19:51:22.
