data_PCOD9377515
_publ_section_title
;
Structure prediction by ZEFSAII (Michael W. Deem and Ramdas Pophale) SiO2 
 PCOD9377515
Probable space group: I B A 2
;
_chemical_formula_sum "Si O2"
_cell_formula_units_Z 56
_cell_length_a 14.211787
_cell_length_b 9.038498
_cell_length_c 17.742751
_cell_angle_alpha 90.000000
_cell_angle_beta 90.000000
_cell_angle_gamma 90.000000
_cell_volume 2279.113291
_symmetry_space_group_name_H-M "I B A 2"
_symmetry_group_IT_number 45
_symmetry_cell_setting 'orthorhombic'
loop_
_space_group_symop_operation_xyz
x,y,z
-x,-y,z
-x,y,1/2+z
x,-y,1/2+z
1/2+x,1/2+y,1/2+z
1/2-x,1/2-y,1/2+z
1/2-x,1/2+y,z
1/2+x,1/2-y,z
loop_
_atom_site_type_symbol
_atom_site_label
_atom_site_fract_x
_atom_site_fract_y
_atom_site_fract_z
Si Si1 0.346217 0.168927 0.177920
Si Si2 0.645312 0.725448 0.718935
Si Si3 0.209728 0.681899 0.428633
Si Si4 0.391608 0.474661 0.122925
Si Si5 0.597775 0.011137 0.316884
Si Si6 0.883078 0.991782 0.952609
Si Si7 0.897286 0.578129 0.079102
O O1 0.256693 0.241224 0.216719
O O2 0.382144 0.300258 0.127621
O O3 0.409101 0.091187 0.241392
O O4 0.326778 0.037701 0.119626
O O5 0.636299 0.551890 0.702158
O O6 0.599247 0.795463 0.643327
O O7 0.612020 0.821624 0.788839
O O8 0.176701 0.567174 0.364851
O O9 0.167716 0.847726 0.414072
O O10 0.321778 0.642216 0.435337
O O11 0.152898 0.632661 0.503997
O O12 0.500000 0.500000 0.120266
O O13 0.359926 0.530872 0.041368
O O14 0.500000 0.000000 0.360113
O O15 0.000000 0.000000 0.941473
O O16 0.000000 0.500000 0.069650
#
# Coordination Sequence:
#
# PCOD9377515 Si02
#       7
#     8   8   8   8   8   8   8
#     4  11  23  40  69 100 143 190 251 313 375 452
#     4  11  21  42  66 101 141 191 245 311 373 453
#     4  12  27  49  76 109 152 202 252 316 386 467
#     4  11  21  39  70 107 140 182 247 317 379 436
#     4  11  26  47  69 102 146 201 254 303 388 462
#     4  11  28  50  79 116 154 197 259 324 389 455
#     4  11  23  41  71 105 144 195 253 317 384 447
#
# _framework density 24.570961
#
# number of rings (size 3 to 8) (size 9 to 14) (size 15 to 20)
#    0.000    0.857    1.429    7.286    6.000    1.143 
#    0.000    0.714    0.000    0.000    0.000    0.000 
#    0.000    0.000    0.000    0.000    0.000    0.000 
#
# Total GULP energy -156109.233528 kJ/mol
# GULP energy per Si atom -5575.329769 kJ/mol
# Density = 2.451504 g / cm^3
# Si number density = 24.570961 Si / 1000 Ang^3
#
#
#
# Elastic Constant Matrix: (Units=GPa)
#
#
# Indices 1 2 3 4 5 6 
#
# 1 135.8881 11.9323 6.1088 0.0000 0.0000 0.0000
# 2 11.9323 107.6860 24.7490 0.0000 0.0000 0.0000
# 3 6.1088 24.7490 72.6543 0.0000 0.0000 0.0000
# 4 0.0000 0.0000 0.0000 31.7217 0.0000 0.0000
# 5 0.0000 0.0000 0.0000 0.0000 22.6955 0.0000
# 6 0.0000 0.0000 0.0000 0.0000 0.0000 -47.2078
#
#
#
# Elastic Compliance Matrix: (Units=1/GPa)
#
#
# Indices 1 2 3 4 5 6 
#
# 1 0.007441 -0.000739 -0.000374 0.000000 0.000000 0.000000
# 2 -0.000739 0.010148 -0.003395 0.000000 0.000000 0.000000
# 3 -0.000374 -0.003395 0.014952 0.000000 0.000000 0.000000
# 4 0.000000 0.000000 0.000000 0.031524 0.000000 0.000000
# 5 0.000000 0.000000 0.000000 0.000000 0.044062 0.000000
# 6 0.000000 0.000000 0.000000 0.000000 0.000000 -0.021183
#
#
# Mechanical properties :
#
#
# Convention : Reuss Voigt Hill
#
# Bulk Modulus (GPa) = 42.50640 44.64541 43.57591
# Shear Modulus (GPa) = 48.16942 19.67108 33.92025
#
# Velocity S-wave (km/s) = 4.43247 2.83253 3.71954
# Velocity P-wave (km/s) = 6.59793 5.37653 6.01829
#
# Compressibility (1/GPa) = 0.02352587
#
# Stress axis : x y z
#
# Youngs Moduli (GPa) = 134.39671 98.53858 66.88208
#
# Poissons Ratio (x) = 0.07277 0.02502
# Poissons Ratio (y) = 0.09925 0.22705
# Poissons Ratio (z) = 0.05027 0.33452
#
# Static dielectric constant tensor:
#      x y z
#    x 2.046930 0.000000 0.000000 
#    y 0.000000 1.951440 0.000000 
#    z 0.000000 0.000000 1.992080 
# 
# From -- ./inp_files/9177.got.cif
#   From: 2010.05.17/outbox.cif.g08.bks.cpg/sg45_5_cif.got.tgz:9177.got - 2010.06.03 19:51:22.
