data_PCOD9377529
_publ_section_title
;
Structure prediction by ZEFSAII (Michael W. Deem and Ramdas Pophale) SiO2 
 PCOD9377529
Probable space group: I B A 2
;
_chemical_formula_sum "Si O2"
_cell_formula_units_Z 64
_cell_length_a 11.209663
_cell_length_b 22.747715
_cell_length_c 12.194586
_cell_angle_alpha 90.000000
_cell_angle_beta 90.000000
_cell_angle_gamma 90.000000
_cell_volume 3109.548935
_symmetry_space_group_name_H-M "I B A 2"
_symmetry_group_IT_number 45
_symmetry_cell_setting 'orthorhombic'
loop_
_space_group_symop_operation_xyz
x,y,z
-x,-y,z
-x,y,1/2+z
x,-y,1/2+z
1/2+x,1/2+y,1/2+z
1/2-x,1/2-y,1/2+z
1/2-x,1/2+y,z
1/2+x,1/2-y,z
loop_
_atom_site_type_symbol
_atom_site_label
_atom_site_fract_x
_atom_site_fract_y
_atom_site_fract_z
Si Si1 0.052392 0.204725 0.037760
Si Si2 0.123419 0.071806 0.405720
Si Si3 0.518659 0.810197 0.900555
Si Si4 0.324328 0.219312 0.703323
Si Si5 0.153578 0.877829 0.126086
Si Si6 0.789878 0.368708 0.033210
Si Si7 0.218008 0.658606 0.278267
Si Si8 0.153233 0.058268 0.860768
O O1 0.070673 0.252461 0.132732
O O2 0.183826 0.179338 0.013534
O O3 0.968589 0.154700 0.088895
O O4 0.002911 0.242307 0.936205
O O5 0.172008 0.075327 0.529584
O O6 0.174188 0.128568 0.343876
O O7 0.980100 0.070748 0.406024
O O8 0.163519 0.011768 0.347737
O O9 0.617520 0.812184 0.805982
O O10 0.398380 0.838755 0.854394
O O11 0.581739 0.844387 0.998958
O O12 0.249439 0.174444 0.630452
O O13 0.245823 0.274172 0.744759
O O14 0.156421 0.907878 0.244959
O O15 0.792927 0.377004 0.164070
O O16 0.747630 0.419966 0.951429
#
# Coordination Sequence:
#
# PCOD9377529 Si02
#       8
#     8   8   8   8   8   8   8   8
#     4  11  22  36  65  97 139 177 220 278 346 418
#     4  11  26  43  72  96 135 181 237 292 351 402
#     4  12  22  39  63  97 142 179 225 268 354 417
#     4  11  22  37  62  98 138 176 217 279 341 416
#     4  12  23  42  66 102 137 177 230 279 356 412
#     4  11  23  42  64  95 136 178 230 286 341 413
#     4  11  25  42  66 102 138 182 227 281 351 424
#     4  11  25  44  68  99 131 183 232 307 342 406
#
# _framework density 20.581762999999999
#
# number of rings (size 3 to 8) (size 9 to 14) (size 15 to 20)
#    0.000    0.750    2.500    6.750    3.500    1.000 
#    0.000    0.625    0.000    1.500    0.000    0.000 
#    0.000    0.000    0.000    0.000    0.000    0.000 
#
# Total GULP energy -178788.051925 kJ/mol
# GULP energy per Si atom -5587.126623 kJ/mol
# Density = 2.053492 g / cm^3
# Si number density = 20.581763 Si / 1000 Ang^3
#
#
#
# Elastic Constant Matrix: (Units=GPa)
#
#
# Indices 1 2 3 4 5 6 
#
# 1 66.3729 19.5688 16.9839 0.0000 0.0000 0.0000
# 2 19.5688 68.8629 21.5711 0.0000 0.0000 0.0000
# 3 16.9839 21.5711 71.7605 0.0002 0.0000 0.0000
# 4 0.0000 0.0000 0.0002 31.7620 0.0000 0.0000
# 5 0.0000 0.0000 0.0000 0.0000 42.8383 0.0000
# 6 0.0000 0.0000 0.0000 0.0000 0.0000 19.1223
#
#
#
# Elastic Compliance Matrix: (Units=1/GPa)
#
#
# Indices 1 2 3 4 5 6 
#
# 1 0.016949 -0.003930 -0.002830 0.000000 0.000000 0.000000
# 2 -0.003930 0.016942 -0.004163 0.000000 0.000000 0.000000
# 3 -0.002830 -0.004163 0.015856 0.000000 0.000000 0.000000
# 4 0.000000 0.000000 0.000000 0.031484 0.000000 0.000000
# 5 0.000000 0.000000 0.000000 0.000000 0.023344 0.000000
# 6 0.000000 0.000000 0.000000 0.000000 0.000000 0.052295
#
#
# Mechanical properties :
#
#
# Convention : Reuss Voigt Hill
#
# Bulk Modulus (GPa) = 35.83925 35.91599 35.87762
# Shear Modulus (GPa) = 26.59333 28.66935 27.63134
#
# Velocity S-wave (km/s) = 3.59845 3.73627 3.66801
# Velocity P-wave (km/s) = 5.89203 6.00843 5.95052
#
# Compressibility (1/GPa) = 0.02790237
#
# Stress axis : x y z
#
# Youngs Moduli (GPa) = 58.99961 59.02372 63.06608
#
# Poissons Ratio (x) = 0.23196 0.17849
# Poissons Ratio (y) = 0.23187 0.26253
# Poissons Ratio (z) = 0.16698 0.24570
#
# Static dielectric constant tensor:
#      x y z
#    x 1.728640 0.000000 0.000000 
#    y 0.000000 1.740400 0.000000 
#    z 0.000000 0.000000 1.797970 
# 
# From -- ./inp_files/3882.got.cif
#   From: 2010.05.17/outbox.cif.g08.bks.cpg/sg45_2_cif.got.tgz:3882.got - 2010.06.03 19:51:22.
