data_PCOD9377356
_publ_section_title
;
Structure prediction by ZEFSAII (Michael W. Deem and Ramdas Pophale) SiO2 
 PCOD9377356
Probable space group: I B A 2
;
_chemical_formula_sum "Si O2"
_cell_formula_units_Z 32
_cell_length_a 5.144847
_cell_length_b 22.412871
_cell_length_c 8.671979
_cell_angle_alpha 90.000000
_cell_angle_beta 90.000000
_cell_angle_gamma 90.000000
_cell_volume 999.972768
_symmetry_space_group_name_H-M "I B A 2"
_symmetry_group_IT_number 45
_symmetry_cell_setting 'orthorhombic'
loop_
_space_group_symop_operation_xyz
x,y,z
-x,-y,z
-x,y,1/2+z
x,-y,1/2+z
1/2+x,1/2+y,1/2+z
1/2-x,1/2-y,1/2+z
1/2-x,1/2+y,z
1/2+x,1/2-y,z
loop_
_atom_site_type_symbol
_atom_site_label
_atom_site_fract_x
_atom_site_fract_y
_atom_site_fract_z
Si Si1 0.727211 0.168432 0.653210
Si Si2 0.768096 0.236532 0.338259
Si Si3 0.987585 0.433558 0.462579
Si Si4 0.015261 0.934797 0.246940
O O1 0.508588 0.201407 0.779670
O O2 0.516230 0.121970 0.574913
O O3 0.943693 0.205501 0.795939
O O4 0.960964 0.119195 0.633968
O O5 0.769749 0.070324 0.860886
O O6 0.755366 0.221549 0.520665
O O7 0.226518 0.430989 0.344459
O O8 0.000000 0.500000 0.534793
O O9 0.000000 0.000000 0.172760
#
# Coordination Sequence:
#
# PCOD9377356 Si02
#       4
#     8   8   8   8
#     4  12  26  48  78 114 158 204 260 320 392 470
#     4  12  28  48  74 110 156 208 260 318 384 464
#     4  10  24  45  71 107 151 198 252 317 385 456
#     4  10  24  45  71 107 151 198 252 317 385 456
#
# _framework density 32.000867
#
# number of rings (size 3 to 8) (size 9 to 14) (size 15 to 20)
#    0.000    1.000    0.000    4.500    0.000   12.000 
#    0.000    0.000    0.000    0.000    0.000    3.500 
#    0.000    0.000    0.000    0.000    0.000    0.000 
#
# Total GULP energy -89320.574220 kJ/mol
# GULP energy per Si atom -5582.535889 kJ/mol
# Density = 3.192803 g / cm^3
# Si number density = 32.000867 Si / 1000 Ang^3
#
#
#
# Elastic Constant Matrix: (Units=GPa)
#
#
# Indices 1 2 3 4 5 6 
#
# 1 437.9833 32.9980 96.7376 0.0000 0.0000 0.0000
# 2 32.9980 222.7838 60.1432 0.0000 0.0000 0.0000
# 3 96.7376 60.1432 173.7989 0.0000 -0.0001 0.0000
# 4 0.0000 0.0000 0.0000 41.0632 0.0000 0.0000
# 5 0.0000 0.0000 -0.0001 0.0000 151.6595 0.0000
# 6 0.0000 0.0000 0.0000 0.0000 0.0000 43.2289
#
#
#
# Elastic Compliance Matrix: (Units=1/GPa)
#
#
# Indices 1 2 3 4 5 6 
#
# 1 0.002603 0.000006 -0.001451 0.000000 0.000000 0.000000
# 2 0.000006 0.004951 -0.001717 0.000000 0.000000 0.000000
# 3 -0.001451 -0.001717 0.007156 0.000000 0.000000 0.000000
# 4 0.000000 0.000000 0.000000 0.024353 0.000000 0.000000
# 5 0.000000 0.000000 0.000000 0.000000 0.006594 0.000000
# 6 0.000000 0.000000 0.000000 0.000000 0.000000 0.023133
#
#
# Mechanical properties :
#
#
# Convention : Reuss Voigt Hill
#
# Bulk Modulus (GPa) = 119.23888 134.92484 127.08186
# Shear Modulus (GPa) = 64.17816 90.16947 77.17381
#
# Velocity S-wave (km/s) = 4.48315 5.31398 4.91615
# Velocity P-wave (km/s) = 8.00876 8.93899 8.48663
#
# Compressibility (1/GPa) = 0.00838653
#
# Stress axis : x y z
#
# Youngs Moduli (GPa) = 384.13740 201.97063 139.75122
#
# Poissons Ratio (x) = -0.00124 0.20279
# Poissons Ratio (y) = -0.00237 0.23993
# Poissons Ratio (z) = 0.55743 0.34674
#
# Static dielectric constant tensor:
#      x y z
#    x 2.566740 0.000000 0.000000 
#    y 0.000000 2.656330 0.000000 
#    z 0.000000 0.000000 2.458540 
# 
# From -- ./inp_files/3116.got.cif
#   From: 2010.05.17/outbox.cif.g08.bks.cpg/sg45_2_cif.got.tgz:3116.got - 2010.06.03 19:51:22.
