data_PCOD9377087
_publ_section_title
;
Structure prediction by ZEFSAII (Michael W. Deem and Ramdas Pophale) SiO2 
 PCOD9377087
Probable space group: I B A 2
;
_chemical_formula_sum "Si O2"
_cell_formula_units_Z 64
_cell_length_a 11.588172
_cell_length_b 27.097376
_cell_length_c 8.106646
_cell_angle_alpha 90.000000
_cell_angle_beta 90.000000
_cell_angle_gamma 90.000000
_cell_volume 2545.560240
_symmetry_space_group_name_H-M "I B A 2"
_symmetry_group_IT_number 45
_symmetry_cell_setting 'orthorhombic'
loop_
_space_group_symop_operation_xyz
x,y,z
-x,-y,z
-x,y,1/2+z
x,-y,1/2+z
1/2+x,1/2+y,1/2+z
1/2-x,1/2-y,1/2+z
1/2-x,1/2+y,z
1/2+x,1/2-y,z
loop_
_atom_site_type_symbol
_atom_site_label
_atom_site_fract_x
_atom_site_fract_y
_atom_site_fract_z
Si Si1 0.949365 0.838994 0.423810
Si Si2 0.429098 0.815838 0.223794
Si Si3 0.673334 0.325813 0.083592
Si Si4 0.870211 0.741622 0.538706
Si Si5 0.590454 0.042858 0.677216
Si Si6 0.925090 0.388350 0.459321
Si Si7 0.689346 0.565842 0.537822
Si Si8 0.510482 0.443788 0.342359
O O1 0.909328 0.833627 0.237947
O O2 0.876216 0.800045 0.526818
O O3 0.941938 0.897803 0.452583
O O4 0.081364 0.820397 0.437900
O O5 0.363144 0.783302 0.357122
O O6 0.507467 0.851952 0.335963
O O7 0.515211 0.779743 0.124585
O O8 0.366427 0.851819 0.092266
O O9 0.736411 0.378198 0.059763
O O10 0.759035 0.282077 0.120388
O O11 0.635751 0.072530 0.838528
O O12 0.515109 0.078956 0.562617
O O13 0.704522 0.029565 0.572254
O O14 0.500000 0.000000 0.724164
O O15 0.627402 0.566987 0.359263
O O16 0.591108 0.556459 0.679668
O O17 0.500000 0.500000 0.403107
#
# Coordination Sequence:
#
# PCOD9377087 Si02
#       8
#     8   8   8   8   8   8   8   8
#     4  10  23  41  65  99 133 171 240 296 342 429
#     4   9  19  36  61  91 127 172 226 268 319 430
#     4  10  22  43  66  92 136 184 226 292 357 416
#     4  11  21  39  65  95 132 177 221 286 361 417
#     4  11  22  38  62  97 139 178 222 290 359 430
#     4   9  19  37  57  89 134 180 220 261 335 425
#     4  10  22  43  66  94 130 171 230 288 349 427
#     4  10  22  43  69  95 127 175 228 295 357 410
#
# _framework density 25.141815000000001
#
# number of rings (size 3 to 8) (size 9 to 14) (size 15 to 20)
#    0.000    2.000    0.000    3.750    0.000    4.000 
#    0.000   16.250    0.000    3.000    0.000    0.000 
#    0.000    0.000    0.000    0.000    0.000    0.000 
#
# Total GULP energy -178489.170875 kJ/mol
# GULP energy per Si atom -5577.786590 kJ/mol
# Density = 2.508459 g / cm^3
# Si number density = 25.141815 Si / 1000 Ang^3
#
#
#
# Elastic Constant Matrix: (Units=GPa)
#
#
# Indices 1 2 3 4 5 6 
#
# 1 73.1251 14.6993 7.3490 -0.0002 -0.0002 -0.0004
# 2 14.6993 150.1975 20.0165 -0.0014 -0.0002 -0.0005
# 3 7.3490 20.0165 60.1692 0.0082 -0.0015 0.0000
# 4 -0.0002 -0.0014 0.0082 88.1710 -0.0020 0.0000
# 5 -0.0002 -0.0002 -0.0015 -0.0020 32.8985 -0.0003
# 6 -0.0004 -0.0005 0.0000 0.0000 -0.0003 19.6283
#
#
#
# Elastic Compliance Matrix: (Units=1/GPa)
#
#
# Indices 1 2 3 4 5 6 
#
# 1 0.014049 -0.001199 -0.001317 0.000000 0.000000 0.000000
# 2 -0.001199 0.007069 -0.002205 0.000000 0.000000 0.000000
# 3 -0.001317 -0.002205 0.017514 -0.000002 0.000001 0.000000
# 4 0.000000 0.000000 -0.000002 0.011342 0.000001 0.000000
# 5 0.000000 0.000000 0.000001 0.000001 0.030397 0.000000
# 6 0.000000 0.000000 0.000000 0.000000 0.000000 0.050947
#
#
# Mechanical properties :
#
#
# Convention : Reuss Voigt Hill
#
# Bulk Modulus (GPa) = 34.25938 40.84682 37.55310
# Shear Modulus (GPa) = 33.22488 44.23469 38.72978
#
# Velocity S-wave (km/s) = 3.63919 4.19908 3.92912
# Velocity P-wave (km/s) = 5.59592 6.30805 5.96263
#
# Compressibility (1/GPa) = 0.02918909
#
# Stress axis : x y z
#
# Youngs Moduli (GPa) = 71.18125 141.45939 57.09636
#
# Poissons Ratio (x) = 0.16967 0.07519
# Poissons Ratio (y) = 0.08537 0.12591
# Poissons Ratio (z) = 0.09374 0.31195
#
# Static dielectric constant tensor:
#      x y z
#    x 1.985860 0.000000 0.000000 
#    y 0.000000 1.931870 0.000000 
#    z 0.000000 0.000000 2.027280 
# 
# From -- ./inp_files/1515.got.cif
#   From: 2010.05.17/outbox.cif.g08.bks.cpg/sg45_1_cif.got.tgz:1515.got - 2010.06.03 19:51:22.
