data_PCOD9377261
_publ_section_title
;
Structure prediction by ZEFSAII (Michael W. Deem and Ramdas Pophale) SiO2 
 PCOD9377261
Probable space group: I B A 2
;
_chemical_formula_sum "Si O2"
_cell_formula_units_Z 56
_cell_length_a 15.371732
_cell_length_b 15.079761
_cell_length_c 10.803171
_cell_angle_alpha 90.000000
_cell_angle_beta 90.000000
_cell_angle_gamma 90.000000
_cell_volume 2504.197127
_symmetry_space_group_name_H-M "I B A 2"
_symmetry_group_IT_number 45
_symmetry_cell_setting 'orthorhombic'
loop_
_space_group_symop_operation_xyz
x,y,z
-x,-y,z
-x,y,1/2+z
x,-y,1/2+z
1/2+x,1/2+y,1/2+z
1/2-x,1/2-y,1/2+z
1/2-x,1/2+y,z
1/2+x,1/2-y,z
loop_
_atom_site_type_symbol
_atom_site_label
_atom_site_fract_x
_atom_site_fract_y
_atom_site_fract_z
Si Si1 0.409576 0.633452 0.011560
Si Si2 0.191789 0.815437 0.177270
Si Si3 0.336064 0.171805 0.511085
Si Si4 0.179221 0.613931 0.242660
Si Si5 0.257097 0.454810 0.368759
Si Si6 0.507887 0.605011 0.262517
Si Si7 0.404351 0.999060 0.545429
O O1 0.362221 0.727549 0.016651
O O2 0.439764 0.620640 0.151911
O O3 0.341536 0.560368 0.956588
O O4 0.485533 0.638878 0.905642
O O5 0.235301 0.840824 0.047158
O O6 0.202892 0.709545 0.186880
O O7 0.245022 0.866311 0.285265
O O8 0.095950 0.853018 0.202281
O O9 0.357856 0.141029 0.374413
O O10 0.386143 0.099188 0.591653
O O11 0.253439 0.540096 0.275859
O O12 0.107493 0.566544 0.159858
O O13 0.172712 0.467515 0.454176
O O14 0.500000 0.500000 0.278117
O O15 0.500000 0.000000 0.490249
#
# Coordination Sequence:
#
# PCOD9377261 Si02
#       7
#     8   8   8   8   8   8   8
#     4  11  25  50  72 117 153 204 263 314 399 452
#     4  11  24  48  72 111 150 199 257 308 394 452
#     4  11  24  45  71 103 146 197 252 312 378 472
#     4  11  23  43  75 105 144 199 243 319 377 461
#     4  10  23  47  74 104 146 196 251 315 377 461
#     4  11  26  47  74 110 160 201 255 323 377 469
#     4  11  26  44  74 105 149 193 255 321 387 447
#
# _framework density 22.362456999999999
#
# number of rings (size 3 to 8) (size 9 to 14) (size 15 to 20)
#    0.000    1.143    4.286    1.286    6.000    4.571 
#    7.714    0.000    0.000    0.000    0.000    0.000 
#    0.000    0.000    0.000    0.000    0.000    0.000 
#
# Total GULP energy -156008.809278 kJ/mol
# GULP energy per Si atom -5571.743189 kJ/mol
# Density = 2.231156 g / cm^3
# Si number density = 22.362457 Si / 1000 Ang^3
#
#
#
# Elastic Constant Matrix: (Units=GPa)
#
#
# Indices 1 2 3 4 5 6 
#
# 1 76.2678 40.2378 38.6466 0.0000 0.0000 0.0000
# 2 40.2378 135.1435 8.6299 0.0000 0.0000 0.0000
# 3 38.6466 8.6299 76.0191 0.0000 0.0000 0.0000
# 4 0.0000 0.0000 0.0000 26.2309 0.0000 0.0000
# 5 0.0000 0.0000 0.0000 0.0000 26.7625 0.0000
# 6 0.0000 0.0000 0.0000 0.0000 0.0000 17.4791
#
#
#
# Elastic Compliance Matrix: (Units=1/GPa)
#
#
# Indices 1 2 3 4 5 6 
#
# 1 0.021258 -0.005680 -0.010162 0.000000 0.000000 0.000000
# 2 -0.005680 0.008971 0.001869 0.000000 0.000000 0.000000
# 3 -0.010162 0.001869 0.018109 0.000000 0.000000 0.000000
# 4 0.000000 0.000000 0.000000 0.038123 0.000000 0.000000
# 5 0.000000 0.000000 0.000000 0.000000 0.037366 0.000000
# 6 0.000000 0.000000 0.000000 0.000000 0.000000 0.057211
#
#
# Mechanical properties :
#
#
# Convention : Reuss Voigt Hill
#
# Bulk Modulus (GPa) = 49.04026 51.38434 50.21230
# Shear Modulus (GPa) = 23.17153 27.42226 25.29689
#
# Velocity S-wave (km/s) = 3.22247 3.50560 3.36701
# Velocity P-wave (km/s) = 5.98524 6.27802 6.13337
#
# Compressibility (1/GPa) = 0.02039141
#
# Stress axis : x y z
#
# Youngs Moduli (GPa) = 47.04086 111.46430 55.22207
#
# Poissons Ratio (x) = 0.63317 0.56119
# Poissons Ratio (y) = 0.26721 -0.10323
# Poissons Ratio (z) = 0.47805 -0.20837
#
# Static dielectric constant tensor:
#      x y z
#    x 1.868810 0.000000 0.000000 
#    y 0.000000 1.863190 0.000000 
#    z 0.000000 0.000000 1.892210 
# 
# From -- ./inp_files/4153.got.cif
#   From: 2010.05.17/outbox.cif.g08.bks.cpg/sg45_3_cif.got.tgz:4153.got - 2010.06.03 19:51:22.
