data_PCOD9377253
_publ_section_title
;
Structure prediction by ZEFSAII (Michael W. Deem and Ramdas Pophale) SiO2 
 PCOD9377253
Probable space group: I B A 2
;
_chemical_formula_sum "Si O2"
_cell_formula_units_Z 32
_cell_length_a 9.345693
_cell_length_b 13.454618
_cell_length_c 9.902108
_cell_angle_alpha 90.000000
_cell_angle_beta 90.000000
_cell_angle_gamma 90.000000
_cell_volume 1245.118085
_symmetry_space_group_name_H-M "I B A 2"
_symmetry_group_IT_number 45
_symmetry_cell_setting 'orthorhombic'
loop_
_space_group_symop_operation_xyz
x,y,z
-x,-y,z
-x,y,1/2+z
x,-y,1/2+z
1/2+x,1/2+y,1/2+z
1/2-x,1/2-y,1/2+z
1/2-x,1/2+y,z
1/2+x,1/2-y,z
loop_
_atom_site_type_symbol
_atom_site_label
_atom_site_fract_x
_atom_site_fract_y
_atom_site_fract_z
Si Si1 0.390860 0.077634 0.263210
Si Si2 0.031571 0.222667 0.875343
Si Si3 0.866953 0.940996 0.677410
Si Si4 0.613728 0.196141 0.133434
O O1 0.373631 0.177941 0.346439
O O2 0.484483 0.115752 0.135073
O O3 0.500000 0.000000 0.332149
O O4 0.246747 0.023646 0.225245
O O5 0.075490 0.121093 0.805472
O O6 0.895251 0.261921 0.787728
O O7 0.056508 0.218524 0.034797
O O8 0.763382 0.858553 0.606805
O O9 0.000000 0.000000 0.612999
#
# Coordination Sequence:
#
# PCOD9377253 Si02
#       4
#     8   8   8   8
#     4   8  20  43  69  99 141 202 241 289 369 456
#     4  10  23  46  74 103 149 195 243 303 374 447
#     4  11  24  45  74 116 148 187 256 319 371 443
#     4   9  23  48  72  99 150 202 239 296 383 443
#
# _framework density 25.700374
#
# number of rings (size 3 to 8) (size 9 to 14) (size 15 to 20)
#    1.500    1.000    0.000    0.000    3.500    5.000 
#    4.500    0.000    0.000    0.000    0.000    0.000 
#    0.000    0.000    0.000    0.000    0.000    0.000 
#
# Total GULP energy -89070.940210 kJ/mol
# GULP energy per Si atom -5566.933763 kJ/mol
# Density = 2.564188 g / cm^3
# Si number density = 25.700374 Si / 1000 Ang^3
#
#
#
# Elastic Constant Matrix: (Units=GPa)
#
#
# Indices 1 2 3 4 5 6 
#
# 1 163.8347 64.7220 29.3456 -0.0001 0.0001 0.0000
# 2 64.7220 114.6878 24.1278 0.0005 -0.0001 0.0001
# 3 29.3456 24.1278 81.4384 0.0015 -0.0003 0.0000
# 4 -0.0001 0.0005 0.0015 30.0286 -0.0003 0.0000
# 5 0.0001 -0.0001 -0.0003 -0.0003 0.8980 0.0000
# 6 0.0000 0.0001 0.0000 0.0000 0.0000 62.8608
#
#
#
# Elastic Compliance Matrix: (Units=1/GPa)
#
#
# Indices 1 2 3 4 5 6 
#
# 1 0.008060 -0.004199 -0.001660 0.000000 -0.000002 0.000000
# 2 -0.004199 0.011487 -0.001890 0.000000 0.000001 0.000000
# 3 -0.001660 -0.001890 0.013437 -0.000001 0.000005 0.000000
# 4 0.000000 0.000000 -0.000001 0.033302 0.000010 0.000000
# 5 -0.000002 0.000001 0.000005 0.000010 1.113584 0.000000
# 6 0.000000 0.000000 0.000000 0.000000 0.000000 0.015908
#
#
# Mechanical properties :
#
#
# Convention : Reuss Voigt Hill
#
# Bulk Modulus (GPa) = 57.19139 66.26129 61.72634
# Shear Modulus (GPa) = 4.10811 34.87519 19.49165
#
# Velocity S-wave (km/s) = 1.26567 3.68773 2.75693
# Velocity P-wave (km/s) = 4.94342 6.63104 5.84842
#
# Compressibility (1/GPa) = 0.01748515
#
# Stress axis : x y z
#
# Youngs Moduli (GPa) = 124.07001 87.05723 74.41902
#
# Poissons Ratio (x) = 0.36557 0.12355
# Poissons Ratio (y) = 0.52100 0.14065
# Poissons Ratio (z) = 0.20599 0.16454
#
# Static dielectric constant tensor:
#      x y z
#    x 2.072130 0.000000 0.000000 
#    y 0.000000 2.030310 0.000000 
#    z 0.000000 0.000000 2.300460 
# 
# From -- ./inp_files/3108.got.cif
#   From: 2010.05.17/outbox.cif.g08.bks.cpg/sg45_2_cif.got.tgz:3108.got - 2010.06.03 19:51:22.
