data_PCOD9377143
_publ_section_title
;
Structure prediction by ZEFSAII (Michael W. Deem and Ramdas Pophale) SiO2 
 PCOD9377143
Probable space group: I B A 2
;
_chemical_formula_sum "Si O2"
_cell_formula_units_Z 32
_cell_length_a 11.130262
_cell_length_b 13.412096
_cell_length_c 7.801681
_cell_angle_alpha 90.000000
_cell_angle_beta 90.000000
_cell_angle_gamma 90.000000
_cell_volume 1164.636051
_symmetry_space_group_name_H-M "I B A 2"
_symmetry_group_IT_number 45
_symmetry_cell_setting 'orthorhombic'
loop_
_space_group_symop_operation_xyz
x,y,z
-x,-y,z
-x,y,1/2+z
x,-y,1/2+z
1/2+x,1/2+y,1/2+z
1/2-x,1/2-y,1/2+z
1/2-x,1/2+y,z
1/2+x,1/2-y,z
loop_
_atom_site_type_symbol
_atom_site_label
_atom_site_fract_x
_atom_site_fract_y
_atom_site_fract_z
Si Si1 0.952096 0.892576 0.146750
Si Si2 0.394763 0.082959 0.524926
Si Si3 0.583557 0.749480 0.948927
Si Si4 0.749775 0.412537 0.872861
O O1 0.891779 0.823228 0.289240
O O2 0.066758 0.825917 0.103262
O O3 0.877994 0.908571 0.970376
O O4 0.000000 0.000000 0.198862
O O5 0.463517 0.178841 0.445691
O O6 0.312836 0.109907 0.688593
O O7 0.500000 0.000000 0.568501
O O8 0.304591 0.022558 0.403442
O O9 0.685741 0.827561 0.983755
#
# Coordination Sequence:
#
# PCOD9377143 Si02
#       4
#     8   8   8   8
#     4  12  29  48  77 117 171 209 270 338 417 485
#     4  10  22  47  81 116 151 202 284 344 400 483
#     4  11  25  51  76 114 158 215 271 336 402 500
#     4  11  26  46  80 115 155 212 269 342 410 486
#
# _framework density 27.476396000000001
#
# number of rings (size 3 to 8) (size 9 to 14) (size 15 to 20)
#    0.000    1.000    2.500    3.000   10.500    4.000 
#    0.000    0.000    0.000    0.000    0.000    0.000 
#    0.000    0.000    0.000    0.000    0.000    0.000 
#
# Total GULP energy -89374.079532 kJ/mol
# GULP energy per Si atom -5585.879971 kJ/mol
# Density = 2.741386 g / cm^3
# Si number density = 27.476396 Si / 1000 Ang^3
#
#
#
# Elastic Constant Matrix: (Units=GPa)
#
#
# Indices 1 2 3 4 5 6 
#
# 1 122.5982 59.0560 41.5837 0.0000 0.0000 0.0000
# 2 59.0560 222.9233 55.6684 0.0000 0.0000 0.0000
# 3 41.5837 55.6684 92.6731 0.0000 0.0000 0.0000
# 4 0.0000 0.0000 0.0000 56.4782 0.0000 0.0000
# 5 0.0000 0.0000 0.0000 0.0000 -32.2850 0.0000
# 6 0.0000 0.0000 0.0000 0.0000 0.0000 30.8624
#
#
#
# Elastic Compliance Matrix: (Units=1/GPa)
#
#
# Indices 1 2 3 4 5 6 
#
# 1 0.010224 -0.001839 -0.003483 0.000000 0.000000 0.000000
# 2 -0.001839 0.005608 -0.002544 0.000000 0.000000 0.000000
# 3 -0.003483 -0.002544 0.013882 0.000000 0.000000 0.000000
# 4 0.000000 0.000000 0.000000 0.017706 0.000000 0.000000
# 5 0.000000 0.000000 0.000000 0.000000 -0.030974 0.000000
# 6 0.000000 0.000000 0.000000 0.000000 0.000000 0.032402
#
#
# Mechanical properties :
#
#
# Convention : Reuss Voigt Hill
#
# Bulk Modulus (GPa) = 71.51793 83.42341 77.47067
# Shear Modulus (GPa) = 72.21346 29.80356 51.00851
#
# Velocity S-wave (km/s) = 5.13216 3.29705 4.31333
# Velocity P-wave (km/s) = 7.82331 6.70237 7.28443
#
# Compressibility (1/GPa) = 0.01398251
#
# Stress axis : x y z
#
# Youngs Moduli (GPa) = 97.81060 178.31126 72.03793
#
# Poissons Ratio (x) = 0.32785 0.25092
# Poissons Ratio (y) = 0.17984 0.18325
# Poissons Ratio (z) = 0.34068 0.45358
#
# Static dielectric constant tensor:
#      x y z
#    x 2.326160 0.000000 0.000000 
#    y 0.000000 2.045590 0.000000 
#    z 0.000000 0.000000 2.200860 
# 
# From -- ./inp_files/1174.got.cif
#   From: 2010.05.17/outbox.cif.g08.bks.cpg/sg45_1_cif.got.tgz:1174.got - 2010.06.03 19:51:22.
