data_PCOD9377640
_publ_section_title
;
Structure prediction by ZEFSAII (Michael W. Deem and Ramdas Pophale) SiO2 
 PCOD9377640
Probable space group: I B A 2
;
_chemical_formula_sum "Si O2"
_cell_formula_units_Z 32
_cell_length_a 13.003271
_cell_length_b 9.525285
_cell_length_c 9.030796
_cell_angle_alpha 90.000000
_cell_angle_beta 90.000000
_cell_angle_gamma 90.000000
_cell_volume 1118.553148
_symmetry_space_group_name_H-M "I B A 2"
_symmetry_group_IT_number 45
_symmetry_cell_setting 'orthorhombic'
loop_
_space_group_symop_operation_xyz
x,y,z
-x,-y,z
-x,y,1/2+z
x,-y,1/2+z
1/2+x,1/2+y,1/2+z
1/2-x,1/2-y,1/2+z
1/2-x,1/2+y,z
1/2+x,1/2-y,z
loop_
_atom_site_type_symbol
_atom_site_label
_atom_site_fract_x
_atom_site_fract_y
_atom_site_fract_z
Si Si1 0.429199 0.124418 0.007970
Si Si2 0.250000 0.702711 0.432706
Si Si3 0.250000 0.016276 0.692401
Si Si4 0.070801 0.875583 0.507970
O O1 0.354870 0.051020 0.125616
O O2 0.500000 0.250000 0.068481
O O3 0.500000 0.000000 0.944355
O O4 0.649155 0.294081 0.898900
O O5 0.250000 0.553235 0.354540
O O6 0.250000 0.667232 0.608946
O O7 0.350844 0.794081 0.398900
O O8 0.145130 0.948980 0.625616
O O9 0.000000 0.000000 0.444355
#
# Coordination Sequence:
#
# PCOD9377640 Si02
#       4
#     8   8   8   8
#     4  11  24  51  75 116 155 216 270 335 399 477
#     4  11  26  49  84 122 165 211 271 337 415 477
#     4  11  26  49  78 118 167 211 265 343 395 497
#     4  11  24  51  75 116 155 216 270 335 399 477
#
# _framework density 28.608384000000001
#
# number of rings (size 3 to 8) (size 9 to 14) (size 15 to 20)
#    0.000    1.000    5.000    0.000    0.000   10.000 
#    9.000    0.000    0.000    0.000    0.000    0.000 
#    0.000    0.000    0.000    0.000    0.000    0.000 
#
# Total GULP energy -89593.427645 kJ/mol
# GULP energy per Si atom -5599.589228 kJ/mol
# Density = 2.854327 g / cm^3
# Si number density = 28.608384 Si / 1000 Ang^3
#
#
#
# Elastic Constant Matrix: (Units=GPa)
#
#
# Indices 1 2 3 4 5 6 
#
# 1 186.6186 80.9875 26.6153 0.0000 0.0000 0.0000
# 2 80.9875 232.9570 19.0977 0.0000 0.0000 0.0000
# 3 26.6153 19.0977 112.9790 0.0000 0.0000 0.0000
# 4 0.0000 0.0000 0.0000 11.8569 0.0000 0.0000
# 5 0.0000 0.0000 0.0000 0.0000 25.5686 0.0000
# 6 0.0000 0.0000 0.0000 0.0000 0.0000 29.0372
#
#
#
# Elastic Compliance Matrix: (Units=1/GPa)
#
#
# Indices 1 2 3 4 5 6 
#
# 1 0.006457 -0.002150 -0.001158 0.000000 0.000000 0.000000
# 2 -0.002150 0.005069 -0.000350 0.000000 0.000000 0.000000
# 3 -0.001158 -0.000350 0.009183 0.000000 0.000000 0.000000
# 4 0.000000 0.000000 0.000000 0.084339 0.000000 0.000000
# 5 0.000000 0.000000 0.000000 0.000000 0.039110 0.000000
# 6 0.000000 0.000000 0.000000 0.000000 0.000000 0.034439
#
#
# Mechanical properties :
#
#
# Convention : Reuss Voigt Hill
#
# Bulk Modulus (GPa) = 74.66620 87.32839 80.99730
# Shear Modulus (GPa) = 26.26380 40.34949 33.30665
#
# Velocity S-wave (km/s) = 3.03321 3.75961 3.41578
# Velocity P-wave (km/s) = 6.19865 7.03122 6.62802
#
# Compressibility (1/GPa) = 0.01339294
#
# Stress axis : x y z
#
# Youngs Moduli (GPa) = 154.88171 197.28885 108.89522
#
# Poissons Ratio (x) = 0.42411 0.12606
# Poissons Ratio (y) = 0.33295 0.03815
# Poissons Ratio (z) = 0.17930 0.06913
#
# Static dielectric constant tensor:
#      x y z
#    x 2.220400 0.000000 0.000000 
#    y 0.000000 2.158220 0.000000 
#    z 0.000000 0.000000 2.434720 
# 
# From -- ./inp_files/1553.got.cif
#   From: 2010.05.17/outbox.cif.g08.bks.cpg/sg45_1_cif.got.tgz:1553.got - 2010.06.03 19:51:22.
