data_PCOD9377466
_publ_section_title
;
Structure prediction by ZEFSAII (Michael W. Deem and Ramdas Pophale) SiO2 
 PCOD9377466
Probable space group: I B A 2
;
_chemical_formula_sum "Si O2"
_cell_formula_units_Z 40
_cell_length_a 16.432086
_cell_length_b 10.243648
_cell_length_c 9.247980
_cell_angle_alpha 90.000000
_cell_angle_beta 90.000000
_cell_angle_gamma 90.000000
_cell_volume 1556.661655
_symmetry_space_group_name_H-M "I B A 2"
_symmetry_group_IT_number 45
_symmetry_cell_setting 'orthorhombic'
loop_
_space_group_symop_operation_xyz
x,y,z
-x,-y,z
-x,y,1/2+z
x,-y,1/2+z
1/2+x,1/2+y,1/2+z
1/2-x,1/2-y,1/2+z
1/2-x,1/2+y,z
1/2+x,1/2-y,z
loop_
_atom_site_type_symbol
_atom_site_label
_atom_site_fract_x
_atom_site_fract_y
_atom_site_fract_z
Si Si1 0.351852 0.343688 0.111890
Si Si2 0.923713 0.255501 0.393436
Si Si3 0.500000 0.000000 0.719888
Si Si4 0.500000 0.500000 0.010140
Si Si5 0.086292 0.382946 0.438011
Si Si6 0.334206 0.900919 0.116570
O O1 0.367292 0.261098 0.256734
O O2 0.260862 0.393164 0.135770
O O3 0.421057 0.454700 0.100253
O O4 0.366775 0.255011 0.968088
O O5 0.870973 0.274927 0.536930
O O6 0.987318 0.377198 0.359307
O O7 0.975406 0.125681 0.416301
O O8 0.467697 0.895315 0.594939
O O9 0.604706 0.928429 0.753276
O O10 0.849317 0.508405 0.495160
#
# Coordination Sequence:
#
# PCOD9377466 Si02
#       6
#     8   8   4   4   8   8
#     4  11  28  47  76 110 155 195 260 320 384 466
#     4  11  23  49  70 107 152 198 247 318 382 464
#     4  12  22  46  72 108 152 192 252 322 376 460
#     4  10  26  48  74 104 150 202 244 304 404 452
#     4  11  24  46  76 107 147 203 254 312 392 453
#     4  12  26  44  75 116 145 201 259 320 382 461
#
# _framework density 25.696013000000001
#
# number of rings (size 3 to 8) (size 9 to 14) (size 15 to 20)
#    0.000    0.800    4.000    1.800    8.400    0.000 
#    0.000    0.000    0.000    0.000    0.000    0.000 
#    0.000    0.000    0.000    0.000    0.000    0.000 
#
# Total GULP energy -111433.449712 kJ/mol
# GULP energy per Si atom -5571.672486 kJ/mol
# Density = 2.563753 g / cm^3
# Si number density = 25.696013 Si / 1000 Ang^3
#
#
#
# Elastic Constant Matrix: (Units=GPa)
#
#
# Indices 1 2 3 4 5 6 
#
# 1 236.8454 54.3463 98.9225 0.0000 0.0000 0.0000
# 2 54.3463 103.6084 47.8859 0.0000 0.0000 0.0000
# 3 98.9225 47.8859 233.5699 0.0000 0.0000 0.0000
# 4 0.0000 0.0000 0.0000 35.7005 0.0000 0.0000
# 5 0.0000 0.0000 0.0000 0.0000 34.8758 0.0000
# 6 0.0000 0.0000 0.0000 0.0000 0.0000 37.4815
#
#
#
# Elastic Compliance Matrix: (Units=1/GPa)
#
#
# Indices 1 2 3 4 5 6 
#
# 1 0.005477 -0.001989 -0.001912 0.000000 0.000000 0.000000
# 2 -0.001989 0.011385 -0.001492 0.000000 0.000000 0.000000
# 3 -0.001912 -0.001492 0.005397 0.000000 0.000000 0.000000
# 4 0.000000 0.000000 0.000000 0.028011 0.000000 0.000000
# 5 0.000000 0.000000 0.000000 0.000000 0.028673 0.000000
# 6 0.000000 0.000000 0.000000 0.000000 0.000000 0.026680
#
#
# Mechanical properties :
#
#
# Convention : Reuss Voigt Hill
#
# Bulk Modulus (GPa) = 87.15974 108.48146 97.82060
# Shear Modulus (GPa) = 41.58621 46.46949 44.02785
#
# Velocity S-wave (km/s) = 4.02729 4.25718 4.14383
# Velocity P-wave (km/s) = 7.45779 8.15314 7.81320
#
# Compressibility (1/GPa) = 0.01147319
#
# Stress axis : x y z
#
# Youngs Moduli (GPa) = 182.57652 87.83839 185.29232
#
# Poissons Ratio (x) = 0.17474 0.35425
# Poissons Ratio (y) = 0.36321 0.27636
# Poissons Ratio (z) = 0.34906 0.13101
#
# Static dielectric constant tensor:
#      x y z
#    x 2.114010 0.000000 0.000000 
#    y 0.000000 2.192540 0.000000 
#    z 0.000000 0.000000 2.045050 
# 
# From -- ./inp_files/3596.got.cif
#   From: 2010.05.17/outbox.cif.g08.bks.cpg/sg45_2_cif.got.tgz:3596.got - 2010.06.03 19:51:22.
