data_PCOD9377145
_publ_section_title
;
Structure prediction by ZEFSAII (Michael W. Deem and Ramdas Pophale) SiO2 
 PCOD9377145
Probable space group: I B A 2
;
_chemical_formula_sum "Si O2"
_cell_formula_units_Z 44
_cell_length_a 22.165037
_cell_length_b 7.412166
_cell_length_c 10.408539
_cell_angle_alpha 90.000000
_cell_angle_beta 90.000000
_cell_angle_gamma 90.000000
_cell_volume 1710.028590
_symmetry_space_group_name_H-M "I B A 2"
_symmetry_group_IT_number 45
_symmetry_cell_setting 'orthorhombic'
loop_
_space_group_symop_operation_xyz
x,y,z
-x,-y,z
-x,y,1/2+z
x,-y,1/2+z
1/2+x,1/2+y,1/2+z
1/2-x,1/2-y,1/2+z
1/2-x,1/2+y,z
1/2+x,1/2-y,z
loop_
_atom_site_type_symbol
_atom_site_label
_atom_site_fract_x
_atom_site_fract_y
_atom_site_fract_z
Si Si1 0.179441 0.388649 0.171110
Si Si2 0.936146 0.158415 0.156214
Si Si3 0.884915 0.545395 0.920608
Si Si4 0.315917 0.482901 0.224131
Si Si5 0.500000 0.000000 0.586293
Si Si6 0.592094 0.470195 0.903117
O O1 0.134944 0.458624 0.285521
O O2 0.247284 0.427740 0.215130
O O3 0.172944 0.172927 0.155232
O O4 0.166073 0.468778 0.030504
O O5 0.940243 0.006024 0.266300
O O6 0.982989 0.323528 0.171786
O O7 0.861543 0.172435 0.171156
O O8 0.939584 0.070904 0.016755
O O9 0.904141 0.755100 0.914309
O O10 0.943820 0.471736 0.990621
O O11 0.338852 0.523289 0.369806
#
# Coordination Sequence:
#
# PCOD9377145 Si02
#       6
#     8   8   8   8   4   8
#     4  12  26  45  76 118 157 207 270 342 428 505
#     4  10  24  49  79 112 163 215 269 345 413 502
#     4  12  27  46  73 115 157 215 274 337 415 501
#     4  10  25  45  78 110 163 200 266 342 425 502
#     4  12  28  48  76 114 166 214 282 334 406 508
#     4  10  22  48  74 114 156 205 268 329 427 482
#
# _framework density 25.730566
#
# number of rings (size 3 to 8) (size 9 to 14) (size 15 to 20)
#    1.091    0.000    1.818    3.273    5.091    5.091 
#    0.000    3.636    0.000    1.091    0.000    0.000 
#    0.000    0.000    0.000    0.000    0.000    0.000 
#
# Total GULP energy -122618.332419 kJ/mol
# GULP energy per Si atom -5573.560564 kJ/mol
# Density = 2.567200 g / cm^3
# Si number density = 25.730566 Si / 1000 Ang^3
#
#
#
# Elastic Constant Matrix: (Units=GPa)
#
#
# Indices 1 2 3 4 5 6 
#
# 1 136.4736 18.7683 10.0834 0.0000 0.0000 0.0000
# 2 18.7683 128.2186 35.0012 0.0000 0.0000 0.0000
# 3 10.0834 35.0012 137.1643 0.0000 0.0000 0.0000
# 4 0.0000 0.0000 0.0000 20.9214 0.0000 0.0000
# 5 0.0000 0.0000 0.0000 0.0000 543.5569 0.0000
# 6 0.0000 0.0000 0.0000 0.0000 0.0000 39.9511
#
#
#
# Elastic Compliance Matrix: (Units=1/GPa)
#
#
# Indices 1 2 3 4 5 6 
#
# 1 0.007489 -0.001017 -0.000291 0.000000 0.000000 0.000000
# 2 -0.001017 0.008521 -0.002100 0.000000 0.000000 0.000000
# 3 -0.000291 -0.002100 0.007848 0.000000 0.000000 0.000000
# 4 0.000000 0.000000 0.000000 0.047798 0.000000 0.000000
# 5 0.000000 0.000000 0.000000 0.000000 0.001840 0.000000
# 6 0.000000 0.000000 0.000000 0.000000 0.000000 0.025031
#
#
# Mechanical properties :
#
#
# Convention : Reuss Voigt Hill
#
# Bulk Modulus (GPa) = 58.67615 58.84026 58.75820
# Shear Modulus (GPa) = 45.03617 143.41943 94.22780
#
# Velocity S-wave (km/s) = 4.18820 7.47395 6.05809
# Velocity P-wave (km/s) = 6.80011 9.86901 8.47464
#
# Compressibility (1/GPa) = 0.01704270
#
# Stress axis : x y z
#
# Youngs Moduli (GPa) = 133.53357 117.35470 127.42569
#
# Poissons Ratio (x) = 0.11932 0.03709
# Poissons Ratio (y) = 0.13577 0.26755
# Poissons Ratio (z) = 0.03887 0.24641
#
# Static dielectric constant tensor:
#      x y z
#    x 1.857190 0.000000 0.000000 
#    y 0.000000 2.206420 0.000000 
#    z 0.000000 0.000000 2.234920 
# 
# From -- ./inp_files/4761.got.cif
#   From: 2010.05.17/outbox.cif.g08.bks.cpg/sg45_3_cif.got.tgz:4761.got - 2010.06.03 19:51:22.
