data_PCOD9377278
_publ_section_title
;
Structure prediction by ZEFSAII (Michael W. Deem and Ramdas Pophale) SiO2 
 PCOD9377278
Probable space group: I B A 2
;
_chemical_formula_sum "Si O2"
_cell_formula_units_Z 56
_cell_length_a 13.764521
_cell_length_b 21.914000
_cell_length_c 8.337134
_cell_angle_alpha 90.000000
_cell_angle_beta 90.000000
_cell_angle_gamma 90.000000
_cell_volume 2514.777360
_symmetry_space_group_name_H-M "I B A 2"
_symmetry_group_IT_number 45
_symmetry_cell_setting 'orthorhombic'
loop_
_space_group_symop_operation_xyz
x,y,z
-x,-y,z
-x,y,1/2+z
x,-y,1/2+z
1/2+x,1/2+y,1/2+z
1/2-x,1/2-y,1/2+z
1/2-x,1/2+y,z
1/2+x,1/2-y,z
loop_
_atom_site_type_symbol
_atom_site_label
_atom_site_fract_x
_atom_site_fract_y
_atom_site_fract_z
Si Si1 0.102652 0.590549 0.256930
Si Si2 0.048724 0.680711 0.879055
Si Si3 0.770168 0.186990 0.767258
Si Si4 0.276806 0.092018 0.847375
Si Si5 0.344441 0.009173 0.549943
Si Si6 0.444974 0.272367 0.617453
Si Si7 0.336174 0.309421 0.145475
O O1 0.202408 0.627764 0.250845
O O2 0.109499 0.550553 0.415782
O O3 0.017741 0.638529 0.269946
O O4 0.085280 0.542191 0.119176
O O5 0.140716 0.638398 0.919870
O O6 0.090851 0.734259 0.771129
O O7 0.974736 0.719080 0.992497
O O8 0.853385 0.182501 0.625780
O O9 0.704322 0.245851 0.719338
O O10 0.799822 0.186049 0.959024
O O11 0.261127 0.035754 0.972244
O O12 0.198815 0.136345 0.762162
O O13 0.315331 0.053364 0.694114
O O14 0.546872 0.305720 0.644236
#
# Coordination Sequence:
#
# PCOD9377278 Si02
#       7
#     8   8   8   8   8   8   8
#     4  11  23  41  65  92 134 174 225 273 329 401
#     4  12  23  39  63  99 137 175 213 274 330 418
#     4  12  25  42  67  97 132 175 218 280 344 399
#     4  11  23  42  66  95 135 175 225 273 335 403
#     4  10  24  41  63  94 128 184 223 271 325 401
#     4  12  24  39  63 101 138 168 216 269 346 406
#     4  12  24  42  67  97 132 176 216 281 343 401
#
# _framework density 22.268373
#
# number of rings (size 3 to 8) (size 9 to 14) (size 15 to 20)
#    0.000    0.571    5.714    2.571    2.000    3.429 
#    0.000    0.000    0.000    5.143    0.000    0.000 
#    0.000    0.000    0.000    0.000    0.000    0.000 
#
# Total GULP energy -156111.321861 kJ/mol
# GULP energy per Si atom -5575.404352 kJ/mol
# Density = 2.221769 g / cm^3
# Si number density = 22.268373 Si / 1000 Ang^3
#
#
#
# Elastic Constant Matrix: (Units=GPa)
#
#
# Indices 1 2 3 4 5 6 
#
# 1 113.4033 41.1369 14.6576 0.0000 0.0000 0.0000
# 2 41.1369 81.6082 39.3462 -0.0001 0.0000 0.0000
# 3 14.6576 39.3462 84.5472 -0.0008 0.0004 0.0003
# 4 0.0000 -0.0001 -0.0008 50.2884 0.0001 0.0000
# 5 0.0000 0.0000 0.0004 0.0001 21.6320 0.0000
# 6 0.0000 0.0000 0.0003 0.0000 0.0000 34.1278
#
#
#
# Elastic Compliance Matrix: (Units=1/GPa)
#
#
# Indices 1 2 3 4 5 6 
#
# 1 0.010839 -0.005876 0.000856 0.000000 0.000000 0.000000
# 2 -0.005876 0.018984 -0.007816 0.000000 0.000000 0.000000
# 3 0.000856 -0.007816 0.015317 0.000000 0.000000 0.000000
# 4 0.000000 0.000000 0.000000 0.019885 0.000000 0.000000
# 5 0.000000 0.000000 0.000000 0.000000 0.046228 0.000000
# 6 0.000000 0.000000 0.000000 0.000000 0.000000 0.029302
#
#
# Mechanical properties :
#
#
# Convention : Reuss Voigt Hill
#
# Bulk Modulus (GPa) = 51.37013 52.20446 51.78730
# Shear Modulus (GPa) = 28.94908 33.50417 31.22662
#
# Velocity S-wave (km/s) = 3.60947 3.88308 3.74877
# Velocity P-wave (km/s) = 6.36316 6.60292 6.48415
#
# Compressibility (1/GPa) = 0.01946657
#
# Stress axis : x y z
#
# Youngs Moduli (GPa) = 92.25854 52.67559 65.28796
#
# Poissons Ratio (x) = 0.30953 -0.05586
# Poissons Ratio (y) = 0.54213 0.51029
# Poissons Ratio (z) = -0.07893 0.41171
#
# Static dielectric constant tensor:
#      x y z
#    x 1.847130 0.000000 0.000000 
#    y 0.000000 1.803290 0.000000 
#    z 0.000000 0.000000 1.959680 
# 
# From -- ./inp_files/1832.got.cif
#   From: 2010.05.17/outbox.cif.g08.bks.cpg/sg45_1_cif.got.tgz:1832.got - 2010.06.03 19:51:22.
