data_PCOD9377464
_publ_section_title
;
Structure prediction by ZEFSAII (Michael W. Deem and Ramdas Pophale) SiO2 
 PCOD9377464
Probable space group: I B A 2
;
_chemical_formula_sum "Si O2"
_cell_formula_units_Z 44
_cell_length_a 19.504224
_cell_length_b 10.283868
_cell_length_c 9.275542
_cell_angle_alpha 90.000000
_cell_angle_beta 90.000000
_cell_angle_gamma 90.000000
_cell_volume 1860.477687
_symmetry_space_group_name_H-M "I B A 2"
_symmetry_group_IT_number 45
_symmetry_cell_setting 'orthorhombic'
loop_
_space_group_symop_operation_xyz
x,y,z
-x,-y,z
-x,y,1/2+z
x,-y,1/2+z
1/2+x,1/2+y,1/2+z
1/2-x,1/2-y,1/2+z
1/2-x,1/2+y,z
1/2+x,1/2-y,z
loop_
_atom_site_type_symbol
_atom_site_label
_atom_site_fract_x
_atom_site_fract_y
_atom_site_fract_z
Si Si1 0.910921 0.101636 0.044960
Si Si2 0.000000 0.000000 0.787919
Si Si3 0.356830 0.898659 0.088509
Si Si4 0.286067 0.501166 0.701553
Si Si5 0.265908 0.746348 0.870984
Si Si6 0.622079 0.868695 0.909561
O O1 0.963985 0.096487 0.176584
O O2 0.847061 0.005364 0.084441
O O3 0.902145 0.251985 0.008108
O O4 0.942067 0.049712 0.895384
O O5 0.290739 0.978551 0.144699
O O6 0.393628 0.859162 0.237768
O O7 0.318697 0.790255 0.992926
O O8 0.396500 0.992975 0.979067
O O9 0.303307 0.645175 0.766738
O O10 0.273939 0.371852 0.799775
O O11 0.203990 0.655171 0.920838
#
# Coordination Sequence:
#
# PCOD9377464 Si02
#       6
#     8   4   8   8   8   8
#     4  11  23  47  67 100 124 184 221 306 351 388
#     4  10  26  48  72  92 130 158 260 308 346 394
#     4  11  22  38  60 102 146 174 217 254 327 445
#     4  11  23  37  65  97 146 179 223 261 347 405
#     4  11  21  38  58 104 146 191 209 265 309 454
#     4  11  24  39  64  95 145 179 221 265 346 412
#
# _framework density 23.649839
#
# number of rings (size 3 to 8) (size 9 to 14) (size 15 to 20)
#    0.000    1.091    5.455    2.182    2.545    0.000 
#    9.818    0.000    0.000    3.273    0.000    0.000 
#    0.000    0.000    0.000    0.000    0.000    0.000 
#
# Total GULP energy -122637.860306 kJ/mol
# GULP energy per Si atom -5574.448196 kJ/mol
# Density = 2.359601 g / cm^3
# Si number density = 23.649839 Si / 1000 Ang^3
#
#
#
# Elastic Constant Matrix: (Units=GPa)
#
#
# Indices 1 2 3 4 5 6 
#
# 1 30.9228 4.3648 24.6337 0.0000 0.0000 0.0000
# 2 4.3648 100.4566 64.6483 0.0000 0.0000 0.0000
# 3 24.6337 64.6483 148.2277 0.0000 0.0000 0.0000
# 4 0.0000 0.0000 0.0000 39.3795 0.0000 0.0000
# 5 0.0000 0.0000 0.0000 0.0000 -12.8536 0.0000
# 6 0.0000 0.0000 0.0000 0.0000 0.0000 2.5119
#
#
#
# Elastic Compliance Matrix: (Units=1/GPa)
#
#
# Indices 1 2 3 4 5 6 
#
# 1 0.038072 0.003361 -0.007793 0.000000 0.000000 0.000000
# 2 0.003361 0.014135 -0.006724 0.000000 0.000000 0.000000
# 3 -0.007793 -0.006724 0.010974 0.000000 0.000000 0.000000
# 4 0.000000 0.000000 0.000000 0.025394 0.000000 0.000000
# 5 0.000000 0.000000 0.000000 0.000000 -0.077799 0.000000
# 6 0.000000 0.000000 0.000000 0.000000 0.000000 0.398100
#
#
# Mechanical properties :
#
#
# Convention : Reuss Voigt Hill
#
# Bulk Modulus (GPa) = 24.46772 51.87785 38.17279
# Shear Modulus (GPa) = 11.24073 18.20493 14.72283
#
# Velocity S-wave (km/s) = 2.18250 2.77748 2.49777
# Velocity P-wave (km/s) = 4.08893 5.68061 4.94918
#
# Compressibility (1/GPa) = 0.04087017
#
# Stress axis : x y z
#
# Youngs Moduli (GPa) = 26.26592 70.74416 91.12527
#
# Poissons Ratio (x) = -0.23776 0.71013
# Poissons Ratio (y) = -0.08828 0.61269
# Poissons Ratio (z) = 0.20469 0.47565
#
# Static dielectric constant tensor:
#      x y z
#    x 1.963410 0.000000 0.000000 
#    y 0.000000 1.982770 0.000000 
#    z 0.000000 0.000000 2.068130 
# 
# From -- ./inp_files/2477.got.cif
#   From: 2010.05.17/outbox.cif.g08.bks.cpg/sg45_2_cif.got.tgz:2477.got - 2010.06.03 19:51:22.
