data_PCOD9377064
_publ_section_title
;
Structure prediction by ZEFSAII (Michael W. Deem and Ramdas Pophale) SiO2 
 PCOD9377064
Probable space group: I B A 2
;
_chemical_formula_sum "Si O2"
_cell_formula_units_Z 64
_cell_length_a 8.064036
_cell_length_b 27.127882
_cell_length_c 13.620855
_cell_angle_alpha 90.000000
_cell_angle_beta 90.000000
_cell_angle_gamma 90.000000
_cell_volume 2979.701196
_symmetry_space_group_name_H-M "I B A 2"
_symmetry_group_IT_number 45
_symmetry_cell_setting 'orthorhombic'
loop_
_space_group_symop_operation_xyz
x,y,z
-x,-y,z
-x,y,1/2+z
x,-y,1/2+z
1/2+x,1/2+y,1/2+z
1/2-x,1/2-y,1/2+z
1/2-x,1/2+y,z
1/2+x,1/2-y,z
loop_
_atom_site_type_symbol
_atom_site_label
_atom_site_fract_x
_atom_site_fract_y
_atom_site_fract_z
Si Si1 0.925447 0.198919 0.110190
Si Si2 0.346115 0.625363 0.785454
Si Si3 0.919659 0.410613 0.657370
Si Si4 0.542554 0.197735 0.101489
Si Si5 0.763406 0.056931 0.600291
Si Si6 0.765613 0.160996 0.486553
Si Si7 0.670151 0.969645 0.475045
Si Si8 0.903229 0.949936 0.307496
O O1 0.913407 0.158329 0.196210
O O2 0.735761 0.202385 0.071095
O O3 0.984987 0.251721 0.151955
O O4 0.066733 0.184764 0.031317
O O5 0.219442 0.584610 0.740382
O O6 0.491330 0.596714 0.840806
O O7 0.264064 0.657705 0.869676
O O8 0.846962 0.423913 0.549982
O O9 0.965603 0.352828 0.663687
O O10 0.084110 0.443391 0.655994
O O11 0.401515 0.188608 0.020209
O O12 0.760820 0.106020 0.534589
O O13 0.886906 0.057149 0.690837
O O14 0.783191 0.009407 0.532379
O O15 0.738606 0.952847 0.371478
O O16 0.500000 0.000000 0.462839
O O17 0.000000 0.000000 0.326118
#
# Coordination Sequence:
#
# PCOD9377064 Si02
#       8
#     8   8   8   8   8   8   8   8
#     4  11  22  46  67  96 135 175 228 282 353 399
#     4  11  25  41  67 100 133 177 227 286 329 423
#     4   9  22  43  66  93 126 178 221 280 337 392
#     4  10  22  42  72  91 130 181 216 290 338 405
#     4  10  22  42  67  91 136 177 219 279 330 405
#     4  11  23  45  66 101 136 177 231 275 351 404
#     4  10  23  42  66  95 132 180 227 275 337 409
#     4  12  25  37  63 100 130 178 221 271 338 403
#
# _framework density 21.478663999999998
#
# number of rings (size 3 to 8) (size 9 to 14) (size 15 to 20)
#    0.000    1.500    2.500    1.500    3.500    8.000 
#    4.500    0.000    0.000    0.000    0.000    0.000 
#    0.000    0.000    0.000    0.000    0.000    0.000 
#
# Total GULP energy -178568.277827 kJ/mol
# GULP energy per Si atom -5580.258682 kJ/mol
# Density = 2.142978 g / cm^3
# Si number density = 21.478664 Si / 1000 Ang^3
#
#
#
# Elastic Constant Matrix: (Units=GPa)
#
#
# Indices 1 2 3 4 5 6 
#
# 1 110.0424 17.3302 31.4169 0.0000 0.0000 0.0000
# 2 17.3302 76.1886 7.4698 0.0000 0.0000 0.0000
# 3 31.4169 7.4698 78.4593 0.0000 0.0000 0.0000
# 4 0.0000 0.0000 0.0000 11.9950 0.0000 0.0000
# 5 0.0000 0.0000 0.0000 0.0000 29.9472 0.0000
# 6 0.0000 0.0000 0.0000 0.0000 0.0000 29.9588
#
#
#
# Elastic Compliance Matrix: (Units=1/GPa)
#
#
# Indices 1 2 3 4 5 6 
#
# 1 0.010555 -0.002005 -0.004036 0.000000 0.000000 0.000000
# 2 -0.002005 0.013630 -0.000495 0.000000 0.000000 0.000000
# 3 -0.004036 -0.000495 0.014409 0.000000 0.000000 0.000000
# 4 0.000000 0.000000 0.000000 0.083368 0.000000 0.000000
# 5 0.000000 0.000000 0.000000 0.000000 0.033392 0.000000
# 6 0.000000 0.000000 0.000000 0.000000 0.000000 0.033379
#
#
# Mechanical properties :
#
#
# Convention : Reuss Voigt Hill
#
# Bulk Modulus (GPa) = 39.18107 41.90267 40.54187
# Shear Modulus (GPa) = 23.77416 28.27842 26.02629
#
# Velocity S-wave (km/s) = 3.33058 3.63241 3.48476
# Velocity P-wave (km/s) = 5.75081 6.09458 5.92519
#
# Compressibility (1/GPa) = 0.02552253
#
# Stress axis : x y z
#
# Youngs Moduli (GPa) = 94.73822 73.36777 69.40321
#
# Poissons Ratio (x) = 0.14712 0.28009
# Poissons Ratio (y) = 0.18998 0.03433
# Poissons Ratio (z) = 0.38234 0.03629
#
# Static dielectric constant tensor:
#      x y z
#    x 1.840100 0.000000 0.000000 
#    y 0.000000 1.808580 0.000000 
#    z 0.000000 0.000000 1.741760 
# 
# From -- ./inp_files/3399.got.cif
#   From: 2010.05.17/outbox.cif.g08.bks.cpg/sg45_2_cif.got.tgz:3399.got - 2010.06.03 19:51:22.
