data_PCOD9377279
_publ_section_title
;
Structure prediction by ZEFSAII (Michael W. Deem and Ramdas Pophale) SiO2 
 PCOD9377279
Probable space group: I B A 2
;
_chemical_formula_sum "Si O2"
_cell_formula_units_Z 60
_cell_length_a 5.124838
_cell_length_b 24.508218
_cell_length_c 18.372765
_cell_angle_alpha 90.000000
_cell_angle_beta 90.000000
_cell_angle_gamma 90.000000
_cell_volume 2307.631170
_symmetry_space_group_name_H-M "I B A 2"
_symmetry_group_IT_number 45
_symmetry_cell_setting 'orthorhombic'
loop_
_space_group_symop_operation_xyz
x,y,z
-x,-y,z
-x,y,1/2+z
x,-y,1/2+z
1/2+x,1/2+y,1/2+z
1/2-x,1/2-y,1/2+z
1/2-x,1/2+y,z
1/2+x,1/2-y,z
loop_
_atom_site_type_symbol
_atom_site_label
_atom_site_fract_x
_atom_site_fract_y
_atom_site_fract_z
Si Si1 0.000000 0.000000 0.882030
Si Si2 0.401839 0.573574 0.769813
Si Si3 0.378342 0.060574 0.637234
Si Si4 0.527381 0.285338 0.141300
Si Si5 0.380489 0.846877 0.369543
Si Si6 0.478944 0.715640 0.975877
Si Si7 0.367530 0.060670 0.468659
Si Si8 0.148146 0.642441 0.248268
O O1 0.806289 0.974434 0.822743
O O2 0.088011 0.951389 0.933314
O O3 0.380607 0.558423 0.686336
O O4 0.208242 0.621180 0.795633
O O5 0.689644 0.593277 0.787741
O O6 0.344948 0.073282 0.553188
O O7 0.523975 0.110135 0.677679
O O8 0.500000 0.000000 0.643253
O O9 0.228642 0.265851 0.147944
O O10 0.622372 0.325064 0.203719
O O11 0.563405 0.306490 0.058046
O O12 0.142489 0.820120 0.411794
O O13 0.499528 0.890102 0.425905
O O14 0.583319 0.815220 0.317282
O O15 0.783508 0.731550 0.971299
O O16 0.500000 0.000000 0.461721
#
# Coordination Sequence:
#
# PCOD9377279 Si02
#       8
#     4   8   8   8   8   8   8   8
#     4  12  22  38  66  90 138 180 224 270 342 402
#     4  11  24  40  63  96 131 179 222 282 344 415
#     4  10  24  41  65  92 134 175 231 279 337 413
#     4  10  24  46  71  98 134 179 228 287 350 417
#     4  11  24  41  65  96 133 173 226 280 353 415
#     4  10  24  46  71  99 137 180 229 290 355 417
#     4  11  23  42  62  95 132 177 224 278 333 405
#     4  11  24  42  65  97 131 178 221 285 348 419
#
# _framework density 26.000688
#
# number of rings (size 3 to 8) (size 9 to 14) (size 15 to 20)
#    0.000    1.333    2.667    1.600    7.467    3.733 
#    4.800    0.000    0.000    0.000    0.000    0.000 
#    0.000    0.000    0.000    0.000    0.000    0.000 
#
# Total GULP energy -167262.005446 kJ/mol
# GULP energy per Si atom -5575.400182 kJ/mol
# Density = 2.594151 g / cm^3
# Si number density = 26.000688 Si / 1000 Ang^3
#
#
#
# Elastic Constant Matrix: (Units=GPa)
#
#
# Indices 1 2 3 4 5 6 
#
# 1 33.9629 -9.2041 0.5520 0.0000 0.0000 0.0000
# 2 -9.2041 48.3129 29.3703 0.0000 0.0000 0.0000
# 3 0.5520 29.3703 192.3498 0.0000 0.0000 0.0000
# 4 0.0000 0.0000 0.0000 35.6809 0.0000 0.0000
# 5 0.0000 0.0000 0.0000 0.0000 28.7570 0.0000
# 6 0.0000 0.0000 0.0000 0.0000 0.0000 35.0549
#
#
#
# Elastic Compliance Matrix: (Units=1/GPa)
#
#
# Indices 1 2 3 4 5 6 
#
# 1 0.031257 0.006624 -0.001101 0.000000 0.000000 0.000000
# 2 0.006624 0.024220 -0.003717 0.000000 0.000000 0.000000
# 3 -0.001101 -0.003717 0.005770 0.000000 0.000000 0.000000
# 4 0.000000 0.000000 0.000000 0.028026 0.000000 0.000000
# 5 0.000000 0.000000 0.000000 0.000000 0.034774 0.000000
# 6 0.000000 0.000000 0.000000 0.000000 0.000000 0.028527
#
#
# Mechanical properties :
#
#
# Convention : Reuss Voigt Hill
#
# Bulk Modulus (GPa) = 15.41825 35.11800 25.26812
# Shear Modulus (GPa) = 29.31149 36.82572 33.06860
#
# Velocity S-wave (km/s) = 3.36122 3.76751 3.57015
# Velocity P-wave (km/s) = 4.58329 5.69749 5.17049
#
# Compressibility (1/GPa) = 0.06485822
#
# Stress axis : x y z
#
# Youngs Moduli (GPa) = 31.99290 41.28797 173.32180
#
# Poissons Ratio (x) = -0.27350 0.19085
# Poissons Ratio (y) = -0.21193 0.64428
# Poissons Ratio (z) = 0.03523 0.15348
#
# Static dielectric constant tensor:
#      x y z
#    x 0.757150 0.000000 0.000000 
#    y 0.000000 2.210330 0.000000 
#    z 0.000000 0.000000 1.959160 
# 
# From -- ./inp_files/7339.got.cif
#   From: 2010.05.17/outbox.cif.g08.bks.cpg/sg45_4_cif.got.tgz:7339.got - 2010.06.03 19:51:22.
