data_PCOD9377964
_publ_section_title
;
Structure prediction by ZEFSAII (Michael W. Deem and Ramdas Pophale) SiO2 
 PCOD9377964
Probable space group: I M A 2
;
_chemical_formula_sum "Si O2"
_cell_formula_units_Z 64
_cell_length_a 8.654015
_cell_length_b 19.076527
_cell_length_c 22.062147
_cell_angle_alpha 90.000000
_cell_angle_beta 90.000000
_cell_angle_gamma 90.000000
_cell_volume 3642.207876
_symmetry_space_group_name_H-M "I M A 2"
_symmetry_group_IT_number 46
_symmetry_cell_setting 'orthorhombic'
loop_
_space_group_symop_operation_xyz
x,y,z
-x,-y,z
1/2-x,y,z
1/2+x,-y,z
1/2+x,1/2+y,1/2+z
1/2-x,1/2-y,1/2+z
-x,1/2+y,1/2+z
x,1/2-y,1/2+z
loop_
_atom_site_type_symbol
_atom_site_label
_atom_site_fract_x
_atom_site_fract_y
_atom_site_fract_z
Si Si1 0.065818 0.429952 0.857100
Si Si2 0.564392 0.923236 0.555153
Si Si3 0.935713 0.813718 0.453176
Si Si4 0.565779 0.926248 0.810335
Si Si5 0.065048 0.779080 0.229949
Si Si6 0.064892 0.784097 0.860121
Si Si7 0.435134 0.624662 0.183428
Si Si8 0.435371 0.073797 0.218190
O O1 0.250000 0.433862 0.854603
O O2 0.022825 0.366356 0.898742
O O3 0.008036 0.425512 0.788484
O O4 0.000000 0.500000 0.885436
O O5 0.750000 0.926949 0.552061
O O6 0.515440 0.857414 0.512508
O O7 0.508033 0.905725 0.622642
O O8 0.500000 0.000000 0.537321
O O9 0.750000 0.804483 0.456089
O O10 0.011217 0.744147 0.425674
O O11 0.750000 0.926748 0.809937
O O12 0.502922 0.860814 0.848420
O O13 0.503196 0.913499 0.742253
O O14 0.500000 0.000000 0.832597
O O15 0.250000 0.789246 0.231622
O O16 0.013273 0.761221 0.299758
O O17 0.032128 0.707660 0.192980
O O18 0.990690 0.848340 0.199900
O O19 0.250000 0.785499 0.857356
O O20 0.250000 0.615733 0.182512
O O21 0.250000 0.070907 0.215656
O O22 0.500000 0.000000 0.191921
#
# Coordination Sequence:
#
# PCOD9377964 Si02
#       8
#     8   8   8   8   8   8   8   8
#     4   9  17  27  40  61  90 127 166 202 241 286
#     4  11  23  37  54  76 105 143 186 226 264 309
#     4  10  20  34  49  70 101 137 177 216 256 303
#     4  11  21  35  56  80 108 137 170 214 266 319
#     4   9  18  32  49  71  98 130 168 213 261 312
#     4  10  20  33  51  76 104 135 172 212 261 316
#     4  10  21  37  55  76 104 137 178 223 269 318
#     4  10  18  27  43  66  96 130 164 202 246 299
#
# _framework density 17.571760000000001
#
# number of rings (size 3 to 8) (size 9 to 14) (size 15 to 20)
#    0.000    2.000    1.250    4.125    0.000    4.500 
#    0.000    0.000    0.000    0.000    0.000    0.875 
#    0.000    2.000    0.000    0.000    0.000    0.000 
#
# Total GULP energy -178321.174598 kJ/mol
# GULP energy per Si atom -5572.536706 kJ/mol
# Density = 1.753177 g / cm^3
# Si number density = 17.571760 Si / 1000 Ang^3
#
#
#
# Elastic Constant Matrix: (Units=GPa)
#
#
# Indices 1 2 3 4 5 6 
#
# 1 36.7478 42.9996 26.4786 0.0000 0.0000 0.0000
# 2 42.9996 125.7076 26.8152 0.0000 0.0000 0.0000
# 3 26.4786 26.8152 54.3796 0.0000 0.0000 0.0000
# 4 0.0000 0.0000 0.0000 16.7371 0.0000 0.0000
# 5 0.0000 0.0000 0.0000 0.0000 14.4726 0.0000
# 6 0.0000 0.0000 0.0000 0.0000 0.0000 32.7468
#
#
#
# Elastic Compliance Matrix: (Units=1/GPa)
#
#
# Indices 1 2 3 4 5 6 
#
# 1 0.062956 -0.016758 -0.022391 0.000000 0.000000 0.000000
# 2 -0.016758 0.013351 0.001576 0.000000 0.000000 0.000000
# 3 -0.022391 0.001576 0.028514 0.000000 0.000000 0.000000
# 4 0.000000 0.000000 0.000000 0.059748 0.000000 0.000000
# 5 0.000000 0.000000 0.000000 0.000000 0.069096 0.000000
# 6 0.000000 0.000000 0.000000 0.000000 0.000000 0.030537
#
#
# Mechanical properties :
#
#
# Convention : Reuss Voigt Hill
#
# Bulk Modulus (GPa) = 33.69750 45.49133 39.59442
# Shear Modulus (GPa) = 14.31683 20.82739 17.57211
#
# Velocity S-wave (km/s) = 2.85750 3.44652 3.16574
# Velocity P-wave (km/s) = 5.48688 6.46398 5.99537
#
# Compressibility (1/GPa) = 0.02967579
#
# Stress axis : x y z
#
# Youngs Moduli (GPa) = 15.88423 74.90046 35.07000
#
# Poissons Ratio (x) = 1.25521 0.78524
# Poissons Ratio (y) = 0.26619 -0.05529
# Poissons Ratio (z) = 0.35566 -0.11808
#
# Static dielectric constant tensor:
#      x y z
#    x 1.590450 0.000000 0.000000 
#    y 0.000000 1.685140 0.000000 
#    z 0.000000 0.000000 1.595300 
# 
# From -- ./inp_files/23299.got.cif
#   From: 2010.05.17/outbox.cif.g08.bks.cpg/sg46_12_cif.got.tgz:23299.got - 2010.06.03 19:58:25.
