data_PCOD9377180
_publ_section_title
;
Structure prediction by ZEFSAII (Michael W. Deem and Ramdas Pophale) SiO2 
 PCOD9377180
Probable space group: I B A 2
;
_chemical_formula_sum "Si O2"
_cell_formula_units_Z 56
_cell_length_a 31.497858
_cell_length_b 5.582133
_cell_length_c 13.268465
_cell_angle_alpha 90.000000
_cell_angle_beta 90.000000
_cell_angle_gamma 90.000000
_cell_volume 2332.930944
_symmetry_space_group_name_H-M "I B A 2"
_symmetry_group_IT_number 45
_symmetry_cell_setting 'orthorhombic'
loop_
_space_group_symop_operation_xyz
x,y,z
-x,-y,z
-x,y,1/2+z
x,-y,1/2+z
1/2+x,1/2+y,1/2+z
1/2-x,1/2-y,1/2+z
1/2-x,1/2+y,z
1/2+x,1/2-y,z
loop_
_atom_site_type_symbol
_atom_site_label
_atom_site_fract_x
_atom_site_fract_y
_atom_site_fract_z
Si Si1 0.633207 0.424407 0.223620
Si Si2 0.584061 0.770623 0.358769
Si Si3 0.356574 0.854097 0.435424
Si Si4 0.741502 0.113117 0.420619
Si Si5 0.227560 0.908384 0.642830
Si Si6 0.082963 0.012259 0.547534
Si Si7 0.000000 0.500000 0.284970
Si Si8 0.000000 0.000000 0.668313
O O1 0.605957 0.654921 0.260993
O O2 0.636807 0.268907 0.325329
O O3 0.681073 0.460748 0.186240
O O4 0.606349 0.334181 0.127346
O O5 0.568435 0.575175 0.437786
O O6 0.622172 0.891453 0.419793
O O7 0.544576 0.943688 0.339895
O O8 0.307041 0.874460 0.455337
O O9 0.381799 0.710380 0.520611
O O10 0.751655 0.361435 0.365704
O O11 0.771219 0.099430 0.519660
O O12 0.243035 0.638382 0.668449
O O13 0.039797 0.079386 0.601828
O O14 0.990855 0.755302 0.229624
#
# Coordination Sequence:
#
# PCOD9377180 Si02
#       8
#     8   8   8   8   8   8   4   4
#     4  11  25  49  71 111 154 207 262 319 396 463
#     4  11  28  46  79 109 158 205 256 332 388 472
#     4  11  27  45  74 110 159 201 262 325 388 466
#     4  10  23  44  70 105 146 197 248 316 376 448
#     4  10  23  41  71 103 143 198 249 315 372 452
#     4  11  26  47  77 113 148 208 260 315 393 470
#     4  12  28  54  78 116 162 198 260 328 396 460
#     4  12  28  50  82 114 154 202 258 316 398 468
#
# _framework density 24.004138999999999
#
# number of rings (size 3 to 8) (size 9 to 14) (size 15 to 20)
#    0.000    1.143    1.429    2.571   16.000    2.286 
#    0.000    0.000    0.000    0.000    0.000    0.000 
#    0.000    0.000    0.000    0.000    0.000    0.000 
#
# Total GULP energy -156412.901898 kJ/mol
# GULP energy per Si atom -5586.175068 kJ/mol
# Density = 2.394950 g / cm^3
# Si number density = 24.004139 Si / 1000 Ang^3
#
#
#
# Elastic Constant Matrix: (Units=GPa)
#
#
# Indices 1 2 3 4 5 6 
#
# 1 118.3955 23.6710 22.2126 0.0000 0.0000 0.0000
# 2 23.6710 128.5333 25.0438 0.0000 0.0000 0.0000
# 3 22.2126 25.0438 96.1930 0.0000 0.0000 0.0000
# 4 0.0000 0.0000 0.0000 17.6783 0.0000 0.0000
# 5 0.0000 0.0000 0.0000 0.0000 19.9883 0.0000
# 6 0.0000 0.0000 0.0000 0.0000 0.0000 32.3480
#
#
#
# Elastic Compliance Matrix: (Units=1/GPa)
#
#
# Indices 1 2 3 4 5 6 
#
# 1 0.009038 -0.001325 -0.001742 0.000000 0.000000 0.000000
# 2 -0.001325 0.008390 -0.001878 0.000000 0.000000 0.000000
# 3 -0.001742 -0.001878 0.011287 0.000000 0.000000 0.000000
# 4 0.000000 0.000000 0.000000 0.056567 0.000000 0.000000
# 5 0.000000 0.000000 0.000000 0.000000 0.050029 0.000000
# 6 0.000000 0.000000 0.000000 0.000000 0.000000 0.030914
#
#
# Mechanical properties :
#
#
# Convention : Reuss Voigt Hill
#
# Bulk Modulus (GPa) = 53.12304 53.88631 53.50467
# Shear Modulus (GPa) = 27.41369 32.14921 29.78145
#
# Velocity S-wave (km/s) = 3.38307 3.66364 3.52615
# Velocity P-wave (km/s) = 6.11875 6.35562 6.23831
#
# Compressibility (1/GPa) = 0.01882422
#
# Stress axis : x y z
#
# Youngs Moduli (GPa) = 110.64376 119.18815 88.59694
#
# Poissons Ratio (x) = 0.15793 0.15434
# Poissons Ratio (y) = 0.14661 0.16642
# Poissons Ratio (z) = 0.19275 0.22388
#
# Static dielectric constant tensor:
#      x y z
#    x 1.854050 0.000000 0.000000 
#    y 0.000000 2.006500 0.000000 
#    z 0.000000 0.000000 1.982680 
# 
# From -- ./inp_files/5298.got.cif
#   From: 2010.05.17/outbox.cif.g08.bks.cpg/sg45_3_cif.got.tgz:5298.got - 2010.06.03 19:51:22.
