data_PCOD9377432
_publ_section_title
;
Structure prediction by ZEFSAII (Michael W. Deem and Ramdas Pophale) SiO2 
 PCOD9377432
Probable space group: I B A 2
;
_chemical_formula_sum "Si O2"
_cell_formula_units_Z 56
_cell_length_a 10.327131
_cell_length_b 20.541348
_cell_length_c 11.788838
_cell_angle_alpha 90.000000
_cell_angle_beta 90.000000
_cell_angle_gamma 90.000000
_cell_volume 2500.803832
_symmetry_space_group_name_H-M "I B A 2"
_symmetry_group_IT_number 45
_symmetry_cell_setting 'orthorhombic'
loop_
_space_group_symop_operation_xyz
x,y,z
-x,-y,z
-x,y,1/2+z
x,-y,1/2+z
1/2+x,1/2+y,1/2+z
1/2-x,1/2-y,1/2+z
1/2-x,1/2+y,z
1/2+x,1/2-y,z
loop_
_atom_site_type_symbol
_atom_site_label
_atom_site_fract_x
_atom_site_fract_y
_atom_site_fract_z
Si Si1 0.702313 0.230965 0.064980
Si Si2 0.221081 0.974808 0.618815
Si Si3 0.047373 0.750560 0.915263
Si Si4 0.500000 0.000000 0.169673
Si Si5 0.386709 0.408740 0.268224
Si Si6 0.122346 0.633856 0.755253
Si Si7 0.613313 0.344685 0.219490
Si Si8 0.000000 0.000000 0.437302
O O1 0.665168 0.163718 0.131668
O O2 0.681766 0.285372 0.159314
O O3 0.841776 0.244571 0.010750
O O4 0.592798 0.245896 0.971587
O O5 0.373095 0.982221 0.597089
O O6 0.195992 0.907199 0.683402
O O7 0.126727 0.988368 0.513321
O O8 0.175771 0.030417 0.705093
O O9 0.052896 0.688702 0.829790
O O10 0.078797 0.814366 0.841359
O O11 0.456166 0.934140 0.238771
O O12 0.261095 0.374975 0.318800
O O13 0.467832 0.365071 0.180646
O O14 0.491574 0.438378 0.354109
#
# Coordination Sequence:
#
# PCOD9377432 Si02
#       8
#     8   8   8   4   8   8   8   4
#     4  11  26  44  70 101 137 184 238 291 358 434
#     4  11  24  43  67 103 141 184 230 291 354 421
#     4  11  26  43  70 102 132 187 237 289 357 432
#     4  10  26  46  68  94 148 192 216 296 366 434
#     4  11  22  44  67 104 135 176 233 295 340 420
#     4  10  25  46  69 100 145 182 239 294 366 427
#     4  11  23  41  71  99 140 174 231 304 345 403
#     4  12  22  38  74 102 134 178 242 288 346 428
#
# _framework density 22.392800999999999
#
# number of rings (size 3 to 8) (size 9 to 14) (size 15 to 20)
#    0.000    1.143    2.857    1.714    8.000    4.571 
#    0.000    3.571    0.000    0.000    0.000    0.000 
#    0.000    0.000    0.000    0.000    0.000    0.000 
#
# Total GULP energy -156085.034895 kJ/mol
# GULP energy per Si atom -5574.465532 kJ/mol
# Density = 2.234183 g / cm^3
# Si number density = 22.392801 Si / 1000 Ang^3
#
#
#
# Elastic Constant Matrix: (Units=GPa)
#
#
# Indices 1 2 3 4 5 6 
#
# 1 115.1471 30.4376 8.4652 0.0000 0.0000 0.0000
# 2 30.4376 91.7429 20.6619 0.0000 0.0000 0.0000
# 3 8.4652 20.6619 35.3846 0.0000 0.0000 0.0000
# 4 0.0000 0.0000 0.0000 -10.0370 0.0001 0.0000
# 5 0.0000 0.0000 0.0000 0.0001 10.8200 0.0000
# 6 0.0000 0.0000 0.0000 0.0000 0.0000 8.1508
#
#
#
# Elastic Compliance Matrix: (Units=1/GPa)
#
#
# Indices 1 2 3 4 5 6 
#
# 1 0.009527 -0.003048 -0.000499 0.000000 0.000000 0.000000
# 2 -0.003048 0.013526 -0.007169 0.000000 0.000000 0.000000
# 3 -0.000499 -0.007169 0.032566 0.000000 0.000000 0.000000
# 4 0.000000 0.000000 0.000000 -0.099631 0.000001 0.000000
# 5 0.000000 0.000000 0.000000 0.000001 0.092422 0.000000
# 6 0.000000 0.000000 0.000000 0.000000 0.000000 0.122687
#
#
# Mechanical properties :
#
#
# Convention : Reuss Voigt Hill
#
# Bulk Modulus (GPa) = 29.25127 40.15601 34.70364
# Shear Modulus (GPa) = 24.51885 13.96742 19.24314
#
# Velocity S-wave (km/s) = 3.31258 2.50020 2.93464
# Velocity P-wave (km/s) = 5.26518 5.12895 5.19751
#
# Compressibility (1/GPa) = 0.03418655
#
# Stress axis : x y z
#
# Youngs Moduli (GPa) = 104.96444 73.93210 30.70654
#
# Poissons Ratio (x) = 0.22537 0.01533
# Poissons Ratio (y) = 0.31997 0.22013
# Poissons Ratio (z) = 0.05239 0.53001
#
# Static dielectric constant tensor:
#      x y z
#    x 1.814620 0.000000 0.000000 
#    y 0.000000 1.991890 0.000000 
#    z 0.000000 0.000000 1.891700 
# 
# From -- ./inp_files/3809.got.cif
#   From: 2010.05.17/outbox.cif.g08.bks.cpg/sg45_2_cif.got.tgz:3809.got - 2010.06.03 19:51:22.
