data_PCOD9377723
_publ_section_title
;
Structure prediction by ZEFSAII (Michael W. Deem and Ramdas Pophale) SiO2 
 PCOD9377723
Probable space group: I B A 2
;
_chemical_formula_sum "Si O2"
_cell_formula_units_Z 32
_cell_length_a 11.055663
_cell_length_b 14.778964
_cell_length_c 8.005156
_cell_angle_alpha 90.000000
_cell_angle_beta 90.000000
_cell_angle_gamma 90.000000
_cell_volume 1307.972409
_symmetry_space_group_name_H-M "I B A 2"
_symmetry_group_IT_number 45
_symmetry_cell_setting 'orthorhombic'
loop_
_space_group_symop_operation_xyz
x,y,z
-x,-y,z
-x,y,1/2+z
x,-y,1/2+z
1/2+x,1/2+y,1/2+z
1/2-x,1/2-y,1/2+z
1/2-x,1/2+y,z
1/2+x,1/2-y,z
loop_
_atom_site_type_symbol
_atom_site_label
_atom_site_fract_x
_atom_site_fract_y
_atom_site_fract_z
Si Si1 0.743415 0.123694 0.012110
Si Si2 0.693301 0.832678 0.018390
Si Si3 0.026006 0.395606 0.216025
Si Si4 0.639720 0.529176 0.691917
O O1 0.601801 0.106127 0.040708
O O2 0.795634 0.066406 0.166614
O O3 0.764127 0.229935 0.016119
O O4 0.816543 0.079069 0.859473
O O5 0.612602 0.851297 0.854160
O O6 0.599878 0.846865 0.173004
O O7 0.804526 0.901924 0.052242
O O8 0.000000 0.500000 0.252273
O O9 0.500000 0.500000 0.685672
#
# Coordination Sequence:
#
# PCOD9377723 Si02
#       4
#     8   8   8   8
#     4  12  28  49  83 115 163 214 270 325 408 477
#     4  12  28  49  85 122 159 216 272 334 407 478
#     4  12  26  52  84 118 160 211 277 337 398 477
#     4  12  28  53  76 121 166 212 264 336 408 481
#
# _framework density 24.465349
#
# number of rings (size 3 to 8) (size 9 to 14) (size 15 to 20)
#    0.000    0.000    2.500    6.000    7.000    0.000 
#    0.000    1.250    0.000    0.000    0.000    0.000 
#    0.000    0.000    0.000    0.000    0.000    0.000 
#
# Total GULP energy -89553.316373 kJ/mol
# GULP energy per Si atom -5597.082273 kJ/mol
# Density = 2.440966 g / cm^3
# Si number density = 24.465349 Si / 1000 Ang^3
#
#
#
# Elastic Constant Matrix: (Units=GPa)
#
#
# Indices 1 2 3 4 5 6 
#
# 1 184.5990 94.5963 34.6506 0.0000 0.0000 0.0000
# 2 94.5963 209.8169 56.3464 0.0000 0.0000 0.0000
# 3 34.6506 56.3464 117.3590 0.0000 0.0000 0.0000
# 4 0.0000 0.0000 0.0000 -115.0857 0.0000 0.0000
# 5 0.0000 0.0000 0.0000 0.0000 9.7433 0.0000
# 6 0.0000 0.0000 0.0000 0.0000 0.0000 11.0193
#
#
#
# Elastic Compliance Matrix: (Units=1/GPa)
#
#
# Indices 1 2 3 4 5 6 
#
# 1 0.007086 -0.003023 -0.000641 0.000000 0.000000 0.000000
# 2 -0.003023 0.006761 -0.002354 0.000000 0.000000 0.000000
# 3 -0.000641 -0.002354 0.009840 0.000000 0.000000 0.000000
# 4 0.000000 0.000000 0.000000 -0.008689 0.000000 0.000000
# 5 0.000000 0.000000 0.000000 0.000000 0.102635 0.000000
# 6 0.000000 0.000000 0.000000 0.000000 0.000000 0.090750
#
#
# Mechanical properties :
#
#
# Convention : Reuss Voigt Hill
#
# Bulk Modulus (GPa) = 85.81631 98.10682 91.96156
# Shear Modulus (GPa) = 22.29138 2.88083 12.58610
#
# Velocity S-wave (km/s) = 3.02179 1.08631 2.27060
# Velocity P-wave (km/s) = 6.87952 6.46226 6.67415
#
# Compressibility (1/GPa) = 0.01165280
#
# Stress axis : x y z
#
# Youngs Moduli (GPa) = 141.11366 147.90813 101.62479
#
# Poissons Ratio (x) = 0.44710 0.06514
# Poissons Ratio (y) = 0.42656 0.23918
# Poissons Ratio (z) = 0.09045 0.34811
#
# Static dielectric constant tensor:
#      x y z
#    x 2.432580 0.000000 0.000000 
#    y 0.000000 2.295350 0.000000 
#    z 0.000000 0.000000 2.146220 
# 
# From -- ./inp_files/1175.got.cif
#   From: 2010.05.17/outbox.cif.g08.bks.cpg/sg45_1_cif.got.tgz:1175.got - 2010.06.03 19:51:22.
