data_PCOD9377473
_publ_section_title
;
Structure prediction by ZEFSAII (Michael W. Deem and Ramdas Pophale) SiO2 
 PCOD9377473
Probable space group: I B A 2
;
_chemical_formula_sum "Si O2"
_cell_formula_units_Z 60
_cell_length_a 30.363243
_cell_length_b 5.035287
_cell_length_c 16.823413
_cell_angle_alpha 90.000000
_cell_angle_beta 90.000000
_cell_angle_gamma 90.000000
_cell_volume 2572.091957
_symmetry_space_group_name_H-M "I B A 2"
_symmetry_group_IT_number 45
_symmetry_cell_setting 'orthorhombic'
loop_
_space_group_symop_operation_xyz
x,y,z
-x,-y,z
-x,y,1/2+z
x,-y,1/2+z
1/2+x,1/2+y,1/2+z
1/2-x,1/2-y,1/2+z
1/2-x,1/2+y,z
1/2+x,1/2-y,z
loop_
_atom_site_type_symbol
_atom_site_label
_atom_site_fract_x
_atom_site_fract_y
_atom_site_fract_z
Si Si1 0.848333 0.499999 0.690340
Si Si2 0.578122 0.307968 0.266936
Si Si3 0.219791 0.755513 0.587009
Si Si4 0.921878 0.192032 0.113745
Si Si5 0.719791 0.744488 0.293670
Si Si6 0.104091 0.035170 0.440340
Si Si7 0.337758 0.048030 0.440340
Si Si8 0.500000 0.000000 0.690340
O O1 0.881224 0.396283 0.758181
O O2 0.814910 0.282897 0.657499
O O3 0.881225 0.603715 0.622500
O O4 0.814910 0.717101 0.723180
O O5 0.585431 0.500001 0.190341
O O6 0.579678 0.418616 0.356076
O O7 0.532032 0.170680 0.246086
O O8 0.239574 0.048364 0.587900
O O9 0.191719 0.648599 0.513236
O O10 0.967968 0.329319 0.134594
O O11 0.920322 0.081382 0.024605
O O12 0.739574 0.451636 0.292780
O O13 0.691719 0.851402 0.367444
O O14 0.146044 0.242118 0.440340
O O15 0.119228 0.731611 0.440340
#
# Coordination Sequence:
#
# PCOD9377473 Si02
#       8
#     8   8   8   8   8   8   8   4
#     4  11  24  41  68  98 144 190 256 301 370 443
#     4  11  25  48  78 110 148 197 240 312 374 457
#     4  12  25  41  64  99 144 194 251 312 369 424
#     4  11  25  48  78 110 148 197 240 312 374 457
#     4  12  25  41  64  99 144 194 251 312 369 424
#     4  12  26  46  81 107 148 196 251 295 370 452
#     4  12  24  47  66 106 141 196 255 308 362 431
#     4  10  26  50  76 118 148 182 242 306 386 462
#
# _framework density 23.327316
#
# number of rings (size 3 to 8) (size 9 to 14) (size 15 to 20)
#    0.000    0.533    2.667    5.200    7.467    0.533 
#    0.000    2.667    0.000    0.000    0.000    0.000 
#    0.000    0.000    0.000    0.000    0.000    0.000 
#
# Total GULP energy -167820.083499 kJ/mol
# GULP energy per Si atom -5594.002783 kJ/mol
# Density = 2.327422 g / cm^3
# Si number density = 23.327316 Si / 1000 Ang^3
#
#
#
# Elastic Constant Matrix: (Units=GPa)
#
#
# Indices 1 2 3 4 5 6 
#
# 1 74.0333 0.4523 47.2864 0.0000 0.0000 0.0000
# 2 0.4523 65.4847 15.9451 0.0000 0.0000 0.0000
# 3 47.2864 15.9451 148.6700 0.0000 0.0000 0.0000
# 4 0.0000 0.0000 0.0000 23.8189 0.0000 0.0000
# 5 0.0000 0.0000 0.0000 0.0000 26.5047 0.0000
# 6 0.0000 0.0000 0.0000 0.0000 0.0000 72.8547
#
#
#
# Elastic Compliance Matrix: (Units=1/GPa)
#
#
# Indices 1 2 3 4 5 6 
#
# 1 0.017048 0.001235 -0.005555 0.000000 0.000000 0.000000
# 2 0.001235 0.015770 -0.002084 0.000000 0.000000 0.000000
# 3 -0.005555 -0.002084 0.008717 0.000000 0.000000 0.000000
# 4 0.000000 0.000000 0.000000 0.041983 0.000000 0.000000
# 5 0.000000 0.000000 0.000000 0.000000 0.037729 0.000000
# 6 0.000000 0.000000 0.000000 0.000000 0.000000 0.013726
#
#
# Mechanical properties :
#
#
# Convention : Reuss Voigt Hill
#
# Bulk Modulus (GPa) = 34.81157 46.17284 40.49221
# Shear Modulus (GPa) = 31.77509 39.60259 35.68884
#
# Velocity S-wave (km/s) = 3.69472 4.12478 3.91566
# Velocity P-wave (km/s) = 5.75819 6.52085 6.15135
#
# Compressibility (1/GPa) = 0.02872608
#
# Stress axis : x y z
#
# Youngs Moduli (GPa) = 58.65863 63.41286 114.72396
#
# Poissons Ratio (x) = -0.07830 0.63726
# Poissons Ratio (y) = -0.07243 0.23909
# Poissons Ratio (z) = 0.32583 0.13216
#
# Static dielectric constant tensor:
#      x y z
#    x 1.840730 0.000000 0.000000 
#    y 0.000000 1.914030 0.000000 
#    z 0.000000 0.000000 2.026780 
# 
# From -- ./inp_files/8538.got.cif
#   From: 2010.05.17/outbox.cif.g08.bks.cpg/sg45_5_cif.got.tgz:8538.got - 2010.06.03 19:51:22.
