data_PCOD9377035
_publ_section_title
;
Structure prediction by ZEFSAII (Michael W. Deem and Ramdas Pophale) SiO2 
 PCOD9377035
Probable space group: I B A 2
;
_chemical_formula_sum "Si O2"
_cell_formula_units_Z 40
_cell_length_a 18.836676
_cell_length_b 13.698570
_cell_length_c 5.401652
_cell_angle_alpha 90.000000
_cell_angle_beta 90.000000
_cell_angle_gamma 90.000000
_cell_volume 1393.818108
_symmetry_space_group_name_H-M "I B A 2"
_symmetry_group_IT_number 45
_symmetry_cell_setting 'orthorhombic'
loop_
_space_group_symop_operation_xyz
x,y,z
-x,-y,z
-x,y,1/2+z
x,-y,1/2+z
1/2+x,1/2+y,1/2+z
1/2-x,1/2-y,1/2+z
1/2-x,1/2+y,z
1/2+x,1/2-y,z
loop_
_atom_site_type_symbol
_atom_site_label
_atom_site_fract_x
_atom_site_fract_y
_atom_site_fract_z
Si Si1 0.223474 0.410672 0.250000
Si Si2 0.545719 0.248199 0.802086
Si Si3 0.590096 0.034113 0.675068
Si Si4 0.129669 0.032128 0.269214
Si Si5 0.325291 0.718787 0.489491
O O1 0.167918 0.485830 0.133384
O O2 0.294774 0.472788 0.307655
O O3 0.187141 0.332290 0.435797
O O4 0.250735 0.330866 0.051122
O O5 0.493025 0.264979 0.564563
O O6 0.573241 0.136518 0.798590
O O7 0.619450 0.297659 0.714434
O O8 0.563215 0.039284 0.391900
O O9 0.091850 0.002150 0.522767
O O10 0.144756 0.147727 0.276351
#
# Coordination Sequence:
#
# PCOD9377035 Si02
#       5
#     8   8   8   8   8
#     4  11  24  42  74 118 153 185 256 316 418 440
#     4  12  30  52  73 108 156 214 260 296 366 466
#     4  12  25  46  74 107 152 195 252 316 377 460
#     4  10  22  41  67 105 150 183 238 304 391 456
#     4  11  25  43  78 108 157 203 242 333 373 465
#
# _framework density 28.698146999999999
#
# number of rings (size 3 to 8) (size 9 to 14) (size 15 to 20)
#    0.000    0.800    2.000    4.800    5.600    5.600 
#    0.000    0.000    0.000   14.400    0.000    0.000 
#    0.000    0.000    0.000    0.000    0.000    0.000 
#
# Total GULP energy -111774.090785 kJ/mol
# GULP energy per Si atom -5588.704539 kJ/mol
# Density = 2.863283 g / cm^3
# Si number density = 28.698147 Si / 1000 Ang^3
#
#
#
# Elastic Constant Matrix: (Units=GPa)
#
#
# Indices 1 2 3 4 5 6 
#
# 1 140.7339 45.9626 17.2790 0.0000 0.0000 0.0000
# 2 45.9626 176.7890 17.2205 0.0000 0.0000 0.0000
# 3 17.2790 17.2205 185.0897 0.0000 0.0000 0.0000
# 4 0.0000 0.0000 0.0000 44.4594 0.0000 0.0000
# 5 0.0000 0.0000 0.0000 0.0000 44.5214 0.0000
# 6 0.0000 0.0000 0.0000 0.0000 0.0000 45.1143
#
#
#
# Elastic Compliance Matrix: (Units=1/GPa)
#
#
# Indices 1 2 3 4 5 6 
#
# 1 0.007819 -0.001980 -0.000546 0.000000 0.000000 0.000000
# 2 -0.001980 0.006209 -0.000393 0.000000 0.000000 0.000000
# 3 -0.000546 -0.000393 0.005490 0.000000 0.000000 0.000000
# 4 0.000000 0.000000 0.000000 0.022492 0.000000 0.000000
# 5 0.000000 0.000000 0.000000 0.000000 0.022461 0.000000
# 6 0.000000 0.000000 0.000000 0.000000 0.000000 0.022166
#
#
# Mechanical properties :
#
#
# Convention : Reuss Voigt Hill
#
# Bulk Modulus (GPa) = 73.08803 73.72632 73.40718
# Shear Modulus (GPa) = 51.52736 54.96239 53.24488
#
# Velocity S-wave (km/s) = 4.24192 4.38104 4.31204
# Velocity P-wave (km/s) = 7.03669 7.16501 7.10114
#
# Compressibility (1/GPa) = 0.01368213
#
# Stress axis : x y z
#
# Youngs Moduli (GPa) = 127.89072 161.04544 182.13976
#
# Poissons Ratio (x) = 0.31882 0.09941
# Poissons Ratio (y) = 0.25319 0.07156
# Poissons Ratio (z) = 0.06980 0.06327
#
# Static dielectric constant tensor:
#      x y z
#    x 2.271720 0.000000 0.000000 
#    y 0.000000 2.237390 0.000000 
#    z 0.000000 0.000000 2.447480 
# 
# From -- ./inp_files/510.got.cif
#   From: 2010.05.17/outbox.cif.g08.bks.cpg/sg45_1_cif.got.tgz:510.got - 2010.06.03 19:51:22.
