data_PCOD9377403
_publ_section_title
;
Structure prediction by ZEFSAII (Michael W. Deem and Ramdas Pophale) SiO2 
 PCOD9377403
Probable space group: I B A 2
;
_chemical_formula_sum "Si O2"
_cell_formula_units_Z 48
_cell_length_a 9.988160
_cell_length_b 17.372168
_cell_length_c 12.731004
_cell_angle_alpha 90.000000
_cell_angle_beta 90.000000
_cell_angle_gamma 90.000000
_cell_volume 2209.032808
_symmetry_space_group_name_H-M "I B A 2"
_symmetry_group_IT_number 45
_symmetry_cell_setting 'orthorhombic'
loop_
_space_group_symop_operation_xyz
x,y,z
-x,-y,z
-x,y,1/2+z
x,-y,1/2+z
1/2+x,1/2+y,1/2+z
1/2-x,1/2-y,1/2+z
1/2-x,1/2+y,z
1/2+x,1/2-y,z
loop_
_atom_site_type_symbol
_atom_site_label
_atom_site_fract_x
_atom_site_fract_y
_atom_site_fract_z
Si Si1 0.620133 0.151864 0.501420
Si Si2 0.411849 0.414565 0.457179
Si Si3 0.981155 0.224207 0.834046
Si Si4 0.000000 0.500000 0.917202
Si Si5 0.223737 0.025096 0.313440
Si Si6 0.500000 0.500000 0.148465
Si Si7 0.223259 0.694270 0.229649
O O1 0.768878 0.127552 0.465820
O O2 0.566985 0.220071 0.427783
O O3 0.521256 0.077433 0.487493
O O4 0.650476 0.179050 0.619553
O O5 0.497979 0.361332 0.380231
O O6 0.364973 0.498051 0.412847
O O7 0.472681 0.427694 0.572339
O O8 0.872658 0.228679 0.739811
O O9 0.123355 0.253185 0.794832
O O10 0.871269 0.495596 0.841608
O O11 0.133521 0.991561 0.218446
O O12 0.254432 0.112737 0.286448
#
# Coordination Sequence:
#
# PCOD9377403 Si02
#       7
#     8   8   8   4   8   4   8
#     4  11  25  47  72 106 144 194 245 300 367 440
#     4  11  25  45  71 108 144 185 241 307 368 421
#     4  12  26  48  71 107 153 188 236 312 362 445
#     4  10  24  50  70 102 148 184 246 314 356 422
#     4  11  24  46  73 103 145 187 248 303 355 434
#     4  12  22  44  76 104 138 188 240 294 354 450
#     4  12  26  46  74 106 143 196 247 290 377 435
#
# _framework density 21.728967000000001
#
# number of rings (size 3 to 8) (size 9 to 14) (size 15 to 20)
#    0.000    0.667    5.000    2.500    2.333    0.667 
#    0.000    0.000    0.000    0.000    0.000    0.000 
#    0.000    0.000    0.000    0.000    0.000    0.000 
#
# Total GULP energy -133894.216916 kJ/mol
# GULP energy per Si atom -5578.925705 kJ/mol
# Density = 2.167951 g / cm^3
# Si number density = 21.728967 Si / 1000 Ang^3
#
#
#
# Elastic Constant Matrix: (Units=GPa)
#
#
# Indices 1 2 3 4 5 6 
#
# 1 141.8592 23.7387 44.7388 0.0000 -0.0001 0.0000
# 2 23.7387 102.5895 32.2810 0.0000 0.0000 0.0000
# 3 44.7388 32.2810 93.8200 0.0000 -0.0003 0.0000
# 4 0.0000 0.0000 0.0000 37.6260 -0.0001 0.0000
# 5 -0.0001 0.0000 -0.0003 -0.0001 717.5522 0.0000
# 6 0.0000 0.0000 0.0000 0.0000 0.0000 34.2926
#
#
#
# Elastic Compliance Matrix: (Units=1/GPa)
#
#
# Indices 1 2 3 4 5 6 
#
# 1 0.008350 -0.000762 -0.003720 0.000000 0.000000 0.000000
# 2 -0.000762 0.011001 -0.003422 0.000000 0.000000 0.000000
# 3 -0.003720 -0.003422 0.013610 0.000000 0.000000 0.000000
# 4 0.000000 0.000000 0.000000 0.026577 0.000000 0.000000
# 5 0.000000 0.000000 0.000000 0.000000 0.001394 0.000000
# 6 0.000000 0.000000 0.000000 0.000000 0.000000 0.029161
#
#
# Mechanical properties :
#
#
# Convention : Reuss Voigt Hill
#
# Bulk Modulus (GPa) = 58.29552 59.97621 59.13586
# Shear Modulus (GPa) = 44.79645 173.72816 109.26231
#
# Velocity S-wave (km/s) = 4.54541 8.95131 7.09883
# Velocity P-wave (km/s) = 7.37797 11.59726 9.71933
#
# Compressibility (1/GPa) = 0.01715398
#
# Stress axis : x y z
#
# Youngs Moduli (GPa) = 119.76386 90.90455 73.47667
#
# Poissons Ratio (x) = 0.06924 0.27330
# Poissons Ratio (y) = 0.09122 0.25142
# Poissons Ratio (z) = 0.44547 0.31106
#
# Static dielectric constant tensor:
#      x y z
#    x 1.817680 0.000000 0.000000 
#    y 0.000000 1.791130 0.000000 
#    z 0.000000 0.000000 1.783940 
# 
# From -- ./inp_files/5638.got.cif
#   From: 2010.05.17/outbox.cif.g08.bks.cpg/sg45_3_cif.got.tgz:5638.got - 2010.06.03 19:51:22.
