data_PCOD9377772
_publ_section_title
;
Structure prediction by ZEFSAII (Michael W. Deem and Ramdas Pophale) SiO2 
 PCOD9377772
Probable space group: I M A 2
;
_chemical_formula_sum "Si O2"
_cell_formula_units_Z 40
_cell_length_a 19.207885
_cell_length_b 15.358342
_cell_length_c 8.404929
_cell_angle_alpha 90.000000
_cell_angle_beta 90.000000
_cell_angle_gamma 90.000000
_cell_volume 2479.464703
_symmetry_space_group_name_H-M "I M A 2"
_symmetry_group_IT_number 46
_symmetry_cell_setting 'orthorhombic'
loop_
_space_group_symop_operation_xyz
x,y,z
-x,-y,z
1/2-x,y,z
1/2+x,-y,z
1/2+x,1/2+y,1/2+z
1/2-x,1/2-y,1/2+z
-x,1/2+y,1/2+z
x,1/2-y,1/2+z
loop_
_atom_site_type_symbol
_atom_site_label
_atom_site_fract_x
_atom_site_fract_y
_atom_site_fract_z
Si Si1 0.250000 0.719087 0.467070
Si Si2 0.250000 0.616010 0.138877
Si Si3 0.099321 0.655166 0.516866
Si Si4 0.467591 0.132767 0.612183
Si Si5 0.988968 0.207341 0.305313
Si Si6 0.895502 0.463870 0.223979
O O1 0.250000 0.684002 0.286985
O O2 0.250000 0.822913 0.484946
O O3 0.178965 0.682803 0.543153
O O4 0.180065 0.561014 0.159041
O O5 0.063172 0.732435 0.411945
O O6 0.056234 0.652432 0.679675
O O7 0.098822 0.568864 0.407057
O O8 0.464302 0.151582 0.425115
O O9 0.465924 0.223610 0.705454
O O10 0.545002 0.093027 0.637501
O O11 0.415671 0.062850 0.687681
#
# Coordination Sequence:
#
# PCOD9377772 Si02
#       6
#     4   4   8   8   8   8
#     4  10  16  24  42  68  98 124 146 168 217 284
#     4  10  18  28  46  68  94 128 150 178 225 278
#     4   9  16  26  43  69  95 123 150 182 224 279
#     4   9  17  31  46  65  89 118 156 196 229 271
#     4   9  16  28  46  63  86 120 160 191 224 269
#     4   9  18  30  45  67  96 119 148 191 233 272
#
# _framework density 16.132514
#
# number of rings (size 3 to 8) (size 9 to 14) (size 15 to 20)
#    0.000    2.800    0.000    4.800    0.000    0.000 
#    0.000   12.000    0.000    1.200    0.000    0.000 
#    0.000    0.000    0.000    0.000    0.000    0.800 
#
# Total GULP energy -111392.260023 kJ/mol
# GULP energy per Si atom -5569.613001 kJ/mol
# Density = 1.609580 g / cm^3
# Si number density = 16.132514 Si / 1000 Ang^3
#
#
#
# Elastic Constant Matrix: (Units=GPa)
#
#
# Indices 1 2 3 4 5 6 
#
# 1 76.7620 42.8093 29.7861 0.0000 0.0000 0.0000
# 2 42.8093 71.3791 42.6539 0.0000 0.0000 0.0000
# 3 29.7861 42.6539 78.3319 0.0000 0.0000 0.0000
# 4 0.0000 0.0000 0.0000 18.9084 0.0000 0.0000
# 5 0.0000 0.0000 0.0000 0.0000 17.3139 0.0000
# 6 0.0000 0.0000 0.0000 0.0000 0.0000 10.3236
#
#
#
# Elastic Compliance Matrix: (Units=1/GPa)
#
#
# Indices 1 2 3 4 5 6 
#
# 1 0.019703 -0.010880 -0.001568 0.000000 0.000000 0.000000
# 2 -0.010880 0.026775 -0.010443 0.000000 0.000000 0.000000
# 3 -0.001568 -0.010443 0.019049 0.000000 0.000000 0.000000
# 4 0.000000 0.000000 0.000000 0.052887 0.000000 0.000000
# 5 0.000000 0.000000 0.000000 0.000000 0.057757 0.000000
# 6 0.000000 0.000000 0.000000 0.000000 0.000000 0.096865
#
#
# Mechanical properties :
#
#
# Convention : Reuss Voigt Hill
#
# Bulk Modulus (GPa) = 50.64276 50.77460 50.70868
# Shear Modulus (GPa) = 15.36575 16.72411 16.04493
#
# Velocity S-wave (km/s) = 3.08956 3.22323 3.15710
# Velocity P-wave (km/s) = 6.64734 6.73751 6.69258
#
# Compressibility (1/GPa) = 0.01974616
#
# Stress axis : x y z
#
# Youngs Moduli (GPa) = 50.75283 37.34805 52.49729
#
# Poissons Ratio (x) = 0.40635 0.08230
# Poissons Ratio (y) = 0.55220 0.54821
# Poissons Ratio (z) = 0.07957 0.39001
#
# Static dielectric constant tensor:
#      x y z
#    x 1.519510 0.000000 0.000000 
#    y 0.000000 1.552980 0.000000 
#    z 0.000000 0.000000 1.582840 
# 
# From -- ./inp_files/6499.got.cif
#   From: 2010.05.17/outbox.cif.g08.bks.cpg/sg46_4_cif.got.tgz:6499.got - 2010.06.03 19:58:25.
