data_PCOD9377304
_publ_section_title
;
Structure prediction by ZEFSAII (Michael W. Deem and Ramdas Pophale) SiO2 
 PCOD9377304
Probable space group: I B A 2
;
_chemical_formula_sum "Si O2"
_cell_formula_units_Z 48
_cell_length_a 8.098637
_cell_length_b 27.794858
_cell_length_c 8.828743
_cell_angle_alpha 90.000000
_cell_angle_beta 90.000000
_cell_angle_gamma 90.000000
_cell_volume 1987.354158
_symmetry_space_group_name_H-M "I B A 2"
_symmetry_group_IT_number 45
_symmetry_cell_setting 'orthorhombic'
loop_
_space_group_symop_operation_xyz
x,y,z
-x,-y,z
-x,y,1/2+z
x,-y,1/2+z
1/2+x,1/2+y,1/2+z
1/2-x,1/2-y,1/2+z
1/2-x,1/2+y,z
1/2+x,1/2-y,z
loop_
_atom_site_type_symbol
_atom_site_label
_atom_site_fract_x
_atom_site_fract_y
_atom_site_fract_z
Si Si1 0.635926 0.293621 0.245070
Si Si2 0.432207 0.763312 0.953123
Si Si3 0.336019 0.848106 0.539330
Si Si4 0.000000 0.000000 0.162015
Si Si5 0.006007 0.404393 0.294945
Si Si6 0.000000 0.500000 0.600871
Si Si7 0.279288 0.460394 0.925973
O O1 0.484078 0.284141 0.357096
O O2 0.793201 0.289214 0.354785
O O3 0.669532 0.338833 0.134851
O O4 0.623499 0.250810 0.121334
O O5 0.589898 0.798422 0.972271
O O6 0.464673 0.865756 0.667005
O O7 0.349092 0.886308 0.404055
O O8 0.079781 0.959503 0.053313
O O9 0.863851 0.976770 0.271325
O O10 0.840698 0.415476 0.394709
O O11 0.028372 0.453719 0.203670
O O12 0.842490 0.501615 0.491539
#
# Coordination Sequence:
#
# PCOD9377304 Si02
#       7
#     8   8   8   4   8   4   8
#     4  12  23  44  75 105 142 195 234 296 378 461
#     4  12  23  44  75 106 144 191 237 295 386 464
#     4  12  25  42  71 109 145 176 248 317 353 420
#     4  10  24  42  70 102 144 178 254 296 370 436
#     4  12  25  42  70 107 141 186 252 307 349 428
#     4  12  24  42  80 102 136 202 260 284 360 442
#     4  11  23  43  71 103 139 194 244 297 361 435
#
# _framework density 24.152716000000002
#
# number of rings (size 3 to 8) (size 9 to 14) (size 15 to 20)
#    0.000    0.333    8.333    0.500    0.000    0.000 
#    0.000    1.667    0.000    0.000    0.000    0.000 
#    0.000    0.000    0.000    0.000    0.000    0.000 
#
# Total GULP energy -134074.021229 kJ/mol
# GULP energy per Si atom -5586.417551 kJ/mol
# Density = 2.409774 g / cm^3
# Si number density = 24.152716 Si / 1000 Ang^3
#
#
#
# Elastic Constant Matrix: (Units=GPa)
#
#
# Indices 1 2 3 4 5 6 
#
# 1 47.1594 -3.6082 25.6015 0.0001 0.0002 0.0000
# 2 -3.6082 62.9250 25.1147 0.0001 0.0000 0.0000
# 3 25.6015 25.1147 153.8680 0.0002 -0.0004 0.0007
# 4 0.0001 0.0001 0.0002 45.3353 0.0001 0.0000
# 5 0.0002 0.0000 -0.0004 0.0001 54.3223 0.0000
# 6 0.0000 0.0000 0.0007 0.0000 0.0000 28.1178
#
#
#
# Elastic Compliance Matrix: (Units=1/GPa)
#
#
# Indices 1 2 3 4 5 6 
#
# 1 0.023884 0.003162 -0.004490 0.000000 0.000000 0.000000
# 2 0.003162 0.017418 -0.003369 0.000000 0.000000 0.000000
# 3 -0.004490 -0.003369 0.007796 0.000000 0.000000 0.000000
# 4 0.000000 0.000000 0.000000 0.022058 0.000000 0.000000
# 5 0.000000 0.000000 0.000000 0.000000 0.018409 0.000000
# 6 0.000000 0.000000 0.000000 0.000000 0.000000 0.035565
#
#
# Mechanical properties :
#
#
# Convention : Reuss Voigt Hill
#
# Bulk Modulus (GPa) = 25.18694 39.79651 32.49172
# Shear Modulus (GPa) = 33.83901 40.01138 36.92520
#
# Velocity S-wave (km/s) = 3.74711 4.07455 3.91426
# Velocity P-wave (km/s) = 5.40111 6.21681 5.82326
#
# Compressibility (1/GPa) = 0.03970311
#
# Stress axis : x y z
#
# Youngs Moduli (GPa) = 41.86889 57.41225 128.26992
#
# Poissons Ratio (x) = -0.18152 0.57594
# Poissons Ratio (y) = -0.13237 0.43215
# Poissons Ratio (z) = 0.18799 0.19342
#
# Static dielectric constant tensor:
#      x y z
#    x 1.981290 0.000000 0.000000 
#    y 0.000000 1.954070 0.000000 
#    z 0.000000 0.000000 1.934540 
# 
# From -- ./inp_files/1095.got.cif
#   From: 2010.05.17/outbox.cif.g08.bks.cpg/sg45_1_cif.got.tgz:1095.got - 2010.06.03 19:51:22.
