data_PCOD9377891
_publ_section_title
;
Structure prediction by ZEFSAII (Michael W. Deem and Ramdas Pophale) SiO2 
 PCOD9377891
Probable space group: I M A 2
;
_chemical_formula_sum "Si O2"
_cell_formula_units_Z 48
_cell_length_a 12.044235
_cell_length_b 17.505832
_cell_length_c 11.428329
_cell_angle_alpha 90.000000
_cell_angle_beta 90.000000
_cell_angle_gamma 90.000000
_cell_volume 2409.598651
_symmetry_space_group_name_H-M "I M A 2"
_symmetry_group_IT_number 46
_symmetry_cell_setting 'orthorhombic'
loop_
_space_group_symop_operation_xyz
x,y,z
-x,-y,z
1/2-x,y,z
1/2+x,-y,z
1/2+x,1/2+y,1/2+z
1/2-x,1/2-y,1/2+z
-x,1/2+y,1/2+z
x,1/2-y,1/2+z
loop_
_atom_site_type_symbol
_atom_site_label
_atom_site_fract_x
_atom_site_fract_y
_atom_site_fract_z
Si Si1 0.975653 0.652692 0.645490
Si Si2 0.750000 0.763094 0.894406
Si Si3 0.250000 0.405021 0.577897
Si Si4 0.750000 0.485435 0.361834
Si Si5 0.564589 0.684364 0.035662
Si Si6 0.880986 0.181420 0.365663
Si Si7 0.750000 0.876678 0.685920
Si Si8 0.625937 0.145701 0.928137
O O1 0.861059 0.606492 0.653103
O O2 0.953425 0.742306 0.619162
O O3 0.057720 0.646117 0.754185
O O4 0.036590 0.628186 0.525903
O O5 0.750000 0.800354 0.767325
O O6 0.750000 0.833233 0.987072
O O7 0.641213 0.714490 0.927236
O O8 0.250000 0.478382 0.492886
O O9 0.750000 0.552669 0.271440
O O10 0.854420 0.428269 0.349005
O O11 0.640939 0.626373 0.106120
O O12 0.448550 0.657907 0.981956
O O13 0.750000 0.165517 0.368360
O O14 0.896016 0.274401 0.364222
O O15 0.750000 0.156575 0.983583
#
# Coordination Sequence:
#
# PCOD9377891 Si02
#       8
#     8   4   4   4   8   8   4   8
#     4  10  18  32  53  80 114 151 191 241 300 331
#     4   8  15  29  45  70 110 146 182 225 289 342
#     4   9  19  30  49  79 113 151 180 233 281 344
#     4   9  19  37  55  85 122 154 183 229 287 363
#     4   9  18  29  47  80 114 144 189 242 291 344
#     4  10  19  32  53  80 116 150 194 244 290 338
#     4  10  17  30  55  82 117 159 185 235 305 345
#     4   8  18  35  54  84 115 148 189 236 281 348
#
# _framework density 19.920331000000001
#
# number of rings (size 3 to 8) (size 9 to 14) (size 15 to 20)
#    0.500    2.333    0.000    2.000    0.000    4.000 
#    0.000    0.833    0.000    0.000    2.167   14.000 
#    0.000    0.000    0.000    0.000    0.000    0.000 
#
# Total GULP energy -133749.255753 kJ/mol
# GULP energy per Si atom -5572.885656 kJ/mol
# Density = 1.987499 g / cm^3
# Si number density = 19.920331 Si / 1000 Ang^3
#
#
#
# Elastic Constant Matrix: (Units=GPa)
#
#
# Indices 1 2 3 4 5 6 
#
# 1 136.4281 23.7961 49.3259 0.0000 0.0000 0.0000
# 2 23.7961 36.8578 27.1098 -0.0001 0.0000 0.0000
# 3 49.3259 27.1098 66.4180 -0.0002 0.0000 -0.0001
# 4 0.0000 -0.0001 -0.0002 18.1125 0.0000 -0.0001
# 5 0.0000 0.0000 0.0000 0.0000 28.9079 0.0000
# 6 0.0000 0.0000 -0.0001 -0.0001 0.0000 11.6406
#
#
#
# Elastic Compliance Matrix: (Units=1/GPa)
#
#
# Indices 1 2 3 4 5 6 
#
# 1 0.010073 -0.001430 -0.006897 0.000000 0.000000 0.000000
# 2 -0.001430 0.038974 -0.014846 0.000000 0.000000 0.000000
# 3 -0.006897 -0.014846 0.026238 0.000000 0.000000 0.000000
# 4 0.000000 0.000000 0.000000 0.055211 0.000000 0.000000
# 5 0.000000 0.000000 0.000000 0.000000 0.034593 0.000000
# 6 0.000000 0.000000 0.000000 0.000000 0.000000 0.085906
#
#
# Mechanical properties :
#
#
# Convention : Reuss Voigt Hill
#
# Bulk Modulus (GPa) = 34.55571 48.90749 41.73160
# Shear Modulus (GPa) = 16.28734 21.03034 18.65884
#
# Velocity S-wave (km/s) = 2.86251 3.25271 3.06383
# Velocity P-wave (km/s) = 5.32071 6.22187 5.78885
#
# Compressibility (1/GPa) = 0.02893878
#
# Stress axis : x y z
#
# Youngs Moduli (GPa) = 99.27569 25.65798 38.11302
#
# Poissons Ratio (x) = 0.03670 0.26286
# Poissons Ratio (y) = 0.14201 0.56582
# Poissons Ratio (z) = 0.68469 0.38091
#
# Static dielectric constant tensor:
#      x y z
#    x 1.747710 0.000000 0.000000 
#    y 0.000000 1.706370 0.000000 
#    z 0.000000 0.000000 1.695930 
# 
# From -- ./inp_files/10365.got.cif
#   From: 2010.05.17/outbox.cif.g08.bks.cpg/sg46_6_cif.got.tgz:10365.got - 2010.06.03 19:58:25.
