data_PCOD9377664
_publ_section_title
;
Structure prediction by ZEFSAII (Michael W. Deem and Ramdas Pophale) SiO2 
 PCOD9377664
Probable space group: I B A 2
;
_chemical_formula_sum "Si O2"
_cell_formula_units_Z 40
_cell_length_a 20.905311
_cell_length_b 7.900056
_cell_length_c 9.128320
_cell_angle_alpha 90.000000
_cell_angle_beta 90.000000
_cell_angle_gamma 90.000000
_cell_volume 1507.570598
_symmetry_space_group_name_H-M "I B A 2"
_symmetry_group_IT_number 45
_symmetry_cell_setting 'orthorhombic'
loop_
_space_group_symop_operation_xyz
x,y,z
-x,-y,z
-x,y,1/2+z
x,-y,1/2+z
1/2+x,1/2+y,1/2+z
1/2-x,1/2-y,1/2+z
1/2-x,1/2+y,z
1/2+x,1/2-y,z
loop_
_atom_site_type_symbol
_atom_site_label
_atom_site_fract_x
_atom_site_fract_y
_atom_site_fract_z
Si Si1 0.947144 0.375664 0.959730
Si Si2 0.185296 0.161600 0.174179
Si Si3 0.324896 0.054712 0.159052
Si Si4 0.132222 0.858542 0.364631
Si Si5 0.003153 0.821732 0.721301
O O1 0.000000 0.500000 0.888149
O O2 0.940685 0.237739 0.829795
O O3 0.880577 0.431008 0.035077
O O4 0.987505 0.310406 0.097293
O O5 0.255594 0.119016 0.108505
O O6 0.182508 0.360821 0.210888
O O7 0.169255 0.018032 0.293409
O O8 0.138270 0.136875 0.037733
O O9 0.341301 0.185870 0.289906
O O10 0.058317 0.850138 0.323971
O O11 0.000000 0.000000 0.639931
#
# Coordination Sequence:
#
# PCOD9377664 Si02
#       5
#     8   8   8   8   8
#     4  11  25  49  70 110 146 198 249 312 384 457
#     4  12  27  50  78 113 157 204 263 322 400 472
#     4  11  27  47  77 110 157 199 259 324 390 472
#     4  11  29  49  76 116 148 209 255 323 393 469
#     4  11  26  45  76 105 147 194 250 309 381 458
#
# _framework density 26.532754000000001
#
# number of rings (size 3 to 8) (size 9 to 14) (size 15 to 20)
#    0.000    0.800    2.000    2.400   14.000    3.200 
#    0.000    0.000    0.000    0.000    0.000    0.000 
#    0.000    0.000    0.000    0.000    0.000    0.000 
#
# Total GULP energy -112019.307405 kJ/mol
# GULP energy per Si atom -5600.965370 kJ/mol
# Density = 2.647236 g / cm^3
# Si number density = 26.532754 Si / 1000 Ang^3
#
#
#
# Elastic Constant Matrix: (Units=GPa)
#
#
# Indices 1 2 3 4 5 6 
#
# 1 95.2495 35.7422 -16.0346 0.0000 0.0000 0.0000
# 2 35.7422 217.6216 50.9219 0.0000 0.0000 0.0000
# 3 -16.0346 50.9219 90.3496 0.0000 0.0000 0.0000
# 4 0.0000 0.0000 0.0000 30.9406 0.0000 0.0000
# 5 0.0000 0.0000 0.0000 0.0000 37.1439 0.0000
# 6 0.0000 0.0000 0.0000 0.0000 0.0000 37.6126
#
#
#
# Elastic Compliance Matrix: (Units=1/GPa)
#
#
# Indices 1 2 3 4 5 6 
#
# 1 0.012226 -0.002898 0.003803 0.000000 0.000000 0.000000
# 2 -0.002898 0.005980 -0.003885 0.000000 0.000000 0.000000
# 3 0.003803 -0.003885 0.013933 0.000000 0.000000 0.000000
# 4 0.000000 0.000000 0.000000 0.032320 0.000000 0.000000
# 5 0.000000 0.000000 0.000000 0.000000 0.026922 0.000000
# 6 0.000000 0.000000 0.000000 0.000000 0.000000 0.026587
#
#
# Mechanical properties :
#
#
# Convention : Reuss Voigt Hill
#
# Bulk Modulus (GPa) = 38.19710 60.49775 49.34742
# Shear Modulus (GPa) = 37.69203 43.31217 40.50210
#
# Velocity S-wave (km/s) = 3.77315 4.04469 3.91128
# Velocity P-wave (km/s) = 5.78011 6.68306 6.24792
#
# Compressibility (1/GPa) = 0.02618000
#
# Stress axis : x y z
#
# Youngs Moduli (GPa) = 81.78994 167.22122 71.77429
#
# Poissons Ratio (x) = 0.48461 -0.27297
# Poissons Ratio (y) = 0.23703 0.27883
# Poissons Ratio (z) = -0.31106 0.64961
#
# Static dielectric constant tensor:
#      x y z
#    x 2.173120 0.000000 0.000000 
#    y 0.000000 2.319080 0.000000 
#    z 0.000000 0.000000 1.944130 
# 
# From -- ./inp_files/2451.got.cif
#   From: 2010.05.17/outbox.cif.g08.bks.cpg/sg45_2_cif.got.tgz:2451.got - 2010.06.03 19:51:22.
