data_PCOD9377460
_publ_section_title
;
Structure prediction by ZEFSAII (Michael W. Deem and Ramdas Pophale) SiO2 
 PCOD9377460
Probable space group: I B A 2
;
_chemical_formula_sum "Si O2"
_cell_formula_units_Z 36
_cell_length_a 8.391349
_cell_length_b 10.726962
_cell_length_c 18.806695
_cell_angle_alpha 90.000000
_cell_angle_beta 90.000000
_cell_angle_gamma 90.000000
_cell_volume 1692.859860
_symmetry_space_group_name_H-M "I B A 2"
_symmetry_group_IT_number 45
_symmetry_cell_setting 'orthorhombic'
loop_
_space_group_symop_operation_xyz
x,y,z
-x,-y,z
-x,y,1/2+z
x,-y,1/2+z
1/2+x,1/2+y,1/2+z
1/2-x,1/2-y,1/2+z
1/2-x,1/2+y,z
1/2+x,1/2-y,z
loop_
_atom_site_type_symbol
_atom_site_label
_atom_site_fract_x
_atom_site_fract_y
_atom_site_fract_z
Si Si1 0.559516 0.131515 0.750000
Si Si2 0.590511 0.620380 0.700887
Si Si3 0.909963 0.657666 0.406317
Si Si4 0.500000 0.500000 0.562724
Si Si5 0.741388 0.905414 0.452728
O O1 0.500777 0.251501 0.708524
O O2 0.747199 0.130958 0.742888
O O3 0.492090 0.143447 0.829569
O O4 0.500000 0.000000 0.719939
O O5 0.500000 0.500000 0.731772
O O6 0.597318 0.588981 0.617105
O O7 0.057499 0.641344 0.462044
O O8 0.824933 0.790526 0.411959
O O9 0.788114 0.541887 0.417040
O O10 0.635159 0.432049 0.516498
#
# Coordination Sequence:
#
# PCOD9377460 Si02
#       5
#     8   8   8   4   8
#     4  12  23  47  73 108 144 179 243 296 369 422
#     4  10  26  47  70 106 139 195 236 292 357 424
#     4  11  25  44  75 114 135 195 227 312 364 424
#     4  10  26  50  70 104 140 196 240 284 352 430
#     4  11  23  48  73 102 149 179 246 287 363 421
#
# _framework density 21.265788000000001
#
# number of rings (size 3 to 8) (size 9 to 14) (size 15 to 20)
#    0.667    0.444    2.222    4.000    0.000    3.556 
#   12.000    0.000    0.000    0.000    0.000    0.000 
#    0.000    0.000    0.000    0.000    0.000    0.000 
#
# Total GULP energy -100407.784700 kJ/mol
# GULP energy per Si atom -5578.210261 kJ/mol
# Density = 2.121739 g / cm^3
# Si number density = 21.265788 Si / 1000 Ang^3
#
#
#
# Elastic Constant Matrix: (Units=GPa)
#
#
# Indices 1 2 3 4 5 6 
#
# 1 113.7424 83.8688 36.0533 0.0000 0.0000 0.0000
# 2 83.8688 195.0530 61.2088 0.0000 0.0000 0.0000
# 3 36.0533 61.2088 77.0701 0.0000 0.0000 0.0000
# 4 0.0000 0.0000 0.0000 12.6536 0.0000 0.0000
# 5 0.0000 0.0000 0.0000 0.0000 -27.0886 0.0000
# 6 0.0000 0.0000 0.0000 0.0000 0.0000 54.7141
#
#
#
# Elastic Compliance Matrix: (Units=1/GPa)
#
#
# Indices 1 2 3 4 5 6 
#
# 1 0.013151 -0.004960 -0.002212 0.000000 0.000000 0.000000
# 2 -0.004960 0.008700 -0.004589 0.000000 0.000000 0.000000
# 3 -0.002212 -0.004589 0.017655 0.000000 0.000000 0.000000
# 4 0.000000 0.000000 0.000000 0.079029 0.000000 0.000000
# 5 0.000000 0.000000 0.000000 0.000000 -0.036916 0.000000
# 6 0.000000 0.000000 0.000000 0.000000 0.000000 0.018277
#
#
# Mechanical properties :
#
#
# Convention : Reuss Voigt Hill
#
# Bulk Modulus (GPa) = 62.57103 83.12524 72.84814
# Shear Modulus (GPa) = 38.83647 21.70476 30.27062
#
# Velocity S-wave (km/s) = 4.27809 3.19822 3.77695
# Velocity P-wave (km/s) = 7.34098 7.26716 7.30416
#
# Compressibility (1/GPa) = 0.01598184
#
# Stress axis : x y z
#
# Youngs Moduli (GPa) = 76.04267 114.94799 56.64246
#
# Poissons Ratio (x) = 0.57016 0.12532
# Poissons Ratio (y) = 0.37719 0.25992
# Poissons Ratio (z) = 0.16824 0.52748
#
# Static dielectric constant tensor:
#      x y z
#    x 1.828140 0.000000 0.000000 
#    y 0.000000 1.748420 0.000000 
#    z 0.000000 0.000000 1.791490 
# 
# From -- ./inp_files/8767.got.cif
#   From: 2010.05.17/outbox.cif.g08.bks.cpg/sg45_5_cif.got.tgz:8767.got - 2010.06.03 19:51:22.
