data_PCOD9377131
_publ_section_title
;
Structure prediction by ZEFSAII (Michael W. Deem and Ramdas Pophale) SiO2 
 PCOD9377131
Probable space group: I B A 2
;
_chemical_formula_sum "Si O2"
_cell_formula_units_Z 48
_cell_length_a 13.208442
_cell_length_b 12.765514
_cell_length_c 12.856909
_cell_angle_alpha 90.000000
_cell_angle_beta 90.000000
_cell_angle_gamma 90.000000
_cell_volume 2167.836228
_symmetry_space_group_name_H-M "I B A 2"
_symmetry_group_IT_number 45
_symmetry_cell_setting 'orthorhombic'
loop_
_space_group_symop_operation_xyz
x,y,z
-x,-y,z
-x,y,1/2+z
x,-y,1/2+z
1/2+x,1/2+y,1/2+z
1/2-x,1/2-y,1/2+z
1/2-x,1/2+y,z
1/2+x,1/2-y,z
loop_
_atom_site_type_symbol
_atom_site_label
_atom_site_fract_x
_atom_site_fract_y
_atom_site_fract_z
Si Si1 0.100266 0.443357 0.279610
Si Si2 0.489981 0.382914 0.309107
Si Si3 0.988170 0.709729 0.629443
Si Si4 0.314652 0.735080 0.361537
Si Si5 0.722351 0.121366 0.668124
Si Si6 0.144865 0.818486 0.488791
O O1 0.143850 0.353577 0.353349
O O2 0.184345 0.523769 0.237555
O O3 0.000000 0.500000 0.325579
O O4 0.055332 0.381340 0.180706
O O5 0.500000 0.500000 0.268142
O O6 0.476983 0.299262 0.217465
O O7 0.592315 0.345470 0.368279
O O8 0.396626 0.378495 0.388571
O O9 0.877754 0.663939 0.611140
O O10 0.049690 0.756674 0.534946
O O11 0.263270 0.705905 0.251000
O O12 0.229456 0.736316 0.449490
O O13 0.807555 0.110231 0.579944
#
# Coordination Sequence:
#
# PCOD9377131 Si02
#       6
#     8   8   8   8   8   8
#     4   9  21  43  69  94 132 177 217 280 330 374
#     4  11  25  44  65  99 140 176 218 276 334 394
#     4  10  22  46  66  95 137 169 221 287 323 389
#     4  11  24  44  69  98 136 175 225 275 329 402
#     4  11  22  43  71  94 132 174 226 275 331 399
#     4  12  24  42  70  97 132 182 219 271 344 390
#
# _framework density 22.141893
#
# number of rings (size 3 to 8) (size 9 to 14) (size 15 to 20)
#    0.000    1.333    5.000    1.000    2.333    2.000 
#    3.000    0.833    0.000    0.000    0.000    0.000 
#    0.000    0.000    0.000    0.000    0.000    0.000 
#
# Total GULP energy -134148.753399 kJ/mol
# GULP energy per Si atom -5589.531392 kJ/mol
# Density = 2.209150 g / cm^3
# Si number density = 22.141893 Si / 1000 Ang^3
#
#
#
# Elastic Constant Matrix: (Units=GPa)
#
#
# Indices 1 2 3 4 5 6 
#
# 1 81.3429 25.5107 17.5191 0.0000 0.0000 0.0000
# 2 25.5107 101.2808 8.1807 0.0000 0.0000 0.0000
# 3 17.5191 8.1807 59.1776 0.0000 0.0000 0.0000
# 4 0.0000 0.0000 0.0000 4.5276 0.0000 0.0000
# 5 0.0000 0.0000 0.0000 0.0000 48.9580 0.0000
# 6 0.0000 0.0000 0.0000 0.0000 0.0000 30.5299
#
#
#
# Elastic Compliance Matrix: (Units=1/GPa)
#
#
# Indices 1 2 3 4 5 6 
#
# 1 0.014118 -0.003255 -0.003729 0.000000 0.000000 0.000000
# 2 -0.003255 0.010735 -0.000521 0.000000 0.000000 0.000000
# 3 -0.003729 -0.000521 0.018074 0.000000 0.000000 0.000000
# 4 0.000000 0.000000 0.000000 0.220868 0.000000 0.000000
# 5 0.000000 0.000000 0.000000 0.000000 0.020426 0.000000
# 6 0.000000 0.000000 0.000000 0.000000 0.000000 0.032755
#
#
# Mechanical properties :
#
#
# Convention : Reuss Voigt Hill
#
# Bulk Modulus (GPa) = 35.81935 38.24693 37.03314
# Shear Modulus (GPa) = 14.65023 29.50915 22.07969
#
# Velocity S-wave (km/s) = 2.57505 3.65462 3.16126
# Velocity P-wave (km/s) = 5.00535 5.92616 5.48511
#
# Compressibility (1/GPa) = 0.02791787
#
# Stress axis : x y z
#
# Youngs Moduli (GPa) = 70.83347 93.14990 55.32707
#
# Poissons Ratio (x) = 0.30318 0.20634
# Poissons Ratio (y) = 0.23054 0.02880
# Poissons Ratio (z) = 0.26417 0.04849
#
# Static dielectric constant tensor:
#      x y z
#    x 1.868200 0.000000 0.000000 
#    y 0.000000 1.784210 0.000000 
#    z 0.000000 0.000000 1.803900 
# 
# From -- ./inp_files/6490.got.cif
#   From: 2010.05.17/outbox.cif.g08.bks.cpg/sg45_4_cif.got.tgz:6490.got - 2010.06.03 19:51:22.
