data_PCOD9377807
_publ_section_title
;
Structure prediction by ZEFSAII (Michael W. Deem and Ramdas Pophale) SiO2 
 PCOD9377807
Probable space group: I M A 2
;
_chemical_formula_sum "Si O2"
_cell_formula_units_Z 52
_cell_length_a 22.096715
_cell_length_b 11.490741
_cell_length_c 12.541224
_cell_angle_alpha 90.000000
_cell_angle_beta 90.000000
_cell_angle_gamma 90.000000
_cell_volume 3184.312451
_symmetry_space_group_name_H-M "I M A 2"
_symmetry_group_IT_number 46
_symmetry_cell_setting 'orthorhombic'
loop_
_space_group_symop_operation_xyz
x,y,z
-x,-y,z
1/2-x,y,z
1/2+x,-y,z
1/2+x,1/2+y,1/2+z
1/2-x,1/2-y,1/2+z
-x,1/2+y,1/2+z
x,1/2-y,1/2+z
loop_
_atom_site_type_symbol
_atom_site_label
_atom_site_fract_x
_atom_site_fract_y
_atom_site_fract_z
Si Si1 0.490291 0.778741 0.679200
Si Si2 0.384087 0.424026 0.930112
Si Si3 0.407713 0.372195 0.566715
Si Si4 0.321160 0.162481 0.629318
Si Si5 0.000000 0.500000 0.055555
Si Si6 0.567913 0.445655 0.743864
Si Si7 0.399388 0.171798 0.830221
O O1 0.531958 0.701795 0.597909
O O2 0.440880 0.689922 0.722580
O O3 0.536055 0.814474 0.773381
O O4 0.469753 0.897871 0.624921
O O5 0.387860 0.523761 0.841335
O O6 0.380027 0.302462 0.866100
O O7 0.337235 0.418796 0.027649
O O8 0.449021 0.435707 0.987664
O O9 0.353094 0.285814 0.599631
O O10 0.409673 0.485457 0.639844
O O11 0.404050 0.396016 0.441232
O O12 0.250000 0.173197 0.643226
O O13 0.354131 0.125869 0.739226
O O14 0.500000 0.500000 0.766027
#
# Coordination Sequence:
#
# PCOD9377807 Si02
#       7
#     8   8   8   8   4   8   8
#     4  10  19  30  48  77 105 142 171 217 264 325
#     4  11  18  32  53  71 110 143 180 217 265 333
#     4   9  18  32  47  71 106 136 178 213 256 325
#     4  10  20  32  50  78 104 136 181 232 278 313
#     4  12  18  32  50  78 114 138 180 224 274 330
#     4  10  17  32  50  71 105 150 174 206 266 329
#     4  10  16  33  46  71 106 138 170 217 263 320
#
# _framework density 16.330055000000002
#
# number of rings (size 3 to 8) (size 9 to 14) (size 15 to 20)
#    0.000    1.846   10.000    0.000    0.000    2.462 
#    4.154    0.000    0.000    0.000    0.000    2.154 
#    0.000    0.000    0.000    0.000    0.000    0.000 
#
# Total GULP energy -144759.054894 kJ/mol
# GULP energy per Si atom -5567.655957 kJ/mol
# Density = 1.629289 g / cm^3
# Si number density = 16.330055 Si / 1000 Ang^3
#
#
#
# Elastic Constant Matrix: (Units=GPa)
#
#
# Indices 1 2 3 4 5 6 
#
# 1 45.1313 10.9610 32.6553 0.0000 0.0000 0.0000
# 2 10.9610 57.8398 27.2768 0.0000 0.0000 0.0000
# 3 32.6553 27.2768 133.7468 0.0000 0.0000 0.0000
# 4 0.0000 0.0000 0.0000 4.2250 0.0000 0.0000
# 5 0.0000 0.0000 0.0000 0.0000 7.1802 0.0000
# 6 0.0000 0.0000 0.0000 0.0000 0.0000 10.6684
#
#
#
# Elastic Compliance Matrix: (Units=1/GPa)
#
#
# Indices 1 2 3 4 5 6 
#
# 1 0.027171 -0.002235 -0.006178 0.000000 0.000000 0.000000
# 2 -0.002235 0.019313 -0.003393 0.000000 0.000000 0.000000
# 3 -0.006178 -0.003393 0.009677 0.000000 0.000000 0.000000
# 4 0.000000 0.000000 0.000000 0.236684 0.000000 0.000000
# 5 0.000000 0.000000 0.000000 0.000000 0.139271 0.000000
# 6 0.000000 0.000000 0.000000 0.000000 0.000000 0.093735
#
#
# Mechanical properties :
#
#
# Convention : Reuss Voigt Hill
#
# Bulk Modulus (GPa) = 30.72399 42.05600 36.39000
# Shear Modulus (GPa) = 8.92359 15.46973 12.19666
#
# Velocity S-wave (km/s) = 2.34017 3.08119 2.73588
# Velocity P-wave (km/s) = 5.11440 6.20225 5.68441
#
# Compressibility (1/GPa) = 0.03254786
#
# Stress axis : x y z
#
# Youngs Moduli (GPa) = 36.80441 51.77900 103.33583
#
# Poissons Ratio (x) = 0.11575 0.63841
# Poissons Ratio (y) = 0.08228 0.35061
# Poissons Ratio (z) = 0.22738 0.17568
#
# Static dielectric constant tensor:
#      x y z
#    x 1.521350 0.000000 0.000000 
#    y 0.000000 1.557200 0.000000 
#    z 0.000000 0.000000 1.611450 
# 
# From -- ./inp_files/13080.got.cif
#   From: 2010.05.17/outbox.cif.g08.bks.cpg/sg46_7_cif.got.tgz:13080.got - 2010.06.03 19:58:25.
