data_PCOD9377718
_publ_section_title
;
Structure prediction by ZEFSAII (Michael W. Deem and Ramdas Pophale) SiO2 
 PCOD9377718
Probable space group: I B A 2
;
_chemical_formula_sum "Si O2"
_cell_formula_units_Z 48
_cell_length_a 22.054452
_cell_length_b 9.364054
_cell_length_c 10.514669
_cell_angle_alpha 90.000000
_cell_angle_beta 90.000000
_cell_angle_gamma 90.000000
_cell_volume 2171.479763
_symmetry_space_group_name_H-M "I B A 2"
_symmetry_group_IT_number 45
_symmetry_cell_setting 'orthorhombic'
loop_
_space_group_symop_operation_xyz
x,y,z
-x,-y,z
-x,y,1/2+z
x,-y,1/2+z
1/2+x,1/2+y,1/2+z
1/2-x,1/2-y,1/2+z
1/2-x,1/2+y,z
1/2+x,1/2-y,z
loop_
_atom_site_type_symbol
_atom_site_label
_atom_site_fract_x
_atom_site_fract_y
_atom_site_fract_z
Si Si1 0.197511 0.784569 0.498640
Si Si2 0.000000 0.000000 0.199191
Si Si3 0.000000 0.500000 0.009723
Si Si4 0.548386 0.750000 0.854457
Si Si5 0.302488 0.784569 0.710274
Si Si6 0.120007 0.061299 0.554455
Si Si7 0.120007 0.438702 0.154459
O O1 0.250000 0.794897 0.604458
O O2 0.218086 0.750000 0.354457
O O3 0.154891 0.656765 0.550322
O O4 0.161832 0.934841 0.501482
O O5 0.939564 0.994598 0.117275
O O6 0.004425 0.140324 0.283763
O O7 0.060436 0.505404 0.091639
O O8 0.004424 0.640324 0.925152
O O9 0.592967 0.836162 0.762011
O O10 0.592968 0.663840 0.946903
O O11 0.345108 0.656765 0.658592
O O12 0.338167 0.934841 0.707432
#
# Coordination Sequence:
#
# PCOD9377718 Si02
#       7
#     8   4   4   8   8   8   8
#     4  12  30  51  81 111 153 206 264 322 387 459
#     4  12  26  46  76 118 154 200 248 318 388 462
#     4  12  26  46  76 118 154 200 248 318 388 462
#     4  12  26  44  78 112 154 198 252 312 392 460
#     4  12  30  51  81 111 153 206 264 322 387 459
#     4  12  27  50  75 114 156 200 256 316 388 462
#     4  12  27  50  75 114 156 200 256 316 388 462
#
# _framework density 22.104742999999999
#
# number of rings (size 3 to 8) (size 9 to 14) (size 15 to 20)
#    0.000    0.000    3.333    5.000    9.333    2.667 
#    0.000    0.000    0.000    0.000    0.000    0.000 
#    0.000    0.000    0.000    0.000    0.000    0.000 
#
# Total GULP energy -134485.708674 kJ/mol
# GULP energy per Si atom -5603.571195 kJ/mol
# Density = 2.205443 g / cm^3
# Si number density = 22.104743 Si / 1000 Ang^3
#
#
#
# Elastic Constant Matrix: (Units=GPa)
#
#
# Indices 1 2 3 4 5 6 
#
# 1 72.7376 11.8042 20.9944 0.0000 0.0000 0.0000
# 2 11.8042 113.1720 37.5288 0.0000 0.0000 0.0000
# 3 20.9944 37.5288 121.9738 0.0000 0.0000 0.0000
# 4 0.0000 0.0000 0.0000 48.3440 0.0000 0.0000
# 5 0.0000 0.0000 0.0000 0.0000 98.0082 0.0000
# 6 0.0000 0.0000 0.0000 0.0000 0.0000 30.3058
#
#
#
# Elastic Compliance Matrix: (Units=1/GPa)
#
#
# Indices 1 2 3 4 5 6 
#
# 1 0.014526 -0.000764 -0.002265 0.000000 0.000000 0.000000
# 2 -0.000764 0.009880 -0.002908 0.000000 0.000000 0.000000
# 3 -0.002265 -0.002908 0.009483 0.000000 0.000000 0.000000
# 4 0.000000 0.000000 0.000000 0.020685 0.000000 0.000000
# 5 0.000000 0.000000 0.000000 0.000000 0.010203 0.000000
# 6 0.000000 0.000000 0.000000 0.000000 0.000000 0.032997
#
#
# Mechanical properties :
#
#
# Convention : Reuss Voigt Hill
#
# Bulk Modulus (GPa) = 45.42526 49.83759 47.63142
# Shear Modulus (GPa) = 42.73948 51.16866 46.95407
#
# Velocity S-wave (km/s) = 4.40193 4.81648 4.61386
# Velocity P-wave (km/s) = 6.81400 7.31618 7.06955
#
# Compressibility (1/GPa) = 0.02201418
#
# Stress axis : x y z
#
# Youngs Moduli (GPa) = 68.84289 101.21186 105.44914
#
# Poissons Ratio (x) = 0.07732 0.23886
# Poissons Ratio (y) = 0.05259 0.30669
# Poissons Ratio (z) = 0.15594 0.29437
#
# Static dielectric constant tensor:
#      x y z
#    x 1.875240 0.000000 0.000000 
#    y 0.000000 1.679730 0.000000 
#    z 0.000000 0.000000 1.841570 
# 
# From -- ./inp_files/4774.got.cif
#   From: 2010.05.17/outbox.cif.g08.bks.cpg/sg45_3_cif.got.tgz:4774.got - 2010.06.03 19:51:22.
