data_PCOD9377184
_publ_section_title
;
Structure prediction by ZEFSAII (Michael W. Deem and Ramdas Pophale) SiO2 
 PCOD9377184
Probable space group: I B A 2
;
_chemical_formula_sum "Si O2"
_cell_formula_units_Z 56
_cell_length_a 14.569562
_cell_length_b 20.339477
_cell_length_c 9.214679
_cell_angle_alpha 90.000000
_cell_angle_beta 90.000000
_cell_angle_gamma 90.000000
_cell_volume 2730.652830
_symmetry_space_group_name_H-M "I B A 2"
_symmetry_group_IT_number 45
_symmetry_cell_setting 'orthorhombic'
loop_
_space_group_symop_operation_xyz
x,y,z
-x,-y,z
-x,y,1/2+z
x,-y,1/2+z
1/2+x,1/2+y,1/2+z
1/2-x,1/2-y,1/2+z
1/2-x,1/2+y,z
1/2+x,1/2-y,z
loop_
_atom_site_type_symbol
_atom_site_label
_atom_site_fract_x
_atom_site_fract_y
_atom_site_fract_z
Si Si1 0.000000 0.500000 0.307701
Si Si2 0.807795 0.692736 0.767158
Si Si3 0.557608 0.124310 0.124499
Si Si4 0.315359 0.060226 0.413648
Si Si5 0.878917 0.060557 0.021473
Si Si6 0.657541 0.711413 0.007233
Si Si7 0.010435 0.294094 0.379781
Si Si8 0.000000 0.000000 0.276214
O O1 0.016521 0.436740 0.209007
O O2 0.096451 0.513359 0.390090
O O3 0.807586 0.612279 0.779053
O O4 0.805765 0.733665 0.619056
O O5 0.905275 0.714027 0.835831
O O6 0.724639 0.712102 0.870119
O O7 0.564390 0.183396 0.237407
O O8 0.651819 0.104900 0.049294
O O9 0.490186 0.146773 0.996232
O O10 0.217673 0.030889 0.459914
O O11 0.854857 0.136338 0.056037
O O12 0.950705 0.050998 0.887637
O O13 0.923400 0.028831 0.165332
O O14 0.557208 0.733676 0.955647
#
# Coordination Sequence:
#
# PCOD9377184 Si02
#       8
#     4   8   8   8   8   8   8   4
#     4  12  20  38  64  94 136 180 206 248 334 394
#     4  10  23  42  61  97 134 163 219 270 317 390
#     4  11  22  37  60  90 133 174 208 259 317 389
#     4  10  23  42  63 101 133 169 222 265 322 410
#     4  10  25  46  70  94 128 169 227 278 335 386
#     4  11  24  41  69  94 128 175 214 267 337 394
#     4  11  22  41  60  88 133 164 215 271 314 381
#     4  10  24  52  68  92 128 168 226 300 316 376
#
# _framework density 20.507916999999999
#
# number of rings (size 3 to 8) (size 9 to 14) (size 15 to 20)
#    0.000    1.429    4.286    0.429   10.000    0.000 
#    2.571    0.000    0.000    0.000    0.000    0.000 
#    0.000    0.000    0.000    0.000    0.000    0.000 
#
# Total GULP energy -156086.581084 kJ/mol
# GULP energy per Si atom -5574.520753 kJ/mol
# Density = 2.046124 g / cm^3
# Si number density = 20.507917 Si / 1000 Ang^3
#
#
#
# Elastic Constant Matrix: (Units=GPa)
#
#
# Indices 1 2 3 4 5 6 
#
# 1 89.6260 16.9952 9.5356 0.0000 0.0000 0.0000
# 2 16.9952 32.3839 13.4619 0.0000 0.0000 0.0000
# 3 9.5356 13.4619 74.5858 0.0000 0.0000 0.0000
# 4 0.0000 0.0000 0.0000 17.6128 0.0000 0.0000
# 5 0.0000 0.0000 0.0000 0.0000 22.2215 0.0000
# 6 0.0000 0.0000 0.0000 0.0000 0.0000 30.0302
#
#
#
# Elastic Compliance Matrix: (Units=1/GPa)
#
#
# Indices 1 2 3 4 5 6 
#
# 1 0.012404 -0.006325 -0.000444 0.000000 0.000000 0.000000
# 2 -0.006325 0.036610 -0.005799 0.000000 0.000000 0.000000
# 3 -0.000444 -0.005799 0.014511 0.000000 0.000000 0.000000
# 4 0.000000 0.000000 0.000000 0.056777 0.000000 0.000000
# 5 0.000000 0.000000 0.000000 0.000000 0.045001 0.000000
# 6 0.000000 0.000000 0.000000 0.000000 0.000000 0.033300
#
#
# Mechanical properties :
#
#
# Convention : Reuss Voigt Hill
#
# Bulk Modulus (GPa) = 26.04982 30.73122 28.39052
# Shear Modulus (GPa) = 21.13851 24.41310 22.77581
#
# Velocity S-wave (km/s) = 3.21401 3.45399 3.33616
# Velocity P-wave (km/s) = 5.14811 5.56097 5.35852
#
# Compressibility (1/GPa) = 0.03838799
#
# Stress axis : x y z
#
# Youngs Moduli (GPa) = 80.61836 27.31527 68.91410
#
# Poissons Ratio (x) = 0.17277 0.03061
# Poissons Ratio (y) = 0.50992 0.39963
# Poissons Ratio (z) = 0.03581 0.15840
#
# Static dielectric constant tensor:
#      x y z
#    x 1.744390 0.000000 0.000000 
#    y 0.000000 1.789670 0.000000 
#    z 0.000000 0.000000 1.773970 
# 
# From -- ./inp_files/1842.got.cif
#   From: 2010.05.17/outbox.cif.g08.bks.cpg/sg45_1_cif.got.tgz:1842.got - 2010.06.03 19:51:22.
