data_PCOD9377293
_publ_section_title
;
Structure prediction by ZEFSAII (Michael W. Deem and Ramdas Pophale) SiO2 
 PCOD9377293
Probable space group: I B A 2
;
_chemical_formula_sum "Si O2"
_cell_formula_units_Z 64
_cell_length_a 13.475372
_cell_length_b 13.897573
_cell_length_c 16.149474
_cell_angle_alpha 90.000000
_cell_angle_beta 90.000000
_cell_angle_gamma 90.000000
_cell_volume 3024.392195
_symmetry_space_group_name_H-M "I B A 2"
_symmetry_group_IT_number 45
_symmetry_cell_setting 'orthorhombic'
loop_
_space_group_symop_operation_xyz
x,y,z
-x,-y,z
-x,y,1/2+z
x,-y,1/2+z
1/2+x,1/2+y,1/2+z
1/2-x,1/2-y,1/2+z
1/2-x,1/2+y,z
1/2+x,1/2-y,z
loop_
_atom_site_type_symbol
_atom_site_label
_atom_site_fract_x
_atom_site_fract_y
_atom_site_fract_z
Si Si1 0.261579 0.852050 0.463670
Si Si2 0.565127 0.281237 0.248910
Si Si3 0.112594 0.023611 0.508891
Si Si4 0.245531 0.287189 0.648869
Si Si5 0.722000 0.031121 0.763889
Si Si6 0.431787 0.910101 0.334154
Si Si7 0.380041 0.599238 0.694663
Si Si8 0.220046 0.162928 0.391843
O O1 0.280753 0.809026 0.554404
O O2 0.359372 0.881227 0.410773
O O3 0.221848 0.759828 0.412838
O O4 0.184016 0.937185 0.479369
O O5 0.637586 0.268887 0.169033
O O6 0.520743 0.184165 0.290607
O O7 0.483839 0.360446 0.227104
O O8 0.642011 0.315476 0.319050
O O9 0.113633 0.042836 0.607385
O O10 0.157628 0.118697 0.466629
O O11 0.000000 0.000000 0.483915
O O12 0.216443 0.384704 0.697324
O O13 0.186760 0.194368 0.680814
O O14 0.711858 0.081252 0.852913
O O15 0.637575 0.951815 0.760517
O O16 0.824586 0.973104 0.756414
O O17 0.500000 0.000000 0.357701
#
# Coordination Sequence:
#
# PCOD9377293 Si02
#       8
#     8   8   8   8   8   8   8   8
#     4  11  23  46  63  98 144 177 227 286 353 420
#     4  10  24  42  67 102 136 180 232 293 348 417
#     4  12  25  43  69 103 135 180 231 287 356 425
#     4  11  22  42  67  97 134 177 230 285 350 408
#     4  11  23  41  71  96 131 186 229 289 346 418
#     4  11  23  45  67 100 139 186 239 280 350 427
#     4  12  24  42  69 100 137 177 229 294 352 412
#     4  10  24  42  66  96 136 180 228 278 351 410
#
# _framework density 21.161277999999999
#
# number of rings (size 3 to 8) (size 9 to 14) (size 15 to 20)
#    0.000    1.000    5.000    1.500    3.500    0.000 
#    4.500    3.125    0.000    0.000    0.000    0.000 
#    0.000    0.000    0.000    0.000    0.000    0.000 
#
# Total GULP energy -178630.103121 kJ/mol
# GULP energy per Si atom -5582.190723 kJ/mol
# Density = 2.111311 g / cm^3
# Si number density = 21.161278 Si / 1000 Ang^3
#
#
#
# Elastic Constant Matrix: (Units=GPa)
#
#
# Indices 1 2 3 4 5 6 
#
# 1 69.4211 38.5749 21.4912 0.0000 0.0000 0.0000
# 2 38.5749 124.3150 49.0241 0.0000 0.0000 0.0000
# 3 21.4912 49.0241 84.0096 0.0000 0.0000 0.0000
# 4 0.0000 0.0000 0.0000 41.4741 0.0000 0.0000
# 5 0.0000 0.0000 0.0000 0.0000 24.0130 0.0000
# 6 0.0000 0.0000 0.0000 0.0000 0.0000 36.3039
#
#
#
# Elastic Compliance Matrix: (Units=1/GPa)
#
#
# Indices 1 2 3 4 5 6 
#
# 1 0.017593 -0.004785 -0.001708 0.000000 0.000000 0.000000
# 2 -0.004785 0.011750 -0.005633 0.000000 0.000000 0.000000
# 3 -0.001708 -0.005633 0.015627 0.000000 0.000000 0.000000
# 4 0.000000 0.000000 0.000000 0.024111 0.000000 0.000000
# 5 0.000000 0.000000 0.000000 0.000000 0.041644 0.000000
# 6 0.000000 0.000000 0.000000 0.000000 0.000000 0.027545
#
#
# Mechanical properties :
#
#
# Convention : Reuss Voigt Hill
#
# Bulk Modulus (GPa) = 48.26717 55.10293 51.68505
# Shear Modulus (GPa) = 29.51081 31.60189 30.55635
#
# Velocity S-wave (km/s) = 3.73844 3.86862 3.80409
# Velocity P-wave (km/s) = 6.44153 6.78609 6.61605
#
# Compressibility (1/GPa) = 0.02071802
#
# Stress axis : x y z
#
# Youngs Moduli (GPa) = 56.84176 85.10430 63.99055
#
# Poissons Ratio (x) = 0.40726 0.10929
# Poissons Ratio (y) = 0.27201 0.36044
# Poissons Ratio (z) = 0.09708 0.47937
#
# Static dielectric constant tensor:
#      x y z
#    x 1.782930 0.000000 0.000000 
#    y 0.000000 1.804380 0.000000 
#    z 0.000000 0.000000 1.792210 
# 
# From -- ./inp_files/8011.got.cif
#   From: 2010.05.17/outbox.cif.g08.bks.cpg/sg45_5_cif.got.tgz:8011.got - 2010.06.03 19:51:22.
