data_PCOD9377779
_publ_section_title
;
Structure prediction by ZEFSAII (Michael W. Deem and Ramdas Pophale) SiO2 
 PCOD9377779
Probable space group: I M A 2
;
_chemical_formula_sum "Si O2"
_cell_formula_units_Z 56
_cell_length_a 27.339783
_cell_length_b 13.450615
_cell_length_c 9.895192
_cell_angle_alpha 90.000000
_cell_angle_beta 90.000000
_cell_angle_gamma 90.000000
_cell_volume 3638.827185
_symmetry_space_group_name_H-M "I M A 2"
_symmetry_group_IT_number 46
_symmetry_cell_setting 'orthorhombic'
loop_
_space_group_symop_operation_xyz
x,y,z
-x,-y,z
1/2-x,y,z
1/2+x,-y,z
1/2+x,1/2+y,1/2+z
1/2-x,1/2-y,1/2+z
-x,1/2+y,1/2+z
x,1/2-y,1/2+z
loop_
_atom_site_type_symbol
_atom_site_label
_atom_site_fract_x
_atom_site_fract_y
_atom_site_fract_z
Si Si1 0.056975 0.240500 0.675930
Si Si2 0.807570 0.926250 0.906569
Si Si3 0.306516 0.186768 0.401331
Si Si4 0.992994 0.837356 0.423982
Si Si5 0.080725 0.525734 0.905607
Si Si6 0.131274 0.081993 0.169692
Si Si7 0.863146 0.573290 0.136720
O O1 0.016705 0.213596 0.565910
O O2 0.029049 0.265035 0.812356
O O3 0.088705 0.337983 0.634458
O O4 0.093762 0.147145 0.686898
O O5 0.750000 0.953064 0.916834
O O6 0.810264 0.805601 0.902658
O O7 0.832060 0.960872 0.765926
O O8 0.839461 0.954031 0.038313
O O9 0.250000 0.158842 0.397926
O O10 0.333212 0.143676 0.269911
O O11 0.331070 0.140824 0.534546
O O12 0.957126 0.933215 0.417232
O O13 0.047685 0.876375 0.403363
O O14 0.109548 0.503990 0.766620
O O15 0.114565 0.511466 0.038235
#
# Coordination Sequence:
#
# PCOD9377779 Si02
#       7
#     8   8   8   8   8   8   8
#     4  10  16  26  45  60  82 106 149 176 206 236
#     4  11  18  24  37  60  86 111 148 180 194 222
#     4  10  17  25  37  56  84 117 151 175 193 228
#     4   9  17  30  44  63  76 108 143 185 207 251
#     4   8  18  31  43  54  84 114 145 165 218 254
#     4  10  17  27  40  59  83 119 143 177 202 241
#     4  10  17  27  40  59  83 119 143 177 202 241
#
# _framework density 15.389574
#
# number of rings (size 3 to 8) (size 9 to 14) (size 15 to 20)
#    0.000    2.286    2.857    2.571    0.000    2.286 
#    0.000    1.429    0.000    6.857    0.000    0.000 
#    0.000    0.000    0.000   64.286    0.000    0.000 
#
# Total GULP energy -155984.204892 kJ/mol
# GULP energy per Si atom -5570.864460 kJ/mol
# Density = 1.535455 g / cm^3
# Si number density = 15.389574 Si / 1000 Ang^3
#
#
#
# Elastic Constant Matrix: (Units=GPa)
#
#
# Indices 1 2 3 4 5 6 
#
# 1 74.4757 13.1590 25.6988 0.0000 0.0000 0.0000
# 2 13.1590 7.6473 1.5085 0.0000 0.0000 0.0000
# 3 25.6988 1.5085 72.9653 0.0000 0.0000 0.0000
# 4 0.0000 0.0000 0.0000 -0.9602 0.0000 0.0000
# 5 0.0000 0.0000 0.0000 0.0000 7.5842 0.0000
# 6 0.0000 0.0000 0.0000 0.0000 0.0000 16.3515
#
#
#
# Elastic Compliance Matrix: (Units=1/GPa)
#
#
# Indices 1 2 3 4 5 6 
#
# 1 0.022478 -0.037269 -0.007146 0.000000 0.000000 0.000000
# 2 -0.037269 0.193093 0.009134 0.000000 0.000000 0.000000
# 3 -0.007146 0.009134 0.016033 0.000000 0.000000 0.000000
# 4 0.000000 0.000000 0.000000 -1.041446 0.000000 0.000000
# 5 0.000000 0.000000 0.000000 0.000000 0.131853 0.000000
# 6 0.000000 0.000000 0.000000 0.000000 0.000000 0.061157
#
#
# Mechanical properties :
#
#
# Convention : Reuss Voigt Hill
#
# Bulk Modulus (GPa) = 6.20956 26.20234 16.20595
# Shear Modulus (GPa) = -10.15046 12.24323 1.04639
#
# Velocity S-wave (km/s) = -2.57099 2.82362 0.82547
# Velocity P-wave (km/s) = 2.18395 5.26245 3.38554
#
# Compressibility (1/GPa) = 0.16104199
#
# Stress axis : x y z
#
# Youngs Moduli (GPa) = 44.48740 5.17884 62.37015
#
# Poissons Ratio (x) = 0.19301 0.44573
# Poissons Ratio (y) = 1.65802 -0.56972
# Poissons Ratio (z) = 0.31793 -0.04731
#
# Static dielectric constant tensor:
#      x y z
#    x 1.532860 0.000000 0.000000 
#    y 0.000000 1.483510 0.000000 
#    z 0.000000 0.000000 1.524120 
# 
# From -- ./inp_files/8517.got.cif
#   From: 2010.05.17/outbox.cif.g08.bks.cpg/sg46_5_cif.got.tgz:8517.got - 2010.06.03 19:58:25.
