data_PCOD9377056
_publ_section_title
;
Structure prediction by ZEFSAII (Michael W. Deem and Ramdas Pophale) SiO2 
 PCOD9377056
Probable space group: I B A 2
;
_chemical_formula_sum "Si O2"
_cell_formula_units_Z 36
_cell_length_a 5.064061
_cell_length_b 12.150550
_cell_length_c 25.768794
_cell_angle_alpha 90.000000
_cell_angle_beta 90.000000
_cell_angle_gamma 90.000000
_cell_volume 1585.582920
_symmetry_space_group_name_H-M "I B A 2"
_symmetry_group_IT_number 45
_symmetry_cell_setting 'orthorhombic'
loop_
_space_group_symop_operation_xyz
x,y,z
-x,-y,z
-x,y,1/2+z
x,-y,1/2+z
1/2+x,1/2+y,1/2+z
1/2-x,1/2-y,1/2+z
1/2-x,1/2+y,z
1/2+x,1/2-y,z
loop_
_atom_site_type_symbol
_atom_site_label
_atom_site_fract_x
_atom_site_fract_y
_atom_site_fract_z
Si Si1 0.000000 0.500000 0.331280
Si Si2 0.000000 0.000000 0.066455
Si Si3 0.740136 0.928898 0.230640
Si Si4 0.000000 0.500000 0.498743
Si Si5 0.761594 0.308235 0.132437
Si Si6 0.807378 0.672353 0.413691
O O1 0.831526 0.423961 0.291370
O O2 0.160312 0.415461 0.366864
O O3 0.865087 0.909972 0.103015
O O4 0.754959 0.040325 0.031053
O O5 0.763332 0.824166 0.194502
O O6 0.500000 0.000000 0.207116
O O7 0.000000 0.000000 0.226147
O O8 0.118326 0.401093 0.463791
O O9 0.564381 0.209439 0.118619
O O10 0.022357 0.770702 0.411911
#
# Coordination Sequence:
#
# PCOD9377056 Si02
#       6
#     4   4   8   4   8   8
#     4   9  26  41  70  96 140 175 222 265 338 392
#     4  12  26  46  70  94 138 174 224 284 338 398
#     4  10  22  42  65  91 140 175 220 267 323 394
#     4  11  26  45  70  96 130 179 214 287 348 392
#     4  12  26  42  68 101 133 178 228 274 330 397
#     4  11  25  44  69 100 132 169 225 279 334 404
#
# _framework density 22.704581999999998
#
# number of rings (size 3 to 8) (size 9 to 14) (size 15 to 20)
#    0.667    0.444    1.111    4.000    4.667    8.889 
#    0.000    0.000    0.000    0.000    0.000    0.000 
#    0.000    0.000    0.000    0.000    0.000    0.000 
#
# Total GULP energy -100547.239060 kJ/mol
# GULP energy per Si atom -5585.957726 kJ/mol
# Density = 2.265291 g / cm^3
# Si number density = 22.704582 Si / 1000 Ang^3
#
#
#
# Elastic Constant Matrix: (Units=GPa)
#
#
# Indices 1 2 3 4 5 6 
#
# 1 104.0975 -8.6702 23.4734 0.0000 0.0000 0.0000
# 2 -8.6702 50.2533 29.1546 0.0000 0.0000 0.0000
# 3 23.4734 29.1546 107.4352 0.0000 0.0000 0.0000
# 4 0.0000 0.0000 0.0000 -72.7805 0.0000 0.0000
# 5 0.0000 0.0000 0.0000 0.0000 26.5107 0.0000
# 6 0.0000 0.0000 0.0000 0.0000 0.0000 44.5562
#
#
#
# Elastic Compliance Matrix: (Units=1/GPa)
#
#
# Indices 1 2 3 4 5 6 
#
# 1 0.010681 0.003794 -0.003363 0.000000 0.000000 0.000000
# 2 0.003794 0.024965 -0.007604 0.000000 0.000000 0.000000
# 3 -0.003363 -0.007604 0.012106 0.000000 0.000000 0.000000
# 4 0.000000 0.000000 0.000000 -0.013740 0.000000 0.000000
# 5 0.000000 0.000000 0.000000 0.000000 0.037721 0.000000
# 6 0.000000 0.000000 0.000000 0.000000 0.000000 0.022444
#
#
# Mechanical properties :
#
#
# Convention : Reuss Voigt Hill
#
# Bulk Modulus (GPa) = 29.93467 38.85572 34.39519
# Shear Modulus (GPa) = 41.78598 14.17916 27.98257
#
# Velocity S-wave (km/s) = 4.29467 2.50172 3.51445
# Velocity P-wave (km/s) = 6.14860 5.04932 5.62587
#
# Compressibility (1/GPa) = 0.03340608
#
# Stress axis : x y z
#
# Youngs Moduli (GPa) = 93.62639 40.05606 82.60272
#
# Poissons Ratio (x) = -0.15197 0.27781
# Poissons Ratio (y) = -0.35521 0.62808
# Poissons Ratio (z) = 0.31488 0.30457
#
# Static dielectric constant tensor:
#      x y z
#    x 1.810640 0.000000 0.000000 
#    y 0.000000 2.115160 0.000000 
#    z 0.000000 0.000000 1.876190 
# 
# From -- ./inp_files/9398.got.cif
#   From: 2010.05.17/outbox.cif.g08.bks.cpg/sg45_5_cif.got.tgz:9398.got - 2010.06.03 19:51:22.
