data_PCOD9377334
_publ_section_title
;
Structure prediction by ZEFSAII (Michael W. Deem and Ramdas Pophale) SiO2 
 PCOD9377334
Probable space group: I B A 2
;
_chemical_formula_sum "Si O2"
_cell_formula_units_Z 36
_cell_length_a 25.700048
_cell_length_b 5.545350
_cell_length_c 10.418094
_cell_angle_alpha 90.000000
_cell_angle_beta 90.000000
_cell_angle_gamma 90.000000
_cell_volume 1484.742596
_symmetry_space_group_name_H-M "I B A 2"
_symmetry_group_IT_number 45
_symmetry_cell_setting 'orthorhombic'
loop_
_space_group_symop_operation_xyz
x,y,z
-x,-y,z
-x,y,1/2+z
x,-y,1/2+z
1/2+x,1/2+y,1/2+z
1/2-x,1/2-y,1/2+z
1/2-x,1/2+y,z
1/2+x,1/2-y,z
loop_
_atom_site_type_symbol
_atom_site_label
_atom_site_fract_x
_atom_site_fract_y
_atom_site_fract_z
Si Si1 0.168496 0.449117 0.646430
Si Si2 0.500000 0.000000 0.585517
Si Si3 0.739904 0.652704 0.293786
Si Si4 0.094781 0.789342 0.983060
Si Si5 0.920387 0.174473 0.705312
O O1 0.219617 0.611246 0.674345
O O2 0.148445 0.357477 0.508659
O O3 0.120393 0.603489 0.697921
O O4 0.184506 0.219633 0.733701
O O5 0.546932 0.104694 0.501278
O O6 0.476283 0.210672 0.673456
O O7 0.757686 0.897429 0.363617
O O8 0.091623 0.981955 0.096614
O O9 0.086319 0.918337 0.848710
#
# Coordination Sequence:
#
# PCOD9377334 Si02
#       5
#     8   4   8   8   8
#     4   9  20  39  66  92 136 181 234 281 344 410
#     4  10  24  44  68  92 130 184 238 296 356 434
#     4   8  16  34  64  92 130 178 234 282 338 402
#     4  11  24  42  67 101 138 180 233 296 363 435
#     4  11  24  42  67 101 138 180 233 296 363 435
#
# _framework density 24.246624000000001
#
# number of rings (size 3 to 8) (size 9 to 14) (size 15 to 20)
#    1.333    0.889    0.000    2.667    0.000   10.667 
#    0.000    2.222    0.000    0.000    0.000    0.000 
#    0.000    0.000    0.000    0.000    0.000    0.000 
#
# Total GULP energy -100406.662179 kJ/mol
# GULP energy per Si atom -5578.147899 kJ/mol
# Density = 2.419144 g / cm^3
# Si number density = 24.246624 Si / 1000 Ang^3
#
#
#
# Elastic Constant Matrix: (Units=GPa)
#
#
# Indices 1 2 3 4 5 6 
#
# 1 91.6012 23.0667 -0.3163 0.0000 0.0000 0.0000
# 2 23.0667 120.0528 23.0006 0.0000 0.0000 0.0000
# 3 -0.3163 23.0006 104.9384 0.0000 0.0000 0.0000
# 4 0.0000 0.0000 0.0000 25.6074 0.0000 0.0000
# 5 0.0000 0.0000 0.0000 0.0000 16.1604 0.0000
# 6 0.0000 0.0000 0.0000 0.0000 0.0000 31.7225
#
#
#
# Elastic Compliance Matrix: (Units=1/GPa)
#
#
# Indices 1 2 3 4 5 6 
#
# 1 0.011501 -0.002314 0.000542 0.000000 0.000000 0.000000
# 2 -0.002314 0.009160 -0.002015 0.000000 0.000000 0.000000
# 3 0.000542 -0.002015 0.009973 0.000000 0.000000 0.000000
# 4 0.000000 0.000000 0.000000 0.039051 0.000000 0.000000
# 5 0.000000 0.000000 0.000000 0.000000 0.061880 0.000000
# 6 0.000000 0.000000 0.000000 0.000000 0.000000 0.031523
#
#
# Mechanical properties :
#
#
# Convention : Reuss Voigt Hill
#
# Bulk Modulus (GPa) = 43.36324 45.34382 44.35353
# Shear Modulus (GPa) = 28.03498 32.75415 30.39456
#
# Velocity S-wave (km/s) = 3.40405 3.67941 3.54440
# Velocity P-wave (km/s) = 5.77695 6.06568 5.92307
#
# Compressibility (1/GPa) = 0.02306101
#
# Stress axis : x y z
#
# Youngs Moduli (GPa) = 86.94613 109.16786 100.27456
#
# Poissons Ratio (x) = 0.25258 -0.05433
# Poissons Ratio (y) = 0.20116 0.20203
# Poissons Ratio (z) = -0.04711 0.21994
#
# Static dielectric constant tensor:
#      x y z
#    x 1.949440 0.000000 0.000000 
#    y 0.000000 1.987540 0.000000 
#    z 0.000000 0.000000 1.901050 
# 
# From -- ./inp_files/4910.got.cif
#   From: 2010.05.17/outbox.cif.g08.bks.cpg/sg45_3_cif.got.tgz:4910.got - 2010.06.03 19:51:22.
