data_PCOD9377004
_publ_section_title
;
Structure prediction by ZEFSAII (Michael W. Deem and Ramdas Pophale) SiO2 
 PCOD9377004
Probable space group: I B A 2
;
_chemical_formula_sum "Si O2"
_cell_formula_units_Z 56
_cell_length_a 12.531064
_cell_length_b 19.766220
_cell_length_c 9.440984
_cell_angle_alpha 90.000000
_cell_angle_beta 90.000000
_cell_angle_gamma 90.000000
_cell_volume 2338.454017
_symmetry_space_group_name_H-M "I B A 2"
_symmetry_group_IT_number 45
_symmetry_cell_setting 'orthorhombic'
loop_
_space_group_symop_operation_xyz
x,y,z
-x,-y,z
-x,y,1/2+z
x,-y,1/2+z
1/2+x,1/2+y,1/2+z
1/2-x,1/2-y,1/2+z
1/2-x,1/2+y,z
1/2+x,1/2-y,z
loop_
_atom_site_type_symbol
_atom_site_label
_atom_site_fract_x
_atom_site_fract_y
_atom_site_fract_z
Si Si1 0.500000 0.000000 0.817171
Si Si2 0.779813 0.045517 0.623581
Si Si3 0.875678 0.571299 0.066423
Si Si4 0.719006 0.852152 0.341905
Si Si5 0.447671 0.646501 0.450951
Si Si6 0.194011 0.171678 0.926819
Si Si7 0.306940 0.731171 0.652599
Si Si8 0.500000 0.500000 0.572569
O O1 0.437882 0.051634 0.709974
O O2 0.552756 0.049321 0.933477
O O3 0.714917 0.079433 0.749921
O O4 0.779863 0.099688 0.496866
O O5 0.900682 0.027283 0.661894
O O6 0.725050 0.978021 0.573785
O O7 0.824631 0.639398 0.000905
O O8 0.848250 0.841051 0.344597
O O9 0.660490 0.793792 0.255894
O O10 0.565440 0.671991 0.412838
O O11 0.403926 0.689737 0.584061
O O12 0.460609 0.566468 0.486641
O O13 0.240503 0.228212 0.033216
O O14 0.244375 0.182389 0.772285
#
# Coordination Sequence:
#
# PCOD9377004 Si02
#       8
#     4   8   8   8   8   8   8   4
#     4  10  24  40  68  94 138 188 244 296 370 450
#     4  10  22  40  68 104 146 178 237 306 382 456
#     4  11  21  45  67 100 141 188 240 314 369 451
#     4  11  23  43  68 100 150 190 245 305 377 455
#     4  11  24  44  73 110 150 188 248 311 387 459
#     4  10  25  43  71 101 140 194 242 305 375 452
#     4  11  24  47  66  99 148 197 240 304 369 457
#     4  10  22  40  70 116 138 186 232 308 396 448
#
# _framework density 23.947444000000001
#
# number of rings (size 3 to 8) (size 9 to 14) (size 15 to 20)
#    0.000    1.429    4.286    0.000    6.000    2.857 
#    2.571    1.429    0.000    0.000    0.000    0.000 
#    0.000    0.000    0.000    0.000    0.000    0.000 
#
# Total GULP energy -156189.843501 kJ/mol
# GULP energy per Si atom -5578.208696 kJ/mol
# Density = 2.389294 g / cm^3
# Si number density = 23.947444 Si / 1000 Ang^3
#
#
#
# Elastic Constant Matrix: (Units=GPa)
#
#
# Indices 1 2 3 4 5 6 
#
# 1 46.3256 6.1117 12.9196 0.0001 0.0000 0.0000
# 2 6.1117 88.1324 7.1548 0.0002 0.0000 0.0000
# 3 12.9196 7.1548 122.1809 0.0002 0.0000 -0.0001
# 4 0.0001 0.0002 0.0002 41.1639 0.0000 0.0000
# 5 0.0000 0.0000 0.0000 0.0000 15.1609 0.0000
# 6 0.0000 0.0000 -0.0001 0.0000 0.0000 31.8892
#
#
#
# Elastic Compliance Matrix: (Units=1/GPa)
#
#
# Indices 1 2 3 4 5 6 
#
# 1 0.022405 -0.001368 -0.002289 0.000000 0.000000 0.000000
# 2 -0.001368 0.011484 -0.000528 0.000000 0.000000 0.000000
# 3 -0.002289 -0.000528 0.008458 0.000000 0.000000 0.000000
# 4 0.000000 0.000000 0.000000 0.024293 0.000000 0.000000
# 5 0.000000 0.000000 0.000000 0.000000 0.065959 0.000000
# 6 0.000000 0.000000 0.000000 0.000000 0.000000 0.031359
#
#
# Mechanical properties :
#
#
# Convention : Reuss Voigt Hill
#
# Bulk Modulus (GPa) = 29.43136 34.33457 31.88296
# Shear Modulus (GPa) = 27.22524 33.00634 30.11579
#
# Velocity S-wave (km/s) = 3.37542 3.71655 3.55008
# Velocity P-wave (km/s) = 5.24480 5.72587 5.49060
#
# Compressibility (1/GPa) = 0.03397737
#
# Stress axis : x y z
#
# Youngs Moduli (GPa) = 44.63252 87.07554 118.23764
#
# Poissons Ratio (x) = 0.11911 0.27065
# Poissons Ratio (y) = 0.06105 0.06241
# Poissons Ratio (z) = 0.10217 0.04596
#
# Static dielectric constant tensor:
#      x y z
#    x 1.947670 0.000000 0.000000 
#    y 0.000000 1.811630 0.000000 
#    z 0.000000 0.000000 1.982460 
# 
# From -- ./inp_files/1845.got.cif
#   From: 2010.05.17/outbox.cif.g08.bks.cpg/sg45_1_cif.got.tgz:1845.got - 2010.06.03 19:51:22.
