data_PCOD9377527
_publ_section_title
;
Structure prediction by ZEFSAII (Michael W. Deem and Ramdas Pophale) SiO2 
 PCOD9377527
Probable space group: I B A 2
;
_chemical_formula_sum "Si O2"
_cell_formula_units_Z 64
_cell_length_a 30.286242
_cell_length_b 14.215283
_cell_length_c 8.409453
_cell_angle_alpha 90.000000
_cell_angle_beta 90.000000
_cell_angle_gamma 90.000000
_cell_volume 3620.500785
_symmetry_space_group_name_H-M "I B A 2"
_symmetry_group_IT_number 45
_symmetry_cell_setting 'orthorhombic'
loop_
_space_group_symop_operation_xyz
x,y,z
-x,-y,z
-x,y,1/2+z
x,-y,1/2+z
1/2+x,1/2+y,1/2+z
1/2-x,1/2-y,1/2+z
1/2-x,1/2+y,z
1/2+x,1/2-y,z
loop_
_atom_site_type_symbol
_atom_site_label
_atom_site_fract_x
_atom_site_fract_y
_atom_site_fract_z
Si Si1 0.692505 0.473016 0.209830
Si Si2 0.950592 0.887618 0.259658
Si Si3 0.758443 0.464643 0.461412
Si Si4 0.213036 0.271869 0.842138
Si Si5 0.640732 0.306811 0.369333
Si Si6 0.863734 0.849834 0.745098
Si Si7 0.293617 0.840640 0.476340
Si Si8 0.546131 0.397159 0.880302
O O1 0.741329 0.474788 0.282738
O O2 0.671436 0.371968 0.253451
O O3 0.656598 0.546895 0.271088
O O4 0.710461 0.512139 0.041238
O O5 0.909330 0.823668 0.312207
O O6 0.998927 0.859117 0.322233
O O7 0.946984 0.994022 0.327702
O O8 0.951204 0.893536 0.069700
O O9 0.777380 0.359015 0.461626
O O10 0.793283 0.547088 0.486112
O O11 0.165974 0.220713 0.849278
O O12 0.250666 0.195441 0.879866
O O13 0.213336 0.302922 0.656518
O O14 0.640559 0.336585 0.555516
O O15 0.664590 0.205778 0.387477
O O16 0.913740 0.843193 0.799203
#
# Coordination Sequence:
#
# PCOD9377527 Si02
#       8
#     8   8   8   8   8   8   8   8
#     4  12  21  34  54  74 109 146 185 224 263 318
#     4  11  22  36  55  79 108 142 179 222 278 331
#     4  12  22  37  51  76 108 149 187 227 272 314
#     4  11  23  36  53  76 107 146 186 229 273 321
#     4  11  22  36  54  79 108 145 186 227 273 327
#     4  11  22  35  54  80 108 144 187 226 273 328
#     4  11  22  36  53  77 106 145 187 228 272 321
#     4  11  22  36  55  79 108 143 178 225 274 336
#
# _framework density 17.677112999999999
#
# number of rings (size 3 to 8) (size 9 to 14) (size 15 to 20)
#    0.000    0.750    6.250    3.750    1.750    1.000 
#    0.000    0.000    0.000    0.000    0.000    0.875 
#    0.000    6.000    0.000    0.000    0.000    0.000 
#
# Total GULP energy -178227.807099 kJ/mol
# GULP energy per Si atom -5569.618972 kJ/mol
# Density = 1.763688 g / cm^3
# Si number density = 17.677113 Si / 1000 Ang^3
#
#
#
# Elastic Constant Matrix: (Units=GPa)
#
#
# Indices 1 2 3 4 5 6 
#
# 1 121.3360 43.4681 32.2785 0.0000 0.0000 0.0000
# 2 43.4681 71.9316 17.3367 0.0000 0.0000 0.0000
# 3 32.2785 17.3367 59.8978 0.0000 0.0000 0.0000
# 4 0.0000 0.0000 0.0000 7.9881 0.0000 0.0000
# 5 0.0000 0.0000 0.0000 0.0000 47.7888 0.0000
# 6 0.0000 0.0000 0.0000 0.0000 0.0000 22.0168
#
#
#
# Elastic Compliance Matrix: (Units=1/GPa)
#
#
# Indices 1 2 3 4 5 6 
#
# 1 0.011556 -0.005893 -0.004522 0.000000 0.000000 0.000000
# 2 -0.005893 0.017950 -0.002020 0.000000 0.000000 0.000000
# 3 -0.004522 -0.002020 0.019716 0.000000 0.000000 0.000000
# 4 0.000000 0.000000 0.000000 0.125186 0.000000 0.000000
# 5 0.000000 0.000000 0.000000 0.000000 0.020925 0.000000
# 6 0.000000 0.000000 0.000000 0.000000 0.000000 0.045420
#
#
# Mechanical properties :
#
#
# Convention : Reuss Voigt Hill
#
# Bulk Modulus (GPa) = 41.06225 48.81465 44.93845
# Shear Modulus (GPa) = 18.26551 26.23089 22.24820
#
# Velocity S-wave (km/s) = 3.21796 3.85631 3.55151
# Velocity P-wave (km/s) = 6.08987 6.89222 6.50343
#
# Compressibility (1/GPa) = 0.02435327
#
# Stress axis : x y z
#
# Youngs Moduli (GPa) = 86.53757 55.70982 50.71951
#
# Poissons Ratio (x) = 0.32831 0.22933
# Poissons Ratio (y) = 0.50999 0.10243
# Poissons Ratio (z) = 0.39128 0.11251
#
# Static dielectric constant tensor:
#      x y z
#    x 1.602990 0.000000 0.000000 
#    y 0.000000 1.669280 0.000000 
#    z 0.000000 0.000000 1.697790 
# 
# From -- ./inp_files/2795.got.cif
#   From: 2010.05.17/outbox.cif.g08.bks.cpg/sg45_2_cif.got.tgz:2795.got - 2010.06.03 19:51:22.
