data_PCOD9377470
_publ_section_title
;
Structure prediction by ZEFSAII (Michael W. Deem and Ramdas Pophale) SiO2 
 PCOD9377470
Probable space group: I B A 2
;
_chemical_formula_sum "Si O2"
_cell_formula_units_Z 44
_cell_length_a 7.613615
_cell_length_b 26.504766
_cell_length_c 9.133910
_cell_angle_alpha 90.000000
_cell_angle_beta 90.000000
_cell_angle_gamma 90.000000
_cell_volume 1843.196403
_symmetry_space_group_name_H-M "I B A 2"
_symmetry_group_IT_number 45
_symmetry_cell_setting 'orthorhombic'
loop_
_space_group_symop_operation_xyz
x,y,z
-x,-y,z
-x,y,1/2+z
x,-y,1/2+z
1/2+x,1/2+y,1/2+z
1/2-x,1/2-y,1/2+z
1/2-x,1/2+y,z
1/2+x,1/2-y,z
loop_
_atom_site_type_symbol
_atom_site_label
_atom_site_fract_x
_atom_site_fract_y
_atom_site_fract_z
Si Si1 0.681072 0.561674 0.126720
Si Si2 0.602518 0.813974 0.820734
Si Si3 0.027653 0.792618 0.420570
Si Si4 0.966109 0.619747 0.583817
Si Si5 0.500000 0.500000 0.369909
Si Si6 0.607408 0.643424 0.696226
O O1 0.880984 0.579094 0.102810
O O2 0.645659 0.523543 0.261114
O O3 0.561570 0.608968 0.173933
O O4 0.595647 0.539269 0.978610
O O5 0.807464 0.802498 0.815022
O O6 0.524850 0.764512 0.896949
O O7 0.526702 0.828801 0.665220
O O8 0.568987 0.863811 0.917884
O O9 0.092207 0.810903 0.578609
O O10 0.881838 0.830957 0.355650
O O11 0.776314 0.609783 0.655596
#
# Coordination Sequence:
#
# PCOD9377470 Si02
#       6
#     8   8   8   8   4   8
#     4  11  24  50  72 104 134 175 223 291 355 436
#     4  11  24  40  62 104 139 195 225 283 315 402
#     4  11  23  39  64 100 148 182 241 264 333 382
#     4  11  26  42  69  98 139 182 236 270 347 396
#     4  10  26  48  80 100 136 172 222 294 384 422
#     4  11  24  42  70 101 134 191 221 289 327 413
#
# _framework density 23.871573000000001
#
# number of rings (size 3 to 8) (size 9 to 14) (size 15 to 20)
#    0.000    1.091    1.818    3.273   10.182    2.909 
#    0.000    5.455    0.000    0.000    0.000    0.000 
#    0.000    0.000    0.000    0.000    0.000    0.000 
#
# Total GULP energy -123120.403646 kJ/mol
# GULP energy per Si atom -5596.381984 kJ/mol
# Density = 2.381724 g / cm^3
# Si number density = 23.871573 Si / 1000 Ang^3
#
#
#
# Elastic Constant Matrix: (Units=GPa)
#
#
# Indices 1 2 3 4 5 6 
#
# 1 100.6558 16.1612 22.9518 0.0000 -0.0001 0.0000
# 2 16.1612 71.9774 20.4014 0.0000 -0.0001 0.0000
# 3 22.9518 20.4014 77.5405 0.0000 -0.0001 -0.0002
# 4 0.0000 0.0000 0.0000 30.0875 0.0000 0.0000
# 5 -0.0001 -0.0001 -0.0001 0.0000 25.2045 0.0001
# 6 0.0000 0.0000 -0.0002 0.0000 0.0001 40.2300
#
#
#
# Elastic Compliance Matrix: (Units=1/GPa)
#
#
# Indices 1 2 3 4 5 6 
#
# 1 0.010831 -0.001646 -0.002773 0.000000 0.000000 0.000000
# 2 -0.001646 0.015263 -0.003529 0.000000 0.000000 0.000000
# 3 -0.002773 -0.003529 0.014646 0.000000 0.000000 0.000000
# 4 0.000000 0.000000 0.000000 0.033236 0.000000 0.000000
# 5 0.000000 0.000000 0.000000 0.000000 0.039675 0.000000
# 6 0.000000 0.000000 0.000000 0.000000 0.000000 0.024857
#
#
# Mechanical properties :
#
#
# Convention : Reuss Voigt Hill
#
# Bulk Modulus (GPa) = 40.24968 41.02249 40.63608
# Shear Modulus (GPa) = 30.73409 31.81502 31.27456
#
# Velocity S-wave (km/s) = 3.59203 3.65466 3.62348
# Velocity P-wave (km/s) = 5.83962 5.91867 5.87928
#
# Compressibility (1/GPa) = 0.02484492
#
# Stress axis : x y z
#
# Youngs Moduli (GPa) = 92.32389 65.51804 68.27955
#
# Poissons Ratio (x) = 0.10784 0.18934
# Poissons Ratio (y) = 0.15197 0.24093
# Poissons Ratio (z) = 0.25601 0.23119
#
# Static dielectric constant tensor:
#      x y z
#    x 1.927860 0.000000 0.000000 
#    y 0.000000 1.903410 0.000000 
#    z 0.000000 0.000000 1.884770 
# 
# From -- ./inp_files/1046.got.cif
#   From: 2010.05.17/outbox.cif.g08.bks.cpg/sg45_1_cif.got.tgz:1046.got - 2010.06.03 19:51:22.
