data_PCOD9377909
_publ_section_title
;
Structure prediction by ZEFSAII (Michael W. Deem and Ramdas Pophale) SiO2 
 PCOD9377909
Probable space group: I M A 2
;
_chemical_formula_sum "Si O2"
_cell_formula_units_Z 40
_cell_length_a 16.326691
_cell_length_b 5.304667
_cell_length_c 22.378506
_cell_angle_alpha 90.000000
_cell_angle_beta 90.000000
_cell_angle_gamma 90.000000
_cell_volume 1938.150016
_symmetry_space_group_name_H-M "I M A 2"
_symmetry_group_IT_number 46
_symmetry_cell_setting 'orthorhombic'
loop_
_space_group_symop_operation_xyz
x,y,z
-x,-y,z
1/2-x,y,z
1/2+x,-y,z
1/2+x,1/2+y,1/2+z
1/2-x,1/2-y,1/2+z
-x,1/2+y,1/2+z
x,1/2-y,1/2+z
loop_
_atom_site_type_symbol
_atom_site_label
_atom_site_fract_x
_atom_site_fract_y
_atom_site_fract_z
Si Si1 0.946203 0.746037 0.311820
Si Si2 0.155237 0.383554 0.696141
Si Si3 0.593075 0.230072 0.497902
Si Si4 0.910007 0.395220 0.137752
Si Si5 0.094898 0.231057 0.947318
O O1 0.882667 0.801090 0.259364
O O2 0.907799 0.691833 0.376721
O O3 0.000000 0.500000 0.296577
O O4 0.000000 0.000000 0.318683
O O5 0.250000 0.449166 0.701645
O O6 0.109996 0.635377 0.672114
O O7 0.145564 0.136451 0.654086
O O8 0.592049 0.173103 0.567781
O O9 0.632558 0.495517 0.481621
O O10 0.499429 0.249901 0.472319
O O11 0.633340 0.996885 0.464062
O O12 0.000000 0.500000 0.152237
#
# Coordination Sequence:
#
# PCOD9377909 Si02
#       5
#     8   8   8   8   8
#     4  12  21  39  65  95 121 161 216 270 307 376
#     4  12  28  44  60  90 140 177 209 256 326 381
#     4  10  18  32  58  96 127 145 190 272 330 349
#     4  12  23  41  70  98 123 165 223 270 309 375
#     4  10  17  32  56  95 130 144 189 270 338 346
#
# _framework density 20.638238999999999
#
# number of rings (size 3 to 8) (size 9 to 14) (size 15 to 20)
#    0.000    0.800    6.000    5.400    2.800    0.000 
#    0.000    0.000    0.000    7.200    0.000    0.000 
#    0.000    0.000    0.000    0.000    0.000    0.000 
#
# Total GULP energy -111718.121237 kJ/mol
# GULP energy per Si atom -5585.906062 kJ/mol
# Density = 2.059127 g / cm^3
# Si number density = 20.638239 Si / 1000 Ang^3
#
#
#
# Elastic Constant Matrix: (Units=GPa)
#
#
# Indices 1 2 3 4 5 6 
#
# 1 53.8402 33.2769 45.0829 0.0000 0.0000 0.0000
# 2 33.2769 202.1214 63.0852 0.0000 0.0000 0.0000
# 3 45.0829 63.0852 173.5705 0.0000 0.0000 0.0000
# 4 0.0000 0.0000 0.0000 45.7875 0.0000 0.0000
# 5 0.0000 0.0000 0.0000 0.0000 -9.3982 0.0000
# 6 0.0000 0.0000 0.0000 0.0000 0.0000 13.1327
#
#
#
# Elastic Compliance Matrix: (Units=1/GPa)
#
#
# Indices 1 2 3 4 5 6 
#
# 1 0.024668 -0.002325 -0.005562 0.000000 0.000000 0.000000
# 2 -0.002325 0.005800 -0.001504 0.000000 0.000000 0.000000
# 3 -0.005562 -0.001504 0.007753 0.000000 0.000000 0.000000
# 4 0.000000 0.000000 0.000000 0.021840 0.000000 0.000000
# 5 0.000000 0.000000 0.000000 0.000000 -0.106403 0.000000
# 6 0.000000 0.000000 0.000000 0.000000 0.000000 0.076146
#
#
# Mechanical properties :
#
#
# Convention : Reuss Voigt Hill
#
# Bulk Modulus (GPa) = 51.44625 79.15798 65.30212
# Shear Modulus (GPa) = 90.80195 29.11021 59.95608
#
# Velocity S-wave (km/s) = 6.64022 3.75973 5.39574
# Velocity P-wave (km/s) = 9.15269 7.56874 8.39814
#
# Compressibility (1/GPa) = 0.01943776
#
# Stress axis : x y z
#
# Youngs Moduli (GPa) = 40.53821 172.42054 128.98783
#
# Poissons Ratio (x) = 0.40093 0.71744
# Poissons Ratio (y) = 0.09426 0.19400
# Poissons Ratio (z) = 0.22548 0.25932
#
# Static dielectric constant tensor:
#      x y z
#    x 1.675610 0.000000 0.000000 
#    y 0.000000 1.781270 0.000000 
#    z 0.000000 0.000000 1.728770 
# 
# From -- ./inp_files/22139.got.cif
#   From: 2010.05.17/outbox.cif.g08.bks.cpg/sg46_12_cif.got.tgz:22139.got - 2010.06.03 19:58:25.
