data_PCOD9377048
_publ_section_title
;
Structure prediction by ZEFSAII (Michael W. Deem and Ramdas Pophale) SiO2 
 PCOD9377048
Probable space group: I B A 2
;
_chemical_formula_sum "Si O2"
_cell_formula_units_Z 64
_cell_length_a 15.307709
_cell_length_b 23.453496
_cell_length_c 8.902013
_cell_angle_alpha 90.000000
_cell_angle_beta 90.000000
_cell_angle_gamma 90.000000
_cell_volume 3195.994403
_symmetry_space_group_name_H-M "I B A 2"
_symmetry_group_IT_number 45
_symmetry_cell_setting 'orthorhombic'
loop_
_space_group_symop_operation_xyz
x,y,z
-x,-y,z
-x,y,1/2+z
x,-y,1/2+z
1/2+x,1/2+y,1/2+z
1/2-x,1/2-y,1/2+z
1/2-x,1/2+y,z
1/2+x,1/2-y,z
loop_
_atom_site_type_symbol
_atom_site_label
_atom_site_fract_x
_atom_site_fract_y
_atom_site_fract_z
Si Si1 0.395866 0.708824 0.268320
Si Si2 0.746928 0.630562 0.679848
Si Si3 0.420853 0.142665 0.307314
Si Si4 0.757718 0.305697 0.862188
Si Si5 0.064889 0.765317 0.426030
Si Si6 0.815755 0.579324 0.209350
Si Si7 0.814450 0.520746 0.524631
Si Si8 0.498256 0.076887 0.067178
O O1 0.346707 0.649581 0.237201
O O2 0.325229 0.754183 0.333602
O O3 0.480156 0.700876 0.371354
O O4 0.424275 0.732147 0.104716
O O5 0.816795 0.643840 0.808959
O O6 0.765380 0.669301 0.531361
O O7 0.763932 0.566368 0.627247
O O8 0.454322 0.201445 0.370776
O O9 0.444363 0.130491 0.134825
O O10 0.458380 0.091632 0.408417
O O11 0.656639 0.285741 0.852435
O O12 0.780984 0.357957 0.748763
O O13 0.800369 0.540190 0.355239
O O14 0.783817 0.542252 0.067920
O O15 0.919466 0.578963 0.179565
O O16 0.920070 0.530157 0.555956
#
# Coordination Sequence:
#
# PCOD9377048 Si02
#       8
#     8   8   8   8   8   8   8   8
#     4  11  23  40  61  89 121 157 201 259 313 372
#     4   9  22  40  57  82 122 157 204 253 308 369
#     4  11  20  36  54  85 117 161 197 242 304 364
#     4  10  22  42  59  88 124 164 205 259 304 379
#     4  11  23  36  62  88 121 161 204 252 313 371
#     4  11  22  39  55  81 117 157 203 248 299 359
#     4  10  23  37  57  80 117 162 200 250 299 362
#     4  11  22  34  56  81 121 156 202 244 298 368
#
# _framework density 20.025067
#
# number of rings (size 3 to 8) (size 9 to 14) (size 15 to 20)
#    0.000    1.500    2.500    2.625    8.750    1.000 
#    2.250    0.000    0.000    0.750    0.000    5.250 
#    0.000    0.000    0.000    0.000    0.000    0.000 
#
# Total GULP energy -178516.182756 kJ/mol
# GULP energy per Si atom -5578.630711 kJ/mol
# Density = 1.997949 g / cm^3
# Si number density = 20.025067 Si / 1000 Ang^3
#
#
#
# Elastic Constant Matrix: (Units=GPa)
#
#
# Indices 1 2 3 4 5 6 
#
# 1 106.2365 26.0307 29.6540 0.0000 0.0000 0.0000
# 2 26.0307 50.8450 2.7022 0.0000 0.0000 0.0000
# 3 29.6540 2.7022 31.5919 0.0002 0.0001 0.0000
# 4 0.0000 0.0000 0.0002 23.9613 0.0000 0.0000
# 5 0.0000 0.0000 0.0001 0.0000 31.3461 0.0000
# 6 0.0000 0.0000 0.0000 0.0000 0.0000 19.4956
#
#
#
# Elastic Compliance Matrix: (Units=1/GPa)
#
#
# Indices 1 2 3 4 5 6 
#
# 1 0.014816 -0.006877 -0.013319 0.000000 0.000000 0.000000
# 2 -0.006877 0.022950 0.004492 0.000000 0.000000 0.000000
# 3 -0.013319 0.004492 0.043771 0.000000 0.000000 0.000000
# 4 0.000000 0.000000 0.000000 0.041734 0.000000 0.000000
# 5 0.000000 0.000000 0.000000 0.000000 0.031902 0.000000
# 6 0.000000 0.000000 0.000000 0.000000 0.000000 0.051294
#
#
# Mechanical properties :
#
#
# Convention : Reuss Voigt Hill
#
# Bulk Modulus (GPa) = 19.94832 33.93857 26.94344
# Shear Modulus (GPa) = 19.63998 23.64638 21.64318
#
# Velocity S-wave (km/s) = 3.13512 3.44006 3.29113
# Velocity P-wave (km/s) = 4.80506 5.72394 5.28451
#
# Compressibility (1/GPa) = 0.05012954
#
# Stress axis : x y z
#
# Youngs Moduli (GPa) = 67.49588 43.57344 22.84615
#
# Poissons Ratio (x) = 0.29967 0.30428
# Poissons Ratio (y) = 0.46419 -0.10263
# Poissons Ratio (z) = 0.89895 -0.19575
#
# Static dielectric constant tensor:
#      x y z
#    x 1.743730 0.000000 0.000000 
#    y 0.000000 1.752580 0.000000 
#    z 0.000000 0.000000 1.760110 
# 
# From -- ./inp_files/1939.got.cif
#   From: 2010.05.17/outbox.cif.g08.bks.cpg/sg45_1_cif.got.tgz:1939.got - 2010.06.03 19:51:22.
