data_PCOD9377108
_publ_section_title
;
Structure prediction by ZEFSAII (Michael W. Deem and Ramdas Pophale) SiO2 
 PCOD9377108
Probable space group: I B A 2
;
_chemical_formula_sum "Si O2"
_cell_formula_units_Z 64
_cell_length_a 20.658458
_cell_length_b 9.140326
_cell_length_c 13.778412
_cell_angle_alpha 90.000000
_cell_angle_beta 90.000000
_cell_angle_gamma 90.000000
_cell_volume 2601.709208
_symmetry_space_group_name_H-M "I B A 2"
_symmetry_group_IT_number 45
_symmetry_cell_setting 'orthorhombic'
loop_
_space_group_symop_operation_xyz
x,y,z
-x,-y,z
-x,y,1/2+z
x,-y,1/2+z
1/2+x,1/2+y,1/2+z
1/2-x,1/2-y,1/2+z
1/2-x,1/2+y,z
1/2+x,1/2-y,z
loop_
_atom_site_type_symbol
_atom_site_label
_atom_site_fract_x
_atom_site_fract_y
_atom_site_fract_z
Si Si1 0.105652 0.784415 0.312600
Si Si2 0.769280 0.754668 0.895380
Si Si3 0.111028 0.282636 0.586088
Si Si4 0.061266 0.565543 0.662628
Si Si5 0.026267 0.833400 0.756402
Si Si6 0.257278 0.390107 0.593671
Si Si7 0.366956 0.600146 0.403075
Si Si8 0.704795 0.134942 0.213193
O O1 0.164836 0.685753 0.351521
O O2 0.107954 0.783435 0.194936
O O3 0.029522 0.763201 0.325070
O O4 0.121496 0.935511 0.367160
O O5 0.708372 0.646396 0.908349
O O6 0.740466 0.865957 0.815251
O O7 0.787957 0.837399 0.994105
O O8 0.069244 0.434951 0.582547
O O9 0.183812 0.340503 0.577098
O O10 0.102400 0.159224 0.504180
O O11 0.040587 0.736963 0.659679
O O12 0.133157 0.569502 0.707436
O O13 0.000000 0.500000 0.720829
O O14 0.091721 0.821870 0.818368
O O15 0.000000 0.000000 0.739188
O O16 0.292705 0.302105 0.678279
O O17 0.249184 0.553213 0.632610
#
# Coordination Sequence:
#
# PCOD9377108 Si02
#       8
#     8   8   8   8   8   8   8   8
#     4  11  23  42  72 103 142 191 252 315 385 451
#     4  11  24  40  69 100 141 191 240 313 387 444
#     4  10  22  44  69 100 147 193 245 315 382 459
#     4  11  22  44  72 103 144 199 246 305 379 454
#     4  10  22  45  72 106 145 192 256 305 376 467
#     4  10  25  41  63 104 141 176 248 300 366 472
#     4  10  24  46  68 100 149 197 251 319 382 466
#     4  11  24  43  70 100 142 191 239 302 383 443
#
# _framework density 24.599212000000001
#
# number of rings (size 3 to 8) (size 9 to 14) (size 15 to 20)
#    0.000    1.500    3.750    0.000    5.250    0.000 
#    2.250    6.250    0.000    0.000    0.000    0.000 
#    0.000    0.000    0.000    0.000    0.000    0.000 
#
# Total GULP energy -178181.991487 kJ/mol
# GULP energy per Si atom -5568.187234 kJ/mol
# Density = 2.454322 g / cm^3
# Si number density = 24.599212 Si / 1000 Ang^3
#
#
#
# Elastic Constant Matrix: (Units=GPa)
#
#
# Indices 1 2 3 4 5 6 
#
# 1 89.2079 23.4279 -17.3023 0.0000 0.0000 0.0000
# 2 23.4279 100.0516 38.2767 0.0000 0.0000 0.0000
# 3 -17.3023 38.2767 86.2922 0.0000 0.0000 0.0000
# 4 0.0000 0.0000 0.0000 27.0011 0.0000 0.0000
# 5 0.0000 0.0000 0.0000 0.0000 21.2597 0.0000
# 6 0.0000 0.0000 0.0000 0.0000 0.0000 33.7784
#
#
#
# Elastic Compliance Matrix: (Units=1/GPa)
#
#
# Indices 1 2 3 4 5 6 
#
# 1 0.013496 -0.005053 0.004948 0.000000 0.000000 0.000000
# 2 -0.005053 0.013929 -0.007192 0.000000 0.000000 0.000000
# 3 0.004948 -0.007192 0.015771 0.000000 0.000000 0.000000
# 4 0.000000 0.000000 0.000000 0.037036 0.000000 0.000000
# 5 0.000000 0.000000 0.000000 0.000000 0.047037 0.000000
# 6 0.000000 0.000000 0.000000 0.000000 0.000000 0.029605
#
#
# Mechanical properties :
#
#
# Convention : Reuss Voigt Hill
#
# Bulk Modulus (GPa) = 34.96293 40.48401 37.72347
# Shear Modulus (GPa) = 27.62387 31.81780 29.72084
#
# Velocity S-wave (km/s) = 3.35469 3.60036 3.47969
# Velocity P-wave (km/s) = 5.40825 5.81176 5.61363
#
# Compressibility (1/GPa) = 0.02860172
#
# Stress axis : x y z
#
# Youngs Moduli (GPa) = 74.09370 71.79024 63.40881
#
# Poissons Ratio (x) = 0.36276 -0.31372
# Poissons Ratio (y) = 0.37440 0.45603
# Poissons Ratio (z) = -0.36658 0.51631
#
# Static dielectric constant tensor:
#      x y z
#    x 2.030770 0.000000 0.000000 
#    y 0.000000 2.061340 0.000000 
#    z 0.000000 0.000000 1.986470 
# 
# From -- ./inp_files/7078.got.cif
#   From: 2010.05.17/outbox.cif.g08.bks.cpg/sg45_4_cif.got.tgz:7078.got - 2010.06.03 19:51:22.
