data_PCOD9377798
_publ_section_title
;
Structure prediction by ZEFSAII (Michael W. Deem and Ramdas Pophale) SiO2 
 PCOD9377798
Probable space group: I M A 2
;
_chemical_formula_sum "Si O2"
_cell_formula_units_Z 56
_cell_length_a 24.746826
_cell_length_b 26.618749
_cell_length_c 5.296057
_cell_angle_alpha 90.000000
_cell_angle_beta 90.000000
_cell_angle_gamma 90.000000
_cell_volume 3488.669244
_symmetry_space_group_name_H-M "I M A 2"
_symmetry_group_IT_number 46
_symmetry_cell_setting 'orthorhombic'
loop_
_space_group_symop_operation_xyz
x,y,z
-x,-y,z
1/2-x,y,z
1/2+x,-y,z
1/2+x,1/2+y,1/2+z
1/2-x,1/2-y,1/2+z
-x,1/2+y,1/2+z
x,1/2-y,1/2+z
loop_
_atom_site_type_symbol
_atom_site_label
_atom_site_fract_x
_atom_site_fract_y
_atom_site_fract_z
Si Si1 0.561056 0.733120 0.215260
Si Si2 0.250000 0.522527 0.670527
Si Si3 0.750000 0.957728 0.670495
Si Si4 0.367768 0.524525 0.753365
Si Si5 0.132278 0.043590 0.753423
Si Si6 0.040578 0.607955 0.708072
Si Si7 0.530684 0.884086 0.707815
Si Si8 0.439982 0.723086 0.716686
O O1 0.591005 0.749740 0.465692
O O2 0.545054 0.675031 0.213597
O O3 0.504979 0.765734 0.216264
O O4 0.250000 0.502643 0.381817
O O5 0.307549 0.548079 0.723683
O O6 0.250000 0.477711 0.881869
O O7 0.807751 0.932556 0.723590
O O8 0.371912 0.484490 0.523240
O O9 0.414330 0.565351 0.725457
O O10 0.371883 0.496560 0.023317
O O11 0.084626 0.083272 0.725935
O O12 0.066493 0.663645 0.715486
O O13 0.007090 0.604287 0.448364
O O14 0.000946 0.604574 0.948925
O O15 0.418644 0.750163 0.467085
#
# Coordination Sequence:
#
# PCOD9377798 Si02
#       8
#     8   4   4   8   8   8   8   8
#     4  10  16  30  46  63  89 121 162 192 217 268
#     4   8  16  34  54  64  84 122 168 200 218 262
#     4   8  16  34  54  64  84 122 168 200 218 262
#     4  10  21  35  49  70  96 128 160 192 231 274
#     4  10  21  35  49  70  96 128 160 192 231 274
#     4  12  21  30  48  72 100 127 156 187 238 288
#     4  12  21  30  48  72 100 127 156 187 238 288
#     4  10  16  30  46  63  89 121 162 192 217 268
#
# _framework density 16.051966
#
# number of rings (size 3 to 8) (size 9 to 14) (size 15 to 20)
#    0.000    1.714    5.714    1.714    0.000    3.429 
#    0.000    0.000    0.000    0.000    0.000    2.000 
#    0.000    0.000    0.000    0.000    0.000    0.000 
#
# Total GULP energy -155976.897176 kJ/mol
# GULP energy per Si atom -5570.603471 kJ/mol
# Density = 1.601543 g / cm^3
# Si number density = 16.051966 Si / 1000 Ang^3
#
#
#
# Elastic Constant Matrix: (Units=GPa)
#
#
# Indices 1 2 3 4 5 6 
#
# 1 72.9487 36.4106 11.5670 0.0000 0.0000 0.0000
# 2 36.4106 46.4386 3.1083 0.0000 0.0000 0.0000
# 3 11.5670 3.1083 116.8781 0.0000 0.0000 0.0000
# 4 0.0000 0.0000 0.0000 15.3086 0.0000 0.0000
# 5 0.0000 0.0000 0.0000 0.0000 12.1564 0.0000
# 6 0.0000 0.0000 0.0000 0.0000 0.0000 -2.4582
#
#
#
# Elastic Compliance Matrix: (Units=1/GPa)
#
#
# Indices 1 2 3 4 5 6 
#
# 1 0.022891 -0.017828 -0.001791 0.000000 0.000000 0.000000
# 2 -0.017828 0.035457 0.000821 0.000000 0.000000 0.000000
# 3 -0.001791 0.000821 0.008711 0.000000 0.000000 0.000000
# 4 0.000000 0.000000 0.000000 0.065323 0.000000 0.000000
# 5 0.000000 0.000000 0.000000 0.000000 0.082261 0.000000
# 6 0.000000 0.000000 0.000000 0.000000 0.000000 -0.406794
#
#
# Mechanical properties :
#
#
# Convention : Reuss Voigt Hill
#
# Bulk Modulus (GPa) = 33.94019 37.60413 35.77216
# Shear Modulus (GPa) = -34.54575 17.34665 -8.59955
#
# Velocity S-wave (km/s) = -4.64413 3.29090 -2.31710
# Velocity P-wave (km/s) = 2.75089 6.15771 3.89551
#
# Compressibility (1/GPa) = 0.02946359
#
# Stress axis : x y z
#
# Youngs Moduli (GPa) = 43.68623 28.20340 114.79270
#
# Poissons Ratio (x) = 0.50280 0.20563
# Poissons Ratio (y) = 0.77882 -0.09429
# Poissons Ratio (z) = 0.07825 -0.02317
#
# Static dielectric constant tensor:
#      x y z
#    x 1.532790 0.000000 0.000000 
#    y 0.000000 1.505280 0.000000 
#    z 0.000000 0.000000 1.638790 
# 
# From -- ./inp_files/2152.got.cif
#   From: 2010.05.17/outbox.cif.g08.bks.cpg/sg46_2_cif.got.tgz:2152.got - 2010.06.03 19:58:25.
