data_PCOD9377809
_publ_section_title
;
Structure prediction by ZEFSAII (Michael W. Deem and Ramdas Pophale) SiO2 
 PCOD9377809
Probable space group: I M A 2
;
_chemical_formula_sum "Si O2"
_cell_formula_units_Z 56
_cell_length_a 14.205653
_cell_length_b 9.508424
_cell_length_c 20.370462
_cell_angle_alpha 90.000000
_cell_angle_beta 90.000000
_cell_angle_gamma 90.000000
_cell_volume 2751.506990
_symmetry_space_group_name_H-M "I M A 2"
_symmetry_group_IT_number 46
_symmetry_cell_setting 'orthorhombic'
loop_
_space_group_symop_operation_xyz
x,y,z
-x,-y,z
1/2-x,y,z
1/2+x,-y,z
1/2+x,1/2+y,1/2+z
1/2-x,1/2-y,1/2+z
-x,1/2+y,1/2+z
x,1/2-y,1/2+z
loop_
_atom_site_type_symbol
_atom_site_label
_atom_site_fract_x
_atom_site_fract_y
_atom_site_fract_z
Si Si1 0.354968 0.126939 0.873680
Si Si2 0.480864 0.662092 0.030901
Si Si3 0.099415 0.417394 0.517233
Si Si4 0.139516 0.854443 0.786288
Si Si5 0.854470 0.935603 0.164144
Si Si6 0.453891 0.724681 0.670731
Si Si7 0.029907 0.661432 0.882286
O O1 0.250000 0.183961 0.861206
O O2 0.436863 0.242218 0.872707
O O3 0.375380 0.001160 0.823692
O O4 0.355676 0.059503 0.946861
O O5 0.500000 0.500000 0.043903
O O6 0.576482 0.751452 0.022195
O O7 0.434950 0.729649 0.095521
O O8 0.435970 0.674014 0.958375
O O9 0.148761 0.452918 0.584954
O O10 0.000000 0.500000 0.517594
O O11 0.250000 0.841776 0.771187
O O12 0.077898 0.842628 0.720936
O O13 0.105870 0.728253 0.833865
O O14 0.750000 0.902234 0.188683
O O15 0.936679 0.821609 0.177138
O O16 0.893772 0.085440 0.187943
O O17 0.000000 0.500000 0.870332
#
# Coordination Sequence:
#
# PCOD9377809 Si02
#       7
#     8   8   8   8   8   8   8
#     4  10  21  37  62  93 126 164 210 260 315 380
#     4   9  18  35  60  88 119 162 198 244 313 370
#     4  10  16  33  59  91 124 158 207 257 306 364
#     4  11  24  40  61  90 124 167 213 262 315 379
#     4  10  19  34  61  92 119 158 211 258 315 376
#     4  10  21  38  59  87 126 163 201 263 314 368
#     4  10  22  40  65  90 124 165 208 262 318 377
#
# _framework density 20.352484
#
# number of rings (size 3 to 8) (size 9 to 14) (size 15 to 20)
#    0.000    2.000    2.857    3.000    2.000    1.714 
#    0.000    1.429    0.000   20.571    0.000    0.000 
#    0.000    0.000    0.000    0.000    0.000    0.000 
#
# Total GULP energy -156199.642045 kJ/mol
# GULP energy per Si atom -5578.558644 kJ/mol
# Density = 2.030616 g / cm^3
# Si number density = 20.352484 Si / 1000 Ang^3
#
#
#
# Elastic Constant Matrix: (Units=GPa)
#
#
# Indices 1 2 3 4 5 6 
#
# 1 124.7063 43.7780 37.3295 0.0000 0.0000 0.0000
# 2 43.7780 93.5203 33.2993 0.0000 0.0000 0.0000
# 3 37.3295 33.2993 97.7637 0.0000 0.0000 0.0000
# 4 0.0000 0.0000 0.0000 28.8159 0.0000 0.0000
# 5 0.0000 0.0000 0.0000 0.0000 17.1852 0.0000
# 6 0.0000 0.0000 0.0000 0.0000 0.0000 12.6559
#
#
#
# Elastic Compliance Matrix: (Units=1/GPa)
#
#
# Indices 1 2 3 4 5 6 
#
# 1 0.010131 -0.003829 -0.002564 0.000000 0.000000 0.000000
# 2 -0.003829 0.013616 -0.003176 0.000000 0.000000 0.000000
# 3 -0.002564 -0.003176 0.012289 0.000000 0.000000 0.000000
# 4 0.000000 0.000000 0.000000 0.034703 0.000000 0.000000
# 5 0.000000 0.000000 0.000000 0.000000 0.058190 0.000000
# 6 0.000000 0.000000 0.000000 0.000000 0.000000 0.079015
#
#
# Mechanical properties :
#
#
# Convention : Reuss Voigt Hill
#
# Bulk Modulus (GPa) = 59.17718 60.53377 59.85548
# Shear Modulus (GPa) = 21.48562 25.17031 23.32797
#
# Velocity S-wave (km/s) = 3.25264 3.52052 3.38923
# Velocity P-wave (km/s) = 6.57613 6.80681 6.69246
#
# Compressibility (1/GPa) = 0.01689840
#
# Stress axis : x y z
#
# Youngs Moduli (GPa) = 98.71082 73.44217 81.37110
#
# Poissons Ratio (x) = 0.28124 0.20863
# Poissons Ratio (y) = 0.37800 0.25840
# Poissons Ratio (z) = 0.25308 0.23322
#
# Static dielectric constant tensor:
#      x y z
#    x 1.729620 0.000000 0.000000 
#    y 0.000000 1.717040 0.000000 
#    z 0.000000 0.000000 1.771470 
# 
# From -- ./inp_files/22028.got.cif
#   From: 2010.05.17/outbox.cif.g08.bks.cpg/sg46_12_cif.got.tgz:22028.got - 2010.06.03 19:58:25.
