data_PCOD9377920
_publ_section_title
;
Structure prediction by ZEFSAII (Michael W. Deem and Ramdas Pophale) SiO2 
 PCOD9377920
Probable space group: I M A 2
;
_chemical_formula_sum "Si O2"
_cell_formula_units_Z 64
_cell_length_a 8.200355
_cell_length_b 24.552235
_cell_length_c 16.018497
_cell_angle_alpha 90.000000
_cell_angle_beta 90.000000
_cell_angle_gamma 90.000000
_cell_volume 3225.116820
_symmetry_space_group_name_H-M "I M A 2"
_symmetry_group_IT_number 46
_symmetry_cell_setting 'orthorhombic'
loop_
_space_group_symop_operation_xyz
x,y,z
-x,-y,z
1/2-x,y,z
1/2+x,-y,z
1/2+x,1/2+y,1/2+z
1/2-x,1/2-y,1/2+z
-x,1/2+y,1/2+z
x,1/2-y,1/2+z
loop_
_atom_site_type_symbol
_atom_site_label
_atom_site_fract_x
_atom_site_fract_y
_atom_site_fract_z
Si Si1 0.943726 0.438100 0.078130
Si Si2 0.051201 0.748572 0.979914
Si Si3 0.052876 0.562257 0.573764
Si Si4 0.449610 0.870073 0.419358
Si Si5 0.057791 0.133271 0.734175
Si Si6 0.552844 0.250117 0.674401
Si Si7 0.553290 0.134402 0.917205
Si Si8 0.949191 0.369223 0.733703
O O1 0.750000 0.438107 0.071326
O O2 0.000000 0.500000 0.085201
O O3 0.987913 0.402842 0.159141
O O4 0.008256 0.408529 0.994302
O O5 0.250000 0.749019 0.978144
O O6 0.999430 0.692125 0.938126
O O7 0.995605 0.803808 0.935322
O O8 0.003282 0.749351 0.077160
O O9 0.250000 0.564487 0.573948
O O10 0.996387 0.595535 0.492195
O O11 0.995775 0.592449 0.658088
O O12 0.000000 0.500000 0.571332
O O13 0.250000 0.870413 0.420526
O O14 0.501407 0.886358 0.326309
O O15 0.250000 0.128511 0.731278
O O16 0.008183 0.195967 0.718978
O O17 0.997559 0.116097 0.825510
O O18 0.750000 0.248666 0.676836
O O19 0.500772 0.306921 0.715502
O O20 0.750000 0.135437 0.920030
O O21 0.750000 0.369503 0.732566
#
# Coordination Sequence:
#
# PCOD9377920 Si02
#       8
#     8   8   8   8   8   8   8   8
#     4  11  23  41  62  83 112 151 198 245 290 340
#     4   9  15  29  58  91 112 140 187 237 287 340
#     4  10  21  37  58  84 114 150 194 239 286 337
#     4   9  17  30  55  88 116 142 180 232 287 340
#     4  12  25  39  57  86 121 155 191 233 292 352
#     4  10  17  33  62  89 115 148 193 240 284 337
#     4  10  20  37  61  86 113 150 197 242 284 338
#     4   9  17  32  58  89 116 149 193 236 277 339
#
# _framework density 19.844242999999999
#
# number of rings (size 3 to 8) (size 9 to 14) (size 15 to 20)
#    0.000    2.000    2.500    2.250    0.000    3.500 
#    0.000    2.500    0.000    1.500    0.000    0.000 
#    0.000    0.000    0.000    0.000    0.000    0.000 
#
# Total GULP energy -178728.075048 kJ/mol
# GULP energy per Si atom -5585.252345 kJ/mol
# Density = 1.979908 g / cm^3
# Si number density = 19.844243 Si / 1000 Ang^3
#
#
#
# Elastic Constant Matrix: (Units=GPa)
#
#
# Indices 1 2 3 4 5 6 
#
# 1 16.2035 13.3380 14.7236 0.0000 0.0000 0.0000
# 2 13.3380 144.6438 81.0638 0.0000 0.0000 0.0000
# 3 14.7236 81.0638 186.9506 0.0001 0.0001 0.0000
# 4 0.0000 0.0000 0.0001 2.6994 0.0000 0.0000
# 5 0.0000 0.0000 0.0001 0.0000 -28.6929 0.0000
# 6 0.0000 0.0000 0.0000 0.0000 0.0000 21.2677
#
#
#
# Elastic Compliance Matrix: (Units=1/GPa)
#
#
# Indices 1 2 3 4 5 6 
#
# 1 0.068482 -0.004349 -0.003508 0.000000 0.000000 0.000000
# 2 -0.004349 0.009409 -0.003737 0.000000 0.000000 0.000000
# 3 -0.003508 -0.003737 0.007246 0.000000 0.000000 0.000000
# 4 0.000000 0.000000 0.000000 0.370456 0.000000 0.000000
# 5 0.000000 0.000000 0.000000 0.000000 -0.034852 0.000000
# 6 0.000000 0.000000 0.000000 0.000000 0.000000 0.047020
#
#
# Mechanical properties :
#
#
# Convention : Reuss Voigt Hill
#
# Bulk Modulus (GPa) = 16.14229 62.89431 39.51830
# Shear Modulus (GPa) = 9.77328 14.96634 12.36981
#
# Velocity S-wave (km/s) = 2.22164 2.74923 2.49940
# Velocity P-wave (km/s) = 3.83837 6.46842 5.31853
#
# Compressibility (1/GPa) = 0.06194907
#
# Stress axis : x y z
#
# Youngs Moduli (GPa) = 14.60230 106.27953 138.01054
#
# Poissons Ratio (x) = 0.46222 0.48409
# Poissons Ratio (y) = 0.06351 0.51580
# Poissons Ratio (z) = 0.05122 0.39721
#
# Static dielectric constant tensor:
#      x y z
#    x 1.700440 0.000000 0.000000 
#    y 0.000000 1.657200 0.000000 
#    z 0.000000 0.000000 1.713200 
# 
# From -- ./inp_files/14519.got.cif
#   From: 2010.05.17/outbox.cif.g08.bks.cpg/sg46_8_cif.got.tgz:14519.got - 2010.06.03 19:58:25.
