data_PCOD9377771
_publ_section_title
;
Structure prediction by ZEFSAII (Michael W. Deem and Ramdas Pophale) SiO2 
 PCOD9377771
Probable space group: I M A 2
;
_chemical_formula_sum "Si O2"
_cell_formula_units_Z 64
_cell_length_a 26.199546
_cell_length_b 19.767936
_cell_length_c 8.685538
_cell_angle_alpha 90.000000
_cell_angle_beta 90.000000
_cell_angle_gamma 90.000000
_cell_volume 4498.335224
_symmetry_space_group_name_H-M "I M A 2"
_symmetry_group_IT_number 46
_symmetry_cell_setting 'orthorhombic'
loop_
_space_group_symop_operation_xyz
x,y,z
-x,-y,z
1/2-x,y,z
1/2+x,-y,z
1/2+x,1/2+y,1/2+z
1/2-x,1/2-y,1/2+z
-x,1/2+y,1/2+z
x,1/2-y,1/2+z
loop_
_atom_site_type_symbol
_atom_site_label
_atom_site_fract_x
_atom_site_fract_y
_atom_site_fract_z
Si Si1 0.514502 0.656605 0.351950
Si Si2 0.956294 0.159093 0.266897
Si Si3 0.310685 0.332843 0.347378
Si Si4 0.579818 0.665172 0.762169
Si Si5 0.889605 0.921510 0.987144
Si Si6 0.632630 0.721279 0.056937
Si Si7 0.473864 0.722971 0.059115
Si Si8 0.048588 0.951733 0.035609
O O1 0.568753 0.623986 0.392777
O O2 0.505364 0.676498 0.176339
O O3 0.505935 0.725429 0.449894
O O4 0.472662 0.602778 0.412560
O O5 0.942543 0.224878 0.165025
O O6 0.943357 0.175610 0.441943
O O7 0.936885 0.091968 0.184957
O O8 0.018782 0.154929 0.261027
O O9 0.250000 0.332961 0.347478
O O10 0.335567 0.400368 0.419110
O O11 0.333081 0.320127 0.176992
O O12 0.332477 0.272478 0.456277
O O13 0.603959 0.604051 0.663309
O O14 0.596443 0.731517 0.664005
O O15 0.602110 0.676462 0.932390
O O16 0.907470 0.998587 0.977718
O O17 0.000000 0.000000 0.070936
#
# Coordination Sequence:
#
# PCOD9377771 Si02
#       8
#     8   8   8   8   8   8   8   8
#     4   9  17  26  41  59  84 106 136 172 205 250
#     4  10  16  24  41  55  85 105 135 175 198 259
#     4  10  20  32  44  61  81 111 145 193 235 260
#     4  10  16  25  39  60  74 107 134 173 213 258
#     4  10  19  29  44  56  79 116 144 177 211 260
#     4   9  20  27  43  61  83 102 141 189 229 263
#     4   9  17  23  38  62  79 106 136 166 206 239
#     4   9  16  31  38  54  81 113 139 168 213 242
#
# _framework density 14.227486000000001
#
# number of rings (size 3 to 8) (size 9 to 14) (size 15 to 20)
#    0.000    2.500    3.750    1.125   10.500    0.000 
#    0.000    3.750    0.000    0.000    0.000    0.000 
#    0.000    0.000    0.000   18.000    0.000    0.000 
#
# Total GULP energy -178230.838510 kJ/mol
# GULP energy per Si atom -5569.713703 kJ/mol
# Density = 1.419510 g / cm^3
# Si number density = 14.227486 Si / 1000 Ang^3
#
#
#
# Elastic Constant Matrix: (Units=GPa)
#
#
# Indices 1 2 3 4 5 6 
#
# 1 37.7529 20.6838 10.5795 0.0000 0.0000 0.0000
# 2 20.6838 68.9561 30.2409 0.0000 0.0000 0.0000
# 3 10.5795 30.2409 89.7251 0.0000 0.0000 0.0000
# 4 0.0000 0.0000 0.0000 17.8294 0.0000 0.0000
# 5 0.0000 0.0000 0.0000 0.0000 11.9023 0.0000
# 6 0.0000 0.0000 0.0000 0.0000 0.0000 14.5813
#
#
#
# Elastic Compliance Matrix: (Units=1/GPa)
#
#
# Indices 1 2 3 4 5 6 
#
# 1 0.031727 -0.009242 -0.000626 0.000000 0.000000 0.000000
# 2 -0.009242 0.019710 -0.005553 0.000000 0.000000 0.000000
# 3 -0.000626 -0.005553 0.013091 0.000000 0.000000 0.000000
# 4 0.000000 0.000000 0.000000 0.056087 0.000000 0.000000
# 5 0.000000 0.000000 0.000000 0.000000 0.084018 0.000000
# 6 0.000000 0.000000 0.000000 0.000000 0.000000 0.068581
#
#
# Mechanical properties :
#
#
# Convention : Reuss Voigt Hill
#
# Bulk Modulus (GPa) = 29.68720 35.49362 32.59041
# Shear Modulus (GPa) = 15.85874 17.85792 16.85833
#
# Velocity S-wave (km/s) = 3.34227 3.54668 3.44599
# Velocity P-wave (km/s) = 5.98379 6.46323 6.22812
#
# Compressibility (1/GPa) = 0.03368455
#
# Stress axis : x y z
#
# Youngs Moduli (GPa) = 31.51891 50.73677 76.39074
#
# Poissons Ratio (x) = 0.46892 0.04782
# Poissons Ratio (y) = 0.29130 0.42421
# Poissons Ratio (z) = 0.01973 0.28175
#
# Static dielectric constant tensor:
#      x y z
#    x 1.460040 0.000000 0.000000 
#    y 0.000000 1.488770 0.000000 
#    z 0.000000 0.000000 1.520710 
# 
# From -- ./inp_files/8031.got.cif
#   From: 2010.05.17/outbox.cif.g08.bks.cpg/sg46_5_cif.got.tgz:8031.got - 2010.06.03 19:58:25.
