data_PCOD9377707
_publ_section_title
;
Structure prediction by ZEFSAII (Michael W. Deem and Ramdas Pophale) SiO2 
 PCOD9377707
Probable space group: I B A 2
;
_chemical_formula_sum "Si O2"
_cell_formula_units_Z 32
_cell_length_a 17.050667
_cell_length_b 4.906465
_cell_length_c 14.200428
_cell_angle_alpha 90.000000
_cell_angle_beta 90.000000
_cell_angle_gamma 90.000000
_cell_volume 1187.986518
_symmetry_space_group_name_H-M "I B A 2"
_symmetry_group_IT_number 45
_symmetry_cell_setting 'orthorhombic'
loop_
_space_group_symop_operation_xyz
x,y,z
-x,-y,z
-x,y,1/2+z
x,-y,1/2+z
1/2+x,1/2+y,1/2+z
1/2-x,1/2-y,1/2+z
1/2-x,1/2+y,z
1/2+x,1/2-y,z
loop_
_atom_site_type_symbol
_atom_site_label
_atom_site_fract_x
_atom_site_fract_y
_atom_site_fract_z
Si Si1 0.691078 0.878508 0.892250
Si Si2 0.413859 0.489239 0.301008
Si Si3 0.421125 0.826890 0.003090
Si Si4 0.310998 0.541346 0.628607
O O1 0.749800 0.627071 0.886719
O O2 0.621623 0.788957 0.822584
O O3 0.643591 0.937009 0.987449
O O4 0.500000 0.500000 0.259547
O O5 0.422888 0.325220 0.400118
O O6 0.352570 0.376740 0.226861
O O7 0.385379 0.595471 0.070840
O O8 0.500000 0.000000 0.024431
O O9 0.251648 0.285919 0.620718
#
# Coordination Sequence:
#
# PCOD9377707 Si02
#       4
#     8   8   8   8
#     4  12  24  44  79 113 160 214 277 345 422 511
#     4  12  28  51  85 122 169 224 287 363 443 518
#     4  12  28  53  87 126 174 231 297 366 447 527
#     4  12  32  52  81 125 174 228 288 359 442 532
#
# _framework density 26.936330000000002
#
# number of rings (size 3 to 8) (size 9 to 14) (size 15 to 20)
#    0.000    0.000    5.000    3.000    7.000    3.000 
#    0.000    0.000    0.000    0.000    0.000    0.000 
#    0.000    0.000    0.000    0.000    0.000    0.000 
#
# Total GULP energy -89315.816772 kJ/mol
# GULP energy per Si atom -5582.238548 kJ/mol
# Density = 2.687502 g / cm^3
# Si number density = 26.936330 Si / 1000 Ang^3
#
#
#
# Elastic Constant Matrix: (Units=GPa)
#
#
# Indices 1 2 3 4 5 6 
#
# 1 214.3882 84.0270 65.4341 0.0000 0.0000 0.0000
# 2 84.0270 202.3696 4.3014 0.0000 0.0000 0.0000
# 3 65.4341 4.3014 63.6701 0.0000 0.0000 0.0000
# 4 0.0000 0.0000 0.0000 2.1282 0.0000 0.0000
# 5 0.0000 0.0000 0.0000 0.0000 41.2920 0.0000
# 6 0.0000 0.0000 0.0000 0.0000 0.0000 39.6063
#
#
#
# Elastic Compliance Matrix: (Units=1/GPa)
#
#
# Indices 1 2 3 4 5 6 
#
# 1 0.008637 -0.003402 -0.008646 0.000000 0.000000 0.000000
# 2 -0.003402 0.006289 0.003072 0.000000 0.000000 0.000000
# 3 -0.008646 0.003072 0.024384 0.000000 0.000000 0.000000
# 4 0.000000 0.000000 0.000000 0.469890 0.000000 0.000000
# 5 0.000000 0.000000 0.000000 0.000000 0.024218 0.000000
# 6 0.000000 0.000000 0.000000 0.000000 0.000000 0.025248
#
#
# Mechanical properties :
#
#
# Convention : Reuss Voigt Hill
#
# Bulk Modulus (GPa) = 46.82466 87.55033 67.18750
# Shear Modulus (GPa) = 8.56547 38.38299 23.47423
#
# Velocity S-wave (km/s) = 1.78516 3.77895 2.95527
# Velocity P-wave (km/s) = 4.65513 7.18428 6.05327
#
# Compressibility (1/GPa) = 0.02135627
#
# Stress axis : x y z
#
# Youngs Moduli (GPa) = 115.78123 159.01024 41.00981
#
# Poissons Ratio (x) = 0.54102 0.35459
# Poissons Ratio (y) = 0.39394 -0.12598
# Poissons Ratio (z) = 1.00109 -0.48845
#
# Static dielectric constant tensor:
#      x y z
#    x 2.064710 0.000000 0.000000 
#    y 0.000000 2.190430 0.000000 
#    z 0.000000 0.000000 2.295760 
# 
# From -- ./inp_files/6676.got.cif
#   From: 2010.05.17/outbox.cif.g08.bks.cpg/sg45_4_cif.got.tgz:6676.got - 2010.06.03 19:51:22.
