data_PCOD9377742
_publ_section_title
;
Structure prediction by ZEFSAII (Michael W. Deem and Ramdas Pophale) SiO2 
 PCOD9377742
Probable space group: I B A 2
;
_chemical_formula_sum "Si O2"
_cell_formula_units_Z 32
_cell_length_a 12.000000
_cell_length_b 30.000000
_cell_length_c 9.000000
_cell_angle_alpha 90.000000
_cell_angle_beta 90.000000
_cell_angle_gamma 90.000000
_cell_volume 3240.000000
_symmetry_space_group_name_H-M "I B A 2"
_symmetry_group_IT_number 45
_symmetry_cell_setting 'orthorhombic'
loop_
_space_group_symop_operation_xyz
x,y,z
-x,-y,z
-x,y,1/2+z
x,-y,1/2+z
1/2+x,1/2+y,1/2+z
1/2-x,1/2-y,1/2+z
1/2-x,1/2+y,z
1/2+x,1/2-y,z
loop_
_atom_site_type_symbol
_atom_site_label
_atom_site_fract_x
_atom_site_fract_y
_atom_site_fract_z
Si Si1 0.542761 0.283421 0.158440
Si Si2 0.674565 0.997931 0.668399
Si Si3 0.629164 0.845175 0.464525
Si Si4 0.839445 0.220535 0.962343
Si Si5 0.199815 0.429158 0.424188
Si Si6 0.011371 0.317298 0.694627
Si Si7 0.236133 0.323196 0.509014
Si Si8 0.433244 0.940217 0.911365
O O1 0.575621 0.290651 0.329062
O O2 0.543575 0.229430 0.145821
O O3 0.639607 0.310242 0.069659
O O4 0.414591 0.290214 0.108043
O O5 0.731792 0.037089 0.563244
O O6 0.605553 0.967601 0.554677
O O7 0.599977 0.028077 0.776472
O O8 0.732373 0.960016 0.777921
O O9 0.735546 0.813285 0.460072
O O10 0.530373 0.821605 0.369241
O O11 0.576722 0.851822 0.628138
O O12 0.637599 0.894536 0.399260
O O13 0.798327 0.272666 0.941600
O O14 0.235476 0.375273 0.441267
O O15 0.063964 0.428605 0.419874
O O16 0.136114 0.325020 0.631199
#
# Coordination Sequence:
#
# PCOD9377742 Si02
#       8
#     8   8   8   8   8   8   8   8
#     4  11  24  43  64  85 133 175 220 268 312 365
#     4  10  22  37  54  86 128 163 201 263 322 392
#     4  12  24  40  65  95 130 173 218 253 326 390
#     4  11  26  45  62  95 130 176 219 272 313 382
#     4  11  20  36  58  88 125 165 206 253 326 389
#     4  11  22  40  58  91 129 168 208 259 308 390
#     4  11  22  39  65  94 128 176 211 260 323 385
#     4  11  21  34  58  87 127 165 207 255 323 394
#
# _framework density 9.8765429999999999
#
# number of rings (size 3 to 8) (size 9 to 14) (size 15 to 20)
#    0.000    1.000    3.750    5.250    1.750    0.000 
#    4.500    0.000    0.000    0.000    0.000    5.250 
#    0.000    0.000    0.000    0.000    0.000    0.000 
#
# Total GULP energy -178158.446815 kJ/mol
# GULP energy per Si atom -5567.451463 kJ/mol
# Density = 0.985406 g / cm^3
# Si number density = 9.876543 Si / 1000 Ang^3
#
#
#
# Elastic Constant Matrix: (Units=GPa)
#
#
# Indices 1 2 3 4 5 6 
#
# 1 42.5841 41.9500 13.9299 0.0004 -0.0001 0.0000
# 2 41.9500 159.6073 34.0029 0.0003 -0.0001 0.0000
# 3 13.9299 34.0029 89.4710 0.0002 -0.0001 0.0000
# 4 0.0004 0.0003 0.0002 31.1965 0.0000 0.0000
# 5 -0.0001 -0.0001 -0.0001 0.0000 23.5713 0.0000
# 6 0.0000 0.0000 0.0000 0.0000 0.0000 35.6265
#
#
#
# Elastic Compliance Matrix: (Units=1/GPa)
#
#
# Indices 1 2 3 4 5 6 
#
# 1 0.031995 -0.007995 -0.001943 0.000000 0.000000 0.000000
# 2 -0.007995 0.008815 -0.002105 0.000000 0.000000 0.000000
# 3 -0.001943 -0.002105 0.012279 0.000000 0.000000 0.000000
# 4 0.000000 0.000000 0.000000 0.032055 0.000000 0.000000
# 5 0.000000 0.000000 0.000000 0.000000 0.042424 0.000000
# 6 0.000000 0.000000 0.000000 0.000000 0.000000 0.028069
#
#
# Mechanical properties :
#
#
# Convention : Reuss Voigt Hill
#
# Bulk Modulus (GPa) = 34.47980 52.38089 43.43035
# Shear Modulus (GPa) = 26.40021 31.53083 28.96552
#
# Velocity S-wave (km/s) = 3.65980 3.99964 3.83349
# Velocity P-wave (km/s) = 5.94577 6.92134 6.45202
#
# Compressibility (1/GPa) = 0.02900249
#
# Stress axis : x y z
#
# Youngs Moduli (GPa) = 31.25514 113.43847 81.43704
#
# Poissons Ratio (x) = 0.90698 0.15821
# Poissons Ratio (y) = 0.24990 0.17146
# Poissons Ratio (z) = 0.06072 0.23883
#
# Static dielectric constant tensor:
#      x y z
#    x 1.666190 0.000000 0.000000 
#    y 0.000000 1.743050 0.000000 
#    z 0.000000 0.000000 1.826450 
# 
# From -- ./inp_files/1503.got.cif
#   From: 2010.05.17/outbox.ucp.g08.bks.cvg/sg45_1_cif.got.tgz:1503.got - 2010.06.11 16:34:12.
