data_PCOD9377183
_publ_section_title
;
Structure prediction by ZEFSAII (Michael W. Deem and Ramdas Pophale) SiO2 
 PCOD9377183
Probable space group: I B A 2
;
_chemical_formula_sum "Si O2"
_cell_formula_units_Z 52
_cell_length_a 10.054468
_cell_length_b 14.224933
_cell_length_c 16.492474
_cell_angle_alpha 90.000000
_cell_angle_beta 90.000000
_cell_angle_gamma 90.000000
_cell_volume 2358.821806
_symmetry_space_group_name_H-M "I B A 2"
_symmetry_group_IT_number 45
_symmetry_cell_setting 'orthorhombic'
loop_
_space_group_symop_operation_xyz
x,y,z
-x,-y,z
-x,y,1/2+z
x,-y,1/2+z
1/2+x,1/2+y,1/2+z
1/2-x,1/2-y,1/2+z
1/2-x,1/2+y,z
1/2+x,1/2-y,z
loop_
_atom_site_type_symbol
_atom_site_label
_atom_site_fract_x
_atom_site_fract_y
_atom_site_fract_z
Si Si1 0.274555 0.037791 0.688390
Si Si2 0.000000 0.500000 0.062403
Si Si3 0.889282 0.854967 0.971257
Si Si4 0.048679 0.649487 0.442683
Si Si5 0.000000 0.000000 0.857706
Si Si6 0.244600 0.401944 0.815395
Si Si7 0.000000 0.000000 0.602225
Si Si8 0.319870 0.186408 0.829554
O O1 0.375727 0.038216 0.612927
O O2 0.298865 0.122249 0.751481
O O3 0.123092 0.042231 0.653627
O O4 0.325135 0.942581 0.735699
O O5 0.965107 0.414772 0.002376
O O6 0.914138 0.745582 0.987975
O O7 0.992362 0.906578 0.911556
O O8 0.764700 0.848545 0.908370
O O9 0.918394 0.920945 0.049200
O O10 0.169908 0.591169 0.401956
O O11 0.969257 0.680128 0.362328
O O12 0.132613 0.975129 0.811340
O O13 0.282814 0.293423 0.809409
#
# Coordination Sequence:
#
# PCOD9377183 Si02
#       8
#     8   4   8   8   4   8   4   8
#     4  12  26  43  63  98 142 178 217 272 341 400
#     4  12  28  42  60  92 148 184 208 274 348 404
#     4  10  23  41  71  97 129 167 235 273 322 387
#     4  11  24  43  69  99 128 178 227 276 327 392
#     4  11  19  42  68 101 123 156 224 281 327 372
#     4  11  24  41  73  99 126 176 227 278 323 390
#     4  11  27  40  70  99 135 186 212 279 333 398
#     4  11  23  43  72  99 129 172 229 280 323 391
#
# _framework density 22.044903999999999
#
# number of rings (size 3 to 8) (size 9 to 14) (size 15 to 20)
#    0.000    0.923    3.077    3.231    4.308    2.462 
#    0.000    0.000    0.000    0.000    0.000    0.000 
#    0.000    0.000    0.000    0.000    0.000    0.000 
#
# Total GULP energy -144776.474654 kJ/mol
# GULP energy per Si atom -5568.325948 kJ/mol
# Density = 2.199473 g / cm^3
# Si number density = 22.044904 Si / 1000 Ang^3
#
#
#
# Elastic Constant Matrix: (Units=GPa)
#
#
# Indices 1 2 3 4 5 6 
#
# 1 49.3364 22.2995 15.4424 0.0000 0.0000 0.0000
# 2 22.2995 123.6462 64.7553 0.0000 0.0000 0.0000
# 3 15.4424 64.7553 92.5872 0.0000 0.0000 0.0000
# 4 0.0000 0.0000 0.0000 41.4179 0.0000 0.0000
# 5 0.0000 0.0000 0.0000 0.0000 30.6272 0.0000
# 6 0.0000 0.0000 0.0000 0.0000 0.0000 29.4050
#
#
#
# Elastic Compliance Matrix: (Units=1/GPa)
#
#
# Indices 1 2 3 4 5 6 
#
# 1 0.022186 -0.003256 -0.001423 0.000000 0.000000 0.000000
# 2 -0.003256 0.013240 -0.008717 0.000000 0.000000 0.000000
# 3 -0.001423 -0.008717 0.017135 0.000000 0.000000 0.000000
# 4 0.000000 0.000000 0.000000 0.024144 0.000000 0.000000
# 5 0.000000 0.000000 0.000000 0.000000 0.032651 0.000000
# 6 0.000000 0.000000 0.000000 0.000000 0.000000 0.034008
#
#
# Mechanical properties :
#
#
# Convention : Reuss Voigt Hill
#
# Bulk Modulus (GPa) = 38.80692 52.28490 45.54591
# Shear Modulus (GPa) = 27.97280 31.16154 29.56717
#
# Velocity S-wave (km/s) = 3.56603 3.76380 3.66625
# Velocity P-wave (km/s) = 5.88194 6.53125 6.21508
#
# Compressibility (1/GPa) = 0.02576860
#
# Stress axis : x y z
#
# Youngs Moduli (GPa) = 45.07324 75.52871 58.36132
#
# Poissons Ratio (x) = 0.24591 0.08306
# Poissons Ratio (y) = 0.14675 0.50873
# Poissons Ratio (z) = 0.06415 0.65838
#
# Static dielectric constant tensor:
#      x y z
#    x 1.959130 0.000000 0.000000 
#    y 0.000000 1.695650 0.000000 
#    z 0.000000 0.000000 1.848370 
# 
# From -- ./inp_files/7954.got.cif
#   From: 2010.05.17/outbox.cif.g08.bks.cpg/sg45_4_cif.got.tgz:7954.got - 2010.06.03 19:51:22.
