data_PCOD9377886
_publ_section_title
;
Structure prediction by ZEFSAII (Michael W. Deem and Ramdas Pophale) SiO2 
 PCOD9377886
Probable space group: I M A 2
;
_chemical_formula_sum "Si O2"
_cell_formula_units_Z 64
_cell_length_a 8.693002
_cell_length_b 23.964770
_cell_length_c 19.649959
_cell_angle_alpha 90.000000
_cell_angle_beta 90.000000
_cell_angle_gamma 90.000000
_cell_volume 4093.593302
_symmetry_space_group_name_H-M "I M A 2"
_symmetry_group_IT_number 46
_symmetry_cell_setting 'orthorhombic'
loop_
_space_group_symop_operation_xyz
x,y,z
-x,-y,z
1/2-x,y,z
1/2+x,-y,z
1/2+x,1/2+y,1/2+z
1/2-x,1/2-y,1/2+z
-x,1/2+y,1/2+z
x,1/2-y,1/2+z
loop_
_atom_site_type_symbol
_atom_site_label
_atom_site_fract_x
_atom_site_fract_y
_atom_site_fract_z
Si Si1 0.433909 0.661500 0.072980
Si Si2 0.434716 0.336111 0.612384
Si Si3 0.564126 0.753779 0.346534
Si Si4 0.065469 0.438449 0.988538
Si Si5 0.433589 0.772265 0.989484
Si Si6 0.434963 0.275427 0.196763
Si Si7 0.436163 0.061440 0.204020
Si Si8 0.937139 0.883369 0.346165
O O1 0.250000 0.657496 0.070630
O O2 0.507787 0.605336 0.044584
O O3 0.487947 0.679194 0.148075
O O4 0.482935 0.713165 0.023894
O O5 0.250000 0.336962 0.604970
O O6 0.508336 0.319891 0.540657
O O7 0.471208 0.285293 0.664233
O O8 0.484068 0.393833 0.646828
O O9 0.750000 0.753738 0.348593
O O10 0.501116 0.725241 0.414168
O O11 0.517045 0.725683 0.275401
O O12 0.513416 0.818777 0.346258
O O13 0.250000 0.440125 0.988808
O O14 0.000000 0.500000 0.998926
O O15 0.013557 0.414626 0.914768
O O16 0.250000 0.772770 0.986997
O O17 0.250000 0.281900 0.193568
O O18 0.250000 0.059921 0.204376
O O19 0.486693 0.085107 0.277744
O O20 0.500000 0.000000 0.192785
O O21 0.750000 0.882835 0.345599
#
# Coordination Sequence:
#
# PCOD9377886 Si02
#       8
#     8   8   8   8   8   8   8   8
#     4  10  20  33  47  68  98 128 161 201 245 291
#     4   9  17  31  49  67  91 126 165 200 236 284
#     4  10  17  30  51  73  96 128 165 197 237 292
#     4  11  21  33  50  69  96 132 171 206 241 282
#     4  10  20  31  46  70  99 125 157 202 248 289
#     4   9  17  30  51  72  92 122 162 203 241 286
#     4  10  19  32  48  69  96 129 168 204 239 280
#     4   9  17  30  47  68  96 131 168 200 230 278
#
# _framework density 15.634187000000001
#
# number of rings (size 3 to 8) (size 9 to 14) (size 15 to 20)
#    0.000    2.250    2.500    1.500    0.000    2.000 
#    0.000    1.250    0.000    0.000    0.000    0.875 
#    0.000    4.000    0.000    0.000    0.000    0.000 
#
# Total GULP energy -178510.242731 kJ/mol
# GULP energy per Si atom -5578.445085 kJ/mol
# Density = 1.559860 g / cm^3
# Si number density = 15.634187 Si / 1000 Ang^3
#
#
#
# Elastic Constant Matrix: (Units=GPa)
#
#
# Indices 1 2 3 4 5 6 
#
# 1 23.1320 29.8170 37.7911 0.0000 0.0000 0.0000
# 2 29.8170 108.6339 78.6888 0.0000 0.0000 0.0000
# 3 37.7911 78.6888 151.8115 0.0000 0.0000 0.0000
# 4 0.0000 0.0000 0.0000 20.1023 0.0000 0.0000
# 5 0.0000 0.0000 0.0000 0.0000 15.4835 0.0000
# 6 0.0000 0.0000 0.0000 0.0000 0.0000 22.6470
#
#
#
# Elastic Compliance Matrix: (Units=1/GPa)
#
#
# Indices 1 2 3 4 5 6 
#
# 1 0.082085 -0.012375 -0.014019 0.000000 0.000000 0.000000
# 2 -0.012375 0.016605 -0.005526 0.000000 0.000000 0.000000
# 3 -0.014019 -0.005526 0.012941 0.000000 0.000000 0.000000
# 4 0.000000 0.000000 0.000000 0.049746 0.000000 0.000000
# 5 0.000000 0.000000 0.000000 0.000000 0.064585 0.000000
# 6 0.000000 0.000000 0.000000 0.000000 0.000000 0.044156
#
#
# Mechanical properties :
#
#
# Convention : Reuss Voigt Hill
#
# Bulk Modulus (GPa) = 20.92491 64.01903 42.47197
# Shear Modulus (GPa) = 14.29024 20.79859 17.54441
#
# Velocity S-wave (km/s) = 3.02659 3.65132 3.35353
# Velocity P-wave (km/s) = 5.06229 7.66898 6.49769
#
# Compressibility (1/GPa) = 0.04778994
#
# Stress axis : x y z
#
# Youngs Moduli (GPa) = 12.18245 60.22379 77.27117
#
# Poissons Ratio (x) = 0.74528 1.08330
# Poissons Ratio (y) = 0.15076 0.42701
# Poissons Ratio (z) = 0.17079 0.33281
#
# Static dielectric constant tensor:
#      x y z
#    x 1.526970 0.000000 0.000000 
#    y 0.000000 1.496680 0.000000 
#    z 0.000000 0.000000 1.517370 
# 
# From -- ./inp_files/14439.got.cif
#   From: 2010.05.17/outbox.cif.g08.bks.cpg/sg46_8_cif.got.tgz:14439.got - 2010.06.03 19:58:25.
