data_PCOD9377734
_publ_section_title
;
Structure prediction by ZEFSAII (Michael W. Deem and Ramdas Pophale) SiO2 
 PCOD9377734
Probable space group: I B A 2
;
_chemical_formula_sum "Si O2"
_cell_formula_units_Z 32
_cell_length_a 15.000000
_cell_length_b 12.000000
_cell_length_c 18.000000
_cell_angle_alpha 90.000000
_cell_angle_beta 90.000000
_cell_angle_gamma 90.000000
_cell_volume 3240.000000
_symmetry_space_group_name_H-M "I B A 2"
_symmetry_group_IT_number 45
_symmetry_cell_setting 'orthorhombic'
loop_
_space_group_symop_operation_xyz
x,y,z
-x,-y,z
-x,y,1/2+z
x,-y,1/2+z
1/2+x,1/2+y,1/2+z
1/2-x,1/2-y,1/2+z
1/2-x,1/2+y,z
1/2+x,1/2-y,z
loop_
_atom_site_type_symbol
_atom_site_label
_atom_site_fract_x
_atom_site_fract_y
_atom_site_fract_z
Si Si1 0.097030 0.244283 0.747080
Si Si2 0.602460 0.478331 0.671824
Si Si3 0.233367 0.841442 0.694799
Si Si4 0.951499 0.748685 0.513513
Si Si5 0.568453 0.818115 0.651335
Si Si6 0.669682 0.464862 0.510714
Si Si7 0.148296 0.535730 0.070304
Si Si8 0.938217 0.108876 0.397330
O O1 0.189029 0.312604 0.753315
O O2 0.082042 0.171526 0.820729
O O3 0.008196 0.309402 0.716800
O O4 0.120958 0.150909 0.685117
O O5 0.500000 0.500000 0.690257
O O6 0.669947 0.555512 0.717504
O O7 0.621287 0.507708 0.586188
O O8 0.160705 0.744558 0.675179
O O9 0.294280 0.884596 0.625712
O O10 0.870609 0.839270 0.507523
O O11 0.910811 0.622648 0.521401
O O12 0.018034 0.748493 0.584924
O O13 0.013343 0.795991 0.447165
O O14 0.595057 0.941164 0.618657
O O15 0.775610 0.471050 0.523627
O O16 0.640276 0.549163 0.445242
O O17 0.000000 0.000000 0.383412
#
# Coordination Sequence:
#
# PCOD9377734 Si02
#       8
#     8   8   8   8   8   8   8   8
#     4  12  24  42  64 103 139 181 227 288 360 422
#     4  11  18  36  65  94 124 171 231 278 332 398
#     4  11  22  37  65  99 133 175 226 291 338 399
#     4  11  20  41  67  95 136 182 222 287 350 408
#     4  12  23  40  71  99 137 180 233 296 334 420
#     4  10  20  39  65  97 129 173 233 288 332 414
#     4  11  22  37  67 105 132 172 239 289 348 399
#     4  10  24  43  68  98 141 185 230 284 358 430
#
# _framework density 9.8765429999999999
#
# number of rings (size 3 to 8) (size 9 to 14) (size 15 to 20)
#    0.000    1.000    3.750    5.625    0.000    0.000 
#    2.250    1.250    5.500    0.000    0.000    0.000 
#    0.000    0.000    0.000    0.000    0.000    0.000 
#
# Total GULP energy -178386.056919 kJ/mol
# GULP energy per Si atom -5574.564279 kJ/mol
# Density = 0.985406 g / cm^3
# Si number density = 9.876543 Si / 1000 Ang^3
#
#
#
# Elastic Constant Matrix: (Units=GPa)
#
#
# Indices 1 2 3 4 5 6 
#
# 1 126.9488 51.9255 34.4863 0.0000 0.0000 0.0000
# 2 51.9255 119.1160 23.8567 0.0000 0.0000 0.0000
# 3 34.4863 23.8567 86.1496 0.0000 0.0000 0.0000
# 4 0.0000 0.0000 0.0000 36.5048 0.0000 0.0000
# 5 0.0000 0.0000 0.0000 0.0000 18.8349 0.0000
# 6 0.0000 0.0000 0.0000 0.0000 0.0000 47.8151
#
#
#
# Elastic Compliance Matrix: (Units=1/GPa)
#
#
# Indices 1 2 3 4 5 6 
#
# 1 0.010290 -0.003876 -0.003046 0.000000 0.000000 0.000000
# 2 -0.003876 0.010348 -0.001314 0.000000 0.000000 0.000000
# 3 -0.003046 -0.001314 0.013191 0.000000 0.000000 0.000000
# 4 0.000000 0.000000 0.000000 0.027394 0.000000 0.000000
# 5 0.000000 0.000000 0.000000 0.000000 0.053093 0.000000
# 6 0.000000 0.000000 0.000000 0.000000 0.000000 0.020914
#
#
# Mechanical properties :
#
#
# Convention : Reuss Voigt Hill
#
# Bulk Modulus (GPa) = 57.61210 61.41682 59.51446
# Shear Modulus (GPa) = 31.74888 35.42737 33.58813
#
# Velocity S-wave (km/s) = 4.01345 4.23958 4.12806
# Velocity P-wave (km/s) = 7.12085 7.42463 7.27433
#
# Compressibility (1/GPa) = 0.01735746
#
# Stress axis : x y z
#
# Youngs Moduli (GPa) = 97.18345 96.63877 75.80985
#
# Poissons Ratio (x) = 0.37453 0.23091
# Poissons Ratio (y) = 0.37664 0.09962
# Poissons Ratio (z) = 0.29601 0.12700
#
# Static dielectric constant tensor:
#      x y z
#    x 1.734990 0.000000 0.000000 
#    y 0.000000 1.752050 0.000000 
#    z 0.000000 0.000000 1.719140 
# 
# From -- ./inp_files/8020.got.cif
#   From: 2010.05.17/outbox.ucp.g08.bks.cvg/sg45_5_cif.got.tgz:8020.got - 2010.06.11 16:34:12.
