data_PCOD9377770
_publ_section_title
;
Structure prediction by ZEFSAII (Michael W. Deem and Ramdas Pophale) SiO2 
 PCOD9377770
Probable space group: I M A 2
;
_chemical_formula_sum "Si O2"
_cell_formula_units_Z 40
_cell_length_a 8.595293
_cell_length_b 7.916718
_cell_length_c 27.887821
_cell_angle_alpha 90.000000
_cell_angle_beta 90.000000
_cell_angle_gamma 90.000000
_cell_volume 1897.668913
_symmetry_space_group_name_H-M "I M A 2"
_symmetry_group_IT_number 46
_symmetry_cell_setting 'orthorhombic'
loop_
_space_group_symop_operation_xyz
x,y,z
-x,-y,z
1/2-x,y,z
1/2+x,-y,z
1/2+x,1/2+y,1/2+z
1/2-x,1/2-y,1/2+z
-x,1/2+y,1/2+z
x,1/2-y,1/2+z
loop_
_atom_site_type_symbol
_atom_site_label
_atom_site_fract_x
_atom_site_fract_y
_atom_site_fract_z
Si Si1 0.436804 0.693406 0.461960
Si Si2 0.934968 0.811380 0.667035
Si Si3 0.063322 0.688590 0.565995
Si Si4 0.435523 0.806184 0.764741
Si Si5 0.935474 0.693524 0.363485
O O1 0.500000 0.500000 0.463019
O O2 0.250000 0.687944 0.457786
O O3 0.476727 0.770950 0.514201
O O4 0.507665 0.771944 0.413729
O O5 0.750000 0.807372 0.670552
O O6 0.988523 0.751313 0.615000
O O7 0.005350 0.725887 0.714893
O O8 0.000000 0.000000 0.668943
O O9 0.250000 0.692551 0.570752
O O10 0.000000 0.500000 0.561803
O O11 0.250000 0.811425 0.765183
O O12 0.498544 0.728732 0.814314
O O13 0.500000 0.000000 0.765083
O O14 0.750000 0.688718 0.361787
O O15 0.000000 0.500000 0.364261
#
# Coordination Sequence:
#
# PCOD9377770 Si02
#       5
#     8   8   8   8   8
#     4   9  16  26  41  62  90 121 154 192 235 282
#     4  11  21  34  51  72  99 130 165 204 246 291
#     4  10  20  34  51  73 100 131 166 203 244 289
#     4  10  17  27  42  62  90 121 155 194 239 287
#     4  10  16  23  37  59  88 119 152 189 235 285
#
# _framework density 21.078493000000002
#
# number of rings (size 3 to 8) (size 9 to 14) (size 15 to 20)
#    0.000    2.000    0.000   10.200    0.000    2.400 
#    0.000    0.000    0.000    0.000    0.000    1.400 
#    0.000    6.400    0.000    0.000    0.000    0.000 
#
# Total GULP energy -111509.125536 kJ/mol
# GULP energy per Si atom -5575.456277 kJ/mol
# Density = 2.103052 g / cm^3
# Si number density = 21.078493 Si / 1000 Ang^3
#
#
#
# Elastic Constant Matrix: (Units=GPa)
#
#
# Indices 1 2 3 4 5 6 
#
# 1 190.5650 2.9296 106.4238 0.0000 0.0000 0.0000
# 2 2.9296 12.2136 22.2551 0.0000 0.0000 0.0000
# 3 106.4238 22.2551 287.7213 0.0000 0.0000 0.0000
# 4 0.0000 0.0000 0.0000 14.7200 0.0000 0.0000
# 5 0.0000 0.0000 0.0000 0.0000 42.6219 0.0000
# 6 0.0000 0.0000 0.0000 0.0000 0.0000 9.7834
#
#
#
# Elastic Compliance Matrix: (Units=1/GPa)
#
#
# Indices 1 2 3 4 5 6 
#
# 1 0.006733 0.003403 -0.002754 0.000000 0.000000 0.000000
# 2 0.003403 0.097028 -0.008764 0.000000 0.000000 0.000000
# 3 -0.002754 -0.008764 0.005172 0.000000 0.000000 0.000000
# 4 0.000000 0.000000 0.000000 0.067935 0.000000 0.000000
# 5 0.000000 0.000000 0.000000 0.000000 0.023462 0.000000
# 6 0.000000 0.000000 0.000000 0.000000 0.000000 0.102214
#
#
# Mechanical properties :
#
#
# Convention : Reuss Voigt Hill
#
# Bulk Modulus (GPa) = 10.78702 83.74632 47.26667
# Shear Modulus (GPa) = 14.29897 37.35115 25.82506
#
# Velocity S-wave (km/s) = 2.60738 4.21408 3.50406
# Velocity P-wave (km/s) = 3.76739 7.96837 6.23250
#
# Compressibility (1/GPa) = 0.09270403
#
# Stress axis : x y z
#
# Youngs Moduli (GPa) = 148.52100 10.30625 193.34947
#
# Poissons Ratio (x) = -0.03507 0.53242
# Poissons Ratio (y) = -0.50535 1.69445
# Poissons Ratio (z) = 0.40897 0.09032
#
# Static dielectric constant tensor:
#      x y z
#    x 1.692350 0.000000 0.000000 
#    y 0.000000 1.808400 0.000000 
#    z 0.000000 0.000000 1.932030 
# 
# From -- ./inp_files/20834.got.cif
#   From: 2010.05.17/outbox.cif.g08.bks.cpg/sg46_11_cif.got.tgz:20834.got - 2010.06.03 19:58:25.
