data_PCOD9377913
_publ_section_title
;
Structure prediction by ZEFSAII (Michael W. Deem and Ramdas Pophale) SiO2 
 PCOD9377913
Probable space group: I M A 2
;
_chemical_formula_sum "Si O2"
_cell_formula_units_Z 64
_cell_length_a 23.852356
_cell_length_b 20.993108
_cell_length_c 8.135941
_cell_angle_alpha 90.000000
_cell_angle_beta 90.000000
_cell_angle_gamma 90.000000
_cell_volume 4073.951113
_symmetry_space_group_name_H-M "I M A 2"
_symmetry_group_IT_number 46
_symmetry_cell_setting 'orthorhombic'
loop_
_space_group_symop_operation_xyz
x,y,z
-x,-y,z
1/2-x,y,z
1/2+x,-y,z
1/2+x,1/2+y,1/2+z
1/2-x,1/2-y,1/2+z
-x,1/2+y,1/2+z
x,1/2-y,1/2+z
loop_
_atom_site_type_symbol
_atom_site_label
_atom_site_fract_x
_atom_site_fract_y
_atom_site_fract_z
Si Si1 0.549736 0.448093 0.062300
Si Si2 0.956318 0.059748 0.913623
Si Si3 0.873814 0.625241 0.614358
Si Si4 0.641762 0.686811 0.939227
Si Si5 0.816844 0.824664 0.812648
Si Si6 0.009193 0.182085 0.055534
Si Si7 0.431686 0.995167 0.228607
Si Si8 0.993370 0.678455 0.930852
O O1 0.500000 0.500000 0.077245
O O2 0.576030 0.443882 0.242516
O O3 0.586217 0.470921 0.907506
O O4 0.521140 0.380352 0.023935
O O5 0.920430 0.051937 0.078073
O O6 0.000000 0.000000 0.915560
O O7 0.989596 0.125777 0.935523
O O8 0.839939 0.646906 0.776624
O O9 0.839822 0.623316 0.443986
O O10 0.923693 0.675721 0.575516
O O11 0.905928 0.561622 0.671105
O O12 0.660965 0.757762 0.888574
O O13 0.574370 0.676475 0.943987
O O14 0.663306 0.670075 0.122394
O O15 0.750000 0.824384 0.814216
O O16 0.988953 0.171427 0.241214
O O17 0.991798 0.251411 0.994690
O O18 0.500000 0.000000 0.242923
#
# Coordination Sequence:
#
# PCOD9377913 Si02
#       8
#     8   8   8   8   8   8   8   8
#     4  10  19  29  44  65  89 123 152 195 248 293
#     4  10  18  28  46  63  91 123 148 189 246 291
#     4  11  22  34  52  70  92 122 169 212 258 304
#     4  11  21  33  49  65  87 119 159 217 267 306
#     4  12  24  36  50  67  91 127 171 218 273 309
#     4  11  18  30  43  68  93 121 157 209 247 284
#     4  10  17  33  47  67  94 118 152 201 244 297
#     4  11  20  29  46  67  94 119 165 211 251 294
#
# _framework density 15.709564
#
# number of rings (size 3 to 8) (size 9 to 14) (size 15 to 20)
#    0.000    1.250    6.250    4.125    1.750    1.500 
#    0.000    0.000    0.000    0.000    0.000    0.000 
#    0.000    0.000    0.000    0.000    0.000    1.250 
#
# Total GULP energy -178141.929748 kJ/mol
# GULP energy per Si atom -5566.935305 kJ/mol
# Density = 1.567381 g / cm^3
# Si number density = 15.709564 Si / 1000 Ang^3
#
#
#
# Elastic Constant Matrix: (Units=GPa)
#
#
# Indices 1 2 3 4 5 6 
#
# 1 21.8869 14.2378 18.8612 0.0000 0.0000 0.0000
# 2 14.2378 84.5646 27.2519 0.0000 0.0000 0.0000
# 3 18.8612 27.2519 162.4544 0.0000 0.0000 0.0000
# 4 0.0000 0.0000 0.0000 24.3569 0.0000 0.0000
# 5 0.0000 0.0000 0.0000 0.0000 12.5866 0.0000
# 6 0.0000 0.0000 0.0000 0.0000 0.0000 7.0740
#
#
#
# Elastic Compliance Matrix: (Units=1/GPa)
#
#
# Indices 1 2 3 4 5 6 
#
# 1 0.055054 -0.007621 -0.005113 0.000000 0.000000 0.000000
# 2 -0.007621 0.013556 -0.001389 0.000000 0.000000 0.000000
# 3 -0.005113 -0.001389 0.006982 0.000000 0.000000 0.000000
# 4 0.000000 0.000000 0.000000 0.041056 0.000000 0.000000
# 5 0.000000 0.000000 0.000000 0.000000 0.079450 0.000000
# 6 0.000000 0.000000 0.000000 0.000000 0.000000 0.141364
#
#
# Mechanical properties :
#
#
# Convention : Reuss Voigt Hill
#
# Bulk Modulus (GPa) = 21.12185 43.28974 32.20580
# Shear Modulus (GPa) = 13.10649 22.70716 17.90682
#
# Velocity S-wave (km/s) = 2.89156 3.80601 3.37986
# Velocity P-wave (km/s) = 4.96211 6.85058 5.98135
#
# Compressibility (1/GPa) = 0.04734433
#
# Stress axis : x y z
#
# Youngs Moduli (GPa) = 18.16410 73.76734 143.21971
#
# Poissons Ratio (x) = 0.56221 0.73233
# Poissons Ratio (y) = 0.13843 0.19896
# Poissons Ratio (z) = 0.09288 0.10248
#
# Static dielectric constant tensor:
#      x y z
#    x 1.502770 0.000000 0.000000 
#    y 0.000000 1.568370 0.000000 
#    z 0.000000 0.000000 1.630250 
# 
# From -- ./inp_files/8264.got.cif
#   From: 2010.05.17/outbox.cif.g08.bks.cpg/sg46_5_cif.got.tgz:8264.got - 2010.06.03 19:58:25.
