data_PCOD9377153
_publ_section_title
;
Structure prediction by ZEFSAII (Michael W. Deem and Ramdas Pophale) SiO2 
 PCOD9377153
Probable space group: I B A 2
;
_chemical_formula_sum "Si O2"
_cell_formula_units_Z 40
_cell_length_a 24.879691
_cell_length_b 15.257377
_cell_length_c 4.926577
_cell_angle_alpha 90.000000
_cell_angle_beta 90.000000
_cell_angle_gamma 90.000000
_cell_volume 1870.122842
_symmetry_space_group_name_H-M "I B A 2"
_symmetry_group_IT_number 45
_symmetry_cell_setting 'orthorhombic'
loop_
_space_group_symop_operation_xyz
x,y,z
-x,-y,z
-x,y,1/2+z
x,-y,1/2+z
1/2+x,1/2+y,1/2+z
1/2-x,1/2-y,1/2+z
1/2-x,1/2+y,z
1/2+x,1/2-y,z
loop_
_atom_site_type_symbol
_atom_site_label
_atom_site_fract_x
_atom_site_fract_y
_atom_site_fract_z
Si Si1 0.875245 0.805226 0.817220
Si Si2 0.704052 0.557506 0.036216
Si Si3 0.974249 0.760203 0.440398
Si Si4 0.943146 0.931139 0.188785
Si Si5 0.777604 0.707039 0.060292
O O1 0.840365 0.874632 0.642867
O O2 0.919866 0.765606 0.613994
O O3 0.835147 0.733990 0.945153
O O4 0.901549 0.859967 0.064765
O O5 0.698743 0.472832 0.227852
O O6 0.760980 0.605858 0.076710
O O7 0.984611 0.861118 0.332968
O O8 0.017893 0.718091 0.645191
O O9 0.940181 0.997180 0.446240
O O10 0.734867 0.749152 0.848264
#
# Coordination Sequence:
#
# PCOD9377153 Si02
#       5
#     8   8   8   8   8
#     4  11  24  39  62  80 116 161 202 241 295 355
#     4  11  23  38  59  87 117 150 192 241 292 359
#     4  12  25  40  51  76 112 152 201 248 282 330
#     4  12  23  36  50  75 105 151 201 244 281 322
#     4  10  23  39  59  87 115 151 196 246 298 352
#
# _framework density 21.38897
#
# number of rings (size 3 to 8) (size 9 to 14) (size 15 to 20)
#    0.000    0.800    4.000    3.600    8.400    2.400 
#    0.000    0.000    0.000    0.000    0.000    0.000 
#    0.000    4.800    0.000    0.000    0.000    0.000 
#
# Total GULP energy -111433.416782 kJ/mol
# GULP energy per Si atom -5571.670839 kJ/mol
# Density = 2.134029 g / cm^3
# Si number density = 21.388970 Si / 1000 Ang^3
#
#
#
# Elastic Constant Matrix: (Units=GPa)
#
#
# Indices 1 2 3 4 5 6 
#
# 1 94.5376 25.0339 10.0502 0.0000 0.0000 0.0000
# 2 25.0339 18.6010 -3.5469 0.0000 0.0000 0.0000
# 3 10.0502 -3.5469 128.0335 0.0000 0.0000 0.0000
# 4 0.0000 0.0000 0.0000 22.4420 0.0000 0.0000
# 5 0.0000 0.0000 0.0000 0.0000 34.6393 0.0000
# 6 0.0000 0.0000 0.0000 0.0000 0.0000 37.7850
#
#
#
# Elastic Compliance Matrix: (Units=1/GPa)
#
#
# Indices 1 2 3 4 5 6 
#
# 1 0.016915 -0.023140 -0.001969 0.000000 0.000000 0.000000
# 2 -0.023140 0.085702 0.004191 0.000000 0.000000 0.000000
# 3 -0.001969 0.004191 0.008081 0.000000 0.000000 0.000000
# 4 0.000000 0.000000 0.000000 0.044559 0.000000 0.000000
# 5 0.000000 0.000000 0.000000 0.000000 0.028869 0.000000
# 6 0.000000 0.000000 0.000000 0.000000 0.000000 0.026466
#
#
# Mechanical properties :
#
#
# Convention : Reuss Voigt Hill
#
# Bulk Modulus (GPa) = 14.52184 33.80518 24.16351
# Shear Modulus (GPa) = 18.15666 32.94892 25.55279
#
# Velocity S-wave (km/s) = 2.91671 3.92913 3.46015
# Velocity P-wave (km/s) = 4.25994 6.03518 5.22353
#
# Compressibility (1/GPa) = 0.06886180
#
# Stress axis : x y z
#
# Youngs Moduli (GPa) = 59.12064 11.66835 123.74570
#
# Poissons Ratio (x) = 0.27000 0.24363
# Poissons Ratio (y) = 1.36803 -0.51857
# Poissons Ratio (z) = 0.11640 -0.04890
#
# Static dielectric constant tensor:
#      x y z
#    x 2.207010 0.000000 0.000000 
#    y 0.000000 1.778500 0.000000 
#    z 0.000000 0.000000 2.020620 
# 
# From -- ./inp_files/661.got.cif
#   From: 2010.05.17/outbox.cif.g08.bks.cpg/sg45_1_cif.got.tgz:661.got - 2010.06.03 19:51:22.
