data_PCOD9377593
_publ_section_title
;
Structure prediction by ZEFSAII (Michael W. Deem and Ramdas Pophale) SiO2 
 PCOD9377593
Probable space group: I B A 2
;
_chemical_formula_sum "Si O2"
_cell_formula_units_Z 48
_cell_length_a 16.602708
_cell_length_b 13.400196
_cell_length_c 8.859804
_cell_angle_alpha 90.000000
_cell_angle_beta 90.000000
_cell_angle_gamma 90.000000
_cell_volume 1971.125130
_symmetry_space_group_name_H-M "I B A 2"
_symmetry_group_IT_number 45
_symmetry_cell_setting 'orthorhombic'
loop_
_space_group_symop_operation_xyz
x,y,z
-x,-y,z
-x,y,1/2+z
x,-y,1/2+z
1/2+x,1/2+y,1/2+z
1/2-x,1/2-y,1/2+z
1/2-x,1/2+y,z
1/2+x,1/2-y,z
loop_
_atom_site_type_symbol
_atom_site_label
_atom_site_fract_x
_atom_site_fract_y
_atom_site_fract_z
Si Si1 0.041412 0.280811 0.921590
Si Si2 0.152625 0.409463 0.112212
Si Si3 0.597164 0.125090 0.610078
Si Si4 0.881832 0.894885 0.804226
Si Si5 0.785762 0.690599 0.399428
Si Si6 0.671636 0.406761 0.467684
O O1 0.066894 0.340425 0.771766
O O2 0.043199 0.164681 0.875189
O O3 0.106320 0.314711 0.046178
O O4 0.958336 0.320375 0.987795
O O5 0.097886 0.506551 0.097748
O O6 0.172428 0.386126 0.284739
O O7 0.237045 0.428601 0.026729
O O8 0.687594 0.161241 0.568738
O O9 0.807009 0.826778 0.861607
O O10 0.879146 0.894522 0.622832
O O11 0.864401 0.004269 0.868771
O O12 0.816135 0.803216 0.379618
#
# Coordination Sequence:
#
# PCOD9377593 Si02
#       6
#     8   8   8   8   8   8
#     4  12  26  45  69 102 145 190 246 301 377 445
#     4  11  24  40  72 108 147 190 233 305 372 437
#     4  12  25  46  68 104 144 194 242 301 372 447
#     4  11  25  43  74 109 141 190 247 307 374 438
#     4  11  23  44  72 107 147 187 243 308 368 442
#     4  11  24  42  73 110 145 187 244 307 368 438
#
# _framework density 24.351573999999999
#
# number of rings (size 3 to 8) (size 9 to 14) (size 15 to 20)
#    0.000    0.667    5.000    2.500    4.667    1.333 
#    0.000    0.833    0.000    0.000    0.000    0.000 
#    0.000    0.000    0.000    0.000    0.000    0.000 
#
# Total GULP energy -134427.941040 kJ/mol
# GULP energy per Si atom -5601.164210 kJ/mol
# Density = 2.429615 g / cm^3
# Si number density = 24.351574 Si / 1000 Ang^3
#
#
#
# Elastic Constant Matrix: (Units=GPa)
#
#
# Indices 1 2 3 4 5 6 
#
# 1 41.8513 10.6092 23.2870 0.0000 0.0000 0.0000
# 2 10.6092 153.4656 14.2048 0.0000 0.0000 0.0000
# 3 23.2870 14.2048 83.4788 0.0000 0.0000 0.0000
# 4 0.0000 0.0000 0.0000 40.2641 0.0000 0.0000
# 5 0.0000 0.0000 0.0000 0.0000 30.7550 0.0000
# 6 0.0000 0.0000 0.0000 0.0000 0.0000 40.1619
#
#
#
# Elastic Compliance Matrix: (Units=1/GPa)
#
#
# Indices 1 2 3 4 5 6 
#
# 1 0.028520 -0.001255 -0.007742 0.000000 0.000000 0.000000
# 2 -0.001255 0.006676 -0.000786 0.000000 0.000000 0.000000
# 3 -0.007742 -0.000786 0.014273 0.000000 0.000000 0.000000
# 4 0.000000 0.000000 0.000000 0.024836 0.000000 0.000000
# 5 0.000000 0.000000 0.000000 0.000000 0.032515 0.000000
# 6 0.000000 0.000000 0.000000 0.000000 0.000000 0.024899
#
#
# Mechanical properties :
#
#
# Convention : Reuss Voigt Hill
#
# Bulk Modulus (GPa) = 33.44251 41.66641 37.55446
# Shear Modulus (GPa) = 31.00726 37.61585 34.31155
#
# Velocity S-wave (km/s) = 3.57223 3.93453 3.75775
# Velocity P-wave (km/s) = 5.54774 6.14721 5.85515
#
# Compressibility (1/GPa) = 0.02990206
#
# Stress axis : x y z
#
# Youngs Moduli (GPa) = 35.06278 149.79895 70.06433
#
# Poissons Ratio (x) = 0.18800 0.54246
# Poissons Ratio (y) = 0.04400 0.05506
# Poissons Ratio (z) = 0.27147 0.11772
#
# Static dielectric constant tensor:
#      x y z
#    x 2.009390 0.000000 0.000000 
#    y 0.000000 1.930790 0.000000 
#    z 0.000000 0.000000 1.883010 
# 
# From -- ./inp_files/2076.got.cif
#   From: 2010.05.17/outbox.cif.g08.bks.cpg/sg45_2_cif.got.tgz:2076.got - 2010.06.03 19:51:22.
