data_PCOD9377554
_publ_section_title
;
Structure prediction by ZEFSAII (Michael W. Deem and Ramdas Pophale) SiO2 
 PCOD9377554
Probable space group: I B A 2
;
_chemical_formula_sum "Si O2"
_cell_formula_units_Z 60
_cell_length_a 15.350504
_cell_length_b 13.818184
_cell_length_c 14.294959
_cell_angle_alpha 90.000000
_cell_angle_beta 90.000000
_cell_angle_gamma 90.000000
_cell_volume 3032.190792
_symmetry_space_group_name_H-M "I B A 2"
_symmetry_group_IT_number 45
_symmetry_cell_setting 'orthorhombic'
loop_
_space_group_symop_operation_xyz
x,y,z
-x,-y,z
-x,y,1/2+z
x,-y,1/2+z
1/2+x,1/2+y,1/2+z
1/2-x,1/2-y,1/2+z
1/2-x,1/2+y,z
1/2+x,1/2-y,z
loop_
_atom_site_type_symbol
_atom_site_label
_atom_site_fract_x
_atom_site_fract_y
_atom_site_fract_z
Si Si1 0.279893 0.488872 0.826970
Si Si2 0.874668 0.818758 0.391232
Si Si3 0.500000 0.000000 0.738821
Si Si4 0.031338 0.318281 0.858072
Si Si5 0.320306 0.956766 0.637496
Si Si6 0.790427 0.212933 0.292183
Si Si7 0.161710 0.386728 0.983330
Si Si8 0.288209 0.744574 0.571869
O O1 0.364759 0.428681 0.857413
O O2 0.247553 0.462164 0.722861
O O3 0.292061 0.603645 0.830909
O O4 0.206903 0.444251 0.897046
O O5 0.795729 0.763577 0.335681
O O6 0.857025 0.806488 0.502223
O O7 0.964352 0.767977 0.368213
O O8 0.485282 0.095980 0.800434
O O9 0.583860 0.030541 0.680303
O O10 0.122159 0.274785 0.816318
O O11 0.062825 0.368263 0.954494
O O12 0.307608 0.857962 0.580741
O O13 0.313476 0.046339 0.569027
O O14 0.785238 0.209997 0.179225
O O15 0.200522 0.283297 0.015743
#
# Coordination Sequence:
#
# PCOD9377554 Si02
#       8
#     8   8   4   8   8   8   8   8
#     4  11  22  45  67  92 131 181 224 273 340 408
#     4  11  25  43  66  98 136 180 226 281 346 410
#     4  12  24  38  62 100 140 164 218 282 340 402
#     4  12  26  43  67 100 141 177 224 283 354 410
#     4  12  23  39  67  99 128 175 223 278 341 406
#     4  12  22  46  69  93 137 178 228 285 338 414
#     4  11  24  41  66 100 128 179 227 278 343 401
#     4  11  22  42  66  98 131 173 224 279 336 411
#
# _framework density 19.787673000000002
#
# number of rings (size 3 to 8) (size 9 to 14) (size 15 to 20)
#    0.000    0.533    8.000    1.600    3.733    0.533 
#    0.000    0.000    0.000    1.600    0.000    0.000 
#    0.000    0.000    0.000    0.000    0.000    0.000 
#
# Total GULP energy -167370.272218 kJ/mol
# GULP energy per Si atom -5579.009074 kJ/mol
# Density = 1.974264 g / cm^3
# Si number density = 19.787673 Si / 1000 Ang^3
#
#
#
# Elastic Constant Matrix: (Units=GPa)
#
#
# Indices 1 2 3 4 5 6 
#
# 1 54.9360 20.1333 16.4599 0.0000 0.0000 0.0000
# 2 20.1333 111.2130 9.6436 0.0000 0.0000 0.0000
# 3 16.4599 9.6436 93.1977 0.0000 0.0000 0.0000
# 4 0.0000 0.0000 0.0000 36.0529 0.0000 0.0000
# 5 0.0000 0.0000 0.0000 0.0000 -20.2403 0.0000
# 6 0.0000 0.0000 0.0000 0.0000 0.0000 -5.1673
#
#
#
# Elastic Compliance Matrix: (Units=1/GPa)
#
#
# Indices 1 2 3 4 5 6 
#
# 1 0.020430 -0.003416 -0.003255 0.000000 0.000000 0.000000
# 2 -0.003416 0.009644 -0.000395 0.000000 0.000000 0.000000
# 3 -0.003255 -0.000395 0.011346 0.000000 0.000000 0.000000
# 4 0.000000 0.000000 0.000000 0.027737 0.000000 0.000000
# 5 0.000000 0.000000 0.000000 0.000000 -0.049406 0.000000
# 6 0.000000 0.000000 0.000000 0.000000 0.000000 -0.193523
#
#
# Mechanical properties :
#
#
# Convention : Reuss Voigt Hill
#
# Bulk Modulus (GPa) = 36.64494 39.09114 37.86804
# Shear Modulus (GPa) = -33.21267 16.33639 -8.43814
#
# Velocity S-wave (km/s) = -4.10134 2.87642 -2.06727
# Velocity P-wave (km/s) = 1.96690 5.55247 3.67159
#
# Compressibility (1/GPa) = 0.02728890
#
# Stress axis : x y z
#
# Youngs Moduli (GPa) = 48.94712 103.68674 88.14045
#
# Poissons Ratio (x) = 0.35423 0.28687
# Poissons Ratio (y) = 0.16722 0.03478
# Poissons Ratio (z) = 0.15931 0.04091
#
# Static dielectric constant tensor:
#      x y z
#    x 1.698310 0.000000 0.000000 
#    y 0.000000 1.732900 0.000000 
#    z 0.000000 0.000000 1.752680 
# 
# From -- ./inp_files/6606.got.cif
#   From: 2010.05.17/outbox.cif.g08.bks.cpg/sg45_4_cif.got.tgz:6606.got - 2010.06.03 19:51:22.
