data_PCOD9377194
_publ_section_title
;
Structure prediction by ZEFSAII (Michael W. Deem and Ramdas Pophale) SiO2 
 PCOD9377194
Probable space group: I B A 2
;
_chemical_formula_sum "Si O2"
_cell_formula_units_Z 64
_cell_length_a 17.488719
_cell_length_b 13.990499
_cell_length_c 11.715848
_cell_angle_alpha 90.000000
_cell_angle_beta 90.000000
_cell_angle_gamma 90.000000
_cell_volume 2866.585720
_symmetry_space_group_name_H-M "I B A 2"
_symmetry_group_IT_number 45
_symmetry_cell_setting 'orthorhombic'
loop_
_space_group_symop_operation_xyz
x,y,z
-x,-y,z
-x,y,1/2+z
x,-y,1/2+z
1/2+x,1/2+y,1/2+z
1/2-x,1/2-y,1/2+z
1/2-x,1/2+y,z
1/2+x,1/2-y,z
loop_
_atom_site_type_symbol
_atom_site_label
_atom_site_fract_x
_atom_site_fract_y
_atom_site_fract_z
Si Si1 0.837577 0.868660 0.329200
Si Si2 0.573524 0.300235 0.555381
Si Si3 0.265470 0.308527 0.342788
Si Si4 0.768737 0.487799 0.740078
Si Si5 0.429784 0.751401 0.916317
Si Si6 0.006071 0.893020 0.745210
Si Si7 0.915909 0.523809 0.885762
Si Si8 0.164346 0.386930 0.549977
O O1 0.880544 0.841781 0.446649
O O2 0.772556 0.790677 0.306955
O O3 0.791582 0.966795 0.328531
O O4 0.903454 0.875178 0.233584
O O5 0.488801 0.262353 0.520363
O O6 0.551209 0.386643 0.638836
O O7 0.621453 0.207572 0.599853
O O8 0.259545 0.379172 0.234068
O O9 0.347311 0.297129 0.401691
O O10 0.210259 0.349573 0.440552
O O11 0.852808 0.494079 0.794058
O O12 0.778078 0.553700 0.629671
O O13 0.477426 0.697504 0.817850
O O14 0.413519 0.863284 0.904702
O O15 0.000000 0.000000 0.797465
O O16 0.000000 0.500000 0.843882
O O17 0.897266 0.462163 0.999122
#
# Coordination Sequence:
#
# PCOD9377194 Si02
#       8
#     8   8   8   8   8   8   8   8
#     4  10  23  45  63  94 134 167 223 276 337 399
#     4  10  23  42  68  94 135 177 226 289 333 416
#     4  10  23  43  65  95 133 174 219 277 342 405
#     4  11  23  42  67  94 134 178 215 284 340 413
#     4  11  22  44  68  94 136 177 222 281 343 409
#     4  11  25  42  66  97 130 179 229 273 336 410
#     4  11  22  42  67  97 133 175 221 277 349 408
#     4  10  23  43  63 102 133 168 233 281 348 418
#
# _framework density 22.326212000000002
#
# number of rings (size 3 to 8) (size 9 to 14) (size 15 to 20)
#    0.000    1.500    2.500    1.500    3.500    4.500 
#    6.750    0.000    0.000    0.000    0.000    0.000 
#    0.000    0.000    0.000    0.000    0.000    0.000 
#
# Total GULP energy -178486.962804 kJ/mol
# GULP energy per Si atom -5577.717588 kJ/mol
# Density = 2.227540 g / cm^3
# Si number density = 22.326212 Si / 1000 Ang^3
#
#
#
# Elastic Constant Matrix: (Units=GPa)
#
#
# Indices 1 2 3 4 5 6 
#
# 1 119.9577 9.3300 -4.9501 0.0000 0.0000 0.0000
# 2 9.3300 53.8062 -2.3501 0.0000 0.0000 0.0000
# 3 -4.9501 -2.3501 19.8678 0.0000 0.0000 0.0000
# 4 0.0000 0.0000 0.0000 14.5882 0.0000 0.0000
# 5 0.0000 0.0000 0.0000 0.0000 -8.1730 0.0000
# 6 0.0000 0.0000 0.0000 0.0000 0.0000 37.7998
#
#
#
# Elastic Compliance Matrix: (Units=1/GPa)
#
#
# Indices 1 2 3 4 5 6 
#
# 1 0.008525 -0.001393 0.001959 0.000000 0.000000 0.000000
# 2 -0.001393 0.018909 0.001890 0.000000 0.000000 0.000000
# 3 0.001959 0.001890 0.051044 0.000000 0.000000 0.000000
# 4 0.000000 0.000000 0.000000 0.068548 0.000000 0.000000
# 5 0.000000 0.000000 0.000000 0.000000 -0.122354 0.000000
# 6 0.000000 0.000000 0.000000 0.000000 0.000000 0.026455
#
#
# Mechanical properties :
#
#
# Convention : Reuss Voigt Hill
#
# Bulk Modulus (GPa) = 11.99158 21.96569 16.97864
# Shear Modulus (GPa) = 67.55521 21.61647 44.58584
#
# Velocity S-wave (km/s) = 5.50672 3.11498 4.47365
# Velocity P-wave (km/s) = 6.76865 4.77466 5.85713
#
# Compressibility (1/GPa) = 0.08339185
#
# Stress axis : x y z
#
# Youngs Moduli (GPa) = 117.29584 52.88414 19.59081
#
# Poissons Ratio (x) = 0.07365 -0.03839
# Poissons Ratio (y) = 0.16336 -0.03702
# Poissons Ratio (z) = -0.22983 -0.09994
#
# Static dielectric constant tensor:
#      x y z
#    x 1.844520 0.000000 0.000000 
#    y 0.000000 1.852360 0.000000 
#    z 0.000000 0.000000 1.892910 
# 
# From -- ./inp_files/4274.got.cif
#   From: 2010.05.17/outbox.cif.g08.bks.cpg/sg45_3_cif.got.tgz:4274.got - 2010.06.03 19:51:22.
