data_PCOD9377008
_publ_section_title
;
Structure prediction by ZEFSAII (Michael W. Deem and Ramdas Pophale) SiO2 
 PCOD9377008
Probable space group: I B A 2
;
_chemical_formula_sum "Si O2"
_cell_formula_units_Z 48
_cell_length_a 9.600558
_cell_length_b 13.512039
_cell_length_c 15.866535
_cell_angle_alpha 90.000000
_cell_angle_beta 90.000000
_cell_angle_gamma 90.000000
_cell_volume 2058.256330
_symmetry_space_group_name_H-M "I B A 2"
_symmetry_group_IT_number 45
_symmetry_cell_setting 'orthorhombic'
loop_
_space_group_symop_operation_xyz
x,y,z
-x,-y,z
-x,y,1/2+z
x,-y,1/2+z
1/2+x,1/2+y,1/2+z
1/2-x,1/2-y,1/2+z
1/2-x,1/2+y,z
1/2+x,1/2-y,z
loop_
_atom_site_type_symbol
_atom_site_label
_atom_site_fract_x
_atom_site_fract_y
_atom_site_fract_z
Si Si1 0.585041 0.167222 0.760200
Si Si2 0.285874 0.485101 0.751608
Si Si3 0.383202 0.068747 0.894699
Si Si4 0.282931 0.751335 0.925699
Si Si5 0.467826 0.636697 0.678759
Si Si6 0.463202 0.385545 0.982488
O O1 0.661625 0.078495 0.713101
O O2 0.466916 0.120702 0.818377
O O3 0.692230 0.217805 0.827768
O O4 0.531987 0.248769 0.697360
O O5 0.236245 0.508083 0.846041
O O6 0.323066 0.586270 0.705745
O O7 0.419280 0.415110 0.739436
O O8 0.314327 0.156666 0.944720
O O9 0.500000 0.000000 0.937166
O O10 0.433211 0.701260 0.947831
O O11 0.194965 0.843082 0.966235
O O12 0.492536 0.613203 0.582278
O O13 0.500000 0.500000 0.953781
#
# Coordination Sequence:
#
# PCOD9377008 Si02
#       6
#     8   8   8   8   8   8
#     4  11  23  41  74 102 132 177 243 294 353 406
#     4  10  22  40  68  97 130 174 236 290 343 407
#     4  10  22  41  67 105 136 176 239 307 350 416
#     4  12  26  45  70 106 141 197 235 303 358 439
#     4  11  24  44  68 101 135 189 233 289 353 430
#     4  12  30  46  70 104 155 196 241 288 377 439
#
# _framework density 23.320709999999998
#
# number of rings (size 3 to 8) (size 9 to 14) (size 15 to 20)
#    0.000    1.000    5.000    1.000    7.000    0.000 
#    0.000    0.000    0.000    0.000    0.000    0.000 
#    0.000    0.000    0.000    0.000    0.000    0.000 
#
# Total GULP energy -133835.706597 kJ/mol
# GULP energy per Si atom -5576.487775 kJ/mol
# Density = 2.326763 g / cm^3
# Si number density = 23.320710 Si / 1000 Ang^3
#
#
#
# Elastic Constant Matrix: (Units=GPa)
#
#
# Indices 1 2 3 4 5 6 
#
# 1 71.9130 24.9761 16.0954 0.0000 0.0000 0.0000
# 2 24.9761 112.3040 17.4145 0.0000 0.0000 0.0000
# 3 16.0954 17.4145 26.9279 0.0000 0.0000 0.0000
# 4 0.0000 0.0000 0.0000 13.9323 0.0000 0.0000
# 5 0.0000 0.0000 0.0000 0.0000 1.4822 0.0000
# 6 0.0000 0.0000 0.0000 0.0000 0.0000 59.3186
#
#
#
# Elastic Compliance Matrix: (Units=1/GPa)
#
#
# Indices 1 2 3 4 5 6 
#
# 1 0.016613 -0.002395 -0.008381 0.000000 0.000000 0.000000
# 2 -0.002395 0.010242 -0.005192 0.000000 0.000000 0.000000
# 3 -0.008381 -0.005192 0.045504 0.000000 0.000000 0.000000
# 4 0.000000 0.000000 0.000000 0.071776 0.000000 0.000000
# 5 0.000000 0.000000 0.000000 0.000000 0.674674 0.000000
# 6 0.000000 0.000000 0.000000 0.000000 0.000000 0.016858
#
#
# Mechanical properties :
#
#
# Convention : Reuss Voigt Hill
#
# Bulk Modulus (GPa) = 24.73880 36.45742 30.59811
# Shear Modulus (GPa) = 5.67487 25.12387 15.39937
#
# Velocity S-wave (km/s) = 1.56163 3.28582 2.57248
# Velocity P-wave (km/s) = 3.72595 5.48292 4.68749
#
# Compressibility (1/GPa) = 0.04042233
#
# Stress axis : x y z
#
# Youngs Moduli (GPa) = 60.19233 97.63533 21.97625
#
# Poissons Ratio (x) = 0.23385 0.18419
# Poissons Ratio (y) = 0.14417 0.11410
# Poissons Ratio (z) = 0.50449 0.50693
#
# Static dielectric constant tensor:
#      x y z
#    x 2.030310 0.000000 0.000000 
#    y 0.000000 1.962000 0.000000 
#    z 0.000000 0.000000 1.802280 
# 
# From -- ./inp_files/8804.got.cif
#   From: 2010.05.17/outbox.cif.g08.bks.cpg/sg45_5_cif.got.tgz:8804.got - 2010.06.03 19:51:22.
