data_PCOD9377822
_publ_section_title
;
Structure prediction by ZEFSAII (Michael W. Deem and Ramdas Pophale) SiO2 
 PCOD9377822
Probable space group: I M A 2
;
_chemical_formula_sum "Si O2"
_cell_formula_units_Z 56
_cell_length_a 9.311512
_cell_length_b 22.526027
_cell_length_c 18.113938
_cell_angle_alpha 90.000000
_cell_angle_beta 90.000000
_cell_angle_gamma 90.000000
_cell_volume 3799.423325
_symmetry_space_group_name_H-M "I M A 2"
_symmetry_group_IT_number 46
_symmetry_cell_setting 'orthorhombic'
loop_
_space_group_symop_operation_xyz
x,y,z
-x,-y,z
1/2-x,y,z
1/2+x,-y,z
1/2+x,1/2+y,1/2+z
1/2-x,1/2-y,1/2+z
-x,1/2+y,1/2+z
x,1/2-y,1/2+z
loop_
_atom_site_type_symbol
_atom_site_label
_atom_site_fract_x
_atom_site_fract_y
_atom_site_fract_z
Si Si1 0.922943 0.936760 0.452360
Si Si2 0.578791 0.715798 0.368048
Si Si3 0.415775 0.677857 0.676614
Si Si4 0.578188 0.147756 0.566374
Si Si5 0.415516 0.816177 0.727316
Si Si6 0.079269 0.149602 0.318078
Si Si7 0.077657 0.715699 0.518948
O O1 0.750000 0.941983 0.457542
O O2 0.958608 0.900199 0.377713
O O3 0.985996 0.898162 0.519678
O O4 0.000000 0.000000 0.451308
O O5 0.750000 0.710350 0.372644
O O6 0.516110 0.680003 0.298309
O O7 0.543264 0.785413 0.351814
O O8 0.503672 0.699047 0.444575
O O9 0.250000 0.658867 0.678111
O O10 0.418932 0.747323 0.700735
O O11 0.503814 0.643990 0.739015
O O12 0.466845 0.678784 0.591852
O O13 0.750000 0.137217 0.558165
O O14 0.544579 0.147556 0.653834
O O15 0.550152 0.214617 0.536718
O O16 0.250000 0.829438 0.746897
O O17 0.250000 0.148826 0.307317
O O18 0.250000 0.709612 0.510644
#
# Coordination Sequence:
#
# PCOD9377822 Si02
#       7
#     8   8   8   8   8   8   8
#     4  11  22  34  46  63  86 113 151 189 223 259
#     4  10  17  25  39  62  88 115 145 174 211 255
#     4   8  15  26  41  60  80 108 144 174 206 255
#     4   9  17  30  46  61  81 112 147 182 221 258
#     4   8  15  27  41  59  82 110 143 175 211 258
#     4   9  18  30  41  57  83 111 141 180 219 253
#     4   9  16  26  41  62  87 114 144 175 209 255
#
# _framework density 14.73908
#
# number of rings (size 3 to 8) (size 9 to 14) (size 15 to 20)
#    0.000    2.857    1.429    2.571    0.000    2.857 
#    0.000    2.857    0.000    0.000    0.000    0.000 
#    0.000    1.143    0.000    8.000    0.000    5.857 
#
# Total GULP energy -155906.453615 kJ/mol
# GULP energy per Si atom -5568.087629 kJ/mol
# Density = 1.470553 g / cm^3
# Si number density = 14.739080 Si / 1000 Ang^3
#
#
#
# Elastic Constant Matrix: (Units=GPa)
#
#
# Indices 1 2 3 4 5 6 
#
# 1 46.2443 30.0580 68.6895 0.0000 0.0000 0.0000
# 2 30.0580 44.8745 40.2976 0.0000 0.0000 0.0000
# 3 68.6895 40.2976 156.1623 0.0000 0.0000 0.0000
# 4 0.0000 0.0000 0.0000 11.2076 0.0000 0.0000
# 5 0.0000 0.0000 0.0000 0.0000 26.8063 0.0000
# 6 0.0000 0.0000 0.0000 0.0000 0.0000 14.5855
#
#
#
# Elastic Compliance Matrix: (Units=1/GPa)
#
#
# Indices 1 2 3 4 5 6 
#
# 1 0.086067 -0.030788 -0.029913 0.000000 0.000000 0.000000
# 2 -0.030788 0.040020 0.003215 0.000000 0.000000 0.000000
# 3 -0.029913 0.003215 0.018731 0.000000 0.000000 0.000000
# 4 0.000000 0.000000 0.000000 0.089225 0.000000 0.000000
# 5 0.000000 0.000000 0.000000 0.000000 0.037305 0.000000
# 6 0.000000 0.000000 0.000000 0.000000 0.000000 0.068561
#
#
# Mechanical properties :
#
#
# Convention : Reuss Voigt Hill
#
# Bulk Modulus (GPa) = 33.50387 58.37457 45.93922
# Shear Modulus (GPa) = 10.75666 17.73561 14.24614
#
# Velocity S-wave (km/s) = 2.70442 3.47263 3.11232
# Velocity P-wave (km/s) = 5.70373 7.46794 6.64465
#
# Compressibility (1/GPa) = 0.02984730
#
# Stress axis : x y z
#
# Youngs Moduli (GPa) = 11.61883 24.98781 53.38677
#
# Poissons Ratio (x) = 0.76933 1.59694
# Poissons Ratio (y) = 0.35772 -0.17166
# Poissons Ratio (z) = 0.34755 -0.08035
#
# Static dielectric constant tensor:
#      x y z
#    x 1.487620 0.000000 0.000000 
#    y 0.000000 1.459980 0.000000 
#    z 0.000000 0.000000 1.502010 
# 
# From -- ./inp_files/18438.got.cif
#   From: 2010.05.17/outbox.cif.g08.bks.cpg/sg46_10_cif.got.tgz:18438.got - 2010.06.03 19:58:25.
