data_PCOD9377273
_publ_section_title
;
Structure prediction by ZEFSAII (Michael W. Deem and Ramdas Pophale) SiO2 
 PCOD9377273
Probable space group: I B A 2
;
_chemical_formula_sum "Si O2"
_cell_formula_units_Z 52
_cell_length_a 20.180435
_cell_length_b 9.555827
_cell_length_c 10.565372
_cell_angle_alpha 90.000000
_cell_angle_beta 90.000000
_cell_angle_gamma 90.000000
_cell_volume 2037.434214
_symmetry_space_group_name_H-M "I B A 2"
_symmetry_group_IT_number 45
_symmetry_cell_setting 'orthorhombic'
loop_
_space_group_symop_operation_xyz
x,y,z
-x,-y,z
-x,y,1/2+z
x,-y,1/2+z
1/2+x,1/2+y,1/2+z
1/2-x,1/2-y,1/2+z
1/2-x,1/2+y,z
1/2+x,1/2-y,z
loop_
_atom_site_type_symbol
_atom_site_label
_atom_site_fract_x
_atom_site_fract_y
_atom_site_fract_z
Si Si1 0.862532 0.656217 0.503740
Si Si2 0.530501 0.214193 0.672996
Si Si3 0.391868 0.714393 0.246547
Si Si4 0.759695 0.154792 0.668074
Si Si5 0.890020 0.090899 0.330807
Si Si6 0.754492 0.992939 0.427316
Si Si7 0.000000 0.000000 0.528289
O O1 0.928080 0.615661 0.580013
O O2 0.879755 0.766131 0.395917
O O3 0.806564 0.712865 0.601808
O O4 0.821789 0.540962 0.427256
O O5 0.455694 0.190674 0.717506
O O6 0.580380 0.262864 0.782912
O O7 0.520738 0.360895 0.600552
O O8 0.326865 0.746265 0.162903
O O9 0.399319 0.545160 0.237506
O O10 0.768658 0.015038 0.578916
O O11 0.754351 0.124418 0.817720
O O12 0.813548 0.090724 0.371692
O O13 0.938607 0.049828 0.443866
#
# Coordination Sequence:
#
# PCOD9377273 Si02
#       7
#     8   8   8   8   8   8   4
#     4  10  24  39  63  95 132 168 230 277 324 415
#     4  12  21  34  61  90 135 168 206 258 333 407
#     4  11  20  38  57  97 131 163 212 263 340 403
#     4   9  22  41  64  94 125 177 218 279 339 388
#     4  11  20  32  57  90 129 172 196 251 329 405
#     4   9  22  39  64  89 128 173 224 272 328 382
#     4  12  18  34  54  92 128 170 198 244 344 410
#
# _framework density 25.522296000000001
#
# number of rings (size 3 to 8) (size 9 to 14) (size 15 to 20)
#    0.923    0.615    4.615    0.923    4.308    0.000 
#    0.000    0.000    0.000    2.769    0.000    0.000 
#    0.000    0.000    0.000    0.000    0.000    0.000 
#
# Total GULP energy -144747.891990 kJ/mol
# GULP energy per Si atom -5567.226615 kJ/mol
# Density = 2.546421 g / cm^3
# Si number density = 25.522296 Si / 1000 Ang^3
#
#
#
# Elastic Constant Matrix: (Units=GPa)
#
#
# Indices 1 2 3 4 5 6 
#
# 1 184.3167 24.2817 52.7433 0.0000 0.0000 0.0000
# 2 24.2817 27.0868 16.4300 0.0000 0.0000 0.0000
# 3 52.7433 16.4300 75.5108 0.0000 0.0000 0.0000
# 4 0.0000 0.0000 0.0000 16.9701 0.0000 0.0000
# 5 0.0000 0.0000 0.0000 0.0000 58.3982 0.0000
# 6 0.0000 0.0000 0.0000 0.0000 0.0000 26.8251
#
#
#
# Elastic Compliance Matrix: (Units=1/GPa)
#
#
# Indices 1 2 3 4 5 6 
#
# 1 0.007117 -0.003876 -0.004128 0.000000 0.000000 0.000000
# 2 -0.003876 0.044643 -0.007006 0.000000 0.000000 0.000000
# 3 -0.004128 -0.007006 0.017651 0.000000 0.000000 0.000000
# 4 0.000000 0.000000 0.000000 0.058927 0.000000 0.000000
# 5 0.000000 0.000000 0.000000 0.000000 0.017124 0.000000
# 6 0.000000 0.000000 0.000000 0.000000 0.000000 0.037279
#
#
# Mechanical properties :
#
#
# Convention : Reuss Voigt Hill
#
# Bulk Modulus (GPa) = 25.38684 52.64713 39.01698
# Shear Modulus (GPa) = 22.13451 33.33594 27.73522
#
# Velocity S-wave (km/s) = 2.94813 3.61799 3.30010
# Velocity P-wave (km/s) = 4.64296 6.17461 5.46273
#
# Compressibility (1/GPa) = 0.03939049
#
# Stress axis : x y z
#
# Youngs Moduli (GPa) = 140.50170 22.39995 56.65458
#
# Poissons Ratio (x) = 0.08683 0.23387
# Poissons Ratio (y) = 0.54465 0.39692
# Poissons Ratio (z) = 0.57998 0.15693
#
# Static dielectric constant tensor:
#      x y z
#    x 2.100380 0.000000 0.000000 
#    y 0.000000 2.089100 0.000000 
#    z 0.000000 0.000000 2.058130 
# 
# From -- ./inp_files/4470.got.cif
#   From: 2010.05.17/outbox.cif.g08.bks.cpg/sg45_3_cif.got.tgz:4470.got - 2010.06.03 19:51:22.
