data_PCOD9377043
_publ_section_title
;
Structure prediction by ZEFSAII (Michael W. Deem and Ramdas Pophale) SiO2 
 PCOD9377043
Probable space group: I B A 2
;
_chemical_formula_sum "Si O2"
_cell_formula_units_Z 64
_cell_length_a 11.683353
_cell_length_b 14.874072
_cell_length_c 14.960939
_cell_angle_alpha 90.000000
_cell_angle_beta 90.000000
_cell_angle_gamma 90.000000
_cell_volume 2599.897523
_symmetry_space_group_name_H-M "I B A 2"
_symmetry_group_IT_number 45
_symmetry_cell_setting 'orthorhombic'
loop_
_space_group_symop_operation_xyz
x,y,z
-x,-y,z
-x,y,1/2+z
x,-y,1/2+z
1/2+x,1/2+y,1/2+z
1/2-x,1/2-y,1/2+z
1/2-x,1/2+y,z
1/2+x,1/2-y,z
loop_
_atom_site_type_symbol
_atom_site_label
_atom_site_fract_x
_atom_site_fract_y
_atom_site_fract_z
Si Si1 0.988874 0.600343 0.490730
Si Si2 0.037803 0.371105 0.188753
Si Si3 0.921588 0.916809 0.592713
Si Si4 0.258911 0.886905 0.958101
Si Si5 0.729766 0.399909 0.757818
Si Si6 0.137917 0.810871 0.617580
Si Si7 0.194723 0.316044 0.768438
Si Si8 0.244447 0.094205 0.954502
O O1 0.871307 0.637866 0.451024
O O2 0.000000 0.500000 0.451923
O O3 0.978758 0.593693 0.598299
O O4 0.110721 0.646133 0.473173
O O5 0.136730 0.425438 0.240090
O O6 0.115664 0.290789 0.147549
O O7 0.937989 0.341865 0.255836
O O8 0.847400 0.859676 0.520839
O O9 0.839675 0.940481 0.675324
O O10 0.015544 0.853074 0.635908
O O11 0.000000 0.000000 0.557005
O O12 0.245807 0.860227 0.855004
O O13 0.260214 0.992282 0.989606
O O14 0.707598 0.292085 0.767118
O O15 0.695500 0.427488 0.857237
O O16 0.237214 0.847419 0.680850
O O17 0.171296 0.841928 0.517990
#
# Coordination Sequence:
#
# PCOD9377043 Si02
#       8
#     8   8   8   8   8   8   8   8
#     4  10  22  41  71  97 131 175 230 288 356 416
#     4  11  22  44  71  98 137 185 232 295 363 422
#     4  12  25  47  70  98 143 189 235 289 353 437
#     4  11  25  43  70 103 136 180 234 294 362 424
#     4  11  26  43  68 102 139 185 239 289 359 428
#     4  11  25  43  68  98 140 187 234 286 354 434
#     4  11  25  44  69 103 137 182 236 295 359 427
#     4  11  24  44  67 105 136 181 235 294 358 428
#
# _framework density 24.616356
#
# number of rings (size 3 to 8) (size 9 to 14) (size 15 to 20)
#    0.000    1.000    5.000    0.750    3.500    3.000 
#    0.000    0.000    0.000    0.000    0.000    0.000 
#    0.000    0.000    0.000    0.000    0.000    0.000 
#
# Total GULP energy -178565.946374 kJ/mol
# GULP energy per Si atom -5580.185824 kJ/mol
# Density = 2.456033 g / cm^3
# Si number density = 24.616356 Si / 1000 Ang^3
#
#
#
# Elastic Constant Matrix: (Units=GPa)
#
#
# Indices 1 2 3 4 5 6 
#
# 1 113.2457 1.7959 26.4990 0.0000 0.0000 0.0000
# 2 1.7959 53.7207 0.2869 0.0000 0.0000 0.0000
# 3 26.4990 0.2869 120.2973 0.0000 0.0000 0.0000
# 4 0.0000 0.0000 0.0000 25.6032 0.0000 0.0000
# 5 0.0000 0.0000 0.0000 0.0000 12.5600 0.0000
# 6 0.0000 0.0000 0.0000 0.0000 0.0000 14.2676
#
#
#
# Elastic Compliance Matrix: (Units=1/GPa)
#
#
# Indices 1 2 3 4 5 6 
#
# 1 0.009315 -0.000300 -0.002051 0.000000 0.000000 0.000000
# 2 -0.000300 0.018625 0.000022 0.000000 0.000000 0.000000
# 3 -0.002051 0.000022 0.008765 0.000000 0.000000 0.000000
# 4 0.000000 0.000000 0.000000 0.039058 0.000000 0.000000
# 5 0.000000 0.000000 0.000000 0.000000 0.079618 0.000000
# 6 0.000000 0.000000 0.000000 0.000000 0.000000 0.070089
#
#
# Mechanical properties :
#
#
# Convention : Reuss Voigt Hill
#
# Bulk Modulus (GPa) = 31.20655 38.26970 34.73813
# Shear Modulus (GPa) = 20.76327 27.73162 24.24744
#
# Velocity S-wave (km/s) = 2.90741 3.36006 3.14190
# Velocity P-wave (km/s) = 4.89647 5.53475 5.22537
#
# Compressibility (1/GPa) = 0.03204455
#
# Stress axis : x y z
#
# Youngs Moduli (GPa) = 107.35263 53.69209 114.09631
#
# Poissons Ratio (x) = 0.01613 0.23403
# Poissons Ratio (y) = 0.03225 -0.00248
# Poissons Ratio (z) = 0.22020 -0.00117
#
# Static dielectric constant tensor:
#      x y z
#    x 2.034820 0.000000 0.000000 
#    y 0.000000 2.149310 0.000000 
#    z 0.000000 0.000000 1.980180 
# 
# From -- ./inp_files/6291.got.cif
#   From: 2010.05.17/outbox.cif.g08.bks.cpg/sg45_4_cif.got.tgz:6291.got - 2010.06.03 19:51:22.
