data_PCOD9377244
_publ_section_title
;
Structure prediction by ZEFSAII (Michael W. Deem and Ramdas Pophale) SiO2 
 PCOD9377244
Probable space group: I B A 2
;
_chemical_formula_sum "Si O2"
_cell_formula_units_Z 48
_cell_length_a 7.795345
_cell_length_b 23.917862
_cell_length_c 11.679262
_cell_angle_alpha 90.000000
_cell_angle_beta 90.000000
_cell_angle_gamma 90.000000
_cell_volume 2177.574877
_symmetry_space_group_name_H-M "I B A 2"
_symmetry_group_IT_number 45
_symmetry_cell_setting 'orthorhombic'
loop_
_space_group_symop_operation_xyz
x,y,z
-x,-y,z
-x,y,1/2+z
x,-y,1/2+z
1/2+x,1/2+y,1/2+z
1/2-x,1/2-y,1/2+z
1/2-x,1/2+y,z
1/2+x,1/2-y,z
loop_
_atom_site_type_symbol
_atom_site_label
_atom_site_fract_x
_atom_site_fract_y
_atom_site_fract_z
Si Si1 0.275372 0.390794 0.496530
Si Si2 0.634645 0.366171 0.612953
Si Si3 0.743787 0.674004 0.879061
Si Si4 0.755289 0.039789 0.280377
Si Si5 0.369851 0.075999 0.224291
Si Si6 0.846104 0.799306 0.835037
O O1 0.438843 0.369478 0.569290
O O2 0.319393 0.438941 0.403795
O O3 0.140949 0.414105 0.588148
O O4 0.227186 0.338008 0.416388
O O5 0.752651 0.355044 0.502987
O O6 0.659464 0.423860 0.680685
O O7 0.679205 0.317095 0.703408
O O8 0.819451 0.632731 0.785849
O O9 0.823733 0.735144 0.866070
O O10 0.541396 0.682479 0.857303
O O11 0.555799 0.057622 0.267903
O O12 0.760218 0.973839 0.259219
#
# Coordination Sequence:
#
# PCOD9377244 Si02
#       6
#     8   8   8   8   8   8
#     4  10  23  47  65  97 143 172 229 287 335 412
#     4  10  23  46  66  99 136 177 231 281 342 408
#     4  11  25  41  68  96 134 178 224 283 338 401
#     4  10  26  44  70 102 134 183 229 276 354 413
#     4  11  25  44  69 100 137 177 230 285 339 413
#     4  10  24  43  64 101 133 179 230 278 344 406
#
# _framework density 22.042871000000002
#
# number of rings (size 3 to 8) (size 9 to 14) (size 15 to 20)
#    0.000    1.667    1.667    0.000   11.667    2.000 
#    3.000    0.000    0.000    0.000    0.000    0.000 
#    0.000    0.000    0.000    0.000    0.000    0.000 
#
# Total GULP energy -134135.979376 kJ/mol
# GULP energy per Si atom -5588.999141 kJ/mol
# Density = 2.199270 g / cm^3
# Si number density = 22.042871 Si / 1000 Ang^3
#
#
#
# Elastic Constant Matrix: (Units=GPa)
#
#
# Indices 1 2 3 4 5 6 
#
# 1 17.9284 5.1815 5.9260 -0.0001 0.0000 0.0000
# 2 5.1815 107.2023 28.4036 0.0000 0.0000 0.0000
# 3 5.9260 28.4036 127.6178 0.0001 0.0000 0.0000
# 4 -0.0001 0.0000 0.0001 17.3629 0.0001 0.0000
# 5 0.0000 0.0000 0.0000 0.0001 6.9343 0.0000
# 6 0.0000 0.0000 0.0000 0.0000 0.0000 31.6880
#
#
#
# Elastic Compliance Matrix: (Units=1/GPa)
#
#
# Indices 1 2 3 4 5 6 
#
# 1 0.057126 -0.002187 -0.002166 0.000000 0.000000 0.000000
# 2 -0.002187 0.009996 -0.002123 0.000000 0.000000 0.000000
# 3 -0.002166 -0.002123 0.008409 0.000000 0.000000 0.000000
# 4 0.000000 0.000000 0.000000 0.057594 0.000000 0.000000
# 5 0.000000 0.000000 0.000000 0.000000 0.144210 0.000000
# 6 0.000000 0.000000 0.000000 0.000000 0.000000 0.031558
#
#
# Mechanical properties :
#
#
# Convention : Reuss Voigt Hill
#
# Bulk Modulus (GPa) = 15.98001 36.86342 26.42172
# Shear Modulus (GPa) = 14.58980 25.41288 20.00134
#
# Velocity S-wave (km/s) = 2.57550 3.39910 3.01555
# Velocity P-wave (km/s) = 4.01367 5.67142 4.91297
#
# Compressibility (1/GPa) = 0.06257817
#
# Stress axis : x y z
#
# Youngs Moduli (GPa) = 17.50531 100.03541 118.91942
#
# Poissons Ratio (x) = 0.21880 0.25756
# Poissons Ratio (y) = 0.03829 0.25250
# Poissons Ratio (z) = 0.03791 0.21241
#
# Static dielectric constant tensor:
#      x y z
#    x 1.873610 0.000000 0.000000 
#    y 0.000000 1.785670 0.000000 
#    z 0.000000 0.000000 1.812260 
# 
# From -- ./inp_files/3257.got.cif
#   From: 2010.05.17/outbox.cif.g08.bks.cpg/sg45_2_cif.got.tgz:3257.got - 2010.06.03 19:51:22.
