data_PCOD9377172
_publ_section_title
;
Structure prediction by ZEFSAII (Michael W. Deem and Ramdas Pophale) SiO2 
 PCOD9377172
Probable space group: I B A 2
;
_chemical_formula_sum "Si O2"
_cell_formula_units_Z 60
_cell_length_a 11.553929
_cell_length_b 13.576653
_cell_length_c 17.332212
_cell_angle_alpha 90.000000
_cell_angle_beta 90.000000
_cell_angle_gamma 90.000000
_cell_volume 2718.794640
_symmetry_space_group_name_H-M "I B A 2"
_symmetry_group_IT_number 45
_symmetry_cell_setting 'orthorhombic'
loop_
_space_group_symop_operation_xyz
x,y,z
-x,-y,z
-x,y,1/2+z
x,-y,1/2+z
1/2+x,1/2+y,1/2+z
1/2-x,1/2-y,1/2+z
1/2-x,1/2+y,z
1/2+x,1/2-y,z
loop_
_atom_site_type_symbol
_atom_site_label
_atom_site_fract_x
_atom_site_fract_y
_atom_site_fract_z
Si Si1 0.327345 0.148897 0.161820
Si Si2 0.819620 0.133063 0.104492
Si Si3 0.398088 0.355456 0.445720
Si Si4 0.844561 0.932292 0.431773
Si Si5 0.422508 0.877725 0.181463
Si Si6 0.000000 0.500000 0.322341
Si Si7 0.922059 0.845192 0.128372
Si Si8 0.340470 0.168637 0.343355
O O1 0.322342 0.248164 0.111762
O O2 0.450379 0.096516 0.144269
O O3 0.198824 0.102861 0.152789
O O4 0.344925 0.179214 0.251424
O O5 0.702197 0.098709 0.145648
O O6 0.949992 0.105579 0.134028
O O7 0.807208 0.102684 0.016311
O O8 0.523091 0.399648 0.426820
O O9 0.319562 0.451257 0.430633
O O10 0.404607 0.327098 0.536202
O O11 0.367512 0.265706 0.390963
O O12 0.783198 0.872440 0.365433
O O13 0.424545 0.931001 0.264504
O O14 0.425183 0.757670 0.175894
O O15 0.925688 0.420581 0.367477
#
# Coordination Sequence:
#
# PCOD9377172 Si02
#       8
#     8   8   8   8   8   4   8   8
#     4   9  19  34  60  93 124 160 203 257 316 372
#     4   9  18  36  61  87 120 161 208 258 311 374
#     4  10  23  43  63  90 130 169 212 268 323 379
#     4  10  23  41  63  93 127 167 217 266 318 381
#     4   9  18  35  57  86 123 155 197 253 311 370
#     4  10  24  40  56  90 130 160 206 268 320 378
#     4   9  18  37  63  89 118 161 207 256 315 373
#     4  11  23  41  64  91 129 173 213 261 318 382
#
# _framework density 22.068603
#
# number of rings (size 3 to 8) (size 9 to 14) (size 15 to 20)
#    0.000    2.400    0.000    1.600    0.000   10.667 
#    0.000    5.333    0.000    1.600    0.000    0.000 
#    0.000    0.000    0.000    0.000    0.000    0.000 
#
# Total GULP energy -167192.950432 kJ/mol
# GULP energy per Si atom -5573.098348 kJ/mol
# Density = 2.201837 g / cm^3
# Si number density = 22.068603 Si / 1000 Ang^3
#
#
#
# Elastic Constant Matrix: (Units=GPa)
#
#
# Indices 1 2 3 4 5 6 
#
# 1 156.3394 30.4654 28.4312 0.0000 0.0000 0.0000
# 2 30.4654 120.7193 52.9082 0.0000 0.0000 0.0000
# 3 28.4312 52.9082 58.5873 0.0000 0.0000 0.0000
# 4 0.0000 0.0000 0.0000 19.3314 0.0000 0.0000
# 5 0.0000 0.0000 0.0000 0.0000 31.5902 0.0000
# 6 0.0000 0.0000 0.0000 0.0000 0.0000 27.1380
#
#
#
# Elastic Compliance Matrix: (Units=1/GPa)
#
#
# Indices 1 2 3 4 5 6 
#
# 1 0.007031 -0.000462 -0.002995 0.000000 0.000000 0.000000
# 2 -0.000462 0.013740 -0.012184 0.000000 0.000000 0.000000
# 3 -0.002995 -0.012184 0.029525 0.000000 0.000000 0.000000
# 4 0.000000 0.000000 0.000000 0.051729 0.000000 0.000000
# 5 0.000000 0.000000 0.000000 0.000000 0.031655 0.000000
# 6 0.000000 0.000000 0.000000 0.000000 0.000000 0.036849
#
#
# Mechanical properties :
#
#
# Convention : Reuss Voigt Hill
#
# Bulk Modulus (GPa) = 52.59188 62.13950 57.36569
# Shear Modulus (GPa) = 24.02116 30.53468 27.27792
#
# Velocity S-wave (km/s) = 3.30279 3.72375 3.51957
# Velocity P-wave (km/s) = 6.19898 6.83425 6.52435
#
# Compressibility (1/GPa) = 0.01901434
#
# Stress axis : x y z
#
# Youngs Moduli (GPa) = 142.22773 72.77882 33.86945
#
# Poissons Ratio (x) = 0.03361 0.10144
# Poissons Ratio (y) = 0.06567 0.41267
# Poissons Ratio (z) = 0.42597 0.88676
#
# Static dielectric constant tensor:
#      x y z
#    x 1.915510 0.000000 0.000000 
#    y 0.000000 1.853650 0.000000 
#    z 0.000000 0.000000 1.776420 
# 
# From -- ./inp_files/7961.got.cif
#   From: 2010.05.17/outbox.cif.g08.bks.cpg/sg45_4_cif.got.tgz:7961.got - 2010.06.03 19:51:22.
