data_PCOD9377690
_publ_section_title
;
Structure prediction by ZEFSAII (Michael W. Deem and Ramdas Pophale) SiO2 
 PCOD9377690
Probable space group: I B A 2
;
_chemical_formula_sum "Si O2"
_cell_formula_units_Z 48
_cell_length_a 13.938579
_cell_length_b 13.798494
_cell_length_c 13.078725
_cell_angle_alpha 90.000000
_cell_angle_beta 90.000000
_cell_angle_gamma 90.000000
_cell_volume 2515.449472
_symmetry_space_group_name_H-M "I B A 2"
_symmetry_group_IT_number 45
_symmetry_cell_setting 'orthorhombic'
loop_
_space_group_symop_operation_xyz
x,y,z
-x,-y,z
-x,y,1/2+z
x,-y,1/2+z
1/2+x,1/2+y,1/2+z
1/2-x,1/2-y,1/2+z
1/2-x,1/2+y,z
1/2+x,1/2-y,z
loop_
_atom_site_type_symbol
_atom_site_label
_atom_site_fract_x
_atom_site_fract_y
_atom_site_fract_z
Si Si1 0.541183 0.160576 0.401410
Si Si2 0.000000 0.000000 0.490709
Si Si3 0.856454 0.543149 0.579756
Si Si4 0.000000 0.500000 0.247212
Si Si5 0.337672 0.830838 0.990567
Si Si6 0.357893 0.637618 0.362072
Si Si7 0.850029 0.869620 0.115460
O O1 0.588414 0.109713 0.499028
O O2 0.429761 0.182832 0.418988
O O3 0.592500 0.259319 0.377205
O O4 0.550672 0.080862 0.314402
O O5 0.940274 0.076255 0.561374
O O6 0.076953 0.056904 0.419476
O O7 0.858110 0.430432 0.550079
O O8 0.747305 0.575115 0.586290
O O9 0.918138 0.551552 0.681769
O O10 0.243957 0.850553 0.920878
O O11 0.336732 0.738906 0.067943
O O12 0.354447 0.623980 0.239150
#
# Coordination Sequence:
#
# PCOD9377690 Si02
#       7
#     8   4   8   4   8   8   8
#     4  12  24  43  69 100 139 174 224 287 338 403
#     4  12  26  52  72  94 148 180 238 300 336 426
#     4  12  24  43  69 100 139 174 224 287 338 403
#     4  12  22  40  72 102 132 176 226 280 340 414
#     4  12  23  48  70 101 144 172 232 296 334 419
#     4  12  27  46  72 103 137 190 232 284 354 416
#     4  12  27  46  72 103 137 190 232 284 354 416
#
# _framework density 19.082077000000002
#
# number of rings (size 3 to 8) (size 9 to 14) (size 15 to 20)
#    0.000    0.000    8.333    2.500    0.000    0.000 
#    6.000    0.000    0.000    0.000    0.000    0.000 
#    0.000    0.000    0.000    0.000    0.000    0.000 
#
# Total GULP energy -134075.885121 kJ/mol
# GULP energy per Si atom -5586.495213 kJ/mol
# Density = 1.903865 g / cm^3
# Si number density = 19.082077 Si / 1000 Ang^3
#
#
#
# Elastic Constant Matrix: (Units=GPa)
#
#
# Indices 1 2 3 4 5 6 
#
# 1 124.0022 5.4510 38.9203 0.0000 0.0000 0.0000
# 2 5.4510 56.5964 8.6340 0.0000 0.0000 0.0000
# 3 38.9203 8.6340 108.2960 0.0000 0.0000 0.0000
# 4 0.0000 0.0000 0.0000 47.7577 0.0000 0.0000
# 5 0.0000 0.0000 0.0000 0.0000 120.5894 0.0000
# 6 0.0000 0.0000 0.0000 0.0000 0.0000 43.0379
#
#
#
# Elastic Compliance Matrix: (Units=1/GPa)
#
#
# Indices 1 2 3 4 5 6 
#
# 1 0.009098 -0.000382 -0.003239 0.000000 0.000000 0.000000
# 2 -0.000382 0.017903 -0.001290 0.000000 0.000000 0.000000
# 3 -0.003239 -0.001290 0.010501 0.000000 0.000000 0.000000
# 4 0.000000 0.000000 0.000000 0.020939 0.000000 0.000000
# 5 0.000000 0.000000 0.000000 0.000000 0.008293 0.000000
# 6 0.000000 0.000000 0.000000 0.000000 0.000000 0.023235
#
#
# Mechanical properties :
#
#
# Convention : Reuss Voigt Hill
#
# Bulk Modulus (GPa) = 36.12873 43.87836 40.00355
# Shear Modulus (GPa) = 45.86433 58.00293 51.93363
#
# Velocity S-wave (km/s) = 4.90790 5.51929 5.22255
# Velocity P-wave (km/s) = 7.14780 7.97880 7.57470
#
# Compressibility (1/GPa) = 0.02767880
#
# Stress axis : x y z
#
# Youngs Moduli (GPa) = 109.91609 55.85790 95.22965
#
# Poissons Ratio (x) = 0.02134 0.30847
# Poissons Ratio (y) = 0.04200 0.12284
# Poissons Ratio (z) = 0.35604 0.07206
#
# Static dielectric constant tensor:
#      x y z
#    x 1.659290 0.000000 0.000000 
#    y 0.000000 1.639000 0.000000 
#    z 0.000000 0.000000 1.678800 
# 
# From -- ./inp_files/4115.got.cif
#   From: 2010.05.17/outbox.cif.g08.bks.cpg/sg45_3_cif.got.tgz:4115.got - 2010.06.03 19:51:22.
