data_PCOD9377159
_publ_section_title
;
Structure prediction by ZEFSAII (Michael W. Deem and Ramdas Pophale) SiO2 
 PCOD9377159
Probable space group: I B A 2
;
_chemical_formula_sum "Si O2"
_cell_formula_units_Z 56
_cell_length_a 5.747817
_cell_length_b 28.692073
_cell_length_c 14.954677
_cell_angle_alpha 90.000000
_cell_angle_beta 90.000000
_cell_angle_gamma 90.000000
_cell_volume 2466.277251
_symmetry_space_group_name_H-M "I B A 2"
_symmetry_group_IT_number 45
_symmetry_cell_setting 'orthorhombic'
loop_
_space_group_symop_operation_xyz
x,y,z
-x,-y,z
-x,y,1/2+z
x,-y,1/2+z
1/2+x,1/2+y,1/2+z
1/2-x,1/2-y,1/2+z
1/2-x,1/2+y,z
1/2+x,1/2-y,z
loop_
_atom_site_type_symbol
_atom_site_label
_atom_site_fract_x
_atom_site_fract_y
_atom_site_fract_z
Si Si1 0.176322 0.956856 0.524170
Si Si2 0.377045 0.629188 0.465365
Si Si3 0.122955 0.129188 0.776555
Si Si4 0.000000 0.569287 0.870960
Si Si5 0.836052 0.766762 0.517607
Si Si6 0.823678 0.956856 0.217750
Si Si7 0.163947 0.766762 0.224313
O O1 0.333170 0.958738 0.436608
O O2 0.298701 0.957924 0.620960
O O3 0.036782 0.908264 0.515840
O O4 0.000000 0.000000 0.521425
O O5 0.500002 0.640459 0.370960
O O6 0.144750 0.602138 0.437772
O O7 0.334757 0.677356 0.514491
O O8 0.355251 0.102138 0.804147
O O9 0.165241 0.177356 0.727429
O O10 0.963216 0.091736 0.726081
O O11 0.833170 0.541261 0.805312
O O12 0.587258 0.749507 0.478437
O O13 0.837250 0.749788 0.620960
O O14 0.000000 0.000000 0.220494
O O15 0.412742 0.749508 0.263482
#
# Coordination Sequence:
#
# PCOD9377159 Si02
#       7
#     8   8   8   8   8   8   8
#     4  10  23  43  69 101 136 179 229 281 347 418
#     4  10  23  40  62  96 133 174 223 285 349 415
#     4  10  23  40  62  96 133 174 223 285 349 415
#     4  10  24  43  68 100 132 180 224 286 347 412
#     4  10  23  41  64  94 131 179 234 292 352 418
#     4  10  23  43  69 101 136 179 229 281 347 418
#     4  10  23  41  64  94 131 179 234 292 352 418
#
# _framework density 22.706289000000002
#
# number of rings (size 3 to 8) (size 9 to 14) (size 15 to 20)
#    0.000    2.000    0.000    0.857    8.000   10.857 
#    0.000    2.857    0.000    0.857    0.000    0.000 
#    0.000    0.000    0.000    0.000    0.000    0.000 
#
# Total GULP energy -156494.196068 kJ/mol
# GULP energy per Si atom -5589.078431 kJ/mol
# Density = 2.265461 g / cm^3
# Si number density = 22.706289 Si / 1000 Ang^3
#
#
#
# Elastic Constant Matrix: (Units=GPa)
#
#
# Indices 1 2 3 4 5 6 
#
# 1 132.5490 48.4249 46.7035 0.0000 0.0000 0.0000
# 2 48.4249 115.0650 53.1692 0.0000 0.0001 0.0000
# 3 46.7035 53.1692 76.6669 0.0000 0.0001 0.0000
# 4 0.0000 0.0000 0.0000 26.8247 0.0001 0.0000
# 5 0.0000 0.0001 0.0001 0.0001 -686.8288 0.0000
# 6 0.0000 0.0000 0.0000 0.0000 0.0000 30.2165
#
#
#
# Elastic Compliance Matrix: (Units=1/GPa)
#
#
# Indices 1 2 3 4 5 6 
#
# 1 0.009920 -0.002034 -0.004632 0.000000 0.000000 0.000000
# 2 -0.002034 0.013206 -0.007919 0.000000 0.000000 0.000000
# 3 -0.004632 -0.007919 0.021357 0.000000 0.000000 0.000000
# 4 0.000000 0.000000 0.000000 0.037279 0.000000 0.000000
# 5 0.000000 0.000000 0.000000 0.000000 -0.001456 0.000000
# 6 0.000000 0.000000 0.000000 0.000000 0.000000 0.033095
#
#
# Mechanical properties :
#
#
# Convention : Reuss Voigt Hill
#
# Bulk Modulus (GPa) = 65.30906 68.98623 67.14765
# Shear Modulus (GPa) = 33.85783 -114.22530 -40.18373
#
# Velocity S-wave (km/s) = 3.86569 -7.10034 -4.21137
# Velocity P-wave (km/s) = 6.98210 6.06397 2.44724
#
# Compressibility (1/GPa) = 0.01531181
#
# Stress axis : x y z
#
# Youngs Moduli (GPa) = 100.80979 75.72157 46.82232
#
# Poissons Ratio (x) = 0.15404 0.21688
# Poissons Ratio (y) = 0.20508 0.37081
# Poissons Ratio (z) = 0.46695 0.59967
#
# Static dielectric constant tensor:
#      x y z
#    x 1.900400 0.000000 0.000000 
#    y 0.000000 1.781800 0.000000 
#    z 0.000000 0.000000 1.834880 
# 
# From -- ./inp_files/5262.got.cif
#   From: 2010.05.17/outbox.cif.g08.bks.cpg/sg45_3_cif.got.tgz:5262.got - 2010.06.03 19:51:22.
