data_PCOD9377176
_publ_section_title
;
Structure prediction by ZEFSAII (Michael W. Deem and Ramdas Pophale) SiO2 
 PCOD9377176
Probable space group: I B A 2
;
_chemical_formula_sum "Si O2"
_cell_formula_units_Z 64
_cell_length_a 8.074918
_cell_length_b 26.910303
_cell_length_c 12.484101
_cell_angle_alpha 90.000000
_cell_angle_beta 90.000000
_cell_angle_gamma 90.000000
_cell_volume 2712.776297
_symmetry_space_group_name_H-M "I B A 2"
_symmetry_group_IT_number 45
_symmetry_cell_setting 'orthorhombic'
loop_
_space_group_symop_operation_xyz
x,y,z
-x,-y,z
-x,y,1/2+z
x,-y,1/2+z
1/2+x,1/2+y,1/2+z
1/2-x,1/2-y,1/2+z
1/2-x,1/2+y,z
1/2+x,1/2-y,z
loop_
_atom_site_type_symbol
_atom_site_label
_atom_site_fract_x
_atom_site_fract_y
_atom_site_fract_z
Si Si1 0.822672 0.856169 0.244780
Si Si2 0.885676 0.609408 0.941377
Si Si3 0.623538 0.285895 0.070206
Si Si4 0.249433 0.181757 0.624595
Si Si5 0.081610 0.051820 0.729937
Si Si6 0.185900 0.511984 0.550841
Si Si7 0.882466 0.177945 0.356511
Si Si8 0.242816 0.085536 0.936001
O O1 0.683789 0.872418 0.327855
O O2 0.772417 0.827120 0.137531
O O3 0.946421 0.903445 0.222571
O O4 0.936535 0.815970 0.307503
O O5 0.844883 0.550723 0.954644
O O6 0.082721 0.612334 0.945851
O O7 0.815424 0.639987 0.043180
O O8 0.643420 0.231361 0.117082
O O9 0.434210 0.303212 0.084519
O O10 0.670043 0.282690 0.944587
O O11 0.230438 0.169495 0.751561
O O12 0.183682 0.040259 0.624043
O O13 0.218496 0.062438 0.819485
O O14 0.000000 0.000000 0.762866
O O15 0.264193 0.459289 0.518584
O O16 0.000000 0.500000 0.594958
O O17 0.893964 0.128308 0.431050
#
# Coordination Sequence:
#
# PCOD9377176 Si02
#       8
#     8   8   8   8   8   8   8   8
#     4  10  23  42  67  97 137 185 225 293 345 422
#     4  11  22  45  70  99 142 182 238 285 359 416
#     4  11  25  43  68 101 136 182 241 284 364 410
#     4  11  26  44  71 102 139 188 232 299 353 419
#     4  11  24  41  67 102 139 187 231 283 349 420
#     4  10  23  41  66  99 138 181 231 287 344 425
#     4  10  23  45  67  95 145 173 238 290 345 426
#     4  10  24  43  68 102 134 186 226 292 348 418
#
# _framework density 23.592065999999999
#
# number of rings (size 3 to 8) (size 9 to 14) (size 15 to 20)
#    0.000    1.500    1.250    3.000    5.250    5.000 
#    2.250    0.000    0.000    0.000    0.000    0.000 
#    0.000    0.000    0.000    0.000    0.000    0.000 
#
# Total GULP energy -178721.861092 kJ/mol
# GULP energy per Si atom -5585.058159 kJ/mol
# Density = 2.353837 g / cm^3
# Si number density = 23.592066 Si / 1000 Ang^3
#
#
#
# Elastic Constant Matrix: (Units=GPa)
#
#
# Indices 1 2 3 4 5 6 
#
# 1 45.8845 35.6393 35.4368 0.0000 0.0000 0.0000
# 2 35.6393 101.4379 35.7116 0.0000 0.0000 0.0000
# 3 35.4368 35.7116 110.4836 0.0000 0.0000 0.0000
# 4 0.0000 0.0000 0.0000 37.2332 0.0000 0.0000
# 5 0.0000 0.0000 0.0000 0.0000 31.0997 0.0000
# 6 0.0000 0.0000 0.0000 0.0000 0.0000 38.5237
#
#
#
# Elastic Compliance Matrix: (Units=1/GPa)
#
#
# Indices 1 2 3 4 5 6 
#
# 1 0.035699 -0.009604 -0.008346 0.000000 0.000000 0.000000
# 2 -0.009604 0.013708 -0.001350 0.000000 0.000000 0.000000
# 3 -0.008346 -0.001350 0.012164 0.000000 0.000000 0.000000
# 4 0.000000 0.000000 0.000000 0.026858 0.000000 0.000000
# 5 0.000000 0.000000 0.000000 0.000000 0.032155 0.000000
# 6 0.000000 0.000000 0.000000 0.000000 0.000000 0.025958
#
#
# Mechanical properties :
#
#
# Convention : Reuss Voigt Hill
#
# Bulk Modulus (GPa) = 43.53384 52.37571 47.95478
# Shear Modulus (GPa) = 25.93357 31.43919 28.68638
#
# Velocity S-wave (km/s) = 3.31909 3.65446 3.49081
# Velocity P-wave (km/s) = 5.76032 6.32895 6.05132
#
# Compressibility (1/GPa) = 0.02297063
#
# Stress axis : x y z
#
# Youngs Moduli (GPa) = 28.01179 72.94979 82.20686
#
# Poissons Ratio (x) = 0.70064 0.68608
# Poissons Ratio (y) = 0.26904 0.11101
# Poissons Ratio (z) = 0.23378 0.09851
#
# Static dielectric constant tensor:
#      x y z
#    x 1.903140 0.000000 0.000000 
#    y 0.000000 1.933620 0.000000 
#    z 0.000000 0.000000 1.969870 
# 
# From -- ./inp_files/3433.got.cif
#   From: 2010.05.17/outbox.cif.g08.bks.cpg/sg45_2_cif.got.tgz:3433.got - 2010.06.03 19:51:22.
