data_PCOD9377347
_publ_section_title
;
Structure prediction by ZEFSAII (Michael W. Deem and Ramdas Pophale) SiO2 
 PCOD9377347
Probable space group: I B A 2
;
_chemical_formula_sum "Si O2"
_cell_formula_units_Z 56
_cell_length_a 22.160038
_cell_length_b 8.285414
_cell_length_c 13.867310
_cell_angle_alpha 90.000000
_cell_angle_beta 90.000000
_cell_angle_gamma 90.000000
_cell_volume 2546.108688
_symmetry_space_group_name_H-M "I B A 2"
_symmetry_group_IT_number 45
_symmetry_cell_setting 'orthorhombic'
loop_
_space_group_symop_operation_xyz
x,y,z
-x,-y,z
-x,y,1/2+z
x,-y,1/2+z
1/2+x,1/2+y,1/2+z
1/2-x,1/2-y,1/2+z
1/2-x,1/2+y,z
1/2+x,1/2-y,z
loop_
_atom_site_type_symbol
_atom_site_label
_atom_site_fract_x
_atom_site_fract_y
_atom_site_fract_z
Si Si1 0.121042 0.026032 0.853120
Si Si2 0.830918 0.640129 0.785199
Si Si3 0.934706 0.290642 0.036868
Si Si4 0.586956 0.825990 0.811136
Si Si5 0.197561 0.739057 0.080629
Si Si6 0.000000 0.000000 0.980312
Si Si7 0.749583 0.475426 0.455648
Si Si8 0.000000 0.500000 0.680671
O O1 0.129294 0.196958 0.799038
O O2 0.059732 0.029917 0.916138
O O3 0.114028 0.854207 0.796986
O O4 0.182889 0.011693 0.915124
O O5 0.868999 0.474691 0.785606
O O6 0.795719 0.663536 0.685225
O O7 0.785377 0.622104 0.874584
O O8 0.872024 0.213340 0.069504
O O9 0.948933 0.434711 0.108701
O O10 0.929232 0.339773 0.924887
O O11 0.986816 0.158133 0.042020
O O12 0.527430 0.860983 0.748276
O O13 0.210805 0.626453 0.988198
O O14 0.241243 0.884930 0.057340
#
# Coordination Sequence:
#
# PCOD9377347 Si02
#       8
#     8   8   8   8   8   4   8   4
#     4  11  26  46  76 106 146 197 242 306 375 433
#     4  12  27  47  77 106 148 202 244 308 385 438
#     4  11  24  46  71 105 148 186 246 304 363 452
#     4  11  25  49  72 107 149 190 251 305 365 451
#     4  12  26  45  74 109 144 195 257 302 373 452
#     4  10  24  44  76 104 144 192 236 308 370 434
#     4  12  24  50  70 106 153 189 251 318 364 442
#     4  12  26  44  74 104 148 202 232 304 386 438
#
# _framework density 21.994347000000001
#
# number of rings (size 3 to 8) (size 9 to 14) (size 15 to 20)
#    0.000    0.571    7.143    0.429    8.000    1.143 
#    0.000    0.000    0.000    0.000    0.000    0.000 
#    0.000    0.000    0.000    0.000    0.000    0.000 
#
# Total GULP energy -156334.575715 kJ/mol
# GULP energy per Si atom -5583.377704 kJ/mol
# Density = 2.194429 g / cm^3
# Si number density = 21.994347 Si / 1000 Ang^3
#
#
#
# Elastic Constant Matrix: (Units=GPa)
#
#
# Indices 1 2 3 4 5 6 
#
# 1 83.2140 32.7634 19.5463 0.0000 0.0000 0.0000
# 2 32.7634 110.7822 18.4072 0.0000 0.0000 0.0000
# 3 19.5463 18.4072 64.8142 0.0000 0.0000 0.0000
# 4 0.0000 0.0000 0.0000 6.3765 0.0000 0.0000
# 5 0.0000 0.0000 0.0000 0.0000 19.7442 0.0000
# 6 0.0000 0.0000 0.0000 0.0000 0.0000 36.9846
#
#
#
# Elastic Compliance Matrix: (Units=1/GPa)
#
#
# Indices 1 2 3 4 5 6 
#
# 1 0.014224 -0.003667 -0.003248 0.000000 0.000000 0.000000
# 2 -0.003667 0.010419 -0.001853 0.000000 0.000000 0.000000
# 3 -0.003248 -0.001853 0.016935 0.000000 0.000000 0.000000
# 4 0.000000 0.000000 0.000000 0.156826 0.000000 0.000000
# 5 0.000000 0.000000 0.000000 0.000000 0.050648 0.000000
# 6 0.000000 0.000000 0.000000 0.000000 0.000000 0.027038
#
#
# Mechanical properties :
#
#
# Convention : Reuss Voigt Hill
#
# Bulk Modulus (GPa) = 41.59549 44.47157 43.03353
# Shear Modulus (GPa) = 16.57604 25.16063 20.86834
#
# Velocity S-wave (km/s) = 2.74825 3.38592 3.08361
# Velocity P-wave (km/s) = 5.38734 5.96233 5.68211
#
# Compressibility (1/GPa) = 0.02404107
#
# Stress axis : x y z
#
# Youngs Moduli (GPa) = 70.30402 95.97735 59.05080
#
# Poissons Ratio (x) = 0.35195 0.19181
# Poissons Ratio (y) = 0.25780 0.10943
# Poissons Ratio (z) = 0.22836 0.17786
#
# Static dielectric constant tensor:
#      x y z
#    x 1.808240 0.000000 0.000000 
#    y 0.000000 1.877910 0.000000 
#    z 0.000000 0.000000 1.790760 
# 
# From -- ./inp_files/6962.got.cif
#   From: 2010.05.17/outbox.cif.g08.bks.cpg/sg45_4_cif.got.tgz:6962.got - 2010.06.03 19:51:22.
