data_PCOD9377013
_publ_section_title
;
Structure prediction by ZEFSAII (Michael W. Deem and Ramdas Pophale) SiO2 
 PCOD9377013
Probable space group: I B A 2
;
_chemical_formula_sum "Si O2"
_cell_formula_units_Z 60
_cell_length_a 14.628802
_cell_length_b 23.174793
_cell_length_c 7.658184
_cell_angle_alpha 90.000000
_cell_angle_beta 90.000000
_cell_angle_gamma 90.000000
_cell_volume 2596.273390
_symmetry_space_group_name_H-M "I B A 2"
_symmetry_group_IT_number 45
_symmetry_cell_setting 'orthorhombic'
loop_
_space_group_symop_operation_xyz
x,y,z
-x,-y,z
-x,y,1/2+z
x,-y,1/2+z
1/2+x,1/2+y,1/2+z
1/2-x,1/2-y,1/2+z
1/2-x,1/2+y,z
1/2+x,1/2-y,z
loop_
_atom_site_type_symbol
_atom_site_label
_atom_site_fract_x
_atom_site_fract_y
_atom_site_fract_z
Si Si1 0.408924 0.668991 0.292540
Si Si2 0.500000 0.500000 0.598666
Si Si3 0.021197 0.248857 0.004077
Si Si4 0.380269 0.052286 0.862284
Si Si5 0.736726 0.368830 0.052740
Si Si6 0.410480 0.074910 0.455999
Si Si7 0.605876 0.185071 0.707547
Si Si8 0.918810 0.912188 0.831998
O O1 0.433519 0.707694 0.461489
O O2 0.416422 0.716577 0.141553
O O3 0.321856 0.631192 0.234537
O O4 0.496270 0.627843 0.285725
O O5 0.447576 0.451174 0.494791
O O6 0.581069 0.462981 0.689932
O O7 0.980819 0.308694 0.078361
O O8 0.082219 0.262408 0.836348
O O9 0.380396 0.075057 0.660786
O O10 0.306039 0.081483 0.988540
O O11 0.480005 0.066018 0.942512
O O12 0.369483 0.983324 0.869594
O O13 0.804440 0.315289 0.087978
O O14 0.664302 0.372874 0.893926
O O15 0.387427 0.129503 0.333485
#
# Coordination Sequence:
#
# PCOD9377013 Si02
#       8
#     8   4   8   8   8   8   8   8
#     4  11  22  47  72  97 142 193 237 307 371 429
#     4  10  22  40  72  94 134 190 240 268 366 442
#     4  10  23  45  75  96 145 190 244 298 386 422
#     4  11  23  40  70 104 141 203 232 293 357 453
#     4  12  25  42  69 107 142 177 259 296 364 439
#     4  11  22  45  68  98 158 190 235 285 381 440
#     4  11  24  42  69 108 136 189 240 306 358 444
#     4  11  22  44  67 100 136 190 228 300 360 434
#
# _framework density 23.110047999999999
#
# number of rings (size 3 to 8) (size 9 to 14) (size 15 to 20)
#    0.000    1.067    2.667    4.800    0.000    4.267 
#    4.800    0.000    0.000    0.000    0.000    0.000 
#    0.000    0.000    0.000    0.000    0.000    0.000 
#
# Total GULP energy -167086.875082 kJ/mol
# GULP energy per Si atom -5569.562503 kJ/mol
# Density = 2.305745 g / cm^3
# Si number density = 23.110048 Si / 1000 Ang^3
#
#
#
# Elastic Constant Matrix: (Units=GPa)
#
#
# Indices 1 2 3 4 5 6 
#
# 1 101.6341 32.6351 20.3203 0.0000 -0.0001 0.0000
# 2 32.6351 91.4797 39.4616 0.0000 0.0000 0.0000
# 3 20.3203 39.4616 94.0006 0.0004 0.0005 -0.0001
# 4 0.0000 0.0000 0.0004 51.6589 0.0002 0.0000
# 5 -0.0001 0.0000 0.0005 0.0002 35.5370 0.0000
# 6 0.0000 0.0000 -0.0001 0.0000 0.0000 32.6416
#
#
#
# Elastic Compliance Matrix: (Units=1/GPa)
#
#
# Indices 1 2 3 4 5 6 
#
# 1 0.011175 -0.003596 -0.000906 0.000000 0.000000 0.000000
# 2 -0.003596 0.014506 -0.005312 0.000000 0.000000 0.000000
# 3 -0.000906 -0.005312 0.013064 0.000000 0.000000 0.000000
# 4 0.000000 0.000000 0.000000 0.019358 0.000000 0.000000
# 5 0.000000 0.000000 0.000000 0.000000 0.028140 0.000000
# 6 0.000000 0.000000 0.000000 0.000000 0.000000 0.030636
#
#
# Mechanical properties :
#
#
# Convention : Reuss Voigt Hill
#
# Bulk Modulus (GPa) = 52.31068 52.43870 52.37469
# Shear Modulus (GPa) = 34.99473 36.94731 35.97102
#
# Velocity S-wave (km/s) = 3.89558 4.00278 3.94954
# Velocity P-wave (km/s) = 6.55123 6.64102 6.59628
#
# Compressibility (1/GPa) = 0.01911656
#
# Stress axis : x y z
#
# Youngs Moduli (GPa) = 89.48537 68.93851 76.54499
#
# Poissons Ratio (x) = 0.24788 0.06937
# Poissons Ratio (y) = 0.32177 0.40662
# Poissons Ratio (z) = 0.08109 0.36622
#
# Static dielectric constant tensor:
#      x y z
#    x 2.025770 0.000000 0.000000 
#    y 0.000000 1.781370 0.000000 
#    z 0.000000 0.000000 1.946800 
# 
# From -- ./inp_files/1897.got.cif
#   From: 2010.05.17/outbox.cif.g08.bks.cpg/sg45_1_cif.got.tgz:1897.got - 2010.06.03 19:51:22.
