data_PCOD9377598
_publ_section_title
;
Structure prediction by ZEFSAII (Michael W. Deem and Ramdas Pophale) SiO2 
 PCOD9377598
Probable space group: I B A 2
;
_chemical_formula_sum "Si O2"
_cell_formula_units_Z 48
_cell_length_a 9.451013
_cell_length_b 19.179785
_cell_length_c 10.005162
_cell_angle_alpha 90.000000
_cell_angle_beta 90.000000
_cell_angle_gamma 90.000000
_cell_volume 1813.619681
_symmetry_space_group_name_H-M "I B A 2"
_symmetry_group_IT_number 45
_symmetry_cell_setting 'orthorhombic'
loop_
_space_group_symop_operation_xyz
x,y,z
-x,-y,z
-x,y,1/2+z
x,-y,1/2+z
1/2+x,1/2+y,1/2+z
1/2-x,1/2-y,1/2+z
1/2-x,1/2+y,z
1/2+x,1/2-y,z
loop_
_atom_site_type_symbol
_atom_site_label
_atom_site_fract_x
_atom_site_fract_y
_atom_site_fract_z
Si Si1 0.500000 0.500000 0.670141
Si Si2 0.439938 0.195098 0.833361
Si Si3 0.304995 0.621570 0.725197
Si Si4 0.500000 0.000000 0.538496
Si Si5 0.744399 0.408072 0.141739
Si Si6 0.199711 0.391838 0.925256
Si Si7 0.390455 0.237192 0.106479
O O1 0.403842 0.555739 0.750653
O O2 0.388541 0.451580 0.586082
O O3 0.325944 0.131998 0.825754
O O4 0.591509 0.169379 0.885763
O O5 0.463976 0.211262 0.676763
O O6 0.399085 0.251504 0.947201
O O7 0.265011 0.611847 0.570066
O O8 0.363182 0.700064 0.709307
O O9 0.608078 0.049617 0.621227
O O10 0.402103 0.043270 0.442084
O O11 0.704128 0.403754 0.298291
O O12 0.780791 0.327818 0.107726
#
# Coordination Sequence:
#
# PCOD9377598 Si02
#       7
#     4   8   8   4   8   8   8
#     4  12  30  50  66 120 172 210 254 344 436 478
#     4  11  24  50  78 118 145 209 278 334 391 489
#     4  12  28  49  74 113 164 210 262 338 416 487
#     4  12  20  46  76 106 134 194 258 324 376 472
#     4  11  26  46  72 112 149 201 256 328 397 482
#     4  11  23  44  77 106 143 199 269 321 386 473
#     4  11  27  47  84 110 151 207 274 332 396 485
#
# _framework density 26.466408000000001
#
# number of rings (size 3 to 8) (size 9 to 14) (size 15 to 20)
#    0.000    0.667    5.000    1.500    9.333    0.667 
#    3.000    0.000    0.000    0.000    0.000    0.000 
#    0.000    0.000    0.000    0.000    0.000    0.000 
#
# Total GULP energy -133936.282216 kJ/mol
# GULP energy per Si atom -5580.678426 kJ/mol
# Density = 2.640617 g / cm^3
# Si number density = 26.466408 Si / 1000 Ang^3
#
#
#
# Elastic Constant Matrix: (Units=GPa)
#
#
# Indices 1 2 3 4 5 6 
#
# 1 86.8989 35.6602 12.9464 0.0000 0.0000 0.0000
# 2 35.6602 126.1296 7.2499 -0.0001 0.0001 0.0001
# 3 12.9464 7.2499 145.7378 0.0000 0.0002 0.0000
# 4 0.0000 -0.0001 0.0000 29.3144 0.0002 0.0001
# 5 0.0000 0.0001 0.0002 0.0002 26.4731 -0.0001
# 6 0.0000 0.0001 0.0000 0.0001 -0.0001 43.2890
#
#
#
# Elastic Compliance Matrix: (Units=1/GPa)
#
#
# Indices 1 2 3 4 5 6 
#
# 1 0.013158 -0.003663 -0.000987 0.000000 0.000000 0.000000
# 2 -0.003663 0.008971 -0.000121 0.000000 0.000000 0.000000
# 3 -0.000987 -0.000121 0.006955 0.000000 0.000000 0.000000
# 4 0.000000 0.000000 0.000000 0.034113 0.000000 0.000000
# 5 0.000000 0.000000 0.000000 0.000000 0.037774 0.000000
# 6 0.000000 0.000000 0.000000 0.000000 0.000000 0.023101
#
#
# Mechanical properties :
#
#
# Convention : Reuss Voigt Hill
#
# Bulk Modulus (GPa) = 51.17038 52.27548 51.72293
# Shear Modulus (GPa) = 35.68170 40.00928 37.84549
#
# Velocity S-wave (km/s) = 3.67575 3.89228 3.78556
# Velocity P-wave (km/s) = 6.11481 6.32410 6.22034
#
# Compressibility (1/GPa) = 0.01954255
#
# Stress axis : x y z
#
# Youngs Moduli (GPa) = 75.99976 111.46988 143.77536
#
# Poissons Ratio (x) = 0.40836 0.14185
# Poissons Ratio (y) = 0.27842 0.01737
# Poissons Ratio (z) = 0.07498 0.01347
#
# Static dielectric constant tensor:
#      x y z
#    x 2.126830 0.000000 0.000000 
#    y 0.000000 2.090840 0.000000 
#    z 0.000000 0.000000 2.080770 
# 
# From -- ./inp_files/3702.got.cif
#   From: 2010.05.17/outbox.cif.g08.bks.cpg/sg45_2_cif.got.tgz:3702.got - 2010.06.03 19:51:22.
