data_PCOD9377603
_publ_section_title
;
Structure prediction by ZEFSAII (Michael W. Deem and Ramdas Pophale) SiO2 
 PCOD9377603
Probable space group: I B A 2
;
_chemical_formula_sum "Si O2"
_cell_formula_units_Z 64
_cell_length_a 11.484551
_cell_length_b 14.743202
_cell_length_c 16.079108
_cell_angle_alpha 90.000000
_cell_angle_beta 90.000000
_cell_angle_gamma 90.000000
_cell_volume 2722.499376
_symmetry_space_group_name_H-M "I B A 2"
_symmetry_group_IT_number 45
_symmetry_cell_setting 'orthorhombic'
loop_
_space_group_symop_operation_xyz
x,y,z
-x,-y,z
-x,y,1/2+z
x,-y,1/2+z
1/2+x,1/2+y,1/2+z
1/2-x,1/2-y,1/2+z
1/2-x,1/2+y,z
1/2+x,1/2-y,z
loop_
_atom_site_type_symbol
_atom_site_label
_atom_site_fract_x
_atom_site_fract_y
_atom_site_fract_z
Si Si1 0.484978 0.401111 0.220330
Si Si2 0.254335 0.386068 0.299208
Si Si3 0.015023 0.401112 0.564358
Si Si4 0.254334 0.886068 0.485481
Si Si5 0.387332 0.451333 0.039192
Si Si6 0.278283 0.207148 0.552409
Si Si7 0.721718 0.707149 0.732280
Si Si8 0.887331 0.548666 0.745496
O O1 0.500000 0.500000 0.260112
O O2 0.383360 0.356028 0.272968
O O3 0.436068 0.419365 0.128190
O O4 0.605519 0.350024 0.216008
O O5 0.250001 0.421253 0.392344
O O6 0.185680 0.292747 0.288384
O O7 0.205218 0.466168 0.241477
O O8 0.116641 0.356028 0.511719
O O9 0.063934 0.419367 0.656498
O O10 0.000000 0.500000 0.524575
O O11 0.894482 0.350024 0.568681
O O12 0.185678 0.792746 0.496306
O O13 0.205217 0.966168 0.543212
O O14 0.500000 0.500000 0.995923
O O15 0.316151 0.361629 0.011977
O O16 0.241453 0.250000 0.642345
O O17 0.816153 0.638371 0.772712
O O18 0.000000 0.500000 0.788764
#
# Coordination Sequence:
#
# PCOD9377603 Si02
#       8
#     8   8   8   8   8   8   8   8
#     4  11  23  45  74 100 136 184 234 297 343 417
#     4  12  28  46  68 106 148 186 231 290 367 434
#     4  11  23  45  74 100 136 184 234 297 343 417
#     4  12  28  46  68 106 148 186 231 290 367 434
#     4  11  25  46  74 101 137 184 241 292 349 421
#     4  12  25  44  75 109 135 183 244 295 348 420
#     4  12  25  44  75 109 135 183 244 295 348 420
#     4  11  25  46  74 101 137 184 241 292 349 421
#
# _framework density 23.507811
#
# number of rings (size 3 to 8) (size 9 to 14) (size 15 to 20)
#    0.000    0.500    5.000    3.750    7.000    3.000 
#    0.000    0.000    0.000    0.000    0.000    0.000 
#    0.000    0.000    0.000    0.000    0.000    0.000 
#
# Total GULP energy -178692.641251 kJ/mol
# GULP energy per Si atom -5584.145039 kJ/mol
# Density = 2.345431 g / cm^3
# Si number density = 23.507811 Si / 1000 Ang^3
#
#
#
# Elastic Constant Matrix: (Units=GPa)
#
#
# Indices 1 2 3 4 5 6 
#
# 1 78.1908 41.2475 13.0722 0.0000 0.0000 0.0000
# 2 41.2475 153.6533 -0.4359 0.0000 0.0000 0.0000
# 3 13.0722 -0.4359 29.0316 0.0000 0.0000 0.0000
# 4 0.0000 0.0000 0.0000 2.3570 0.0000 0.0000
# 5 0.0000 0.0000 0.0000 0.0000 5.6053 0.0000
# 6 0.0000 0.0000 0.0000 0.0000 0.0000 46.2123
#
#
#
# Elastic Compliance Matrix: (Units=1/GPa)
#
#
# Indices 1 2 3 4 5 6 
#
# 1 0.016360 -0.004413 -0.007433 0.000000 0.000000 0.000000
# 2 -0.004413 0.007699 0.002103 0.000000 0.000000 0.000000
# 3 -0.007433 0.002103 0.037824 0.000000 0.000000 0.000000
# 4 0.000000 0.000000 0.000000 0.424266 0.000000 0.000000
# 5 0.000000 0.000000 0.000000 0.000000 0.178402 0.000000
# 6 0.000000 0.000000 0.000000 0.000000 0.000000 0.021639
#
#
# Mechanical properties :
#
#
# Convention : Reuss Voigt Hill
#
# Bulk Modulus (GPa) = 23.58700 40.96037 32.27369
# Shear Modulus (GPa) = 6.94631 24.63440 15.79035
#
# Velocity S-wave (km/s) = 1.72085 3.24068 2.59454
# Velocity P-wave (km/s) = 3.74218 5.60933 4.76805
#
# Compressibility (1/GPa) = 0.04239623
#
# Stress axis : x y z
#
# Youngs Moduli (GPa) = 61.12595 129.89199 26.43859
#
# Poissons Ratio (x) = 0.57318 0.19651
# Poissons Ratio (y) = 0.26973 -0.05559
# Poissons Ratio (z) = 0.45433 -0.27310
#
# Static dielectric constant tensor:
#      x y z
#    x 2.039940 0.000000 0.000000 
#    y 0.000000 2.012410 0.000000 
#    z 0.000000 0.000000 1.914680 
# 
# From -- ./inp_files/8006.got.cif
#   From: 2010.05.17/outbox.cif.g08.bks.cpg/sg45_5_cif.got.tgz:8006.got - 2010.06.03 19:51:22.
