data_PCOD9377521
_publ_section_title
;
Structure prediction by ZEFSAII (Michael W. Deem and Ramdas Pophale) SiO2 
 PCOD9377521
Probable space group: I B A 2
;
_chemical_formula_sum "Si O2"
_cell_formula_units_Z 48
_cell_length_a 10.252494
_cell_length_b 14.138830
_cell_length_c 16.253898
_cell_angle_alpha 90.000000
_cell_angle_beta 90.000000
_cell_angle_gamma 90.000000
_cell_volume 2356.136931
_symmetry_space_group_name_H-M "I B A 2"
_symmetry_group_IT_number 45
_symmetry_cell_setting 'orthorhombic'
loop_
_space_group_symop_operation_xyz
x,y,z
-x,-y,z
-x,y,1/2+z
x,-y,1/2+z
1/2+x,1/2+y,1/2+z
1/2-x,1/2-y,1/2+z
1/2-x,1/2+y,z
1/2+x,1/2-y,z
loop_
_atom_site_type_symbol
_atom_site_label
_atom_site_fract_x
_atom_site_fract_y
_atom_site_fract_z
Si Si1 0.599822 0.579948 0.844270
Si Si2 0.874757 0.728109 0.054128
Si Si3 0.353275 0.976320 0.096110
Si Si4 0.900178 0.079948 0.652360
Si Si5 0.125244 0.271891 0.442502
Si Si6 0.646726 0.976320 0.900520
O O1 0.500000 0.500000 0.876679
O O2 0.571417 0.595287 0.748315
O O3 0.590259 0.678327 0.892012
O O4 0.743949 0.537021 0.855598
O O5 0.837337 0.636015 0.106665
O O6 0.909740 0.821673 0.104618
O O7 0.750001 0.750000 0.998315
O O8 0.000001 0.701995 0.998315
O O9 0.500000 0.000000 0.121768
O O10 0.243949 0.037020 0.141032
O O11 0.340121 1.000000 0.998315
O O12 0.000000 0.000000 0.619951
O O13 0.162663 0.363985 0.389965
O O14 0.500000 0.000000 0.874862
#
# Coordination Sequence:
#
# PCOD9377521 Si02
#       6
#     8   8   8   8   8   8
#     4  11  26  43  62  96 136 170 207 263 327 378
#     4  12  22  38  68  95 121 168 219 261 310 380
#     4  11  21  41  65  96 124 163 217 263 317 376
#     4  11  26  43  62  96 136 170 207 263 327 378
#     4  12  22  38  68  95 121 168 219 261 310 380
#     4  11  21  41  65  96 124 163 217 263 317 376
#
# _framework density 20.372330999999999
#
# number of rings (size 3 to 8) (size 9 to 14) (size 15 to 20)
#    0.000    0.667    6.667    2.000    0.000    2.000 
#    0.000    8.333    0.000    0.000    0.000    0.000 
#    0.000    0.000    0.000    0.000    0.000    0.000 
#
# Total GULP energy -134250.471173 kJ/mol
# GULP energy per Si atom -5593.769632 kJ/mol
# Density = 2.032596 g / cm^3
# Si number density = 20.372331 Si / 1000 Ang^3
#
#
#
# Elastic Constant Matrix: (Units=GPa)
#
#
# Indices 1 2 3 4 5 6 
#
# 1 52.8591 -22.3881 -10.7021 0.0000 0.0000 0.0000
# 2 -22.3881 143.2102 19.4386 0.0000 0.0000 0.0000
# 3 -10.7021 19.4386 31.7281 0.0000 0.0000 0.0000
# 4 0.0000 0.0000 0.0000 22.1062 0.0000 0.0000
# 5 0.0000 0.0000 0.0000 0.0000 12.8218 0.0000
# 6 0.0000 0.0000 0.0000 0.0000 0.0000 35.1396
#
#
#
# Elastic Compliance Matrix: (Units=1/GPa)
#
#
# Indices 1 2 3 4 5 6 
#
# 1 0.021124 0.002547 0.005565 0.000000 0.000000 0.000000
# 2 0.002547 0.007923 -0.003995 0.000000 0.000000 0.000000
# 3 0.005565 -0.003995 0.035843 0.000000 0.000000 0.000000
# 4 0.000000 0.000000 0.000000 0.045236 0.000000 0.000000
# 5 0.000000 0.000000 0.000000 0.000000 0.077992 0.000000
# 6 0.000000 0.000000 0.000000 0.000000 0.000000 0.028458
#
#
# Mechanical properties :
#
#
# Convention : Reuss Voigt Hill
#
# Bulk Modulus (GPa) = 13.67571 22.27714 17.97643
# Shear Modulus (GPa) = 21.48532 30.11010 25.79771
#
# Velocity S-wave (km/s) = 3.25103 3.84863 3.56239
# Velocity P-wave (km/s) = 4.56287 5.54148 5.07582
#
# Compressibility (1/GPa) = 0.07312232
#
# Stress axis : x y z
#
# Youngs Moduli (GPa) = 47.34037 126.21191 27.89984
#
# Poissons Ratio (x) = -0.32145 -0.15525
# Poissons Ratio (y) = -0.12057 0.11146
# Poissons Ratio (z) = -0.26344 0.50423
#
# Static dielectric constant tensor:
#      x y z
#    x 1.684120 0.000000 0.000000 
#    y 0.000000 1.723300 0.000000 
#    z 0.000000 0.000000 1.738290 
# 
# From -- ./inp_files/6101.got.cif
#   From: 2010.05.17/outbox.cif.g08.bks.cpg/sg45_4_cif.got.tgz:6101.got - 2010.06.03 19:51:22.
