data_PCOD9377346
_publ_section_title
;
Structure prediction by ZEFSAII (Michael W. Deem and Ramdas Pophale) SiO2 
 PCOD9377346
Probable space group: I B A 2
;
_chemical_formula_sum "Si O2"
_cell_formula_units_Z 36
_cell_length_a 10.813664
_cell_length_b 15.776071
_cell_length_c 9.588580
_cell_angle_alpha 90.000000
_cell_angle_beta 90.000000
_cell_angle_gamma 90.000000
_cell_volume 1635.784239
_symmetry_space_group_name_H-M "I B A 2"
_symmetry_group_IT_number 45
_symmetry_cell_setting 'orthorhombic'
loop_
_space_group_symop_operation_xyz
x,y,z
-x,-y,z
-x,y,1/2+z
x,-y,1/2+z
1/2+x,1/2+y,1/2+z
1/2-x,1/2-y,1/2+z
1/2-x,1/2+y,z
1/2+x,1/2-y,z
loop_
_atom_site_type_symbol
_atom_site_label
_atom_site_fract_x
_atom_site_fract_y
_atom_site_fract_z
Si Si1 0.259734 0.416198 0.085690
Si Si2 0.367265 0.096757 0.066497
Si Si3 0.915827 0.661905 0.872553
Si Si4 0.500000 0.500000 0.967110
Si Si5 0.842572 0.150939 0.368153
O O1 0.172103 0.499333 0.092570
O O2 0.263790 0.360811 0.226156
O O3 0.208975 0.363751 0.954731
O O4 0.396361 0.451223 0.055334
O O5 0.408779 0.133086 0.213832
O O6 0.247747 0.143090 0.001004
O O7 0.525659 0.884909 0.954463
O O8 0.920601 0.763457 0.874081
O O9 0.429741 0.569408 0.876441
#
# Coordination Sequence:
#
# PCOD9377346 Si02
#       5
#     8   8   8   4   8
#     4  11  24  47  70 102 142 188 234 287 359 431
#     4  11  25  46  67 105 140 191 231 295 359 427
#     4  12  26  42  74 101 146 179 243 294 353 422
#     4  10  24  44  74  98 140 186 228 288 354 430
#     4  11  25  44  71 105 139 187 238 293 352 424
#
# _framework density 22.007791999999998
#
# number of rings (size 3 to 8) (size 9 to 14) (size 15 to 20)
#    0.000    0.889    0.000    6.667    6.222    3.556 
#    0.000    0.000    0.000    0.000    0.000    0.000 
#    0.000    0.000    0.000    0.000    0.000    0.000 
#
# Total GULP energy -100742.557320 kJ/mol
# GULP energy per Si atom -5596.808740 kJ/mol
# Density = 2.195770 g / cm^3
# Si number density = 22.007792 Si / 1000 Ang^3
#
#
#
# Elastic Constant Matrix: (Units=GPa)
#
#
# Indices 1 2 3 4 5 6 
#
# 1 83.1376 -3.4941 28.9315 0.0000 0.0000 0.0000
# 2 -3.4941 15.8111 1.6430 0.0000 0.0000 0.0000
# 3 28.9315 1.6430 126.6081 -0.0002 0.0000 0.0001
# 4 0.0000 0.0000 -0.0002 11.0491 0.0000 0.0000
# 5 0.0000 0.0000 0.0000 0.0000 -4.6890 0.0000
# 6 0.0000 0.0000 0.0001 0.0000 0.0000 -8.7258
#
#
#
# Elastic Compliance Matrix: (Units=1/GPa)
#
#
# Indices 1 2 3 4 5 6 
#
# 1 0.013231 0.003243 -0.003066 0.000000 0.000000 0.000000
# 2 0.003243 0.064127 -0.001573 0.000000 0.000000 0.000000
# 3 -0.003066 -0.001573 0.008619 0.000000 0.000000 0.000000
# 4 0.000000 0.000000 0.000000 0.090505 0.000000 0.000000
# 5 0.000000 0.000000 0.000000 0.000000 -0.213267 0.000000
# 6 0.000000 0.000000 0.000000 0.000000 0.000000 -0.114603
#
#
# Mechanical properties :
#
#
# Convention : Reuss Voigt Hill
#
# Bulk Modulus (GPa) = 12.02141 31.07975 21.55058
# Shear Modulus (GPa) = -41.36788 12.75864 -14.30462
#
# Velocity S-wave (km/s) = -4.34025 2.41038 -2.55224
# Velocity P-wave (km/s) = 4.43202 4.67968 1.06221
#
# Compressibility (1/GPa) = 0.08318489
#
# Stress axis : x y z
#
# Youngs Moduli (GPa) = 75.57804 15.59416 116.01829
#
# Poissons Ratio (x) = -0.05057 0.35567
# Poissons Ratio (y) = -0.24507 0.18252
# Poissons Ratio (z) = 0.23169 0.02453
#
# Static dielectric constant tensor:
#      x y z
#    x 1.825540 0.000000 0.000000 
#    y 0.000000 1.799250 0.000000 
#    z 0.000000 0.000000 1.787650 
# 
# From -- ./inp_files/1591.got.cif
#   From: 2010.05.17/outbox.cif.g08.bks.cpg/sg45_1_cif.got.tgz:1591.got - 2010.06.03 19:51:22.
