data_PCOD9377711
_publ_section_title
;
Structure prediction by ZEFSAII (Michael W. Deem and Ramdas Pophale) SiO2 
 PCOD9377711
Probable space group: I B A 2
;
_chemical_formula_sum "Si O2"
_cell_formula_units_Z 48
_cell_length_a 9.028173
_cell_length_b 24.437242
_cell_length_c 8.775971
_cell_angle_alpha 90.000000
_cell_angle_beta 90.000000
_cell_angle_gamma 90.000000
_cell_volume 1936.186740
_symmetry_space_group_name_H-M "I B A 2"
_symmetry_group_IT_number 45
_symmetry_cell_setting 'orthorhombic'
loop_
_space_group_symop_operation_xyz
x,y,z
-x,-y,z
-x,y,1/2+z
x,-y,1/2+z
1/2+x,1/2+y,1/2+z
1/2-x,1/2-y,1/2+z
1/2-x,1/2+y,z
1/2+x,1/2-y,z
loop_
_atom_site_type_symbol
_atom_site_label
_atom_site_fract_x
_atom_site_fract_y
_atom_site_fract_z
Si Si1 0.983035 0.822889 0.171880
Si Si2 0.495446 0.851529 0.407791
Si Si3 0.203203 0.435807 0.925950
Si Si4 0.826335 0.711744 0.162073
Si Si5 0.184233 0.448946 0.285238
Si Si6 0.473048 0.400368 0.422834
O O1 0.154277 0.803816 0.137862
O O2 0.994640 0.841391 0.346309
O O3 0.865990 0.775068 0.145263
O O4 0.932952 0.879033 0.090042
O O5 0.647374 0.879787 0.345821
O O6 0.561959 0.821343 0.552615
O O7 0.388560 0.808975 0.324174
O O8 0.403291 0.907935 0.398113
O O9 0.158067 0.488806 0.831374
O O10 0.379299 0.434828 0.933417
O O11 0.154518 0.438273 0.105610
O O12 0.351314 0.431641 0.326089
#
# Coordination Sequence:
#
# PCOD9377711 Si02
#       6
#     8   8   8   8   8   8
#     4  12  28  48  73 111 142 190 247 295 365 430
#     4  12  24  50  72 104 154 180 240 302 356 436
#     4  12  28  48  73 111 142 190 247 295 365 430
#     4  12  28  48  73 111 142 190 247 295 365 430
#     4  12  28  48  73 111 142 190 247 295 365 430
#     4  12  24  50  72 104 154 180 240 302 356 436
#
# _framework density 24.790997000000001
#
# number of rings (size 3 to 8) (size 9 to 14) (size 15 to 20)
#    0.000    0.000    6.667    2.000    9.333    5.333 
#    0.000    0.000    0.000    0.000    0.000    0.000 
#    0.000    0.000    0.000    0.000    0.000    0.000 
#
# Total GULP energy -134056.310268 kJ/mol
# GULP energy per Si atom -5585.679595 kJ/mol
# Density = 2.473457 g / cm^3
# Si number density = 24.790997 Si / 1000 Ang^3
#
#
#
# Elastic Constant Matrix: (Units=GPa)
#
#
# Indices 1 2 3 4 5 6 
#
# 1 73.7123 4.2891 33.9606 0.0034 -0.0031 -0.0007
# 2 4.2891 68.3595 4.3924 0.0031 -0.0013 -0.0004
# 3 33.9606 4.3924 51.9999 -0.0074 0.0088 0.0030
# 4 0.0034 0.0031 -0.0074 23.5080 -0.0017 -0.0007
# 5 -0.0031 -0.0013 0.0088 -0.0017 33.9867 0.0013
# 6 -0.0007 -0.0004 0.0030 -0.0007 0.0013 43.8498
#
#
#
# Elastic Compliance Matrix: (Units=1/GPa)
#
#
# Indices 1 2 3 4 5 6 
#
# 1 0.019416 -0.000406 -0.012646 -0.000007 0.000005 0.000001
# 2 -0.000406 0.014717 -0.000978 -0.000002 0.000001 0.000000
# 3 -0.012646 -0.000978 0.027573 0.000011 -0.000008 -0.000002
# 4 -0.000007 -0.000002 0.000011 0.042539 0.000002 0.000001
# 5 0.000005 0.000001 -0.000008 0.000002 0.029423 -0.000001
# 6 0.000001 0.000000 -0.000002 0.000001 -0.000001 0.022805
#
#
# Mechanical properties :
#
#
# Convention : Reuss Voigt Hill
#
# Bulk Modulus (GPa) = 29.72173 31.03956 30.38064
# Shear Modulus (GPa) = 25.54302 30.36422 27.95362
#
# Velocity S-wave (km/s) = 3.21336 3.50352 3.36158
# Velocity P-wave (km/s) = 5.07765 5.37717 5.22955
#
# Compressibility (1/GPa) = 0.03364541
#
# Stress axis : x y z
#
# Youngs Moduli (GPa) = 51.50325 67.94928 36.26788
#
# Poissons Ratio (x) = 0.02757 0.45865
# Poissons Ratio (y) = 0.02089 0.03548
# Poissons Ratio (z) = 0.65133 0.06647
#
# Static dielectric constant tensor:
#      x y z
#    x 2.072860 0.000010 -0.000010 
#    y 0.000010 1.936040 0.000010 
#    z -0.000010 0.000010 1.995690 
# 
# From -- ./inp_files/1366.got.cif
#   From: 2010.05.17/outbox.cif.g08.bks.cpg/sg45_1_cif.got.tgz:1366.got - 2010.06.03 19:51:22.
