data_PCOD9377486
_publ_section_title
;
Structure prediction by ZEFSAII (Michael W. Deem and Ramdas Pophale) SiO2 
 PCOD9377486
Probable space group: I B A 2
;
_chemical_formula_sum "Si O2"
_cell_formula_units_Z 48
_cell_length_a 8.000211
_cell_length_b 17.431185
_cell_length_c 14.278123
_cell_angle_alpha 90.000000
_cell_angle_beta 90.000000
_cell_angle_gamma 90.000000
_cell_volume 1991.129342
_symmetry_space_group_name_H-M "I B A 2"
_symmetry_group_IT_number 45
_symmetry_cell_setting 'orthorhombic'
loop_
_space_group_symop_operation_xyz
x,y,z
-x,-y,z
-x,y,1/2+z
x,-y,1/2+z
1/2+x,1/2+y,1/2+z
1/2-x,1/2-y,1/2+z
1/2-x,1/2+y,z
1/2+x,1/2-y,z
loop_
_atom_site_type_symbol
_atom_site_label
_atom_site_fract_x
_atom_site_fract_y
_atom_site_fract_z
Si Si1 0.175526 0.092211 0.174230
Si Si2 0.849604 0.735655 0.619899
Si Si3 0.616131 0.622206 0.882112
Si Si4 0.000000 0.500000 0.706599
Si Si5 0.784444 0.230245 0.409846
Si Si6 0.000000 0.000000 0.017683
Si Si7 0.844957 0.658088 0.224744
O O1 0.212718 0.181486 0.167773
O O2 0.349516 0.046321 0.159640
O O3 0.879606 0.050393 0.952124
O O4 0.106449 0.084873 0.279065
O O5 0.807158 0.726557 0.510635
O O6 0.821155 0.819918 0.664463
O O7 0.016076 0.694673 0.656043
O O8 0.779152 0.677546 0.890647
O O9 0.453561 0.677683 0.904401
O O10 0.175413 0.698454 0.824125
O O11 0.894174 0.428954 0.748926
O O12 0.072753 0.062457 0.087686
#
# Coordination Sequence:
#
# PCOD9377486 Si02
#       7
#     8   8   8   4   8   4   8
#     4  11  26  50  71 109 154 203 258 317 394 460
#     4  11  24  46  73 108 146 200 261 310 388 466
#     4  12  28  48  79 115 154 206 262 328 390 476
#     4  10  28  46  74 108 152 206 246 320 396 448
#     4  12  26  47  77 113 147 206 264 319 393 470
#     4  12  28  50  74 112 150 206 258 328 394 464
#     4  11  25  46  74 108 149 197 253 324 379 463
#
# _framework density 24.106922000000001
#
# number of rings (size 3 to 8) (size 9 to 14) (size 15 to 20)
#    0.000    0.667    3.333    2.500    9.333    0.000 
#    0.000    4.167    0.000    0.000    0.000    0.000 
#    0.000    0.000    0.000    0.000    0.000    0.000 
#
# Total GULP energy -133824.553842 kJ/mol
# GULP energy per Si atom -5576.023077 kJ/mol
# Density = 2.405205 g / cm^3
# Si number density = 24.106922 Si / 1000 Ang^3
#
#
#
# Elastic Constant Matrix: (Units=GPa)
#
#
# Indices 1 2 3 4 5 6 
#
# 1 61.6647 24.4368 28.5395 0.0000 0.0000 0.0000
# 2 24.4368 113.0900 19.3931 0.0000 0.0000 0.0000
# 3 28.5395 19.3931 167.7976 0.0000 0.0000 0.0000
# 4 0.0000 0.0000 0.0000 35.3246 0.0000 0.0000
# 5 0.0000 0.0000 0.0000 0.0000 7.8487 0.0000
# 6 0.0000 0.0000 0.0000 0.0000 0.0000 40.6876
#
#
#
# Elastic Compliance Matrix: (Units=1/GPa)
#
#
# Indices 1 2 3 4 5 6 
#
# 1 0.018947 -0.003613 -0.002805 0.000000 0.000000 0.000000
# 2 -0.003613 0.009710 -0.000508 0.000000 0.000000 0.000000
# 3 -0.002805 -0.000508 0.006495 0.000000 0.000000 0.000000
# 4 0.000000 0.000000 0.000000 0.028309 0.000000 0.000000
# 5 0.000000 0.000000 0.000000 0.000000 0.127409 0.000000
# 6 0.000000 0.000000 0.000000 0.000000 0.000000 0.024578
#
#
# Mechanical properties :
#
#
# Convention : Reuss Voigt Hill
#
# Bulk Modulus (GPa) = 46.94646 54.14344 50.54495
# Shear Modulus (GPa) = 21.15064 34.78438 27.96751
#
# Velocity S-wave (km/s) = 2.96525 3.80270 3.40978
# Velocity P-wave (km/s) = 5.58929 6.46445 6.04274
#
# Compressibility (1/GPa) = 0.02130086
#
# Stress axis : x y z
#
# Youngs Moduli (GPa) = 52.77969 102.98348 153.95718
#
# Poissons Ratio (x) = 0.37208 0.43184
# Poissons Ratio (y) = 0.19070 0.07817
# Poissons Ratio (z) = 0.14804 0.05229
#
# Static dielectric constant tensor:
#      x y z
#    x 2.043110 0.000000 0.000000 
#    y 0.000000 2.170930 0.000000 
#    z 0.000000 0.000000 1.886980 
# 
# From -- ./inp_files/5629.got.cif
#   From: 2010.05.17/outbox.cif.g08.bks.cpg/sg45_3_cif.got.tgz:5629.got - 2010.06.03 19:51:22.
