data_PCOD9377419
_publ_section_title
;
Structure prediction by ZEFSAII (Michael W. Deem and Ramdas Pophale) SiO2 
 PCOD9377419
Probable space group: I B A 2
;
_chemical_formula_sum "Si O2"
_cell_formula_units_Z 56
_cell_length_a 13.680642
_cell_length_b 8.975268
_cell_length_c 19.860249
_cell_angle_alpha 90.000000
_cell_angle_beta 90.000000
_cell_angle_gamma 90.000000
_cell_volume 2438.588901
_symmetry_space_group_name_H-M "I B A 2"
_symmetry_group_IT_number 45
_symmetry_cell_setting 'orthorhombic'
loop_
_space_group_symop_operation_xyz
x,y,z
-x,-y,z
-x,y,1/2+z
x,-y,1/2+z
1/2+x,1/2+y,1/2+z
1/2-x,1/2-y,1/2+z
1/2-x,1/2+y,z
1/2+x,1/2-y,z
loop_
_atom_site_type_symbol
_atom_site_label
_atom_site_fract_x
_atom_site_fract_y
_atom_site_fract_z
Si Si1 0.250519 0.990509 0.412060
Si Si2 0.133648 0.253294 0.864392
Si Si3 0.165828 0.888284 0.038562
Si Si4 0.979418 0.857482 0.648889
Si Si5 0.052098 0.649294 0.948535
Si Si6 0.834762 0.373641 0.217514
Si Si7 0.674151 0.192580 0.147682
O O1 0.280277 0.163400 0.406026
O O2 0.200338 0.987531 0.485576
O O3 0.173300 0.915929 0.361465
O O4 0.356316 0.913888 0.406322
O O5 0.138891 0.343057 0.794825
O O6 0.030804 0.271439 0.902908
O O7 0.087880 0.939091 0.093476
O O8 0.259000 0.836080 0.082071
O O9 0.104318 0.758657 0.000985
O O10 0.909505 0.733572 0.679552
O O11 0.072172 0.762834 0.627140
O O12 0.000000 0.000000 0.696995
O O13 0.000000 0.500000 0.978239
O O14 0.729393 0.308396 0.196772
O O15 0.840419 0.540409 0.189608
#
# Coordination Sequence:
#
# PCOD9377419 Si02
#       7
#     8   8   8   8   8   8   8
#     4  11  24  44  68 104 144 193 233 305 367 436
#     4  11  25  46  71 104 143 194 246 300 368 442
#     4  11  26  42  69 105 145 183 247 295 378 443
#     4  11  27  43  69 105 141 189 242 311 366 445
#     4  10  25  43  68 105 144 193 238 295 368 445
#     4  11  25  48  71 104 140 192 253 302 376 447
#     4  11  25  45  74 101 142 196 241 314 375 440
#
# _framework density 22.964100999999999
#
# number of rings (size 3 to 8) (size 9 to 14) (size 15 to 20)
#    0.000    1.143    1.429    3.000   12.000    4.571 
#    2.571    0.000    0.000    0.000    0.000    0.000 
#    0.000    0.000    0.000    0.000    0.000    0.000 
#
# Total GULP energy -156292.865832 kJ/mol
# GULP energy per Si atom -5581.888065 kJ/mol
# Density = 2.291183 g / cm^3
# Si number density = 22.964101 Si / 1000 Ang^3
#
#
#
# Elastic Constant Matrix: (Units=GPa)
#
#
# Indices 1 2 3 4 5 6 
#
# 1 128.7711 37.8617 30.9443 0.0000 0.0000 0.0000
# 2 37.8617 77.1602 15.0585 0.0000 0.0000 0.0000
# 3 30.9443 15.0585 84.8180 0.0000 0.0000 0.0000
# 4 0.0000 0.0000 0.0000 -0.2706 0.0000 0.0000
# 5 0.0000 0.0000 0.0000 0.0000 1.5509 0.0000
# 6 0.0000 0.0000 0.0000 0.0000 0.0000 44.2290
#
#
#
# Elastic Compliance Matrix: (Units=1/GPa)
#
#
# Indices 1 2 3 4 5 6 
#
# 1 0.009670 -0.004202 -0.002782 0.000000 0.000000 0.000000
# 2 -0.004202 0.015251 -0.001175 0.000000 0.000000 0.000000
# 3 -0.002782 -0.001175 0.013013 0.000000 0.000000 0.000000
# 4 0.000000 0.000000 0.000000 -3.695507 0.000000 0.000000
# 5 0.000000 0.000000 0.000000 0.000000 0.644766 0.000000
# 6 0.000000 0.000000 0.000000 0.000000 0.000000 0.022610
#
#
# Mechanical properties :
#
#
# Convention : Reuss Voigt Hill
#
# Bulk Modulus (GPa) = 46.25900 50.94203 48.60052
# Shear Modulus (GPa) = -1.68539 22.89420 10.60441
#
# Velocity S-wave (km/s) = -0.85762 3.16089 2.15124
# Velocity P-wave (km/s) = 4.38259 5.96264 5.23260
#
# Compressibility (1/GPa) = 0.02161742
#
# Stress axis : x y z
#
# Youngs Moduli (GPa) = 103.41634 65.56889 76.84394
#
# Poissons Ratio (x) = 0.27551 0.21376
# Poissons Ratio (y) = 0.43455 0.09027
# Poissons Ratio (z) = 0.28768 0.07702
#
# Static dielectric constant tensor:
#      x y z
#    x 2.563320 0.000000 0.000000 
#    y 0.000000 1.991240 0.000000 
#    z 0.000000 0.000000 1.914230 
# 
# From -- ./inp_files/9186.got.cif
#   From: 2010.05.17/outbox.cif.g08.bks.cpg/sg45_5_cif.got.tgz:9186.got - 2010.06.03 19:51:22.
