data_PCOD9377811
_publ_section_title
;
Structure prediction by ZEFSAII (Michael W. Deem and Ramdas Pophale) SiO2 
 PCOD9377811
Probable space group: I M A 2
;
_chemical_formula_sum "Si O2"
_cell_formula_units_Z 44
_cell_length_a 12.408899
_cell_length_b 13.743385
_cell_length_c 11.976505
_cell_angle_alpha 90.000000
_cell_angle_beta 90.000000
_cell_angle_gamma 90.000000
_cell_volume 2042.476473
_symmetry_space_group_name_H-M "I M A 2"
_symmetry_group_IT_number 46
_symmetry_cell_setting 'orthorhombic'
loop_
_space_group_symop_operation_xyz
x,y,z
-x,-y,z
1/2-x,y,z
1/2+x,-y,z
1/2+x,1/2+y,1/2+z
1/2-x,1/2-y,1/2+z
-x,1/2+y,1/2+z
x,1/2-y,1/2+z
loop_
_atom_site_type_symbol
_atom_site_label
_atom_site_fract_x
_atom_site_fract_y
_atom_site_fract_z
Si Si1 0.250000 0.880598 0.652101
Si Si2 0.481578 0.809458 0.615546
Si Si3 0.378544 0.302796 0.316825
Si Si4 0.985143 0.387657 0.867285
Si Si5 0.977517 0.398090 0.507519
Si Si6 0.250000 0.893653 0.891333
Si Si7 0.250000 0.841130 0.391419
O O1 0.364720 0.828364 0.668168
O O2 0.250000 0.942565 0.767604
O O3 0.250000 0.893186 0.515749
O O4 0.578089 0.837636 0.697052
O O5 0.489350 0.869669 0.501277
O O6 0.481866 0.696048 0.584534
O O7 0.250000 0.301641 0.328318
O O8 0.430149 0.193549 0.325743
O O9 0.437770 0.368776 0.409857
O O10 0.000000 0.500000 0.841777
O O11 0.862043 0.365557 0.833395
O O12 0.860884 0.415414 0.453130
O O13 0.000000 0.500000 0.566172
O O14 0.250000 0.775362 0.898277
#
# Coordination Sequence:
#
# PCOD9377811 Si02
#       7
#     4   8   8   8   8   4   4
#     4  10  16  34  66  86 109 153 201 253 291 351
#     4  10  20  41  62  87 124 160 203 246 306 355
#     4  11  24  42  61  87 127 167 198 245 310 362
#     4  10  22  39  64  91 121 157 207 252 299 358
#     4  11  24  40  64  92 123 159 205 252 302 358
#     4  12  18  40  64  87 115 160 198 260 299 356
#     4  10  18  38  60  91 112 157 205 247 310 343
#
# _framework density 21.542475
#
# number of rings (size 3 to 8) (size 9 to 14) (size 15 to 20)
#    0.000    1.455    7.273    0.000    2.545    4.364 
#    0.000    0.000    4.000    0.000    0.000    0.000 
#    0.000    0.000    0.000    0.000    0.000    0.000 
#
# Total GULP energy -122648.974671 kJ/mol
# GULP energy per Si atom -5574.953394 kJ/mol
# Density = 2.149344 g / cm^3
# Si number density = 21.542475 Si / 1000 Ang^3
#
#
#
# Elastic Constant Matrix: (Units=GPa)
#
#
# Indices 1 2 3 4 5 6 
#
# 1 187.0556 13.0583 24.8207 0.0000 0.0000 0.0000
# 2 13.0583 71.4751 -21.4699 0.0000 0.0000 0.0000
# 3 24.8207 -21.4699 66.0245 0.0000 0.0000 0.0000
# 4 0.0000 0.0000 0.0000 -25.5267 0.0000 0.0000
# 5 0.0000 0.0000 0.0000 0.0000 23.5253 0.0000
# 6 0.0000 0.0000 0.0000 0.0000 0.0000 17.2512
#
#
#
# Elastic Compliance Matrix: (Units=1/GPa)
#
#
# Indices 1 2 3 4 5 6 
#
# 1 0.005855 -0.001918 -0.002825 0.000000 0.000000 0.000000
# 2 -0.001918 0.016134 0.005968 0.000000 0.000000 0.000000
# 3 -0.002825 0.005968 0.018148 0.000000 0.000000 0.000000
# 4 0.000000 0.000000 0.000000 -0.039175 0.000000 0.000000
# 5 0.000000 0.000000 0.000000 0.000000 0.042507 0.000000
# 6 0.000000 0.000000 0.000000 0.000000 0.000000 0.057967
#
#
# Mechanical properties :
#
#
# Convention : Reuss Voigt Hill
#
# Bulk Modulus (GPa) = 23.48176 39.70816 31.59496
# Shear Modulus (GPa) = 44.17627 23.59301 33.88464
#
# Velocity S-wave (km/s) = 4.53333 3.31295 3.97031
# Velocity P-wave (km/s) = 6.19075 5.75384 5.97629
#
# Compressibility (1/GPa) = 0.04258625
#
# Stress axis : x y z
#
# Youngs Moduli (GPa) = 170.80212 61.98137 55.10147
#
# Poissons Ratio (x) = 0.11889 0.15565
# Poissons Ratio (y) = 0.32762 -0.32882
# Poissons Ratio (z) = 0.48247 -0.36988
#
# Static dielectric constant tensor:
#      x y z
#    x 1.689150 0.000000 0.000000 
#    y 0.000000 1.787960 0.000000 
#    z 0.000000 0.000000 1.855620 
# 
# From -- ./inp_files/15143.got.cif
#   From: 2010.05.17/outbox.cif.g08.bks.cpg/sg46_8_cif.got.tgz:15143.got - 2010.06.03 19:58:25.
