data_PCOD9377545
_publ_section_title
;
Structure prediction by ZEFSAII (Michael W. Deem and Ramdas Pophale) SiO2 
 PCOD9377545
Probable space group: I B A 2
;
_chemical_formula_sum "Si O2"
_cell_formula_units_Z 60
_cell_length_a 16.585825
_cell_length_b 9.519862
_cell_length_c 17.054776
_cell_angle_alpha 90.000000
_cell_angle_beta 90.000000
_cell_angle_gamma 90.000000
_cell_volume 2692.859851
_symmetry_space_group_name_H-M "I B A 2"
_symmetry_group_IT_number 45
_symmetry_cell_setting 'orthorhombic'
loop_
_space_group_symop_operation_xyz
x,y,z
-x,-y,z
-x,y,1/2+z
x,-y,1/2+z
1/2+x,1/2+y,1/2+z
1/2-x,1/2-y,1/2+z
1/2-x,1/2+y,z
1/2+x,1/2-y,z
loop_
_atom_site_type_symbol
_atom_site_label
_atom_site_fract_x
_atom_site_fract_y
_atom_site_fract_z
Si Si1 0.282409 0.689608 0.004000
Si Si2 0.921321 0.620412 0.977056
Si Si3 0.967456 0.845359 0.405893
Si Si4 0.090394 0.040859 0.566011
Si Si5 0.285284 0.308042 0.160021
Si Si6 0.500000 0.000000 0.623549
Si Si7 0.839472 0.535262 0.722279
Si Si8 0.855446 0.379407 0.883745
O O1 0.351566 0.580428 0.030993
O O2 0.229989 0.719997 0.080636
O O3 0.328729 0.833630 0.986496
O O4 0.226556 0.646533 0.931524
O O5 0.915897 0.464195 0.941808
O O6 0.959186 0.738390 0.920632
O O7 0.963153 0.614301 0.062545
O O8 0.923632 0.861310 0.490343
O O9 0.900005 0.763905 0.356632
O O10 0.000000 0.000000 0.383538
O O11 0.134694 0.106160 0.639907
O O12 0.000000 0.000000 0.587881
O O13 0.215207 0.418583 0.178159
O O14 0.298220 0.187931 0.223694
O O15 0.425272 0.952771 0.677501
O O16 0.847003 0.477901 0.809401
#
# Coordination Sequence:
#
# PCOD9377545 Si02
#       8
#     8   8   8   8   8   4   8   8
#     4  12  23  41  76 106 140 195 250 311 368 463
#     4  12  23  43  75 103 139 188 252 308 371 448
#     4  11  22  41  72 105 139 180 247 308 367 443
#     4  11  22  40  74 114 140 182 260 323 369 445
#     4  12  24  48  69 108 146 203 245 312 388 463
#     4  12  24  46  76 110 140 200 252 318 370 472
#     4  12  30  45  74 104 160 193 251 315 402 461
#     4  12  28  45  70 108 151 197 246 313 394 466
#
# _framework density 22.281144000000001
#
# number of rings (size 3 to 8) (size 9 to 14) (size 15 to 20)
#    0.000    0.267    8.000    2.400    3.733    0.000 
#    0.000    0.000    0.000    0.800    0.000    0.000 
#    0.000    0.000    0.000    0.000    0.000    0.000 
#
# Total GULP energy -167649.916980 kJ/mol
# GULP energy per Si atom -5588.330566 kJ/mol
# Density = 2.223043 g / cm^3
# Si number density = 22.281144 Si / 1000 Ang^3
#
#
#
# Elastic Constant Matrix: (Units=GPa)
#
#
# Indices 1 2 3 4 5 6 
#
# 1 126.8712 44.5405 31.8999 0.0000 0.0000 0.0000
# 2 44.5405 116.5715 14.3273 0.0000 0.0000 0.0000
# 3 31.8999 14.3273 62.3436 0.0000 0.0000 0.0000
# 4 0.0000 0.0000 0.0000 31.7377 0.0000 0.0000
# 5 0.0000 0.0000 0.0000 0.0000 16.6765 0.0000
# 6 0.0000 0.0000 0.0000 0.0000 0.0000 39.0817
#
#
#
# Elastic Compliance Matrix: (Units=1/GPa)
#
#
# Indices 1 2 3 4 5 6 
#
# 1 0.010170 -0.003341 -0.004436 0.000000 0.000000 0.000000
# 2 -0.003341 0.009925 -0.000572 0.000000 0.000000 0.000000
# 3 -0.004436 -0.000572 0.018441 0.000000 0.000000 0.000000
# 4 0.000000 0.000000 0.000000 0.031508 0.000000 0.000000
# 5 0.000000 0.000000 0.000000 0.000000 0.059965 0.000000
# 6 0.000000 0.000000 0.000000 0.000000 0.000000 0.025587
#
#
# Mechanical properties :
#
#
# Convention : Reuss Voigt Hill
#
# Bulk Modulus (GPa) = 45.78772 54.14685 49.96728
# Shear Modulus (GPa) = 27.84369 31.83376 29.83872
#
# Velocity S-wave (km/s) = 3.53888 3.78396 3.66347
# Velocity P-wave (km/s) = 6.10678 6.59132 6.35367
#
# Compressibility (1/GPa) = 0.02183992
#
# Stress axis : x y z
#
# Youngs Moduli (GPa) = 98.32621 100.75464 54.22592
#
# Poissons Ratio (x) = 0.33659 0.24055
# Poissons Ratio (y) = 0.32848 0.03099
# Poissons Ratio (z) = 0.43619 0.05759
#
# Static dielectric constant tensor:
#      x y z
#    x 1.861020 0.000000 0.000000 
#    y 0.000000 1.890780 0.000000 
#    z 0.000000 0.000000 1.795350 
# 
# From -- ./inp_files/8360.got.cif
#   From: 2010.05.17/outbox.cif.g08.bks.cpg/sg45_5_cif.got.tgz:8360.got - 2010.06.03 19:51:22.
