data_PCOD9377625
_publ_section_title
;
Structure prediction by ZEFSAII (Michael W. Deem and Ramdas Pophale) SiO2 
 PCOD9377625
Probable space group: I B A 2
;
_chemical_formula_sum "Si O2"
_cell_formula_units_Z 56
_cell_length_a 14.263871
_cell_length_b 13.693839
_cell_length_c 13.540940
_cell_angle_alpha 90.000000
_cell_angle_beta 90.000000
_cell_angle_gamma 90.000000
_cell_volume 2644.913259
_symmetry_space_group_name_H-M "I B A 2"
_symmetry_group_IT_number 45
_symmetry_cell_setting 'orthorhombic'
loop_
_space_group_symop_operation_xyz
x,y,z
-x,-y,z
-x,y,1/2+z
x,-y,1/2+z
1/2+x,1/2+y,1/2+z
1/2-x,1/2-y,1/2+z
1/2-x,1/2+y,z
1/2+x,1/2-y,z
loop_
_atom_site_type_symbol
_atom_site_label
_atom_site_fract_x
_atom_site_fract_y
_atom_site_fract_z
Si Si1 0.756449 0.280671 0.303400
Si Si2 0.533097 0.644198 0.057269
Si Si3 0.786253 0.729025 0.584653
Si Si4 0.000000 0.500000 0.934698
Si Si5 0.500000 0.500000 0.224809
Si Si6 0.893182 0.692037 0.980103
Si Si7 0.189372 0.407655 0.394881
Si Si8 0.641656 0.550997 0.885738
O O1 0.767831 0.314876 0.191855
O O2 0.848765 0.298485 0.370186
O O3 0.726939 0.167774 0.313060
O O4 0.671864 0.341401 0.351579
O O5 0.621862 0.705722 0.093514
O O6 0.489781 0.591505 0.151991
O O7 0.461364 0.716942 0.003107
O O8 0.577262 0.566640 0.980769
O O9 0.696914 0.793069 0.550461
O O10 0.805591 0.651604 0.497980
O O11 0.948039 0.589594 0.991300
O O12 0.914842 0.447618 0.877008
O O13 0.412357 0.496155 0.298445
O O14 0.262654 0.494845 0.406201
#
# Coordination Sequence:
#
# PCOD9377625 Si02
#       8
#     8   8   8   4   4   8   8   8
#     4  11  24  46  70  99 142 184 224 284 352 415
#     4  12  25  47  68 106 138 183 236 290 351 411
#     4  11  24  46  70  99 142 184 224 284 352 415
#     4  12  20  48  74 100 132 186 228 276 366 404
#     4  12  30  40  76 102 136 188 242 288 344 430
#     4  11  24  46  71 100 142 178 230 294 342 421
#     4  11  24  46  71 100 142 178 230 294 342 421
#     4  12  25  47  68 106 138 183 236 290 351 411
#
# _framework density 21.172716999999999
#
# number of rings (size 3 to 8) (size 9 to 14) (size 15 to 20)
#    0.000    0.571    5.714    2.143   12.000    0.000 
#    5.143    1.429    0.000    0.000    0.000    0.000 
#    0.000    0.000    0.000    0.000    0.000    0.000 
#
# Total GULP energy -156514.171625 kJ/mol
# GULP energy per Si atom -5589.791844 kJ/mol
# Density = 2.112453 g / cm^3
# Si number density = 21.172717 Si / 1000 Ang^3
#
#
#
# Elastic Constant Matrix: (Units=GPa)
#
#
# Indices 1 2 3 4 5 6 
#
# 1 107.1400 23.8916 14.1738 0.0000 0.0000 0.0000
# 2 23.8916 59.7818 -8.4680 0.0000 0.0000 0.0000
# 3 14.1738 -8.4680 72.5045 0.0000 0.0000 0.0000
# 4 0.0000 0.0000 0.0000 11.3075 0.0000 0.0000
# 5 0.0000 0.0000 0.0000 0.0000 19.7153 0.0000
# 6 0.0000 0.0000 0.0000 0.0000 0.0000 46.3880
#
#
#
# Elastic Compliance Matrix: (Units=1/GPa)
#
#
# Indices 1 2 3 4 5 6 
#
# 1 0.010722 -0.004659 -0.002640 0.000000 0.000000 0.000000
# 2 -0.004659 0.019033 0.003134 0.000000 0.000000 0.000000
# 3 -0.002640 0.003134 0.014674 0.000000 0.000000 0.000000
# 4 0.000000 0.000000 0.000000 0.088437 0.000000 0.000000
# 5 0.000000 0.000000 0.000000 0.000000 0.050722 0.000000
# 6 0.000000 0.000000 0.000000 0.000000 0.000000 0.021557
#
#
# Mechanical properties :
#
#
# Convention : Reuss Voigt Hill
#
# Bulk Modulus (GPa) = 27.70172 33.18014 30.44093
# Shear Modulus (GPa) = 22.17201 29.47073 25.82137
#
# Velocity S-wave (km/s) = 3.23955 3.73489 3.49601
# Velocity P-wave (km/s) = 5.20625 5.85700 5.54118
#
# Compressibility (1/GPa) = 0.03609884
#
# Stress axis : x y z
#
# Youngs Moduli (GPa) = 93.26831 52.53949 68.14608
#
# Poissons Ratio (x) = 0.24478 0.17991
# Poissons Ratio (y) = 0.43453 -0.21355
# Poissons Ratio (z) = 0.24624 -0.16464
#
# Static dielectric constant tensor:
#      x y z
#    x 1.746010 0.000000 0.000000 
#    y 0.000000 1.802600 0.000000 
#    z 0.000000 0.000000 1.737870 
# 
# From -- ./inp_files/6547.got.cif
#   From: 2010.05.17/outbox.cif.g08.bks.cpg/sg45_4_cif.got.tgz:6547.got - 2010.06.03 19:51:22.
