data_PCOD9377243
_publ_section_title
;
Structure prediction by ZEFSAII (Michael W. Deem and Ramdas Pophale) SiO2 
 PCOD9377243
Probable space group: I B A 2
;
_chemical_formula_sum "Si O2"
_cell_formula_units_Z 40
_cell_length_a 20.930771
_cell_length_b 7.289773
_cell_length_c 8.775293
_cell_angle_alpha 90.000000
_cell_angle_beta 90.000000
_cell_angle_gamma 90.000000
_cell_volume 1338.939202
_symmetry_space_group_name_H-M "I B A 2"
_symmetry_group_IT_number 45
_symmetry_cell_setting 'orthorhombic'
loop_
_space_group_symop_operation_xyz
x,y,z
-x,-y,z
-x,y,1/2+z
x,-y,1/2+z
1/2+x,1/2+y,1/2+z
1/2-x,1/2-y,1/2+z
1/2-x,1/2+y,z
1/2+x,1/2-y,z
loop_
_atom_site_type_symbol
_atom_site_label
_atom_site_fract_x
_atom_site_fract_y
_atom_site_fract_z
Si Si1 0.910662 0.077406 0.682810
Si Si2 0.292441 0.554474 0.560546
Si Si3 0.489632 0.765811 0.449642
Si Si4 0.798562 0.367581 0.829416
Si Si5 0.407263 0.859262 0.712242
O O1 0.894187 0.860020 0.699819
O O2 0.963371 0.152427 0.563747
O O3 0.840663 0.113498 0.607040
O O4 0.944003 0.145399 0.838023
O O5 0.260370 0.649026 0.709634
O O6 0.231722 0.476638 0.470484
O O7 0.145649 0.508476 0.754849
O O8 0.442793 0.887613 0.553161
O O9 0.538745 0.859265 0.337453
O O10 0.819294 0.185951 0.924444
#
# Coordination Sequence:
#
# PCOD9377243 Si02
#       5
#     8   8   8   8   8
#     4  11  22  44  81 126 177 228 294 363 442 546
#     4  12  29  54  82 126 169 235 302 374 454 530
#     4  10  23  45  82 136 180 232 292 361 459 543
#     4  12  29  57  85 125 175 231 305 380 449 539
#     4  11  22  46  80 125 175 229 293 364 442 529
#
# _framework density 29.874396000000001
#
# number of rings (size 3 to 8) (size 9 to 14) (size 15 to 20)
#    0.000    0.800    0.000    8.400    8.400    0.000 
#    3.600    8.000    0.000    8.400    0.000    0.000 
#    0.000    0.000    0.000    0.000    0.000    0.000 
#
# Total GULP energy -111976.995470 kJ/mol
# GULP energy per Si atom -5598.849774 kJ/mol
# Density = 2.980640 g / cm^3
# Si number density = 29.874396 Si / 1000 Ang^3
#
#
#
# Elastic Constant Matrix: (Units=GPa)
#
#
# Indices 1 2 3 4 5 6 
#
# 1 224.1092 80.3263 90.5073 0.0000 0.0000 0.0000
# 2 80.3263 122.4553 61.4931 0.0000 0.0000 0.0000
# 3 90.5073 61.4931 253.2150 0.0000 0.0000 0.0000
# 4 0.0000 0.0000 0.0000 56.8832 0.0000 0.0000
# 5 0.0000 0.0000 0.0000 0.0000 57.5147 0.0000
# 6 0.0000 0.0000 0.0000 0.0000 0.0000 71.6678
#
#
#
# Elastic Compliance Matrix: (Units=1/GPa)
#
#
# Indices 1 2 3 4 5 6 
#
# 1 0.006246 -0.003390 -0.001409 0.000000 0.000000 0.000000
# 2 -0.003390 0.011140 -0.001494 0.000000 0.000000 0.000000
# 3 -0.001409 -0.001494 0.004816 0.000000 0.000000 0.000000
# 4 0.000000 0.000000 0.000000 0.017580 0.000000 0.000000
# 5 0.000000 0.000000 0.000000 0.000000 0.017387 0.000000
# 6 0.000000 0.000000 0.000000 0.000000 0.000000 0.013953
#
#
# Mechanical properties :
#
#
# Convention : Reuss Voigt Hill
#
# Bulk Modulus (GPa) = 103.99043 118.27032 111.13037
# Shear Modulus (GPa) = 57.52907 61.71001 59.61954
#
# Velocity S-wave (km/s) = 4.39304 4.54987 4.47214
# Velocity P-wave (km/s) = 7.78566 8.20225 7.99667
#
# Compressibility (1/GPa) = 0.00961627
#
# Stress axis : x y z
#
# Youngs Moduli (GPa) = 160.09712 89.76858 207.65166
#
# Poissons Ratio (x) = 0.30427 0.29268
# Poissons Ratio (y) = 0.54265 0.31018
# Poissons Ratio (z) = 0.22565 0.13409
#
# Static dielectric constant tensor:
#      x y z
#    x 2.645130 0.000000 0.000000 
#    y 0.000000 2.495020 0.000000 
#    z 0.000000 0.000000 2.299580 
# 
# From -- ./inp_files/1653.got.cif
#   From: 2010.05.17/outbox.cif.g08.bks.cpg/sg45_1_cif.got.tgz:1653.got - 2010.06.03 19:51:22.
