data_PCOD9377916
_publ_section_title
;
Structure prediction by ZEFSAII (Michael W. Deem and Ramdas Pophale) SiO2 
 PCOD9377916
Probable space group: I M A 2
;
_chemical_formula_sum "Si O2"
_cell_formula_units_Z 48
_cell_length_a 14.027332
_cell_length_b 12.097465
_cell_length_c 14.085590
_cell_angle_alpha 90.000000
_cell_angle_beta 90.000000
_cell_angle_gamma 90.000000
_cell_volume 2390.256419
_symmetry_space_group_name_H-M "I M A 2"
_symmetry_group_IT_number 46
_symmetry_cell_setting 'orthorhombic'
loop_
_space_group_symop_operation_xyz
x,y,z
-x,-y,z
1/2-x,y,z
1/2+x,-y,z
1/2+x,1/2+y,1/2+z
1/2-x,1/2-y,1/2+z
-x,1/2+y,1/2+z
x,1/2-y,1/2+z
loop_
_atom_site_type_symbol
_atom_site_label
_atom_site_fract_x
_atom_site_fract_y
_atom_site_fract_z
Si Si1 0.647134 0.061494 0.095040
Si Si2 0.640680 0.157115 0.772282
Si Si3 0.008523 0.733601 0.108241
Si Si4 0.107028 0.457583 0.397780
Si Si5 0.138606 0.356777 0.732213
Si Si6 0.477891 0.223830 0.392966
O O1 0.750000 0.118308 0.105334
O O2 0.563531 0.149813 0.093949
O O3 0.634665 0.972839 0.177476
O O4 0.650197 0.993611 0.997363
O O5 0.750000 0.196394 0.764091
O O6 0.578646 0.163676 0.676031
O O7 0.577077 0.230800 0.846479
O O8 0.645630 0.032270 0.812634
O O9 0.912413 0.764532 0.165304
O O10 0.991092 0.690671 0.002145
O O11 0.096807 0.327197 0.387660
O O12 0.000000 0.500000 0.405253
O O13 0.250000 0.332088 0.750258
O O14 0.072269 0.363558 0.824843
#
# Coordination Sequence:
#
# PCOD9377916 Si02
#       6
#     8   8   8   8   8   8
#     4  11  19  32  59  89 117 150 194 243 290 350
#     4  10  21  33  54  90 122 153 195 242 296 352
#     4  11  20  37  57  85 118 157 196 247 295 347
#     4  10  17  33  55  84 115 151 195 235 289 341
#     4  10  22  35  54  87 117 153 200 245 295 348
#     4  10  21  36  58  83 119 158 197 248 292 346
#
# _framework density 20.081529
#
# number of rings (size 3 to 8) (size 9 to 14) (size 15 to 20)
#    0.000    1.667    5.000    1.500    0.000    2.667 
#    0.000    0.000    0.000   20.000    0.000   30.333 
#    0.000    0.000    0.000    0.000    0.000    0.000 
#
# Total GULP energy -133875.035827 kJ/mol
# GULP energy per Si atom -5578.126493 kJ/mol
# Density = 2.003582 g / cm^3
# Si number density = 20.081529 Si / 1000 Ang^3
#
#
#
# Elastic Constant Matrix: (Units=GPa)
#
#
# Indices 1 2 3 4 5 6 
#
# 1 126.6341 4.2988 40.9861 0.0000 0.0000 0.0000
# 2 4.2988 20.8912 12.6763 0.0000 0.0000 0.0000
# 3 40.9861 12.6763 153.1881 0.0000 0.0000 0.0000
# 4 0.0000 0.0000 0.0000 31.7411 0.0000 0.0000
# 5 0.0000 0.0000 0.0000 0.0000 84.6414 0.0000
# 6 0.0000 0.0000 0.0000 0.0000 0.0000 40.3688
#
#
#
# Elastic Compliance Matrix: (Units=1/GPa)
#
#
# Indices 1 2 3 4 5 6 
#
# 1 0.008649 -0.000395 -0.002281 0.000000 0.000000 0.000000
# 2 -0.000395 0.050416 -0.004066 0.000000 0.000000 0.000000
# 3 -0.002281 -0.004066 0.007475 0.000000 0.000000 0.000000
# 4 0.000000 0.000000 0.000000 0.031505 0.000000 0.000000
# 5 0.000000 0.000000 0.000000 0.000000 0.011815 0.000000
# 6 0.000000 0.000000 0.000000 0.000000 0.000000 0.024772
#
#
# Mechanical properties :
#
#
# Convention : Reuss Voigt Hill
#
# Bulk Modulus (GPa) = 18.84895 46.29287 32.57091
# Shear Modulus (GPa) = 30.15685 47.53373 38.84529
#
# Velocity S-wave (km/s) = 3.87941 4.87050 4.40293
# Velocity P-wave (km/s) = 5.42890 7.39808 6.48863
#
# Compressibility (1/GPa) = 0.05305335
#
# Stress axis : x y z
#
# Youngs Moduli (GPa) = 115.62661 19.83514 133.78391
#
# Poissons Ratio (x) = 0.00784 0.30519
# Poissons Ratio (y) = 0.04572 0.54398
# Poissons Ratio (z) = 0.26377 0.08065
#
# Static dielectric constant tensor:
#      x y z
#    x 1.717620 0.000000 0.000000 
#    y 0.000000 1.746710 0.000000 
#    z 0.000000 0.000000 1.741660 
# 
# From -- ./inp_files/15852.got.cif
#   From: 2010.05.17/outbox.cif.g08.bks.cpg/sg46_8_cif.got.tgz:15852.got - 2010.06.03 19:58:25.
