data_PCOD9377929
_publ_section_title
;
Structure prediction by ZEFSAII (Michael W. Deem and Ramdas Pophale) SiO2 
 PCOD9377929
Probable space group: I M A 2
;
_chemical_formula_sum "Si O2"
_cell_formula_units_Z 40
_cell_length_a 14.477100
_cell_length_b 9.391001
_cell_length_c 14.574484
_cell_angle_alpha 90.000000
_cell_angle_beta 90.000000
_cell_angle_gamma 90.000000
_cell_volume 1981.466110
_symmetry_space_group_name_H-M "I M A 2"
_symmetry_group_IT_number 46
_symmetry_cell_setting 'orthorhombic'
loop_
_space_group_symop_operation_xyz
x,y,z
-x,-y,z
1/2-x,y,z
1/2+x,-y,z
1/2+x,1/2+y,1/2+z
1/2-x,1/2-y,1/2+z
-x,1/2+y,1/2+z
x,1/2-y,1/2+z
loop_
_atom_site_type_symbol
_atom_site_label
_atom_site_fract_x
_atom_site_fract_y
_atom_site_fract_z
Si Si1 0.020429 0.834908 0.519900
Si Si2 0.902192 0.581833 0.515412
Si Si3 0.033829 0.767602 0.229863
Si Si4 0.145896 0.061806 0.222539
Si Si5 0.146211 0.662059 0.386745
O O1 0.036197 0.793984 0.626814
O O2 0.105085 0.777325 0.458703
O O3 0.932106 0.740392 0.489934
O O4 0.000000 0.000000 0.508617
O O5 0.851318 0.578909 0.612040
O O6 0.854716 0.488618 0.438450
O O7 0.000000 0.500000 0.532814
O O8 0.075929 0.658935 0.302275
O O9 0.930510 0.821990 0.252502
O O10 0.099672 0.907144 0.238032
O O11 0.250000 0.073594 0.259212
O O12 0.250000 0.697808 0.358304
#
# Coordination Sequence:
#
# PCOD9377929 Si02
#       5
#     8   8   8   8   8
#     4  10  22  40  62  89 128 170 203 264 324 365
#     4   9  17  37  61  87 119 162 207 253 310 371
#     4  10  21  37  58  94 126 163 208 263 315 372
#     4  10  17  34  63  89 121 164 207 253 316 380
#     4  11  22  37  65  94 124 169 214 256 311 383
#
# _framework density 20.187073000000002
#
# number of rings (size 3 to 8) (size 9 to 14) (size 15 to 20)
#    0.000    2.000    6.000    1.200    2.800    3.200 
#    0.000    5.000    0.000   36.000    0.000    0.000 
#    0.000    0.000    0.000    0.000    0.000    0.000 
#
# Total GULP energy -111618.285305 kJ/mol
# GULP energy per Si atom -5580.914265 kJ/mol
# Density = 2.014113 g / cm^3
# Si number density = 20.187073 Si / 1000 Ang^3
#
#
#
# Elastic Constant Matrix: (Units=GPa)
#
#
# Indices 1 2 3 4 5 6 
#
# 1 143.5104 28.3949 26.9197 0.0000 0.0000 0.0000
# 2 28.3949 113.4042 19.8954 0.0000 0.0000 0.0000
# 3 26.9197 19.8954 77.6133 0.0000 0.0000 0.0000
# 4 0.0000 0.0000 0.0000 15.7522 0.0000 0.0000
# 5 0.0000 0.0000 0.0000 0.0000 19.0559 0.0000
# 6 0.0000 0.0000 0.0000 0.0000 0.0000 8.5169
#
#
#
# Elastic Compliance Matrix: (Units=1/GPa)
#
#
# Indices 1 2 3 4 5 6 
#
# 1 0.007698 -0.001528 -0.002278 0.000000 0.000000 0.000000
# 2 -0.001528 0.009536 -0.001915 0.000000 0.000000 0.000000
# 3 -0.002278 -0.001915 0.014165 0.000000 0.000000 0.000000
# 4 0.000000 0.000000 0.000000 0.063483 0.000000 0.000000
# 5 0.000000 0.000000 0.000000 0.000000 0.052477 0.000000
# 6 0.000000 0.000000 0.000000 0.000000 0.000000 0.117413
#
#
# Mechanical properties :
#
#
# Convention : Reuss Voigt Hill
#
# Bulk Modulus (GPa) = 50.10473 53.88310 51.99391
# Shear Modulus (GPa) = 17.67612 25.95287 21.81449
#
# Velocity S-wave (km/s) = 2.96229 3.58944 3.29084
# Velocity P-wave (km/s) = 6.04767 6.62787 6.34440
#
# Compressibility (1/GPa) = 0.01995819
#
# Stress axis : x y z
#
# Youngs Moduli (GPa) = 129.90763 104.86088 70.59448
#
# Poissons Ratio (x) = 0.16020 0.16084
# Poissons Ratio (y) = 0.19846 0.13517
# Poissons Ratio (z) = 0.29597 0.20078
#
# Static dielectric constant tensor:
#      x y z
#    x 1.748230 0.000000 0.000000 
#    y 0.000000 1.734520 0.000000 
#    z 0.000000 0.000000 1.747560 
# 
# From -- ./inp_files/15682.got.cif
#   From: 2010.05.17/outbox.cif.g08.bks.cpg/sg46_8_cif.got.tgz:15682.got - 2010.06.03 19:58:25.
