data_PCOD9377816
_publ_section_title
;
Structure prediction by ZEFSAII (Michael W. Deem and Ramdas Pophale) SiO2 
 PCOD9377816
Probable space group: I M A 2
;
_chemical_formula_sum "Si O2"
_cell_formula_units_Z 56
_cell_length_a 19.518115
_cell_length_b 9.036539
_cell_length_c 14.648849
_cell_angle_alpha 90.000000
_cell_angle_beta 90.000000
_cell_angle_gamma 90.000000
_cell_volume 2583.708429
_symmetry_space_group_name_H-M "I M A 2"
_symmetry_group_IT_number 46
_symmetry_cell_setting 'orthorhombic'
loop_
_space_group_symop_operation_xyz
x,y,z
-x,-y,z
1/2-x,y,z
1/2+x,-y,z
1/2+x,1/2+y,1/2+z
1/2-x,1/2-y,1/2+z
-x,1/2+y,1/2+z
x,1/2-y,1/2+z
loop_
_atom_site_type_symbol
_atom_site_label
_atom_site_fract_x
_atom_site_fract_y
_atom_site_fract_z
Si Si1 0.173097 0.717694 0.798210
Si Si2 0.827144 0.625846 0.740600
Si Si3 0.592274 0.752923 0.387651
Si Si4 0.500000 0.500000 0.413978
Si Si5 0.500000 0.500000 0.903708
Si Si6 0.416756 0.857035 0.655918
Si Si7 0.100020 0.750914 0.479692
Si Si8 0.424838 0.198058 0.607820
O O1 0.250000 0.767172 0.774938
O O2 0.165998 0.546645 0.768044
O O3 0.112384 0.810702 0.752437
O O4 0.158749 0.737647 0.905273
O O5 0.750000 0.648137 0.706150
O O6 0.880814 0.686513 0.666369
O O7 0.838377 0.721585 0.833824
O O8 0.552037 0.605419 0.361034
O O9 0.588877 0.771542 0.498592
O O10 0.545699 0.886658 0.349258
O O11 0.449540 0.609702 0.468569
O O12 0.551271 0.395025 0.960434
O O13 0.373371 0.765449 0.581353
O O14 0.494705 0.803443 0.636571
O O15 0.405681 0.029691 0.634824
#
# Coordination Sequence:
#
# PCOD9377816 Si02
#       8
#     8   8   8   4   4   8   8   8
#     4  11  27  44  62  91 130 175 215 254 312 380
#     4  11  27  44  62  91 130 175 215 254 312 380
#     4  11  21  42  66  94 131 162 207 263 321 379
#     4  10  24  34  68 106 128 148 214 266 326 362
#     4  10  16  38  68  94 116 160 210 258 314 374
#     4  11  23  40  69  99 124 160 212 266 318 374
#     4  11  21  42  66  94 131 162 207 263 321 379
#     4  11  23  40  69  99 124 160 212 266 318 374
#
# _framework density 21.674271999999998
#
# number of rings (size 3 to 8) (size 9 to 14) (size 15 to 20)
#    0.000    1.143    5.714    0.000    8.000    2.286 
#    0.000    0.000    0.000    0.000    0.000    0.000 
#    0.000    0.000    0.000    0.000    0.000    0.000 
#
# Total GULP energy -156230.959724 kJ/mol
# GULP energy per Si atom -5579.677133 kJ/mol
# Density = 2.162494 g / cm^3
# Si number density = 21.674272 Si / 1000 Ang^3
#
#
#
# Elastic Constant Matrix: (Units=GPa)
#
#
# Indices 1 2 3 4 5 6 
#
# 1 64.3311 26.9366 26.2937 0.0000 0.0000 0.0000
# 2 26.9366 97.5943 7.8142 0.0000 0.0000 0.0000
# 3 26.2937 7.8142 90.0137 0.0000 0.0000 0.0000
# 4 0.0000 0.0000 0.0000 14.5216 0.0000 0.0000
# 5 0.0000 0.0000 0.0000 0.0000 22.4346 0.0000
# 6 0.0000 0.0000 0.0000 0.0000 0.0000 26.5787
#
#
#
# Elastic Compliance Matrix: (Units=1/GPa)
#
#
# Indices 1 2 3 4 5 6 
#
# 1 0.019850 -0.005049 -0.005360 0.000000 0.000000 0.000000
# 2 -0.005049 0.011603 0.000468 0.000000 0.000000 0.000000
# 3 -0.005360 0.000468 0.012634 0.000000 0.000000 0.000000
# 4 0.000000 0.000000 0.000000 0.068863 0.000000 0.000000
# 5 0.000000 0.000000 0.000000 0.000000 0.044574 0.000000
# 6 0.000000 0.000000 0.000000 0.000000 0.000000 0.037624
#
#
# Mechanical properties :
#
#
# Convention : Reuss Voigt Hill
#
# Bulk Modulus (GPa) = 41.31614 41.55869 41.43742
# Shear Modulus (GPa) = 22.41155 25.43326 23.92241
#
# Velocity S-wave (km/s) = 3.21910 3.42925 3.32584
# Velocity P-wave (km/s) = 5.73764 5.90724 5.82306
#
# Compressibility (1/GPa) = 0.02420362
#
# Stress axis : x y z
#
# Youngs Moduli (GPa) = 50.37882 86.18655 79.14846
#
# Poissons Ratio (x) = 0.43520 0.42423
# Poissons Ratio (y) = 0.25439 -0.03702
# Poissons Ratio (z) = 0.27002 -0.04031
#
# Static dielectric constant tensor:
#      x y z
#    x 1.792310 0.000000 0.000000 
#    y 0.000000 1.802300 0.000000 
#    z 0.000000 0.000000 1.856360 
# 
# From -- ./inp_files/17142.got.cif
#   From: 2010.05.17/outbox.cif.g08.bks.cpg/sg46_9_cif.got.tgz:17142.got - 2010.06.03 19:58:25.
