data_PCOD9377858
_publ_section_title
;
Structure prediction by ZEFSAII (Michael W. Deem and Ramdas Pophale) SiO2 
 PCOD9377858
Probable space group: I M A 2
;
_chemical_formula_sum "Si O2"
_cell_formula_units_Z 64
_cell_length_a 17.704892
_cell_length_b 7.705467
_cell_length_c 17.955940
_cell_angle_alpha 90.000000
_cell_angle_beta 90.000000
_cell_angle_gamma 90.000000
_cell_volume 2449.629437
_symmetry_space_group_name_H-M "I M A 2"
_symmetry_group_IT_number 46
_symmetry_cell_setting 'orthorhombic'
loop_
_space_group_symop_operation_xyz
x,y,z
-x,-y,z
1/2-x,y,z
1/2+x,-y,z
1/2+x,1/2+y,1/2+z
1/2-x,1/2-y,1/2+z
-x,1/2+y,1/2+z
x,1/2-y,1/2+z
loop_
_atom_site_type_symbol
_atom_site_label
_atom_site_fract_x
_atom_site_fract_y
_atom_site_fract_z
Si Si1 0.591356 0.098742 0.379480
Si Si2 0.025937 0.170106 0.939462
Si Si3 0.167254 0.974183 0.915442
Si Si4 0.160441 0.017233 0.527148
Si Si5 0.331418 0.483788 0.245219
Si Si6 0.420096 0.674474 0.589157
Si Si7 0.554042 0.837530 0.640928
Si Si8 0.162170 0.598202 0.723550
O O1 0.505851 0.169716 0.392085
O O2 0.639205 0.277485 0.400190
O O3 0.621713 0.978394 0.446145
O O4 0.615438 0.042032 0.296899
O O5 0.110255 0.103954 0.956192
O O6 0.000000 0.000000 0.892486
O O7 0.973725 0.168018 0.014518
O O8 0.250000 0.967958 0.950830
O O9 0.172699 0.046541 0.832389
O O10 0.250000 0.032309 0.522692
O O11 0.135790 0.832619 0.565331
O O12 0.118194 0.157034 0.578463
O O13 0.250000 0.434048 0.211365
O O14 0.401453 0.379787 0.214566
O O15 0.341373 0.689184 0.228455
O O16 0.489765 0.697078 0.646700
O O17 0.367706 0.551276 0.640602
O O18 0.500000 0.000000 0.618830
O O19 0.250000 0.548575 0.732495
#
# Coordination Sequence:
#
# PCOD9377858 Si02
#       8
#     8   8   8   8   8   8   8   8
#     4   9  18  29  49  76 100 124 158 199 251 302
#     4   9  19  34  50  69  97 128 165 203 248 288
#     4   9  17  29  47  70  97 126 160 203 246 292
#     4  10  17  29  45  67 100 130 157 195 243 296
#     4   9  16  26  43  69  97 121 151 193 247 295
#     4  10  20  30  45  69  97 129 165 200 240 293
#     4  10  18  26  42  66  97 129 156 186 237 294
#     4  10  17  28  47  75 103 125 155 201 250 296
#
# _framework density 26.126401000000001
#
# number of rings (size 3 to 8) (size 9 to 14) (size 15 to 20)
#    0.000    2.500    2.500    2.625    1.750    0.500 
#    0.000    1.875    0.000    3.750    0.000    0.000 
#    0.000    0.000    0.000    0.000    0.000    0.000 
#
# Total GULP energy -178444.396255 kJ/mol
# GULP energy per Si atom -5576.387383 kJ/mol
# Density = 2.606694 g / cm^3
# Si number density = 26.126401 Si / 1000 Ang^3
#
#
#
# Elastic Constant Matrix: (Units=GPa)
#
#
# Indices 1 2 3 4 5 6 
#
# 1 166.9798 -9.4380 24.5150 0.0000 0.0000 0.0000
# 2 -9.4380 48.6167 -18.2680 0.0000 0.0000 0.0000
# 3 24.5150 -18.2680 107.3133 0.0000 0.0000 0.0000
# 4 0.0000 0.0000 0.0000 19.1773 0.0000 0.0000
# 5 0.0000 0.0000 0.0000 0.0000 43.5528 0.0000
# 6 0.0000 0.0000 0.0000 0.0000 0.0000 13.4020
#
#
#
# Elastic Compliance Matrix: (Units=1/GPa)
#
#
# Indices 1 2 3 4 5 6 
#
# 1 0.006220 0.000720 -0.001298 0.000000 0.000000 0.000000
# 2 0.000720 0.022058 0.003591 0.000000 0.000000 0.000000
# 3 -0.001298 0.003591 0.010226 0.000000 0.000000 0.000000
# 4 0.000000 0.000000 0.000000 0.052145 0.000000 0.000000
# 5 0.000000 0.000000 0.000000 0.000000 0.022961 0.000000
# 6 0.000000 0.000000 0.000000 0.000000 0.000000 0.074616
#
#
# Mechanical properties :
#
#
# Convention : Reuss Voigt Hill
#
# Bulk Modulus (GPa) = 22.45788 35.16974 28.81381
# Shear Modulus (GPa) = 25.37495 36.96648 31.17071
#
# Velocity S-wave (km/s) = 3.11985 3.76561 3.45784
# Velocity P-wave (km/s) = 4.64677 5.69184 5.19565
#
# Compressibility (1/GPa) = 0.04452781
#
# Stress axis : x y z
#
# Youngs Moduli (GPa) = 160.77048 45.33516 97.78660
#
# Poissons Ratio (x) = -0.03262 0.12697
# Poissons Ratio (y) = -0.11569 -0.35111
# Poissons Ratio (z) = 0.20875 -0.16278
#
# Static dielectric constant tensor:
#      x y z
#    x 2.122740 0.000000 0.000000 
#    y 0.000000 2.270180 0.000000 
#    z 0.000000 0.000000 2.100830 
# 
# From -- ./inp_files/20053.got.cif
#   From: 2010.05.17/outbox.cif.g08.bks.cpg/sg46_11_cif.got.tgz:20053.got - 2010.06.03 19:58:25.
