data_PCOD9377366
_publ_section_title
;
Structure prediction by ZEFSAII (Michael W. Deem and Ramdas Pophale) SiO2 
 PCOD9377366
Probable space group: I B A 2
;
_chemical_formula_sum "Si O2"
_cell_formula_units_Z 60
_cell_length_a 13.333370
_cell_length_b 11.537573
_cell_length_c 18.764861
_cell_angle_alpha 90.000000
_cell_angle_beta 90.000000
_cell_angle_gamma 90.000000
_cell_volume 2886.687320
_symmetry_space_group_name_H-M "I B A 2"
_symmetry_group_IT_number 45
_symmetry_cell_setting 'orthorhombic'
loop_
_space_group_symop_operation_xyz
x,y,z
-x,-y,z
-x,y,1/2+z
x,-y,1/2+z
1/2+x,1/2+y,1/2+z
1/2-x,1/2-y,1/2+z
1/2-x,1/2+y,z
1/2+x,1/2-y,z
loop_
_atom_site_type_symbol
_atom_site_label
_atom_site_fract_x
_atom_site_fract_y
_atom_site_fract_z
Si Si1 0.946525 0.296957 0.192890
Si Si2 0.774557 0.375582 0.091021
Si Si3 0.581329 0.918949 0.588689
Si Si4 0.317380 0.222117 0.332830
Si Si5 0.500000 0.500000 0.439893
Si Si6 0.823763 0.994628 0.824161
Si Si7 0.878097 0.791816 0.987081
Si Si8 0.579912 0.422015 0.180643
O O1 0.860829 0.298965 0.130062
O O2 0.889684 0.310432 0.267066
O O3 0.029671 0.386675 0.163616
O O4 0.012599 0.184417 0.203341
O O5 0.819641 0.504839 0.093365
O O6 0.675681 0.378152 0.138777
O O7 0.730421 0.341810 0.013665
O O8 0.596186 0.804345 0.544691
O O9 0.500000 0.000000 0.549977
O O10 0.282268 0.359808 0.323478
O O11 0.369041 0.233038 0.409917
O O12 0.244232 0.110247 0.332827
O O13 0.404361 0.508824 0.387526
O O14 0.465462 0.388178 0.484525
O O15 0.879171 0.009558 0.748764
O O16 0.500000 0.500000 0.138366
#
# Coordination Sequence:
#
# PCOD9377366 Si02
#       8
#     8   8   8   8   4   8   8   8
#     4  11  23  46  69 101 144 187 247 303 372 434
#     4  11  26  43  69 106 147 190 241 308 368 456
#     4  10  25  47  68 104 150 189 241 309 368 446
#     4  11  25  46  73 107 145 199 243 310 378 448
#     4  10  24  46  68 110 140 194 248 298 364 462
#     4  11  23  45  71 105 145 184 256 304 366 445
#     4  11  25  46  72 105 147 191 244 299 380 447
#     4  12  22  39  72 100 134 187 239 298 354 442
#
# _framework density 20.785070999999999
#
# number of rings (size 3 to 8) (size 9 to 14) (size 15 to 20)
#    0.000    1.067    4.667    0.800    6.533    3.200 
#    2.400    2.000    0.000    0.000    0.000    0.000 
#    0.000    0.000    0.000    0.000    0.000    0.000 
#
# Total GULP energy -167082.698740 kJ/mol
# GULP energy per Si atom -5569.423291 kJ/mol
# Density = 2.073776 g / cm^3
# Si number density = 20.785071 Si / 1000 Ang^3
#
#
#
# Elastic Constant Matrix: (Units=GPa)
#
#
# Indices 1 2 3 4 5 6 
#
# 1 74.5500 53.0159 24.7264 0.0000 0.0000 0.0000
# 2 53.0159 150.5455 45.2799 0.0000 0.0000 0.0000
# 3 24.7264 45.2799 88.0769 0.0000 0.0000 0.0000
# 4 0.0000 0.0000 0.0000 23.9832 0.0000 0.0000
# 5 0.0000 0.0000 0.0000 0.0000 21.4148 0.0000
# 6 0.0000 0.0000 0.0000 0.0000 0.0000 52.1660
#
#
#
# Elastic Compliance Matrix: (Units=1/GPa)
#
#
# Indices 1 2 3 4 5 6 
#
# 1 0.018233 -0.005774 -0.002150 0.000000 0.000000 0.000000
# 2 -0.005774 0.009686 -0.003359 0.000000 0.000000 0.000000
# 3 -0.002150 -0.003359 0.013684 0.000000 0.000000 0.000000
# 4 0.000000 0.000000 0.000000 0.041696 0.000000 0.000000
# 5 0.000000 0.000000 0.000000 0.000000 0.046697 0.000000
# 6 0.000000 0.000000 0.000000 0.000000 0.000000 0.019170
#
#
# Mechanical properties :
#
#
# Convention : Reuss Voigt Hill
#
# Bulk Modulus (GPa) = 52.52838 62.13520 57.33179
# Shear Modulus (GPa) = 28.07769 32.18949 30.13359
#
# Velocity S-wave (km/s) = 3.67939 3.93960 3.81172
# Velocity P-wave (km/s) = 6.58617 7.11709 6.85677
#
# Compressibility (1/GPa) = 0.01903733
#
# Stress axis : x y z
#
# Youngs Moduli (GPa) = 54.84449 103.24034 73.07828
#
# Poissons Ratio (x) = 0.59614 0.15713
# Poissons Ratio (y) = 0.31669 0.24544
# Poissons Ratio (z) = 0.11793 0.34674
#
# Static dielectric constant tensor:
#      x y z
#    x 1.759480 0.000000 0.000000 
#    y 0.000000 1.808370 0.000000 
#    z 0.000000 0.000000 1.770540 
# 
# From -- ./inp_files/9095.got.cif
#   From: 2010.05.17/outbox.cif.g08.bks.cpg/sg45_5_cif.got.tgz:9095.got - 2010.06.03 19:51:22.
