data_PCOD9377720
_publ_section_title
;
Structure prediction by ZEFSAII (Michael W. Deem and Ramdas Pophale) SiO2 
 PCOD9377720
Probable space group: I B A 2
;
_chemical_formula_sum "Si O2"
_cell_formula_units_Z 48
_cell_length_a 7.794643
_cell_length_b 18.217100
_cell_length_c 13.697360
_cell_angle_alpha 90.000000
_cell_angle_beta 90.000000
_cell_angle_gamma 90.000000
_cell_volume 1944.967468
_symmetry_space_group_name_H-M "I B A 2"
_symmetry_group_IT_number 45
_symmetry_cell_setting 'orthorhombic'
loop_
_space_group_symop_operation_xyz
x,y,z
-x,-y,z
-x,y,1/2+z
x,-y,1/2+z
1/2+x,1/2+y,1/2+z
1/2-x,1/2-y,1/2+z
1/2-x,1/2+y,z
1/2+x,1/2-y,z
loop_
_atom_site_type_symbol
_atom_site_label
_atom_site_fract_x
_atom_site_fract_y
_atom_site_fract_z
Si Si1 0.871015 0.434203 0.271310
Si Si2 0.315410 0.136186 0.467337
Si Si3 0.737073 0.197386 0.690196
Si Si4 0.401436 0.658282 0.774641
Si Si5 0.203786 0.300471 0.468549
Si Si6 0.672201 0.532189 0.131622
O O1 0.785229 0.416425 0.374563
O O2 0.919099 0.352629 0.232445
O O3 0.772298 0.463902 0.176542
O O4 0.000000 0.500000 0.291436
O O5 0.206209 0.211459 0.462838
O O6 0.513069 0.164977 0.463304
O O7 0.274615 0.085564 0.560088
O O8 0.692815 0.281126 0.708176
O O9 0.772971 0.183830 0.577025
O O10 0.900887 0.177391 0.755081
O O11 0.322414 0.668073 0.882047
O O12 0.372463 0.579132 0.728234
O O13 0.500000 0.500000 0.084320
#
# Coordination Sequence:
#
# PCOD9377720 Si02
#       6
#     8   8   8   8   8   8
#     4  12  28  49  74 115 163 216 263 334 411 489
#     4  12  28  49  82 121 159 219 271 346 412 493
#     4  12  26  47  80 114 159 209 274 347 402 490
#     4  12  26  48  78 119 157 212 274 346 408 488
#     4  12  26  47  86 120 156 209 283 349 412 483
#     4  12  28  51  75 114 166 217 268 333 413 500
#
# _framework density 24.679074
#
# number of rings (size 3 to 8) (size 9 to 14) (size 15 to 20)
#    0.000    0.000    5.000    4.000    2.333    4.000 
#    0.000    0.000    0.000    0.000    0.000    0.000 
#    0.000    0.000    0.000    0.000    0.000    0.000 
#
# Total GULP energy -134313.260845 kJ/mol
# GULP energy per Si atom -5596.385869 kJ/mol
# Density = 2.462290 g / cm^3
# Si number density = 24.679074 Si / 1000 Ang^3
#
#
#
# Elastic Constant Matrix: (Units=GPa)
#
#
# Indices 1 2 3 4 5 6 
#
# 1 113.3440 44.7504 54.9172 0.0000 0.0000 0.0000
# 2 44.7504 115.7669 44.1024 0.0000 0.0000 0.0000
# 3 54.9172 44.1024 182.9602 0.0000 0.0000 0.0000
# 4 0.0000 0.0000 0.0000 49.6410 0.0000 0.0000
# 5 0.0000 0.0000 0.0000 0.0000 26.4582 0.0000
# 6 0.0000 0.0000 0.0000 0.0000 0.0000 54.7775
#
#
#
# Elastic Compliance Matrix: (Units=1/GPa)
#
#
# Indices 1 2 3 4 5 6 
#
# 1 0.011440 -0.003429 -0.002607 0.000000 0.000000 0.000000
# 2 -0.003429 0.010539 -0.001511 0.000000 0.000000 0.000000
# 3 -0.002607 -0.001511 0.006613 0.000000 0.000000 0.000000
# 4 0.000000 0.000000 0.000000 0.020145 0.000000 0.000000
# 5 0.000000 0.000000 0.000000 0.000000 0.037795 0.000000
# 6 0.000000 0.000000 0.000000 0.000000 0.000000 0.018256
#
#
# Mechanical properties :
#
#
# Convention : Reuss Voigt Hill
#
# Bulk Modulus (GPa) = 74.09161 77.73458 75.91309
# Shear Modulus (GPa) = 40.19911 44.06207 42.13059
#
# Velocity S-wave (km/s) = 4.04031 4.22999 4.13624
# Velocity P-wave (km/s) = 7.20088 7.44470 7.32381
#
# Compressibility (1/GPa) = 0.01349681
#
# Stress axis : x y z
#
# Youngs Moduli (GPa) = 87.41470 94.88362 151.22776
#
# Poissons Ratio (x) = 0.32534 0.39428
# Poissons Ratio (y) = 0.29973 0.22855
# Poissons Ratio (z) = 0.22791 0.14339
#
# Static dielectric constant tensor:
#      x y z
#    x 2.043040 0.000000 0.000000 
#    y 0.000000 1.945010 0.000000 
#    z 0.000000 0.000000 1.941390 
# 
# From -- ./inp_files/5620.got.cif
#   From: 2010.05.17/outbox.cif.g08.bks.cpg/sg45_3_cif.got.tgz:5620.got - 2010.06.03 19:51:22.
