data_PCOD9377146
_publ_section_title
;
Structure prediction by ZEFSAII (Michael W. Deem and Ramdas Pophale) SiO2 
 PCOD9377146
Probable space group: I B A 2
;
_chemical_formula_sum "Si O2"
_cell_formula_units_Z 60
_cell_length_a 19.444238
_cell_length_b 11.359170
_cell_length_c 11.611598
_cell_angle_alpha 90.000000
_cell_angle_beta 90.000000
_cell_angle_gamma 90.000000
_cell_volume 2564.658353
_symmetry_space_group_name_H-M "I B A 2"
_symmetry_group_IT_number 45
_symmetry_cell_setting 'orthorhombic'
loop_
_space_group_symop_operation_xyz
x,y,z
-x,-y,z
-x,y,1/2+z
x,-y,1/2+z
1/2+x,1/2+y,1/2+z
1/2-x,1/2-y,1/2+z
1/2-x,1/2+y,z
1/2+x,1/2-y,z
loop_
_atom_site_type_symbol
_atom_site_label
_atom_site_fract_x
_atom_site_fract_y
_atom_site_fract_z
Si Si1 0.666489 0.824646 0.477450
Si Si2 0.932526 0.798980 0.823941
Si Si3 0.423225 0.775753 0.370139
Si Si4 0.275336 0.412715 0.149116
Si Si5 0.125750 0.693581 0.124244
Si Si6 0.000000 0.000000 0.194693
Si Si7 0.375645 0.363218 0.659974
Si Si8 0.650074 0.015614 0.281917
O O1 0.638593 0.721922 0.390207
O O2 0.736537 0.878736 0.529834
O O3 0.639855 0.757253 0.592270
O O4 0.644756 0.933067 0.394451
O O5 0.938216 0.721346 0.706924
O O6 0.997975 0.754974 0.895726
O O7 0.949450 0.927241 0.777591
O O8 0.386178 0.797401 0.490410
O O9 0.388533 0.673908 0.292874
O O10 0.411415 0.893343 0.296209
O O11 0.324466 0.300053 0.160243
O O12 0.317403 0.536256 0.144145
O O13 0.222548 0.419388 0.257523
O O14 0.148928 0.566958 0.168672
O O15 0.948577 0.919586 0.121740
#
# Coordination Sequence:
#
# PCOD9377146 Si02
#       8
#     8   8   8   8   8   4   8   8
#     4  11  26  44  73 108 149 196 251 312 381 460
#     4  10  25  47  74 110 150 192 255 319 382 468
#     4  11  26  46  76 109 149 201 253 318 385 462
#     4  12  25  46  74 107 153 198 248 314 379 463
#     4  11  26  47  71 110 145 200 251 310 391 454
#     4  10  22  48  76 108 152 192 254 330 392 456
#     4  11  25  46  75 114 145 203 251 324 386 461
#     4  11  26  48  71 107 151 197 251 307 376 466
#
# _framework density 23.394928
#
# number of rings (size 3 to 8) (size 9 to 14) (size 15 to 20)
#    0.000    1.067    2.667    1.600    5.600    8.000 
#    0.000    2.667    0.000    0.000    0.000    0.000 
#    0.000    0.000    0.000    0.000    0.000    0.000 
#
# Total GULP energy -167016.426427 kJ/mol
# GULP energy per Si atom -5567.214214 kJ/mol
# Density = 2.334168 g / cm^3
# Si number density = 23.394928 Si / 1000 Ang^3
#
#
#
# Elastic Constant Matrix: (Units=GPa)
#
#
# Indices 1 2 3 4 5 6 
#
# 1 60.9734 45.0194 38.4842 0.0000 0.0000 0.0000
# 2 45.0194 84.9853 35.5191 0.0000 0.0000 0.0000
# 3 38.4842 35.5191 110.3566 0.0000 0.0000 0.0000
# 4 0.0000 0.0000 0.0000 33.6062 0.0000 0.0000
# 5 0.0000 0.0000 0.0000 0.0000 25.4475 0.0000
# 6 0.0000 0.0000 0.0000 0.0000 0.0000 27.0190
#
#
#
# Elastic Compliance Matrix: (Units=1/GPa)
#
#
# Indices 1 2 3 4 5 6 
#
# 1 0.030234 -0.013414 -0.006226 0.000000 0.000000 0.000000
# 2 -0.013414 0.019547 -0.001614 0.000000 0.000000 0.000000
# 3 -0.006226 -0.001614 0.011752 0.000000 0.000000 0.000000
# 4 0.000000 0.000000 0.000000 0.029756 0.000000 0.000000
# 5 0.000000 0.000000 0.000000 0.000000 0.039297 0.000000
# 6 0.000000 0.000000 0.000000 0.000000 0.000000 0.037011
#
#
# Mechanical properties :
#
#
# Convention : Reuss Voigt Hill
#
# Bulk Modulus (GPa) = 52.55921 54.92898 53.74410
# Shear Modulus (GPa) = 23.10037 26.36739 24.73388
#
# Velocity S-wave (km/s) = 3.14572 3.36081 3.25504
# Velocity P-wave (km/s) = 5.97569 6.21209 6.09503
#
# Compressibility (1/GPa) = 0.01902616
#
# Stress axis : x y z
#
# Youngs Moduli (GPa) = 33.07484 51.15901 85.09134
#
# Poissons Ratio (x) = 0.68624 0.52979
# Poissons Ratio (y) = 0.44366 0.13730
# Poissons Ratio (z) = 0.20593 0.08255
#
# Static dielectric constant tensor:
#      x y z
#    x 1.974710 0.000000 0.000000 
#    y 0.000000 1.945110 0.000000 
#    z 0.000000 0.000000 1.968440 
# 
# From -- ./inp_files/4670.got.cif
#   From: 2010.05.17/outbox.cif.g08.bks.cpg/sg45_3_cif.got.tgz:4670.got - 2010.06.03 19:51:22.
