data_PCOD9377881
_publ_section_title
;
Structure prediction by ZEFSAII (Michael W. Deem and Ramdas Pophale) SiO2 
 PCOD9377881
Probable space group: I M A 2
;
_chemical_formula_sum "Si O2"
_cell_formula_units_Z 56
_cell_length_a 24.434989
_cell_length_b 20.976713
_cell_length_c 5.034322
_cell_angle_alpha 90.000000
_cell_angle_beta 90.000000
_cell_angle_gamma 90.000000
_cell_volume 2580.421039
_symmetry_space_group_name_H-M "I M A 2"
_symmetry_group_IT_number 46
_symmetry_cell_setting 'orthorhombic'
loop_
_space_group_symop_operation_xyz
x,y,z
-x,-y,z
1/2-x,y,z
1/2+x,-y,z
1/2+x,1/2+y,1/2+z
1/2-x,1/2-y,1/2+z
-x,1/2+y,1/2+z
x,1/2-y,1/2+z
loop_
_atom_site_type_symbol
_atom_site_label
_atom_site_fract_x
_atom_site_fract_y
_atom_site_fract_z
Si Si1 0.517667 0.569978 0.173170
Si Si2 0.750000 0.051679 0.350846
Si Si3 0.023665 0.873232 0.171274
Si Si4 0.078032 0.209745 0.184019
Si Si5 0.868009 0.061201 0.264837
Si Si6 0.632007 0.533727 0.265137
Si Si7 0.809086 0.796330 0.315854
Si Si8 0.250000 0.036303 0.851137
O O1 0.500000 0.500000 0.260738
O O2 0.482009 0.615972 0.357044
O O3 0.580424 0.579826 0.252246
O O4 0.506290 0.575061 0.861894
O O5 0.806318 0.086891 0.289141
O O6 0.750000 0.025054 0.650857
O O7 0.750000 0.990438 0.150752
O O8 0.982927 0.815619 0.235141
O O9 0.086356 0.884087 0.250909
O O10 0.082821 0.269852 0.380334
O O11 0.132638 0.169134 0.263604
O O12 0.874147 0.012398 0.510356
O O13 0.872405 0.015202 0.010218
O O14 0.691431 0.567159 0.284803
O O15 0.750000 0.830742 0.284536
O O16 0.809101 0.739148 0.098299
#
# Coordination Sequence:
#
# PCOD9377881 Si02
#       8
#     8   4   8   8   8   8   8   4
#     4  12  21  33  50  76 106 137 166 201 243 298
#     4   8  16  26  44  66  94 121 166 209 226 268
#     4  12  22  33  53  77 101 134 168 202 252 305
#     4  10  21  37  54  75 100 126 163 211 255 293
#     4  10  17  30  46  73  96 128 167 203 238 282
#     4  10  18  30  48  66 100 132 167 202 238 281
#     4   8  14  27  50  73  90 117 157 203 249 289
#     4   8  16  28  44  64  86 135 170 195 238 274
#
# _framework density 21.701882999999999
#
# number of rings (size 3 to 8) (size 9 to 14) (size 15 to 20)
#    0.000    2.000    2.857    2.143    0.000    0.000 
#    0.000    0.000    3.143    0.000    0.000    1.000 
#    0.000    0.000    0.000    0.000    0.000    0.000 
#
# Total GULP energy -156113.854876 kJ/mol
# GULP energy per Si atom -5575.494817 kJ/mol
# Density = 2.165249 g / cm^3
# Si number density = 21.701883 Si / 1000 Ang^3
#
#
#
# Elastic Constant Matrix: (Units=GPa)
#
#
# Indices 1 2 3 4 5 6 
#
# 1 161.7861 21.8349 2.8289 0.0000 0.0000 0.0000
# 2 21.8349 19.8070 6.6343 0.0000 0.0000 0.0000
# 3 2.8289 6.6343 115.1218 0.0000 0.0000 0.0000
# 4 0.0000 0.0000 0.0000 11.3596 0.0000 0.0000
# 5 0.0000 0.0000 0.0000 0.0000 23.6125 0.0000
# 6 0.0000 0.0000 0.0000 0.0000 0.0000 22.9807
#
#
#
# Elastic Compliance Matrix: (Units=1/GPa)
#
#
# Indices 1 2 3 4 5 6 
#
# 1 0.007271 -0.008112 0.000289 0.000000 0.000000 0.000000
# 2 -0.008112 0.060531 -0.003289 0.000000 0.000000 0.000000
# 3 0.000289 -0.003289 0.008869 0.000000 0.000000 0.000000
# 4 0.000000 0.000000 0.000000 0.088031 0.000000 0.000000
# 5 0.000000 0.000000 0.000000 0.000000 0.042350 0.000000
# 6 0.000000 0.000000 0.000000 0.000000 0.000000 0.043515
#
#
# Mechanical properties :
#
#
# Convention : Reuss Voigt Hill
#
# Bulk Modulus (GPa) = 18.36654 39.92347 29.14500
# Shear Modulus (GPa) = 17.18565 29.28502 23.23533
#
# Velocity S-wave (km/s) = 2.81712 3.67743 3.27564
# Velocity P-wave (km/s) = 4.36612 6.03884 5.26928
#
# Compressibility (1/GPa) = 0.05444682
#
# Stress axis : x y z
#
# Youngs Moduli (GPa) = 137.53739 16.52034 112.75358
#
# Poissons Ratio (x) = 0.13401 -0.03257
# Poissons Ratio (y) = 1.11569 0.37085
# Poissons Ratio (z) = -0.03972 0.05434
#
# Static dielectric constant tensor:
#      x y z
#    x 1.945760 0.000000 0.000000 
#    y 0.000000 1.804370 0.000000 
#    z 0.000000 0.000000 1.786360 
# 
# From -- ./inp_files/2388.got.cif
#   From: 2010.05.17/outbox.cif.g08.bks.cpg/sg46_2_cif.got.tgz:2388.got - 2010.06.03 19:58:25.
