data_PCOD9377401
_publ_section_title
;
Structure prediction by ZEFSAII (Michael W. Deem and Ramdas Pophale) SiO2 
 PCOD9377401
Probable space group: I B A 2
;
_chemical_formula_sum "Si O2"
_cell_formula_units_Z 56
_cell_length_a 27.329511
_cell_length_b 5.652675
_cell_length_c 14.580338
_cell_angle_alpha 90.000000
_cell_angle_beta 90.000000
_cell_angle_gamma 90.000000
_cell_volume 2252.441235
_symmetry_space_group_name_H-M "I B A 2"
_symmetry_group_IT_number 45
_symmetry_cell_setting 'orthorhombic'
loop_
_space_group_symop_operation_xyz
x,y,z
-x,-y,z
-x,y,1/2+z
x,-y,1/2+z
1/2+x,1/2+y,1/2+z
1/2-x,1/2-y,1/2+z
1/2-x,1/2+y,z
1/2+x,1/2-y,z
loop_
_atom_site_type_symbol
_atom_site_label
_atom_site_fract_x
_atom_site_fract_y
_atom_site_fract_z
Si Si1 0.739756 0.001219 0.480330
Si Si2 0.181471 0.967804 0.142187
Si Si3 0.958417 0.300156 0.905001
Si Si4 0.140779 0.570749 0.434552
Si Si5 0.449422 0.857740 0.199020
Si Si6 0.838406 0.515965 0.230253
Si Si7 0.585751 0.455213 0.033250
O O1 0.749971 0.250398 0.431855
O O2 0.776374 0.996686 0.566463
O O3 0.682610 0.989308 0.507524
O O4 0.177283 0.219340 0.197207
O O5 0.128452 0.930782 0.094321
O O6 0.188526 0.720561 0.194846
O O7 0.907356 0.418391 0.933005
O O8 0.955650 0.225132 0.797787
O O9 0.000000 0.500000 0.913340
O O10 0.955023 0.093956 0.977978
O O11 0.165958 0.513183 0.339179
O O12 0.119258 0.826755 0.455792
O O13 0.440944 0.711114 0.107050
O O14 0.500000 0.000000 0.189094
O O15 0.397701 0.996468 0.211131
#
# Coordination Sequence:
#
# PCOD9377401 Si02
#       7
#     8   8   8   8   8   8   8
#     4  12  25  45  75 106 149 203 253 327 400 474
#     4  11  24  48  74 107 154 202 264 329 408 472
#     4  10  24  49  78 113 163 206 274 329 406 483
#     4  11  26  46  77 112 155 207 267 336 406 482
#     4   9  22  48  75 111 157 210 261 328 404 479
#     4  10  25  47  78 109 154 207 263 331 405 481
#     4  11  24  43  80 110 151 214 268 338 403 483
#
# _framework density 24.861913000000001
#
# number of rings (size 3 to 8) (size 9 to 14) (size 15 to 20)
#    0.000    1.429    1.429    1.714   12.000    1.143 
#    2.571    6.429    6.286    0.857    0.000    0.000 
#    0.000    0.000    0.000    0.000    0.000    0.000 
#
# Total GULP energy -156380.129210 kJ/mol
# GULP energy per Si atom -5585.004615 kJ/mol
# Density = 2.480533 g / cm^3
# Si number density = 24.861913 Si / 1000 Ang^3
#
#
#
# Elastic Constant Matrix: (Units=GPa)
#
#
# Indices 1 2 3 4 5 6 
#
# 1 140.0493 44.1453 43.0688 0.0000 0.0000 0.0000
# 2 44.1453 153.5057 67.3037 0.0000 0.0000 0.0000
# 3 43.0688 67.3037 128.2290 0.0000 0.0000 0.0000
# 4 0.0000 0.0000 0.0000 31.9259 0.0000 0.0000
# 5 0.0000 0.0000 0.0000 0.0000 38.3839 0.0000
# 6 0.0000 0.0000 0.0000 0.0000 0.0000 21.0721
#
#
#
# Elastic Compliance Matrix: (Units=1/GPa)
#
#
# Indices 1 2 3 4 5 6 
#
# 1 0.008220 -0.001498 -0.001974 0.000000 0.000000 0.000000
# 2 -0.001498 0.008735 -0.004081 0.000000 0.000000 0.000000
# 3 -0.001974 -0.004081 0.010604 0.000000 0.000000 0.000000
# 4 0.000000 0.000000 0.000000 0.031323 0.000000 0.000000
# 5 0.000000 0.000000 0.000000 0.000000 0.026053 0.000000
# 6 0.000000 0.000000 0.000000 0.000000 0.000000 0.047456
#
#
# Mechanical properties :
#
#
# Convention : Reuss Voigt Hill
#
# Bulk Modulus (GPa) = 80.31897 81.20220 80.76059
# Shear Modulus (GPa) = 32.97113 36.09414 34.53263
#
# Velocity S-wave (km/s) = 3.64561 3.81436 3.73094
# Velocity P-wave (km/s) = 7.07791 7.22020 7.14941
#
# Compressibility (1/GPa) = 0.01245036
#
# Stress axis : x y z
#
# Youngs Moduli (GPa) = 121.65774 114.48550 94.30455
#
# Poissons Ratio (x) = 0.17152 0.18620
# Poissons Ratio (y) = 0.18226 0.38490
# Poissons Ratio (z) = 0.24021 0.46726
#
# Static dielectric constant tensor:
#      x y z
#    x 1.955620 0.000000 0.000000 
#    y 0.000000 1.749110 0.000000 
#    z 0.000000 0.000000 1.968120 
# 
# From -- ./inp_files/7173.got.cif
#   From: 2010.05.17/outbox.cif.g08.bks.cpg/sg45_4_cif.got.tgz:7173.got - 2010.06.03 19:51:22.
