data_PCOD9377344
_publ_section_title
;
Structure prediction by ZEFSAII (Michael W. Deem and Ramdas Pophale) SiO2 
 PCOD9377344
Probable space group: I B A 2
;
_chemical_formula_sum "Si O2"
_cell_formula_units_Z 40
_cell_length_a 20.190389
_cell_length_b 8.524648
_cell_length_c 9.490084
_cell_angle_alpha 90.000000
_cell_angle_beta 90.000000
_cell_angle_gamma 90.000000
_cell_volume 1633.394911
_symmetry_space_group_name_H-M "I B A 2"
_symmetry_group_IT_number 45
_symmetry_cell_setting 'orthorhombic'
loop_
_space_group_symop_operation_xyz
x,y,z
-x,-y,z
-x,y,1/2+z
x,-y,1/2+z
1/2+x,1/2+y,1/2+z
1/2-x,1/2-y,1/2+z
1/2-x,1/2+y,z
1/2+x,1/2-y,z
loop_
_atom_site_type_symbol
_atom_site_label
_atom_site_fract_x
_atom_site_fract_y
_atom_site_fract_z
Si Si1 0.845113 0.568084 0.527850
Si Si2 0.750000 0.192863 0.143848
Si Si3 0.930574 0.910682 0.986410
Si Si4 0.845113 0.068085 0.759847
Si Si5 0.069426 0.410682 0.801287
O O1 0.788014 0.696215 0.535491
O O2 0.805626 0.411897 0.571581
O O3 0.899031 0.613583 0.647267
O O4 0.881678 0.528451 0.384252
O O5 0.711986 0.303782 0.252208
O O6 0.805625 0.088100 0.216114
O O7 0.936040 0.750000 0.893848
O O8 0.881677 0.028450 0.903445
O O9 0.899031 0.886417 0.140430
O O10 0.000000 0.000000 0.999042
O O11 0.000000 0.500000 0.788655
#
# Coordination Sequence:
#
# PCOD9377344 Si02
#       5
#     8   8   8   8   8
#     4  11  25  46  72 104 139 179 232 282 350 407
#     4  10  24  44  74 104 136 184 224 286 344 420
#     4  12  28  47  71 102 140 185 234 286 341 408
#     4  11  25  46  72 104 139 179 232 282 350 407
#     4  12  28  47  71 102 140 185 234 286 341 408
#
# _framework density 24.488873000000002
#
# number of rings (size 3 to 8) (size 9 to 14) (size 15 to 20)
#    0.000    0.800    4.000    1.200    5.600   12.800 
#    0.000    0.000    0.000    0.000    0.000    0.000 
#    0.000    0.000    0.000    0.000    0.000    0.000 
#
# Total GULP energy -112190.043230 kJ/mol
# GULP energy per Si atom -5609.502161 kJ/mol
# Density = 2.443313 g / cm^3
# Si number density = 24.488873 Si / 1000 Ang^3
#
#
#
# Elastic Constant Matrix: (Units=GPa)
#
#
# Indices 1 2 3 4 5 6 
#
# 1 100.0671 42.4485 10.3648 0.0000 0.0000 0.0000
# 2 42.4485 113.7981 11.2897 0.0000 0.0000 0.0000
# 3 10.3648 11.2897 94.2412 0.0000 0.0000 0.0000
# 4 0.0000 0.0000 0.0000 8.4079 0.0000 0.0000
# 5 0.0000 0.0000 0.0000 0.0000 -4.8019 0.0000
# 6 0.0000 0.0000 0.0000 0.0000 0.0000 58.3552
#
#
#
# Elastic Compliance Matrix: (Units=1/GPa)
#
#
# Indices 1 2 3 4 5 6 
#
# 1 0.011929 -0.004372 -0.000788 0.000000 0.000000 0.000000
# 2 -0.004372 0.010495 -0.000776 0.000000 0.000000 0.000000
# 3 -0.000788 -0.000776 0.010791 0.000000 0.000000 0.000000
# 4 0.000000 0.000000 0.000000 0.118936 0.000000 0.000000
# 5 0.000000 0.000000 0.000000 0.000000 -0.208250 0.000000
# 6 0.000000 0.000000 0.000000 0.000000 0.000000 0.017136
#
#
# Mechanical properties :
#
#
# Convention : Reuss Voigt Hill
#
# Bulk Modulus (GPa) = 46.85480 48.47915 47.66698
# Shear Modulus (GPa) = -250.31066 28.65913 -110.82577
#
# Velocity S-wave (km/s) = -10.12106 3.42466 -6.73452
# Velocity P-wave (km/s) = 10.83543 5.95627 6.40037
#
# Compressibility (1/GPa) = 0.02134253
#
# Stress axis : x y z
#
# Youngs Moduli (GPa) = 83.82655 95.28148 92.67161
#
# Poissons Ratio (x) = 0.41654 0.07305
# Poissons Ratio (y) = 0.36646 0.07196
# Poissons Ratio (z) = 0.06608 0.07398
#
# Static dielectric constant tensor:
#      x y z
#    x 1.906910 0.000000 0.000000 
#    y 0.000000 1.971060 0.000000 
#    z 0.000000 0.000000 1.943830 
# 
# From -- ./inp_files/1268.got.cif
#   From: 2010.05.17/outbox.cif.g08.bks.cpg/sg45_1_cif.got.tgz:1268.got - 2010.06.03 19:51:22.
