data_PCOD9377839
_publ_section_title
;
Structure prediction by ZEFSAII (Michael W. Deem and Ramdas Pophale) SiO2 
 PCOD9377839
Probable space group: I M A 2
;
_chemical_formula_sum "Si O2"
_cell_formula_units_Z 56
_cell_length_a 8.658892
_cell_length_b 22.945841
_cell_length_c 18.377423
_cell_angle_alpha 90.000000
_cell_angle_beta 90.000000
_cell_angle_gamma 90.000000
_cell_volume 3651.328563
_symmetry_space_group_name_H-M "I M A 2"
_symmetry_group_IT_number 46
_symmetry_cell_setting 'orthorhombic'
loop_
_space_group_symop_operation_xyz
x,y,z
-x,-y,z
1/2-x,y,z
1/2+x,-y,z
1/2+x,1/2+y,1/2+z
1/2-x,1/2-y,1/2+z
-x,1/2+y,1/2+z
x,1/2-y,1/2+z
loop_
_atom_site_type_symbol
_atom_site_label
_atom_site_fract_x
_atom_site_fract_y
_atom_site_fract_z
Si Si1 0.934749 0.283252 0.386750
Si Si2 0.065545 0.350493 0.685725
Si Si3 0.434353 0.307948 0.533349
Si Si4 0.062243 0.651348 0.929675
Si Si5 0.566419 0.315738 0.083420
Si Si6 0.065596 0.935303 0.304625
Si Si7 0.565934 0.717512 0.230725
O O1 0.750000 0.285934 0.392826
O O2 0.984149 0.215434 0.400136
O O3 0.011196 0.320365 0.451701
O O4 0.988284 0.299889 0.306333
O O5 0.250000 0.356240 0.695346
O O6 0.032664 0.352328 0.599209
O O7 0.022380 0.285152 0.712963
O O8 0.982634 0.398431 0.733922
O O9 0.250000 0.296537 0.534843
O O10 0.524618 0.249297 0.555888
O O11 0.250000 0.651352 0.929262
O O12 0.008390 0.601660 0.874706
O O13 0.014884 0.645562 0.014204
O O14 0.750000 0.321176 0.092395
O O15 0.486261 0.320529 0.161430
O O16 0.250000 0.938017 0.308261
O O17 0.000000 0.000000 0.303275
O O18 0.750000 0.715580 0.237342
#
# Coordination Sequence:
#
# PCOD9377839 Si02
#       7
#     8   8   8   8   8   8   8
#     4  10  17  27  43  64  87 117 152 178 212 262
#     4   9  18  31  44  60  84 115 148 182 224 265
#     4   9  17  28  41  61  87 113 143 180 221 263
#     4   8  16  29  43  59  81 111 146 184 220 255
#     4   9  16  27  42  60  82 112 148 179 214 263
#     4  11  21  33  47  64  86 114 153 193 228 262
#     4  10  18  27  41  64  91 117 145 179 220 262
#
# _framework density 15.336883
#
# number of rings (size 3 to 8) (size 9 to 14) (size 15 to 20)
#    0.000    2.571    1.429    3.857    0.000    2.857 
#    0.000    2.143    0.000    0.000    0.000    0.000 
#    0.000    1.143    0.000   10.571    0.000    4.429 
#
# Total GULP energy -155915.541109 kJ/mol
# GULP energy per Si atom -5568.412182 kJ/mol
# Density = 1.530198 g / cm^3
# Si number density = 15.336883 Si / 1000 Ang^3
#
#
#
# Elastic Constant Matrix: (Units=GPa)
#
#
# Indices 1 2 3 4 5 6 
#
# 1 33.9053 18.1554 29.8866 0.0000 0.0000 0.0000
# 2 18.1554 47.7911 39.7716 0.0000 0.0000 0.0000
# 3 29.8866 39.7716 144.9932 0.0000 0.0000 0.0000
# 4 0.0000 0.0000 0.0000 10.7104 0.0000 0.0000
# 5 0.0000 0.0000 0.0000 0.0000 27.3484 0.0000
# 6 0.0000 0.0000 0.0000 0.0000 0.0000 12.6899
#
#
#
# Elastic Compliance Matrix: (Units=1/GPa)
#
#
# Indices 1 2 3 4 5 6 
#
# 1 0.039910 -0.010775 -0.005271 0.000000 0.000000 0.000000
# 2 -0.010775 0.030023 -0.006014 0.000000 0.000000 0.000000
# 3 -0.005271 -0.006014 0.009633 0.000000 0.000000 0.000000
# 4 0.000000 0.000000 0.000000 0.093367 0.000000 0.000000
# 5 0.000000 0.000000 0.000000 0.000000 0.036565 0.000000
# 6 0.000000 0.000000 0.000000 0.000000 0.000000 0.078803
#
#
# Mechanical properties :
#
#
# Convention : Reuss Voigt Hill
#
# Bulk Modulus (GPa) = 28.21238 44.70184 36.45711
# Shear Modulus (GPa) = 14.52493 19.40814 16.96653
#
# Velocity S-wave (km/s) = 3.08077 3.56118 3.32965
# Velocity P-wave (km/s) = 5.57583 6.79112 6.21326
#
# Compressibility (1/GPa) = 0.03544544
#
# Stress axis : x y z
#
# Youngs Moduli (GPa) = 25.05658 33.30807 103.80969
#
# Poissons Ratio (x) = 0.35889 0.54716
# Poissons Ratio (y) = 0.26998 0.62434
# Poissons Ratio (z) = 0.13207 0.20032
#
# Static dielectric constant tensor:
#      x y z
#    x 1.511860 0.000000 0.000000 
#    y 0.000000 1.471670 0.000000 
#    z 0.000000 0.000000 1.561130 
# 
# From -- ./inp_files/18439.got.cif
#   From: 2010.05.17/outbox.cif.g08.bks.cpg/sg46_10_cif.got.tgz:18439.got - 2010.06.03 19:58:25.
