data_PCOD9377496
_publ_section_title
;
Structure prediction by ZEFSAII (Michael W. Deem and Ramdas Pophale) SiO2 
 PCOD9377496
Probable space group: I B A 2
;
_chemical_formula_sum "Si O2"
_cell_formula_units_Z 48
_cell_length_a 11.738645
_cell_length_b 24.821118
_cell_length_c 8.634774
_cell_angle_alpha 90.000000
_cell_angle_beta 90.000000
_cell_angle_gamma 90.000000
_cell_volume 2515.882089
_symmetry_space_group_name_H-M "I B A 2"
_symmetry_group_IT_number 45
_symmetry_cell_setting 'orthorhombic'
loop_
_space_group_symop_operation_xyz
x,y,z
-x,-y,z
-x,y,1/2+z
x,-y,1/2+z
1/2+x,1/2+y,1/2+z
1/2-x,1/2-y,1/2+z
1/2-x,1/2+y,z
1/2+x,1/2-y,z
loop_
_atom_site_type_symbol
_atom_site_label
_atom_site_fract_x
_atom_site_fract_y
_atom_site_fract_z
Si Si1 0.124586 0.935612 0.383620
Si Si2 0.834926 0.727303 0.040968
Si Si3 0.168588 0.845786 0.867412
Si Si4 0.514384 0.700411 0.133636
Si Si5 0.721102 0.684218 0.338328
Si Si6 0.131283 0.047416 0.250432
O O1 0.188360 0.878745 0.355192
O O2 0.123938 0.946824 0.566481
O O3 0.994793 0.938067 0.318965
O O4 0.173068 0.988367 0.298039
O O5 0.811785 0.699716 0.207586
O O6 0.964733 0.747101 0.050388
O O7 0.779793 0.687480 0.915461
O O8 0.763525 0.782083 0.995814
O O9 0.204386 0.906151 0.829980
O O10 0.093452 0.825612 0.721716
O O11 0.079887 0.837821 0.011418
O O12 0.607483 0.710515 0.263502
#
# Coordination Sequence:
#
# PCOD9377496 Si02
#       6
#     8   8   8   8   8   8
#     4  11  23  32  53  77 109 149 193 215 266 329
#     4  11  22  34  53  78 106 149 184 224 273 320
#     4  11  21  33  55  72 114 144 186 218 272 314
#     4  11  20  35  52  76 107 148 179 224 269 316
#     4  11  23  35  55  78 113 147 185 225 269 326
#     4  11  21  35  51  75 109 151 188 220 267 325
#
# _framework density 19.078796000000001
#
# number of rings (size 3 to 8) (size 9 to 14) (size 15 to 20)
#    0.000    1.000    5.000    4.000    7.000    0.000 
#    0.000    0.000    0.000    0.000    0.000    0.000 
#    0.000   20.000    0.000    0.000    0.000    0.000 
#
# Total GULP energy -133663.310581 kJ/mol
# GULP energy per Si atom -5569.304608 kJ/mol
# Density = 1.903537 g / cm^3
# Si number density = 19.078796 Si / 1000 Ang^3
#
#
#
# Elastic Constant Matrix: (Units=GPa)
#
#
# Indices 1 2 3 4 5 6 
#
# 1 25.5448 23.9118 12.2347 0.0001 -0.0001 0.0000
# 2 23.9118 132.2515 57.3724 -0.0001 -0.0002 0.0000
# 3 12.2347 57.3724 119.6414 0.0012 -0.0017 -0.0002
# 4 0.0001 -0.0001 0.0012 33.7029 -0.0004 -0.0001
# 5 -0.0001 -0.0002 -0.0017 -0.0004 20.8664 0.0001
# 6 0.0000 0.0000 -0.0002 -0.0001 0.0001 28.1251
#
#
#
# Elastic Compliance Matrix: (Units=1/GPa)
#
#
# Indices 1 2 3 4 5 6 
#
# 1 0.047204 -0.008132 -0.000927 0.000000 0.000000 0.000000
# 2 -0.008132 0.010949 -0.004419 0.000000 0.000000 0.000000
# 3 -0.000927 -0.004419 0.010572 0.000000 0.000001 0.000000
# 4 0.000000 0.000000 0.000000 0.029671 0.000001 0.000000
# 5 0.000000 0.000000 0.000001 0.000001 0.047924 0.000000
# 6 0.000000 0.000000 0.000000 0.000000 0.000000 0.035555
#
#
# Mechanical properties :
#
#
# Convention : Reuss Voigt Hill
#
# Bulk Modulus (GPa) = 23.94205 51.60839 37.77522
# Shear Modulus (GPa) = 22.44630 28.80011 25.62321
#
# Velocity S-wave (km/s) = 3.43374 3.88949 3.66870
# Velocity P-wave (km/s) = 5.31950 6.87602 6.14723
#
# Compressibility (1/GPa) = 0.04176751
#
# Stress axis : x y z
#
# Youngs Moduli (GPa) = 21.18485 91.33600 94.58919
#
# Poissons Ratio (x) = 0.74278 0.08772
# Poissons Ratio (y) = 0.17228 0.41795
# Poissons Ratio (z) = 0.01965 0.40358
#
# Static dielectric constant tensor:
#      x y z
#    x 1.685990 0.000000 0.000000 
#    y 0.000000 1.795050 0.000000 
#    z 0.000000 0.000000 1.768610 
# 
# From -- ./inp_files/1863.got.cif
#   From: 2010.05.17/outbox.cif.g08.bks.cpg/sg45_1_cif.got.tgz:1863.got - 2010.06.03 19:51:22.
