data_PCOD9377029
_publ_section_title
;
Structure prediction by ZEFSAII (Michael W. Deem and Ramdas Pophale) SiO2 
 PCOD9377029
Probable space group: I B A 2
;
_chemical_formula_sum "Si O2"
_cell_formula_units_Z 60
_cell_length_a 10.795529
_cell_length_b 11.306659
_cell_length_c 22.442002
_cell_angle_alpha 90.000000
_cell_angle_beta 90.000000
_cell_angle_gamma 90.000000
_cell_volume 2739.301400
_symmetry_space_group_name_H-M "I B A 2"
_symmetry_group_IT_number 45
_symmetry_cell_setting 'orthorhombic'
loop_
_space_group_symop_operation_xyz
x,y,z
-x,-y,z
-x,y,1/2+z
x,-y,1/2+z
1/2+x,1/2+y,1/2+z
1/2-x,1/2-y,1/2+z
1/2-x,1/2+y,z
1/2+x,1/2-y,z
loop_
_atom_site_type_symbol
_atom_site_label
_atom_site_fract_x
_atom_site_fract_y
_atom_site_fract_z
Si Si1 0.755156 0.094257 0.100800
Si Si2 0.906629 0.095381 0.527347
Si Si3 0.449681 0.201831 0.314680
Si Si4 0.000000 0.500000 0.566898
Si Si5 0.179945 0.546381 0.815978
Si Si6 0.607866 0.596896 0.223301
Si Si7 0.383120 0.231888 0.016250
Si Si8 0.265525 0.682429 0.913743
O O1 0.610243 0.061184 0.104547
O O2 0.821619 0.125330 0.162359
O O3 0.776262 0.202993 0.055198
O O4 0.828070 0.978005 0.075427
O O5 0.826328 0.145828 0.475159
O O6 0.999693 0.198456 0.544907
O O7 0.000000 0.000000 0.499822
O O8 0.594753 0.165549 0.318956
O O9 0.440455 0.288577 0.258584
O O10 0.365040 0.254168 0.369464
O O11 0.391137 0.073448 0.304883
O O12 0.925710 0.596754 0.527375
O O13 0.287719 0.549545 0.768193
O O14 0.233346 0.558461 0.882052
O O15 0.500000 0.500000 0.214329
O O16 0.352688 0.249193 0.945356
#
# Coordination Sequence:
#
# PCOD9377029 Si02
#       8
#     8   8   8   4   8   8   8   8
#     4  11  26  48  70 109 143 196 247 305 366 446
#     4  10  22  41  65 101 146 182 236 292 362 434
#     4  10  25  47  70 105 140 186 242 305 364 431
#     4  12  26  44  74 102 154 192 246 298 374 436
#     4  10  25  45  71 103 139 188 244 296 370 434
#     4  11  26  47  77  97 142 188 249 309 369 426
#     4  11  24  43  71 105 150 191 241 292 370 439
#     4  11  22  39  69 108 143 186 228 300 360 450
#
# _framework density 21.903393999999999
#
# number of rings (size 3 to 8) (size 9 to 14) (size 15 to 20)
#    0.000    1.333    1.333    2.800    7.467    7.467 
#    0.000    0.000    0.000    0.000    0.000    0.000 
#    0.000    0.000    0.000    0.000    0.000    0.000 
#
# Total GULP energy -167050.129048 kJ/mol
# GULP energy per Si atom -5568.337635 kJ/mol
# Density = 2.185354 g / cm^3
# Si number density = 21.903394 Si / 1000 Ang^3
#
#
#
# Elastic Constant Matrix: (Units=GPa)
#
#
# Indices 1 2 3 4 5 6 
#
# 1 74.9596 11.7022 24.8889 0.0000 0.0000 0.0000
# 2 11.7022 82.4284 23.8415 0.0000 0.0000 0.0000
# 3 24.8889 23.8415 114.0374 0.0000 0.0000 0.0000
# 4 0.0000 0.0000 0.0000 -5.8712 0.0000 0.0000
# 5 0.0000 0.0000 0.0000 0.0000 25.4736 0.0000
# 6 0.0000 0.0000 0.0000 0.0000 0.0000 34.6118
#
#
#
# Elastic Compliance Matrix: (Units=1/GPa)
#
#
# Indices 1 2 3 4 5 6 
#
# 1 0.014496 -0.001216 -0.002910 0.000000 0.000000 0.000000
# 2 -0.001216 0.013015 -0.002455 0.000000 0.000000 0.000000
# 3 -0.002910 -0.002455 0.009917 0.000000 0.000000 0.000000
# 4 0.000000 0.000000 0.000000 -0.170323 0.000000 0.000000
# 5 0.000000 0.000000 0.000000 0.000000 0.039256 0.000000
# 6 0.000000 0.000000 0.000000 0.000000 0.000000 0.028892
#
#
# Mechanical properties :
#
#
# Convention : Reuss Voigt Hill
#
# Bulk Modulus (GPa) = 41.21061 43.58786 42.39923
# Shear Modulus (GPa) = -114.95603 24.90904 -45.02349
#
# Velocity S-wave (km/s) = -7.25239 3.37593 -4.53873
# Velocity P-wave (km/s) = 7.16058 5.92783 2.84032
#
# Compressibility (1/GPa) = 0.02426559
#
# Stress axis : x y z
#
# Youngs Moduli (GPa) = 68.98218 76.83649 100.83269
#
# Poissons Ratio (x) = 0.09347 0.29338
# Poissons Ratio (y) = 0.08392 0.24759
# Poissons Ratio (z) = 0.20071 0.18867
#
# Static dielectric constant tensor:
#      x y z
#    x 2.371070 0.000000 0.000000 
#    y 0.000000 1.858520 0.000000 
#    z 0.000000 0.000000 1.777310 
# 
# From -- ./inp_files/9067.got.cif
#   From: 2010.05.17/outbox.cif.g08.bks.cpg/sg45_5_cif.got.tgz:9067.got - 2010.06.03 19:51:22.
