data_PCOD9377692
_publ_section_title
;
Structure prediction by ZEFSAII (Michael W. Deem and Ramdas Pophale) SiO2 
 PCOD9377692
Probable space group: I B A 2
;
_chemical_formula_sum "Si O2"
_cell_formula_units_Z 48
_cell_length_a 7.950751
_cell_length_b 18.384269
_cell_length_c 13.610053
_cell_angle_alpha 90.000000
_cell_angle_beta 90.000000
_cell_angle_gamma 90.000000
_cell_volume 1989.364368
_symmetry_space_group_name_H-M "I B A 2"
_symmetry_group_IT_number 45
_symmetry_cell_setting 'orthorhombic'
loop_
_space_group_symop_operation_xyz
x,y,z
-x,-y,z
-x,y,1/2+z
x,-y,1/2+z
1/2+x,1/2+y,1/2+z
1/2-x,1/2-y,1/2+z
1/2-x,1/2+y,z
1/2+x,1/2-y,z
loop_
_atom_site_type_symbol
_atom_site_label
_atom_site_fract_x
_atom_site_fract_y
_atom_site_fract_z
Si Si1 0.168287 0.030650 0.339970
Si Si2 0.879939 0.431364 0.974083
Si Si3 0.779392 0.692034 0.371059
Si Si4 0.713446 0.135772 0.682048
Si Si5 0.578359 0.669326 0.957915
Si Si6 0.415673 0.292957 0.177346
O O1 0.287110 0.073892 0.265467
O O2 0.119953 0.088649 0.423898
O O3 0.247173 0.963477 0.396623
O O4 0.000000 0.000000 0.288509
O O5 0.928950 0.357925 0.914911
O O6 0.000000 0.500000 0.987395
O O7 0.820157 0.405127 0.079942
O O8 0.620612 0.682081 0.444482
O O9 0.837895 0.774384 0.382577
O O10 0.705450 0.677368 0.263231
O O11 0.589124 0.205221 0.690107
O O12 0.900685 0.170896 0.684175
O O13 0.640692 0.688095 0.066834
#
# Coordination Sequence:
#
# PCOD9377692 Si02
#       6
#     8   8   8   8   8   8
#     4  12  25  48  73 110 155 202 251 317 393 471
#     4  12  29  48  71 109 159 201 252 319 395 471
#     4  12  24  46  73 114 148 201 256 316 386 452
#     4  12  26  47  76 111 147 203 258 314 399 449
#     4  12  24  43  77 109 152 194 258 318 382 459
#     4  12  22  45  79 111 148 190 263 326 372 463
#
# _framework density 24.128309999999999
#
# number of rings (size 3 to 8) (size 9 to 14) (size 15 to 20)
#    0.000    0.000    8.333    0.000    2.333    6.667 
#    0.000    0.000    0.000    0.000    0.000    0.000 
#    0.000    0.000    0.000    0.000    0.000    0.000 
#
# Total GULP energy -134312.490743 kJ/mol
# GULP energy per Si atom -5596.353781 kJ/mol
# Density = 2.407339 g / cm^3
# Si number density = 24.128310 Si / 1000 Ang^3
#
#
#
# Elastic Constant Matrix: (Units=GPa)
#
#
# Indices 1 2 3 4 5 6 
#
# 1 50.8919 9.7204 31.4809 0.0000 0.0000 0.0000
# 2 9.7204 102.8490 44.1887 0.0000 0.0000 0.0000
# 3 31.4809 44.1887 170.8535 0.0000 0.0000 0.0000
# 4 0.0000 0.0000 0.0000 53.6274 0.0000 0.0000
# 5 0.0000 0.0000 0.0000 0.0000 27.4762 0.0000
# 6 0.0000 0.0000 0.0000 0.0000 0.0000 55.2119
#
#
#
# Elastic Compliance Matrix: (Units=1/GPa)
#
#
# Indices 1 2 3 4 5 6 
#
# 1 0.022191 -0.000383 -0.003990 0.000000 0.000000 0.000000
# 2 -0.000383 0.010945 -0.002760 0.000000 0.000000 0.000000
# 3 -0.003990 -0.002760 0.007302 0.000000 0.000000 0.000000
# 4 0.000000 0.000000 0.000000 0.018647 0.000000 0.000000
# 5 0.000000 0.000000 0.000000 0.000000 0.036395 0.000000
# 6 0.000000 0.000000 0.000000 0.000000 0.000000 0.018112
#
#
# Mechanical properties :
#
#
# Convention : Reuss Voigt Hill
#
# Bulk Modulus (GPa) = 38.20919 55.04159 46.62539
# Shear Modulus (GPa) = 36.60807 43.21007 39.90907
#
# Velocity S-wave (km/s) = 3.89938 4.23643 4.07140
# Velocity P-wave (km/s) = 6.01197 6.84042 6.43953
#
# Compressibility (1/GPa) = 0.02617171
#
# Stress axis : x y z
#
# Youngs Moduli (GPa) = 45.06407 91.36506 136.94923
#
# Poissons Ratio (x) = 0.03500 0.54638
# Poissons Ratio (y) = 0.01727 0.37801
# Poissons Ratio (z) = 0.17979 0.25219
#
# Static dielectric constant tensor:
#      x y z
#    x 1.999610 0.000000 0.000000 
#    y 0.000000 1.877440 0.000000 
#    z 0.000000 0.000000 1.902210 
# 
# From -- ./inp_files/5623.got.cif
#   From: 2010.05.17/outbox.cif.g08.bks.cpg/sg45_3_cif.got.tgz:5623.got - 2010.06.03 19:51:22.
