data_PCOD9377802
_publ_section_title
;
Structure prediction by ZEFSAII (Michael W. Deem and Ramdas Pophale) SiO2 
 PCOD9377802
Probable space group: I M A 2
;
_chemical_formula_sum "Si O2"
_cell_formula_units_Z 52
_cell_length_a 9.291803
_cell_length_b 10.733724
_cell_length_c 27.708956
_cell_angle_alpha 90.000000
_cell_angle_beta 90.000000
_cell_angle_gamma 90.000000
_cell_volume 2763.570706
_symmetry_space_group_name_H-M "I M A 2"
_symmetry_group_IT_number 46
_symmetry_cell_setting 'orthorhombic'
loop_
_space_group_symop_operation_xyz
x,y,z
-x,-y,z
1/2-x,y,z
1/2+x,-y,z
1/2+x,1/2+y,1/2+z
1/2-x,1/2-y,1/2+z
-x,1/2+y,1/2+z
x,1/2-y,1/2+z
loop_
_atom_site_type_symbol
_atom_site_label
_atom_site_fract_x
_atom_site_fract_y
_atom_site_fract_z
Si Si1 0.917166 0.241041 0.668200
Si Si2 0.079468 0.876933 0.075367
Si Si3 0.097084 0.175777 0.528990
Si Si4 0.582525 0.875675 0.417688
Si Si5 0.500000 0.500000 0.109360
Si Si6 0.077007 0.866002 0.876451
Si Si7 0.078161 0.869657 0.763141
O O1 0.750000 0.274335 0.672513
O O2 0.978448 0.335793 0.628568
O O3 0.929442 0.105007 0.642995
O O4 0.975578 0.226750 0.722321
O O5 0.250000 0.891802 0.076797
O O6 0.035261 0.765182 0.040281
O O7 0.000000 0.000000 0.059388
O O8 0.250000 0.246373 0.531298
O O9 0.085633 0.120010 0.475992
O O10 0.098173 0.074599 0.571560
O O11 0.750000 0.872371 0.401429
O O12 0.499090 0.749032 0.403411
O O13 0.500000 0.000000 0.400189
O O14 0.250000 0.873382 0.885765
O O15 0.056282 0.838584 0.819161
O O16 0.000000 0.000000 0.886485
O O17 0.250000 0.885316 0.756157
O O18 0.000000 0.000000 0.754223
#
# Coordination Sequence:
#
# PCOD9377802 Si02
#       7
#     8   8   8   8   4   8   8
#     4   9  17  29  50  78 109 142 173 217 273 328
#     4  10  21  36  53  74 107 148 188 228 272 329
#     4  10  21  35  55  81 109 142 179 223 273 332
#     4  11  23  40  61  86 117 152 194 243 297 354
#     4  10  16  30  52  82 114 138 168 214 264 334
#     4  10  21  38  61  86 116 153 196 246 297 351
#     4   9  17  32  53  81 112 142 181 230 282 336
#
# _framework density 18.816237000000001
#
# number of rings (size 3 to 8) (size 9 to 14) (size 15 to 20)
#    0.000    2.154    1.538    1.846    0.000    3.077 
#    0.000    1.538    0.000    1.846    0.000    0.000 
#    0.000    0.000    0.000    0.000    0.000    0.000 
#
# Total GULP energy -144788.894236 kJ/mol
# GULP energy per Si atom -5568.803624 kJ/mol
# Density = 1.877341 g / cm^3
# Si number density = 18.816237 Si / 1000 Ang^3
#
#
#
# Elastic Constant Matrix: (Units=GPa)
#
#
# Indices 1 2 3 4 5 6 
#
# 1 96.3603 45.3484 24.6232 0.0000 0.0000 0.0000
# 2 45.3484 82.9199 11.0073 0.0000 0.0000 0.0000
# 3 24.6232 11.0073 46.4150 0.0000 0.0000 0.0000
# 4 0.0000 0.0000 0.0000 11.1238 0.0000 0.0000
# 5 0.0000 0.0000 0.0000 0.0000 15.8854 0.0000
# 6 0.0000 0.0000 0.0000 0.0000 0.0000 28.0571
#
#
#
# Elastic Compliance Matrix: (Units=1/GPa)
#
#
# Indices 1 2 3 4 5 6 
#
# 1 0.015659 -0.007704 -0.006480 0.000000 0.000000 0.000000
# 2 -0.007704 0.016242 0.000235 0.000000 0.000000 0.000000
# 3 -0.006480 0.000235 0.024927 0.000000 0.000000 0.000000
# 4 0.000000 0.000000 0.000000 0.089897 0.000000 0.000000
# 5 0.000000 0.000000 0.000000 0.000000 0.062951 0.000000
# 6 0.000000 0.000000 0.000000 0.000000 0.000000 0.035642
#
#
# Mechanical properties :
#
#
# Convention : Reuss Voigt Hill
#
# Bulk Modulus (GPa) = 34.56623 43.07257 38.81940
# Shear Modulus (GPa) = 17.67669 20.66100 19.16885
#
# Velocity S-wave (km/s) = 3.06835 3.31726 3.19523
# Velocity P-wave (km/s) = 5.56447 6.13296 5.85562
#
# Compressibility (1/GPa) = 0.02892997
#
# Stress axis : x y z
#
# Youngs Moduli (GPa) = 63.86079 61.56995 40.11742
#
# Poissons Ratio (x) = 0.47431 0.25997
# Poissons Ratio (y) = 0.49196 -0.00943
# Poissons Ratio (z) = 0.41383 -0.01447
#
# Static dielectric constant tensor:
#      x y z
#    x 1.669690 0.000000 0.000000 
#    y 0.000000 1.630000 0.000000 
#    z 0.000000 0.000000 1.679620 
# 
# From -- ./inp_files/24217.got.cif
#   From: 2010.05.17/outbox.cif.g08.bks.cpg/sg46_13_cif.got.tgz:24217.got - 2010.06.03 19:58:25.
