data_PCOD9377239
_publ_section_title
;
Structure prediction by ZEFSAII (Michael W. Deem and Ramdas Pophale) SiO2 
 PCOD9377239
Probable space group: I B A 2
;
_chemical_formula_sum "Si O2"
_cell_formula_units_Z 56
_cell_length_a 13.089654
_cell_length_b 12.566782
_cell_length_c 15.201659
_cell_angle_alpha 90.000000
_cell_angle_beta 90.000000
_cell_angle_gamma 90.000000
_cell_volume 2500.594287
_symmetry_space_group_name_H-M "I B A 2"
_symmetry_group_IT_number 45
_symmetry_cell_setting 'orthorhombic'
loop_
_space_group_symop_operation_xyz
x,y,z
-x,-y,z
-x,y,1/2+z
x,-y,1/2+z
1/2+x,1/2+y,1/2+z
1/2-x,1/2-y,1/2+z
1/2-x,1/2+y,z
1/2+x,1/2-y,z
loop_
_atom_site_type_symbol
_atom_site_label
_atom_site_fract_x
_atom_site_fract_y
_atom_site_fract_z
Si Si1 0.049071 0.701758 0.800630
Si Si2 0.248768 0.794707 0.412272
Si Si3 0.076461 0.081114 0.827162
Si Si4 0.914467 0.619118 0.945250
Si Si5 0.966888 0.697482 0.615952
Si Si6 0.103510 0.058268 0.626428
Si Si7 0.806962 0.557016 0.557960
O O1 0.158901 0.714014 0.844535
O O2 0.986491 0.810912 0.813905
O O3 0.985714 0.618041 0.859427
O O4 0.046889 0.685977 0.696158
O O5 0.175734 0.889505 0.380158
O O6 0.184272 0.687860 0.418902
O O7 0.280199 0.833671 0.508116
O O8 0.107229 0.037223 0.731568
O O9 0.000000 0.000000 0.872774
O O10 0.873879 0.512167 0.989824
O O11 0.976765 0.679505 0.022984
O O12 0.915876 0.815012 0.616578
O O13 0.884096 0.603060 0.631046
O O14 0.207203 0.009021 0.586407
O O15 0.000000 0.000000 0.593783
#
# Coordination Sequence:
#
# PCOD9377239 Si02
#       7
#     8   8   8   8   8   8   8
#     4  10  24  46  68  99 147 183 236 296 357 428
#     4  11  24  42  69  99 135 191 229 293 358 425
#     4   9  22  43  66 101 131 179 238 292 352 429
#     4  11  25  46  66 102 141 181 241 294 361 429
#     4  11  24  47  71 103 148 187 239 301 359 435
#     4  10  23  45  68 102 136 185 242 296 353 432
#     4  12  25  41  69 103 136 190 233 296 370 421
#
# _framework density 22.394677999999999
#
# number of rings (size 3 to 8) (size 9 to 14) (size 15 to 20)
#    0.000    1.429    1.429    2.143    4.000    2.857 
#   23.143    0.000    0.000    0.000    0.000    0.000 
#    0.000    0.000    0.000    0.000    0.000    0.000 
#
# Total GULP energy -156495.587054 kJ/mol
# GULP energy per Si atom -5589.128109 kJ/mol
# Density = 2.234371 g / cm^3
# Si number density = 22.394678 Si / 1000 Ang^3
#
#
#
# Elastic Constant Matrix: (Units=GPa)
#
#
# Indices 1 2 3 4 5 6 
#
# 1 117.3966 34.1619 32.0579 0.0000 0.0000 0.0000
# 2 34.1619 85.4276 15.4367 0.0000 0.0000 0.0000
# 3 32.0579 15.4367 80.2096 0.0000 0.0000 0.0000
# 4 0.0000 0.0000 0.0000 24.2436 0.0000 0.0000
# 5 0.0000 0.0000 0.0000 0.0000 59.7928 0.0000
# 6 0.0000 0.0000 0.0000 0.0000 0.0000 20.8765
#
#
#
# Elastic Compliance Matrix: (Units=1/GPa)
#
#
# Indices 1 2 3 4 5 6 
#
# 1 0.010517 -0.003570 -0.003516 0.000000 0.000000 0.000000
# 2 -0.003570 0.013340 -0.001140 0.000000 0.000000 0.000000
# 3 -0.003516 -0.001140 0.014092 0.000000 0.000000 0.000000
# 4 0.000000 0.000000 0.000000 0.041248 0.000000 0.000000
# 5 0.000000 0.000000 0.000000 0.000000 0.016724 0.000000
# 6 0.000000 0.000000 0.000000 0.000000 0.000000 0.047901
#
#
# Mechanical properties :
#
#
# Convention : Reuss Voigt Hill
#
# Bulk Modulus (GPa) = 46.52231 49.59408 48.05820
# Shear Modulus (GPa) = 29.86117 34.40773 32.13445
#
# Velocity S-wave (km/s) = 3.65554 3.92398 3.79214
# Velocity P-wave (km/s) = 6.21581 6.53634 6.37809
#
# Compressibility (1/GPa) = 0.02149506
#
# Stress axis : x y z
#
# Youngs Moduli (GPa) = 95.08104 74.96447 70.96126
#
# Poissons Ratio (x) = 0.26765 0.24953
# Poissons Ratio (y) = 0.33948 0.08091
# Poissons Ratio (z) = 0.33434 0.08548
#
# Static dielectric constant tensor:
#      x y z
#    x 1.774680 0.000000 0.000000 
#    y 0.000000 1.840600 0.000000 
#    z 0.000000 0.000000 1.848790 
# 
# From -- ./inp_files/6172.got.cif
#   From: 2010.05.17/outbox.cif.g08.bks.cpg/sg45_4_cif.got.tgz:6172.got - 2010.06.03 19:51:22.
