data_PCOD9377277
_publ_section_title
;
Structure prediction by ZEFSAII (Michael W. Deem and Ramdas Pophale) SiO2 
 PCOD9377277
Probable space group: I B A 2
;
_chemical_formula_sum "Si O2"
_cell_formula_units_Z 64
_cell_length_a 30.794877
_cell_length_b 10.693957
_cell_length_c 8.762792
_cell_angle_alpha 90.000000
_cell_angle_beta 90.000000
_cell_angle_gamma 90.000000
_cell_volume 2885.754691
_symmetry_space_group_name_H-M "I B A 2"
_symmetry_group_IT_number 45
_symmetry_cell_setting 'orthorhombic'
loop_
_space_group_symop_operation_xyz
x,y,z
-x,-y,z
-x,y,1/2+z
x,-y,1/2+z
1/2+x,1/2+y,1/2+z
1/2-x,1/2-y,1/2+z
1/2-x,1/2+y,z
1/2+x,1/2-y,z
loop_
_atom_site_type_symbol
_atom_site_label
_atom_site_fract_x
_atom_site_fract_y
_atom_site_fract_z
Si Si1 0.106406 0.748115 0.446980
Si Si2 0.749747 0.748682 0.866500
Si Si3 0.806933 0.665344 0.122071
Si Si4 0.892198 0.301432 0.099756
Si Si5 0.048455 0.545540 0.614511
Si Si6 0.201053 0.618470 0.103329
Si Si7 0.971011 0.120296 0.558173
Si Si8 0.039882 0.245879 0.368820
O O1 0.150923 0.719735 0.537367
O O2 0.112956 0.757021 0.266711
O O3 0.075686 0.631686 0.497328
O O4 0.077766 0.867776 0.496565
O O5 0.707007 0.745138 0.760958
O O6 0.785453 0.715580 0.737109
O O7 0.766972 0.661707 0.001495
O O8 0.737912 0.870597 0.971203
O O9 0.808888 0.519733 0.168685
O O10 0.922230 0.422555 0.129583
O O11 0.845237 0.339018 0.038724
O O12 0.918271 0.224848 0.973252
O O13 0.045068 0.625944 0.772113
O O14 0.000000 0.500000 0.574206
O O15 0.967543 0.144923 0.737239
O O16 0.999191 0.231422 0.480796
O O17 0.000000 0.000000 0.529192
#
# Coordination Sequence:
#
# PCOD9377277 Si02
#       8
#     8   8   8   8   8   8   8   8
#     4  11  23  39  69 106 136 178 236 289 345 422
#     4  10  24  40  68 102 139 189 237 283 355 441
#     4  11  22  43  71 106 142 185 231 294 354 417
#     4  12  23  38  66 107 142 178 220 291 354 416
#     4  11  23  38  61 105 147 182 216 281 354 420
#     4  11  23  42  71 101 145 187 226 282 369 416
#     4  11  24  46  71  92 131 191 236 289 340 399
#     4  11  25  40  65  97 135 182 237 275 341 416
#
# _framework density 22.177907000000001
#
# number of rings (size 3 to 8) (size 9 to 14) (size 15 to 20)
#    0.000    1.000    2.500    4.875    3.500    2.000 
#    0.000    0.625   16.500    0.000    0.000    0.000 
#    0.000    0.000    0.000    0.000    0.000    0.000 
#
# Total GULP energy -178218.195680 kJ/mol
# GULP energy per Si atom -5569.318615 kJ/mol
# Density = 2.212743 g / cm^3
# Si number density = 22.177907 Si / 1000 Ang^3
#
#
#
# Elastic Constant Matrix: (Units=GPa)
#
#
# Indices 1 2 3 4 5 6 
#
# 1 104.3595 41.4011 46.5143 0.0000 0.0000 0.0000
# 2 41.4011 62.5556 20.3344 0.0000 0.0000 0.0000
# 3 46.5143 20.3344 91.2506 0.0000 0.0000 0.0000
# 4 0.0000 0.0000 0.0000 23.7996 0.0000 0.0000
# 5 0.0000 0.0000 0.0000 0.0000 38.9362 0.0000
# 6 0.0000 0.0000 0.0000 0.0000 0.0000 28.4642
#
#
#
# Elastic Compliance Matrix: (Units=1/GPa)
#
#
# Indices 1 2 3 4 5 6 
#
# 1 0.015613 -0.008351 -0.006098 0.000000 0.000000 0.000000
# 2 -0.008351 0.021701 -0.000579 0.000000 0.000000 0.000000
# 3 -0.006098 -0.000579 0.014196 0.000000 0.000000 0.000000
# 4 0.000000 0.000000 0.000000 0.042017 0.000000 0.000000
# 5 0.000000 0.000000 0.000000 0.000000 0.025683 0.000000
# 6 0.000000 0.000000 0.000000 0.000000 0.000000 0.035132
#
#
# Mechanical properties :
#
#
# Convention : Reuss Voigt Hill
#
# Bulk Modulus (GPa) = 46.60986 52.74059 49.67523
# Shear Modulus (GPa) = 26.10291 28.23439 27.16865
#
# Velocity S-wave (km/s) = 3.43443 3.57190 3.50384
# Velocity P-wave (km/s) = 6.06540 6.39090 6.23028
#
# Compressibility (1/GPa) = 0.02145469
#
# Stress axis : x y z
#
# Youngs Moduli (GPa) = 64.04891 46.08091 70.44187
#
# Poissons Ratio (x) = 0.38482 0.42953
# Poissons Ratio (y) = 0.53488 0.04078
# Poissons Ratio (z) = 0.39055 0.02668
#
# Static dielectric constant tensor:
#      x y z
#    x 1.818730 0.000000 0.000000 
#    y 0.000000 1.869100 0.000000 
#    z 0.000000 0.000000 1.875150 
# 
# From -- ./inp_files/2774.got.cif
#   From: 2010.05.17/outbox.cif.g08.bks.cpg/sg45_2_cif.got.tgz:2774.got - 2010.06.03 19:51:22.
