data_PCOD9377870
_publ_section_title
;
Structure prediction by ZEFSAII (Michael W. Deem and Ramdas Pophale) SiO2 
 PCOD9377870
Probable space group: I M A 2
;
_chemical_formula_sum "Si O2"
_cell_formula_units_Z 64
_cell_length_a 8.651158
_cell_length_b 31.299884
_cell_length_c 14.868457
_cell_angle_alpha 90.000000
_cell_angle_beta 90.000000
_cell_angle_gamma 90.000000
_cell_volume 4026.084383
_symmetry_space_group_name_H-M "I M A 2"
_symmetry_group_IT_number 46
_symmetry_cell_setting 'orthorhombic'
loop_
_space_group_symop_operation_xyz
x,y,z
-x,-y,z
1/2-x,y,z
1/2+x,-y,z
1/2+x,1/2+y,1/2+z
1/2-x,1/2-y,1/2+z
-x,1/2+y,1/2+z
x,1/2-y,1/2+z
loop_
_atom_site_type_symbol
_atom_site_label
_atom_site_fract_x
_atom_site_fract_y
_atom_site_fract_z
Si Si1 0.072681 0.315098 0.654170
Si Si2 0.436857 0.453598 0.761551
Si Si3 0.562803 0.546364 0.551952
Si Si4 0.069278 0.774837 0.651962
Si Si5 0.934688 0.867114 0.970934
Si Si6 0.431045 0.366174 0.839623
Si Si7 0.064916 0.206535 0.841484
Si Si8 0.565455 0.211135 0.448187
O O1 0.250000 0.298232 0.650931
O O2 0.045885 0.341954 0.564548
O O3 0.061669 0.344839 0.740867
O O4 0.957148 0.275917 0.660146
O O5 0.500000 0.500000 0.787380
O O6 0.250000 0.453945 0.763322
O O7 0.482263 0.445894 0.656782
O O8 0.488618 0.414502 0.824673
O O9 0.500000 0.500000 0.526107
O O10 0.750000 0.545891 0.550146
O O11 0.505943 0.585111 0.489142
O O12 0.250000 0.785220 0.658127
O O13 0.012229 0.786740 0.552081
O O14 0.983461 0.794261 0.737689
O O15 0.750000 0.871266 0.955805
O O16 0.994843 0.835589 0.893788
O O17 0.250000 0.367282 0.865939
O O18 0.518990 0.333971 0.904825
O O19 0.250000 0.207945 0.848576
O O20 0.003747 0.249494 0.890559
O O21 0.750000 0.216142 0.447138
#
# Coordination Sequence:
#
# PCOD9377870 Si02
#       8
#     8   8   8   8   8   8   8   8
#     4  10  17  29  49  70  95 130 168 201 234 278
#     4   9  17  29  46  70  99 129 160 195 238 287
#     4   9  16  29  46  68  98 127 156 192 235 284
#     4  11  23  36  47  67 101 133 161 203 250 290
#     4   9  17  30  49  71  96 128 165 201 235 276
#     4  10  19  31  50  73  96 131 171 203 236 285
#     4  11  21  33  52  73  93 127 171 207 240 284
#     4  11  23  35  48  70 100 131 162 202 250 294
#
# _framework density 15.896338999999999
#
# number of rings (size 3 to 8) (size 9 to 14) (size 15 to 20)
#    0.000    2.000    3.750    1.125    0.000    2.000 
#    0.000    1.875    0.000    0.000    0.000    0.875 
#    0.000    2.000    0.000    0.000    0.000    0.000 
#
# Total GULP energy -178404.796986 kJ/mol
# GULP energy per Si atom -5575.149906 kJ/mol
# Density = 1.586016 g / cm^3
# Si number density = 15.896339 Si / 1000 Ang^3
#
#
#
# Elastic Constant Matrix: (Units=GPa)
#
#
# Indices 1 2 3 4 5 6 
#
# 1 20.3300 16.4840 21.4098 0.0000 0.0000 0.0000
# 2 16.4840 109.8777 36.7631 0.0001 0.0000 0.0000
# 3 21.4098 36.7631 81.5135 0.0002 0.0000 0.0000
# 4 0.0000 0.0001 0.0002 11.1502 0.0000 0.0000
# 5 0.0000 0.0000 0.0000 0.0000 13.7504 0.0000
# 6 0.0000 0.0000 0.0000 0.0000 0.0000 20.6289
#
#
#
# Elastic Compliance Matrix: (Units=1/GPa)
#
#
# Indices 1 2 3 4 5 6 
#
# 1 0.070388 -0.005151 -0.016164 0.000000 0.000000 0.000000
# 2 -0.005151 0.011095 -0.003651 0.000000 0.000000 0.000000
# 3 -0.016164 -0.003651 0.018160 0.000000 0.000000 0.000000
# 4 0.000000 0.000000 0.000000 0.089685 0.000000 0.000000
# 5 0.000000 0.000000 0.000000 0.000000 0.072725 0.000000
# 6 0.000000 0.000000 0.000000 0.000000 0.000000 0.048476
#
#
# Mechanical properties :
#
#
# Convention : Reuss Voigt Hill
#
# Bulk Modulus (GPa) = 20.11663 40.11499 30.11581
# Shear Modulus (GPa) = 13.26142 18.24351 15.75246
#
# Velocity S-wave (km/s) = 2.89146 3.39138 3.15135
# Velocity P-wave (km/s) = 4.88157 6.37381 5.67693
#
# Compressibility (1/GPa) = 0.04971013
#
# Stress axis : x y z
#
# Youngs Moduli (GPa) = 14.20691 90.12715 55.06549
#
# Poissons Ratio (x) = 0.46429 0.89010
# Poissons Ratio (y) = 0.07319 0.20105
# Poissons Ratio (z) = 0.22965 0.32906
#
# Static dielectric constant tensor:
#      x y z
#    x 1.546950 0.000000 0.000000 
#    y 0.000000 1.535010 0.000000 
#    z 0.000000 0.000000 1.528240 
# 
# From -- ./inp_files/14741.got.cif
#   From: 2010.05.17/outbox.cif.g08.bks.cpg/sg46_8_cif.got.tgz:14741.got - 2010.06.03 19:58:25.
