data_PCOD9377139
_publ_section_title
;
Structure prediction by ZEFSAII (Michael W. Deem and Ramdas Pophale) SiO2 
 PCOD9377139
Probable space group: I B A 2
;
_chemical_formula_sum "Si O2"
_cell_formula_units_Z 64
_cell_length_a 8.987868
_cell_length_b 14.863930
_cell_length_c 20.510158
_cell_angle_alpha 90.000000
_cell_angle_beta 90.000000
_cell_angle_gamma 90.000000
_cell_volume 2740.055395
_symmetry_space_group_name_H-M "I B A 2"
_symmetry_group_IT_number 45
_symmetry_cell_setting 'orthorhombic'
loop_
_space_group_symop_operation_xyz
x,y,z
-x,-y,z
-x,y,1/2+z
x,-y,1/2+z
1/2+x,1/2+y,1/2+z
1/2-x,1/2-y,1/2+z
1/2-x,1/2+y,z
1/2+x,1/2-y,z
loop_
_atom_site_type_symbol
_atom_site_label
_atom_site_fract_x
_atom_site_fract_y
_atom_site_fract_z
Si Si1 0.564240 0.690297 0.538500
Si Si2 0.021326 0.195709 0.790252
Si Si3 0.646834 0.442866 0.349946
Si Si4 0.170143 0.890592 0.675163
Si Si5 0.767322 0.638492 0.064098
Si Si6 0.249145 0.589530 0.711064
Si Si7 0.171460 0.022482 0.990423
Si Si8 0.576350 0.894462 0.258659
O O1 0.614155 0.642404 0.606334
O O2 0.387929 0.676104 0.535089
O O3 0.606326 0.794414 0.539607
O O4 0.664117 0.630311 0.489299
O O5 0.172766 0.146237 0.768216
O O6 0.042806 0.300565 0.794373
O O7 0.931156 0.154752 0.850910
O O8 0.919527 0.165924 0.728818
O O9 0.500000 0.500000 0.326675
O O10 0.692615 0.482375 0.418845
O O11 0.792786 0.437563 0.304463
O O12 0.341980 0.870704 0.690407
O O13 0.164582 0.998105 0.689316
O O14 0.761597 0.642139 0.142662
O O15 0.774238 0.534806 0.039523
O O16 0.084485 0.568916 0.737358
O O17 0.000000 0.000000 0.009870
#
# Coordination Sequence:
#
# PCOD9377139 Si02
#       8
#     8   8   8   8   8   8   8   8
#     4  11  22  41  67 101 134 178 229 292 350 419
#     4  11  21  38  67 100 136 176 227 282 356 421
#     4  10  22  46  72  93 135 190 233 278 349 428
#     4  11  22  37  60  95 138 180 218 276 359 430
#     4  11  23  40  68 101 138 177 231 288 357 419
#     4  12  22  37  64 102 140 176 223 288 352 429
#     4   9  21  45  72  96 131 185 239 278 342 425
#     4  11  24  40  62 106 141 172 230 294 346 420
#
# _framework density 23.357192999999999
#
# number of rings (size 3 to 8) (size 9 to 14) (size 15 to 20)
#    0.000    1.250    2.500    5.250    1.750    0.000 
#    6.750    0.625    0.000    4.500    0.000    0.000 
#    0.000    0.000    0.000    0.000    0.000    0.000 
#
# Total GULP energy -178548.940256 kJ/mol
# GULP energy per Si atom -5579.654383 kJ/mol
# Density = 2.330403 g / cm^3
# Si number density = 23.357193 Si / 1000 Ang^3
#
#
#
# Elastic Constant Matrix: (Units=GPa)
#
#
# Indices 1 2 3 4 5 6 
#
# 1 117.8094 12.6655 12.0260 0.0000 0.0000 0.0000
# 2 12.6655 56.2658 -1.2663 0.0000 0.0000 0.0000
# 3 12.0260 -1.2663 71.6799 0.0000 0.0000 0.0000
# 4 0.0000 0.0000 0.0000 23.5621 0.0000 0.0000
# 5 0.0000 0.0000 0.0000 0.0000 18.8540 0.0000
# 6 0.0000 0.0000 0.0000 0.0000 0.0000 36.2307
#
#
#
# Elastic Compliance Matrix: (Units=1/GPa)
#
#
# Indices 1 2 3 4 5 6 
#
# 1 0.008862 -0.002029 -0.001523 0.000000 0.000000 0.000000
# 2 -0.002029 0.018244 0.000663 0.000000 0.000000 0.000000
# 3 -0.001523 0.000663 0.014218 0.000000 0.000000 0.000000
# 4 0.000000 0.000000 0.000000 0.042441 0.000000 0.000000
# 5 0.000000 0.000000 0.000000 0.000000 0.053039 0.000000
# 6 0.000000 0.000000 0.000000 0.000000 0.000000 0.027601
#
#
# Mechanical properties :
#
#
# Convention : Reuss Voigt Hill
#
# Bulk Modulus (GPa) = 28.13222 32.51171 30.32197
# Shear Modulus (GPa) = 27.46768 30.55136 29.00952
#
# Velocity S-wave (km/s) = 3.43298 3.62056 3.52802
# Velocity P-wave (km/s) = 5.27108 5.60603 5.44113
#
# Compressibility (1/GPa) = 0.03554643
#
# Stress axis : x y z
#
# Youngs Moduli (GPa) = 112.84319 54.81122 70.33301
#
# Poissons Ratio (x) = 0.11122 0.10709
# Poissons Ratio (y) = 0.22897 -0.04661
# Poissons Ratio (z) = 0.17182 -0.03633
#
# Static dielectric constant tensor:
#      x y z
#    x 1.903370 0.000000 0.000000 
#    y 0.000000 2.057480 0.000000 
#    z 0.000000 0.000000 1.913330 
# 
# From -- ./inp_files/9591.got.cif
#   From: 2010.05.17/outbox.cif.g08.bks.cpg/sg45_5_cif.got.tgz:9591.got - 2010.06.03 19:51:22.
