data_PCOD9377701
_publ_section_title
;
Structure prediction by ZEFSAII (Michael W. Deem and Ramdas Pophale) SiO2 
 PCOD9377701
Probable space group: I B A 2
;
_chemical_formula_sum "Si O2"
_cell_formula_units_Z 60
_cell_length_a 19.214516
_cell_length_b 13.399339
_cell_length_c 10.799219
_cell_angle_alpha 90.000000
_cell_angle_beta 90.000000
_cell_angle_gamma 90.000000
_cell_volume 2780.386509
_symmetry_space_group_name_H-M "I B A 2"
_symmetry_group_IT_number 45
_symmetry_cell_setting 'orthorhombic'
loop_
_space_group_symop_operation_xyz
x,y,z
-x,-y,z
-x,y,1/2+z
x,-y,1/2+z
1/2+x,1/2+y,1/2+z
1/2-x,1/2-y,1/2+z
1/2-x,1/2+y,z
1/2+x,1/2-y,z
loop_
_atom_site_type_symbol
_atom_site_label
_atom_site_fract_x
_atom_site_fract_y
_atom_site_fract_z
Si Si1 0.500000 0.500000 0.550920
Si Si2 0.378744 0.715352 0.762255
Si Si3 0.894532 0.869451 0.401049
Si Si4 0.296098 0.775374 0.555726
Si Si5 0.305692 0.496655 0.244870
Si Si6 0.285482 0.007313 0.993882
Si Si7 0.972157 0.795005 0.192377
Si Si8 0.359640 0.198965 0.524222
O O1 0.564903 0.458702 0.470214
O O2 0.475037 0.405633 0.631216
O O3 0.314774 0.772762 0.700005
O O4 0.355906 0.599845 0.754797
O O5 0.447840 0.738166 0.684616
O O6 0.388608 0.752952 0.899422
O O7 0.841370 0.809652 0.487441
O O8 0.953805 0.803440 0.337504
O O9 0.851648 0.908756 0.282402
O O10 0.316119 0.882312 0.503536
O O11 0.214938 0.752620 0.543059
O O12 0.251999 0.494422 0.360338
O O13 0.268435 0.499364 0.111290
O O14 0.339403 0.916966 0.009049
O O15 0.915710 0.724885 0.128317
#
# Coordination Sequence:
#
# PCOD9377701 Si02
#       8
#     4   8   8   8   8   8   8   8
#     4  12  24  48  68 112 146 196 240 306 396 456
#     4  12  25  48  74 108 148 191 249 310 383 458
#     4  12  25  41  71 108 146 190 236 305 376 456
#     4  12  26  46  75 108 146 190 252 313 376 455
#     4  12  23  43  74 114 146 192 245 308 383 447
#     4  12  27  44  74 110 150 194 252 313 379 449
#     4  12  27  43  74 104 152 192 241 310 382 457
#     4  12  26  47  73 110 147 197 250 311 380 460
#
# _framework density 21.579732
#
# number of rings (size 3 to 8) (size 9 to 14) (size 15 to 20)
#    0.000    0.000    5.333    5.200    5.600    0.000 
#    0.000    0.667    0.000    0.000    0.000    0.000 
#    0.000    0.000    0.000    0.000    0.000    0.000 
#
# Total GULP energy -167812.268055 kJ/mol
# GULP energy per Si atom -5593.742268 kJ/mol
# Density = 2.153062 g / cm^3
# Si number density = 21.579732 Si / 1000 Ang^3
#
#
#
# Elastic Constant Matrix: (Units=GPa)
#
#
# Indices 1 2 3 4 5 6 
#
# 1 112.7735 45.9991 41.7120 0.0000 0.0000 0.0000
# 2 45.9991 88.5466 3.1167 0.0000 0.0000 0.0000
# 3 41.7120 3.1167 84.3485 0.0000 0.0000 0.0000
# 4 0.0000 0.0000 0.0000 27.3616 0.0000 0.0000
# 5 0.0000 0.0000 0.0000 0.0000 44.4462 0.0000
# 6 0.0000 0.0000 0.0000 0.0000 0.0000 37.7852
#
#
#
# Elastic Compliance Matrix: (Units=1/GPa)
#
#
# Indices 1 2 3 4 5 6 
#
# 1 0.014328 -0.007203 -0.006819 0.000000 0.000000 0.000000
# 2 -0.007203 0.014929 0.003010 0.000000 0.000000 0.000000
# 3 -0.006819 0.003010 0.015117 0.000000 0.000000 0.000000
# 4 0.000000 0.000000 0.000000 0.036548 0.000000 0.000000
# 5 0.000000 0.000000 0.000000 0.000000 0.022499 0.000000
# 6 0.000000 0.000000 0.000000 0.000000 0.000000 0.026465
#
#
# Mechanical properties :
#
#
# Convention : Reuss Voigt Hill
#
# Bulk Modulus (GPa) = 44.74263 51.92490 48.33377
# Shear Modulus (GPa) = 31.37569 34.90799 33.14184
#
# Velocity S-wave (km/s) = 3.81720 4.02634 3.92316
# Velocity P-wave (km/s) = 6.34087 6.76235 6.55500
#
# Compressibility (1/GPa) = 0.02235005
#
# Stress axis : x y z
#
# Youngs Moduli (GPa) = 69.79550 66.98183 66.15272
#
# Poissons Ratio (x) = 0.48247 0.45110
# Poissons Ratio (y) = 0.50274 -0.19915
# Poissons Ratio (z) = 0.47594 -0.20164
#
# Static dielectric constant tensor:
#      x y z
#    x 1.812920 0.000000 0.000000 
#    y 0.000000 1.808880 0.000000 
#    z 0.000000 0.000000 1.839600 
# 
# From -- ./inp_files/4489.got.cif
#   From: 2010.05.17/outbox.cif.g08.bks.cpg/sg45_3_cif.got.tgz:4489.got - 2010.06.03 19:51:22.
