data_PCOD9377202
_publ_section_title
;
Structure prediction by ZEFSAII (Michael W. Deem and Ramdas Pophale) SiO2 
 PCOD9377202
Probable space group: I B A 2
;
_chemical_formula_sum "Si O2"
_cell_formula_units_Z 60
_cell_length_a 9.010373
_cell_length_b 24.154983
_cell_length_c 11.859180
_cell_angle_alpha 90.000000
_cell_angle_beta 90.000000
_cell_angle_gamma 90.000000
_cell_volume 2581.096054
_symmetry_space_group_name_H-M "I B A 2"
_symmetry_group_IT_number 45
_symmetry_cell_setting 'orthorhombic'
loop_
_space_group_symop_operation_xyz
x,y,z
-x,-y,z
-x,y,1/2+z
x,-y,1/2+z
1/2+x,1/2+y,1/2+z
1/2-x,1/2-y,1/2+z
1/2-x,1/2+y,z
1/2+x,1/2-y,z
loop_
_atom_site_type_symbol
_atom_site_label
_atom_site_fract_x
_atom_site_fract_y
_atom_site_fract_z
Si Si1 0.000000 0.000000 0.631420
Si Si2 0.916185 0.391500 0.654479
Si Si3 0.670407 0.708301 0.701868
Si Si4 0.091160 0.092472 0.305829
Si Si5 0.260488 0.581520 0.871210
Si Si6 0.536534 0.204542 0.787505
Si Si7 0.896125 0.321919 0.006767
Si Si8 0.278174 0.965218 0.981158
O O1 0.078327 0.955319 0.712153
O O2 0.869394 0.976048 0.554960
O O3 0.783868 0.402171 0.742852
O O4 0.028244 0.360133 0.745071
O O5 0.901827 0.444915 0.571332
O O6 0.950664 0.345893 0.559519
O O7 0.601415 0.650228 0.740384
O O8 0.547245 0.755003 0.700342
O O9 0.774848 0.703159 0.591771
O O10 0.795038 0.722244 0.794897
O O11 0.227516 0.080846 0.390160
O O12 0.937761 0.086177 0.375140
O O13 0.187837 0.624914 0.955361
O O14 0.200166 0.521284 0.908501
O O15 0.450078 0.213462 0.902489
#
# Coordination Sequence:
#
# PCOD9377202 Si02
#       8
#     4   8   8   8   8   8   8   8
#     4  12  20  38  62 102 144 176 240 288 358 430
#     4  10  23  43  66  90 142 183 230 294 359 427
#     4  11  26  44  73 101 139 184 235 304 368 422
#     4  12  23  39  64 104 136 176 233 298 349 438
#     4  11  22  41  66 100 136 180 239 286 351 446
#     4  10  25  48  69 105 140 182 250 299 359 447
#     4  10  24  46  67  98 139 182 232 296 362 439
#     4  12  21  38  67  97 138 186 228 292 359 424
#
# _framework density 23.245937999999999
#
# number of rings (size 3 to 8) (size 9 to 14) (size 15 to 20)
#    0.000    1.067    4.000    1.600    3.733    3.733 
#    0.000    4.000    0.000    0.000    0.000    0.000 
#    0.000    0.000    0.000    0.000    0.000    0.000 
#
# Total GULP energy -167037.696427 kJ/mol
# GULP energy per Si atom -5567.923214 kJ/mol
# Density = 2.319303 g / cm^3
# Si number density = 23.245938 Si / 1000 Ang^3
#
#
#
# Elastic Constant Matrix: (Units=GPa)
#
#
# Indices 1 2 3 4 5 6 
#
# 1 57.9191 52.2957 20.0905 0.0000 0.0000 0.0000
# 2 52.2957 91.5956 45.2575 0.0001 0.0000 0.0000
# 3 20.0905 45.2575 88.4176 0.0005 -0.0001 -0.0001
# 4 0.0000 0.0001 0.0005 22.1250 0.0001 0.0000
# 5 0.0000 0.0000 -0.0001 0.0001 31.2209 0.0000
# 6 0.0000 0.0000 -0.0001 0.0000 0.0000 32.1306
#
#
#
# Elastic Compliance Matrix: (Units=1/GPa)
#
#
# Indices 1 2 3 4 5 6 
#
# 1 0.036283 -0.022276 0.003158 0.000000 0.000000 0.000000
# 2 -0.022276 0.028290 -0.009419 0.000000 0.000000 0.000000
# 3 0.003158 -0.009419 0.015414 0.000000 0.000000 0.000000
# 4 0.000000 0.000000 0.000000 0.045198 0.000000 0.000000
# 5 0.000000 0.000000 0.000000 0.000000 0.032030 0.000000
# 6 0.000000 0.000000 0.000000 0.000000 0.000000 0.031123
#
#
# Mechanical properties :
#
#
# Convention : Reuss Voigt Hill
#
# Bulk Modulus (GPa) = 43.64394 52.57995 48.11195
# Shear Modulus (GPa) = 19.75907 25.11454 22.43680
#
# Velocity S-wave (km/s) = 2.91864 3.29049 3.11013
# Velocity P-wave (km/s) = 5.49305 6.09134 5.79992
#
# Compressibility (1/GPa) = 0.02291269
#
# Stress axis : x y z
#
# Youngs Moduli (GPa) = 27.56090 35.34864 64.87798
#
# Poissons Ratio (x) = 0.78742 -0.20487
# Poissons Ratio (y) = 0.61394 0.61107
# Poissons Ratio (z) = -0.08703 0.33294
#
# Static dielectric constant tensor:
#      x y z
#    x 1.867260 0.000000 0.000000 
#    y 0.000000 1.868860 0.000000 
#    z 0.000000 0.000000 1.952830 
# 
# From -- ./inp_files/3337.got.cif
#   From: 2010.05.17/outbox.cif.g08.bks.cpg/sg45_2_cif.got.tgz:3337.got - 2010.06.03 19:51:22.
