data_PCOD9377614
_publ_section_title
;
Structure prediction by ZEFSAII (Michael W. Deem and Ramdas Pophale) SiO2 
 PCOD9377614
Probable space group: I B A 2
;
_chemical_formula_sum "Si O2"
_cell_formula_units_Z 48
_cell_length_a 8.531322
_cell_length_b 16.474915
_cell_length_c 14.229938
_cell_angle_alpha 90.000000
_cell_angle_beta 90.000000
_cell_angle_gamma 90.000000
_cell_volume 2000.057698
_symmetry_space_group_name_H-M "I B A 2"
_symmetry_group_IT_number 45
_symmetry_cell_setting 'orthorhombic'
loop_
_space_group_symop_operation_xyz
x,y,z
-x,-y,z
-x,y,1/2+z
x,-y,1/2+z
1/2+x,1/2+y,1/2+z
1/2-x,1/2-y,1/2+z
1/2-x,1/2+y,z
1/2+x,1/2-y,z
loop_
_atom_site_type_symbol
_atom_site_label
_atom_site_fract_x
_atom_site_fract_y
_atom_site_fract_z
Si Si1 0.182441 0.422394 0.303570
Si Si2 0.120802 0.168825 0.663160
Si Si3 0.862579 0.711889 0.002184
Si Si4 0.829900 0.933204 0.190169
Si Si5 0.111178 0.680178 0.280210
Si Si6 0.803675 0.624077 0.515024
O O1 0.265465 0.348473 0.250843
O O2 0.275197 0.498594 0.262245
O O3 0.201543 0.417599 0.414501
O O4 0.002082 0.399545 0.282828
O O5 0.224066 0.174399 0.567676
O O6 0.050754 0.253411 0.704338
O O7 0.005476 0.090905 0.660671
O O8 0.833772 0.807637 0.021491
O O9 0.029471 0.670037 0.024300
O O10 0.859344 0.705111 0.888400
O O11 0.773798 0.850351 0.239243
O O12 0.726174 0.940091 0.096544
#
# Coordination Sequence:
#
# PCOD9377614 Si02
#       6
#     8   8   8   8   8   8
#     4  11  26  47  69 107 153 198 251 303 385 445
#     4  12  24  44  74 113 145 195 250 313 374 441
#     4  11  24  42  76 110 143 185 257 312 365 445
#     4  12  26  44  73 106 154 199 243 314 378 451
#     4  11  24  44  74 108 146 199 250 310 367 451
#     4  11  24  45  74 106 146 193 248 310 374 447
#
# _framework density 23.999307999999999
#
# number of rings (size 3 to 8) (size 9 to 14) (size 15 to 20)
#    0.000    0.667    3.333    4.000    2.333    2.667 
#    0.000    5.000    0.000    0.000    0.000    0.000 
#    0.000    0.000    0.000    0.000    0.000    0.000 
#
# Total GULP energy -133893.192635 kJ/mol
# GULP energy per Si atom -5578.883026 kJ/mol
# Density = 2.394468 g / cm^3
# Si number density = 23.999308 Si / 1000 Ang^3
#
#
#
# Elastic Constant Matrix: (Units=GPa)
#
#
# Indices 1 2 3 4 5 6 
#
# 1 97.7230 47.4453 61.1820 0.0000 0.0000 0.0000
# 2 47.4453 91.1549 51.2733 0.0000 0.0000 0.0000
# 3 61.1820 51.2733 195.6370 0.0000 0.0000 0.0000
# 4 0.0000 0.0000 0.0000 45.1850 0.0000 0.0000
# 5 0.0000 0.0000 0.0000 0.0000 25.7013 0.0000
# 6 0.0000 0.0000 0.0000 0.0000 0.0000 39.6836
#
#
#
# Elastic Compliance Matrix: (Units=1/GPa)
#
#
# Indices 1 2 3 4 5 6 
#
# 1 0.015176 -0.006134 -0.003138 0.000000 0.000000 0.000000
# 2 -0.006134 0.015346 -0.002104 0.000000 0.000000 0.000000
# 3 -0.003138 -0.002104 0.006644 0.000000 0.000000 0.000000
# 4 0.000000 0.000000 0.000000 0.022131 0.000000 0.000000
# 5 0.000000 0.000000 0.000000 0.000000 0.038909 0.000000
# 6 0.000000 0.000000 0.000000 0.000000 0.000000 0.025199
#
#
# Mechanical properties :
#
#
# Convention : Reuss Voigt Hill
#
# Bulk Modulus (GPa) = 69.37362 78.25735 73.81549
# Shear Modulus (GPa) = 33.12093 37.08827 35.10460
#
# Velocity S-wave (km/s) = 3.71897 3.93541 3.82872
# Velocity P-wave (km/s) = 6.88551 7.30266 7.09715
#
# Compressibility (1/GPa) = 0.01441470
#
# Stress axis : x y z
#
# Youngs Moduli (GPa) = 65.89439 65.16283 150.50298
#
# Poissons Ratio (x) = 0.39968 0.47235
# Poissons Ratio (y) = 0.40417 0.31663
# Poissons Ratio (z) = 0.20681 0.13709
#
# Static dielectric constant tensor:
#      x y z
#    x 2.018440 0.000000 0.000000 
#    y 0.000000 1.980870 0.000000 
#    z 0.000000 0.000000 1.871720 
# 
# From -- ./inp_files/5627.got.cif
#   From: 2010.05.17/outbox.cif.g08.bks.cpg/sg45_3_cif.got.tgz:5627.got - 2010.06.03 19:51:22.
