data_PCOD9377731
_publ_section_title
;
Structure prediction by ZEFSAII (Michael W. Deem and Ramdas Pophale) SiO2 
 PCOD9377731
Probable space group: I B A 2
;
_chemical_formula_sum "Si O2"
_cell_formula_units_Z 64
_cell_length_a 13.967063
_cell_length_b 21.644452
_cell_length_c 10.722880
_cell_angle_alpha 90.000000
_cell_angle_beta 90.000000
_cell_angle_gamma 90.000000
_cell_volume 3241.627684
_symmetry_space_group_name_H-M "I B A 2"
_symmetry_group_IT_number 45
_symmetry_cell_setting 'orthorhombic'
loop_
_space_group_symop_operation_xyz
x,y,z
-x,-y,z
-x,y,1/2+z
x,-y,1/2+z
1/2+x,1/2+y,1/2+z
1/2-x,1/2-y,1/2+z
1/2-x,1/2+y,z
1/2+x,1/2-y,z
loop_
_atom_site_type_symbol
_atom_site_label
_atom_site_fract_x
_atom_site_fract_y
_atom_site_fract_z
Si Si1 0.847827 0.188196 0.569260
Si Si2 0.431053 0.913621 0.569667
Si Si3 0.123690 0.727587 0.066370
Si Si4 0.708158 0.548716 0.573797
Si Si5 0.931053 0.413621 0.790240
Si Si6 0.708157 0.548717 0.286110
Si Si7 0.623690 0.772412 0.793540
Si Si8 0.347827 0.311804 0.290650
O O1 0.736779 0.210197 0.567817
O O2 0.843870 0.114719 0.591284
O O3 0.894682 0.227052 0.679300
O O4 0.885900 0.200273 0.429955
O O5 0.426089 0.838918 0.575118
O O6 0.322504 0.937784 0.584678
O O7 0.464379 0.930142 0.429953
O O8 0.500000 0.933955 0.679953
O O9 0.105318 0.772947 0.180610
O O10 0.103550 0.755111 0.929955
O O11 0.691320 0.528428 0.429954
O O12 0.681135 0.500000 0.679954
O O13 0.822504 0.437783 0.775229
O O14 0.926090 0.338918 0.784790
O O15 0.656129 0.614719 0.268625
O O16 0.736779 0.789803 0.792093
#
# Coordination Sequence:
#
# PCOD9377731 Si02
#       8
#     8   8   8   8   8   8   8   8
#     4   8  14  25  40  57  76  97 124 161 202 239
#     4   9  18  30  41  56  80 108 138 170 199 230
#     4   8  14  25  40  57  76  97 124 161 202 239
#     4   9  18  30  41  56  80 108 138 170 199 230
#     4   9  18  30  41  56  80 108 138 170 199 230
#     4   9  18  30  41  56  80 108 138 170 199 230
#     4   8  14  25  40  57  76  97 124 161 202 239
#     4   8  14  25  40  57  76  97 124 161 202 239
#
# _framework density 19.743167
#
# number of rings (size 3 to 8) (size 9 to 14) (size 15 to 20)
#    0.000    3.500    0.000    3.000    0.000    3.500 
#    0.000    7.500    0.000    0.000    0.000    0.000 
#    0.000    1.000    0.000   11.000    0.000    9.000 
#
# Total GULP energy -178430.344663 kJ/mol
# GULP energy per Si atom -5575.948271 kJ/mol
# Density = 1.969823 g / cm^3
# Si number density = 19.743167 Si / 1000 Ang^3
#
#
#
# Elastic Constant Matrix: (Units=GPa)
#
#
# Indices 1 2 3 4 5 6 
#
# 1 35.2038 12.7610 14.9854 0.0000 0.0000 0.0000
# 2 12.7610 112.6222 117.4068 0.0000 0.0000 0.0000
# 3 14.9854 117.4068 189.1663 0.0008 -0.0002 0.0001
# 4 0.0000 0.0000 0.0008 8.7910 -0.0001 0.0001
# 5 0.0000 0.0000 -0.0002 -0.0001 6.4515 0.0000
# 6 0.0000 0.0000 0.0001 0.0001 0.0000 6.5118
#
#
#
# Elastic Compliance Matrix: (Units=1/GPa)
#
#
# Indices 1 2 3 4 5 6 
#
# 1 0.029660 -0.002582 -0.000747 0.000000 0.000000 0.000000
# 2 -0.002582 0.025380 -0.015548 0.000001 0.000000 0.000000
# 3 -0.000747 -0.015548 0.014995 -0.000001 0.000000 0.000000
# 4 0.000000 0.000001 -0.000001 0.113753 0.000001 -0.000002
# 5 0.000000 0.000000 0.000000 0.000001 0.155002 0.000000
# 6 0.000000 0.000000 0.000000 -0.000002 0.000000 0.153567
#
#
# Mechanical properties :
#
#
# Convention : Reuss Voigt Hill
#
# Bulk Modulus (GPa) = 30.97707 69.69987 50.33847
# Shear Modulus (GPa) = 9.24435 17.14013 13.19224
#
# Velocity S-wave (km/s) = 2.16621 2.94964 2.58775
# Velocity P-wave (km/s) = 4.68836 6.85423 5.87202
#
# Compressibility (1/GPa) = 0.03228195
#
# Stress axis : x y z
#
# Youngs Moduli (GPa) = 33.71546 39.40118 66.68776
#
# Poissons Ratio (x) = 0.10172 0.04983
# Poissons Ratio (y) = 0.08704 1.03684
# Poissons Ratio (z) = 0.02519 0.61260
#
# Static dielectric constant tensor:
#      x y z
#    x 1.696370 0.000000 0.000000 
#    y 0.000000 1.673730 0.000000 
#    z 0.000000 0.000000 1.700960 
# 
# From -- ./inp_files/2421.got.cif
#   From: 2010.05.17/outbox.cif.g08.bks.cpg/sg45_2_cif.got.tgz:2421.got - 2010.06.03 19:51:22.
