data_PCOD9377712
_publ_section_title
;
Structure prediction by ZEFSAII (Michael W. Deem and Ramdas Pophale) SiO2 
 PCOD9377712
Probable space group: I B A 2
;
_chemical_formula_sum "Si O2"
_cell_formula_units_Z 48
_cell_length_a 9.656660
_cell_length_b 17.772821
_cell_length_c 12.286945
_cell_angle_alpha 90.000000
_cell_angle_beta 90.000000
_cell_angle_gamma 90.000000
_cell_volume 2108.760324
_symmetry_space_group_name_H-M "I B A 2"
_symmetry_group_IT_number 45
_symmetry_cell_setting 'orthorhombic'
loop_
_space_group_symop_operation_xyz
x,y,z
-x,-y,z
-x,y,1/2+z
x,-y,1/2+z
1/2+x,1/2+y,1/2+z
1/2-x,1/2-y,1/2+z
1/2-x,1/2+y,z
1/2+x,1/2-y,z
loop_
_atom_site_type_symbol
_atom_site_label
_atom_site_fract_x
_atom_site_fract_y
_atom_site_fract_z
Si Si1 0.657714 0.477566 0.127820
Si Si2 0.221532 0.112996 0.341617
Si Si3 0.605129 0.932280 0.537907
Si Si4 0.930583 0.729906 0.109671
Si Si5 0.921715 0.132745 0.441825
Si Si6 0.177152 0.769977 0.259246
O O1 0.500000 0.500000 0.153506
O O2 0.710835 0.424426 0.223892
O O3 0.760650 0.547175 0.111100
O O4 0.648983 0.430435 0.015637
O O5 0.335914 0.074298 0.416411
O O6 0.265735 0.199591 0.327723
O O7 0.072529 0.107608 0.400117
O O8 0.534927 0.853159 0.567679
O O9 0.500000 0.000000 0.550865
O O10 0.775373 0.723841 0.155079
O O11 0.026106 0.752451 0.211331
O O12 0.941133 0.793775 0.018309
O O13 0.833368 0.158479 0.337661
#
# Coordination Sequence:
#
# PCOD9377712 Si02
#       6
#     8   8   8   8   8   8
#     4  12  28  48  76 109 151 194 250 307 367 450
#     4  12  26  48  73 114 143 196 251 298 376 438
#     4  12  29  49  74 109 156 195 236 311 382 441
#     4  12  27  48  76 110 149 192 250 302 369 436
#     4  12  25  48  78 107 145 194 253 301 363 434
#     4  12  25  45  80 110 143 191 248 311 357 437
#
# _framework density 22.762187999999998
#
# number of rings (size 3 to 8) (size 9 to 14) (size 15 to 20)
#    0.000    0.000    6.667    2.000    4.667    3.333 
#    0.000    0.000    0.000    0.000    0.000    0.000 
#    0.000    0.000    0.000    0.000    0.000    0.000 
#
# Total GULP energy -134522.767601 kJ/mol
# GULP energy per Si atom -5605.115317 kJ/mol
# Density = 2.271038 g / cm^3
# Si number density = 22.762188 Si / 1000 Ang^3
#
#
#
# Elastic Constant Matrix: (Units=GPa)
#
#
# Indices 1 2 3 4 5 6 
#
# 1 44.1684 -9.3437 4.7853 0.0001 0.0000 0.0000
# 2 -9.3437 71.4555 7.8857 0.0000 0.0000 0.0000
# 3 4.7853 7.8857 76.1137 -0.0001 -0.0001 0.0000
# 4 0.0001 0.0000 -0.0001 20.0202 -0.0001 0.0000
# 5 0.0000 0.0000 -0.0001 -0.0001 16.9428 0.0000
# 6 0.0000 0.0000 0.0000 0.0000 0.0000 30.1516
#
#
#
# Elastic Compliance Matrix: (Units=1/GPa)
#
#
# Indices 1 2 3 4 5 6 
#
# 1 0.023531 0.003278 -0.001819 0.000000 0.000000 0.000000
# 2 0.003278 0.014613 -0.001720 0.000000 0.000000 0.000000
# 3 -0.001819 -0.001720 0.013431 0.000000 0.000000 0.000000
# 4 0.000000 0.000000 0.000000 0.049950 0.000000 0.000000
# 5 0.000000 0.000000 0.000000 0.000000 0.059022 0.000000
# 6 0.000000 0.000000 0.000000 0.000000 0.000000 0.033166
#
#
# Mechanical properties :
#
#
# Convention : Reuss Voigt Hill
#
# Bulk Modulus (GPa) = 19.58770 22.04356 20.81563
# Shear Modulus (GPa) = 23.66836 25.98361 24.82599
#
# Velocity S-wave (km/s) = 3.22811 3.38231 3.30611
# Velocity P-wave (km/s) = 4.74534 4.99587 4.87222
#
# Compressibility (1/GPa) = 0.05105245
#
# Stress axis : x y z
#
# Youngs Moduli (GPa) = 42.49696 68.43149 74.45573
#
# Poissons Ratio (x) = -0.22430 0.13543
# Poissons Ratio (y) = -0.13929 0.12807
# Poissons Ratio (z) = 0.07730 0.11771
#
# Static dielectric constant tensor:
#      x y z
#    x 1.807720 0.000000 0.000000 
#    y 0.000000 1.822360 0.000000 
#    z 0.000000 0.000000 1.825530 
# 
# From -- ./inp_files/3699.got.cif
#   From: 2010.05.17/outbox.cif.g08.bks.cpg/sg45_2_cif.got.tgz:3699.got - 2010.06.03 19:51:22.
