data_PCOD9377611
_publ_section_title
;
Structure prediction by ZEFSAII (Michael W. Deem and Ramdas Pophale) SiO2 
 PCOD9377611
Probable space group: I B A 2
;
_chemical_formula_sum "Si O2"
_cell_formula_units_Z 40
_cell_length_a 31.897462
_cell_length_b 4.694258
_cell_length_c 9.795551
_cell_angle_alpha 90.000000
_cell_angle_beta 90.000000
_cell_angle_gamma 90.000000
_cell_volume 1466.736008
_symmetry_space_group_name_H-M "I B A 2"
_symmetry_group_IT_number 45
_symmetry_cell_setting 'orthorhombic'
loop_
_space_group_symop_operation_xyz
x,y,z
-x,-y,z
-x,y,1/2+z
x,-y,1/2+z
1/2+x,1/2+y,1/2+z
1/2-x,1/2-y,1/2+z
1/2-x,1/2+y,z
1/2+x,1/2-y,z
loop_
_atom_site_type_symbol
_atom_site_label
_atom_site_fract_x
_atom_site_fract_y
_atom_site_fract_z
Si Si1 0.104435 0.960115 0.889330
Si Si2 0.278125 0.788482 0.486128
Si Si3 0.528108 0.244183 0.731439
Si Si4 0.828993 0.363582 0.260254
Si Si5 0.903206 0.445867 0.564999
O O1 0.063313 0.083741 0.815945
O O2 0.146744 0.091457 0.825451
O O3 0.100051 0.113528 0.035982
O O4 0.103063 0.629002 0.926602
O O5 0.265323 0.462072 0.466459
O O6 0.294572 0.806532 0.641800
O O7 0.308834 0.935541 0.376585
O O8 0.500000 0.500000 0.673384
O O9 0.553320 0.053958 0.623956
O O10 0.500000 0.000000 0.806405
O O11 0.865706 0.498102 0.167896
#
# Coordination Sequence:
#
# PCOD9377611 Si02
#       5
#     8   8   8   8   8
#     4  11  25  44  72 104 144 198 245 302 368 437
#     4  12  28  48  76 110 149 188 243 308 380 442
#     4  11  24  42  66 104 148 192 248 307 366 432
#     4  11  26  50  76 108 150 192 250 299 373 452
#     4  11  25  44  72 104 144 198 245 302 368 437
#
# _framework density 27.271440999999999
#
# number of rings (size 3 to 8) (size 9 to 14) (size 15 to 20)
#    0.000    0.800    2.000    3.600    2.800   12.800 
#    0.000    0.000    0.000    0.000    0.000    0.000 
#    0.000    0.000    0.000    0.000    0.000    0.000 
#
# Total GULP energy -112095.518625 kJ/mol
# GULP energy per Si atom -5604.775931 kJ/mol
# Density = 2.720937 g / cm^3
# Si number density = 27.271441 Si / 1000 Ang^3
#
#
#
# Elastic Constant Matrix: (Units=GPa)
#
#
# Indices 1 2 3 4 5 6 
#
# 1 138.4309 30.4191 37.1949 0.0000 0.0000 0.0000
# 2 30.4191 128.3649 23.7165 0.0000 0.0000 0.0000
# 3 37.1949 23.7165 93.3814 0.0000 0.0000 0.0000
# 4 0.0000 0.0000 0.0000 45.5471 0.0000 0.0000
# 5 0.0000 0.0000 0.0000 0.0000 40.8770 0.0000
# 6 0.0000 0.0000 0.0000 0.0000 0.0000 40.1507
#
#
#
# Elastic Compliance Matrix: (Units=1/GPa)
#
#
# Indices 1 2 3 4 5 6 
#
# 1 0.008332 -0.001428 -0.002956 0.000000 0.000000 0.000000
# 2 -0.001428 0.008419 -0.001569 0.000000 0.000000 0.000000
# 3 -0.002956 -0.001569 0.012285 0.000000 0.000000 0.000000
# 4 0.000000 0.000000 0.000000 0.021955 0.000000 0.000000
# 5 0.000000 0.000000 0.000000 0.000000 0.024464 0.000000
# 6 0.000000 0.000000 0.000000 0.000000 0.000000 0.024906
#
#
# Mechanical properties :
#
#
# Convention : Reuss Voigt Hill
#
# Bulk Modulus (GPa) = 58.38273 60.31535 59.34904
# Shear Modulus (GPa) = 42.38119 43.23804 42.80962
#
# Velocity S-wave (km/s) = 3.94642 3.98612 3.96632
# Velocity P-wave (km/s) = 6.49770 6.58408 6.54104
#
# Compressibility (1/GPa) = 0.01712835
#
# Stress axis : x y z
#
# Youngs Moduli (GPa) = 120.02048 118.78327 81.40206
#
# Poissons Ratio (x) = 0.16966 0.24062
# Poissons Ratio (y) = 0.17143 0.12774
# Poissons Ratio (z) = 0.35477 0.18640
#
# Static dielectric constant tensor:
#      x y z
#    x 2.161600 0.000000 0.000000 
#    y 0.000000 2.033260 0.000000 
#    z 0.000000 0.000000 2.167350 
# 
# From -- ./inp_files/4915.got.cif
#   From: 2010.05.17/outbox.cif.g08.bks.cpg/sg45_3_cif.got.tgz:4915.got - 2010.06.03 19:51:22.
