data_PCOD9377105
_publ_section_title
;
Structure prediction by ZEFSAII (Michael W. Deem and Ramdas Pophale) SiO2 
 PCOD9377105
Probable space group: I B A 2
;
_chemical_formula_sum "Si O2"
_cell_formula_units_Z 64
_cell_length_a 15.449305
_cell_length_b 21.763818
_cell_length_c 9.637493
_cell_angle_alpha 90.000000
_cell_angle_beta 90.000000
_cell_angle_gamma 90.000000
_cell_volume 3240.470769
_symmetry_space_group_name_H-M "I B A 2"
_symmetry_group_IT_number 45
_symmetry_cell_setting 'orthorhombic'
loop_
_space_group_symop_operation_xyz
x,y,z
-x,-y,z
-x,y,1/2+z
x,-y,1/2+z
1/2+x,1/2+y,1/2+z
1/2-x,1/2-y,1/2+z
1/2-x,1/2+y,z
1/2+x,1/2-y,z
loop_
_atom_site_type_symbol
_atom_site_label
_atom_site_fract_x
_atom_site_fract_y
_atom_site_fract_z
Si Si1 0.711880 0.475269 0.111080
Si Si2 0.896225 0.394953 0.438374
Si Si3 0.352049 0.746442 0.250496
Si Si4 0.762685 0.191605 0.019431
Si Si5 0.596256 0.406116 0.555470
Si Si6 0.542389 0.129942 0.238820
Si Si7 0.428797 0.384707 0.734476
Si Si8 0.330654 0.026574 0.858870
O O1 0.649750 0.530953 0.064407
O O2 0.652676 0.423300 0.178873
O O3 0.776654 0.502863 0.226190
O O4 0.765017 0.451393 0.978389
O O5 0.808097 0.357023 0.461336
O O6 0.953617 0.382172 0.574594
O O7 0.877014 0.466756 0.422396
O O8 0.947703 0.373609 0.303265
O O9 0.284526 0.765841 0.131246
O O10 0.302511 0.729024 0.391645
O O11 0.414251 0.804660 0.269019
O O12 0.407594 0.686736 0.209764
O O13 0.838076 0.149956 0.086294
O O14 0.515407 0.405393 0.657716
O O15 0.564313 0.396351 0.398454
O O16 0.601834 0.077663 0.310169
#
# Coordination Sequence:
#
# PCOD9377105 Si02
#       8
#     8   8   8   8   8   8   8   8
#     4  12  23  42  68  97 131 168 215 272 334 393
#     4  11  24  45  63  97 133 169 220 279 332 390
#     4  10  24  44  62 100 126 174 226 262 334 400
#     4  10  22  44  66  88 132 172 218 280 322 398
#     4  11  24  45  63  97 133 169 220 279 332 390
#     4  11  26  41  66  97 133 172 220 272 332 397
#     4  11  26  41  66  97 133 172 220 272 332 397
#     4  12  23  42  68  97 131 168 215 272 334 393
#
# _framework density 19.750216999999999
#
# number of rings (size 3 to 8) (size 9 to 14) (size 15 to 20)
#    0.000    1.000    3.750    2.250    5.250    9.000 
#    0.000    0.000    0.000    0.000    0.000    0.000 
#    0.000    0.000    0.000    0.000    0.000    0.000 
#
# Total GULP energy -179041.219963 kJ/mol
# GULP energy per Si atom -5595.038124 kJ/mol
# Density = 1.970526 g / cm^3
# Si number density = 19.750217 Si / 1000 Ang^3
#
#
#
# Elastic Constant Matrix: (Units=GPa)
#
#
# Indices 1 2 3 4 5 6 
#
# 1 22.5120 -15.7382 -2.7915 0.0000 0.0000 0.0000
# 2 -15.7382 82.0981 -1.4870 0.0000 0.0000 0.0000
# 3 -2.7915 -1.4870 37.9523 0.0000 0.0000 0.0000
# 4 0.0000 0.0000 0.0000 31.7820 0.0000 0.0000
# 5 0.0000 0.0000 0.0000 0.0000 37.2740 0.0000
# 6 0.0000 0.0000 0.0000 0.0000 0.0000 8.3228
#
#
#
# Elastic Compliance Matrix: (Units=1/GPa)
#
#
# Indices 1 2 3 4 5 6 
#
# 1 0.051960 0.010037 0.004215 0.000000 0.000000 0.000000
# 2 0.010037 0.014128 0.001292 0.000000 0.000000 0.000000
# 3 0.004215 0.001292 0.026710 0.000000 0.000000 0.000000
# 4 0.000000 0.000000 0.000000 0.031464 0.000000 0.000000
# 5 0.000000 0.000000 0.000000 0.000000 0.026828 0.000000
# 6 0.000000 0.000000 0.000000 0.000000 0.000000 0.120152
#
#
# Mechanical properties :
#
#
# Convention : Reuss Voigt Hill
#
# Bulk Modulus (GPa) = 8.07193 11.39212 9.73202
# Shear Modulus (GPa) = 17.76512 26.31436 22.03974
#
# Velocity S-wave (km/s) = 3.00240 3.65411 3.34417
# Velocity P-wave (km/s) = 4.01436 4.85633 4.45528
#
# Compressibility (1/GPa) = 0.12388608
#
# Stress axis : x y z
#
# Youngs Moduli (GPa) = 19.24541 70.78113 37.43985
#
# Poissons Ratio (x) = -0.71044 -0.15781
# Poissons Ratio (y) = -0.19317 -0.04837
# Poissons Ratio (z) = -0.08112 -0.09144
#
# Static dielectric constant tensor:
#      x y z
#    x 1.678680 0.000000 0.000000 
#    y 0.000000 1.668670 0.000000 
#    z 0.000000 0.000000 1.678350 
# 
# From -- ./inp_files/2212.got.cif
#   From: 2010.05.17/outbox.cif.g08.bks.cpg/sg45_2_cif.got.tgz:2212.got - 2010.06.03 19:51:22.
