data_PCOD9377679
_publ_section_title
;
Structure prediction by ZEFSAII (Michael W. Deem and Ramdas Pophale) SiO2 
 PCOD9377679
Probable space group: I B A 2
;
_chemical_formula_sum "Si O2"
_cell_formula_units_Z 40
_cell_length_a 11.431227
_cell_length_b 13.136799
_cell_length_c 11.505579
_cell_angle_alpha 90.000000
_cell_angle_beta 90.000000
_cell_angle_gamma 90.000000
_cell_volume 1727.789708
_symmetry_space_group_name_H-M "I B A 2"
_symmetry_group_IT_number 45
_symmetry_cell_setting 'orthorhombic'
loop_
_space_group_symop_operation_xyz
x,y,z
-x,-y,z
-x,y,1/2+z
x,-y,1/2+z
1/2+x,1/2+y,1/2+z
1/2-x,1/2-y,1/2+z
1/2-x,1/2+y,z
1/2+x,1/2-y,z
loop_
_atom_site_type_symbol
_atom_site_label
_atom_site_fract_x
_atom_site_fract_y
_atom_site_fract_z
Si Si1 0.604202 0.657969 0.968460
Si Si2 0.880762 0.141404 0.605439
Si Si3 0.802790 0.623870 0.404547
Si Si4 0.804734 0.365004 0.644801
Si Si5 0.000000 0.500000 0.034965
Si Si6 0.500000 0.500000 0.282483
O O1 0.648897 0.761161 0.910361
O O2 0.535141 0.588068 0.876910
O O3 0.508454 0.680078 0.067131
O O4 0.716303 0.615497 0.038047
O O5 0.804329 0.113895 0.493018
O O6 0.817694 0.242286 0.653795
O O7 0.905706 0.044929 0.686896
O O8 0.766819 0.599788 0.273059
O O9 0.907334 0.555920 0.453026
O O10 0.926062 0.420826 0.612884
#
# Coordination Sequence:
#
# PCOD9377679 Si02
#       6
#     8   8   8   8   4   4
#     4  11  26  48  76 112 150 201 267 327 406 457
#     4  11  26  48  76 112 150 201 267 327 406 457
#     4  11  26  50  74 110 157 205 254 326 397 485
#     4  11  26  50  74 110 157 205 254 326 397 485
#     4  12  26  48  74 112 148 210 256 302 402 478
#     4  12  26  48  78 112 152 200 260 336 382 484
#
# _framework density 23.150967000000001
#
# number of rings (size 3 to 8) (size 9 to 14) (size 15 to 20)
#    0.000    0.800    4.000    1.200    8.400    0.000 
#    3.600    0.000    0.000    0.000    0.000    0.000 
#    0.000    0.000    0.000    0.000    0.000    0.000 
#
# Total GULP energy -111564.455098 kJ/mol
# GULP energy per Si atom -5578.222755 kJ/mol
# Density = 2.309827 g / cm^3
# Si number density = 23.150967 Si / 1000 Ang^3
#
#
#
# Elastic Constant Matrix: (Units=GPa)
#
#
# Indices 1 2 3 4 5 6 
#
# 1 117.5180 53.3446 56.1070 0.0000 0.0000 0.0000
# 2 53.3446 145.5168 63.2166 0.0000 0.0000 0.0000
# 3 56.1070 63.2166 151.2842 0.0000 0.0000 0.0000
# 4 0.0000 0.0000 0.0000 31.9485 0.0000 0.0000
# 5 0.0000 0.0000 0.0000 0.0000 46.8020 0.0000
# 6 0.0000 0.0000 0.0000 0.0000 0.0000 38.6809
#
#
#
# Elastic Compliance Matrix: (Units=1/GPa)
#
#
# Indices 1 2 3 4 5 6 
#
# 1 0.011210 -0.002814 -0.002982 0.000000 0.000000 0.000000
# 2 -0.002814 0.009103 -0.002760 0.000000 0.000000 0.000000
# 3 -0.002982 -0.002760 0.008869 0.000000 0.000000 0.000000
# 4 0.000000 0.000000 0.000000 0.031300 0.000000 0.000000
# 5 0.000000 0.000000 0.000000 0.000000 0.021367 0.000000
# 6 0.000000 0.000000 0.000000 0.000000 0.000000 0.025853
#
#
# Mechanical properties :
#
#
# Convention : Reuss Voigt Hill
#
# Bulk Modulus (GPa) = 82.84654 84.40615 83.62634
# Shear Modulus (GPa) = 38.80872 39.59635 39.20254
#
# Velocity S-wave (km/s) = 4.09875 4.14013 4.11949
# Velocity P-wave (km/s) = 7.63300 7.70665 7.66991
#
# Compressibility (1/GPa) = 0.01207051
#
# Stress axis : x y z
#
# Youngs Moduli (GPa) = 89.20350 109.85687 112.75009
#
# Poissons Ratio (x) = 0.30917 0.33618
# Poissons Ratio (y) = 0.25104 0.31119
# Poissons Ratio (z) = 0.26597 0.30320
#
# Static dielectric constant tensor:
#      x y z
#    x 1.902960 0.000000 0.000000 
#    y 0.000000 1.904330 0.000000 
#    z 0.000000 0.000000 1.853620 
# 
# From -- ./inp_files/3609.got.cif
#   From: 2010.05.17/outbox.cif.g08.bks.cpg/sg45_2_cif.got.tgz:3609.got - 2010.06.03 19:51:22.
