data_PCOD9377950
_publ_section_title
;
Structure prediction by ZEFSAII (Michael W. Deem and Ramdas Pophale) SiO2 
 PCOD9377950
Probable space group: I M A 2
;
_chemical_formula_sum "Si O2"
_cell_formula_units_Z 64
_cell_length_a 8.521340
_cell_length_b 27.455000
_cell_length_c 19.066243
_cell_angle_alpha 90.000000
_cell_angle_beta 90.000000
_cell_angle_gamma 90.000000
_cell_volume 4460.612179
_symmetry_space_group_name_H-M "I M A 2"
_symmetry_group_IT_number 46
_symmetry_cell_setting 'orthorhombic'
loop_
_space_group_symop_operation_xyz
x,y,z
-x,-y,z
1/2-x,y,z
1/2+x,-y,z
1/2+x,1/2+y,1/2+z
1/2-x,1/2-y,1/2+z
-x,1/2+y,1/2+z
x,1/2-y,1/2+z
loop_
_atom_site_type_symbol
_atom_site_label
_atom_site_fract_x
_atom_site_fract_y
_atom_site_fract_z
Si Si1 0.938237 0.746042 0.620550
Si Si2 0.939173 0.447131 0.620469
Si Si3 0.938985 0.350977 0.380048
Si Si4 0.439751 0.255306 0.459576
Si Si5 0.937615 0.149799 0.199171
Si Si6 0.062159 0.793663 0.749512
Si Si7 0.563817 0.801440 0.328766
Si Si8 0.439449 0.947181 0.957994
O O1 0.750000 0.747775 0.623291
O O2 0.990446 0.749643 0.539928
O O3 0.992917 0.694533 0.653757
O O4 0.006611 0.788711 0.669852
O O5 0.750000 0.448105 0.621622
O O6 0.991605 0.401616 0.667371
O O7 0.988543 0.439567 0.539243
O O8 0.000000 0.500000 0.643150
O O9 0.750000 0.350415 0.385572
O O10 0.977509 0.339601 0.298684
O O11 0.995381 0.402222 0.410724
O O12 0.000495 0.305926 0.426489
O O13 0.250000 0.256597 0.458051
O O14 0.489110 0.211092 0.407879
O O15 0.750000 0.152744 0.193321
O O16 0.984649 0.157947 0.280209
O O17 0.250000 0.786252 0.752219
O O18 0.977537 0.748566 0.788049
O O19 0.750000 0.809275 0.328247
O O20 0.250000 0.947879 0.956706
O O21 0.500000 0.000000 0.935461
#
# Coordination Sequence:
#
# PCOD9377950 Si02
#       8
#     8   8   8   8   8   8   8   8
#     4  10  18  27  39  57  80 106 132 161 192 227
#     4   9  18  29  41  56  77 102 130 162 193 223
#     4   9  17  28  42  57  77 104 133 162 195 229
#     4   9  18  28  39  57  80 104 133 162 191 227
#     4  10  18  28  41  58  78 103 133 163 193 229
#     4   9  16  26  39  56  76 101 130 160 192 229
#     4   9  16  27  40  55  76 102 129 160 193 228
#     4   9  17  29  41  56  77 102 130 162 194 224
#
# _framework density 14.347807
#
# number of rings (size 3 to 8) (size 9 to 14) (size 15 to 20)
#    0.000    2.750    0.000    3.750    0.000    4.500 
#    0.000    2.500    0.000    0.000    0.000    0.000 
#    0.000    1.000    0.000    4.500    0.000    4.000 
#
# Total GULP energy -178145.451035 kJ/mol
# GULP energy per Si atom -5567.045345 kJ/mol
# Density = 1.431515 g / cm^3
# Si number density = 14.347807 Si / 1000 Ang^3
#
#
#
# Elastic Constant Matrix: (Units=GPa)
#
#
# Indices 1 2 3 4 5 6 
#
# 1 11.5675 13.8477 14.3823 0.0000 0.0000 0.0000
# 2 13.8477 95.5867 63.6973 0.0000 0.0000 0.0000
# 3 14.3823 63.6973 117.4141 0.0001 0.0001 0.0000
# 4 0.0000 0.0000 0.0001 27.6880 0.0000 0.0000
# 5 0.0000 0.0000 0.0001 0.0000 9.9577 0.0000
# 6 0.0000 0.0000 0.0000 0.0000 0.0000 18.3718
#
#
#
# Elastic Compliance Matrix: (Units=1/GPa)
#
#
# Indices 1 2 3 4 5 6 
#
# 1 0.108613 -0.010759 -0.007468 0.000000 0.000000 0.000000
# 2 -0.010759 0.017451 -0.008149 0.000000 0.000000 0.000000
# 3 -0.007468 -0.008149 0.013853 0.000000 0.000000 0.000000
# 4 0.000000 0.000000 0.000000 0.036117 0.000000 0.000000
# 5 0.000000 0.000000 0.000000 0.000000 0.100425 0.000000
# 6 0.000000 0.000000 0.000000 0.000000 0.000000 0.054431
#
#
# Mechanical properties :
#
#
# Convention : Reuss Voigt Hill
#
# Bulk Modulus (GPa) = 11.47243 45.38033 28.42638
# Shear Modulus (GPa) = 12.11548 20.04625 16.08086
#
# Velocity S-wave (km/s) = 2.90903 3.74192 3.35145
# Velocity P-wave (km/s) = 4.39279 7.09695 5.90184
#
# Compressibility (1/GPa) = 0.08716549
#
# Stress axis : x y z
#
# Youngs Moduli (GPa) = 9.20700 57.30385 72.18868
#
# Poissons Ratio (x) = 0.61650 0.53908
# Poissons Ratio (y) = 0.09905 0.58829
# Poissons Ratio (z) = 0.06876 0.46698
#
# Static dielectric constant tensor:
#      x y z
#    x 1.492360 0.000000 0.000000 
#    y 0.000000 1.458290 0.000000 
#    z 0.000000 0.000000 1.506550 
# 
# From -- ./inp_files/21511.got.cif
#   From: 2010.05.17/outbox.cif.g08.bks.cpg/sg46_11_cif.got.tgz:21511.got - 2010.06.03 19:58:25.
