data_PCOD9377608
_publ_section_title
;
Structure prediction by ZEFSAII (Michael W. Deem and Ramdas Pophale) SiO2 
 PCOD9377608
Probable space group: I B A 2
;
_chemical_formula_sum "Si O2"
_cell_formula_units_Z 48
_cell_length_a 11.980914
_cell_length_b 17.802625
_cell_length_c 9.451072
_cell_angle_alpha 90.000000
_cell_angle_beta 90.000000
_cell_angle_gamma 90.000000
_cell_volume 2015.835394
_symmetry_space_group_name_H-M "I B A 2"
_symmetry_group_IT_number 45
_symmetry_cell_setting 'orthorhombic'
loop_
_space_group_symop_operation_xyz
x,y,z
-x,-y,z
-x,y,1/2+z
x,-y,1/2+z
1/2+x,1/2+y,1/2+z
1/2-x,1/2-y,1/2+z
1/2-x,1/2+y,z
1/2+x,1/2-y,z
loop_
_atom_site_type_symbol
_atom_site_label
_atom_site_fract_x
_atom_site_fract_y
_atom_site_fract_z
Si Si1 0.626202 0.381290 0.311130
Si Si2 0.321796 0.457113 0.238631
Si Si3 0.476583 0.834698 0.649437
Si Si4 0.626202 0.881289 0.424714
Si Si5 0.023418 0.834699 0.086406
Si Si6 0.321797 0.042887 0.997215
O O1 0.616744 0.471175 0.307854
O O2 0.750000 0.362749 0.367922
O O3 0.536293 0.348946 0.420635
O O4 0.597101 0.349247 0.156997
O O5 0.397421 0.396174 0.161705
O O6 0.250000 0.424209 0.367923
O O7 0.249999 0.500000 0.117924
O O8 0.597102 0.849245 0.578846
O O9 0.463707 0.848946 0.815208
O O10 0.442008 0.750000 0.617922
O O11 0.397422 0.896173 0.574138
O O12 0.616744 0.971175 0.427992
#
# Coordination Sequence:
#
# PCOD9377608 Si02
#       6
#     8   8   8   8   8   8
#     4  11  26  48  72 108 152 203 258 305 388 464
#     4  11  23  47  77 109 147 204 259 307 381 470
#     4  12  27  46  74 113 153 199 257 325 386 446
#     4  11  26  48  72 108 152 203 258 305 388 464
#     4  12  27  46  74 113 153 199 257 325 386 446
#     4  11  23  47  77 109 147 204 259 307 381 470
#
# _framework density 23.811468000000001
#
# number of rings (size 3 to 8) (size 9 to 14) (size 15 to 20)
#    0.000    0.667    6.667    2.000    4.667    5.333 
#    0.000    0.000    0.000    0.000    0.000    0.000 
#    0.000    0.000    0.000    0.000    0.000    0.000 
#
# Total GULP energy -134337.686171 kJ/mol
# GULP energy per Si atom -5597.403590 kJ/mol
# Density = 2.375727 g / cm^3
# Si number density = 23.811468 Si / 1000 Ang^3
#
#
#
# Elastic Constant Matrix: (Units=GPa)
#
#
# Indices 1 2 3 4 5 6 
#
# 1 95.9659 13.7383 37.5156 0.0000 0.0000 0.0000
# 2 13.7383 121.7351 3.0047 -0.0001 0.0000 0.0000
# 3 37.5156 3.0047 92.0790 -0.0003 0.0000 0.0000
# 4 0.0000 -0.0001 -0.0003 33.1600 0.0000 0.0000
# 5 0.0000 0.0000 0.0000 0.0000 47.6873 0.0000
# 6 0.0000 0.0000 0.0000 0.0000 0.0000 8.6147
#
#
#
# Elastic Compliance Matrix: (Units=1/GPa)
#
#
# Indices 1 2 3 4 5 6 
#
# 1 0.012595 -0.001296 -0.005089 0.000000 0.000000 0.000000
# 2 -0.001296 0.008354 0.000255 0.000000 0.000000 0.000000
# 3 -0.005089 0.000255 0.012926 0.000000 0.000000 0.000000
# 4 0.000000 0.000000 0.000000 0.030157 0.000000 0.000000
# 5 0.000000 0.000000 0.000000 0.000000 0.020970 0.000000
# 6 0.000000 0.000000 0.000000 0.000000 0.000000 0.116080
#
#
# Mechanical properties :
#
#
# Convention : Reuss Voigt Hill
#
# Bulk Modulus (GPa) = 46.26300 46.47747 46.37023
# Shear Modulus (GPa) = 22.67086 34.92718 28.79902
#
# Velocity S-wave (km/s) = 3.08896 3.83407 3.48150
# Velocity P-wave (km/s) = 5.67391 6.25791 5.97305
#
# Compressibility (1/GPa) = 0.02161555
#
# Stress axis : x y z
#
# Youngs Moduli (GPa) = 79.39348 119.69604 77.36638
#
# Poissons Ratio (x) = 0.15511 0.39375
# Poissons Ratio (y) = 0.10288 -0.01975
# Poissons Ratio (z) = 0.40407 -0.03056
#
# Static dielectric constant tensor:
#      x y z
#    x 2.021150 0.000000 0.000000 
#    y 0.000000 1.861570 0.000000 
#    z 0.000000 0.000000 1.949150 
# 
# From -- ./inp_files/1714.got.cif
#   From: 2010.05.17/outbox.cif.g08.bks.cpg/sg45_1_cif.got.tgz:1714.got - 2010.06.03 19:51:22.
