data_PCOD9377694
_publ_section_title
;
Structure prediction by ZEFSAII (Michael W. Deem and Ramdas Pophale) SiO2 
 PCOD9377694
Probable space group: I B A 2
;
_chemical_formula_sum "Si O2"
_cell_formula_units_Z 60
_cell_length_a 14.216224
_cell_length_b 12.384741
_cell_length_c 14.359991
_cell_angle_alpha 90.000000
_cell_angle_beta 90.000000
_cell_angle_gamma 90.000000
_cell_volume 2528.281078
_symmetry_space_group_name_H-M "I B A 2"
_symmetry_group_IT_number 45
_symmetry_cell_setting 'orthorhombic'
loop_
_space_group_symop_operation_xyz
x,y,z
-x,-y,z
-x,y,1/2+z
x,-y,1/2+z
1/2+x,1/2+y,1/2+z
1/2-x,1/2-y,1/2+z
1/2-x,1/2+y,z
1/2+x,1/2-y,z
loop_
_atom_site_type_symbol
_atom_site_label
_atom_site_fract_x
_atom_site_fract_y
_atom_site_fract_z
Si Si1 0.353661 0.868975 0.948460
Si Si2 0.803799 0.479258 0.102189
Si Si3 0.639829 0.415055 0.389495
Si Si4 0.000000 0.000000 0.543054
Si Si5 0.355746 0.669154 0.074932
Si Si6 0.624342 0.219976 0.263216
Si Si7 0.693987 0.610050 0.257006
Si Si8 0.918842 0.664257 0.747221
O O1 0.243426 0.879277 0.922128
O O2 0.406368 0.880494 0.851656
O O3 0.367060 0.955505 0.030098
O O4 0.377029 0.753909 0.994519
O O5 0.734443 0.400129 0.046653
O O6 0.732526 0.556397 0.161143
O O7 0.863605 0.410759 0.175346
O O8 0.576078 0.444865 0.476222
O O9 0.597802 0.314177 0.333858
O O10 0.647933 0.517147 0.319969
O O11 0.944071 0.092221 0.596835
O O12 0.330410 0.726876 0.171254
O O13 0.707504 0.147480 0.304173
O O14 0.470298 0.835431 0.228872
O O15 0.627159 0.714681 0.245107
#
# Coordination Sequence:
#
# PCOD9377694 Si02
#       8
#     8   8   8   4   8   8   8   8
#     4  12  24  46  76 104 153 197 249 314 386 456
#     4  12  24  47  74 104 149 206 242 306 390 457
#     4  12  24  45  73 108 144 202 245 316 386 450
#     4  12  28  40  72 116 144 186 270 320 376 454
#     4  12  25  45  69 112 147 188 257 319 379 463
#     4  12  26  45  76 106 149 196 256 309 386 460
#     4  12  22  48  74 103 150 192 248 309 379 462
#     4  12  27  47  75 111 150 202 252 317 380 466
#
# _framework density 23.731538
#
# number of rings (size 3 to 8) (size 9 to 14) (size 15 to 20)
#    0.000    0.000    8.000    2.400    1.867    2.133 
#    0.000    2.667    0.000    0.000    0.000    0.000 
#    0.000    0.000    0.000    0.000    0.000    0.000 
#
# Total GULP energy -168110.266540 kJ/mol
# GULP energy per Si atom -5603.675551 kJ/mol
# Density = 2.367752 g / cm^3
# Si number density = 23.731538 Si / 1000 Ang^3
#
#
#
# Elastic Constant Matrix: (Units=GPa)
#
#
# Indices 1 2 3 4 5 6 
#
# 1 64.0431 21.3022 -4.3746 0.0000 0.0000 0.0000
# 2 21.3022 84.7717 30.4181 0.0000 0.0000 0.0000
# 3 -4.3746 30.4181 60.3994 0.0000 0.0000 0.0000
# 4 0.0000 0.0000 0.0000 5.7215 0.0000 0.0000
# 5 0.0000 0.0000 0.0000 0.0000 25.4733 0.0000
# 6 0.0000 0.0000 0.0000 0.0000 0.0000 31.5907
#
#
#
# Elastic Compliance Matrix: (Units=1/GPa)
#
#
# Indices 1 2 3 4 5 6 
#
# 1 0.017930 -0.006068 0.004355 0.000000 0.000000 0.000000
# 2 -0.006068 0.016452 -0.008725 0.000000 0.000000 0.000000
# 3 0.004355 -0.008725 0.021266 0.000000 0.000000 0.000000
# 4 0.000000 0.000000 0.000000 0.174779 0.000000 0.000000
# 5 0.000000 0.000000 0.000000 0.000000 0.039257 0.000000
# 6 0.000000 0.000000 0.000000 0.000000 0.000000 0.031655
#
#
# Mechanical properties :
#
#
# Convention : Reuss Voigt Hill
#
# Bulk Modulus (GPa) = 28.75942 33.76728 31.26335
# Shear Modulus (GPa) = 14.97873 23.34833 19.16353
#
# Velocity S-wave (km/s) = 2.51504 3.14004 2.84476
# Velocity P-wave (km/s) = 4.53640 5.23510 4.89822
#
# Compressibility (1/GPa) = 0.03477122
#
# Stress axis : x y z
#
# Youngs Moduli (GPa) = 55.77118 60.78277 47.02360
#
# Poissons Ratio (x) = 0.36885 -0.20478
# Poissons Ratio (y) = 0.33844 0.41028
# Poissons Ratio (z) = -0.24287 0.53033
#
# Static dielectric constant tensor:
#      x y z
#    x 1.852740 0.000000 0.000000 
#    y 0.000000 1.985490 0.000000 
#    z 0.000000 0.000000 1.865150 
# 
# From -- ./inp_files/6981.got.cif
#   From: 2010.05.17/outbox.cif.g08.bks.cpg/sg45_4_cif.got.tgz:6981.got - 2010.06.03 19:51:22.
