data_PCOD9377564
_publ_section_title
;
Structure prediction by ZEFSAII (Michael W. Deem and Ramdas Pophale) SiO2 
 PCOD9377564
Probable space group: I B A 2
;
_chemical_formula_sum "Si O2"
_cell_formula_units_Z 52
_cell_length_a 15.523755
_cell_length_b 7.651915
_cell_length_c 19.781359
_cell_angle_alpha 90.000000
_cell_angle_beta 90.000000
_cell_angle_gamma 90.000000
_cell_volume 2349.757486
_symmetry_space_group_name_H-M "I B A 2"
_symmetry_group_IT_number 45
_symmetry_cell_setting 'orthorhombic'
loop_
_space_group_symop_operation_xyz
x,y,z
-x,-y,z
-x,y,1/2+z
x,-y,1/2+z
1/2+x,1/2+y,1/2+z
1/2-x,1/2-y,1/2+z
1/2-x,1/2+y,z
1/2+x,1/2-y,z
loop_
_atom_site_type_symbol
_atom_site_label
_atom_site_fract_x
_atom_site_fract_y
_atom_site_fract_z
Si Si1 0.000000 0.000000 0.832120
Si Si2 0.029358 0.701848 0.077074
Si Si3 0.301765 0.336782 0.014477
Si Si4 0.536144 0.196535 0.730357
Si Si5 0.152632 0.213014 0.370975
Si Si6 0.662451 0.103190 0.836405
Si Si7 0.627351 0.278247 0.983360
O O1 0.921145 0.067163 0.876920
O O2 0.998614 0.163610 0.781788
O O3 0.966162 0.777493 0.019051
O O4 0.000000 0.500000 0.075969
O O5 0.129207 0.747197 0.063218
O O6 0.018894 0.761059 0.154653
O O7 0.333673 0.530686 0.997297
O O8 0.198995 0.336312 0.025191
O O9 0.315210 0.232892 0.944814
O O10 0.630239 0.181529 0.765360
O O11 0.500000 0.000000 0.733638
O O12 0.234865 0.119981 0.337941
O O13 0.133500 0.401258 0.338925
O O14 0.627432 0.200824 0.905690
#
# Coordination Sequence:
#
# PCOD9377564 Si02
#       7
#     4   8   8   8   8   8   8
#     4  12  24  42  66 102 134 178 222 290 326 418
#     4  11  25  44  66  96 137 179 228 282 339 409
#     4  11  23  42  67 103 131 179 226 280 346 413
#     4  11  25  45  65  97 136 178 229 277 338 403
#     4  11  23  40  72 103 137 172 232 276 348 404
#     4  11  22  45  67 103 137 181 221 290 336 412
#     4  11  23  42  71  99 137 177 230 281 342 406
#
# _framework density 22.129942
#
# number of rings (size 3 to 8) (size 9 to 14) (size 15 to 20)
#    0.000    0.923    1.538    7.846    6.462    0.615 
#    2.769    3.077    0.000    0.000    0.000    0.000 
#    0.000    0.000    0.000    0.000    0.000    0.000 
#
# Total GULP energy -144812.083920 kJ/mol
# GULP energy per Si atom -5569.695535 kJ/mol
# Density = 2.207957 g / cm^3
# Si number density = 22.129942 Si / 1000 Ang^3
#
#
#
# Elastic Constant Matrix: (Units=GPa)
#
#
# Indices 1 2 3 4 5 6 
#
# 1 70.2476 6.1230 40.0088 0.0000 0.0000 0.0000
# 2 6.1230 102.2549 7.9647 0.0000 0.0000 0.0000
# 3 40.0088 7.9647 55.7093 0.0000 0.0000 0.0000
# 4 0.0000 0.0000 0.0000 18.8672 0.0000 0.0000
# 5 0.0000 0.0000 0.0000 0.0000 -14.9222 0.0000
# 6 0.0000 0.0000 0.0000 0.0000 0.0000 22.6581
#
#
#
# Elastic Compliance Matrix: (Units=1/GPa)
#
#
# Indices 1 2 3 4 5 6 
#
# 1 0.024089 -0.000096 -0.017286 0.000000 0.000000 0.000000
# 2 -0.000096 0.009890 -0.001345 0.000000 0.000000 0.000000
# 3 -0.017286 -0.001345 0.030557 0.000000 0.000000 0.000000
# 4 0.000000 0.000000 0.000000 0.053002 0.000000 0.000000
# 5 0.000000 0.000000 0.000000 0.000000 -0.067014 0.000000
# 6 0.000000 0.000000 0.000000 0.000000 0.000000 0.044134
#
#
# Mechanical properties :
#
#
# Convention : Reuss Voigt Hill
#
# Bulk Modulus (GPa) = 36.92558 37.37831 37.15194
# Shear Modulus (GPa) = 35.42591 16.92831 26.17711
#
# Velocity S-wave (km/s) = 4.00536 2.76877 3.44304
# Velocity P-wave (km/s) = 6.17354 5.21042 5.71231
#
# Compressibility (1/GPa) = 0.02708150
#
# Stress axis : x y z
#
# Youngs Moduli (GPa) = 41.51287 101.11223 32.72567
#
# Poissons Ratio (x) = 0.00971 0.56570
# Poissons Ratio (y) = 0.00399 0.04402
# Poissons Ratio (z) = 0.71760 0.13600
#
# Static dielectric constant tensor:
#      x y z
#    x 2.001420 0.000000 0.000000 
#    y 0.000000 1.885710 0.000000 
#    z 0.000000 0.000000 1.782400 
# 
# From -- ./inp_files/8327.got.cif
#   From: 2010.05.17/outbox.cif.g08.bks.cpg/sg45_5_cif.got.tgz:8327.got - 2010.06.03 19:51:22.
