data_PCOD9377416
_publ_section_title
;
Structure prediction by ZEFSAII (Michael W. Deem and Ramdas Pophale) SiO2 
 PCOD9377416
Probable space group: I B A 2
;
_chemical_formula_sum "Si O2"
_cell_formula_units_Z 48
_cell_length_a 13.988008
_cell_length_b 14.176158
_cell_length_c 8.990925
_cell_angle_alpha 90.000000
_cell_angle_beta 90.000000
_cell_angle_gamma 90.000000
_cell_volume 1782.866365
_symmetry_space_group_name_H-M "I B A 2"
_symmetry_group_IT_number 45
_symmetry_cell_setting 'orthorhombic'
loop_
_space_group_symop_operation_xyz
x,y,z
-x,-y,z
-x,y,1/2+z
x,-y,1/2+z
1/2+x,1/2+y,1/2+z
1/2-x,1/2-y,1/2+z
1/2-x,1/2+y,z
1/2+x,1/2-y,z
loop_
_atom_site_type_symbol
_atom_site_label
_atom_site_fract_x
_atom_site_fract_y
_atom_site_fract_z
Si Si1 0.225694 0.494083 0.148840
Si Si2 0.384719 0.133921 0.819044
Si Si3 0.284506 0.202518 0.570981
Si Si4 0.562079 0.138373 0.653380
Si Si5 0.884062 0.109133 0.484260
Si Si6 0.072701 0.844148 0.169057
O O1 0.205417 0.438566 0.305915
O O2 0.323850 0.532561 0.079142
O O3 0.187272 0.407494 0.041746
O O4 0.160787 0.585277 0.175073
O O5 0.335519 0.220647 0.732326
O O6 0.467789 0.090653 0.716291
O O7 0.433167 0.149054 0.975850
O O8 0.322250 0.292266 0.483374
O O9 0.171747 0.184376 0.586263
O O10 0.548326 0.239747 0.729039
O O11 0.908390 0.090582 0.311584
O O12 0.986000 0.123897 0.565940
#
# Coordination Sequence:
#
# PCOD9377416 Si02
#       6
#     8   8   8   8   8   8
#     4  10  25  46  71 105 150 197 249 312 379 462
#     4  10  25  42  70 111 146 190 248 319 384 451
#     4  10  25  46  73 107 145 200 248 314 386 451
#     4  12  22  45  73 110 148 188 254 321 387 453
#     4  12  26  50  75 113 150 201 255 316 388 462
#     4  12  26  46  78 108 153 199 255 315 384 473
#
# _framework density 26.922937999999998
#
# number of rings (size 3 to 8) (size 9 to 14) (size 15 to 20)
#    1.000    0.000    3.333    2.500    0.000    4.667 
#    3.000    1.667    0.000    0.000    0.000    0.000 
#    0.000    0.000    0.000    0.000    0.000    0.000 
#
# Total GULP energy -133736.494259 kJ/mol
# GULP energy per Si atom -5572.353927 kJ/mol
# Density = 2.686166 g / cm^3
# Si number density = 26.922938 Si / 1000 Ang^3
#
#
#
# Elastic Constant Matrix: (Units=GPa)
#
#
# Indices 1 2 3 4 5 6 
#
# 1 171.8548 22.0121 64.3943 0.0000 0.0000 0.0000
# 2 22.0121 73.6413 37.4315 0.0000 0.0000 0.0000
# 3 64.3943 37.4315 149.5345 0.0000 0.0000 0.0000
# 4 0.0000 0.0000 0.0000 42.1323 0.0000 0.0000
# 5 0.0000 0.0000 0.0000 0.0000 38.8376 0.0000
# 6 0.0000 0.0000 0.0000 0.0000 0.0000 31.7884
#
#
#
# Elastic Compliance Matrix: (Units=1/GPa)
#
#
# Indices 1 2 3 4 5 6 
#
# 1 0.006965 -0.000639 -0.002839 0.000000 0.000000 0.000000
# 2 -0.000639 0.015618 -0.003634 0.000000 0.000000 0.000000
# 3 -0.002839 -0.003634 0.008820 0.000000 0.000000 0.000000
# 4 0.000000 0.000000 0.000000 0.023735 0.000000 0.000000
# 5 0.000000 0.000000 0.000000 0.000000 0.025748 0.000000
# 6 0.000000 0.000000 0.000000 0.000000 0.000000 0.031458
#
#
# Mechanical properties :
#
#
# Convention : Reuss Voigt Hill
#
# Bulk Modulus (GPa) = 58.21592 71.41180 64.81386
# Shear Modulus (GPa) = 37.79478 40.63116 39.21297
#
# Velocity S-wave (km/s) = 3.75081 3.88901 3.82054
# Velocity P-wave (km/s) = 6.35832 6.83725 6.60213
#
# Compressibility (1/GPa) = 0.01717743
#
# Stress axis : x y z
#
# Youngs Moduli (GPa) = 143.58431 64.03055 113.38026
#
# Poissons Ratio (x) = 0.04089 0.32192
# Poissons Ratio (y) = 0.09169 0.41207
# Poissons Ratio (z) = 0.40768 0.23271
#
# Static dielectric constant tensor:
#      x y z
#    x 2.205320 0.000000 0.000000 
#    y 0.000000 2.272580 0.000000 
#    z 0.000000 0.000000 2.218920 
# 
# From -- ./inp_files/1717.got.cif
#   From: 2010.05.17/outbox.cif.g08.bks.cpg/sg45_1_cif.got.tgz:1717.got - 2010.06.03 19:51:22.
