data_PCOD9377232
_publ_section_title
;
Structure prediction by ZEFSAII (Michael W. Deem and Ramdas Pophale) SiO2 
 PCOD9377232
Probable space group: I B A 2
;
_chemical_formula_sum "Si O2"
_cell_formula_units_Z 52
_cell_length_a 9.870332
_cell_length_b 18.666355
_cell_length_c 10.830276
_cell_angle_alpha 90.000000
_cell_angle_beta 90.000000
_cell_angle_gamma 90.000000
_cell_volume 1995.403852
_symmetry_space_group_name_H-M "I B A 2"
_symmetry_group_IT_number 45
_symmetry_cell_setting 'orthorhombic'
loop_
_space_group_symop_operation_xyz
x,y,z
-x,-y,z
-x,y,1/2+z
x,-y,1/2+z
1/2+x,1/2+y,1/2+z
1/2-x,1/2-y,1/2+z
1/2-x,1/2+y,z
1/2+x,1/2-y,z
loop_
_atom_site_type_symbol
_atom_site_label
_atom_site_fract_x
_atom_site_fract_y
_atom_site_fract_z
Si Si1 0.928257 0.819599 0.093510
Si Si2 0.882470 0.322082 0.485275
Si Si3 0.129568 0.394846 0.404512
Si Si4 0.500000 0.000000 0.736631
Si Si5 0.193851 0.036851 0.179269
Si Si6 0.885005 0.805463 0.825260
Si Si7 0.703550 0.460984 0.458042
O O1 0.828328 0.883777 0.126751
O O2 0.859096 0.741005 0.084943
O O3 0.042242 0.818369 0.197215
O O4 0.970813 0.830303 0.948973
O O5 0.868118 0.278215 0.356908
O O6 0.783980 0.388558 0.483499
O O7 0.036758 0.350209 0.498201
O O8 0.243595 0.346301 0.342326
O O9 0.199338 0.468810 0.445017
O O10 0.019314 0.426015 0.310219
O O11 0.351319 0.988162 0.681592
O O12 0.141587 0.039074 0.320616
O O13 0.128776 0.979340 0.085436
#
# Coordination Sequence:
#
# PCOD9377232 Si02
#       7
#     8   8   8   4   8   8   8
#     4  10  25  52  75 112 165 212 263 321 413 490
#     4  10  23  44  75 115 156 200 260 329 392 475
#     4  11  20  48  78 117 149 204 264 334 391 477
#     4  10  24  42  86 116 156 192 284 334 400 458
#     4  11  24  46  81 115 157 203 262 331 399 477
#     4  10  25  49  78 112 158 216 258 324 404 493
#     4  11  23  45  80 119 148 201 262 329 401 456
#
# _framework density 26.059888000000001
#
# number of rings (size 3 to 8) (size 9 to 14) (size 15 to 20)
#    0.923    0.615    4.615    0.000    2.154    4.923 
#    8.308    4.615    0.000    0.000    0.000    0.000 
#    0.000    0.000    0.000    0.000    0.000    0.000 
#
# Total GULP energy -145253.260420 kJ/mol
# GULP energy per Si atom -5586.663862 kJ/mol
# Density = 2.600057 g / cm^3
# Si number density = 26.059888 Si / 1000 Ang^3
#
#
#
# Elastic Constant Matrix: (Units=GPa)
#
#
# Indices 1 2 3 4 5 6 
#
# 1 103.6705 59.5330 35.5326 -0.0001 0.0000 0.0000
# 2 59.5330 185.8155 62.3186 -0.0001 0.0001 0.0000
# 3 35.5326 62.3186 170.1997 -0.0002 0.0001 0.0000
# 4 -0.0001 -0.0001 -0.0002 36.2421 0.0001 0.0000
# 5 0.0000 0.0001 0.0001 0.0001 1.2869 0.0000
# 6 0.0000 0.0000 0.0000 0.0000 0.0000 32.4317
#
#
#
# Elastic Compliance Matrix: (Units=1/GPa)
#
#
# Indices 1 2 3 4 5 6 
#
# 1 0.012052 -0.003440 -0.001257 0.000000 0.000000 0.000000
# 2 -0.003440 0.007117 -0.001888 0.000000 0.000000 0.000000
# 3 -0.001257 -0.001888 0.006829 0.000000 0.000000 0.000000
# 4 0.000000 0.000000 0.000000 0.027592 -0.000001 0.000000
# 5 0.000000 0.000000 0.000000 -0.000001 0.777041 0.000000
# 6 0.000000 0.000000 0.000000 0.000000 0.000000 0.030834
#
#
# Mechanical properties :
#
#
# Convention : Reuss Voigt Hill
#
# Bulk Modulus (GPa) = 77.94528 86.05045 81.99787
# Shear Modulus (GPa) = 5.68887 34.14558 19.91722
#
# Velocity S-wave (km/s) = 1.47910 3.62370 2.76757
# Velocity P-wave (km/s) = 5.73515 7.11338 6.46112
#
# Compressibility (1/GPa) = 0.01282951
#
# Stress axis : x y z
#
# Youngs Moduli (GPa) = 82.97383 140.51108 146.43504
#
# Poissons Ratio (x) = 0.48334 0.18401
# Poissons Ratio (y) = 0.28542 0.27643
# Poissons Ratio (z) = 0.10426 0.26524
#
# Static dielectric constant tensor:
#      x y z
#    x 2.058680 0.000000 0.000000 
#    y 0.000000 2.014230 0.000000 
#    z 0.000000 0.000000 2.270870 
# 
# From -- ./inp_files/4216.got.cif
#   From: 2010.05.17/outbox.cif.g08.bks.cpg/sg45_3_cif.got.tgz:4216.got - 2010.06.03 19:51:22.
