data_PCOD9377507
_publ_section_title
;
Structure prediction by ZEFSAII (Michael W. Deem and Ramdas Pophale) SiO2 
 PCOD9377507
Probable space group: I B A 2
;
_chemical_formula_sum "Si O2"
_cell_formula_units_Z 56
_cell_length_a 14.423632
_cell_length_b 11.933913
_cell_length_c 13.532806
_cell_angle_alpha 90.000000
_cell_angle_beta 90.000000
_cell_angle_gamma 90.000000
_cell_volume 2329.406896
_symmetry_space_group_name_H-M "I B A 2"
_symmetry_group_IT_number 45
_symmetry_cell_setting 'orthorhombic'
loop_
_space_group_symop_operation_xyz
x,y,z
-x,-y,z
-x,y,1/2+z
x,-y,1/2+z
1/2+x,1/2+y,1/2+z
1/2-x,1/2-y,1/2+z
1/2-x,1/2+y,z
1/2+x,1/2-y,z
loop_
_atom_site_type_symbol
_atom_site_label
_atom_site_fract_x
_atom_site_fract_y
_atom_site_fract_z
Si Si1 0.859623 0.810939 0.477560
Si Si2 0.801935 0.564520 0.078357
Si Si3 0.296499 0.199411 0.783158
Si Si4 0.000000 0.000000 0.457472
Si Si5 0.500000 0.000000 0.107548
Si Si6 0.665568 0.608304 0.659339
Si Si7 0.517476 0.240273 0.642651
Si Si8 0.885636 0.900276 0.795917
O O1 0.755717 0.844313 0.513640
O O2 0.859835 0.755061 0.368714
O O3 0.918689 0.730507 0.546512
O O4 0.917656 0.926743 0.501606
O O5 0.813894 0.613897 0.190823
O O6 0.905676 0.530253 0.047336
O O7 0.734047 0.457279 0.086860
O O8 0.269396 0.310597 0.723099
O O9 0.213201 0.137011 0.835995
O O10 0.048142 0.911201 0.387176
O O11 0.490411 0.111558 0.173648
O O12 0.578925 0.688519 0.625643
O O13 0.622566 0.515502 0.733880
O O14 0.573945 0.310996 0.721171
#
# Coordination Sequence:
#
# PCOD9377507 Si02
#       8
#     8   8   8   4   4   8   8   8
#     4  12  26  43  75 111 148 196 259 310 376 448
#     4  11  26  47  72 110 147 205 244 311 380 454
#     4  11  23  45  71 107 150 195 241 306 373 452
#     4  12  24  42  76 120 142 188 258 322 378 448
#     4  12  28  44  74 102 152 200 250 300 396 456
#     4  11  20  45  76 103 142 191 248 306 382 446
#     4  12  23  45  72 107 144 195 250 314 373 454
#     4  11  22  42  75 104 148 190 241 314 378 445
#
# _framework density 24.040454
#
# number of rings (size 3 to 8) (size 9 to 14) (size 15 to 20)
#    0.000    0.571    7.143    1.714    0.000    2.286 
#    0.000    0.714    0.000    0.000    0.000    0.000 
#    0.000    0.000    0.000    0.000    0.000    0.000 
#
# Total GULP energy -156028.003988 kJ/mol
# GULP energy per Si atom -5572.428714 kJ/mol
# Density = 2.398574 g / cm^3
# Si number density = 24.040454 Si / 1000 Ang^3
#
#
#
# Elastic Constant Matrix: (Units=GPa)
#
#
# Indices 1 2 3 4 5 6 
#
# 1 126.6737 37.1680 10.6737 0.0000 0.0000 0.0000
# 2 37.1680 138.7395 17.5707 0.0000 0.0000 0.0000
# 3 10.6737 17.5707 46.1928 0.0000 0.0000 0.0000
# 4 0.0000 0.0000 0.0000 -5.2627 0.0000 0.0000
# 5 0.0000 0.0000 0.0000 0.0000 19.4914 0.0000
# 6 0.0000 0.0000 0.0000 0.0000 0.0000 39.0264
#
#
#
# Elastic Compliance Matrix: (Units=1/GPa)
#
#
# Indices 1 2 3 4 5 6 
#
# 1 0.008628 -0.002163 -0.001171 0.000000 0.000000 0.000000
# 2 -0.002163 0.008115 -0.002587 0.000000 0.000000 0.000000
# 3 -0.001171 -0.002587 0.022903 0.000000 0.000000 0.000000
# 4 0.000000 0.000000 0.000000 -0.190018 0.000000 0.000000
# 5 0.000000 0.000000 0.000000 0.000000 0.051305 0.000000
# 6 0.000000 0.000000 0.000000 0.000000 0.000000 0.025624
#
#
# Mechanical properties :
#
#
# Convention : Reuss Voigt Hill
#
# Bulk Modulus (GPa) = 35.96615 49.15896 42.56256
# Shear Modulus (GPa) = -95.53963 27.06394 -34.23785
#
# Velocity S-wave (km/s) = -6.31090 3.35888 -3.77792
# Velocity P-wave (km/s) = 6.17334 5.96118 1.13457
#
# Compressibility (1/GPa) = 0.02780392
#
# Stress axis : x y z
#
# Youngs Moduli (GPa) = 115.90685 123.23093 43.66257
#
# Poissons Ratio (x) = 0.26655 0.05112
# Poissons Ratio (y) = 0.25071 0.11295
# Poissons Ratio (z) = 0.13570 0.31878
#
# Static dielectric constant tensor:
#      x y z
#    x 2.037100 0.000000 0.000000 
#    y 0.000000 2.009860 0.000000 
#    z 0.000000 0.000000 1.934630 
# 
# From -- ./inp_files/6541.got.cif
#   From: 2010.05.17/outbox.cif.g08.bks.cpg/sg45_4_cif.got.tgz:6541.got - 2010.06.03 19:51:22.
