data_PCOD9377572
_publ_section_title
;
Structure prediction by ZEFSAII (Michael W. Deem and Ramdas Pophale) SiO2 
 PCOD9377572
Probable space group: I B A 2
;
_chemical_formula_sum "Si O2"
_cell_formula_units_Z 60
_cell_length_a 4.985709
_cell_length_b 27.401910
_cell_length_c 18.785170
_cell_angle_alpha 90.000000
_cell_angle_beta 90.000000
_cell_angle_gamma 90.000000
_cell_volume 2566.391403
_symmetry_space_group_name_H-M "I B A 2"
_symmetry_group_IT_number 45
_symmetry_cell_setting 'orthorhombic'
loop_
_space_group_symop_operation_xyz
x,y,z
-x,-y,z
-x,y,1/2+z
x,-y,1/2+z
1/2+x,1/2+y,1/2+z
1/2-x,1/2-y,1/2+z
1/2-x,1/2+y,z
1/2+x,1/2-y,z
loop_
_atom_site_type_symbol
_atom_site_label
_atom_site_fract_x
_atom_site_fract_y
_atom_site_fract_z
Si Si1 0.086248 0.554925 0.676760
Si Si2 0.668336 0.453477 0.830551
Si Si3 0.098143 0.346781 0.737834
Si Si4 0.575886 0.652844 0.332095
Si Si5 0.699539 0.580456 0.024251
Si Si6 0.000000 0.500000 0.942362
Si Si7 0.697444 0.143428 0.483272
Si Si8 0.226101 0.219263 0.107250
O O1 0.249888 0.544758 0.748778
O O2 0.240991 0.577144 0.608994
O O3 0.000000 0.500000 0.655015
O O4 0.882619 0.597390 0.706000
O O5 0.500000 0.500000 0.847738
O O6 0.513433 0.404347 0.842344
O O7 0.905970 0.457923 0.887116
O O8 0.297119 0.329285 0.800896
O O9 0.174222 0.312242 0.673467
O O10 0.800191 0.342780 0.770291
O O11 0.710693 0.664816 0.407083
O O12 0.402823 0.600220 0.008168
O O13 0.782783 0.527956 0.991116
O O14 0.903012 0.620113 0.990028
O O15 0.718070 0.187330 0.538278
O O16 0.414123 0.266945 0.108532
#
# Coordination Sequence:
#
# PCOD9377572 Si02
#       8
#     8   8   8   8   8   4   8   8
#     4  11  23  41  64 103 142 189 245 291 341 418
#     4  11  23  37  64  93 143 190 242 286 341 410
#     4  11  25  45  73 104 143 184 239 290 363 423
#     4  11  24  43  71 102 138 192 229 291 356 425
#     4  12  26  42  66 100 143 192 236 301 349 418
#     4  12  24  42  60 102 144 198 242 282 348 422
#     4  12  26  47  72 102 143 180 239 298 370 436
#     4  12  27  50  78 107 138 184 236 304 380 445
#
# _framework density 23.379128000000001
#
# number of rings (size 3 to 8) (size 9 to 14) (size 15 to 20)
#    0.000    0.533    4.000    4.000    7.467    1.067 
#    0.000    4.000    0.000    0.000    0.000    0.000 
#    0.000    0.000    0.000    0.000    0.000    0.000 
#
# Total GULP energy -167696.648787 kJ/mol
# GULP energy per Si atom -5589.888293 kJ/mol
# Density = 2.332592 g / cm^3
# Si number density = 23.379128 Si / 1000 Ang^3
#
#
#
# Elastic Constant Matrix: (Units=GPa)
#
#
# Indices 1 2 3 4 5 6 
#
# 1 70.0299 -5.3377 4.4365 0.0000 0.0000 0.0000
# 2 -5.3377 27.8076 10.9234 0.0000 0.0000 0.0000
# 3 4.4365 10.9234 142.3446 -0.0001 0.0000 0.0000
# 4 0.0000 0.0000 -0.0001 211.0381 -0.0001 0.0000
# 5 0.0000 0.0000 0.0000 -0.0001 49.7534 0.0000
# 6 0.0000 0.0000 0.0000 0.0000 0.0000 32.6871
#
#
#
# Elastic Compliance Matrix: (Units=1/GPa)
#
#
# Indices 1 2 3 4 5 6 
#
# 1 0.014557 0.003065 -0.000689 0.000000 0.000000 0.000000
# 2 0.003065 0.037724 -0.002990 0.000000 0.000000 0.000000
# 3 -0.000689 -0.002990 0.007276 0.000000 0.000000 0.000000
# 4 0.000000 0.000000 0.000000 0.004738 0.000000 0.000000
# 5 0.000000 0.000000 0.000000 0.000000 0.020099 0.000000
# 6 0.000000 0.000000 0.000000 0.000000 0.000000 0.030593
#
#
# Mechanical properties :
#
#
# Convention : Reuss Voigt Hill
#
# Bulk Modulus (GPa) = 17.14433 28.91407 23.02920
# Shear Modulus (GPa) = 36.85684 74.03973 55.44829
#
# Velocity S-wave (km/s) = 3.97480 5.63364 4.87529
# Velocity P-wave (km/s) = 5.33053 7.39672 6.44694
#
# Compressibility (1/GPa) = 0.05832831
#
# Stress axis : x y z
#
# Youngs Moduli (GPa) = 68.69619 26.50804 137.43514
#
# Poissons Ratio (x) = -0.08124 0.09468
# Poissons Ratio (y) = -0.21054 0.41099
# Poissons Ratio (z) = 0.04732 0.07927
#
# Static dielectric constant tensor:
#      x y z
#    x 1.903520 0.000000 0.000000 
#    y 0.000000 1.795710 0.000000 
#    z 0.000000 0.000000 1.914190 
# 
# From -- ./inp_files/7334.got.cif
#   From: 2010.05.17/outbox.cif.g08.bks.cpg/sg45_4_cif.got.tgz:7334.got - 2010.06.03 19:51:22.
