data_PCOD9377944
_publ_section_title
;
Structure prediction by ZEFSAII (Michael W. Deem and Ramdas Pophale) SiO2 
 PCOD9377944
Probable space group: I M A 2
;
_chemical_formula_sum "Si O2"
_cell_formula_units_Z 64
_cell_length_a 25.531093
_cell_length_b 21.263333
_cell_length_c 5.571642
_cell_angle_alpha 90.000000
_cell_angle_beta 90.000000
_cell_angle_gamma 90.000000
_cell_volume 3024.711460
_symmetry_space_group_name_H-M "I M A 2"
_symmetry_group_IT_number 46
_symmetry_cell_setting 'orthorhombic'
loop_
_space_group_symop_operation_xyz
x,y,z
-x,-y,z
1/2-x,y,z
1/2+x,-y,z
1/2+x,1/2+y,1/2+z
1/2-x,1/2-y,1/2+z
-x,1/2+y,1/2+z
x,1/2-y,1/2+z
loop_
_atom_site_type_symbol
_atom_site_label
_atom_site_fract_x
_atom_site_fract_y
_atom_site_fract_z
Si Si1 0.963047 0.561683 0.443650
Si Si2 0.507609 0.095893 0.443668
Si Si3 0.190158 0.063666 0.443620
Si Si4 0.842433 0.418531 0.443556
Si Si5 0.447599 0.729939 0.944976
Si Si6 0.826557 0.220779 0.945319
Si Si7 0.889552 0.447359 0.943541
Si Si8 0.161560 0.060402 0.943629
O O1 0.976643 0.596380 0.694065
O O2 0.901000 0.549149 0.443679
O O3 0.000000 0.500000 0.443695
O O4 0.976609 0.596356 0.193171
O O5 0.548011 0.154822 0.443861
O O6 0.549084 0.038075 0.443760
O O7 0.250000 0.040874 0.443643
O O8 0.179586 0.094570 0.701355
O O9 0.147255 0.008333 0.443573
O O10 0.179599 0.094572 0.185875
O O11 0.812818 0.352728 0.444077
O O12 0.875269 0.415713 0.690177
O O13 0.815982 0.487879 0.443582
O O14 0.875155 0.415636 0.196648
O O15 0.473290 0.750219 0.695237
O O16 0.389957 0.763282 0.945424
O O17 0.808098 0.250241 0.695718
#
# Coordination Sequence:
#
# PCOD9377944 Si02
#       8
#     8   8   8   8   8   8   8   8
#     4  12  23  34  49  70 100 142 175 201 246 293
#     4  12  22  34  49  71 103 135 174 216 244 286
#     4  10  19  33  52  73  95 121 160 209 253 289
#     4  10  18  31  45  63  92 120 152 206 250 276
#     4  10  19  31  47  67  92 125 169 215 252 285
#     4  10  18  26  41  62  85 113 151 198 252 286
#     4  10  18  30  47  65  92 121 152 201 248 282
#     4  10  21  35  51  71  99 129 166 204 238 291
#
# _framework density 21.159043
#
# number of rings (size 3 to 8) (size 9 to 14) (size 15 to 20)
#    0.000    1.500    0.000    9.750    0.000    0.000 
#    0.000    0.000    0.000    0.000    0.000    0.000 
#    0.000  305.000    0.000    0.000    0.000  157.500 
#
# Total GULP energy -178385.028215 kJ/mol
# GULP energy per Si atom -5574.532132 kJ/mol
# Density = 2.111088 g / cm^3
# Si number density = 21.159043 Si / 1000 Ang^3
#
#
#
# Elastic Constant Matrix: (Units=GPa)
#
#
# Indices 1 2 3 4 5 6 
#
# 1 84.1396 -3.3964 16.1075 0.0000 0.0000 0.0000
# 2 -3.3964 17.5183 6.8546 0.0000 0.0000 0.0000
# 3 16.1075 6.8546 246.9999 0.0000 0.0000 0.0000
# 4 0.0000 0.0000 0.0000 15.3016 0.0000 0.0000
# 5 0.0000 0.0000 0.0000 0.0000 12.5670 0.0000
# 6 0.0000 0.0000 0.0000 0.0000 0.0000 -8.3750
#
#
#
# Elastic Compliance Matrix: (Units=1/GPa)
#
#
# Indices 1 2 3 4 5 6 
#
# 1 0.012160 0.002697 -0.000868 0.000000 0.000000 0.000000
# 2 0.002697 0.058308 -0.001794 0.000000 0.000000 0.000000
# 3 -0.000868 -0.001794 0.004155 0.000000 0.000000 0.000000
# 4 0.000000 0.000000 0.000000 0.065353 0.000000 0.000000
# 5 0.000000 0.000000 0.000000 0.000000 0.079574 0.000000
# 6 0.000000 0.000000 0.000000 0.000000 0.000000 -0.119403
#
#
# Mechanical properties :
#
#
# Convention : Reuss Voigt Hill
#
# Bulk Modulus (GPa) = 13.38802 43.08767 28.23785
# Shear Modulus (GPa) = 40.00847 25.83819 32.92333
#
# Velocity S-wave (km/s) = 4.35310 3.49827 3.94889
# Velocity P-wave (km/s) = 5.62202 6.06013 5.84518
#
# Compressibility (1/GPa) = 0.07469365
#
# Stress axis : x y z
#
# Youngs Moduli (GPa) = 82.23674 17.15027 240.67598
#
# Poissons Ratio (x) = -0.04626 0.20887
# Poissons Ratio (y) = -0.22180 0.43178
# Poissons Ratio (z) = 0.07137 0.03077
#
# Static dielectric constant tensor:
#      x y z
#    x 1.854510 0.000000 0.000000 
#    y 0.000000 1.826700 0.000000 
#    z 0.000000 0.000000 1.889270 
# 
# From -- ./inp_files/2438.got.cif
#   From: 2010.05.17/outbox.cif.g08.bks.cpg/sg46_2_cif.got.tgz:2438.got - 2010.06.03 19:58:25.
