data_PCOD9377032
_publ_section_title
;
Structure prediction by ZEFSAII (Michael W. Deem and Ramdas Pophale) SiO2 
 PCOD9377032
Probable space group: I B A 2
;
_chemical_formula_sum "Si O2"
_cell_formula_units_Z 64
_cell_length_a 18.210174
_cell_length_b 11.116167
_cell_length_c 14.759033
_cell_angle_alpha 90.000000
_cell_angle_beta 90.000000
_cell_angle_gamma 90.000000
_cell_volume 2987.631722
_symmetry_space_group_name_H-M "I B A 2"
_symmetry_group_IT_number 45
_symmetry_cell_setting 'orthorhombic'
loop_
_space_group_symop_operation_xyz
x,y,z
-x,-y,z
-x,y,1/2+z
x,-y,1/2+z
1/2+x,1/2+y,1/2+z
1/2-x,1/2-y,1/2+z
1/2-x,1/2+y,z
1/2+x,1/2-y,z
loop_
_atom_site_type_symbol
_atom_site_label
_atom_site_fract_x
_atom_site_fract_y
_atom_site_fract_z
Si Si1 0.838990 0.611982 0.796030
Si Si2 0.014964 0.869090 0.053123
Si Si3 0.292407 0.114396 0.100138
Si Si4 0.450413 0.614879 0.247155
Si Si5 0.487112 0.195393 0.386389
Si Si6 0.186045 0.857213 0.861840
Si Si7 0.689522 0.606144 0.063990
Si Si8 0.133881 0.597146 0.913079
O O1 0.844359 0.612385 0.688513
O O2 0.905778 0.660823 0.855617
O O3 0.763306 0.676704 0.818863
O O4 0.827798 0.478510 0.834956
O O5 0.962902 0.859581 0.141110
O O6 0.101704 0.872326 0.081593
O O7 0.993535 0.771179 0.979027
O O8 0.000000 0.000000 0.010879
O O9 0.274676 0.259323 0.083814
O O10 0.228315 0.011073 0.110606
O O11 0.337801 0.069107 0.012860
O O12 0.500000 0.500000 0.267004
O O13 0.483462 0.724643 0.303281
O O14 0.369290 0.591635 0.286789
O O15 0.547226 0.091895 0.400212
O O16 0.151095 0.735435 0.897875
O O17 0.194712 0.927198 0.956485
#
# Coordination Sequence:
#
# PCOD9377032 Si02
#       8
#     8   8   8   8   8   8   8   8
#     4  12  26  42  71 103 133 195 237 299 381 452
#     4  11  23  40  70 106 142 190 255 313 371 450
#     4  11  25  45  76 105 146 190 243 312 377 452
#     4  10  22  41  65  99 137 182 238 307 366 439
#     4  11  23  44  68  95 143 187 245 298 373 451
#     4  10  23  43  66  97 143 180 238 310 365 442
#     4  11  23  48  71 106 149 191 247 316 377 454
#     4  10  23  49  63  97 143 182 239 301 358 450
#
# _framework density 21.42165
#
# number of rings (size 3 to 8) (size 9 to 14) (size 15 to 20)
#    0.000    1.250    5.000    1.500    5.250    3.000 
#    4.500    1.250    0.000    0.000    0.000    0.000 
#    0.000    0.000    0.000    0.000    0.000    0.000 
#
# Total GULP energy -178332.909376 kJ/mol
# GULP energy per Si atom -5572.903418 kJ/mol
# Density = 2.137289 g / cm^3
# Si number density = 21.421650 Si / 1000 Ang^3
#
#
#
# Elastic Constant Matrix: (Units=GPa)
#
#
# Indices 1 2 3 4 5 6 
#
# 1 123.4292 32.9054 45.1063 0.0000 0.0000 0.0000
# 2 32.9054 63.0646 20.7076 0.0000 0.0000 0.0000
# 3 45.1063 20.7076 125.6317 0.0000 0.0000 0.0000
# 4 0.0000 0.0000 0.0000 16.7276 0.0000 0.0000
# 5 0.0000 0.0000 0.0000 0.0000 33.2061 0.0000
# 6 0.0000 0.0000 0.0000 0.0000 0.0000 28.9007
#
#
#
# Elastic Compliance Matrix: (Units=1/GPa)
#
#
# Indices 1 2 3 4 5 6 
#
# 1 0.010378 -0.004431 -0.002996 0.000000 0.000000 0.000000
# 2 -0.004431 0.018656 -0.001484 0.000000 0.000000 0.000000
# 3 -0.002996 -0.001484 0.009280 0.000000 0.000000 0.000000
# 4 0.000000 0.000000 0.000000 0.059782 0.000000 0.000000
# 5 0.000000 0.000000 0.000000 0.000000 0.030115 0.000000
# 6 0.000000 0.000000 0.000000 0.000000 0.000000 0.034601
#
#
# Mechanical properties :
#
#
# Convention : Reuss Voigt Hill
#
# Bulk Modulus (GPa) = 48.79945 56.61823 52.70884
# Shear Modulus (GPa) = 26.67172 29.99394 28.33283
#
# Velocity S-wave (km/s) = 3.53240 3.74594 3.64074
# Velocity P-wave (km/s) = 6.28228 6.72289 6.50631
#
# Compressibility (1/GPa) = 0.02049203
#
# Stress axis : x y z
#
# Youngs Moduli (GPa) = 96.35869 53.60157 107.75939
#
# Poissons Ratio (x) = 0.23752 0.32281
# Poissons Ratio (y) = 0.42699 0.15992
# Poissons Ratio (z) = 0.28866 0.07955
#
# Static dielectric constant tensor:
#      x y z
#    x 1.857910 0.000000 0.000000 
#    y 0.000000 1.849660 0.000000 
#    z 0.000000 0.000000 1.784390 
# 
# From -- ./inp_files/6816.got.cif
#   From: 2010.05.17/outbox.cif.g08.bks.cpg/sg45_4_cif.got.tgz:6816.got - 2010.06.03 19:51:22.
