data_PCOD9377497
_publ_section_title
;
Structure prediction by ZEFSAII (Michael W. Deem and Ramdas Pophale) SiO2 
 PCOD9377497
Probable space group: I B A 2
;
_chemical_formula_sum "Si O2"
_cell_formula_units_Z 60
_cell_length_a 9.123884
_cell_length_b 23.802948
_cell_length_c 12.433072
_cell_angle_alpha 90.000000
_cell_angle_beta 90.000000
_cell_angle_gamma 90.000000
_cell_volume 2700.156594
_symmetry_space_group_name_H-M "I B A 2"
_symmetry_group_IT_number 45
_symmetry_cell_setting 'orthorhombic'
loop_
_space_group_symop_operation_xyz
x,y,z
-x,-y,z
-x,y,1/2+z
x,-y,1/2+z
1/2+x,1/2+y,1/2+z
1/2-x,1/2-y,1/2+z
1/2-x,1/2+y,z
1/2+x,1/2-y,z
loop_
_atom_site_type_symbol
_atom_site_label
_atom_site_fract_x
_atom_site_fract_y
_atom_site_fract_z
Si Si1 0.119113 0.753630 0.328700
Si Si2 0.500000 0.000000 0.126534
Si Si3 0.431582 0.095142 0.961188
Si Si4 0.257488 0.540490 0.780449
Si Si5 0.784660 0.147397 0.181855
Si Si6 0.262228 0.914580 0.829305
Si Si7 0.138129 0.815887 0.946997
Si Si8 0.436775 0.843280 0.658412
O O1 0.196543 0.807135 0.275300
O O2 0.217029 0.716127 0.406871
O O3 0.076762 0.714021 0.226688
O O4 0.989949 0.777956 0.400732
O O5 0.434390 0.046812 0.049951
O O6 0.623357 0.024179 0.202965
O O7 0.405319 0.151745 0.030387
O O8 0.308359 0.077781 0.877044
O O9 0.590398 0.089585 0.903762
O O10 0.349760 0.586202 0.713395
O O11 0.299181 0.477907 0.818871
O O12 0.609201 0.141206 0.164827
O O13 0.855710 0.171201 0.072952
O O14 0.142736 0.875027 0.884196
O O15 0.324642 0.885389 0.720657
#
# Coordination Sequence:
#
# PCOD9377497 Si02
#       8
#     8   4   8   8   8   8   8   8
#     4  11  27  47  65 100 132 177 229 286 331 416
#     4  12  16  28  52  94 142 168 210 270 330 382
#     4  12  18  31  60  95 142 175 214 275 341 384
#     4  12  21  34  58 102 141 177 223 281 325 410
#     4  12  24  41  69  96 134 175 223 280 340 401
#     4  11  20  36  61 100 140 177 224 274 333 404
#     4  11  26  44  74  96 135 177 223 279 351 394
#     4  11  22  37  61  99 135 177 223 281 337 395
#
# _framework density 22.220932000000001
#
# number of rings (size 3 to 8) (size 9 to 14) (size 15 to 20)
#    0.000    0.533    9.333    0.000    1.867    1.067 
#    0.000    2.000    0.000    1.600    0.000    0.000 
#    0.000    0.000    0.000    0.000    0.000    0.000 
#
# Total GULP energy -167534.413776 kJ/mol
# GULP energy per Si atom -5584.480459 kJ/mol
# Density = 2.217036 g / cm^3
# Si number density = 22.220932 Si / 1000 Ang^3
#
#
#
# Elastic Constant Matrix: (Units=GPa)
#
#
# Indices 1 2 3 4 5 6 
#
# 1 16.9239 23.0786 4.5053 0.0000 0.0000 0.0000
# 2 23.0786 161.3792 50.2918 0.0000 0.0000 0.0000
# 3 4.5053 50.2918 101.2802 0.0002 0.0000 0.0000
# 4 0.0000 0.0000 0.0002 40.9708 0.0000 -0.0001
# 5 0.0000 0.0000 0.0000 0.0000 0.2894 0.0000
# 6 0.0000 0.0000 0.0000 -0.0001 0.0000 13.2700
#
#
#
# Elastic Compliance Matrix: (Units=1/GPa)
#
#
# Indices 1 2 3 4 5 6 
#
# 1 0.073860 -0.011285 0.002318 0.000000 -0.000002 0.000000
# 2 -0.011285 0.009055 -0.003995 0.000000 0.000001 0.000000
# 3 0.002318 -0.003995 0.011754 0.000000 -0.000002 0.000000
# 4 0.000000 0.000000 0.000000 0.024408 0.000002 0.000000
# 5 -0.000002 0.000001 -0.000002 0.000002 3.454898 -0.000005
# 6 0.000000 0.000000 0.000000 0.000000 -0.000005 0.075358
#
#
# Mechanical properties :
#
#
# Convention : Reuss Voigt Hill
#
# Bulk Modulus (GPa) = 14.54616 48.37051 31.45833
# Shear Modulus (GPa) = 1.35202 24.35323 12.85262
#
# Velocity S-wave (km/s) = 0.78087 3.31412 2.40761
# Velocity P-wave (km/s) = 2.71540 6.03819 4.68151
#
# Compressibility (1/GPa) = 0.06874667
#
# Stress axis : x y z
#
# Youngs Moduli (GPa) = 13.53909 110.43271 85.07751
#
# Poissons Ratio (x) = 1.24624 -0.19723
# Poissons Ratio (y) = 0.15279 0.33984
# Poissons Ratio (z) = -0.03139 0.44112
#
# Static dielectric constant tensor:
#      x y z
#    x 1.821580 0.000000 0.000000 
#    y 0.000000 1.940310 0.000000 
#    z 0.000000 0.000000 1.859400 
# 
# From -- ./inp_files/3357.got.cif
#   From: 2010.05.17/outbox.cif.g08.bks.cpg/sg45_2_cif.got.tgz:3357.got - 2010.06.03 19:51:22.
