data_PCOD9377526
_publ_section_title
;
Structure prediction by ZEFSAII (Michael W. Deem and Ramdas Pophale) SiO2 
 PCOD9377526
Probable space group: I B A 2
;
_chemical_formula_sum "Si O2"
_cell_formula_units_Z 48
_cell_length_a 9.789963
_cell_length_b 14.275864
_cell_length_c 14.527700
_cell_angle_alpha 90.000000
_cell_angle_beta 90.000000
_cell_angle_gamma 90.000000
_cell_volume 2030.393972
_symmetry_space_group_name_H-M "I B A 2"
_symmetry_group_IT_number 45
_symmetry_cell_setting 'orthorhombic'
loop_
_space_group_symop_operation_xyz
x,y,z
-x,-y,z
-x,y,1/2+z
x,-y,1/2+z
1/2+x,1/2+y,1/2+z
1/2-x,1/2-y,1/2+z
1/2-x,1/2+y,z
1/2+x,1/2-y,z
loop_
_atom_site_type_symbol
_atom_site_label
_atom_site_fract_x
_atom_site_fract_y
_atom_site_fract_z
Si Si1 0.842599 0.011636 0.587410
Si Si2 0.415706 0.090669 0.538625
Si Si3 0.688364 0.286760 0.121149
Si Si4 0.455526 0.261636 0.239121
Si Si5 0.864734 0.945097 0.802799
Si Si6 0.930566 0.412585 0.846040
O O1 0.793659 0.117829 0.565187
O O2 0.739520 0.944494 0.534378
O O3 0.833378 0.977508 0.695975
O O4 0.000000 0.000000 0.561225
O O5 0.388567 0.193982 0.582729
O O6 0.493582 0.104120 0.442532
O O7 0.500000 0.000000 0.581365
O O8 0.573139 0.322673 0.191765
O O9 0.831278 0.264453 0.170920
O O10 0.392749 0.334014 0.310106
O O11 0.537057 0.176556 0.283948
O O12 0.722610 0.949346 0.855376
O O13 0.000000 0.000000 0.832892
O O14 0.000000 0.500000 0.796697
#
# Coordination Sequence:
#
# PCOD9377526 Si02
#       6
#     8   8   8   8   8   8
#     4  11  21  42  72 106 141 184 250 319 381 442
#     4  11  25  47  67 103 151 200 246 300 386 454
#     4  12  22  41  76 106 140 192 252 317 367 438
#     4  12  22  42  72 108 140 186 247 306 371 440
#     4  11  22  44  75 106 141 189 251 318 375 442
#     4  11  26  46  67 102 152 200 241 300 381 457
#
# _framework density 23.640733999999998
#
# number of rings (size 3 to 8) (size 9 to 14) (size 15 to 20)
#    0.000    0.667    6.667    2.000    0.000    1.333 
#   12.000    3.333    0.000    0.000    0.000    0.000 
#    0.000    0.000    0.000    0.000    0.000    0.000 
#
# Total GULP energy -133823.352516 kJ/mol
# GULP energy per Si atom -5575.973022 kJ/mol
# Density = 2.358693 g / cm^3
# Si number density = 23.640734 Si / 1000 Ang^3
#
#
#
# Elastic Constant Matrix: (Units=GPa)
#
#
# Indices 1 2 3 4 5 6 
#
# 1 182.6448 11.6245 40.1476 0.0000 0.0000 0.0000
# 2 11.6245 128.4962 11.0486 0.0000 0.0000 0.0000
# 3 40.1476 11.0486 86.6177 0.0000 0.0000 0.0000
# 4 0.0000 0.0000 0.0000 14.5951 0.0000 0.0000
# 5 0.0000 0.0000 0.0000 0.0000 22.0676 0.0000
# 6 0.0000 0.0000 0.0000 0.0000 0.0000 45.8888
#
#
#
# Elastic Compliance Matrix: (Units=1/GPa)
#
#
# Indices 1 2 3 4 5 6 
#
# 1 0.006109 -0.000313 -0.002791 0.000000 0.000000 0.000000
# 2 -0.000313 0.007885 -0.000861 0.000000 0.000000 0.000000
# 3 -0.002791 -0.000861 0.012949 0.000000 0.000000 0.000000
# 4 0.000000 0.000000 0.000000 0.068516 0.000000 0.000000
# 5 0.000000 0.000000 0.000000 0.000000 0.045315 0.000000
# 6 0.000000 0.000000 0.000000 0.000000 0.000000 0.021792
#
#
# Mechanical properties :
#
#
# Convention : Reuss Voigt Hill
#
# Bulk Modulus (GPa) = 52.59824 58.15556 55.37690
# Shear Modulus (GPa) = 28.27538 38.83951 33.55745
#
# Velocity S-wave (km/s) = 3.46214 4.05768 3.77168
# Velocity P-wave (km/s) = 6.18702 6.82687 6.51480
#
# Compressibility (1/GPa) = 0.01901204
#
# Stress axis : x y z
#
# Youngs Moduli (GPa) = 163.70346 126.82910 77.22807
#
# Poissons Ratio (x) = 0.03965 0.21558
# Poissons Ratio (y) = 0.05117 0.06648
# Poissons Ratio (z) = 0.45698 0.10918
#
# Static dielectric constant tensor:
#      x y z
#    x 2.052330 0.000000 0.000000 
#    y 0.000000 1.936230 0.000000 
#    z 0.000000 0.000000 1.996050 
# 
# From -- ./inp_files/7578.got.cif
#   From: 2010.05.17/outbox.cif.g08.bks.cpg/sg45_4_cif.got.tgz:7578.got - 2010.06.03 19:51:22.
