data_PCOD9377784
_publ_section_title
;
Structure prediction by ZEFSAII (Michael W. Deem and Ramdas Pophale) SiO2 
 PCOD9377784
Probable space group: I M A 2
;
_chemical_formula_sum "Si O2"
_cell_formula_units_Z 44
_cell_length_a 21.471961
_cell_length_b 23.538738
_cell_length_c 4.924811
_cell_angle_alpha 90.000000
_cell_angle_beta 90.000000
_cell_angle_gamma 90.000000
_cell_volume 2489.112082
_symmetry_space_group_name_H-M "I M A 2"
_symmetry_group_IT_number 46
_symmetry_cell_setting 'orthorhombic'
loop_
_space_group_symop_operation_xyz
x,y,z
-x,-y,z
1/2-x,y,z
1/2+x,-y,z
1/2+x,1/2+y,1/2+z
1/2-x,1/2-y,1/2+z
-x,1/2+y,1/2+z
x,1/2-y,1/2+z
loop_
_atom_site_type_symbol
_atom_site_label
_atom_site_fract_x
_atom_site_fract_y
_atom_site_fract_z
Si Si1 0.750000 0.713094 0.168430
Si Si2 0.068684 0.529528 0.206997
Si Si3 0.097578 0.077069 0.006308
Si Si4 0.872979 0.648431 0.985552
Si Si5 0.541280 0.405690 0.697820
Si Si6 0.496123 0.212474 0.394108
O O1 0.750000 0.730250 0.482921
O O2 0.811211 0.678726 0.086597
O O3 0.110831 0.482354 0.355105
O O4 0.068001 0.584381 0.400294
O O5 0.000000 0.500000 0.207585
O O6 0.076510 0.552455 0.904791
O O7 0.139944 0.102859 0.245476
O O8 0.030860 0.074372 0.160054
O O9 0.095499 0.119959 0.751019
O O10 0.924037 0.692349 0.869312
O O11 0.536310 0.342104 0.807984
O O12 0.506949 0.265218 0.195363
#
# Coordination Sequence:
#
# PCOD9377784 Si02
#       6
#     4   8   8   8   8   8
#     4  12  24  38  52  66  86 120 162 212 254 286
#     4  10  16  27  43  62  83 103 128 169 222 270
#     4  10  19  31  47  65  85 107 136 185 237 280
#     4  11  21  34  47  64  83 111 154 197 242 281
#     4  10  18  27  41  62  83 107 137 170 214 265
#     4  11  19  29  41  57  82 113 145 182 217 254
#
# _framework density 17.676985999999999
#
# number of rings (size 3 to 8) (size 9 to 14) (size 15 to 20)
#    0.000    1.455    0.000   12.545    0.000    0.000 
#    0.000    0.000    0.000    0.000    0.000    0.000 
#    0.000    0.000    0.000    0.000    0.000    0.000 
#
# Total GULP energy -122664.297201 kJ/mol
# GULP energy per Si atom -5575.649873 kJ/mol
# Density = 1.763675 g / cm^3
# Si number density = 17.676986 Si / 1000 Ang^3
#
#
#
# Elastic Constant Matrix: (Units=GPa)
#
#
# Indices 1 2 3 4 5 6 
#
# 1 7.3296 10.7966 4.0710 0.0000 0.0000 0.0000
# 2 10.7966 65.6802 16.5189 0.0000 0.0000 0.0000
# 3 4.0710 16.5189 91.2649 0.0000 0.0000 0.0000
# 4 0.0000 0.0000 0.0000 45.0977 0.0000 0.0000
# 5 0.0000 0.0000 0.0000 0.0000 5.4909 0.0000
# 6 0.0000 0.0000 0.0000 0.0000 0.0000 16.4608
#
#
#
# Elastic Compliance Matrix: (Units=1/GPa)
#
#
# Indices 1 2 3 4 5 6 
#
# 1 0.180708 -0.028998 -0.002812 0.000000 0.000000 0.000000
# 2 -0.028998 0.020605 -0.002436 0.000000 0.000000 0.000000
# 3 -0.002812 -0.002436 0.011523 0.000000 0.000000 0.000000
# 4 0.000000 0.000000 0.000000 0.022174 0.000000 0.000000
# 5 0.000000 0.000000 0.000000 0.000000 0.182120 0.000000
# 6 0.000000 0.000000 0.000000 0.000000 0.000000 0.060750
#
#
# Mechanical properties :
#
#
# Convention : Reuss Voigt Hill
#
# Bulk Modulus (GPa) = 6.92787 25.22751 16.07769
# Shear Modulus (GPa) = 8.41062 22.26910 15.33986
#
# Velocity S-wave (km/s) = 2.18364 3.55319 2.94902
# Velocity P-wave (km/s) = 3.20708 5.57995 4.55089
#
# Compressibility (1/GPa) = 0.14434456
#
# Stress axis : x y z
#
# Youngs Moduli (GPa) = 5.53379 48.53289 86.77953
#
# Poissons Ratio (x) = 1.40734 0.24404
# Poissons Ratio (y) = 0.16047 0.21139
# Poissons Ratio (z) = 0.01556 0.11822
#
# Static dielectric constant tensor:
#      x y z
#    x 1.575660 0.000000 0.000000 
#    y 0.000000 1.673720 0.000000 
#    z 0.000000 0.000000 1.631400 
# 
# From -- ./inp_files/2030.got.cif
#   From: 2010.05.17/outbox.cif.g08.bks.cpg/sg46_2_cif.got.tgz:2030.got - 2010.06.03 19:58:25.
