data_PCOD9377588
_publ_section_title
;
Structure prediction by ZEFSAII (Michael W. Deem and Ramdas Pophale) SiO2 
 PCOD9377588
Probable space group: I B A 2
;
_chemical_formula_sum "Si O2"
_cell_formula_units_Z 64
_cell_length_a 11.126237
_cell_length_b 18.665075
_cell_length_c 13.559421
_cell_angle_alpha 90.000000
_cell_angle_beta 90.000000
_cell_angle_gamma 90.000000
_cell_volume 2815.912730
_symmetry_space_group_name_H-M "I B A 2"
_symmetry_group_IT_number 45
_symmetry_cell_setting 'orthorhombic'
loop_
_space_group_symop_operation_xyz
x,y,z
-x,-y,z
-x,y,1/2+z
x,-y,1/2+z
1/2+x,1/2+y,1/2+z
1/2-x,1/2-y,1/2+z
1/2-x,1/2+y,z
1/2+x,1/2-y,z
loop_
_atom_site_type_symbol
_atom_site_label
_atom_site_fract_x
_atom_site_fract_y
_atom_site_fract_z
Si Si1 0.126890 0.461029 0.975410
Si Si2 0.407870 0.230133 0.988946
Si Si3 0.719577 0.601800 0.466395
Si Si4 0.910273 0.566623 0.763292
Si Si5 0.482538 0.335563 0.328942
Si Si6 0.204983 0.238767 0.691581
Si Si7 0.678752 0.607583 0.692879
Si Si8 0.912668 0.651601 0.128023
O O1 0.221596 0.523703 0.955055
O O2 0.109622 0.413330 0.877251
O O3 0.000000 0.500000 0.996884
O O4 0.151949 0.411425 0.068072
O O5 0.331475 0.266153 0.076720
O O6 0.528456 0.203604 0.045774
O O7 0.327411 0.160889 0.959002
O O8 0.440464 0.285292 0.902827
O O9 0.615701 0.620601 0.390483
O O10 0.661976 0.606092 0.575945
O O11 0.778990 0.549159 0.720553
O O12 0.000000 0.500000 0.767159
O O13 0.976821 0.620884 0.690693
O O14 0.406446 0.284347 0.256942
O O15 0.563608 0.387542 0.261692
O O16 0.251969 0.317740 0.714404
O O17 0.320060 0.188167 0.701276
#
# Coordination Sequence:
#
# PCOD9377588 Si02
#       8
#     8   8   8   8   8   8   8   8
#     4  11  24  42  74 102 134 179 242 307 352 424
#     4  11  23  43  68 101 147 188 237 299 368 428
#     4  11  23  46  68 104 141 187 245 301 361 438
#     4  11  25  43  75 103 135 180 249 298 358 421
#     4  12  26  40  70 102 149 188 234 289 373 451
#     4  11  25  40  67 108 142 188 235 290 366 438
#     4  11  24  46  69 101 147 183 236 302 357 434
#     4  12  23  43  72 104 144 186 232 304 366 418
#
# _framework density 22.727976000000002
#
# number of rings (size 3 to 8) (size 9 to 14) (size 15 to 20)
#    0.000    0.750    3.750    4.875    7.000    0.000 
#    0.000    0.625    0.000    0.000    0.000    0.000 
#    0.000    0.000    0.000    0.000    0.000    0.000 
#
# Total GULP energy -179113.945345 kJ/mol
# GULP energy per Si atom -5597.310792 kJ/mol
# Density = 2.267625 g / cm^3
# Si number density = 22.727976 Si / 1000 Ang^3
#
#
#
# Elastic Constant Matrix: (Units=GPa)
#
#
# Indices 1 2 3 4 5 6 
#
# 1 95.4555 16.2814 43.3172 0.0000 0.0000 0.0000
# 2 16.2814 41.7386 31.7614 0.0000 0.0000 0.0000
# 3 43.3172 31.7614 101.1254 0.0000 0.0000 0.0000
# 4 0.0000 0.0000 0.0000 14.3915 0.0000 0.0000
# 5 0.0000 0.0000 0.0000 0.0000 54.9722 0.0000
# 6 0.0000 0.0000 0.0000 0.0000 0.0000 22.7812
#
#
#
# Elastic Compliance Matrix: (Units=1/GPa)
#
#
# Indices 1 2 3 4 5 6 
#
# 1 0.013042 -0.001099 -0.005241 0.000000 0.000000 0.000000
# 2 -0.001099 0.031576 -0.009447 0.000000 0.000000 0.000000
# 3 -0.005241 -0.009447 0.015101 0.000000 0.000000 0.000000
# 4 0.000000 0.000000 0.000000 0.069485 0.000000 0.000000
# 5 0.000000 0.000000 0.000000 0.000000 0.018191 0.000000
# 6 0.000000 0.000000 0.000000 0.000000 0.000000 0.043896
#
#
# Mechanical properties :
#
#
# Convention : Reuss Voigt Hill
#
# Bulk Modulus (GPa) = 35.53054 46.78217 41.15636
# Shear Modulus (GPa) = 21.52887 28.22629 24.87758
#
# Velocity S-wave (km/s) = 3.08107 3.52791 3.31203
# Velocity P-wave (km/s) = 5.32205 6.10107 5.72483
#
# Compressibility (1/GPa) = 0.02814480
#
# Stress axis : x y z
#
# Youngs Moduli (GPa) = 76.67503 31.66993 66.22149
#
# Poissons Ratio (x) = 0.03480 0.34710
# Poissons Ratio (y) = 0.08426 0.62556
# Poissons Ratio (z) = 0.40189 0.29917
#
# Static dielectric constant tensor:
#      x y z
#    x 1.848270 0.000000 0.000000 
#    y 0.000000 1.871130 0.000000 
#    z 0.000000 0.000000 1.869040 
# 
# From -- ./inp_files/6306.got.cif
#   From: 2010.05.17/outbox.cif.g08.bks.cpg/sg45_4_cif.got.tgz:6306.got - 2010.06.03 19:51:22.
