data_PCOD9377408
_publ_section_title
;
Structure prediction by ZEFSAII (Michael W. Deem and Ramdas Pophale) SiO2 
 PCOD9377408
Probable space group: I B A 2
;
_chemical_formula_sum "Si O2"
_cell_formula_units_Z 28
_cell_length_a 4.992765
_cell_length_b 19.665336
_cell_length_c 10.532532
_cell_angle_alpha 90.000000
_cell_angle_beta 90.000000
_cell_angle_gamma 90.000000
_cell_volume 1034.130349
_symmetry_space_group_name_H-M "I B A 2"
_symmetry_group_IT_number 45
_symmetry_cell_setting 'orthorhombic'
loop_
_space_group_symop_operation_xyz
x,y,z
-x,-y,z
-x,y,1/2+z
x,-y,1/2+z
1/2+x,1/2+y,1/2+z
1/2-x,1/2-y,1/2+z
1/2-x,1/2+y,z
1/2+x,1/2-y,z
loop_
_atom_site_type_symbol
_atom_site_label
_atom_site_fract_x
_atom_site_fract_y
_atom_site_fract_z
Si Si1 0.052172 0.294040 0.812060
Si Si2 0.146404 0.911743 0.367781
Si Si3 0.724163 0.619572 0.627977
Si Si4 0.500000 0.000000 0.001074
O O1 0.334135 0.261837 0.848961
O O2 0.121293 0.311551 0.663860
O O3 0.917221 0.364986 0.853157
O O4 0.039864 0.883083 0.502696
O O5 0.962482 0.899933 0.247068
O O6 0.257856 0.986560 0.403213
O O7 0.946025 0.562524 0.595321
#
# Coordination Sequence:
#
# PCOD9377408 Si02
#       4
#     8   8   8   4
#     4  12  26  51  82 125 178 224 296 358 444 532
#     4  10  24  53  87 126 172 234 290 376 444 529
#     4  10  24  53  87 126 172 234 290 376 444 529
#     4   8  24  54  84 126 176 210 312 362 446 538
#
# _framework density 27.075887999999999
#
# number of rings (size 3 to 8) (size 9 to 14) (size 15 to 20)
#    1.714    0.000    2.857    0.000    0.000    5.714 
#    5.143    7.143    0.000    0.000    0.000    0.000 
#    0.000    0.000    0.000    0.000    0.000    0.000 
#
# Total GULP energy -77981.477124 kJ/mol
# GULP energy per Si atom -5570.105509 kJ/mol
# Density = 2.701426 g / cm^3
# Si number density = 27.075888 Si / 1000 Ang^3
#
#
#
# Elastic Constant Matrix: (Units=GPa)
#
#
# Indices 1 2 3 4 5 6 
#
# 1 182.7771 60.2581 81.1255 0.0000 0.0000 0.0000
# 2 60.2581 88.5136 50.7322 0.0000 0.0000 0.0000
# 3 81.1255 50.7322 198.0547 0.0000 0.0000 0.0000
# 4 0.0000 0.0000 0.0000 49.3138 0.0000 0.0000
# 5 0.0000 0.0000 0.0000 0.0000 53.8850 0.0000
# 6 0.0000 0.0000 0.0000 0.0000 0.0000 29.1644
#
#
#
# Elastic Compliance Matrix: (Units=1/GPa)
#
#
# Indices 1 2 3 4 5 6 
#
# 1 0.007757 -0.004055 -0.002139 0.000000 0.000000 0.000000
# 2 -0.004055 0.015362 -0.002274 0.000000 0.000000 0.000000
# 3 -0.002139 -0.002274 0.006508 0.000000 0.000000 0.000000
# 4 0.000000 0.000000 0.000000 0.020278 0.000000 0.000000
# 5 0.000000 0.000000 0.000000 0.000000 0.018558 0.000000
# 6 0.000000 0.000000 0.000000 0.000000 0.000000 0.034288
#
#
# Mechanical properties :
#
#
# Convention : Reuss Voigt Hill
#
# Bulk Modulus (GPa) = 78.79595 94.84189 86.81892
# Shear Modulus (GPa) = 40.34949 44.95461 42.65205
#
# Velocity S-wave (km/s) = 3.86455 4.07912 3.97328
# Velocity P-wave (km/s) = 7.00557 7.56901 7.29273
#
# Compressibility (1/GPa) = 0.01269101
#
# Stress axis : x y z
#
# Youngs Moduli (GPa) = 128.90999 65.09707 153.66580
#
# Poissons Ratio (x) = 0.26398 0.32865
# Poissons Ratio (y) = 0.52275 0.34942
# Poissons Ratio (z) = 0.27571 0.14802
#
# Static dielectric constant tensor:
#      x y z
#    x 2.195150 0.000000 0.000000 
#    y 0.000000 2.201380 0.000000 
#    z 0.000000 0.000000 2.178010 
# 
# From -- ./inp_files/2855.got.cif
#   From: 2010.05.17/outbox.cif.g08.bks.cpg/sg45_2_cif.got.tgz:2855.got - 2010.06.03 19:51:22.
