data_PCOD9377753
_publ_section_title
;
Structure prediction by ZEFSAII (Michael W. Deem and Ramdas Pophale) SiO2 
 PCOD9377753
Probable space group: I M A 2
;
_chemical_formula_sum "Si O2"
_cell_formula_units_Z 40
_cell_length_a 16.961769
_cell_length_b 19.219692
_cell_length_c 5.542954
_cell_angle_alpha 90.000000
_cell_angle_beta 90.000000
_cell_angle_gamma 90.000000
_cell_volume 1807.002871
_symmetry_space_group_name_H-M "I M A 2"
_symmetry_group_IT_number 46
_symmetry_cell_setting 'orthorhombic'
loop_
_space_group_symop_operation_xyz
x,y,z
-x,-y,z
1/2-x,y,z
1/2+x,-y,z
1/2+x,1/2+y,1/2+z
1/2-x,1/2-y,1/2+z
-x,1/2+y,1/2+z
x,1/2-y,1/2+z
loop_
_atom_site_type_symbol
_atom_site_label
_atom_site_fract_x
_atom_site_fract_y
_atom_site_fract_z
Si Si1 0.396070 0.207563 0.318410
Si Si2 0.923039 0.173391 0.318408
Si Si3 0.567963 0.556911 0.318410
Si Si4 0.162123 0.437919 0.818410
Si Si5 0.073251 0.658061 0.318407
O O1 0.389932 0.250000 0.568410
O O2 0.482027 0.170081 0.318409
O O3 0.334363 0.145959 0.318411
O O4 0.916282 0.257722 0.318407
O O5 0.891824 0.138441 0.560749
O O6 0.891824 0.138441 0.076066
O O7 0.500000 0.500000 0.318410
O O8 0.617155 0.547397 0.565264
O O9 0.516719 0.629182 0.318409
O O10 0.617156 0.547397 0.071557
O O11 0.250000 0.467831 0.818410
#
# Coordination Sequence:
#
# PCOD9377753 Si02
#       5
#     8   8   8   8   8
#     4  12  18  30  51  75 109 151 195 224 260 319
#     4  10  14  25  46  67 100 133 168 216 270 299
#     4  12  23  40  59  79 107 152 203 241 285 337
#     4  12  25  40  55  80 115 151 199 245 284 327
#     4  10  16  27  46  71  95 135 178 216 271 296
#
# _framework density 22.136101
#
# number of rings (size 3 to 8) (size 9 to 14) (size 15 to 20)
#    0.000    0.800    8.000    2.400    0.000    0.800 
#    0.000    0.000    0.000    0.000    0.000    0.000 
#    0.000    0.000    0.000   72.000   28.000    0.000 
#
# Total GULP energy -111378.434099 kJ/mol
# GULP energy per Si atom -5568.921705 kJ/mol
# Density = 2.208572 g / cm^3
# Si number density = 22.136101 Si / 1000 Ang^3
#
#
#
# Elastic Constant Matrix: (Units=GPa)
#
#
# Indices 1 2 3 4 5 6 
#
# 1 29.0085 31.1980 55.2055 0.0000 0.0000 0.0000
# 2 31.1980 46.3435 40.5011 0.0000 0.0000 0.0000
# 3 55.2055 40.5011 321.2759 0.0000 0.0000 0.0000
# 4 0.0000 0.0000 0.0000 1.7974 0.0000 0.0000
# 5 0.0000 0.0000 0.0000 0.0000 -1.1571 0.0000
# 6 0.0000 0.0000 0.0000 0.0000 0.0000 -0.2372
#
#
#
# Elastic Compliance Matrix: (Units=1/GPa)
#
#
# Indices 1 2 3 4 5 6 
#
# 1 0.189555 -0.111416 -0.018526 0.000000 0.000000 0.000000
# 2 -0.111416 0.089737 0.007832 0.000000 0.000000 0.000000
# 3 -0.018526 0.007832 0.005309 0.000000 0.000000 0.000000
# 4 0.000000 0.000000 0.000000 0.556359 0.000000 0.000000
# 5 0.000000 0.000000 0.000000 0.000000 -0.864233 0.000000
# 6 0.000000 0.000000 0.000000 0.000000 0.000000 -4.215271
#
#
# Mechanical properties :
#
#
# Convention : Reuss Voigt Hill
#
# Bulk Modulus (GPa) = 24.76405 72.27079 48.51742
# Shear Modulus (GPa) = -1.25601 18.06217 8.40308
#
# Velocity S-wave (km/s) = -0.75408 2.85960 1.95047
# Velocity P-wave (km/s) = 3.23315 6.60472 5.19979
#
# Compressibility (1/GPa) = 0.04038112
#
# Stress axis : x y z
#
# Youngs Moduli (GPa) = 5.27551 11.14363 188.37311
#
# Poissons Ratio (x) = 1.24158 3.48983
# Poissons Ratio (y) = 0.58778 -1.47539
# Poissons Ratio (z) = 0.09773 -0.08728
#
# Static dielectric constant tensor:
#      x y z
#    x 1.745490 0.000000 0.000000 
#    y 0.000000 1.898680 0.000000 
#    z 0.000000 0.000000 1.931310 
# 
# From -- ./inp_files/1647.got.cif
#   From: 2010.05.17/outbox.cif.g08.bks.cpg/sg46_1_cif.got.tgz:1647.got - 2010.06.03 19:58:25.
