data_PCOD9377066
_publ_section_title
;
Structure prediction by ZEFSAII (Michael W. Deem and Ramdas Pophale) SiO2 
 PCOD9377066
Probable space group: I B A 2
;
_chemical_formula_sum "Si O2"
_cell_formula_units_Z 60
_cell_length_a 12.941400
_cell_length_b 26.309800
_cell_length_c 8.119145
_cell_angle_alpha 90.000000
_cell_angle_beta 90.000000
_cell_angle_gamma 90.000000
_cell_volume 2764.452328
_symmetry_space_group_name_H-M "I B A 2"
_symmetry_group_IT_number 45
_symmetry_cell_setting 'orthorhombic'
loop_
_space_group_symop_operation_xyz
x,y,z
-x,-y,z
-x,y,1/2+z
x,-y,1/2+z
1/2+x,1/2+y,1/2+z
1/2-x,1/2-y,1/2+z
1/2-x,1/2+y,z
1/2+x,1/2-y,z
loop_
_atom_site_type_symbol
_atom_site_label
_atom_site_fract_x
_atom_site_fract_y
_atom_site_fract_z
Si Si1 0.585834 0.567596 0.894000
Si Si2 0.190432 0.159051 0.214126
Si Si3 0.625459 0.544780 0.274944
Si Si4 0.941465 0.748742 0.190669
Si Si5 0.153094 0.259058 0.832130
Si Si6 0.000000 0.500000 0.555711
Si Si7 0.196995 0.327179 0.368137
Si Si8 0.636690 0.937248 0.807184
O O1 0.658684 0.608277 0.806062
O O2 0.461886 0.576017 0.875725
O O3 0.602607 0.514588 0.799685
O O4 0.614210 0.560657 0.084719
O O5 0.084353 0.191448 0.201045
O O6 0.263861 0.196796 0.315329
O O7 0.256229 0.154950 0.044495
O O8 0.742905 0.550358 0.331907
O O9 0.890332 0.736227 0.016186
O O10 0.887169 0.717127 0.337658
O O11 0.060475 0.735877 0.205099
O O12 0.204028 0.203821 0.798680
O O13 0.064913 0.458212 0.453819
O O14 0.085097 0.532022 0.657011
O O15 0.143577 0.376432 0.288213
#
# Coordination Sequence:
#
# PCOD9377066 Si02
#       8
#     8   8   8   8   8   4   8   8
#     4  11  25  43  70 104 138 186 225 288 343 415
#     4  10  24  41  67 100 135 181 229 278 347 411
#     4  11  25  43  68 101 142 177 235 281 344 405
#     4  10  22  42  67  97 133 176 227 285 340 422
#     4  10  22  43  66  99 136 174 230 284 347 415
#     4  10  26  48  72 100 136 184 240 282 346 404
#     4  10  24  42  67  98 135 179 223 285 347 401
#     4  11  25  47  71 101 137 183 230 291 341 415
#
# _framework density 21.704118999999999
#
# number of rings (size 3 to 8) (size 9 to 14) (size 15 to 20)
#    0.000    1.600    0.000    3.200    9.333    4.267 
#    2.400    0.000    0.000    0.000    0.000    0.000 
#    0.000    0.000    0.000    0.000    0.000    0.000 
#
# Total GULP energy -167306.909196 kJ/mol
# GULP energy per Si atom -5576.896973 kJ/mol
# Density = 2.165472 g / cm^3
# Si number density = 21.704119 Si / 1000 Ang^3
#
#
#
# Elastic Constant Matrix: (Units=GPa)
#
#
# Indices 1 2 3 4 5 6 
#
# 1 96.4212 27.9631 20.9368 0.0022 0.0174 0.0003
# 2 27.9631 87.4698 6.6704 0.0053 0.0140 -0.0004
# 3 20.9368 6.6704 16.2087 0.0089 0.0084 -0.0011
# 4 0.0022 0.0053 0.0089 22.0303 -0.0045 0.0000
# 5 0.0174 0.0140 0.0084 -0.0045 148.6577 -0.0016
# 6 0.0003 -0.0004 -0.0011 0.0000 -0.0016 26.5152
#
#
#
# Elastic Compliance Matrix: (Units=1/GPa)
#
#
# Indices 1 2 3 4 5 6 
#
# 1 0.015394 -0.003515 -0.018438 0.000007 0.000000 -0.000001
# 2 -0.003515 0.012606 -0.000647 -0.000002 -0.000001 0.000000
# 3 -0.018438 -0.000647 0.085778 -0.000033 -0.000003 0.000004
# 4 0.000007 -0.000002 -0.000033 0.045392 0.000001 0.000000
# 5 0.000000 -0.000001 -0.000003 0.000001 0.006727 0.000000
# 6 -0.000001 0.000000 0.000004 0.000000 0.000000 0.037714
#
#
# Mechanical properties :
#
#
# Convention : Reuss Voigt Hill
#
# Bulk Modulus (GPa) = 14.58206 34.58227 24.58217
# Shear Modulus (GPa) = 18.40458 49.07591 33.74024
#
# Velocity S-wave (km/s) = 2.91516 4.76030 3.94706
# Velocity P-wave (km/s) = 4.25018 6.79573 5.66772
#
# Compressibility (1/GPa) = 0.06857740
#
# Stress axis : x y z
#
# Youngs Moduli (GPa) = 64.95916 79.32945 11.65795
#
# Poissons Ratio (x) = 0.27887 0.21495
# Poissons Ratio (y) = 0.22835 0.00754
# Poissons Ratio (z) = 1.19773 0.05132
#
# Static dielectric constant tensor:
#      x y z
#    x 1.676970 0.000070 0.000000 
#    y 0.000070 1.638090 0.000000 
#    z 0.000000 0.000000 1.834840 
# 
# From -- ./inp_files/1462.got.cif
#   From: 2010.05.17/outbox.cif.g08.bks.cpg/sg45_1_cif.got.tgz:1462.got - 2010.06.03 19:51:22.
