data_PCOD9377972
_publ_section_title
;
Structure prediction by ZEFSAII (Michael W. Deem and Ramdas Pophale) SiO2 
 PCOD9377972
Probable space group: I M A 2
;
_chemical_formula_sum "Si O2"
_cell_formula_units_Z 64
_cell_length_a 8.903532
_cell_length_b 27.159373
_cell_length_c 18.858919
_cell_angle_alpha 90.000000
_cell_angle_beta 90.000000
_cell_angle_gamma 90.000000
_cell_volume 4560.357176
_symmetry_space_group_name_H-M "I M A 2"
_symmetry_group_IT_number 46
_symmetry_cell_setting 'orthorhombic'
loop_
_space_group_symop_operation_xyz
x,y,z
-x,-y,z
1/2-x,y,z
1/2+x,-y,z
1/2+x,1/2+y,1/2+z
1/2-x,1/2-y,1/2+z
-x,1/2+y,1/2+z
x,1/2-y,1/2+z
loop_
_atom_site_type_symbol
_atom_site_label
_atom_site_fract_x
_atom_site_fract_y
_atom_site_fract_z
Si Si1 0.576371 0.700668 0.148910
Si Si2 0.068425 0.850706 0.776716
Si Si3 0.930146 0.052494 0.860402
Si Si4 0.077214 0.301835 0.740852
Si Si5 0.069463 0.946807 0.026444
Si Si6 0.930847 0.242190 0.026404
Si Si7 0.929967 0.246883 0.863461
Si Si8 0.068261 0.353281 0.602439
O O1 0.750000 0.689286 0.134212
O O2 0.501128 0.660615 0.200071
O O3 0.572496 0.751289 0.194905
O O4 0.487914 0.714348 0.077693
O O5 0.250000 0.850062 0.771621
O O6 0.020720 0.902123 0.811532
O O7 0.023902 0.805540 0.828826
O O8 0.750000 0.048938 0.855694
O O9 0.966092 0.062719 0.943122
O O10 0.000000 0.000000 0.841020
O O11 0.250000 0.311968 0.758796
O O12 0.023442 0.342375 0.684317
O O13 0.988457 0.289784 0.812037
O O14 0.250000 0.947339 0.034033
O O15 0.996715 0.903888 0.072851
O O16 0.000000 0.000000 0.043997
O O17 0.750000 0.238395 0.030014
O O18 0.002147 0.191542 0.055715
O O19 0.977813 0.250117 0.944991
O O20 0.750000 0.247777 0.862437
O O21 0.250000 0.351953 0.599062
#
# Coordination Sequence:
#
# PCOD9377972 Si02
#       8
#     8   8   8   8   8   8   8   8
#     4   9  17  28  40  58  81 106 137 171 204 243
#     4   9  16  28  43  58  79 109 140 171 205 243
#     4   9  18  30  43  60  83 109 141 176 210 245
#     4   8  16  28  40  56  80 106 134 168 205 241
#     4  10  19  31  45  62  84 111 141 175 210 244
#     4  10  18  28  42  61  84 111 140 171 206 246
#     4   9  17  27  41  60  81 106 139 171 202 243
#     4  10  19  30  43  61  83 110 143 175 206 245
#
# _framework density 14.033988000000001
#
# number of rings (size 3 to 8) (size 9 to 14) (size 15 to 20)
#    0.000    2.750    0.000    3.000    0.000    7.500 
#    0.000    2.500    0.000    0.000    0.000    0.000 
#    0.000    1.000    0.000    5.500    0.000    4.250 
#
# Total GULP energy -178248.564913 kJ/mol
# GULP energy per Si atom -5570.267654 kJ/mol
# Density = 1.400205 g / cm^3
# Si number density = 14.033988 Si / 1000 Ang^3
#
#
#
# Elastic Constant Matrix: (Units=GPa)
#
#
# Indices 1 2 3 4 5 6 
#
# 1 41.7544 33.1141 41.6454 0.0000 0.0000 0.0000
# 2 33.1141 96.5186 64.8651 0.0000 0.0000 0.0000
# 3 41.6454 64.8651 116.9909 0.0000 0.0000 0.0000
# 4 0.0000 0.0000 0.0000 28.1353 0.0000 0.0000
# 5 0.0000 0.0000 0.0000 0.0000 19.1361 0.0000
# 6 0.0000 0.0000 0.0000 0.0000 0.0000 21.6522
#
#
#
# Elastic Compliance Matrix: (Units=1/GPa)
#
#
# Indices 1 2 3 4 5 6 
#
# 1 0.039572 -0.006551 -0.010455 0.000000 0.000000 0.000000
# 2 -0.006551 0.017598 -0.007426 0.000000 0.000000 0.000000
# 3 -0.010455 -0.007426 0.016386 0.000000 0.000000 0.000000
# 4 0.000000 0.000000 0.000000 0.035543 0.000000 0.000000
# 5 0.000000 0.000000 0.000000 0.000000 0.052257 0.000000
# 6 0.000000 0.000000 0.000000 0.000000 0.000000 0.046185
#
#
# Mechanical properties :
#
#
# Convention : Reuss Voigt Hill
#
# Bulk Modulus (GPa) = 40.49366 59.39035 49.94201
# Shear Modulus (GPa) = 18.89402 21.49402 20.19402
#
# Velocity S-wave (km/s) = 3.67318 3.91777 3.79745
# Velocity P-wave (km/s) = 6.84882 7.92944 7.40886
#
# Compressibility (1/GPa) = 0.02469522
#
# Stress axis : x y z
#
# Youngs Moduli (GPa) = 25.27047 56.82320 61.02677
#
# Poissons Ratio (x) = 0.37223 0.63801
# Poissons Ratio (y) = 0.16554 0.45316
# Poissons Ratio (z) = 0.26419 0.42194
#
# Static dielectric constant tensor:
#      x y z
#    x 1.473320 0.000000 0.000000 
#    y 0.000000 1.443590 0.000000 
#    z 0.000000 0.000000 1.461970 
# 
# From -- ./inp_files/18622.got.cif
#   From: 2010.05.17/outbox.cif.g08.bks.cpg/sg46_10_cif.got.tgz:18622.got - 2010.06.03 19:58:25.
