data_PCOD9377322
_publ_section_title
;
Structure prediction by ZEFSAII (Michael W. Deem and Ramdas Pophale) SiO2 
 PCOD9377322
Probable space group: I B A 2
;
_chemical_formula_sum "Si O2"
_cell_formula_units_Z 48
_cell_length_a 11.431716
_cell_length_b 8.161009
_cell_length_c 22.565548
_cell_angle_alpha 90.000000
_cell_angle_beta 90.000000
_cell_angle_gamma 90.000000
_cell_volume 2105.237843
_symmetry_space_group_name_H-M "I B A 2"
_symmetry_group_IT_number 45
_symmetry_cell_setting 'orthorhombic'
loop_
_space_group_symop_operation_xyz
x,y,z
-x,-y,z
-x,y,1/2+z
x,-y,1/2+z
1/2+x,1/2+y,1/2+z
1/2-x,1/2-y,1/2+z
1/2-x,1/2+y,z
1/2+x,1/2-y,z
loop_
_atom_site_type_symbol
_atom_site_label
_atom_site_fract_x
_atom_site_fract_y
_atom_site_fract_z
Si Si1 0.386555 0.167002 0.287530
Si Si2 0.849437 0.640829 0.083300
Si Si3 0.500000 0.000000 0.486831
Si Si4 0.372021 0.494174 0.065419
Si Si5 0.426104 0.339729 0.939835
Si Si6 0.000000 0.500000 0.680188
Si Si7 0.648195 0.189175 0.326915
O O1 0.516413 0.240419 0.303511
O O2 0.268201 0.272586 0.291540
O O3 0.407539 0.088099 0.222845
O O4 0.364823 0.007281 0.329141
O O5 0.723781 0.587505 0.105861
O O6 0.843093 0.817689 0.054794
O O7 0.939480 0.629251 0.136723
O O8 0.890981 0.515379 0.032185
O O9 0.495406 0.830436 0.451484
O O10 0.500000 0.500000 0.092008
O O11 0.377263 0.395944 0.003606
O O12 0.500000 0.500000 0.920532
O O13 0.337915 0.282827 0.889216
#
# Coordination Sequence:
#
# PCOD9377322 Si02
#       7
#     8   8   4   8   8   4   8
#     4  10  24  49  70 108 141 183 261 310 363 450
#     4  11  23  41  72  97 146 191 230 306 356 426
#     4  11  20  43  66 102 152 195 238 299 346 438
#     4  11  24  43  62 108 146 181 246 283 349 457
#     4  11  23  41  67 109 149 199 240 287 369 443
#     4   9  24  47  76  98 138 187 238 307 380 412
#     4  10  24  43  71 101 145 188 241 305 364 433
#
# _framework density 22.800274000000002
#
# number of rings (size 3 to 8) (size 9 to 14) (size 15 to 20)
#    0.000    1.667    3.333    2.000    4.667    6.667 
#    3.000    0.000    0.000    0.000    0.000    0.000 
#    0.000    0.000    0.000    0.000    0.000    0.000 
#
# Total GULP energy -133829.078869 kJ/mol
# GULP energy per Si atom -5576.211620 kJ/mol
# Density = 2.274838 g / cm^3
# Si number density = 22.800274 Si / 1000 Ang^3
#
#
#
# Elastic Constant Matrix: (Units=GPa)
#
#
# Indices 1 2 3 4 5 6 
#
# 1 151.7739 49.8615 14.0936 0.0000 0.0000 0.0000
# 2 49.8615 112.4941 30.4757 0.0000 0.0000 0.0000
# 3 14.0936 30.4757 55.6398 0.0000 0.0000 0.0000
# 4 0.0000 0.0000 0.0000 14.9051 0.0000 0.0000
# 5 0.0000 0.0000 0.0000 0.0000 23.5104 0.0000
# 6 0.0000 0.0000 0.0000 0.0000 0.0000 40.3108
#
#
#
# Elastic Compliance Matrix: (Units=1/GPa)
#
#
# Indices 1 2 3 4 5 6 
#
# 1 0.007712 -0.003392 -0.000095 0.000000 0.000000 0.000000
# 2 -0.003392 0.011931 -0.005675 0.000000 0.000000 0.000000
# 3 -0.000095 -0.005675 0.021106 0.000000 0.000000 0.000000
# 4 0.000000 0.000000 0.000000 0.067091 0.000000 0.000000
# 5 0.000000 0.000000 0.000000 0.000000 0.042534 0.000000
# 6 0.000000 0.000000 0.000000 0.000000 0.000000 0.024807
#
#
# Mechanical properties :
#
#
# Convention : Reuss Voigt Hill
#
# Bulk Modulus (GPa) = 44.59958 56.52993 50.56475
# Shear Modulus (GPa) = 24.87792 30.77704 27.82748
#
# Velocity S-wave (km/s) = 3.30680 3.67802 3.49734
# Velocity P-wave (km/s) = 5.84665 6.54862 6.20757
#
# Compressibility (1/GPa) = 0.02242174
#
# Stress axis : x y z
#
# Youngs Moduli (GPa) = 129.66624 83.81848 47.38096
#
# Poissons Ratio (x) = 0.28435 0.00452
# Poissons Ratio (y) = 0.43989 0.26891
# Poissons Ratio (z) = 0.01236 0.47571
#
# Static dielectric constant tensor:
#      x y z
#    x 1.935120 0.000000 0.000000 
#    y 0.000000 1.855830 0.000000 
#    z 0.000000 0.000000 1.861650 
# 
# From -- ./inp_files/9674.got.cif
#   From: 2010.05.17/outbox.cif.g08.bks.cpg/sg45_5_cif.got.tgz:9674.got - 2010.06.03 19:51:22.
