data_PCOD9377919
_publ_section_title
;
Structure prediction by ZEFSAII (Michael W. Deem and Ramdas Pophale) SiO2 
 PCOD9377919
Probable space group: I M A 2
;
_chemical_formula_sum "Si O2"
_cell_formula_units_Z 64
_cell_length_a 7.984072
_cell_length_b 24.527391
_cell_length_c 16.046254
_cell_angle_alpha 90.000000
_cell_angle_beta 90.000000
_cell_angle_gamma 90.000000
_cell_volume 3142.313141
_symmetry_space_group_name_H-M "I M A 2"
_symmetry_group_IT_number 46
_symmetry_cell_setting 'orthorhombic'
loop_
_space_group_symop_operation_xyz
x,y,z
-x,-y,z
1/2-x,y,z
1/2+x,-y,z
1/2+x,1/2+y,1/2+z
1/2-x,1/2-y,1/2+z
-x,1/2+y,1/2+z
x,1/2-y,1/2+z
loop_
_atom_site_type_symbol
_atom_site_label
_atom_site_fract_x
_atom_site_fract_y
_atom_site_fract_z
Si Si1 0.050394 0.437248 0.064550
Si Si2 0.045109 0.746960 0.964022
Si Si3 0.047818 0.562809 0.556304
Si Si4 0.451629 0.870901 0.402232
Si Si5 0.051146 0.134398 0.718756
Si Si6 0.548050 0.252127 0.657328
Si Si7 0.549099 0.136185 0.902744
Si Si8 0.955029 0.370902 0.717575
O O1 0.250000 0.434186 0.067646
O O2 0.981770 0.401495 0.142012
O O3 0.000000 0.500000 0.071026
O O4 0.996761 0.410842 0.977186
O O5 0.250000 0.746577 0.962133
O O6 0.987992 0.690271 0.924040
O O7 0.988170 0.801904 0.918252
O O8 0.994095 0.749613 0.060818
O O9 0.250000 0.566440 0.556400
O O10 0.986244 0.597052 0.476391
O O11 0.988222 0.590783 0.642051
O O12 0.000000 0.500000 0.551391
O O13 0.250000 0.868380 0.399072
O O14 0.510577 0.887424 0.310082
O O15 0.250000 0.129367 0.717865
O O16 0.006211 0.197429 0.703241
O O17 0.991021 0.117191 0.809927
O O18 0.750000 0.252901 0.657748
O O19 0.492631 0.308665 0.698660
O O20 0.750000 0.138147 0.910399
O O21 0.750000 0.371507 0.716564
#
# Coordination Sequence:
#
# PCOD9377919 Si02
#       8
#     8   8   8   8   8   8   8   8
#     4  11  25  43  60  79 109 148 192 239 284 335
#     4   9  16  30  58  91 114 142 187 232 275 328
#     4  10  21  38  58  82 113 150 192 238 283 329
#     4  10  19  34  59  89 116 145 183 230 284 335
#     4  11  24  39  56  85 120 149 182 231 291 342
#     4  10  17  33  62  88 114 149 190 230 272 332
#     4  10  20  37  61  86 113 150 194 233 274 331
#     4   9  18  34  59  88 117 149 189 233 273 330
#
# _framework density 20.367163000000001
#
# number of rings (size 3 to 8) (size 9 to 14) (size 15 to 20)
#    0.000    2.000    2.500    1.500    0.000    5.000 
#    0.000    8.125    0.000    0.000    0.000    0.000 
#    0.000    0.000    0.000    0.000    0.000    0.000 
#
# Total GULP energy -178739.142923 kJ/mol
# GULP energy per Si atom -5585.598216 kJ/mol
# Density = 2.032081 g / cm^3
# Si number density = 20.367163 Si / 1000 Ang^3
#
#
#
# Elastic Constant Matrix: (Units=GPa)
#
#
# Indices 1 2 3 4 5 6 
#
# 1 13.1379 1.7203 8.5032 0.0000 0.0000 0.0000
# 2 1.7203 124.3261 65.2869 0.0001 -0.0001 0.0000
# 3 8.5032 65.2869 178.7488 0.0002 0.0002 0.0000
# 4 0.0000 0.0001 0.0002 -0.7391 0.0000 0.0000
# 5 0.0000 -0.0001 0.0002 0.0000 -52.0531 0.0000
# 6 0.0000 0.0000 0.0000 0.0000 0.0000 18.7243
#
#
#
# Elastic Compliance Matrix: (Units=1/GPa)
#
#
# Indices 1 2 3 4 5 6 
#
# 1 0.078651 0.001084 -0.004138 0.000001 0.000000 0.000000
# 2 0.001084 0.009967 -0.003692 0.000000 0.000000 0.000000
# 3 -0.004138 -0.003692 0.007140 0.000001 0.000000 0.000000
# 4 0.000001 0.000000 0.000001 -1.352945 0.000001 0.000001
# 5 0.000000 0.000000 0.000000 0.000001 -0.019211 0.000000
# 6 0.000000 0.000000 0.000000 0.000001 0.000000 0.053407
#
#
# Mechanical properties :
#
#
# Convention : Reuss Voigt Hill
#
# Bulk Modulus (GPa) = 12.15539 51.91486 32.03513
# Shear Modulus (GPa) = -4.22984 9.23324 2.50170
#
# Velocity S-wave (km/s) = -1.44267 2.13149 1.10949
# Velocity P-wave (km/s) = 1.79054 5.62161 4.17184
#
# Compressibility (1/GPa) = 0.08226800
#
# Stress axis : x y z
#
# Youngs Moduli (GPa) = 12.71433 100.32970 140.06075
#
# Poissons Ratio (x) = -0.10880 0.57951
# Poissons Ratio (y) = -0.01379 0.51711
# Poissons Ratio (z) = 0.05261 0.37042
#
# Static dielectric constant tensor:
#      x y z
#    x 1.738500 0.000000 0.000000 
#    y 0.000000 1.683280 0.000000 
#    z 0.000000 0.000000 1.734950 
# 
# From -- ./inp_files/14482.got.cif
#   From: 2010.05.17/outbox.cif.g08.bks.cpg/sg46_8_cif.got.tgz:14482.got - 2010.06.03 19:58:25.
