data_PCOD9377010
_publ_section_title
;
Structure prediction by ZEFSAII (Michael W. Deem and Ramdas Pophale) SiO2 
 PCOD9377010
Probable space group: I B A 2
;
_chemical_formula_sum "Si O2"
_cell_formula_units_Z 64
_cell_length_a 10.978141
_cell_length_b 18.463690
_cell_length_c 14.048645
_cell_angle_alpha 90.000000
_cell_angle_beta 90.000000
_cell_angle_gamma 90.000000
_cell_volume 2847.618086
_symmetry_space_group_name_H-M "I B A 2"
_symmetry_group_IT_number 45
_symmetry_cell_setting 'orthorhombic'
loop_
_space_group_symop_operation_xyz
x,y,z
-x,-y,z
-x,y,1/2+z
x,-y,1/2+z
1/2+x,1/2+y,1/2+z
1/2-x,1/2-y,1/2+z
1/2-x,1/2+y,z
1/2+x,1/2-y,z
loop_
_atom_site_type_symbol
_atom_site_label
_atom_site_fract_x
_atom_site_fract_y
_atom_site_fract_z
Si Si1 0.308499 0.213097 0.088900
Si Si2 0.765038 0.415401 0.869699
Si Si3 0.309321 0.814578 0.937170
Si Si4 0.827785 0.930397 0.315020
Si Si5 0.621962 0.290095 0.782696
Si Si6 0.431851 0.645211 0.159641
Si Si7 0.979613 0.922928 0.984426
Si Si8 0.021075 0.586351 0.009298
O O1 0.357202 0.247162 0.185850
O O2 0.390992 0.141542 0.069023
O O3 0.170546 0.195826 0.118202
O O4 0.287374 0.267707 0.999262
O O5 0.741569 0.494078 0.826739
O O6 0.727440 0.349583 0.801053
O O7 0.659893 0.409876 0.952478
O O8 0.900288 0.413728 0.911345
O O9 0.250546 0.863044 0.853395
O O10 0.388418 0.756231 0.878350
O O11 0.393879 0.870204 0.996601
O O12 0.864894 0.923939 0.205168
O O13 0.938281 0.929412 0.391100
O O14 0.496958 0.327702 0.754098
O O15 0.515720 0.630483 0.068969
O O16 0.000000 0.000000 0.031956
O O17 0.000000 0.500000 0.035522
#
# Coordination Sequence:
#
# PCOD9377010 Si02
#       8
#     8   8   8   8   8   8   8   8
#     4  12  27  48  70 110 147 198 260 313 384 460
#     4  11  23  48  72 104 145 191 248 308 382 447
#     4  12  26  46  74 104 147 201 249 310 385 463
#     4  11  24  44  71 106 141 190 246 309 380 450
#     4  12  26  43  72 107 145 193 247 316 373 456
#     4  12  24  42  69 104 139 184 249 303 374 444
#     4  10  22  40  71 100 135 179 234 304 367 433
#     4  12  26  51  78 105 154 208 256 317 386 466
#
# _framework density 22.474924999999999
#
# number of rings (size 3 to 8) (size 9 to 14) (size 15 to 20)
#    0.000    0.500    6.250    1.500    5.250    0.000 
#    2.250    0.625    0.000    0.000    0.000    0.000 
#    0.000    0.000    0.000    0.000    0.000    0.000 
#
# Total GULP energy -178360.436686 kJ/mol
# GULP energy per Si atom -5573.763646 kJ/mol
# Density = 2.242377 g / cm^3
# Si number density = 22.474925 Si / 1000 Ang^3
#
#
#
# Elastic Constant Matrix: (Units=GPa)
#
#
# Indices 1 2 3 4 5 6 
#
# 1 41.9069 17.8692 -8.0345 0.0000 0.0000 0.0000
# 2 17.8692 122.4609 45.6460 -0.0001 0.0000 0.0000
# 3 -8.0345 45.6460 69.5737 -0.0002 0.0000 0.0000
# 4 0.0000 -0.0001 -0.0002 52.2771 0.0000 0.0000
# 5 0.0000 0.0000 0.0000 0.0000 18.4240 0.0000
# 6 0.0000 0.0000 0.0000 0.0000 0.0000 31.6335
#
#
#
# Elastic Compliance Matrix: (Units=1/GPa)
#
#
# Indices 1 2 3 4 5 6 
#
# 1 0.028416 -0.007108 0.007945 0.000000 0.000000 0.000000
# 2 -0.007108 0.012587 -0.009079 0.000000 0.000000 0.000000
# 3 0.007945 -0.009079 0.021247 0.000000 0.000000 0.000000
# 4 0.000000 0.000000 0.000000 0.019129 0.000000 0.000000
# 5 0.000000 0.000000 0.000000 0.000000 0.054277 0.000000
# 6 0.000000 0.000000 0.000000 0.000000 0.000000 0.031612
#
#
# Mechanical properties :
#
#
# Convention : Reuss Voigt Hill
#
# Bulk Modulus (GPa) = 21.84981 38.32253 30.08617
# Shear Modulus (GPa) = 25.12460 32.36433 28.74447
#
# Velocity S-wave (km/s) = 3.34712 3.79888 3.58013
# Velocity P-wave (km/s) = 4.96796 6.02745 5.52317
#
# Compressibility (1/GPa) = 0.04576699
#
# Stress axis : x y z
#
# Youngs Moduli (GPa) = 35.19093 79.44625 47.06482
#
# Poissons Ratio (x) = 0.56469 -0.37393
# Poissons Ratio (y) = 0.25013 0.42730
# Poissons Ratio (z) = -0.27959 0.72129
#
# Static dielectric constant tensor:
#      x y z
#    x 2.365120 0.000000 0.000000 
#    y 0.000000 1.758570 0.000000 
#    z 0.000000 0.000000 1.806670 
# 
# From -- ./inp_files/6283.got.cif
#   From: 2010.05.17/outbox.cif.g08.bks.cpg/sg45_4_cif.got.tgz:6283.got - 2010.06.03 19:51:22.
