data_PCOD9377329
_publ_section_title
;
Structure prediction by ZEFSAII (Michael W. Deem and Ramdas Pophale) SiO2 
 PCOD9377329
Probable space group: I B A 2
;
_chemical_formula_sum "Si O2"
_cell_formula_units_Z 60
_cell_length_a 8.816417
_cell_length_b 25.154098
_cell_length_c 13.875427
_cell_angle_alpha 90.000000
_cell_angle_beta 90.000000
_cell_angle_gamma 90.000000
_cell_volume 3077.139809
_symmetry_space_group_name_H-M "I B A 2"
_symmetry_group_IT_number 45
_symmetry_cell_setting 'orthorhombic'
loop_
_space_group_symop_operation_xyz
x,y,z
-x,-y,z
-x,y,1/2+z
x,-y,1/2+z
1/2+x,1/2+y,1/2+z
1/2-x,1/2-y,1/2+z
1/2-x,1/2+y,z
1/2+x,1/2-y,z
loop_
_atom_site_type_symbol
_atom_site_label
_atom_site_fract_x
_atom_site_fract_y
_atom_site_fract_z
Si Si1 0.692193 0.223270 0.912290
Si Si2 0.509007 0.925697 0.261173
Si Si3 0.500000 0.000000 0.590568
Si Si4 0.232841 0.087811 0.879015
Si Si5 0.126747 0.319386 0.495692
Si Si6 0.815566 0.675696 0.722194
Si Si7 0.406160 0.368176 0.863593
Si Si8 0.224623 0.470146 0.926717
O O1 0.751778 0.278583 0.950962
O O2 0.541259 0.200617 0.963952
O O3 0.669931 0.225088 0.795726
O O4 0.830730 0.180652 0.922396
O O5 0.331842 0.924148 0.284029
O O6 0.559097 0.865170 0.259973
O O7 0.599758 0.956280 0.344657
O O8 0.553507 0.953724 0.162230
O O9 0.369701 0.025074 0.524777
O O10 0.338424 0.122054 0.952211
O O11 0.083764 0.122210 0.861812
O O12 0.200862 0.028178 0.915554
O O13 0.156257 0.316801 0.610253
O O14 0.661234 0.645333 0.756679
O O15 0.338338 0.421575 0.911202
#
# Coordination Sequence:
#
# PCOD9377329 Si02
#       8
#     8   8   4   8   8   8   8   8
#     4  10  24  44  64  98 126 170 213 285 316 398
#     4  11  21  38  63  96 127 172 220 266 319 385
#     4  12  20  34  66  96 130 168 232 254 320 402
#     4  12  20  41  66  93 134 178 206 274 332 379
#     4  12  23  44  71  94 131 171 221 264 341 387
#     4   9  23  43  64  96 125 174 215 272 319 402
#     4   9  23  44  63  92 140 165 217 269 330 383
#     4  11  21  39  63  96 129 173 215 270 324 383
#
# _framework density 19.498626999999999
#
# number of rings (size 3 to 8) (size 9 to 14) (size 15 to 20)
#    0.800    0.533    4.000    2.000    1.867    1.067 
#    2.400    0.000    2.933    0.000    0.000    0.000 
#    0.000    0.000    0.000    0.000    0.000    0.000 
#
# Total GULP energy -167085.883470 kJ/mol
# GULP energy per Si atom -5569.529449 kJ/mol
# Density = 1.945425 g / cm^3
# Si number density = 19.498627 Si / 1000 Ang^3
#
#
#
# Elastic Constant Matrix: (Units=GPa)
#
#
# Indices 1 2 3 4 5 6 
#
# 1 81.9310 6.9232 25.7435 0.0000 0.0000 0.0000
# 2 6.9232 89.3734 29.7194 0.0000 0.0000 0.0000
# 3 25.7435 29.7194 129.1457 0.0000 0.0000 0.0000
# 4 0.0000 0.0000 0.0000 19.9752 0.0000 0.0000
# 5 0.0000 0.0000 0.0000 0.0000 3.3065 0.0000
# 6 0.0000 0.0000 0.0000 0.0000 0.0000 29.4447
#
#
#
# Elastic Compliance Matrix: (Units=1/GPa)
#
#
# Indices 1 2 3 4 5 6 
#
# 1 0.013023 -0.000158 -0.002560 0.000000 0.000000 0.000000
# 2 -0.000158 0.012118 -0.002757 0.000000 0.000000 0.000000
# 3 -0.002560 -0.002757 0.008888 0.000000 0.000000 0.000000
# 4 0.000000 0.000000 0.000000 0.050062 0.000000 0.000000
# 5 0.000000 0.000000 0.000000 0.000000 0.302434 0.000000
# 6 0.000000 0.000000 0.000000 0.000000 0.000000 0.033962
#
#
# Mechanical properties :
#
#
# Convention : Reuss Voigt Hill
#
# Bulk Modulus (GPa) = 43.32775 47.24693 45.28734
# Shear Modulus (GPa) = 11.38615 26.41621 18.90118
#
# Velocity S-wave (km/s) = 2.41912 3.68472 3.11683
# Velocity P-wave (km/s) = 5.48380 6.51048 6.01907
#
# Compressibility (1/GPa) = 0.02307990
#
# Stress axis : x y z
#
# Youngs Moduli (GPa) = 76.78731 82.52134 112.51212
#
# Poissons Ratio (x) = 0.01301 0.28800
# Poissons Ratio (y) = 0.01210 0.31022
# Poissons Ratio (z) = 0.19655 0.22753
#
# Static dielectric constant tensor:
#      x y z
#    x 1.713170 0.000000 0.000000 
#    y 0.000000 1.733950 0.000000 
#    z 0.000000 0.000000 1.672570 
# 
# From -- ./inp_files/5888.got.cif
#   From: 2010.05.17/outbox.cif.g08.bks.cpg/sg45_3_cif.got.tgz:5888.got - 2010.06.03 19:51:22.
