data_PCOD9377662
_publ_section_title
;
Structure prediction by ZEFSAII (Michael W. Deem and Ramdas Pophale) SiO2 
 PCOD9377662
Probable space group: I B A 2
;
_chemical_formula_sum "Si O2"
_cell_formula_units_Z 32
_cell_length_a 9.174739
_cell_length_b 9.421525
_cell_length_c 15.579145
_cell_angle_alpha 90.000000
_cell_angle_beta 90.000000
_cell_angle_gamma 90.000000
_cell_volume 1346.661806
_symmetry_space_group_name_H-M "I B A 2"
_symmetry_group_IT_number 45
_symmetry_cell_setting 'orthorhombic'
loop_
_space_group_symop_operation_xyz
x,y,z
-x,-y,z
-x,y,1/2+z
x,-y,1/2+z
1/2+x,1/2+y,1/2+z
1/2-x,1/2-y,1/2+z
1/2-x,1/2+y,z
1/2+x,1/2-y,z
loop_
_atom_site_type_symbol
_atom_site_label
_atom_site_fract_x
_atom_site_fract_y
_atom_site_fract_z
Si Si1 0.154347 0.565842 0.681040
Si Si2 0.154347 0.565842 0.881251
Si Si3 0.143996 0.156143 0.473008
Si Si4 0.143995 0.843858 0.589283
O O1 0.179694 0.535447 0.781146
O O2 0.130013 0.733778 0.668274
O O3 0.279884 0.485741 0.626235
O O4 0.000000 0.500000 0.652928
O O5 0.130012 0.733778 0.894016
O O6 0.279885 0.485740 0.936056
O O7 0.000000 0.500000 0.909365
O O8 0.250001 0.250001 0.531144
O O9 0.000001 0.143225 0.531146
#
# Coordination Sequence:
#
# PCOD9377662 Si02
#       4
#     8   8   8   8
#     4  11  25  48  74 108 152 198 247 309 378 450
#     4  11  25  48  74 108 152 198 247 309 378 450
#     4  12  25  46  75 109 146 193 251 307 372 444
#     4  12  25  46  75 109 146 193 251 307 372 444
#
# _framework density 23.762460999999998
#
# number of rings (size 3 to 8) (size 9 to 14) (size 15 to 20)
#    0.000    0.500    5.000    3.000    0.000    4.000 
#    0.000    2.500    0.000    0.000    0.000    0.000 
#    0.000    0.000    0.000    0.000    0.000    0.000 
#
# Total GULP energy -89395.103004 kJ/mol
# GULP energy per Si atom -5587.193938 kJ/mol
# Density = 2.370838 g / cm^3
# Si number density = 23.762461 Si / 1000 Ang^3
#
#
#
# Elastic Constant Matrix: (Units=GPa)
#
#
# Indices 1 2 3 4 5 6 
#
# 1 197.1768 72.2990 81.8839 0.0000 0.0000 0.0000
# 2 72.2990 184.9327 31.3082 0.0000 0.0000 0.0000
# 3 81.8839 31.3082 98.0392 0.0000 0.0000 0.0000
# 4 0.0000 0.0000 0.0000 37.9144 0.0000 0.0000
# 5 0.0000 0.0000 0.0000 0.0000 34.8169 0.0000
# 6 0.0000 0.0000 0.0000 0.0000 0.0000 31.6612
#
#
#
# Elastic Compliance Matrix: (Units=1/GPa)
#
#
# Indices 1 2 3 4 5 6 
#
# 1 0.008576 -0.002262 -0.006440 0.000000 0.000000 0.000000
# 2 -0.002262 0.006313 -0.000127 0.000000 0.000000 0.000000
# 3 -0.006440 -0.000127 0.015619 0.000000 0.000000 0.000000
# 4 0.000000 0.000000 0.000000 0.026375 0.000000 0.000000
# 5 0.000000 0.000000 0.000000 0.000000 0.028722 0.000000
# 6 0.000000 0.000000 0.000000 0.000000 0.000000 0.031584
#
#
# Mechanical properties :
#
#
# Convention : Reuss Voigt Hill
#
# Bulk Modulus (GPa) = 77.81947 94.57011 86.19479
# Shear Modulus (GPa) = 35.93753 40.52234 38.22994
#
# Velocity S-wave (km/s) = 3.89313 4.13402 4.01538
# Velocity P-wave (km/s) = 7.28208 7.91652 7.60592
#
# Compressibility (1/GPa) = 0.01285025
#
# Stress axis : x y z
#
# Youngs Moduli (GPa) = 116.61116 158.39705 64.02387
#
# Poissons Ratio (x) = 0.35835 0.41231
# Poissons Ratio (y) = 0.26381 0.00810
# Poissons Ratio (z) = 0.75097 0.02005
#
# Static dielectric constant tensor:
#      x y z
#    x 1.930470 0.000000 0.000000 
#    y 0.000000 2.096170 0.000000 
#    z 0.000000 0.000000 2.033910 
# 
# From -- ./inp_files/5366.got.cif
#   From: 2010.05.17/outbox.cif.g08.bks.cpg/sg45_3_cif.got.tgz:5366.got - 2010.06.03 19:51:22.
