data_PCOD9377605
_publ_section_title
;
Structure prediction by ZEFSAII (Michael W. Deem and Ramdas Pophale) SiO2 
 PCOD9377605
Probable space group: I B A 2
;
_chemical_formula_sum "Si O2"
_cell_formula_units_Z 48
_cell_length_a 8.614017
_cell_length_b 27.289654
_cell_length_c 9.528466
_cell_angle_alpha 90.000000
_cell_angle_beta 90.000000
_cell_angle_gamma 90.000000
_cell_volume 2239.890267
_symmetry_space_group_name_H-M "I B A 2"
_symmetry_group_IT_number 45
_symmetry_cell_setting 'orthorhombic'
loop_
_space_group_symop_operation_xyz
x,y,z
-x,-y,z
-x,y,1/2+z
x,-y,1/2+z
1/2+x,1/2+y,1/2+z
1/2-x,1/2-y,1/2+z
1/2-x,1/2+y,z
1/2+x,1/2-y,z
loop_
_atom_site_type_symbol
_atom_site_label
_atom_site_fract_x
_atom_site_fract_y
_atom_site_fract_z
Si Si1 0.343283 0.570177 0.199430
Si Si2 0.201838 0.955747 0.197104
Si Si3 0.851509 0.205787 0.052693
Si Si4 0.190987 0.392329 0.967921
Si Si5 0.171394 0.609916 0.930200
Si Si6 0.333033 0.712007 0.880563
O O1 0.294270 0.513581 0.217882
O O2 0.529119 0.566889 0.216776
O O3 0.259997 0.604855 0.311971
O O4 0.287079 0.589250 0.049000
O O5 0.314363 0.927163 0.300866
O O6 0.252820 0.942158 0.040952
O O7 0.867941 0.221843 0.215704
O O8 0.767540 0.153354 0.047037
O O9 0.751476 0.243639 0.960235
O O10 0.013734 0.201424 0.971432
O O11 0.006764 0.388505 0.976060
O O12 0.225756 0.663994 0.888272
#
# Coordination Sequence:
#
# PCOD9377605 Si02
#       6
#     8   8   8   8   8   8
#     4  11  25  41  74  95 140 189 237 297 351 429
#     4  11  23  47  64 103 136 187 243 291 359 419
#     4  12  27  48  76 106 145 188 239 294 360 434
#     4  12  26  43  69 103 143 184 236 292 356 424
#     4  12  26  43  69 103 143 184 236 292 356 424
#     4  12  27  48  76 106 145 188 239 294 360 434
#
# _framework density 21.429621999999998
#
# number of rings (size 3 to 8) (size 9 to 14) (size 15 to 20)
#    0.000    0.333    1.667    7.000    4.667    6.667 
#    0.000    0.000    0.000    0.000    0.000    0.000 
#    0.000    0.000    0.000    0.000    0.000    0.000 
#
# Total GULP energy -134363.016827 kJ/mol
# GULP energy per Si atom -5598.459034 kJ/mol
# Density = 2.138085 g / cm^3
# Si number density = 21.429622 Si / 1000 Ang^3
#
#
#
# Elastic Constant Matrix: (Units=GPa)
#
#
# Indices 1 2 3 4 5 6 
#
# 1 95.7404 25.8883 6.3135 0.0004 0.0003 0.0005
# 2 25.8883 75.1934 17.6045 0.0005 -0.0001 0.0001
# 3 6.3135 17.6045 112.0503 0.0009 0.0014 0.0033
# 4 0.0004 0.0005 0.0009 40.3237 -0.0003 0.0003
# 5 0.0003 -0.0001 0.0014 -0.0003 27.5607 0.0003
# 6 0.0005 0.0001 0.0033 0.0003 0.0003 22.9218
#
#
#
# Elastic Compliance Matrix: (Units=1/GPa)
#
#
# Indices 1 2 3 4 5 6 
#
# 1 0.011517 -0.003959 -0.000027 0.000000 0.000000 0.000000
# 2 -0.003959 0.015168 -0.002160 0.000000 0.000000 0.000000
# 3 -0.000027 -0.002160 0.009265 0.000000 0.000000 -0.000001
# 4 0.000000 0.000000 0.000000 0.024799 0.000000 0.000000
# 5 0.000000 0.000000 0.000000 0.000000 0.036284 -0.000001
# 6 0.000000 0.000000 -0.000001 0.000000 -0.000001 0.043627
#
#
# Mechanical properties :
#
#
# Convention : Reuss Voigt Hill
#
# Bulk Modulus (GPa) = 42.26777 42.51073 42.38925
# Shear Modulus (GPa) = 31.08722 33.70643 32.39683
#
# Velocity S-wave (km/s) = 3.81289 3.97027 3.89238
# Velocity P-wave (km/s) = 6.25708 6.39514 6.32649
#
# Compressibility (1/GPa) = 0.02365869
#
# Stress axis : x y z
#
# Youngs Moduli (GPa) = 86.82681 65.92933 107.92795
#
# Poissons Ratio (x) = 0.26101 0.00291
# Poissons Ratio (y) = 0.34374 0.23312
# Poissons Ratio (z) = 0.00234 0.14241
#
# Static dielectric constant tensor:
#      x y z
#    x 1.742400 0.000000 0.000000 
#    y 0.000000 1.728640 0.000000 
#    z 0.000000 0.000000 1.772910 
# 
# From -- ./inp_files/1049.got.cif
#   From: 2010.05.17/outbox.cif.g08.bks.cpg/sg45_1_cif.got.tgz:1049.got - 2010.06.03 19:51:22.
