data_PCOD9377123
_publ_section_title
;
Structure prediction by ZEFSAII (Michael W. Deem and Ramdas Pophale) SiO2 
 PCOD9377123
Probable space group: I B A 2
;
_chemical_formula_sum "Si O2"
_cell_formula_units_Z 60
_cell_length_a 8.547347
_cell_length_b 16.499071
_cell_length_c 17.562003
_cell_angle_alpha 90.000000
_cell_angle_beta 90.000000
_cell_angle_gamma 90.000000
_cell_volume 2476.651354
_symmetry_space_group_name_H-M "I B A 2"
_symmetry_group_IT_number 45
_symmetry_cell_setting 'orthorhombic'
loop_
_space_group_symop_operation_xyz
x,y,z
-x,-y,z
-x,y,1/2+z
x,-y,1/2+z
1/2+x,1/2+y,1/2+z
1/2-x,1/2-y,1/2+z
1/2-x,1/2+y,z
1/2+x,1/2-y,z
loop_
_atom_site_type_symbol
_atom_site_label
_atom_site_fract_x
_atom_site_fract_y
_atom_site_fract_z
Si Si1 0.208225 0.425691 0.674820
Si Si2 0.913657 0.725910 0.969174
Si Si3 0.850174 0.882652 0.317809
Si Si4 0.818136 0.695558 0.363524
Si Si5 0.002120 0.846927 0.092991
Si Si6 0.000000 0.500000 0.565349
Si Si7 0.790995 0.927554 0.482670
Si Si8 0.826248 0.100885 0.229952
O O1 0.204166 0.392096 0.760266
O O2 0.339961 0.375536 0.630240
O O3 0.268038 0.517954 0.691197
O O4 0.053894 0.429363 0.623608
O O5 0.837161 0.795348 0.915636
O O6 0.779681 0.663175 0.988660
O O7 0.040793 0.676486 0.920473
O O8 0.980038 0.767065 0.043751
O O9 0.853349 0.787289 0.336121
O O10 0.828719 0.935579 0.393789
O O11 0.008611 0.907929 0.274736
O O12 0.790266 0.637870 0.292204
O O13 0.128771 0.839956 0.160401
O O14 0.059400 0.917880 0.036057
O O15 0.846515 0.483112 0.515415
#
# Coordination Sequence:
#
# PCOD9377123 Si02
#       8
#     8   8   8   8   8   4   8   8
#     4  11  27  47  69 102 145 186 239 293 359 447
#     4  11  23  43  69 104 139 181 239 300 359 432
#     4  10  22  45  70  99 132 186 241 281 361 436
#     4  11  22  42  68 103 140 177 237 297 354 431
#     4  11  22  45  72  95 140 191 231 291 359 437
#     4  12  28  46  64 106 144 184 234 302 370 416
#     4  11  25  45  67 103 143 179 243 297 357 435
#     4  11  23  44  70 103 137 191 237 294 355 437
#
# _framework density 24.226261000000001
#
# number of rings (size 3 to 8) (size 9 to 14) (size 15 to 20)
#    0.000    1.067    5.333    1.600    1.867    6.933 
#    4.800    0.000    0.000    0.000    0.000    0.000 
#    0.000    0.000    0.000    0.000    0.000    0.000 
#
# Total GULP energy -167820.152370 kJ/mol
# GULP energy per Si atom -5594.005079 kJ/mol
# Density = 2.417112 g / cm^3
# Si number density = 24.226261 Si / 1000 Ang^3
#
#
#
# Elastic Constant Matrix: (Units=GPa)
#
#
# Indices 1 2 3 4 5 6 
#
# 1 58.7773 -5.5832 26.9087 0.0000 0.0000 0.0000
# 2 -5.5832 49.0628 10.1756 0.0000 0.0000 0.0000
# 3 26.9087 10.1756 136.9793 0.0000 0.0000 0.0000
# 4 0.0000 0.0000 0.0000 -5.6517 0.0000 0.0000
# 5 0.0000 0.0000 0.0000 0.0000 37.3976 0.0000
# 6 0.0000 0.0000 0.0000 0.0000 0.0000 29.2881
#
#
#
# Elastic Compliance Matrix: (Units=1/GPa)
#
#
# Indices 1 2 3 4 5 6 
#
# 1 0.019120 0.003001 -0.003979 0.000000 0.000000 0.000000
# 2 0.003001 0.021172 -0.002162 0.000000 0.000000 0.000000
# 3 -0.003979 -0.002162 0.008243 0.000000 0.000000 0.000000
# 4 0.000000 0.000000 0.000000 -0.176939 0.000000 0.000000
# 5 0.000000 0.000000 0.000000 0.000000 0.026740 0.000000
# 6 0.000000 0.000000 0.000000 0.000000 0.000000 0.034144
#
#
# Mechanical properties :
#
#
# Convention : Reuss Voigt Hill
#
# Bulk Modulus (GPa) = 23.66626 34.20241 28.93433
# Shear Modulus (GPa) = -106.03033 26.42804 -39.80115
#
# Velocity S-wave (km/s) = -6.62282 3.30644 -4.05766
# Velocity P-wave (km/s) = 6.97798 5.35959 3.15967
#
# Compressibility (1/GPa) = 0.04225425
#
# Stress axis : x y z
#
# Youngs Moduli (GPa) = 52.30118 47.23217 121.32039
#
# Poissons Ratio (x) = -0.14175 0.48273
# Poissons Ratio (y) = -0.15696 0.26233
# Poissons Ratio (z) = 0.20810 0.10213
#
# Static dielectric constant tensor:
#      x y z
#    x 1.981870 0.000000 0.000000 
#    y 0.000000 1.934250 0.000000 
#    z 0.000000 0.000000 1.980240 
# 
# From -- ./inp_files/7708.got.cif
#   From: 2010.05.17/outbox.cif.g08.bks.cpg/sg45_4_cif.got.tgz:7708.got - 2010.06.03 19:51:22.
