data_PCOD9377469
_publ_section_title
;
Structure prediction by ZEFSAII (Michael W. Deem and Ramdas Pophale) SiO2 
 PCOD9377469
Probable space group: I B A 2
;
_chemical_formula_sum "Si O2"
_cell_formula_units_Z 40
_cell_length_a 5.275426
_cell_length_b 30.505944
_cell_length_c 9.268858
_cell_angle_alpha 90.000000
_cell_angle_beta 90.000000
_cell_angle_gamma 90.000000
_cell_volume 1491.654467
_symmetry_space_group_name_H-M "I B A 2"
_symmetry_group_IT_number 45
_symmetry_cell_setting 'orthorhombic'
loop_
_space_group_symop_operation_xyz
x,y,z
-x,-y,z
-x,y,1/2+z
x,-y,1/2+z
1/2+x,1/2+y,1/2+z
1/2-x,1/2-y,1/2+z
1/2-x,1/2+y,z
1/2+x,1/2-y,z
loop_
_atom_site_type_symbol
_atom_site_label
_atom_site_fract_x
_atom_site_fract_y
_atom_site_fract_z
Si Si1 0.000000 0.500000 0.639961
Si Si2 0.111729 0.668206 0.802445
Si Si3 0.219736 0.276916 0.024776
Si Si4 0.533251 0.597335 0.455270
Si Si5 0.322557 0.908929 0.736626
Si Si6 0.500000 0.500000 0.456513
O O1 0.930827 0.542929 0.727750
O O2 0.750037 0.489587 0.548431
O O3 0.206908 0.704165 0.687817
O O4 0.313921 0.638737 0.891848
O O5 0.999668 0.630875 0.697190
O O6 0.899641 0.690661 0.904503
O O7 0.513319 0.262707 0.008173
O O8 0.250125 0.601755 0.400058
O O9 0.593924 0.593708 0.622639
O O10 0.579930 0.547437 0.390321
#
# Coordination Sequence:
#
# PCOD9377469 Si02
#       6
#     4   8   8   8   8   4
#     4  10  26  50  76 116 166 226 278 334 396 464
#     4  12  28  49  82 117 162 210 269 337 412 498
#     4  12  30  55  84 116 157 206 268 345 429 503
#     4  11  28  46  79 115 164 216 275 328 398 480
#     4  11  28  47  81 114 167 217 275 335 396 484
#     4  10  26  48  76 114 166 222 276 334 398 466
#
# _framework density 26.815861000000002
#
# number of rings (size 3 to 8) (size 9 to 14) (size 15 to 20)
#    0.000    0.800    2.000    1.200   22.400    0.800 
#    0.000    0.000    0.000    0.000    0.000    0.000 
#    0.000    0.000    0.000    0.000    0.000    0.000 
#
# Total GULP energy -111788.801718 kJ/mol
# GULP energy per Si atom -5589.440086 kJ/mol
# Density = 2.675483 g / cm^3
# Si number density = 26.815861 Si / 1000 Ang^3
#
#
#
# Elastic Constant Matrix: (Units=GPa)
#
#
# Indices 1 2 3 4 5 6 
#
# 1 98.2656 16.6425 32.7885 0.0000 0.0000 0.0000
# 2 16.6425 153.0412 38.9670 -0.0001 0.0000 0.0000
# 3 32.7885 38.9670 116.1786 -0.0003 0.0000 0.0000
# 4 0.0000 -0.0001 -0.0003 41.8617 0.0000 0.0000
# 5 0.0000 0.0000 0.0000 0.0000 48.1913 0.0000
# 6 0.0000 0.0000 0.0000 0.0000 0.0000 54.3517
#
#
#
# Elastic Compliance Matrix: (Units=1/GPa)
#
#
# Indices 1 2 3 4 5 6 
#
# 1 0.011263 -0.000454 -0.003026 0.000000 0.000000 0.000000
# 2 -0.000454 0.007163 -0.002274 0.000000 0.000000 0.000000
# 3 -0.003026 -0.002274 0.010224 0.000000 0.000000 0.000000
# 4 0.000000 0.000000 0.000000 0.023888 0.000000 0.000000
# 5 0.000000 0.000000 0.000000 0.000000 0.020751 0.000000
# 6 0.000000 0.000000 0.000000 0.000000 0.000000 0.018399
#
#
# Mechanical properties :
#
#
# Convention : Reuss Voigt Hill
#
# Bulk Modulus (GPa) = 58.34123 60.47571 59.40847
# Shear Modulus (GPa) = 45.90906 47.48677 46.69791
#
# Velocity S-wave (km/s) = 4.14213 4.21271 4.17757
# Velocity P-wave (km/s) = 6.68430 6.80174 6.74328
#
# Compressibility (1/GPa) = 0.01714054
#
# Stress axis : x y z
#
# Youngs Moduli (GPa) = 88.78418 139.61339 97.80583
#
# Poissons Ratio (x) = 0.06342 0.29600
# Poissons Ratio (y) = 0.04033 0.22243
# Poissons Ratio (z) = 0.26870 0.31751
#
# Static dielectric constant tensor:
#      x y z
#    x 2.162970 0.000000 0.000000 
#    y 0.000000 2.238060 0.000000 
#    z 0.000000 0.000000 2.091500 
# 
# From -- ./inp_files/2962.got.cif
#   From: 2010.05.17/outbox.cif.g08.bks.cpg/sg45_2_cif.got.tgz:2962.got - 2010.06.03 19:51:22.
