data_PCOD9377341
_publ_section_title
;
Structure prediction by ZEFSAII (Michael W. Deem and Ramdas Pophale) SiO2 
 PCOD9377341
Probable space group: I B A 2
;
_chemical_formula_sum "Si O2"
_cell_formula_units_Z 64
_cell_length_a 10.678407
_cell_length_b 17.735568
_cell_length_c 13.832553
_cell_angle_alpha 90.000000
_cell_angle_beta 90.000000
_cell_angle_gamma 90.000000
_cell_volume 2619.714201
_symmetry_space_group_name_H-M "I B A 2"
_symmetry_group_IT_number 45
_symmetry_cell_setting 'orthorhombic'
loop_
_space_group_symop_operation_xyz
x,y,z
-x,-y,z
-x,y,1/2+z
x,-y,1/2+z
1/2+x,1/2+y,1/2+z
1/2-x,1/2-y,1/2+z
1/2-x,1/2+y,z
1/2+x,1/2-y,z
loop_
_atom_site_type_symbol
_atom_site_label
_atom_site_fract_x
_atom_site_fract_y
_atom_site_fract_z
Si Si1 0.701656 0.430996 0.887690
Si Si2 0.116728 0.052235 0.100643
Si Si3 0.109323 0.561555 0.379980
Si Si4 0.920273 0.711424 0.788597
Si Si5 0.827876 0.685831 0.039346
Si Si6 0.177053 0.274499 0.397832
Si Si7 0.299909 0.589217 0.669216
Si Si8 0.497283 0.306911 0.611383
O O1 0.766858 0.511238 0.871898
O O2 0.798828 0.363569 0.911245
O O3 0.654159 0.409823 0.779902
O O4 0.618108 0.437008 0.984087
O O5 0.114859 0.135539 0.145746
O O6 0.227204 0.995532 0.133541
O O7 0.000000 0.000000 0.134723
O O8 0.084710 0.620693 0.293725
O O9 0.000000 0.500000 0.390106
O O10 0.129735 0.617852 0.470279
O O11 0.042874 0.736287 0.849955
O O12 0.941421 0.751636 0.687934
O O13 0.790292 0.742449 0.831897
O O14 0.811222 0.648000 0.145177
O O15 0.930409 0.751485 0.038357
O O16 0.706592 0.729479 0.996053
O O17 0.402333 0.626373 0.597040
#
# Coordination Sequence:
#
# PCOD9377341 Si02
#       8
#     8   8   8   8   8   8   8   8
#     4  12  22  48  70  99 152 200 249 313 381 461
#     4  10  24  44  71 106 143 193 249 313 380 452
#     4  11  25  45  70 102 146 198 251 305 385 462
#     4  11  25  46  73 112 144 198 252 310 381 455
#     4  11  25  43  69 106 143 195 250 317 378 457
#     4  11  24  44  76 105 149 198 253 312 381 450
#     4  11  25  45  70 106 145 193 255 311 384 457
#     4  11  24  44  70 106 148 187 252 313 374 459
#
# _framework density 24.430146000000001
#
# number of rings (size 3 to 8) (size 9 to 14) (size 15 to 20)
#    0.000    1.000    5.000    0.750    3.500    3.500 
#    2.250    0.000    0.000    0.000    0.000    0.000 
#    0.000    0.000    0.000    0.000    0.000    0.000 
#
# Total GULP energy -178451.434166 kJ/mol
# GULP energy per Si atom -5576.607318 kJ/mol
# Density = 2.437454 g / cm^3
# Si number density = 24.430146 Si / 1000 Ang^3
#
#
#
# Elastic Constant Matrix: (Units=GPa)
#
#
# Indices 1 2 3 4 5 6 
#
# 1 56.6706 16.9078 -6.6550 0.0000 0.0000 0.0000
# 2 16.9078 180.0260 24.7879 0.0000 0.0000 0.0000
# 3 -6.6550 24.7879 63.5924 -0.0001 0.0000 0.0000
# 4 0.0000 0.0000 -0.0001 48.4220 0.0000 0.0000
# 5 0.0000 0.0000 0.0000 0.0000 31.0603 0.0000
# 6 0.0000 0.0000 0.0000 0.0000 0.0000 40.8859
#
#
#
# Elastic Compliance Matrix: (Units=1/GPa)
#
#
# Indices 1 2 3 4 5 6 
#
# 1 0.018608 -0.002130 0.002778 0.000000 0.000000 0.000000
# 2 -0.002130 0.006114 -0.002606 0.000000 0.000000 0.000000
# 3 0.002778 -0.002606 0.017032 0.000000 0.000000 0.000000
# 4 0.000000 0.000000 0.000000 0.020652 0.000000 0.000000
# 5 0.000000 0.000000 0.000000 0.000000 0.032195 0.000000
# 6 0.000000 0.000000 0.000000 0.000000 0.000000 0.024458
#
#
# Mechanical properties :
#
#
# Convention : Reuss Voigt Hill
#
# Bulk Modulus (GPa) = 26.42996 41.15229 33.79112
# Shear Modulus (GPa) = 36.87667 41.75685 39.31676
#
# Velocity S-wave (km/s) = 3.88941 4.13877 4.01603
# Velocity P-wave (km/s) = 5.56885 6.30244 5.94697
#
# Compressibility (1/GPa) = 0.03783585
#
# Stress axis : x y z
#
# Youngs Moduli (GPa) = 53.74171 163.56916 58.71438
#
# Poissons Ratio (x) = 0.34841 -0.16308
# Poissons Ratio (y) = 0.11447 0.15301
# Poissons Ratio (z) = -0.14927 0.42625
#
# Static dielectric constant tensor:
#      x y z
#    x 2.218500 0.000000 0.000000 
#    y 0.000000 1.997130 0.000000 
#    z 0.000000 0.000000 2.024720 
# 
# From -- ./inp_files/6297.got.cif
#   From: 2010.05.17/outbox.cif.g08.bks.cpg/sg45_4_cif.got.tgz:6297.got - 2010.06.03 19:51:22.
