data_PCOD9377096
_publ_section_title
;
Structure prediction by ZEFSAII (Michael W. Deem and Ramdas Pophale) SiO2 
 PCOD9377096
Probable space group: I B A 2
;
_chemical_formula_sum "Si O2"
_cell_formula_units_Z 32
_cell_length_a 12.407219
_cell_length_b 9.208662
_cell_length_c 13.164491
_cell_angle_alpha 90.000000
_cell_angle_beta 90.000000
_cell_angle_gamma 90.000000
_cell_volume 1504.094256
_symmetry_space_group_name_H-M "I B A 2"
_symmetry_group_IT_number 45
_symmetry_cell_setting 'orthorhombic'
loop_
_space_group_symop_operation_xyz
x,y,z
-x,-y,z
-x,y,1/2+z
x,-y,1/2+z
1/2+x,1/2+y,1/2+z
1/2-x,1/2-y,1/2+z
1/2-x,1/2+y,z
1/2+x,1/2-y,z
loop_
_atom_site_type_symbol
_atom_site_label
_atom_site_fract_x
_atom_site_fract_y
_atom_site_fract_z
Si Si1 0.222624 0.348082 0.803110
Si Si2 0.702223 0.722863 0.591582
Si Si3 0.120820 0.468690 0.616808
Si Si4 0.118977 0.936006 0.407535
O O1 0.305742 0.307672 0.711893
O O2 0.138290 0.444675 0.737549
O O3 0.160402 0.207004 0.844802
O O4 0.291819 0.441671 0.881437
O O5 0.824105 0.671682 0.567149
O O6 0.685298 0.891494 0.580863
O O7 0.625700 0.624588 0.522720
O O8 0.000000 0.500000 0.590150
O O9 0.000000 0.000000 0.385330
#
# Coordination Sequence:
#
# PCOD9377096 Si02
#       4
#     8   8   8   8
#     4  10  23  44  67 104 146 179 246 294 355 449
#     4  10  23  44  65 102 141 175 246 290 350 443
#     4  10  22  43  69  91 133 189 224 292 358 418
#     4  12  26  43  75 107 144 193 238 308 371 436
#
# _framework density 21.275262000000001
#
# number of rings (size 3 to 8) (size 9 to 14) (size 15 to 20)
#    1.500    0.000    2.500    1.500    3.500    5.000 
#    0.000    2.500    0.000    0.000    0.000    0.000 
#    0.000    0.000    0.000    0.000    0.000    0.000 
#
# Total GULP energy -89072.452866 kJ/mol
# GULP energy per Si atom -5567.028304 kJ/mol
# Density = 2.122684 g / cm^3
# Si number density = 21.275262 Si / 1000 Ang^3
#
#
#
# Elastic Constant Matrix: (Units=GPa)
#
#
# Indices 1 2 3 4 5 6 
#
# 1 117.3954 95.2246 27.9105 0.0000 0.0000 0.0000
# 2 95.2246 159.6768 62.9081 0.0000 0.0000 0.0000
# 3 27.9105 62.9081 89.1193 0.0000 0.0000 0.0000
# 4 0.0000 0.0000 0.0000 65.8989 0.0000 0.0000
# 5 0.0000 0.0000 0.0000 0.0000 22.2445 0.0000
# 6 0.0000 0.0000 0.0000 0.0000 0.0000 25.5270
#
#
#
# Elastic Compliance Matrix: (Units=1/GPa)
#
#
# Indices 1 2 3 4 5 6 
#
# 1 0.016900 -0.011072 0.002523 0.000000 0.000000 0.000000
# 2 -0.011072 0.015930 -0.007777 0.000000 0.000000 0.000000
# 3 0.002523 -0.007777 0.015920 0.000000 0.000000 0.000000
# 4 0.000000 0.000000 0.000000 0.015175 0.000000 0.000000
# 5 0.000000 0.000000 0.000000 0.000000 0.044955 0.000000
# 6 0.000000 0.000000 0.000000 0.000000 0.000000 0.039174
#
#
# Mechanical properties :
#
#
# Convention : Reuss Voigt Hill
#
# Bulk Modulus (GPa) = 62.12154 82.03089 72.07621
# Shear Modulus (GPa) = 26.87148 34.74395 30.80771
#
# Velocity S-wave (km/s) = 3.55778 4.04551 3.80946
# Velocity P-wave (km/s) = 6.79260 7.77574 7.30074
#
# Compressibility (1/GPa) = 0.01609748
#
# Stress axis : x y z
#
# Youngs Moduli (GPa) = 59.17325 62.77661 62.81298
#
# Poissons Ratio (x) = 0.69508 -0.15848
# Poissons Ratio (y) = 0.65518 0.48849
# Poissons Ratio (z) = -0.14930 0.48820
#
# Static dielectric constant tensor:
#      x y z
#    x 1.747350 0.000000 0.000000 
#    y 0.000000 1.743660 0.000000 
#    z 0.000000 0.000000 1.852460 
# 
# From -- ./inp_files/3086.got.cif
#   From: 2010.05.17/outbox.cif.g08.bks.cpg/sg45_2_cif.got.tgz:3086.got - 2010.06.03 19:51:22.
