data_PCOD9377767
_publ_section_title
;
Structure prediction by ZEFSAII (Michael W. Deem and Ramdas Pophale) SiO2 
 PCOD9377767
Probable space group: I M A 2
;
_chemical_formula_sum "Si O2"
_cell_formula_units_Z 48
_cell_length_a 8.581335
_cell_length_b 7.644223
_cell_length_c 33.670090
_cell_angle_alpha 90.000000
_cell_angle_beta 90.000000
_cell_angle_gamma 90.000000
_cell_volume 2208.678388
_symmetry_space_group_name_H-M "I M A 2"
_symmetry_group_IT_number 46
_symmetry_cell_setting 'orthorhombic'
loop_
_space_group_symop_operation_xyz
x,y,z
-x,-y,z
1/2-x,y,z
1/2+x,-y,z
1/2+x,1/2+y,1/2+z
1/2-x,1/2-y,1/2+z
-x,1/2+y,1/2+z
x,1/2-y,1/2+z
loop_
_atom_site_type_symbol
_atom_site_label
_atom_site_fract_x
_atom_site_fract_y
_atom_site_fract_z
Si Si1 0.562833 0.200227 0.639250
Si Si2 0.436254 0.305098 0.306397
Si Si3 0.936556 0.299856 0.225712
Si Si4 0.935654 0.700423 0.057540
Si Si5 0.936891 0.804576 0.394549
Si Si6 0.435728 0.700781 0.975663
O O1 0.750000 0.196489 0.635768
O O2 0.520725 0.277964 0.682520
O O3 0.491793 0.280802 0.599254
O O4 0.500000 0.000000 0.640373
O O5 0.500000 0.500000 0.303272
O O6 0.250000 0.298866 0.305316
O O7 0.498751 0.215301 0.266184
O O8 0.487897 0.250822 0.350476
O O9 0.750000 0.306295 0.228463
O O10 0.000000 0.500000 0.224317
O O11 0.750000 0.696036 0.055892
O O12 0.000000 0.500000 0.058322
O O13 0.002119 0.780467 0.016830
O O14 0.750000 0.797269 0.396548
O O15 0.004655 0.716390 0.434352
O O16 0.000000 0.000000 0.396993
O O17 0.500000 0.500000 0.976184
O O18 0.250000 0.695834 0.975773
#
# Coordination Sequence:
#
# PCOD9377767 Si02
#       6
#     8   8   8   8   8   8
#     4   9  15  22  32  50  75 105 140 175 211 257
#     4  10  20  32  48  68  92 120 153 189 227 270
#     4   9  16  25  39  57  81 112 145 180 220 263
#     4  10  16  22  33  50  75 107 140 175 213 259
#     4  10  20  33  48  68  91 119 153 190 228 270
#     4  10  17  26  40  57  80 111 143 179 220 265
#
# _framework density 21.732451999999999
#
# number of rings (size 3 to 8) (size 9 to 14) (size 15 to 20)
#    0.000    2.333    0.000    9.000    0.000    4.667 
#    0.000    0.000    0.000    0.000    0.000    0.000 
#    0.000    1.333    0.000    6.667    0.000   14.167 
#
# Total GULP energy -133771.914497 kJ/mol
# GULP energy per Si atom -5573.829771 kJ/mol
# Density = 2.168299 g / cm^3
# Si number density = 21.732452 Si / 1000 Ang^3
#
#
#
# Elastic Constant Matrix: (Units=GPa)
#
#
# Indices 1 2 3 4 5 6 
#
# 1 117.5909 1.5557 84.6491 0.0000 0.0000 0.0000
# 2 1.5557 33.3956 21.2823 0.0000 0.0000 0.0000
# 3 84.6491 21.2823 311.6614 0.0000 0.0000 0.0000
# 4 0.0000 0.0000 0.0000 5.0665 0.0000 0.0000
# 5 0.0000 0.0000 0.0000 0.0000 45.0859 0.0000
# 6 0.0000 0.0000 0.0000 0.0000 0.0000 0.1048
#
#
#
# Elastic Compliance Matrix: (Units=1/GPa)
#
#
# Indices 1 2 3 4 5 6 
#
# 1 0.010634 0.001406 -0.002984 0.000000 0.000000 0.000000
# 2 0.001406 0.031492 -0.002533 0.000000 0.000000 0.000001
# 3 -0.002984 -0.002533 0.004192 0.000000 0.000000 0.000000
# 4 0.000000 0.000000 0.000000 0.197376 0.000000 0.000006
# 5 0.000000 0.000000 0.000000 0.000000 0.022180 0.000000
# 6 0.000000 0.000001 0.000000 0.000006 0.000000 9.542847
#
#
# Mechanical properties :
#
#
# Convention : Reuss Voigt Hill
#
# Bulk Modulus (GPa) = 26.24838 75.29137 50.76987
# Shear Modulus (GPa) = 0.50867 33.72882 17.11874
#
# Velocity S-wave (km/s) = 0.48432 3.94382 2.80965
# Velocity P-wave (km/s) = 3.52377 7.44702 5.82560
#
# Compressibility (1/GPa) = 0.03809759
#
# Stress axis : x y z
#
# Youngs Moduli (GPa) = 94.04091 31.75365 238.54530
#
# Poissons Ratio (x) = -0.04466 0.71187
# Poissons Ratio (y) = -0.13226 0.60412
# Poissons Ratio (z) = 0.28064 0.08042
#
# Static dielectric constant tensor:
#      x y z
#    x 1.719880 0.000000 0.000000 
#    y 0.000000 1.920620 0.000000 
#    z 0.000000 0.000000 1.971680 
# 
# From -- ./inp_files/25123.got.cif
#   From: 2010.05.17/outbox.cif.g08.bks.cpg/sg46_13_cif.got.tgz:25123.got - 2010.06.03 19:58:25.
