data_PCOD9377820
_publ_section_title
;
Structure prediction by ZEFSAII (Michael W. Deem and Ramdas Pophale) SiO2 
 PCOD9377820
Probable space group: I M A 2
;
_chemical_formula_sum "Si O2"
_cell_formula_units_Z 64
_cell_length_a 14.363427
_cell_length_b 6.928635
_cell_length_c 22.498794
_cell_angle_alpha 90.000000
_cell_angle_beta 90.000000
_cell_angle_gamma 90.000000
_cell_volume 2239.056198
_symmetry_space_group_name_H-M "I M A 2"
_symmetry_group_IT_number 46
_symmetry_cell_setting 'orthorhombic'
loop_
_space_group_symop_operation_xyz
x,y,z
-x,-y,z
1/2-x,y,z
1/2+x,-y,z
1/2+x,1/2+y,1/2+z
1/2-x,1/2-y,1/2+z
-x,1/2+y,1/2+z
x,1/2-y,1/2+z
loop_
_atom_site_type_symbol
_atom_site_label
_atom_site_fract_x
_atom_site_fract_y
_atom_site_fract_z
Si Si1 0.905820 0.379919 0.022980
Si Si2 0.143203 0.582965 0.896238
Si Si3 0.643366 0.917485 0.801483
Si Si4 0.141307 0.366981 0.429386
Si Si5 0.145445 0.294458 0.554448
Si Si6 0.364407 0.317904 0.178208
Si Si7 0.142887 0.862021 0.267085
Si Si8 0.862748 0.242002 0.143537
O O1 0.841607 0.564258 0.039832
O O2 0.894413 0.224781 0.075239
O O3 0.000000 0.500000 0.025935
O O4 0.893351 0.309037 0.955101
O O5 0.250000 0.647367 0.888368
O O6 0.141237 0.362093 0.916213
O O7 0.099636 0.582491 0.830622
O O8 0.750000 0.849761 0.811578
O O9 0.601166 0.940833 0.866984
O O10 0.603247 0.790894 0.746873
O O11 0.648553 0.130813 0.775357
O O12 0.250000 0.428952 0.434110
O O13 0.099391 0.380598 0.495191
O O14 0.250000 0.375523 0.559294
O O15 0.103706 0.301794 0.620476
O O16 0.250000 0.307283 0.179654
O O17 0.389653 0.537159 0.159932
O O18 0.250000 0.936821 0.265742
O O19 0.105014 0.883666 0.200342
O O20 0.750000 0.231072 0.144395
#
# Coordination Sequence:
#
# PCOD9377820 Si02
#       8
#     8   8   8   8   8   8   8   8
#     4  10  17  24  39  61  85 111 143 181 216 255
#     4   9  16  27  42  62  85 112 140 173 217 265
#     4   8  12  19  33  57  81 101 126 163 204 245
#     4   8  13  20  34  55  80 103 127 161 203 243
#     4   8  13  23  37  54  74  98 128 167 206 242
#     4   7  10  17  32  51  71  92 119 153 192 229
#     4   8  14  24  42  63  84 109 138 170 214 262
#     4   8  13  24  41  61  82 108 142 182 218 253
#
# _framework density 28.583469999999998
#
# number of rings (size 3 to 8) (size 9 to 14) (size 15 to 20)
#    0.000    3.750    0.000    4.125    0.000    0.000 
#    0.000    0.000    0.000   10.500    0.000    8.750 
#    0.000    0.000    0.000    0.000    0.000    0.000 
#
# Total GULP energy -178652.524467 kJ/mol
# GULP energy per Si atom -5582.891390 kJ/mol
# Density = 2.851841 g / cm^3
# Si number density = 28.583470 Si / 1000 Ang^3
#
#
#
# Elastic Constant Matrix: (Units=GPa)
#
#
# Indices 1 2 3 4 5 6 
#
# 1 99.8191 6.2389 39.1661 0.0000 0.0000 0.0000
# 2 6.2389 77.6200 60.5266 0.0000 0.0000 0.0000
# 3 39.1661 60.5266 403.0006 0.0000 0.0000 0.0000
# 4 0.0000 0.0000 0.0000 65.1188 0.0000 0.0000
# 5 0.0000 0.0000 0.0000 0.0000 -24.6656 0.0000
# 6 0.0000 0.0000 0.0000 0.0000 0.0000 3.4153
#
#
#
# Elastic Compliance Matrix: (Units=1/GPa)
#
#
# Indices 1 2 3 4 5 6 
#
# 1 0.010415 -0.000054 -0.001004 0.000000 0.000000 0.000000
# 2 -0.000054 0.014593 -0.002186 0.000000 0.000000 0.000000
# 3 -0.001004 -0.002186 0.002907 0.000000 0.000000 0.000000
# 4 0.000000 0.000000 0.000000 0.015357 0.000000 0.000000
# 5 0.000000 0.000000 0.000000 0.000000 -0.040542 0.000000
# 6 0.000000 0.000000 0.000000 0.000000 0.000000 0.292799
#
#
# Mechanical properties :
#
#
# Convention : Reuss Voigt Hill
#
# Bulk Modulus (GPa) = 46.67222 88.03364 67.35293
# Shear Modulus (GPa) = 16.17285 40.40759 28.29022
#
# Velocity S-wave (km/s) = 2.38126 3.76396 3.14943
# Velocity P-wave (km/s) = 4.89125 7.05376 6.06959
#
# Compressibility (1/GPa) = 0.02142602
#
# Stress axis : x y z
#
# Youngs Moduli (GPa) = 96.01079 68.52818 343.95664
#
# Poissons Ratio (x) = 0.00371 0.34537
# Poissons Ratio (y) = 0.00520 0.75202
# Poissons Ratio (z) = 0.09640 0.14983
#
# Static dielectric constant tensor:
#      x y z
#    x 2.225670 0.000000 0.000000 
#    y 0.000000 2.307370 0.000000 
#    z 0.000000 0.000000 2.325490 
# 
# From -- ./inp_files/20062.got.cif
#   From: 2010.05.17/outbox.cif.g08.bks.cpg/sg46_11_cif.got.tgz:20062.got - 2010.06.03 19:58:25.
