data_PCOD9377156
_publ_section_title
;
Structure prediction by ZEFSAII (Michael W. Deem and Ramdas Pophale) SiO2 
 PCOD9377156
Probable space group: I B A 2
;
_chemical_formula_sum "Si O2"
_cell_formula_units_Z 64
_cell_length_a 11.926261
_cell_length_b 18.638704
_cell_length_c 13.633559
_cell_angle_alpha 90.000000
_cell_angle_beta 90.000000
_cell_angle_gamma 90.000000
_cell_volume 3030.604493
_symmetry_space_group_name_H-M "I B A 2"
_symmetry_group_IT_number 45
_symmetry_cell_setting 'orthorhombic'
loop_
_space_group_symop_operation_xyz
x,y,z
-x,-y,z
-x,y,1/2+z
x,-y,1/2+z
1/2+x,1/2+y,1/2+z
1/2-x,1/2-y,1/2+z
1/2-x,1/2+y,z
1/2+x,1/2-y,z
loop_
_atom_site_type_symbol
_atom_site_label
_atom_site_fract_x
_atom_site_fract_y
_atom_site_fract_z
Si Si1 0.125395 0.888282 0.063780
Si Si2 0.651158 0.816157 0.525182
Si Si3 0.622475 0.515276 0.402292
Si Si4 0.819264 0.389667 0.104618
Si Si5 0.520781 0.916923 0.923949
Si Si6 0.047350 0.369391 0.213706
Si Si7 0.112844 0.835508 0.514464
Si Si8 0.244184 0.525624 0.713397
O O1 0.217443 0.832244 0.024621
O O2 0.169869 0.917082 0.167707
O O3 0.003214 0.853786 0.068190
O O4 0.126679 0.956470 0.989356
O O5 0.588490 0.883813 0.476233
O O6 0.607267 0.814784 0.638583
O O7 0.610283 0.744308 0.471538
O O8 0.500000 0.500000 0.354783
O O9 0.626882 0.596480 0.442742
O O10 0.721299 0.508192 0.323768
O O11 0.724884 0.331996 0.080495
O O12 0.750514 0.454912 0.149559
O O13 0.919027 0.371734 0.179169
O O14 0.881825 0.412300 0.004853
O O15 0.549881 0.866957 0.831012
O O16 0.500000 0.000000 0.896241
O O17 0.120215 0.442129 0.197689
#
# Coordination Sequence:
#
# PCOD9377156 Si02
#       8
#     8   8   8   8   8   8   8   8
#     4  10  23  43  65  95 129 176 227 275 333 404
#     4  10  25  44  64  96 133 177 218 281 345 407
#     4  10  23  40  68 103 129 178 231 275 333 404
#     4  11  22  37  67  96 129 177 212 270 346 390
#     4  11  22  41  70  96 132 168 220 282 335 401
#     4  10  23  39  62  99 128 167 224 273 333 403
#     4  11  24  44  66  91 140 176 220 275 343 407
#     4  11  21  39  67  99 132 165 228 285 324 399
#
# _framework density 21.117899999999999
#
# number of rings (size 3 to 8) (size 9 to 14) (size 15 to 20)
#    0.000    1.500    1.250    4.125    8.750    0.500 
#    2.250    1.250    0.000    0.000    0.000    0.000 
#    0.000    0.000    0.000    0.000    0.000    0.000 
#
# Total GULP energy -178572.470999 kJ/mol
# GULP energy per Si atom -5580.389719 kJ/mol
# Density = 2.106983 g / cm^3
# Si number density = 21.117900 Si / 1000 Ang^3
#
#
#
# Elastic Constant Matrix: (Units=GPa)
#
#
# Indices 1 2 3 4 5 6 
#
# 1 96.0231 30.2241 4.9451 0.0001 0.0000 0.0000
# 2 30.2241 87.8276 13.9414 0.0000 0.0000 0.0000
# 3 4.9451 13.9414 73.1481 0.0000 -0.0001 0.0000
# 4 0.0001 0.0000 0.0000 13.4827 0.0000 0.0000
# 5 0.0000 0.0000 -0.0001 0.0000 30.8448 0.0000
# 6 0.0000 0.0000 0.0000 0.0000 0.0000 21.1376
#
#
#
# Elastic Compliance Matrix: (Units=1/GPa)
#
#
# Indices 1 2 3 4 5 6 
#
# 1 0.011679 -0.004015 -0.000024 0.000000 0.000000 0.000000
# 2 -0.004015 0.013122 -0.002229 0.000000 0.000000 0.000000
# 3 -0.000024 -0.002229 0.014097 0.000000 0.000000 0.000000
# 4 0.000000 0.000000 0.000000 0.074169 0.000000 0.000000
# 5 0.000000 0.000000 0.000000 0.000000 0.032420 0.000000
# 6 0.000000 0.000000 0.000000 0.000000 0.000000 0.047309
#
#
# Mechanical properties :
#
#
# Convention : Reuss Voigt Hill
#
# Bulk Modulus (GPa) = 37.93585 39.46889 38.70237
# Shear Modulus (GPa) = 23.35121 26.95224 25.15173
#
# Velocity S-wave (km/s) = 3.32890 3.57637 3.45485
# Velocity P-wave (km/s) = 5.72523 5.98200 5.85502
#
# Compressibility (1/GPa) = 0.02636029
#
# Stress axis : x y z
#
# Youngs Moduli (GPa) = 85.62179 76.20999 70.93480
#
# Poissons Ratio (x) = 0.30601 0.00172
# Poissons Ratio (y) = 0.34380 0.15814
# Poissons Ratio (z) = 0.00208 0.16990
#
# Static dielectric constant tensor:
#      x y z
#    x 1.789970 0.000000 0.000000 
#    y 0.000000 1.757860 0.000000 
#    z 0.000000 0.000000 1.766750 
# 
# From -- ./inp_files/6302.got.cif
#   From: 2010.05.17/outbox.cif.g08.bks.cpg/sg45_4_cif.got.tgz:6302.got - 2010.06.03 19:51:22.
