data_PCOD9377933
_publ_section_title
;
Structure prediction by ZEFSAII (Michael W. Deem and Ramdas Pophale) SiO2 
 PCOD9377933
Probable space group: I M A 2
;
_chemical_formula_sum "Si O2"
_cell_formula_units_Z 64
_cell_length_a 25.124105
_cell_length_b 15.597003
_cell_length_c 9.882882
_cell_angle_alpha 90.000000
_cell_angle_beta 90.000000
_cell_angle_gamma 90.000000
_cell_volume 3872.713464
_symmetry_space_group_name_H-M "I M A 2"
_symmetry_group_IT_number 46
_symmetry_cell_setting 'orthorhombic'
loop_
_space_group_symop_operation_xyz
x,y,z
-x,-y,z
1/2-x,y,z
1/2+x,-y,z
1/2+x,1/2+y,1/2+z
1/2-x,1/2-y,1/2+z
-x,1/2+y,1/2+z
x,1/2-y,1/2+z
loop_
_atom_site_type_symbol
_atom_site_label
_atom_site_fract_x
_atom_site_fract_y
_atom_site_fract_z
Si Si1 0.312844 0.346115 0.894310
Si Si2 0.978043 0.799143 0.029110
Si Si3 0.982270 0.857612 0.718475
Si Si4 0.189472 0.039615 0.661005
Si Si5 0.554137 0.056314 0.052674
Si Si6 0.311595 0.349755 0.427614
Si Si7 0.915678 0.031264 0.750882
Si Si8 0.384131 0.414477 0.652821
O O1 0.250000 0.341959 0.850864
O O2 0.329547 0.249058 0.931496
O O3 0.352505 0.380646 0.781065
O O4 0.315770 0.409233 0.021416
O O5 0.976174 0.810284 0.865527
O O6 0.973982 0.705423 0.092809
O O7 0.931001 0.852039 0.101703
O O8 0.032580 0.848182 0.073157
O O9 0.041000 0.898997 0.704366
O O10 0.941761 0.937615 0.724148
O O11 0.250000 0.005330 0.670644
O O12 0.183364 0.110846 0.778913
O O13 0.142406 0.971830 0.684964
O O14 0.500000 0.000000 0.032097
O O15 0.589010 0.008018 0.164616
O O16 0.585472 0.046886 0.912018
O O17 0.250000 0.348977 0.466291
O O18 0.342727 0.409158 0.530289
#
# Coordination Sequence:
#
# PCOD9377933 Si02
#       8
#     8   8   8   8   8   8   8   8
#     4  10  22  33  42  70 109 138 166 211 256 290
#     4  10  21  33  52  77 100 129 168 212 253 305
#     4  10  20  35  55  75 105 133 169 210 258 303
#     4  10  20  33  50  72 101 133 173 210 248 301
#     4   9  16  35  51  70 100 135 166 206 255 296
#     4  10  19  31  47  70  97 134 179 205 232 300
#     4  10  17  36  55  72 102 140 169 205 250 304
#     4  11  19  30  53  69  99 140 169 204 249 300
#
# _framework density 16.525880000000001
#
# number of rings (size 3 to 8) (size 9 to 14) (size 15 to 20)
#    0.000    2.000    5.000    1.125    5.250    2.000 
#    2.250    0.000    0.000    0.000    0.000    5.250 
#    0.000    0.000    0.000    0.000    0.000    0.000 
#
# Total GULP energy -178317.767376 kJ/mol
# GULP energy per Si atom -5572.430230 kJ/mol
# Density = 1.648827 g / cm^3
# Si number density = 16.525880 Si / 1000 Ang^3
#
#
#
# Elastic Constant Matrix: (Units=GPa)
#
#
# Indices 1 2 3 4 5 6 
#
# 1 77.5611 5.4861 32.6691 0.0000 0.0000 0.0000
# 2 5.4861 27.8494 15.5637 0.0000 0.0000 0.0000
# 3 32.6691 15.5637 56.6626 0.0000 0.0000 0.0000
# 4 0.0000 0.0000 0.0000 14.7451 0.0000 0.0000
# 5 0.0000 0.0000 0.0000 0.0000 25.5097 0.0000
# 6 0.0000 0.0000 0.0000 0.0000 0.0000 22.8588
#
#
#
# Elastic Compliance Matrix: (Units=1/GPa)
#
#
# Indices 1 2 3 4 5 6 
#
# 1 0.017179 0.002541 -0.010603 0.000000 0.000000 0.000000
# 2 0.002541 0.042795 -0.013220 0.000000 0.000000 0.000000
# 3 -0.010603 -0.013220 0.027392 0.000000 0.000000 0.000000
# 4 0.000000 0.000000 0.000000 0.067819 0.000000 0.000000
# 5 0.000000 0.000000 0.000000 0.000000 0.039201 0.000000
# 6 0.000000 0.000000 0.000000 0.000000 0.000000 0.043747
#
#
# Mechanical properties :
#
#
# Convention : Reuss Voigt Hill
#
# Bulk Modulus (GPa) = 22.31946 29.94565 26.13256
# Shear Modulus (GPa) = 16.91301 19.84633 18.37967
#
# Velocity S-wave (km/s) = 3.20257 3.46919 3.33855
# Velocity P-wave (km/s) = 5.21636 5.84866 5.54154
#
# Compressibility (1/GPa) = 0.04480395
#
# Stress axis : x y z
#
# Youngs Moduli (GPa) = 58.20978 23.36738 36.50638
#
# Poissons Ratio (x) = -0.05938 0.38707
# Poissons Ratio (y) = -0.14792 0.48260
# Poissons Ratio (z) = 0.61718 0.30891
#
# Static dielectric constant tensor:
#      x y z
#    x 1.585380 0.000000 0.000000 
#    y 0.000000 1.560140 0.000000 
#    z 0.000000 0.000000 1.562900 
# 
# From -- ./inp_files/7970.got.cif
#   From: 2010.05.17/outbox.cif.g08.bks.cpg/sg46_4_cif.got.tgz:7970.got - 2010.06.03 19:58:25.
