data_PCOD9377638
_publ_section_title
;
Structure prediction by ZEFSAII (Michael W. Deem and Ramdas Pophale) SiO2 
 PCOD9377638
Probable space group: I B A 2
;
_chemical_formula_sum "Si O2"
_cell_formula_units_Z 32
_cell_length_a 10.858846
_cell_length_b 14.738353
_cell_length_c 8.319456
_cell_angle_alpha 90.000000
_cell_angle_beta 90.000000
_cell_angle_gamma 90.000000
_cell_volume 1331.458263
_symmetry_space_group_name_H-M "I B A 2"
_symmetry_group_IT_number 45
_symmetry_cell_setting 'orthorhombic'
loop_
_space_group_symop_operation_xyz
x,y,z
-x,-y,z
-x,y,1/2+z
x,-y,1/2+z
1/2+x,1/2+y,1/2+z
1/2-x,1/2-y,1/2+z
1/2-x,1/2+y,z
1/2+x,1/2-y,z
loop_
_atom_site_type_symbol
_atom_site_label
_atom_site_fract_x
_atom_site_fract_y
_atom_site_fract_z
Si Si1 0.750987 0.116498 0.606710
Si Si2 0.484157 0.396363 0.809838
Si Si3 0.361205 0.034583 0.425128
Si Si4 0.188700 0.826169 0.088716
O O1 0.890146 0.098728 0.659307
O O2 0.665364 0.078512 0.752082
O O3 0.729852 0.222666 0.589875
O O4 0.717359 0.055834 0.455004
O O5 0.500000 0.500000 0.862379
O O6 0.608316 0.350589 0.745554
O O7 0.406034 0.341517 0.940867
O O8 0.304536 0.107639 0.551729
O O9 0.500000 0.000000 0.444326
#
# Coordination Sequence:
#
# PCOD9377638 Si02
#       4
#     8   8   8   8
#     4  11  27  45  75 112 148 205 249 316 388 453
#     4  11  24  48  76 108 153 196 261 318 373 461
#     4  11  26  49  72 109 158 198 250 318 388 461
#     4  11  27  45  77 113 149 204 255 314 388 456
#
# _framework density 24.033801
#
# number of rings (size 3 to 8) (size 9 to 14) (size 15 to 20)
#    0.000    1.000    2.500    1.500   10.500    6.000 
#    0.000    0.000    0.000    0.000    0.000    0.000 
#    0.000    0.000    0.000    0.000    0.000    0.000 
#
# Total GULP energy -89665.396746 kJ/mol
# GULP energy per Si atom -5604.087297 kJ/mol
# Density = 2.397910 g / cm^3
# Si number density = 24.033801 Si / 1000 Ang^3
#
#
#
# Elastic Constant Matrix: (Units=GPa)
#
#
# Indices 1 2 3 4 5 6 
#
# 1 152.7751 87.4115 53.9715 0.0000 0.0000 0.0000
# 2 87.4115 205.9405 51.9229 0.0000 0.0000 0.0000
# 3 53.9715 51.9229 66.9884 0.0000 0.0000 0.0000
# 4 0.0000 0.0000 0.0000 93.4265 0.0000 0.0000
# 5 0.0000 0.0000 0.0000 0.0000 35.2979 0.0000
# 6 0.0000 0.0000 0.0000 0.0000 0.0000 -53.9747
#
#
#
# Elastic Compliance Matrix: (Units=1/GPa)
#
#
# Indices 1 2 3 4 5 6 
#
# 1 0.010336 -0.002843 -0.006124 0.000000 0.000000 0.000000
# 2 -0.002843 0.006817 -0.002993 0.000000 0.000000 0.000000
# 3 -0.006124 -0.002993 0.022182 0.000000 0.000000 0.000000
# 4 0.000000 0.000000 0.000000 0.010704 0.000000 0.000000
# 5 0.000000 0.000000 0.000000 0.000000 0.028330 0.000000
# 6 0.000000 0.000000 0.000000 0.000000 0.000000 -0.018527
#
#
# Mechanical properties :
#
#
# Convention : Reuss Voigt Hill
#
# Bulk Modulus (GPa) = 64.87381 90.25732 77.56557
# Shear Modulus (GPa) = 56.24328 30.44314 43.34321
#
# Velocity S-wave (km/s) = 4.84278 3.56291 4.25128
# Velocity P-wave (km/s) = 7.63684 7.38658 7.51276
#
# Compressibility (1/GPa) = 0.01541454
#
# Stress axis : x y z
#
# Youngs Moduli (GPa) = 96.75381 146.68739 45.08189
#
# Poissons Ratio (x) = 0.41703 0.27606
# Poissons Ratio (y) = 0.27507 0.13495
# Poissons Ratio (z) = 0.59248 0.43910
#
# Static dielectric constant tensor:
#      x y z
#    x 1.927000 0.000000 0.000000 
#    y 0.000000 1.778320 0.000000 
#    z 0.000000 0.000000 2.037860 
# 
# From -- ./inp_files/1173.got.cif
#   From: 2010.05.17/outbox.cif.g08.bks.cpg/sg45_1_cif.got.tgz:1173.got - 2010.06.03 19:51:22.
