data_PCOD9377133
_publ_section_title
;
Structure prediction by ZEFSAII (Michael W. Deem and Ramdas Pophale) SiO2 
 PCOD9377133
Probable space group: I B A 2
;
_chemical_formula_sum "Si O2"
_cell_formula_units_Z 64
_cell_length_a 24.104948
_cell_length_b 8.697312
_cell_length_c 14.757662
_cell_angle_alpha 90.000000
_cell_angle_beta 90.000000
_cell_angle_gamma 90.000000
_cell_volume 3093.918064
_symmetry_space_group_name_H-M "I B A 2"
_symmetry_group_IT_number 45
_symmetry_cell_setting 'orthorhombic'
loop_
_space_group_symop_operation_xyz
x,y,z
-x,-y,z
-x,y,1/2+z
x,-y,1/2+z
1/2+x,1/2+y,1/2+z
1/2-x,1/2-y,1/2+z
1/2-x,1/2+y,z
1/2+x,1/2-y,z
loop_
_atom_site_type_symbol
_atom_site_label
_atom_site_fract_x
_atom_site_fract_y
_atom_site_fract_z
Si Si1 0.144836 0.130909 0.950030
Si Si2 0.420651 0.169167 0.600575
Si Si3 0.347096 0.095875 0.770287
Si Si4 0.751568 0.299193 0.045607
Si Si5 0.864364 0.766127 0.459372
Si Si6 0.548188 0.194315 0.594828
Si Si7 0.264952 0.556883 0.673621
Si Si8 0.371377 0.733174 0.752191
O O1 0.121075 0.161177 0.850674
O O2 0.145310 0.948185 0.963713
O O3 0.111427 0.236599 0.022194
O O4 0.209556 0.174286 0.963913
O O5 0.382850 0.174513 0.690291
O O6 0.483581 0.229169 0.605640
O O7 0.434010 0.986358 0.590404
O O8 0.358937 0.187786 0.861863
O O9 0.282222 0.088031 0.746350
O O10 0.361987 0.914580 0.771354
O O11 0.732336 0.382157 0.139432
O O12 0.745882 0.123473 0.076353
O O13 0.816183 0.316356 0.019854
O O14 0.925040 0.750319 0.501725
O O15 0.579635 0.270694 0.679438
O O16 0.320377 0.640560 0.706097
#
# Coordination Sequence:
#
# PCOD9377133 Si02
#       8
#     8   8   8   8   8   8   8   8
#     4  12  26  40  64  98 133 171 212 266 328 387
#     4  10  23  44  71  91 121 169 221 272 324 383
#     4  11  24  40  64  96 130 170 218 265 320 388
#     4  12  23  40  65  93 130 170 210 260 319 384
#     4  12  26  41  63  98 135 170 213 265 324 391
#     4  10  22  46  69  92 122 167 220 273 325 384
#     4  12  22  40  67  92 128 171 209 261 322 380
#     4  11  24  41  65  97 132 168 213 268 321 389
#
# _framework density 20.685744
#
# number of rings (size 3 to 8) (size 9 to 14) (size 15 to 20)
#    0.000    0.750    5.000    2.250    3.500    4.500 
#    0.000    2.500    0.000    0.000    0.000    0.000 
#    0.000    0.000    0.000    0.000    0.000    0.000 
#
# Total GULP energy -178497.095859 kJ/mol
# GULP energy per Si atom -5578.034246 kJ/mol
# Density = 2.063866 g / cm^3
# Si number density = 20.685744 Si / 1000 Ang^3
#
#
#
# Elastic Constant Matrix: (Units=GPa)
#
#
# Indices 1 2 3 4 5 6 
#
# 1 119.4697 29.7120 33.9532 0.0000 0.0000 0.0000
# 2 29.7120 54.7653 29.7746 0.0000 0.0000 0.0000
# 3 33.9532 29.7746 103.3893 0.0000 0.0000 0.0000
# 4 0.0000 0.0000 0.0000 36.8502 0.0000 0.0000
# 5 0.0000 0.0000 0.0000 0.0000 5.5805 0.0000
# 6 0.0000 0.0000 0.0000 0.0000 0.0000 -57.5068
#
#
#
# Elastic Compliance Matrix: (Units=1/GPa)
#
#
# Indices 1 2 3 4 5 6 
#
# 1 0.010028 -0.004328 -0.002047 0.000000 0.000000 0.000000
# 2 -0.004328 0.023517 -0.005351 0.000000 0.000000 0.000000
# 3 -0.002047 -0.005351 0.011886 0.000000 0.000000 0.000000
# 4 0.000000 0.000000 0.000000 0.027137 0.000000 0.000000
# 5 0.000000 0.000000 0.000000 0.000000 0.179195 0.000000
# 6 0.000000 0.000000 0.000000 0.000000 0.000000 -0.017389
#
#
# Mechanical properties :
#
#
# Convention : Reuss Voigt Hill
#
# Bulk Modulus (GPa) = 45.49849 51.61154 48.55501
# Shear Modulus (GPa) = 18.85707 9.26376 14.06042
#
# Velocity S-wave (km/s) = 3.02254 2.11850 2.60996
# Velocity P-wave (km/s) = 5.85012 5.56673 5.71018
#
# Compressibility (1/GPa) = 0.02197875
#
# Stress axis : x y z
#
# Youngs Moduli (GPa) = 99.71676 42.52222 84.13605
#
# Poissons Ratio (x) = 0.18403 0.17223
# Poissons Ratio (y) = 0.43156 0.45024
# Poissons Ratio (z) = 0.20412 0.22755
#
# Static dielectric constant tensor:
#      x y z
#    x 1.721200 0.000000 0.000000 
#    y 0.000000 1.768100 0.000000 
#    z 0.000000 0.000000 1.725020 
# 
# From -- ./inp_files/7055.got.cif
#   From: 2010.05.17/outbox.cif.g08.bks.cpg/sg45_4_cif.got.tgz:7055.got - 2010.06.03 19:51:22.
