data_PCOD9377604
_publ_section_title
;
Structure prediction by ZEFSAII (Michael W. Deem and Ramdas Pophale) SiO2 
 PCOD9377604
Probable space group: I B A 2
;
_chemical_formula_sum "Si O2"
_cell_formula_units_Z 48
_cell_length_a 14.642759
_cell_length_b 8.904495
_cell_length_c 16.371852
_cell_angle_alpha 90.000000
_cell_angle_beta 90.000000
_cell_angle_gamma 90.000000
_cell_volume 2134.666423
_symmetry_space_group_name_H-M "I B A 2"
_symmetry_group_IT_number 45
_symmetry_cell_setting 'orthorhombic'
loop_
_space_group_symop_operation_xyz
x,y,z
-x,-y,z
-x,y,1/2+z
x,-y,1/2+z
1/2+x,1/2+y,1/2+z
1/2-x,1/2-y,1/2+z
1/2-x,1/2+y,z
1/2+x,1/2-y,z
loop_
_atom_site_type_symbol
_atom_site_label
_atom_site_fract_x
_atom_site_fract_y
_atom_site_fract_z
Si Si1 0.746921 0.003045 0.969740
Si Si2 0.926970 0.885919 0.176437
Si Si3 0.751039 0.257705 0.083872
Si Si4 0.432417 0.877460 0.670338
Si Si5 0.092553 0.408483 0.847377
Si Si6 0.598528 0.453828 0.848296
O O1 0.659506 0.035939 0.916710
O O2 0.830454 0.028462 0.909384
O O3 0.747299 0.083601 0.058441
O O4 0.751156 0.829707 0.994107
O O5 0.839049 0.816258 0.130994
O O6 0.994292 0.748448 0.197868
O O7 0.893508 0.975598 0.257095
O O8 0.000000 0.000000 0.132294
O O9 0.848209 0.302433 0.122986
O O10 0.388092 0.947853 0.752229
O O11 0.500000 0.000000 0.628231
O O12 0.099819 0.226976 0.848783
O O13 0.000000 0.500000 0.863470
O O14 0.500000 0.500000 0.879011
#
# Coordination Sequence:
#
# PCOD9377604 Si02
#       6
#     8   8   8   8   8   8
#     4  12  27  45  68 104 147 185 223 289 365 430
#     4  11  23  46  73 100 137 188 241 297 352 416
#     4  12  27  45  68 106 147 185 233 291 363 430
#     4  11  24  46  72 101 135 184 243 297 352 418
#     4  11  25  47  74 102 136 184 242 294 349 419
#     4  11  24  47  72 102 135 185 241 295 347 419
#
# _framework density 22.485948
#
# number of rings (size 3 to 8) (size 9 to 14) (size 15 to 20)
#    0.000    0.667    5.000    3.000    2.333    4.000 
#    9.000    0.000    0.000    0.000    0.000    0.000 
#    0.000    0.000    0.000    0.000    0.000    0.000 
#
# Total GULP energy -133869.485591 kJ/mol
# GULP energy per Si atom -5577.895233 kJ/mol
# Density = 2.243477 g / cm^3
# Si number density = 22.485948 Si / 1000 Ang^3
#
#
#
# Elastic Constant Matrix: (Units=GPa)
#
#
# Indices 1 2 3 4 5 6 
#
# 1 125.6256 10.5064 74.3731 0.0000 0.0000 0.0000
# 2 10.5064 52.6717 16.8714 0.0000 0.0000 0.0000
# 3 74.3731 16.8714 83.8926 0.0000 0.0000 0.0000
# 4 0.0000 0.0000 0.0000 48.0307 0.0000 0.0000
# 5 0.0000 0.0000 0.0000 0.0000 42.3738 0.0000
# 6 0.0000 0.0000 0.0000 0.0000 0.0000 44.6260
#
#
#
# Elastic Compliance Matrix: (Units=1/GPa)
#
#
# Indices 1 2 3 4 5 6 
#
# 1 0.016866 0.001523 -0.015259 0.000000 0.000000 0.000000
# 2 0.001523 0.020430 -0.005459 0.000000 0.000000 0.000000
# 3 -0.015259 -0.005459 0.026545 0.000000 0.000000 0.000000
# 4 0.000000 0.000000 0.000000 0.020820 0.000000 0.000000
# 5 0.000000 0.000000 0.000000 0.000000 0.023599 0.000000
# 6 0.000000 0.000000 0.000000 0.000000 0.000000 0.022408
#
#
# Mechanical properties :
#
#
# Convention : Reuss Voigt Hill
#
# Bulk Modulus (GPa) = 39.28876 51.74351 45.51613
# Shear Modulus (GPa) = 28.16218 37.70204 32.93211
#
# Velocity S-wave (km/s) = 3.54281 4.09919 3.83111
# Velocity P-wave (km/s) = 5.85200 6.74284 6.31315
#
# Compressibility (1/GPa) = 0.02545257
#
# Stress axis : x y z
#
# Youngs Moduli (GPa) = 59.28989 48.94691 37.67163
#
# Poissons Ratio (x) = -0.07456 0.57482
# Poissons Ratio (y) = -0.09031 0.20565
# Poissons Ratio (z) = 0.90469 0.26721
#
# Static dielectric constant tensor:
#      x y z
#    x 1.867110 0.000000 0.000000 
#    y 0.000000 1.460810 0.000000 
#    z 0.000000 0.000000 1.830200 
# 
# From -- ./inp_files/7573.got.cif
#   From: 2010.05.17/outbox.cif.g08.bks.cpg/sg45_4_cif.got.tgz:7573.got - 2010.06.03 19:51:22.
