data_PCOD9377768
_publ_section_title
;
Structure prediction by ZEFSAII (Michael W. Deem and Ramdas Pophale) SiO2 
 PCOD9377768
Probable space group: I M A 2
;
_chemical_formula_sum "Si O2"
_cell_formula_units_Z 48
_cell_length_a 8.154034
_cell_length_b 33.673364
_cell_length_c 7.285867
_cell_angle_alpha 90.000000
_cell_angle_beta 90.000000
_cell_angle_gamma 90.000000
_cell_volume 2000.507860
_symmetry_space_group_name_H-M "I M A 2"
_symmetry_group_IT_number 46
_symmetry_cell_setting 'orthorhombic'
loop_
_space_group_symop_operation_xyz
x,y,z
-x,-y,z
1/2-x,y,z
1/2+x,-y,z
1/2+x,1/2+y,1/2+z
1/2-x,1/2-y,1/2+z
-x,1/2+y,1/2+z
x,1/2-y,1/2+z
loop_
_atom_site_type_symbol
_atom_site_label
_atom_site_fract_x
_atom_site_fract_y
_atom_site_fract_z
Si Si1 0.949835 0.871548 0.626110
Si Si2 0.556830 0.040816 0.004256
Si Si3 0.563058 0.296452 0.538223
Si Si4 0.563171 0.713904 0.151146
Si Si5 0.559743 0.543185 0.085543
Si Si6 0.944652 0.877033 0.062269
O O1 0.750000 0.870851 0.610190
O O2 0.004669 0.827388 0.567485
O O3 0.011563 0.912889 0.538818
O O4 0.987335 0.874898 0.843967
O O5 0.750000 0.039997 0.966974
O O6 0.462344 0.041920 0.808423
O O7 0.500000 0.000000 0.095645
O O8 0.511982 0.080079 0.116402
O O9 0.750000 0.299759 0.473619
O O10 0.439169 0.294515 0.367835
O O11 0.538336 0.254173 0.633080
O O12 0.519111 0.336839 0.644496
O O13 0.750000 0.720164 0.086605
O O14 0.500000 0.500000 0.021289
O O15 0.750000 0.544998 0.039170
O O16 0.750000 0.876626 0.086433
#
# Coordination Sequence:
#
# PCOD9377768 Si02
#       6
#     8   8   8   8   8   8
#     4   7  13  24  39  56  78 109 148 185 220 265
#     4  10  16  22  33  52  78 110 145 183 224 271
#     4  11  21  33  49  73  99 124 157 203 247 285
#     4  10  19  34  52  69  92 129 166 197 236 288
#     4   9  14  21  32  50  76 108 143 180 220 270
#     4   9  16  28  42  58  82 116 152 186 227 281
#
# _framework density 23.993905999999999
#
# number of rings (size 3 to 8) (size 9 to 14) (size 15 to 20)
#    0.000    2.667    0.000    7.500    0.000    0.000 
#    0.000    2.500    0.000    0.000    0.000    0.000 
#    0.000    1.333    0.000   11.333    0.000   10.667 
#
# Total GULP energy -133816.606465 kJ/mol
# GULP energy per Si atom -5575.691936 kJ/mol
# Density = 2.393929 g / cm^3
# Si number density = 23.993906 Si / 1000 Ang^3
#
#
#
# Elastic Constant Matrix: (Units=GPa)
#
#
# Indices 1 2 3 4 5 6 
#
# 1 63.2951 32.3696 -16.5557 0.0000 0.0001 -0.0001
# 2 32.3696 274.7092 -10.6799 0.0020 0.0030 0.0009
# 3 -16.5557 -10.6799 43.5844 0.0000 0.0010 -0.0011
# 4 0.0000 0.0020 0.0000 -0.6897 -0.0004 -0.0001
# 5 0.0001 0.0030 0.0010 -0.0004 -3.4169 0.0011
# 6 -0.0001 0.0009 -0.0011 -0.0001 0.0011 35.0311
#
#
#
# Elastic Compliance Matrix: (Units=1/GPa)
#
#
# Indices 1 2 3 4 5 6 
#
# 1 0.018498 -0.001925 0.006555 -0.000007 0.000001 0.000000
# 2 -0.001925 0.003876 0.000219 0.000011 0.000003 0.000000
# 3 0.006555 0.000219 0.025487 -0.000001 0.000008 0.000001
# 4 -0.000007 0.000011 -0.000001 -1.449975 0.000181 -0.000006
# 5 0.000001 0.000003 0.000008 0.000181 -0.292662 0.000009
# 6 0.000000 0.000000 0.000001 -0.000006 0.000009 0.028546
#
#
# Mechanical properties :
#
#
# Convention : Reuss Voigt Hill
#
# Bulk Modulus (GPa) = 17.37385 43.53966 30.45675
# Shear Modulus (GPa) = -3.01797 31.28189 14.13196
#
# Velocity S-wave (km/s) = -1.12274 3.61466 2.42953
# Velocity P-wave (km/s) = 2.36134 5.96712 4.53776
#
# Compressibility (1/GPa) = 0.05755777
#
# Stress axis : x y z
#
# Youngs Moduli (GPa) = 54.06027 258.03037 39.23511
#
# Poissons Ratio (x) = 0.49666 -0.25718
# Poissons Ratio (y) = 0.10406 -0.00857
# Poissons Ratio (z) = -0.35436 -0.05638
#
# Static dielectric constant tensor:
#      x y z
#    x 1.827380 0.000000 -0.000010 
#    y 0.000000 2.083820 -0.000020 
#    z -0.000010 -0.000020 2.021530 
# 
# From -- ./inp_files/3961.got.cif
#   From: 2010.05.17/outbox.cif.g08.bks.cpg/sg46_2_cif.got.tgz:3961.got - 2010.06.03 19:58:25.
