data_PCOD9377409
_publ_section_title
;
Structure prediction by ZEFSAII (Michael W. Deem and Ramdas Pophale) SiO2 
 PCOD9377409
Probable space group: I B A 2
;
_chemical_formula_sum "Si O2"
_cell_formula_units_Z 48
_cell_length_a 25.055019
_cell_length_b 11.873941
_cell_length_c 5.841336
_cell_angle_alpha 90.000000
_cell_angle_beta 90.000000
_cell_angle_gamma 90.000000
_cell_volume 1737.808076
_symmetry_space_group_name_H-M "I B A 2"
_symmetry_group_IT_number 45
_symmetry_cell_setting 'orthorhombic'
loop_
_space_group_symop_operation_xyz
x,y,z
-x,-y,z
-x,y,1/2+z
x,-y,1/2+z
1/2+x,1/2+y,1/2+z
1/2-x,1/2-y,1/2+z
1/2-x,1/2+y,z
1/2+x,1/2-y,z
loop_
_atom_site_type_symbol
_atom_site_label
_atom_site_fract_x
_atom_site_fract_y
_atom_site_fract_z
Si Si1 0.563499 0.052537 0.605230
Si Si2 0.325288 0.739939 0.140244
Si Si3 0.145608 0.150081 0.575914
Si Si4 0.471774 0.311737 0.173741
Si Si5 0.330290 0.113115 0.273268
Si Si6 0.259630 0.423054 0.311932
O O1 0.540350 0.177495 0.647452
O O2 0.627818 0.054646 0.610485
O O3 0.551517 0.014834 0.343311
O O4 0.362506 0.672637 0.310080
O O5 0.282074 0.828262 0.230607
O O6 0.359280 0.827488 0.989303
O O7 0.290999 0.647065 0.007198
O O8 0.087979 0.133725 0.684463
O O9 0.176129 0.267038 0.643881
O O10 0.191861 0.061947 0.630546
O O11 0.500333 0.337807 0.421881
O O12 0.279222 0.034257 0.323865
#
# Coordination Sequence:
#
# PCOD9377409 Si02
#       6
#     8   8   8   8   8   8
#     4  11  24  39  62  91 129 178 241 288 336 414
#     4  11  23  38  59  93 138 188 234 293 344 439
#     4  10  25  45  65  97 144 185 248 289 357 433
#     4  11  26  44  70  94 131 191 247 305 359 412
#     4  10  25  37  66  93 138 193 243 275 356 435
#     4  11  23  39  60  94 134 188 233 289 352 432
#
# _framework density 27.620998
#
# number of rings (size 3 to 8) (size 9 to 14) (size 15 to 20)
#    0.000    1.333    1.667    2.000   18.667    3.333 
#    0.000    0.000    0.000    0.000    0.000    0.000 
#    0.000    4.000    0.000    8.000    0.000    0.000 
#
# Total GULP energy -133675.482672 kJ/mol
# GULP energy per Si atom -5569.811778 kJ/mol
# Density = 2.755813 g / cm^3
# Si number density = 27.620998 Si / 1000 Ang^3
#
#
#
# Elastic Constant Matrix: (Units=GPa)
#
#
# Indices 1 2 3 4 5 6 
#
# 1 173.3434 30.8072 44.3341 0.0000 0.0000 0.0000
# 2 30.8072 118.9119 25.7265 0.0000 0.0000 0.0000
# 3 44.3341 25.7265 112.5313 0.0000 0.0000 0.0000
# 4 0.0000 0.0000 0.0000 20.1750 0.0000 0.0000
# 5 0.0000 0.0000 0.0000 0.0000 91.3831 0.0000
# 6 0.0000 0.0000 0.0000 0.0000 0.0000 21.6952
#
#
#
# Elastic Compliance Matrix: (Units=1/GPa)
#
#
# Indices 1 2 3 4 5 6 
#
# 1 0.006575 -0.001202 -0.002315 0.000000 0.000000 0.000000
# 2 -0.001202 0.009067 -0.001599 0.000000 0.000000 0.000000
# 3 -0.002315 -0.001599 0.010164 0.000000 0.000000 0.000000
# 4 0.000000 0.000000 0.000000 0.049566 0.000000 0.000000
# 5 0.000000 0.000000 0.000000 0.000000 0.010943 0.000000
# 6 0.000000 0.000000 0.000000 0.000000 0.000000 0.046093
#
#
# Mechanical properties :
#
#
# Convention : Reuss Voigt Hill
#
# Bulk Modulus (GPa) = 64.21732 67.39135 65.80434
# Shear Modulus (GPa) = 33.82190 46.91190 40.36690
#
# Velocity S-wave (km/s) = 3.50308 4.12565 3.82705
# Velocity P-wave (km/s) = 6.29778 6.86631 6.58818
#
# Compressibility (1/GPa) = 0.01557212
#
# Stress axis : x y z
#
# Youngs Moduli (GPa) = 152.09642 110.28899 98.38450
#
# Poissons Ratio (x) = 0.13262 0.22780
# Poissons Ratio (y) = 0.18289 0.15733
# Poissons Ratio (z) = 0.35216 0.17637
#
# Static dielectric constant tensor:
#      x y z
#    x 1.699270 0.000000 0.000000 
#    y 0.000000 2.177360 0.000000 
#    z 0.000000 0.000000 2.803390 
# 
# From -- ./inp_files/611.got.cif
#   From: 2010.05.17/outbox.cif.g08.bks.cpg/sg45_1_cif.got.tgz:611.got - 2010.06.03 19:51:22.
