data_PCOD9377106
_publ_section_title
;
Structure prediction by ZEFSAII (Michael W. Deem and Ramdas Pophale) SiO2 
 PCOD9377106
Probable space group: I B A 2
;
_chemical_formula_sum "Si O2"
_cell_formula_units_Z 64
_cell_length_a 13.172144
_cell_length_b 8.633428
_cell_length_c 23.390002
_cell_angle_alpha 90.000000
_cell_angle_beta 90.000000
_cell_angle_gamma 90.000000
_cell_volume 2659.928730
_symmetry_space_group_name_H-M "I B A 2"
_symmetry_group_IT_number 45
_symmetry_cell_setting 'orthorhombic'
loop_
_space_group_symop_operation_xyz
x,y,z
-x,-y,z
-x,y,1/2+z
x,-y,1/2+z
1/2+x,1/2+y,1/2+z
1/2-x,1/2-y,1/2+z
1/2-x,1/2+y,z
1/2+x,1/2-y,z
loop_
_atom_site_type_symbol
_atom_site_label
_atom_site_fract_x
_atom_site_fract_y
_atom_site_fract_z
Si Si1 0.889045 0.827930 0.418740
Si Si2 0.967257 0.830355 0.189286
Si Si3 0.117455 0.151211 0.967298
Si Si4 0.336212 0.434012 0.798175
Si Si5 0.725644 0.217604 0.147101
Si Si6 0.267021 0.468912 0.570749
Si Si7 0.658476 0.249366 0.757590
Si Si8 0.877938 0.498644 0.968956
O O1 0.884027 0.843108 0.350839
O O2 0.849562 0.657327 0.434553
O O3 0.999912 0.838752 0.448466
O O4 0.840682 0.991679 0.439459
O O5 0.896624 0.886080 0.241567
O O6 0.896724 0.723065 0.149652
O O7 0.056906 0.735185 0.220142
O O8 0.000000 0.000000 0.163227
O O9 0.154370 0.325230 0.952287
O O10 0.145068 0.113485 0.033831
O O11 0.354468 0.616691 0.804567
O O12 0.218579 0.389817 0.787278
O O13 0.751063 0.396146 0.133038
O O14 0.767573 0.178605 0.208909
O O15 0.781366 0.143101 0.092292
O O16 0.169239 0.469700 0.531082
O O17 0.000000 0.500000 0.970102
#
# Coordination Sequence:
#
# PCOD9377106 Si02
#       8
#     8   8   8   8   8   8   8   8
#     4  10  23  44  69  99 141 193 243 300 373 438
#     4   9  20  41  68  99 141 179 236 303 364 467
#     4  10  23  43  66 100 144 191 247 300 360 447
#     4  10  22  44  68 101 137 182 236 302 374 449
#     4  11  23  40  69 104 139 189 241 298 377 445
#     4  12  22  42  66  97 144 187 240 297 370 436
#     4  10  22  44  67 101 140 174 239 307 362 460
#     4  10  23  45  64  99 148 187 248 313 350 445
#
# _framework density 24.060794999999999
#
# number of rings (size 3 to 8) (size 9 to 14) (size 15 to 20)
#    0.000    1.750    1.250    3.000    5.250    2.000 
#    9.000    6.250    0.000    0.000    0.000    0.000 
#    0.000    0.000    0.000    0.000    0.000    0.000 
#
# Total GULP energy -178267.500684 kJ/mol
# GULP energy per Si atom -5570.859396 kJ/mol
# Density = 2.400603 g / cm^3
# Si number density = 24.060795 Si / 1000 Ang^3
#
#
#
# Elastic Constant Matrix: (Units=GPa)
#
#
# Indices 1 2 3 4 5 6 
#
# 1 97.0948 44.1443 -0.2031 0.0000 0.0000 0.0000
# 2 44.1443 112.3102 42.4387 0.0000 0.0000 0.0000
# 3 -0.2031 42.4387 69.5014 0.0000 0.0000 0.0000
# 4 0.0000 0.0000 0.0000 30.9887 0.0000 0.0000
# 5 0.0000 0.0000 0.0000 0.0000 43.3872 0.0000
# 6 0.0000 0.0000 0.0000 0.0000 0.0000 43.9535
#
#
#
# Elastic Compliance Matrix: (Units=1/GPa)
#
#
# Indices 1 2 3 4 5 6 
#
# 1 0.013439 -0.006886 0.004244 0.000000 0.000000 0.000000
# 2 -0.006886 0.015103 -0.009242 0.000000 0.000000 0.000000
# 3 0.004244 -0.009242 0.020044 0.000000 0.000000 0.000000
# 4 0.000000 0.000000 0.000000 0.032270 0.000000 0.000000
# 5 0.000000 0.000000 0.000000 0.000000 0.023048 0.000000
# 6 0.000000 0.000000 0.000000 0.000000 0.000000 0.022751
#
#
# Mechanical properties :
#
#
# Convention : Reuss Voigt Hill
#
# Bulk Modulus (GPa) = 40.29437 50.18514 45.23976
# Shear Modulus (GPa) = 31.50686 36.50097 34.00392
#
# Velocity S-wave (km/s) = 3.62258 3.89913 3.76340
# Velocity P-wave (km/s) = 5.85498 6.41669 6.14226
#
# Compressibility (1/GPa) = 0.02481736
#
# Stress axis : x y z
#
# Youngs Moduli (GPa) = 74.41172 66.21303 49.89018
#
# Poissons Ratio (x) = 0.45593 -0.21173
# Poissons Ratio (y) = 0.51239 0.46109
# Poissons Ratio (z) = -0.31579 0.61195
#
# Static dielectric constant tensor:
#      x y z
#    x 2.031230 0.000000 0.000000 
#    y 0.000000 1.958550 0.000000 
#    z 0.000000 0.000000 1.898340 
# 
# From -- ./inp_files/9796.got.cif
#   From: 2010.05.17/outbox.cif.g08.bks.cpg/sg45_5_cif.got.tgz:9796.got - 2010.06.03 19:51:22.
