data_PCOD9377699
_publ_section_title
;
Structure prediction by ZEFSAII (Michael W. Deem and Ramdas Pophale) SiO2 
 PCOD9377699
Probable space group: I B A 2
;
_chemical_formula_sum "Si O2"
_cell_formula_units_Z 48
_cell_length_a 31.375936
_cell_length_b 4.902075
_cell_length_c 14.331553
_cell_angle_alpha 90.000000
_cell_angle_beta 90.000000
_cell_angle_gamma 90.000000
_cell_volume 2204.295916
_symmetry_space_group_name_H-M "I B A 2"
_symmetry_group_IT_number 45
_symmetry_cell_setting 'orthorhombic'
loop_
_space_group_symop_operation_xyz
x,y,z
-x,-y,z
-x,y,1/2+z
x,-y,1/2+z
1/2+x,1/2+y,1/2+z
1/2-x,1/2-y,1/2+z
1/2-x,1/2+y,z
1/2+x,1/2-y,z
loop_
_atom_site_type_symbol
_atom_site_label
_atom_site_fract_x
_atom_site_fract_y
_atom_site_fract_z
Si Si1 0.277757 0.361293 0.183600
Si Si2 0.912729 0.459984 0.768639
Si Si3 0.158161 0.137276 0.526230
Si Si4 0.398280 0.162854 0.563146
Si Si5 0.644467 0.541583 0.317367
Si Si6 0.471353 0.231244 0.416479
O O1 0.237004 0.552462 0.198639
O O2 0.297049 0.361619 0.079094
O O3 0.314486 0.472516 0.251379
O O4 0.919361 0.446463 0.657873
O O5 0.874263 0.660950 0.796039
O O6 0.952580 0.583509 0.824385
O O7 0.895227 0.164764 0.799815
O O8 0.133649 0.426501 0.527291
O O9 0.129346 0.928270 0.585814
O O10 0.159168 0.016799 0.422654
O O11 0.431358 0.264547 0.485220
O O12 0.500000 0.500000 0.401240
O O13 0.500000 0.000000 0.464167
#
# Coordination Sequence:
#
# PCOD9377699 Si02
#       6
#     8   8   8   8   8   8
#     4  12  26  42  66 104 147 174 229 306 354 394
#     4  12  23  44  73 101 133 188 237 277 340 431
#     4  12  23  43  72 100 133 187 239 280 342 425
#     4  12  23  44  73 101 133 188 237 277 340 431
#     4  12  23  43  72 100 133 187 239 280 342 425
#     4  12  26  44  70 106 146 172 222 302 354 396
#
# _framework density 21.775662000000001
#
# number of rings (size 3 to 8) (size 9 to 14) (size 15 to 20)
#    0.000    0.000    6.667    4.000    0.000    2.000 
#    0.000    1.667    0.000    0.000    0.000    0.000 
#    0.000    0.000    0.000    0.000    0.000    0.000 
#
# Total GULP energy -134148.889897 kJ/mol
# GULP energy per Si atom -5589.537079 kJ/mol
# Density = 2.172610 g / cm^3
# Si number density = 21.775662 Si / 1000 Ang^3
#
#
#
# Elastic Constant Matrix: (Units=GPa)
#
#
# Indices 1 2 3 4 5 6 
#
# 1 76.0721 12.0223 25.1083 0.0000 0.0000 0.0000
# 2 12.0223 93.8637 -0.0729 0.0000 0.0000 0.0000
# 3 25.1083 -0.0729 125.9469 0.0000 0.0000 0.0000
# 4 0.0000 0.0000 0.0000 20.5337 0.0000 0.0000
# 5 0.0000 0.0000 0.0000 0.0000 20.4084 0.0000
# 6 0.0000 0.0000 0.0000 0.0000 0.0000 34.6847
#
#
#
# Elastic Compliance Matrix: (Units=1/GPa)
#
#
# Indices 1 2 3 4 5 6 
#
# 1 0.014384 -0.001845 -0.002869 0.000000 0.000000 0.000000
# 2 -0.001845 0.010890 0.000374 0.000000 0.000000 0.000000
# 3 -0.002869 0.000374 0.008512 0.000000 0.000000 0.000000
# 4 0.000000 0.000000 0.000000 0.048700 0.000000 0.000000
# 5 0.000000 0.000000 0.000000 0.000000 0.048999 0.000000
# 6 0.000000 0.000000 0.000000 0.000000 0.000000 0.028831
#
#
# Mechanical properties :
#
#
# Convention : Reuss Voigt Hill
#
# Bulk Modulus (GPa) = 39.82824 41.11091 40.46958
# Shear Modulus (GPa) = 28.19055 32.38035 30.28545
#
# Velocity S-wave (km/s) = 3.60194 3.86034 3.73338
# Velocity P-wave (km/s) = 5.96897 6.22816 6.09994
#
# Compressibility (1/GPa) = 0.02510781
#
# Stress axis : x y z
#
# Youngs Moduli (GPa) = 69.52304 91.82488 117.48207
#
# Poissons Ratio (x) = 0.16937 0.33700
# Poissons Ratio (y) = 0.12824 -0.04394
# Poissons Ratio (z) = 0.19943 -0.03434
#
# Static dielectric constant tensor:
#      x y z
#    x 1.842180 0.000000 0.000000 
#    y 0.000000 1.771450 0.000000 
#    z 0.000000 0.000000 1.812880 
# 
# From -- ./inp_files/7114.got.cif
#   From: 2010.05.17/outbox.cif.g08.bks.cpg/sg45_4_cif.got.tgz:7114.got - 2010.06.03 19:51:22.
