data_PCOD9377197
_publ_section_title
;
Structure prediction by ZEFSAII (Michael W. Deem and Ramdas Pophale) SiO2 
 PCOD9377197
Probable space group: I B A 2
;
_chemical_formula_sum "Si O2"
_cell_formula_units_Z 52
_cell_length_a 16.350080
_cell_length_b 8.452759
_cell_length_c 17.161108
_cell_angle_alpha 90.000000
_cell_angle_beta 90.000000
_cell_angle_gamma 90.000000
_cell_volume 2371.721515
_symmetry_space_group_name_H-M "I B A 2"
_symmetry_group_IT_number 45
_symmetry_cell_setting 'orthorhombic'
loop_
_space_group_symop_operation_xyz
x,y,z
-x,-y,z
-x,y,1/2+z
x,-y,1/2+z
1/2+x,1/2+y,1/2+z
1/2-x,1/2-y,1/2+z
1/2-x,1/2+y,z
1/2+x,1/2-y,z
loop_
_atom_site_type_symbol
_atom_site_label
_atom_site_fract_x
_atom_site_fract_y
_atom_site_fract_z
Si Si1 0.048460 0.167206 0.523550
Si Si2 0.268866 0.596374 0.554853
Si Si3 0.415142 0.520718 0.361200
Si Si4 0.500000 0.000000 0.598085
Si Si5 0.193502 0.181548 0.948322
Si Si6 0.167162 0.496409 0.695788
Si Si7 0.276082 0.291303 0.793499
O O1 0.139563 0.164407 0.562746
O O2 0.068761 0.147794 0.430900
O O3 0.006832 0.334052 0.548428
O O4 0.000000 0.000000 0.543354
O O5 0.198784 0.715838 0.525982
O O6 0.273283 0.482310 0.480851
O O7 0.237251 0.509049 0.630160
O O8 0.500000 0.500000 0.317436
O O9 0.391688 0.361642 0.408671
O O10 0.340599 0.567251 0.306414
O O11 0.580286 0.003328 0.653219
O O12 0.250385 0.240522 0.879649
O O13 0.195378 0.348392 0.748009
O O14 0.178409 0.651071 0.749144
#
# Coordination Sequence:
#
# PCOD9377197 Si02
#       7
#     8   8   8   4   8   8   8
#     4  10  23  45  73 106 142 184 243 306 356 433
#     4  11  23  43  70 107 132 193 244 294 364 436
#     4  10  23  42  69 105 137 184 244 296 364 431
#     4  12  28  48  66 110 152 182 244 306 378 442
#     4  11  20  42  72  96 137 180 244 295 344 436
#     4  12  28  43  70 105 144 189 237 301 374 451
#     4  12  23  47  69 102 140 193 236 291 376 449
#
# _framework density 21.925001999999999
#
# number of rings (size 3 to 8) (size 9 to 14) (size 15 to 20)
#    0.000    0.923    4.615    2.769    8.615    1.231 
#    2.769    0.769    0.000    0.000    0.000    0.000 
#    0.000    0.000    0.000    0.000    0.000    0.000 
#
# Total GULP energy -145009.245497 kJ/mol
# GULP energy per Si atom -5577.278673 kJ/mol
# Density = 2.187510 g / cm^3
# Si number density = 21.925002 Si / 1000 Ang^3
#
#
#
# Elastic Constant Matrix: (Units=GPa)
#
#
# Indices 1 2 3 4 5 6 
#
# 1 100.9047 13.0523 18.0953 0.0000 0.0000 0.0000
# 2 13.0523 90.6791 21.2991 0.0000 0.0000 0.0000
# 3 18.0953 21.2991 68.2101 0.0000 0.0000 0.0000
# 4 0.0000 0.0000 0.0000 22.2194 0.0000 0.0000
# 5 0.0000 0.0000 0.0000 0.0000 29.0948 0.0000
# 6 0.0000 0.0000 0.0000 0.0000 0.0000 24.2701
#
#
#
# Elastic Compliance Matrix: (Units=1/GPa)
#
#
# Indices 1 2 3 4 5 6 
#
# 1 0.010476 -0.000923 -0.002491 0.000000 0.000000 0.000000
# 2 -0.000923 0.011982 -0.003497 0.000000 0.000000 0.000000
# 3 -0.002491 -0.003497 0.016413 0.000000 0.000000 0.000000
# 4 0.000000 0.000000 0.000000 0.045006 0.000000 0.000000
# 5 0.000000 0.000000 0.000000 0.000000 0.034370 0.000000
# 6 0.000000 0.000000 0.000000 0.000000 0.000000 0.041203
#
#
# Mechanical properties :
#
#
# Convention : Reuss Voigt Hill
#
# Bulk Modulus (GPa) = 39.91927 40.52082 40.22005
# Shear Modulus (GPa) = 27.52967 28.94002 28.23484
#
# Velocity S-wave (km/s) = 3.54733 3.63706 3.59248
# Velocity P-wave (km/s) = 5.91817 6.01326 5.96591
#
# Compressibility (1/GPa) = 0.02505056
#
# Stress axis : x y z
#
# Youngs Moduli (GPa) = 95.45225 83.45823 60.92621
#
# Poissons Ratio (x) = 0.07702 0.15177
# Poissons Ratio (y) = 0.08809 0.21304
# Poissons Ratio (z) = 0.23778 0.29182
#
# Static dielectric constant tensor:
#      x y z
#    x 1.828840 0.000000 0.000000 
#    y 0.000000 1.940600 0.000000 
#    z 0.000000 0.000000 1.796170 
# 
# From -- ./inp_files/8330.got.cif
#   From: 2010.05.17/outbox.cif.g08.bks.cpg/sg45_5_cif.got.tgz:8330.got - 2010.06.03 19:51:22.
