data_PCOD9377860
_publ_section_title
;
Structure prediction by ZEFSAII (Michael W. Deem and Ramdas Pophale) SiO2 
 PCOD9377860
Probable space group: I M A 2
;
_chemical_formula_sum "Si O2"
_cell_formula_units_Z 56
_cell_length_a 29.828205
_cell_length_b 15.379322
_cell_length_c 5.467279
_cell_angle_alpha 90.000000
_cell_angle_beta 90.000000
_cell_angle_gamma 90.000000
_cell_volume 2508.046280
_symmetry_space_group_name_H-M "I M A 2"
_symmetry_group_IT_number 46
_symmetry_cell_setting 'orthorhombic'
loop_
_space_group_symop_operation_xyz
x,y,z
-x,-y,z
1/2-x,y,z
1/2+x,-y,z
1/2+x,1/2+y,1/2+z
1/2-x,1/2-y,1/2+z
-x,1/2+y,1/2+z
x,1/2-y,1/2+z
loop_
_atom_site_type_symbol
_atom_site_label
_atom_site_fract_x
_atom_site_fract_y
_atom_site_fract_z
Si Si1 0.201573 0.575456 0.179100
Si Si2 0.371839 0.244391 0.705233
Si Si3 0.985146 0.194232 0.706372
Si Si4 0.932384 0.571493 0.205322
Si Si5 0.201464 0.465082 0.679065
Si Si6 0.098915 0.073499 0.204593
Si Si7 0.382722 0.802170 0.745169
O O1 0.250000 0.417904 0.691489
O O2 0.200724 0.512012 0.414558
O O3 0.157465 0.632187 0.199441
O O4 0.201277 0.527795 0.916982
O O5 0.345290 0.249731 0.455183
O O6 0.397265 0.152925 0.705807
O O7 0.409659 0.321329 0.705422
O O8 0.992180 0.248833 0.454490
O O9 0.933457 0.164768 0.714130
O O10 0.018681 0.113039 0.706581
O O11 0.920940 0.528959 0.464024
O O12 0.920656 0.529405 0.946405
O O13 0.250000 0.876935 0.694575
O O14 0.152693 0.422902 0.699283
O O15 0.378363 0.732498 0.523255
#
# Coordination Sequence:
#
# PCOD9377860 Si02
#       7
#     8   8   8   8   8   8   8
#     4  10  21  38  58  78 103 136 172 212 258 311
#     4   8  14  23  39  64  91 118 154 202 247 281
#     4  10  18  30  49  77 110 139 168 204 253 313
#     4  10  17  28  48  74 103 134 171 215 256 299
#     4  10  21  37  56  75  98 136 182 220 256 302
#     4  10  18  29  49  73  98 132 179 219 249 296
#     4  10  21  35  56  85 111 134 161 204 263 315
#
# _framework density 22.328137999999999
#
# number of rings (size 3 to 8) (size 9 to 14) (size 15 to 20)
#    0.000    2.286    0.000    5.143    0.000    0.571 
#    0.000    0.000    0.000   12.857    0.000    0.000 
#    0.000    0.000    0.000    0.000    0.000    0.000 
#
# Total GULP energy -156060.584864 kJ/mol
# GULP energy per Si atom -5573.592317 kJ/mol
# Density = 2.227732 g / cm^3
# Si number density = 22.328138 Si / 1000 Ang^3
#
#
#
# Elastic Constant Matrix: (Units=GPa)
#
#
# Indices 1 2 3 4 5 6 
#
# 1 130.5777 18.3819 25.4145 0.0000 0.0000 0.0000
# 2 18.3819 11.5430 3.5010 0.0000 0.0000 0.0000
# 3 25.4145 3.5010 175.1477 0.0001 0.0002 0.0000
# 4 0.0000 0.0000 0.0001 19.3619 0.0000 0.0000
# 5 0.0000 0.0000 0.0002 0.0000 33.5041 0.0000
# 6 0.0000 0.0000 0.0000 0.0000 0.0000 31.2407
#
#
#
# Elastic Compliance Matrix: (Units=1/GPa)
#
#
# Indices 1 2 3 4 5 6 
#
# 1 0.010097 -0.015729 -0.001151 0.000000 0.000000 0.000000
# 2 -0.015729 0.111666 0.000050 0.000000 0.000000 0.000000
# 3 -0.001151 0.000050 0.005875 0.000000 0.000000 0.000000
# 4 0.000000 0.000000 0.000000 0.051648 0.000000 0.000000
# 5 0.000000 0.000000 0.000000 0.000000 0.029847 0.000000
# 6 0.000000 0.000000 0.000000 0.000000 0.000000 0.032010
#
#
# Mechanical properties :
#
#
# Convention : Reuss Voigt Hill
#
# Bulk Modulus (GPa) = 10.64070 45.76257 28.20163
# Shear Modulus (GPa) = 16.33301 34.81941 25.57621
#
# Velocity S-wave (km/s) = 2.70756 3.95326 3.38815
# Velocity P-wave (km/s) = 3.81450 6.43255 5.28810
#
# Compressibility (1/GPa) = 0.09397879
#
# Stress axis : x y z
#
# Youngs Moduli (GPa) = 99.04399 8.95525 170.20060
#
# Poissons Ratio (x) = 0.14086 0.19584
# Poissons Ratio (y) = 1.55791 -0.00857
# Poissons Ratio (z) = 0.11396 -0.00045
#
# Static dielectric constant tensor:
#      x y z
#    x 1.806710 0.000000 0.000000 
#    y 0.000000 1.897380 0.000000 
#    z 0.000000 0.000000 2.022590 
# 
# From -- ./inp_files/2372.got.cif
#   From: 2010.05.17/outbox.cif.g08.bks.cpg/sg46_2_cif.got.tgz:2372.got - 2010.06.03 19:58:25.
