data_PCOD9377501
_publ_section_title
;
Structure prediction by ZEFSAII (Michael W. Deem and Ramdas Pophale) SiO2 
 PCOD9377501
Probable space group: I B A 2
;
_chemical_formula_sum "Si O2"
_cell_formula_units_Z 64
_cell_length_a 19.449748
_cell_length_b 9.079537
_cell_length_c 14.506100
_cell_angle_alpha 90.000000
_cell_angle_beta 90.000000
_cell_angle_gamma 90.000000
_cell_volume 2561.700474
_symmetry_space_group_name_H-M "I B A 2"
_symmetry_group_IT_number 45
_symmetry_cell_setting 'orthorhombic'
loop_
_space_group_symop_operation_xyz
x,y,z
-x,-y,z
-x,y,1/2+z
x,-y,1/2+z
1/2+x,1/2+y,1/2+z
1/2-x,1/2-y,1/2+z
1/2-x,1/2+y,z
1/2+x,1/2-y,z
loop_
_atom_site_type_symbol
_atom_site_label
_atom_site_fract_x
_atom_site_fract_y
_atom_site_fract_z
Si Si1 0.651388 0.976264 0.023660
Si Si2 0.502919 0.674011 0.531397
Si Si3 0.317879 0.704723 0.218352
Si Si4 0.119765 0.714236 0.397259
Si Si5 0.220601 0.884955 0.512540
Si Si6 0.326802 0.634988 0.733268
Si Si7 0.851291 0.835196 0.517910
Si Si8 0.441493 0.103990 0.682315
O O1 0.727130 0.020426 0.056736
O O2 0.690555 0.817107 0.000372
O O3 0.599928 0.003013 0.106708
O O4 0.621313 0.044844 0.931508
O O5 0.500000 0.500000 0.551740
O O6 0.558503 0.712459 0.454270
O O7 0.427900 0.716743 0.494243
O O8 0.522243 0.769757 0.620486
O O9 0.314079 0.677893 0.107554
O O10 0.323883 0.538635 0.257234
O O11 0.247503 0.787438 0.243140
O O12 0.383040 0.809856 0.239195
O O13 0.193039 0.765147 0.437245
O O14 0.120786 0.767044 0.293418
O O15 0.170276 0.017742 0.470813
O O16 0.351224 0.648066 0.627847
O O17 0.500000 0.000000 0.726322
#
# Coordination Sequence:
#
# PCOD9377501 Si02
#       8
#     8   8   8   8   8   8   8   8
#     4  11  21  37  66 102 129 178 236 283 339 419
#     4  11  20  40  68  95 132 181 238 277 334 424
#     4  11  22  43  67 102 141 186 234 286 355 430
#     4  11  25  41  65 100 142 172 228 301 351 410
#     4  11  20  39  68  97 125 179 241 281 337 427
#     4  11  26  43  66 108 144 178 226 304 366 401
#     4  11  21  38  73  93 128 185 235 278 343 426
#     4  11  21  38  67 104 130 168 238 292 324 413
#
# _framework density 24.983405999999999
#
# number of rings (size 3 to 8) (size 9 to 14) (size 15 to 20)
#    0.000    1.000    6.250    3.000    1.750    0.000 
#    0.000    1.875    0.000    4.500    0.000    0.000 
#    0.000    0.000    0.000    0.000    0.000    0.000 
#
# Total GULP energy -178443.978992 kJ/mol
# GULP energy per Si atom -5576.374343 kJ/mol
# Density = 2.492654 g / cm^3
# Si number density = 24.983406 Si / 1000 Ang^3
#
#
#
# Elastic Constant Matrix: (Units=GPa)
#
#
# Indices 1 2 3 4 5 6 
#
# 1 138.3734 41.6096 11.0437 0.0000 0.0000 0.0000
# 2 41.6096 145.4022 16.6477 0.0000 0.0000 0.0000
# 3 11.0437 16.6477 57.4713 0.0000 0.0000 0.0000
# 4 0.0000 0.0000 0.0000 9.9916 0.0000 0.0000
# 5 0.0000 0.0000 0.0000 0.0000 14.8075 0.0000
# 6 0.0000 0.0000 0.0000 0.0000 0.0000 46.6898
#
#
#
# Elastic Compliance Matrix: (Units=1/GPa)
#
#
# Indices 1 2 3 4 5 6 
#
# 1 0.007952 -0.002173 -0.000899 0.000000 0.000000 0.000000
# 2 -0.002173 0.007707 -0.001815 0.000000 0.000000 0.000000
# 3 -0.000899 -0.001815 0.018098 0.000000 0.000000 0.000000
# 4 0.000000 0.000000 0.000000 0.100084 0.000000 0.000000
# 5 0.000000 0.000000 0.000000 0.000000 0.067533 0.000000
# 6 0.000000 0.000000 0.000000 0.000000 0.000000 0.021418
#
#
# Mechanical properties :
#
#
# Convention : Reuss Voigt Hill
#
# Bulk Modulus (GPa) = 41.69336 53.31655 47.50495
# Shear Modulus (GPa) = 20.78479 32.42750 26.60615
#
# Velocity S-wave (km/s) = 2.88747 3.60663 3.26690
# Velocity P-wave (km/s) = 5.27649 6.22341 5.76941
#
# Compressibility (1/GPa) = 0.02398463
#
# Stress axis : x y z
#
# Youngs Moduli (GPa) = 125.75629 129.75155 55.25345
#
# Poissons Ratio (x) = 0.28191 0.04966
# Poissons Ratio (y) = 0.27323 0.10028
# Poissons Ratio (z) = 0.11301 0.23550
#
# Static dielectric constant tensor:
#      x y z
#    x 2.086520 0.000000 0.000000 
#    y 0.000000 2.247170 0.000000 
#    z 0.000000 0.000000 2.039310 
# 
# From -- ./inp_files/8448.got.cif
#   From: 2010.05.17/outbox.cif.g08.bks.cpg/sg45_5_cif.got.tgz:8448.got - 2010.06.03 19:51:22.
