data_PCOD9377536
_publ_section_title
;
Structure prediction by ZEFSAII (Michael W. Deem and Ramdas Pophale) SiO2 
 PCOD9377536
Probable space group: I B A 2
;
_chemical_formula_sum "Si O2"
_cell_formula_units_Z 44
_cell_length_a 8.593513
_cell_length_b 15.497002
_cell_length_c 12.725202
_cell_angle_alpha 90.000000
_cell_angle_beta 90.000000
_cell_angle_gamma 90.000000
_cell_volume 1694.662083
_symmetry_space_group_name_H-M "I B A 2"
_symmetry_group_IT_number 45
_symmetry_cell_setting 'orthorhombic'
loop_
_space_group_symop_operation_xyz
x,y,z
-x,-y,z
-x,y,1/2+z
x,-y,1/2+z
1/2+x,1/2+y,1/2+z
1/2-x,1/2-y,1/2+z
1/2-x,1/2+y,z
1/2+x,1/2-y,z
loop_
_atom_site_type_symbol
_atom_site_label
_atom_site_fract_x
_atom_site_fract_y
_atom_site_fract_z
Si Si1 0.707158 0.807719 0.597120
Si Si2 0.542702 0.136247 0.901147
Si Si3 0.775565 0.111474 0.514452
Si Si4 0.261185 0.433151 0.742924
Si Si5 0.508624 0.279454 0.743143
Si Si6 0.000000 0.000000 0.894878
O O1 0.664470 0.867332 0.498509
O O2 0.723603 0.711173 0.549876
O O3 0.555604 0.797663 0.669773
O O4 0.851270 0.821730 0.676320
O O5 0.604555 0.081121 0.805129
O O6 0.544906 0.234094 0.853614
O O7 0.373767 0.108171 0.939426
O O8 0.747613 0.054543 0.619454
O O9 0.940254 0.078328 0.468102
O O10 0.367904 0.346255 0.755889
O O11 0.358470 0.497542 0.813219
#
# Coordination Sequence:
#
# PCOD9377536 Si02
#       6
#     8   8   8   8   8   4
#     4  11  22  39  69 109 142 175 226 301 370 434
#     4  12  22  42  70 105 141 184 224 303 376 417
#     4  11  25  46  68 102 142 185 244 291 353 442
#     4  11  26  45  68 103 136 189 238 289 355 433
#     4  11  22  40  68 109 145 171 229 297 369 432
#     4  12  28  48  70  92 140 202 240 294 346 430
#
# _framework density 25.963878999999999
#
# number of rings (size 3 to 8) (size 9 to 14) (size 15 to 20)
#    0.000    0.727    5.455    2.727    7.636    0.727 
#    0.000    1.818    0.000    0.000    0.000    0.000 
#    0.000    0.000    0.000    0.000    0.000    0.000 
#
# Total GULP energy -123052.358293 kJ/mol
# GULP energy per Si atom -5593.289013 kJ/mol
# Density = 2.590478 g / cm^3
# Si number density = 25.963879 Si / 1000 Ang^3
#
#
#
# Elastic Constant Matrix: (Units=GPa)
#
#
# Indices 1 2 3 4 5 6 
#
# 1 130.7619 25.5488 63.8591 0.0000 0.0000 0.0000
# 2 25.5488 54.6571 31.8499 0.0000 0.0000 0.0000
# 3 63.8591 31.8499 151.9787 0.0000 0.0000 0.0000
# 4 0.0000 0.0000 0.0000 18.3871 0.0000 0.0000
# 5 0.0000 0.0000 0.0000 0.0000 67.8245 0.0000
# 6 0.0000 0.0000 0.0000 0.0000 0.0000 31.0019
#
#
#
# Elastic Compliance Matrix: (Units=1/GPa)
#
#
# Indices 1 2 3 4 5 6 
#
# 1 0.009916 -0.002514 -0.003640 0.000000 0.000000 0.000000
# 2 -0.002514 0.021478 -0.003445 0.000000 0.000000 0.000000
# 3 -0.003640 -0.003445 0.008831 0.000000 0.000000 0.000000
# 4 0.000000 0.000000 0.000000 0.054386 0.000000 0.000000
# 5 0.000000 0.000000 0.000000 0.000000 0.014744 0.000000
# 6 0.000000 0.000000 0.000000 0.000000 0.000000 0.032256
#
#
# Mechanical properties :
#
#
# Convention : Reuss Voigt Hill
#
# Bulk Modulus (GPa) = 47.55487 64.43481 55.99484
# Shear Modulus (GPa) = 29.79406 37.85203 33.82304
#
# Velocity S-wave (km/s) = 3.39118 3.82235 3.61320
# Velocity P-wave (km/s) = 5.80422 6.65969 6.24662
#
# Compressibility (1/GPa) = 0.02102834
#
# Stress axis : x y z
#
# Youngs Moduli (GPa) = 100.84457 46.55824 113.23557
#
# Poissons Ratio (x) = 0.11706 0.41215
# Poissons Ratio (y) = 0.25355 0.39007
# Poissons Ratio (z) = 0.36705 0.16038
#
# Static dielectric constant tensor:
#      x y z
#    x 2.039980 0.000000 0.000000 
#    y 0.000000 2.124020 0.000000 
#    z 0.000000 0.000000 2.154410 
# 
# From -- ./inp_files/3246.got.cif
#   From: 2010.05.17/outbox.cif.g08.bks.cpg/sg45_2_cif.got.tgz:3246.got - 2010.06.03 19:51:22.
