data_PCOD9377520
_publ_section_title
;
Structure prediction by ZEFSAII (Michael W. Deem and Ramdas Pophale) SiO2 
 PCOD9377520
Probable space group: I B A 2
;
_chemical_formula_sum "Si O2"
_cell_formula_units_Z 56
_cell_length_a 13.443397
_cell_length_b 12.640495
_cell_length_c 15.103609
_cell_angle_alpha 90.000000
_cell_angle_beta 90.000000
_cell_angle_gamma 90.000000
_cell_volume 2566.574289
_symmetry_space_group_name_H-M "I B A 2"
_symmetry_group_IT_number 45
_symmetry_cell_setting 'orthorhombic'
loop_
_space_group_symop_operation_xyz
x,y,z
-x,-y,z
-x,y,1/2+z
x,-y,1/2+z
1/2+x,1/2+y,1/2+z
1/2-x,1/2-y,1/2+z
1/2-x,1/2+y,z
1/2+x,1/2-y,z
loop_
_atom_site_type_symbol
_atom_site_label
_atom_site_fract_x
_atom_site_fract_y
_atom_site_fract_z
Si Si1 0.317246 0.982135 0.705390
Si Si2 0.769233 0.836094 0.085899
Si Si3 0.907894 0.283509 0.301927
Si Si4 0.611488 0.518348 0.454459
Si Si5 0.364569 0.782608 0.254670
Si Si6 0.399074 0.437954 0.250963
Si Si7 0.756920 0.192761 0.927532
O O1 0.314894 0.921401 0.612709
O O2 0.371752 0.896343 0.765271
O O3 0.360854 0.097119 0.720482
O O4 0.199612 0.998764 0.725615
O O5 0.825566 0.786730 0.171446
O O6 0.841195 0.903329 0.023958
O O7 0.727087 0.746278 0.021970
O O8 0.876608 0.186625 0.234484
O O9 0.859823 0.295265 0.400248
O O10 0.025088 0.266253 0.292618
O O11 0.500000 0.500000 0.487808
O O12 0.595613 0.566837 0.357339
O O13 0.685487 0.419008 0.435866
O O14 0.299979 0.754967 0.341699
O O15 0.500000 0.500000 0.221543
#
# Coordination Sequence:
#
# PCOD9377520 Si02
#       7
#     8   8   8   8   8   8   8
#     4  12  23  45  67 104 144 192 239 306 368 445
#     4  12  25  44  73 107 146 190 248 311 375 450
#     4  12  24  45  75 103 143 198 249 300 370 455
#     4  11  23  41  67 105 142 183 245 304 369 441
#     4  12  26  48  74 103 150 200 247 302 386 456
#     4  11  21  40  72 101 136 185 242 296 366 439
#     4  12  25  47  74 108 149 193 245 316 373 447
#
# _framework density 21.818968999999999
#
# number of rings (size 3 to 8) (size 9 to 14) (size 15 to 20)
#    0.000    0.286    5.714    3.857    0.000    2.857 
#    0.000    0.714    0.000    0.000    0.000    0.000 
#    0.000    0.000    0.000    0.000    0.000    0.000 
#
# Total GULP energy -156029.081297 kJ/mol
# GULP energy per Si atom -5572.467189 kJ/mol
# Density = 2.176931 g / cm^3
# Si number density = 21.818969 Si / 1000 Ang^3
#
#
#
# Elastic Constant Matrix: (Units=GPa)
#
#
# Indices 1 2 3 4 5 6 
#
# 1 71.4671 10.9749 15.4251 0.0000 0.0000 0.0000
# 2 10.9749 133.0391 18.8600 0.0000 0.0000 0.0000
# 3 15.4251 18.8600 82.6589 0.0000 0.0000 0.0000
# 4 0.0000 0.0000 0.0000 30.5859 0.0000 0.0000
# 5 0.0000 0.0000 0.0000 0.0000 8.0858 0.0000
# 6 0.0000 0.0000 0.0000 0.0000 0.0000 27.9740
#
#
#
# Elastic Compliance Matrix: (Units=1/GPa)
#
#
# Indices 1 2 3 4 5 6 
#
# 1 0.014672 -0.000850 -0.002544 0.000000 0.000000 0.000000
# 2 -0.000850 0.007817 -0.001625 0.000000 0.000000 0.000000
# 3 -0.002544 -0.001625 0.012943 0.000000 0.000000 0.000000
# 4 0.000000 0.000000 0.000000 0.032695 0.000000 0.000000
# 5 0.000000 0.000000 0.000000 0.000000 0.123673 0.000000
# 6 0.000000 0.000000 0.000000 0.000000 0.000000 0.035747
#
#
# Mechanical properties :
#
#
# Convention : Reuss Voigt Hill
#
# Bulk Modulus (GPa) = 39.37798 41.96500 40.67149
# Shear Modulus (GPa) = 20.32101 29.45615 24.88858
#
# Velocity S-wave (km/s) = 3.05511 3.67825 3.38107
# Velocity P-wave (km/s) = 5.52555 6.10855 5.82435
#
# Compressibility (1/GPa) = 0.02539490
#
# Stress axis : x y z
#
# Youngs Moduli (GPa) = 68.15686 127.92550 77.25916
#
# Poissons Ratio (x) = 0.10870 0.19655
# Poissons Ratio (y) = 0.05791 0.12555
# Poissons Ratio (z) = 0.17340 0.20788
#
# Static dielectric constant tensor:
#      x y z
#    x 1.895140 0.000000 0.000000 
#    y 0.000000 1.914700 0.000000 
#    z 0.000000 0.000000 1.810010 
# 
# From -- ./inp_files/6511.got.cif
#   From: 2010.05.17/outbox.cif.g08.bks.cpg/sg45_4_cif.got.tgz:6511.got - 2010.06.03 19:51:22.
