data_PCOD9377167
_publ_section_title
;
Structure prediction by ZEFSAII (Michael W. Deem and Ramdas Pophale) SiO2 
 PCOD9377167
Probable space group: I B A 2
;
_chemical_formula_sum "Si O2"
_cell_formula_units_Z 56
_cell_length_a 17.577117
_cell_length_b 8.504353
_cell_length_c 15.337156
_cell_angle_alpha 90.000000
_cell_angle_beta 90.000000
_cell_angle_gamma 90.000000
_cell_volume 2292.628871
_symmetry_space_group_name_H-M "I B A 2"
_symmetry_group_IT_number 45
_symmetry_cell_setting 'orthorhombic'
loop_
_space_group_symop_operation_xyz
x,y,z
-x,-y,z
-x,y,1/2+z
x,-y,1/2+z
1/2+x,1/2+y,1/2+z
1/2-x,1/2-y,1/2+z
1/2-x,1/2+y,z
1/2+x,1/2-y,z
loop_
_atom_site_type_symbol
_atom_site_label
_atom_site_fract_x
_atom_site_fract_y
_atom_site_fract_z
Si Si1 0.420067 0.009025 0.901740
Si Si2 0.641283 0.501731 0.458259
Si Si3 0.717106 0.125112 0.188306
Si Si4 0.075300 0.394956 0.716362
Si Si5 0.386836 0.677596 0.297175
Si Si6 0.705422 0.830572 0.491355
Si Si7 0.106898 0.949291 0.153874
O O1 0.420819 0.885446 0.821724
O O2 0.350140 0.972369 0.963874
O O3 0.500000 0.000000 0.951097
O O4 0.417787 0.172085 0.849345
O O5 0.603269 0.457614 0.368320
O O6 0.675937 0.673141 0.448954
O O7 0.710592 0.378192 0.464834
O O8 0.599834 0.485237 0.551026
O O9 0.694170 0.248551 0.263626
O O10 0.803786 0.067230 0.184646
O O11 0.653435 0.987571 0.192813
O O12 0.704617 0.201684 0.094026
O O13 0.075200 0.223985 0.673932
O O14 0.000000 0.500000 0.695019
O O15 0.421124 0.598254 0.210430
#
# Coordination Sequence:
#
# PCOD9377167 Si02
#       7
#     8   8   8   8   8   8   8
#     4  10  24  45  70  98 136 190 236 287 360 439
#     4  11  25  39  68 106 138 182 233 296 355 423
#     4  10  23  40  68 101 139 187 237 291 356 432
#     4  10  23  43  68 101 139 190 237 289 371 437
#     4  11  23  42  69 104 136 181 235 289 363 414
#     4  11  23  43  64 101 142 178 234 292 351 424
#     4  11  23  42  69 105 144 183 242 306 353 431
#
# _framework density 24.426107999999999
#
# number of rings (size 3 to 8) (size 9 to 14) (size 15 to 20)
#    0.000    1.429    1.429    2.571   16.000    0.571 
#    0.000   11.429    0.000    0.000    0.000    0.000 
#    0.000    0.000    0.000    0.000    0.000    0.000 
#
# Total GULP energy -156483.802792 kJ/mol
# GULP energy per Si atom -5588.707243 kJ/mol
# Density = 2.437051 g / cm^3
# Si number density = 24.426108 Si / 1000 Ang^3
#
#
#
# Elastic Constant Matrix: (Units=GPa)
#
#
# Indices 1 2 3 4 5 6 
#
# 1 90.9101 18.4460 16.9586 0.0000 0.0000 0.0000
# 2 18.4460 124.8218 27.2399 0.0000 0.0000 0.0000
# 3 16.9586 27.2399 91.2480 0.0000 0.0000 0.0000
# 4 0.0000 0.0000 0.0000 38.7434 0.0000 0.0000
# 5 0.0000 0.0000 0.0000 0.0000 -12.0160 0.0000
# 6 0.0000 0.0000 0.0000 0.0000 0.0000 21.8955
#
#
#
# Elastic Compliance Matrix: (Units=1/GPa)
#
#
# Indices 1 2 3 4 5 6 
#
# 1 0.011598 -0.001330 -0.001758 0.000000 0.000000 0.000000
# 2 -0.001330 0.008722 -0.002357 0.000000 0.000000 0.000000
# 3 -0.001758 -0.002357 0.011989 0.000000 0.000000 0.000000
# 4 0.000000 0.000000 0.000000 0.025811 0.000000 0.000000
# 5 0.000000 0.000000 0.000000 0.000000 -0.083222 0.000000
# 6 0.000000 0.000000 0.000000 0.000000 0.000000 0.045671
#
#
# Mechanical properties :
#
#
# Convention : Reuss Voigt Hill
#
# Bulk Modulus (GPa) = 46.68712 48.02989 47.35851
# Shear Modulus (GPa) = 129.53485 26.01360 77.77422
#
# Velocity S-wave (km/s) = 7.29016 3.26696 5.64887
# Velocity P-wave (km/s) = 9.48773 5.82553 7.87254
#
# Compressibility (1/GPa) = 0.02141918
#
# Stress axis : x y z
#
# Youngs Moduli (GPa) = 86.22334 114.64898 83.40662
#
# Poissons Ratio (x) = 0.15250 0.14666
# Poissons Ratio (y) = 0.11469 0.19656
# Poissons Ratio (z) = 0.15161 0.27018
#
# Static dielectric constant tensor:
#      x y z
#    x 2.018880 0.000000 0.000000 
#    y 0.000000 1.983640 0.000000 
#    z 0.000000 0.000000 1.919400 
# 
# From -- ./inp_files/6953.got.cif
#   From: 2010.05.17/outbox.cif.g08.bks.cpg/sg45_4_cif.got.tgz:6953.got - 2010.06.03 19:51:22.
