data_PCOD9377965
_publ_section_title
;
Structure prediction by ZEFSAII (Michael W. Deem and Ramdas Pophale) SiO2 
 PCOD9377965
Probable space group: I M A 2
;
_chemical_formula_sum "Si O2"
_cell_formula_units_Z 32
_cell_length_a 18.466391
_cell_length_b 12.916457
_cell_length_c 4.658358
_cell_angle_alpha 90.000000
_cell_angle_beta 90.000000
_cell_angle_gamma 90.000000
_cell_volume 1111.113159
_symmetry_space_group_name_H-M "I M A 2"
_symmetry_group_IT_number 46
_symmetry_cell_setting 'orthorhombic'
loop_
_space_group_symop_operation_xyz
x,y,z
-x,-y,z
1/2-x,y,z
1/2+x,-y,z
1/2+x,1/2+y,1/2+z
1/2-x,1/2-y,1/2+z
-x,1/2+y,1/2+z
x,1/2-y,1/2+z
loop_
_atom_site_type_symbol
_atom_site_label
_atom_site_fract_x
_atom_site_fract_y
_atom_site_fract_z
Si Si1 0.360634 0.128040 0.507520
Si Si2 0.750000 0.656584 0.509458
Si Si3 0.607787 0.097520 0.246702
Si Si4 0.750000 0.185406 0.961780
Si Si5 0.512607 0.378828 0.216402
O O1 0.312744 0.110217 0.791648
O O2 0.437706 0.171347 0.615869
O O3 0.500000 0.000000 0.642058
O O4 0.374451 0.018270 0.351327
O O5 0.811042 0.686500 0.769669
O O6 0.580859 0.158336 0.528898
O O7 0.678333 0.131586 0.075986
O O8 0.538450 0.113260 0.041245
O O9 0.750000 0.202984 0.623497
#
# Coordination Sequence:
#
# PCOD9377965 Si02
#       5
#     8   4   8   4   8
#     4  10  19  31  49  77 105 138 177 213 274 355
#     4  10  18  27  44  70 108 140 158 194 247 330
#     4  11  21  34  52  71 100 143 186 239 285 313
#     4  12  26  41  54  74 106 154 212 250 263 296
#     4  10  19  32  51  76 102 132 177 228 283 350
#
# _framework density 28.799947
#
# number of rings (size 3 to 8) (size 9 to 14) (size 15 to 20)
#    0.000    1.500    0.000    9.750    0.000    2.000 
#    0.000    0.000    0.000    0.000    0.000    0.000 
#    0.000    0.000    0.000  283.500    0.000  134.750 
#
# Total GULP energy -89234.648911 kJ/mol
# GULP energy per Si atom -5577.165557 kJ/mol
# Density = 2.873440 g / cm^3
# Si number density = 28.799947 Si / 1000 Ang^3
#
#
#
# Elastic Constant Matrix: (Units=GPa)
#
#
# Indices 1 2 3 4 5 6 
#
# 1 203.1603 33.5466 69.6525 0.0000 0.0000 0.0000
# 2 33.5466 93.2411 10.9389 0.0000 0.0000 0.0000
# 3 69.6525 10.9389 214.8940 0.0000 0.0000 0.0000
# 4 0.0000 0.0000 0.0000 35.5097 0.0000 0.0000
# 5 0.0000 0.0000 0.0000 0.0000 57.5647 0.0000
# 6 0.0000 0.0000 0.0000 0.0000 0.0000 122.8772
#
#
#
# Elastic Compliance Matrix: (Units=1/GPa)
#
#
# Indices 1 2 3 4 5 6 
#
# 1 0.005852 -0.001894 -0.001800 0.000000 0.000000 0.000000
# 2 -0.001894 0.011403 0.000034 0.000000 0.000000 0.000000
# 3 -0.001800 0.000034 0.005235 0.000000 0.000000 0.000000
# 4 0.000000 0.000000 0.000000 0.028161 0.000000 0.000000
# 5 0.000000 0.000000 0.000000 0.000000 0.017372 0.000000
# 6 0.000000 0.000000 0.000000 0.000000 0.000000 0.008138
#
#
# Mechanical properties :
#
#
# Convention : Reuss Voigt Hill
#
# Bulk Modulus (GPa) = 65.92959 82.17460 74.05209
# Shear Modulus (GPa) = 56.47183 69.66748 63.06966
#
# Velocity S-wave (km/s) = 4.43293 4.92368 4.68474
# Velocity P-wave (km/s) = 7.01022 7.80502 7.41827
#
# Compressibility (1/GPa) = 0.01516770
#
# Stress axis : x y z
#
# Youngs Moduli (GPa) = 170.87307 87.70006 191.01032
#
# Poissons Ratio (x) = 0.16613 0.34390
# Poissons Ratio (y) = 0.32369 -0.00641
# Poissons Ratio (z) = 0.30765 -0.00294
#
# Static dielectric constant tensor:
#      x y z
#    x 2.250580 0.000000 0.000000 
#    y 0.000000 2.576170 0.000000 
#    z 0.000000 0.000000 2.267470 
# 
# From -- ./inp_files/1103.got.cif
#   From: 2010.05.17/outbox.cif.g08.bks.cpg/sg46_1_cif.got.tgz:1103.got - 2010.06.03 19:58:25.
