data_PCOD9377936
_publ_section_title
;
Structure prediction by ZEFSAII (Michael W. Deem and Ramdas Pophale) SiO2 
 PCOD9377936
Probable space group: I M A 2
;
_chemical_formula_sum "Si O2"
_cell_formula_units_Z 52
_cell_length_a 15.343521
_cell_length_b 7.831763
_cell_length_c 20.537844
_cell_angle_alpha 90.000000
_cell_angle_beta 90.000000
_cell_angle_gamma 90.000000
_cell_volume 2467.967404
_symmetry_space_group_name_H-M "I M A 2"
_symmetry_group_IT_number 46
_symmetry_cell_setting 'orthorhombic'
loop_
_space_group_symop_operation_xyz
x,y,z
-x,-y,z
1/2-x,y,z
1/2+x,-y,z
1/2+x,1/2+y,1/2+z
1/2-x,1/2-y,1/2+z
-x,1/2+y,1/2+z
x,1/2-y,1/2+z
loop_
_atom_site_type_symbol
_atom_site_label
_atom_site_fract_x
_atom_site_fract_y
_atom_site_fract_z
Si Si1 0.652929 0.713924 0.518560
Si Si2 0.151274 0.352842 0.159624
Si Si3 0.500000 0.000000 0.745181
Si Si4 0.976940 0.303561 0.967223
Si Si5 0.845511 0.172239 0.071430
Si Si6 0.605552 0.475107 0.703727
Si Si7 0.941473 0.328168 0.826452
O O1 0.750000 0.758632 0.493267
O O2 0.633582 0.830849 0.582213
O O3 0.572155 0.716456 0.469351
O O4 0.657452 0.522980 0.546422
O O5 0.250000 0.414354 0.167438
O O6 0.081845 0.463701 0.198417
O O7 0.144971 0.160265 0.188991
O O8 0.514243 0.168042 0.789621
O O9 0.924364 0.271300 0.900331
O O10 0.000000 0.500000 0.971734
O O11 0.920767 0.255401 0.029536
O O12 0.750000 0.250429 0.061293
O O13 0.867169 0.154143 0.147152
O O14 0.500000 0.500000 0.699416
O O15 0.628177 0.397335 0.774101
O O16 0.000000 0.500000 0.834382
#
# Coordination Sequence:
#
# PCOD9377936 Si02
#       7
#     8   8   4   8   8   8   8
#     4   9  20  39  65  95 125 161 211 266 320 382
#     4  10  21  38  66 102 130 164 217 274 330 389
#     4  12  22  40  72  86 136 172 212 276 324 390
#     4  11  24  39  62  88 130 172 208 265 319 380
#     4  10  21  38  64  95 122 163 218 261 316 392
#     4  10  17  39  66  90 130 168 212 269 324 382
#     4  10  23  41  63  95 124 174 221 261 326 388
#
# _framework density 21.069970999999999
#
# number of rings (size 3 to 8) (size 9 to 14) (size 15 to 20)
#    0.000    1.846    3.077    3.692    3.231    0.615 
#    0.000    6.154    0.000    0.000    0.000    0.000 
#    0.000    0.000    0.000    0.000    0.000    0.000 
#
# Total GULP energy -145071.260099 kJ/mol
# GULP energy per Si atom -5579.663850 kJ/mol
# Density = 2.102201 g / cm^3
# Si number density = 21.069971 Si / 1000 Ang^3
#
#
#
# Elastic Constant Matrix: (Units=GPa)
#
#
# Indices 1 2 3 4 5 6 
#
# 1 100.7634 16.6922 37.8369 0.0000 0.0000 0.0000
# 2 16.6922 75.3486 21.0257 0.0000 0.0000 0.0000
# 3 37.8369 21.0257 103.7513 0.0000 0.0000 0.0000
# 4 0.0000 0.0000 0.0000 11.6804 0.0000 0.0000
# 5 0.0000 0.0000 0.0000 0.0000 -20.8909 0.0000
# 6 0.0000 0.0000 0.0000 0.0000 0.0000 16.3403
#
#
#
# Elastic Compliance Matrix: (Units=1/GPa)
#
#
# Indices 1 2 3 4 5 6 
#
# 1 0.011652 -0.001479 -0.003950 0.000000 0.000000 0.000000
# 2 -0.001479 0.014255 -0.002349 0.000000 0.000000 0.000000
# 3 -0.003950 -0.002349 0.011555 0.000000 0.000000 0.000000
# 4 0.000000 0.000000 0.000000 0.085613 0.000000 0.000000
# 5 0.000000 0.000000 0.000000 0.000000 -0.047868 0.000000
# 6 0.000000 0.000000 0.000000 0.000000 0.000000 0.061198
#
#
# Mechanical properties :
#
#
# Convention : Reuss Voigt Hill
#
# Bulk Modulus (GPa) = 45.65033 47.88587 46.76810
# Shear Modulus (GPa) = 31.39419 15.04651 23.22035
#
# Velocity S-wave (km/s) = 3.86424 2.67520 3.32333
# Velocity P-wave (km/s) = 6.45158 5.68495 6.08036
#
# Compressibility (1/GPa) = 0.02190564
#
# Stress axis : x y z
#
# Youngs Moduli (GPa) = 85.81906 70.15114 86.54287
#
# Poissons Ratio (x) = 0.10377 0.34182
# Poissons Ratio (y) = 0.12695 0.20332
# Poissons Ratio (z) = 0.33896 0.16481
#
# Static dielectric constant tensor:
#      x y z
#    x 2.471260 0.000000 0.000000 
#    y 0.000000 1.803990 0.000000 
#    z 0.000000 0.000000 1.798830 
# 
# From -- ./inp_files/21970.got.cif
#   From: 2010.05.17/outbox.cif.g08.bks.cpg/sg46_11_cif.got.tgz:21970.got - 2010.06.03 19:58:25.
