data_PCOD9377700
_publ_section_title
;
Structure prediction by ZEFSAII (Michael W. Deem and Ramdas Pophale) SiO2 
 PCOD9377700
Probable space group: I B A 2
;
_chemical_formula_sum "Si O2"
_cell_formula_units_Z 48
_cell_length_a 8.498444
_cell_length_b 14.313481
_cell_length_c 15.812254
_cell_angle_alpha 90.000000
_cell_angle_beta 90.000000
_cell_angle_gamma 90.000000
_cell_volume 1923.439209
_symmetry_space_group_name_H-M "I B A 2"
_symmetry_group_IT_number 45
_symmetry_cell_setting 'orthorhombic'
loop_
_space_group_symop_operation_xyz
x,y,z
-x,-y,z
-x,y,1/2+z
x,-y,1/2+z
1/2+x,1/2+y,1/2+z
1/2-x,1/2-y,1/2+z
1/2-x,1/2+y,z
1/2+x,1/2-y,z
loop_
_atom_site_type_symbol
_atom_site_label
_atom_site_fract_x
_atom_site_fract_y
_atom_site_fract_z
Si Si1 0.129776 0.320722 0.487440
Si Si2 0.850197 0.799639 0.246715
Si Si3 0.176731 0.965924 0.394623
Si Si4 0.690201 0.612221 0.210104
Si Si5 0.347015 0.050973 0.146771
Si Si6 0.713695 0.160530 0.931306
O O1 0.272356 0.369978 0.437297
O O2 0.102514 0.391090 0.564408
O O3 0.194671 0.216797 0.505180
O O4 0.969016 0.314410 0.435494
O O5 0.817724 0.694909 0.215177
O O6 0.728189 0.869753 0.203812
O O7 0.806399 0.808506 0.345961
O O8 0.021492 0.837076 0.219581
O O9 0.200992 0.949979 0.295398
O O10 0.280607 0.049346 0.430940
O O11 0.000000 0.000000 0.409240
O O12 0.722456 0.534925 0.138006
O O13 0.500000 0.000000 0.183379
#
# Coordination Sequence:
#
# PCOD9377700 Si02
#       6
#     8   8   8   8   8   8
#     4  12  29  48  75 111 161 207 259 322 397 471
#     4  12  25  46  83 115 153 204 261 336 381 477
#     4  12  23  43  74 111 152 199 259 319 381 464
#     4  12  25  47  76 117 153 201 267 317 402 455
#     4  12  28  49  73 115 158 208 256 326 399 467
#     4  12  24  47  77 113 149 205 262 320 388 466
#
# _framework density 24.955299
#
# number of rings (size 3 to 8) (size 9 to 14) (size 15 to 20)
#    0.000    0.000    5.000    5.000    2.333    5.333 
#    0.000    1.667    0.000    0.000    0.000    0.000 
#    0.000    0.000    0.000    0.000    0.000    0.000 
#
# Total GULP energy -134395.174504 kJ/mol
# GULP energy per Si atom -5599.798938 kJ/mol
# Density = 2.489850 g / cm^3
# Si number density = 24.955299 Si / 1000 Ang^3
#
#
#
# Elastic Constant Matrix: (Units=GPa)
#
#
# Indices 1 2 3 4 5 6 
#
# 1 139.1275 61.9346 32.2548 0.0000 0.0000 0.0000
# 2 61.9346 150.5946 14.7806 0.0000 0.0000 0.0000
# 3 32.2548 14.7806 25.9216 0.0000 0.0000 0.0000
# 4 0.0000 0.0000 0.0000 41.6481 0.0000 0.0000
# 5 0.0000 0.0000 0.0000 0.0000 17.3681 0.0000
# 6 0.0000 0.0000 0.0000 0.0000 0.0000 51.5578
#
#
#
# Elastic Compliance Matrix: (Units=1/GPa)
#
#
# Indices 1 2 3 4 5 6 
#
# 1 0.011675 -0.003576 -0.012488 0.000000 0.000000 0.000000
# 2 -0.003576 0.008129 -0.000186 0.000000 0.000000 0.000000
# 3 -0.012488 -0.000186 0.054223 0.000000 0.000000 0.000000
# 4 0.000000 0.000000 0.000000 0.024011 0.000000 0.000000
# 5 0.000000 0.000000 0.000000 0.000000 0.057577 0.000000
# 6 0.000000 0.000000 0.000000 0.000000 0.000000 0.019396
#
#
# Mechanical properties :
#
#
# Convention : Reuss Voigt Hill
#
# Bulk Modulus (GPa) = 24.08047 59.28709 41.68378
# Shear Modulus (GPa) = 22.58843 35.89305 29.24074
#
# Velocity S-wave (km/s) = 3.01184 3.79660 3.42676
# Velocity P-wave (km/s) = 4.66533 6.55956 5.69180
#
# Compressibility (1/GPa) = 0.04152742
#
# Stress axis : x y z
#
# Youngs Moduli (GPa) = 85.65583 123.01386 18.44228
#
# Poissons Ratio (x) = 0.43986 0.23031
# Poissons Ratio (y) = 0.30628 0.00343
# Poissons Ratio (z) = 1.06968 0.02288
#
# Static dielectric constant tensor:
#      x y z
#    x 1.964780 0.000000 0.000000 
#    y 0.000000 1.948190 0.000000 
#    z 0.000000 0.000000 2.069660 
# 
# From -- ./inp_files/7555.got.cif
#   From: 2010.05.17/outbox.cif.g08.bks.cpg/sg45_4_cif.got.tgz:7555.got - 2010.06.03 19:51:22.
