data_PCOD9377557
_publ_section_title
;
Structure prediction by ZEFSAII (Michael W. Deem and Ramdas Pophale) SiO2 
 PCOD9377557
Probable space group: I B A 2
;
_chemical_formula_sum "Si O2"
_cell_formula_units_Z 40
_cell_length_a 12.256288
_cell_length_b 8.080101
_cell_length_c 16.878201
_cell_angle_alpha 90.000000
_cell_angle_beta 90.000000
_cell_angle_gamma 90.000000
_cell_volume 1671.482760
_symmetry_space_group_name_H-M "I B A 2"
_symmetry_group_IT_number 45
_symmetry_cell_setting 'orthorhombic'
loop_
_space_group_symop_operation_xyz
x,y,z
-x,-y,z
-x,y,1/2+z
x,-y,1/2+z
1/2+x,1/2+y,1/2+z
1/2-x,1/2-y,1/2+z
1/2-x,1/2+y,z
1/2+x,1/2-y,z
loop_
_atom_site_type_symbol
_atom_site_label
_atom_site_fract_x
_atom_site_fract_y
_atom_site_fract_z
Si Si1 0.048218 0.325036 0.104250
Si Si2 0.119547 0.414203 0.413733
Si Si3 0.642017 0.398989 0.667799
Si Si4 0.171401 0.757174 0.748899
Si Si5 0.248383 0.840759 0.007938
O O1 0.110431 0.360439 0.186244
O O2 0.136303 0.265768 0.039328
O O3 0.000000 0.500000 0.077456
O O4 0.963948 0.185547 0.130721
O O5 0.142666 0.312962 0.333926
O O6 0.151302 0.281357 0.482439
O O7 0.212239 0.551405 0.433145
O O8 0.000000 0.500000 0.410667
O O9 0.703276 0.263481 0.722364
O O10 0.635784 0.557944 0.724731
O O11 0.710397 0.436302 0.587304
#
# Coordination Sequence:
#
# PCOD9377557 Si02
#       5
#     8   8   8   8   8
#     4  11  22  42  72 105 141 188 245 304 364 436
#     4  12  26  46  69 107 155 195 239 304 372 438
#     4  11  22  43  69 102 140 188 250 304 355 436
#     4  11  24  40  66  98 140 192 241 294 364 434
#     4  11  23  43  73 104 144 191 239 298 371 438
#
# _framework density 23.930847
#
# number of rings (size 3 to 8) (size 9 to 14) (size 15 to 20)
#    0.000    0.800    0.000   10.200    0.000    1.600 
#    0.000    5.000    0.000    0.000    0.000    0.000 
#    0.000    0.000    0.000    0.000    0.000    0.000 
#
# Total GULP energy -111604.259685 kJ/mol
# GULP energy per Si atom -5580.212984 kJ/mol
# Density = 2.387638 g / cm^3
# Si number density = 23.930847 Si / 1000 Ang^3
#
#
#
# Elastic Constant Matrix: (Units=GPa)
#
#
# Indices 1 2 3 4 5 6 
#
# 1 91.0758 66.0536 62.4641 0.0000 0.0000 0.0000
# 2 66.0536 152.5967 68.9455 0.0000 0.0000 0.0000
# 3 62.4641 68.9455 161.7650 0.0000 0.0000 0.0000
# 4 0.0000 0.0000 0.0000 52.7930 0.0000 0.0000
# 5 0.0000 0.0000 0.0000 0.0000 21.2844 0.0000
# 6 0.0000 0.0000 0.0000 0.0000 0.0000 43.9623
#
#
#
# Elastic Compliance Matrix: (Units=1/GPa)
#
#
# Indices 1 2 3 4 5 6 
#
# 1 0.018404 -0.005890 -0.004596 0.000000 0.000000 0.000000
# 2 -0.005890 0.010001 -0.001988 0.000000 0.000000 0.000000
# 3 -0.004596 -0.001988 0.008804 0.000000 0.000000 0.000000
# 4 0.000000 0.000000 0.000000 0.018942 0.000000 0.000000
# 5 0.000000 0.000000 0.000000 0.000000 0.046983 0.000000
# 6 0.000000 0.000000 0.000000 0.000000 0.000000 0.022747
#
#
# Mechanical properties :
#
#
# Convention : Reuss Voigt Hill
#
# Bulk Modulus (GPa) = 81.56321 88.92932 85.24626
# Shear Modulus (GPa) = 32.27576 37.47292 34.87434
#
# Velocity S-wave (km/s) = 3.67646 3.96142 3.82160
# Velocity P-wave (km/s) = 7.22348 7.62662 7.42779
#
# Compressibility (1/GPa) = 0.01226043
#
# Stress axis : x y z
#
# Youngs Moduli (GPa) = 54.33693 99.99044 113.58479
#
# Poissons Ratio (x) = 0.58891 0.52206
# Poissons Ratio (y) = 0.32003 0.22583
# Poissons Ratio (z) = 0.24974 0.19881
#
# Static dielectric constant tensor:
#      x y z
#    x 2.062890 0.000000 0.000000 
#    y 0.000000 1.938270 0.000000 
#    z 0.000000 0.000000 1.893340 
# 
# From -- ./inp_files/7440.got.cif
#   From: 2010.05.17/outbox.cif.g08.bks.cpg/sg45_4_cif.got.tgz:7440.got - 2010.06.03 19:51:22.
