data_PCOD9377823
_publ_section_title
;
Structure prediction by ZEFSAII (Michael W. Deem and Ramdas Pophale) SiO2 
 PCOD9377823
Probable space group: I M A 2
;
_chemical_formula_sum "Si O2"
_cell_formula_units_Z 64
_cell_length_a 8.722703
_cell_length_b 14.050198
_cell_length_c 35.637112
_cell_angle_alpha 90.000000
_cell_angle_beta 90.000000
_cell_angle_gamma 90.000000
_cell_volume 4367.531358
_symmetry_space_group_name_H-M "I M A 2"
_symmetry_group_IT_number 46
_symmetry_cell_setting 'orthorhombic'
loop_
_space_group_symop_operation_xyz
x,y,z
-x,-y,z
1/2-x,y,z
1/2+x,-y,z
1/2+x,1/2+y,1/2+z
1/2-x,1/2-y,1/2+z
-x,1/2+y,1/2+z
x,1/2-y,1/2+z
loop_
_atom_site_type_symbol
_atom_site_label
_atom_site_fract_x
_atom_site_fract_y
_atom_site_fract_z
Si Si1 0.933164 0.606761 0.339580
Si Si2 0.434219 0.603055 0.952366
Si Si3 0.935248 0.206141 0.911906
Si Si4 0.935252 0.205262 0.529657
Si Si5 0.934352 0.396998 0.488303
Si Si6 0.933657 0.607265 0.256368
Si Si7 0.567061 0.606930 0.102375
Si Si8 0.933228 0.107787 0.680188
O O1 0.750000 0.599962 0.342105
O O2 0.970554 0.646339 0.297819
O O3 0.000000 0.500000 0.342985
O O4 0.996807 0.670140 0.373130
O O5 0.500000 0.500000 0.943969
O O6 0.250000 0.599148 0.951424
O O7 0.482158 0.687446 0.924199
O O8 0.476738 0.637744 0.994348
O O9 0.750000 0.203810 0.909956
O O10 0.981847 0.137519 0.946546
O O11 0.750000 0.201136 0.534084
O O12 0.977358 0.312155 0.516783
O O13 0.015419 0.168969 0.567008
O O14 0.750000 0.401398 0.488224
O O15 0.000000 0.500000 0.497163
O O16 0.750000 0.603651 0.251890
O O17 0.000000 0.500000 0.257858
O O18 0.007164 0.652630 0.219143
O O19 0.500000 0.500000 0.097392
O O20 0.750000 0.600642 0.105196
O O21 0.498219 0.647942 0.141245
O O22 0.750000 0.104808 0.679671
O O23 0.000000 0.000000 0.680400
#
# Coordination Sequence:
#
# PCOD9377823 Si02
#       8
#     8   8   8   8   8   8   8   8
#     4  10  19  28  41  61  85 114 144 176 211 247
#     4   9  18  31  46  62  83 111 141 176 216 252
#     4   9  18  31  44  61  85 112 142 176 212 250
#     4   9  18  32  45  61  85 111 141 176 212 249
#     4   9  18  31  46  62  84 112 141 176 214 250
#     4   9  16  26  38  55  80 108 139 171 204 243
#     4  11  20  29  42  61  85 113 143 175 210 248
#     4  10  17  26  40  57  79 109 141 170 204 245
#
# _framework density 14.653587999999999
#
# number of rings (size 3 to 8) (size 9 to 14) (size 15 to 20)
#    0.000    2.500    0.000    6.750    0.000    5.500 
#    0.000    2.500    0.000    0.000    0.000    0.000 
#    0.000    1.000    0.000    5.000    0.000    5.125 
#
# Total GULP energy -178298.285186 kJ/mol
# GULP energy per Si atom -5571.821412 kJ/mol
# Density = 1.462024 g / cm^3
# Si number density = 14.653588 Si / 1000 Ang^3
#
#
#
# Elastic Constant Matrix: (Units=GPa)
#
#
# Indices 1 2 3 4 5 6 
#
# 1 67.3887 26.3233 55.0054 0.0000 0.0000 0.0000
# 2 26.3233 74.5549 53.5914 0.0000 0.0000 0.0000
# 3 55.0054 53.5914 154.1254 0.0000 0.0000 0.0000
# 4 0.0000 0.0000 0.0000 17.6173 0.0000 0.0000
# 5 0.0000 0.0000 0.0000 0.0000 28.3777 0.0000
# 6 0.0000 0.0000 0.0000 0.0000 0.0000 21.2351
#
#
#
# Elastic Compliance Matrix: (Units=1/GPa)
#
#
# Indices 1 2 3 4 5 6 
#
# 1 0.021353 -0.002748 -0.006665 0.000000 0.000000 0.000000
# 2 -0.002748 0.018236 -0.005360 0.000000 0.000000 0.000000
# 3 -0.006665 -0.005360 0.010731 0.000000 0.000000 0.000000
# 4 0.000000 0.000000 0.000000 0.056763 0.000000 0.000000
# 5 0.000000 0.000000 0.000000 0.000000 0.035239 0.000000
# 6 0.000000 0.000000 0.000000 0.000000 0.000000 0.047092
#
#
# Mechanical properties :
#
#
# Convention : Reuss Voigt Hill
#
# Bulk Modulus (GPa) = 48.13914 62.87880 55.50897
# Shear Modulus (GPa) = 22.13521 24.18929 23.16225
#
# Velocity S-wave (km/s) = 3.89082 4.06734 3.98006
# Velocity P-wave (km/s) = 7.28748 8.06604 7.68662
#
# Compressibility (1/GPa) = 0.02077312
#
# Stress axis : x y z
#
# Youngs Moduli (GPa) = 46.83171 54.83579 93.19065
#
# Poissons Ratio (x) = 0.15070 0.62112
# Poissons Ratio (y) = 0.12870 0.49952
# Poissons Ratio (z) = 0.31213 0.29393
#
# Static dielectric constant tensor:
#      x y z
#    x 1.502820 0.000000 0.000000 
#    y 0.000000 1.459590 0.000000 
#    z 0.000000 0.000000 1.521560 
# 
# From -- ./inp_files/25289.got.cif
#   From: 2010.05.17/outbox.cif.g08.bks.cpg/sg46_13_cif.got.tgz:25289.got - 2010.06.03 19:58:25.
