data_PCOD9377150
_publ_section_title
;
Structure prediction by ZEFSAII (Michael W. Deem and Ramdas Pophale) SiO2 
 PCOD9377150
Probable space group: I B A 2
;
_chemical_formula_sum "Si O2"
_cell_formula_units_Z 40
_cell_length_a 11.372339
_cell_length_b 27.444566
_cell_length_c 5.190059
_cell_angle_alpha 90.000000
_cell_angle_beta 90.000000
_cell_angle_gamma 90.000000
_cell_volume 1619.863648
_symmetry_space_group_name_H-M "I B A 2"
_symmetry_group_IT_number 45
_symmetry_cell_setting 'orthorhombic'
loop_
_space_group_symop_operation_xyz
x,y,z
-x,-y,z
-x,y,1/2+z
x,-y,1/2+z
1/2+x,1/2+y,1/2+z
1/2-x,1/2-y,1/2+z
1/2-x,1/2+y,z
1/2+x,1/2-y,z
loop_
_atom_site_type_symbol
_atom_site_label
_atom_site_fract_x
_atom_site_fract_y
_atom_site_fract_z
Si Si1 0.918003 0.447888 0.865530
Si Si2 0.808733 0.018929 0.836218
Si Si3 0.257020 0.123490 0.120661
Si Si4 0.574893 0.693972 0.355888
Si Si5 0.920535 0.304218 0.411447
O O1 0.816404 0.489244 0.868107
O O2 0.992166 0.449323 0.605294
O O3 0.849082 0.398307 0.915429
O O4 0.791969 0.074917 0.761345
O O5 0.868154 0.988963 0.608446
O O6 0.163912 0.153852 0.958515
O O7 0.322457 0.157332 0.327653
O O8 0.533457 0.689678 0.060289
O O9 0.624830 0.748589 0.390383
O O10 0.021705 0.309030 0.191848
#
# Coordination Sequence:
#
# PCOD9377150 Si02
#       5
#     8   8   8   8   8
#     4  11  23  38  60  98 141 172 205 262 335 410
#     4  10  23  38  58  91 131 167 207 256 319 399
#     4  11  24  42  71  96 131 183 229 268 337 418
#     4  10  25  46  66  92 130 175 229 290 337 379
#     4  10  23  41  63  97 131 163 214 274 334 402
#
# _framework density 24.693435000000001
#
# number of rings (size 3 to 8) (size 9 to 14) (size 15 to 20)
#    0.000    1.600    0.000    3.600    0.000   25.600 
#    0.000    0.000    0.000   14.400    0.000    0.000 
#    0.000    0.000    0.000    0.000    0.000    0.000 
#
# Total GULP energy -111984.390978 kJ/mol
# GULP energy per Si atom -5599.219549 kJ/mol
# Density = 2.463723 g / cm^3
# Si number density = 24.693435 Si / 1000 Ang^3
#
#
#
# Elastic Constant Matrix: (Units=GPa)
#
#
# Indices 1 2 3 4 5 6 
#
# 1 43.9314 42.9237 2.2778 -0.0013 -0.0006 -0.0003
# 2 42.9237 172.9739 15.4556 0.0062 -0.0118 -0.0039
# 3 2.2778 15.4556 142.5211 -0.0140 0.0069 0.0055
# 4 -0.0013 0.0062 -0.0140 45.8670 0.0063 0.0034
# 5 -0.0006 -0.0118 0.0069 0.0063 19.2688 -0.0014
# 6 -0.0003 -0.0039 0.0055 0.0034 -0.0014 35.3931
#
#
#
# Elastic Compliance Matrix: (Units=1/GPa)
#
#
# Indices 1 2 3 4 5 6 
#
# 1 0.030064 -0.007490 0.000332 0.000002 -0.000004 -0.000001
# 2 -0.007490 0.007704 -0.000716 -0.000001 0.000005 0.000001
# 3 0.000332 -0.000716 0.007089 0.000002 -0.000003 -0.000001
# 4 0.000002 -0.000001 0.000002 0.021802 -0.000007 -0.000002
# 5 -0.000004 0.000005 -0.000003 -0.000007 0.051897 0.000002
# 6 -0.000001 0.000001 -0.000001 -0.000002 0.000002 0.028254
#
#
# Mechanical properties :
#
#
# Convention : Reuss Voigt Hill
#
# Bulk Modulus (GPa) = 34.35430 53.41564 43.88497
# Shear Modulus (GPa) = 29.02576 40.02374 34.52475
#
# Velocity S-wave (km/s) = 3.43219 4.03031 3.74322
# Velocity P-wave (km/s) = 5.44510 6.58304 6.04092
#
# Compressibility (1/GPa) = 0.02910843
#
# Stress axis : x y z
#
# Youngs Moduli (GPa) = 33.26267 129.80565 141.06723
#
# Poissons Ratio (x) = 0.97224 -0.04680
# Poissons Ratio (y) = 0.24914 0.10097
# Poissons Ratio (z) = -0.01104 0.09291
#
# Static dielectric constant tensor:
#      x y z
#    x 1.999760 0.000000 0.000020 
#    y 0.000000 1.952770 0.000000 
#    z 0.000020 0.000000 2.026390 
# 
# From -- ./inp_files/98.got.cif
#   From: 2010.05.17/outbox.cif.g08.bks.cpg/sg45_1_cif.got.tgz:98.got - 2010.06.03 19:51:22.
