data_PCOD9377116
_publ_section_title
;
Structure prediction by ZEFSAII (Michael W. Deem and Ramdas Pophale) SiO2 
 PCOD9377116
Probable space group: I B A 2
;
_chemical_formula_sum "Si O2"
_cell_formula_units_Z 48
_cell_length_a 16.131401
_cell_length_b 9.454457
_cell_length_c 12.808376
_cell_angle_alpha 90.000000
_cell_angle_beta 90.000000
_cell_angle_gamma 90.000000
_cell_volume 1953.452009
_symmetry_space_group_name_H-M "I B A 2"
_symmetry_group_IT_number 45
_symmetry_cell_setting 'orthorhombic'
loop_
_space_group_symop_operation_xyz
x,y,z
-x,-y,z
-x,y,1/2+z
x,-y,1/2+z
1/2+x,1/2+y,1/2+z
1/2-x,1/2-y,1/2+z
1/2-x,1/2+y,z
1/2+x,1/2-y,z
loop_
_atom_site_type_symbol
_atom_site_label
_atom_site_fract_x
_atom_site_fract_y
_atom_site_fract_z
Si Si1 0.659440 0.010398 0.135910
Si Si2 0.237047 0.061228 0.826912
Si Si3 0.103210 0.196977 0.674407
Si Si4 0.959176 0.264983 0.382095
Si Si5 0.000000 0.000000 0.018517
Si Si6 0.000000 0.500000 0.015860
Si Si7 0.274387 0.821150 0.950874
O O1 0.650222 0.838319 0.133125
O O2 0.683450 0.052568 0.252384
O O3 0.570765 0.055092 0.092326
O O4 0.722106 0.098892 0.060849
O O5 0.165340 0.115538 0.751586
O O6 0.247907 0.159972 0.928152
O O7 0.217412 0.908028 0.871710
O O8 0.033336 0.248511 0.758169
O O9 0.063463 0.090568 0.590683
O O10 0.959641 0.116800 0.443062
O O11 0.022516 0.370650 0.439342
O O12 0.868518 0.332017 0.405923
#
# Coordination Sequence:
#
# PCOD9377116 Si02
#       7
#     8   8   8   8   4   4   8
#     4  11  23  47  72 106 150 192 256 308 383 449
#     4  11  23  46  71 104 150 190 251 311 364 458
#     4  11  25  46  71 112 147 202 250 307 389 446
#     4  10  22  46  67 106 148 187 251 303 373 450
#     4  12  24  46  78 108 152 194 250 320 376 466
#     4  10  22  44  76 106 146 194 244 320 370 452
#     4  10  25  43  68 107 143 193 246 304 374 444
#
# _framework density 24.571885999999999
#
# number of rings (size 3 to 8) (size 9 to 14) (size 15 to 20)
#    0.000    1.333    5.000    0.500    2.333    6.000 
#    0.000    0.000    0.000    0.000    0.000    0.000 
#    0.000    0.000    0.000    0.000    0.000    0.000 
#
# Total GULP energy -133981.074989 kJ/mol
# GULP energy per Si atom -5582.544791 kJ/mol
# Density = 2.451596 g / cm^3
# Si number density = 24.571886 Si / 1000 Ang^3
#
#
#
# Elastic Constant Matrix: (Units=GPa)
#
#
# Indices 1 2 3 4 5 6 
#
# 1 44.1605 14.5598 37.6450 0.0000 0.0000 0.0000
# 2 14.5598 126.2683 45.7074 0.0000 0.0000 0.0000
# 3 37.6450 45.7074 109.4475 0.0000 0.0000 0.0000
# 4 0.0000 0.0000 0.0000 53.8266 0.0000 0.0000
# 5 0.0000 0.0000 0.0000 0.0000 35.0381 0.0000
# 6 0.0000 0.0000 0.0000 0.0000 0.0000 29.9880
#
#
#
# Elastic Compliance Matrix: (Units=1/GPa)
#
#
# Indices 1 2 3 4 5 6 
#
# 1 0.032052 0.000347 -0.011169 0.000000 0.000000 0.000000
# 2 0.000347 0.009334 -0.004017 0.000000 0.000000 0.000000
# 3 -0.011169 -0.004017 0.014656 0.000000 0.000000 0.000000
# 4 0.000000 0.000000 0.000000 0.018578 0.000000 0.000000
# 5 0.000000 0.000000 0.000000 0.000000 0.028540 0.000000
# 6 0.000000 0.000000 0.000000 0.000000 0.000000 0.033347
#
#
# Mechanical properties :
#
#
# Convention : Reuss Voigt Hill
#
# Bulk Modulus (GPa) = 37.93227 52.85564 45.39396
# Shear Modulus (GPa) = 28.57576 35.90148 32.23862
#
# Velocity S-wave (km/s) = 3.41390 3.82655 3.62610
# Velocity P-wave (km/s) = 5.56870 6.40942 6.00379
#
# Compressibility (1/GPa) = 0.02636278
#
# Stress axis : x y z
#
# Youngs Moduli (GPa) = 31.19974 107.13675 68.22996
#
# Poissons Ratio (x) = -0.03721 0.76208
# Poissons Ratio (y) = -0.01084 0.27411
# Poissons Ratio (z) = 0.34848 0.43042
#
# Static dielectric constant tensor:
#      x y z
#    x 2.020100 0.000000 0.000000 
#    y 0.000000 1.952050 0.000000 
#    z 0.000000 0.000000 1.946460 
# 
# From -- ./inp_files/5632.got.cif
#   From: 2010.05.17/outbox.cif.g08.bks.cpg/sg45_3_cif.got.tgz:5632.got - 2010.06.03 19:51:22.
