data_PCOD9377050
_publ_section_title
;
Structure prediction by ZEFSAII (Michael W. Deem and Ramdas Pophale) SiO2 
 PCOD9377050
Probable space group: I B A 2
;
_chemical_formula_sum "Si O2"
_cell_formula_units_Z 60
_cell_length_a 10.469059
_cell_length_b 12.222982
_cell_length_c 22.701002
_cell_angle_alpha 90.000000
_cell_angle_beta 90.000000
_cell_angle_gamma 90.000000
_cell_volume 2904.891037
_symmetry_space_group_name_H-M "I B A 2"
_symmetry_group_IT_number 45
_symmetry_cell_setting 'orthorhombic'
loop_
_space_group_symop_operation_xyz
x,y,z
-x,-y,z
-x,y,1/2+z
x,-y,1/2+z
1/2+x,1/2+y,1/2+z
1/2-x,1/2-y,1/2+z
1/2-x,1/2+y,z
1/2+x,1/2-y,z
loop_
_atom_site_type_symbol
_atom_site_label
_atom_site_fract_x
_atom_site_fract_y
_atom_site_fract_z
Si Si1 0.365812 0.470659 0.342000
Si Si2 0.905843 0.898402 0.153234
Si Si3 0.780606 0.044811 0.531215
Si Si4 0.119149 0.790078 0.432419
Si Si5 0.469345 0.846158 0.179986
Si Si6 0.000000 0.500000 0.069992
Si Si7 0.347904 0.636196 0.451142
Si Si8 0.807986 0.518644 0.737714
O O1 0.500000 0.500000 0.309840
O O2 0.367304 0.348443 0.368715
O O3 0.369483 0.550537 0.398386
O O4 0.242080 0.494922 0.302939
O O5 0.828046 0.901867 0.091814
O O6 0.967791 0.782592 0.170160
O O7 0.807060 0.925651 0.204035
O O8 0.000000 0.000000 0.148965
O O9 0.819551 0.127377 0.479966
O O10 0.629994 0.019467 0.534733
O O11 0.847950 0.930385 0.512521
O O12 0.209426 0.686454 0.439119
O O13 0.968467 0.781724 0.447316
O O14 0.575584 0.897842 0.224049
O O15 0.486242 0.899052 0.115434
O O16 0.342259 0.902937 0.206446
#
# Coordination Sequence:
#
# PCOD9377050 Si02
#       8
#     8   8   8   8   8   4   8   8
#     4   9  20  45  67  92 132 168 223 278 340 411
#     4  12  25  39  67  97 130 181 226 275 350 414
#     4  11  23  40  64  92 132 176 223 277 347 411
#     4  10  23  42  66  94 135 173 222 282 343 411
#     4  10  24  44  62  96 141 169 228 281 339 414
#     4  10  22  42  62  96 134 176 220 292 334 410
#     4  10  23  43  63  99 132 174 228 279 343 417
#     4  10  22  45  64  96 132 177 219 288 338 409
#
# _framework density 20.654817999999999
#
# number of rings (size 3 to 8) (size 9 to 14) (size 15 to 20)
#    0.000    1.867    2.667    2.400    5.600    2.133 
#    9.600    0.000    0.000    0.000    0.000    0.000 
#    0.000    0.000    0.000    0.000    0.000    0.000 
#
# Total GULP energy -167328.178090 kJ/mol
# GULP energy per Si atom -5577.605936 kJ/mol
# Density = 2.060781 g / cm^3
# Si number density = 20.654818 Si / 1000 Ang^3
#
#
#
# Elastic Constant Matrix: (Units=GPa)
#
#
# Indices 1 2 3 4 5 6 
#
# 1 63.3330 17.2266 8.2995 0.0000 0.0000 0.0000
# 2 17.2266 84.2154 10.8745 0.0000 0.0000 0.0000
# 3 8.2995 10.8745 56.4468 0.0000 0.0000 0.0000
# 4 0.0000 0.0000 0.0000 6.3142 0.0000 0.0000
# 5 0.0000 0.0000 0.0000 0.0000 35.1410 0.0000
# 6 0.0000 0.0000 0.0000 0.0000 0.0000 20.8698
#
#
#
# Elastic Compliance Matrix: (Units=1/GPa)
#
#
# Indices 1 2 3 4 5 6 
#
# 1 0.016909 -0.003218 -0.001866 0.000000 0.000000 0.000000
# 2 -0.003218 0.012790 -0.001991 0.000000 0.000000 0.000000
# 3 -0.001866 -0.001991 0.018374 0.000000 0.000000 0.000000
# 4 0.000000 0.000000 0.000000 0.158374 0.000000 0.000000
# 5 0.000000 0.000000 0.000000 0.000000 0.028457 0.000000
# 6 0.000000 0.000000 0.000000 0.000000 0.000000 0.047916
#
#
# Mechanical properties :
#
#
# Convention : Reuss Voigt Hill
#
# Bulk Modulus (GPa) = 29.47873 30.75516 30.11694
# Shear Modulus (GPa) = 16.21915 23.63797 19.92856
#
# Velocity S-wave (km/s) = 2.80527 3.38661 3.10955
# Velocity P-wave (km/s) = 4.97953 5.49678 5.24454
#
# Compressibility (1/GPa) = 0.03392277
#
# Stress axis : x y z
#
# Youngs Moduli (GPa) = 59.13875 78.18845 54.42551
#
# Poissons Ratio (x) = 0.25160 0.10157
# Poissons Ratio (y) = 0.19030 0.10835
# Poissons Ratio (z) = 0.11037 0.15566
#
# Static dielectric constant tensor:
#      x y z
#    x 1.757380 0.000000 0.000000 
#    y 0.000000 1.758010 0.000000 
#    z 0.000000 0.000000 1.748260 
# 
# From -- ./inp_files/9089.got.cif
#   From: 2010.05.17/outbox.cif.g08.bks.cpg/sg45_5_cif.got.tgz:9089.got - 2010.06.03 19:51:22.
