data_PCOD9377595
_publ_section_title
;
Structure prediction by ZEFSAII (Michael W. Deem and Ramdas Pophale) SiO2 
 PCOD9377595
Probable space group: I B A 2
;
_chemical_formula_sum "Si O2"
_cell_formula_units_Z 48
_cell_length_a 11.980521
_cell_length_b 19.915112
_cell_length_c 8.639152
_cell_angle_alpha 90.000000
_cell_angle_beta 90.000000
_cell_angle_gamma 90.000000
_cell_volume 2061.244800
_symmetry_space_group_name_H-M "I B A 2"
_symmetry_group_IT_number 45
_symmetry_cell_setting 'orthorhombic'
loop_
_space_group_symop_operation_xyz
x,y,z
-x,-y,z
-x,y,1/2+z
x,-y,1/2+z
1/2+x,1/2+y,1/2+z
1/2-x,1/2-y,1/2+z
1/2-x,1/2+y,z
1/2+x,1/2-y,z
loop_
_atom_site_type_symbol
_atom_site_label
_atom_site_fract_x
_atom_site_fract_y
_atom_site_fract_z
Si Si1 0.874998 0.009872 0.406590
Si Si2 0.033162 0.422580 0.843579
Si Si3 0.876495 0.650952 0.137605
Si Si4 0.412206 0.301109 0.543733
Si Si5 0.878466 0.143434 0.210762
Si Si6 0.738210 0.411938 0.178699
O O1 0.885852 0.068089 0.277178
O O2 0.792228 0.039213 0.535623
O O3 0.826156 0.944017 0.325513
O O4 0.000000 0.000000 0.469356
O O5 0.132234 0.410560 0.719705
O O6 0.000000 0.500000 0.843585
O O7 0.928002 0.376948 0.796418
O O8 0.082224 0.399999 0.006732
O O9 0.919024 0.724847 0.096637
O O10 0.743667 0.653156 0.142986
O O11 0.524588 0.339880 0.591083
O O12 0.393390 0.309136 0.361123
O O13 0.312770 0.340313 0.632062
#
# Coordination Sequence:
#
# PCOD9377595 Si02
#       6
#     8   8   8   8   8   8
#     4  11  23  44  73 112 150 192 250 313 394 448
#     4  12  30  52  76 113 153 208 270 319 391 469
#     4  12  30  50  80 107 156 207 256 324 388 466
#     4  11  27  48  77 113 155 198 266 311 401 463
#     4  11  27  48  74 113 151 200 251 321 381 465
#     4  11  27  43  76 108 153 197 249 325 376 469
#
# _framework density 23.286898999999998
#
# number of rings (size 3 to 8) (size 9 to 14) (size 15 to 20)
#    0.000    0.667    1.667    3.000   21.000    0.000 
#    0.000    0.000    0.000    0.000    0.000    0.000 
#    0.000    0.000    0.000    0.000    0.000    0.000 
#
# Total GULP energy -134669.716146 kJ/mol
# GULP energy per Si atom -5611.238173 kJ/mol
# Density = 2.323390 g / cm^3
# Si number density = 23.286899 Si / 1000 Ang^3
#
#
#
# Elastic Constant Matrix: (Units=GPa)
#
#
# Indices 1 2 3 4 5 6 
#
# 1 123.1495 11.9053 29.6817 0.0005 0.0000 0.0000
# 2 11.9053 82.4768 5.9703 0.0012 0.0000 0.0005
# 3 29.6817 5.9703 61.3508 0.0009 0.0000 0.0005
# 4 0.0005 0.0012 0.0009 15.4487 0.0000 0.0001
# 5 0.0000 0.0000 0.0000 0.0000 38.5280 0.0001
# 6 0.0000 0.0005 0.0005 0.0001 0.0001 6.4003
#
#
#
# Elastic Compliance Matrix: (Units=1/GPa)
#
#
# Indices 1 2 3 4 5 6 
#
# 1 0.009277 -0.001021 -0.004389 0.000000 0.000000 0.000000
# 2 -0.001021 0.012323 -0.000705 -0.000001 0.000000 -0.000001
# 3 -0.004389 -0.000705 0.018492 -0.000001 0.000000 -0.000001
# 4 0.000000 -0.000001 -0.000001 0.064731 0.000000 -0.000001
# 5 0.000000 0.000000 0.000000 0.000000 0.025955 0.000000
# 6 0.000000 -0.000001 -0.000001 -0.000001 0.000000 0.156243
#
#
# Mechanical properties :
#
#
# Convention : Reuss Voigt Hill
#
# Bulk Modulus (GPa) = 35.89232 40.23240 38.06236
# Shear Modulus (GPa) = 16.20546 26.70337 21.45441
#
# Velocity S-wave (km/s) = 2.64086 3.38999 3.03860
# Velocity P-wave (km/s) = 4.97448 5.71288 5.35642
#
# Compressibility (1/GPa) = 0.02786111
#
# Stress axis : x y z
#
# Youngs Moduli (GPa) = 107.79665 81.14844 54.07861
#
# Poissons Ratio (x) = 0.08288 0.23734
# Poissons Ratio (y) = 0.11010 0.03813
# Poissons Ratio (z) = 0.47309 0.05721
#
# Static dielectric constant tensor:
#      x y z
#    x 1.861920 0.000000 0.000000 
#    y 0.000000 1.834900 0.000000 
#    z 0.000000 0.000000 1.911580 
# 
# From -- ./inp_files/1360.got.cif
#   From: 2010.05.17/outbox.cif.g08.bks.cpg/sg45_1_cif.got.tgz:1360.got - 2010.06.03 19:51:22.
