data_PCOD9377780
_publ_section_title
;
Structure prediction by ZEFSAII (Michael W. Deem and Ramdas Pophale) SiO2 
 PCOD9377780
Probable space group: I M A 2
;
_chemical_formula_sum "Si O2"
_cell_formula_units_Z 48
_cell_length_a 25.320884
_cell_length_b 26.732658
_cell_length_c 5.364266
_cell_angle_alpha 90.000000
_cell_angle_beta 90.000000
_cell_angle_gamma 90.000000
_cell_volume 3631.042325
_symmetry_space_group_name_H-M "I M A 2"
_symmetry_group_IT_number 46
_symmetry_cell_setting 'orthorhombic'
loop_
_space_group_symop_operation_xyz
x,y,z
-x,-y,z
1/2-x,y,z
1/2+x,-y,z
1/2+x,1/2+y,1/2+z
1/2-x,1/2-y,1/2+z
-x,1/2+y,1/2+z
x,1/2-y,1/2+z
loop_
_atom_site_type_symbol
_atom_site_label
_atom_site_fract_x
_atom_site_fract_y
_atom_site_fract_z
Si Si1 0.911248 0.387345 0.190850
Si Si2 0.750000 0.340887 0.214011
Si Si3 0.366682 0.938474 0.190923
Si Si4 0.139152 0.717548 0.210568
Si Si5 0.250000 0.591357 0.713945
Si Si6 0.055921 0.030556 0.236456
Si Si7 0.521216 0.557751 0.236476
O O1 0.882889 0.411622 0.432539
O O2 0.901799 0.328373 0.203790
O O3 0.971275 0.406514 0.201968
O O4 0.886570 0.407462 0.932216
O O5 0.802566 0.307367 0.207916
O O6 0.750000 0.372629 0.470515
O O7 0.750000 0.375996 0.968415
O O8 0.303650 0.940325 0.205204
O O9 0.397654 0.990770 0.201856
O O10 0.133499 0.748857 0.464198
O O11 0.058585 0.058949 0.497280
O O12 0.050184 0.065545 0.997268
O O13 0.000000 0.000000 0.251055
O O14 0.500000 0.500000 0.251092
#
# Coordination Sequence:
#
# PCOD9377780 Si02
#       7
#     8   4   8   8   4   8   8
#     4  12  20  32  50  61  83 106 133 182 229 255
#     4  12  22  37  50  56  72 108 154 206 228 247
#     4  12  19  31  45  64  87 108 134 174 222 264
#     4  12  24  37  46  60  78 109 151 191 229 263
#     4  12  22  33  46  66  84 112 148 178 232 271
#     4  10  16  26  45  66  86 101 123 164 218 254
#     4  10  16  28  45  71  83  96 123 165 225 258
#
# _framework density 13.219345000000001
#
# number of rings (size 3 to 8) (size 9 to 14) (size 15 to 20)
#    0.000    0.667   10.000    2.500    0.000    0.000 
#    0.000    0.000    0.000    0.000    0.000    0.000 
#    0.000    0.000    0.000    0.000    0.000    0.000 
#
# Total GULP energy -133860.307470 kJ/mol
# GULP energy per Si atom -5577.512811 kJ/mol
# Density = 1.318926 g / cm^3
# Si number density = 13.219345 Si / 1000 Ang^3
#
#
#
# Elastic Constant Matrix: (Units=GPa)
#
#
# Indices 1 2 3 4 5 6 
#
# 1 40.9040 29.3220 -10.5266 0.0000 0.0000 0.0000
# 2 29.3220 38.8211 -10.0825 0.0000 0.0000 0.0000
# 3 -10.5266 -10.0825 68.4147 0.0000 0.0000 0.0000
# 4 0.0000 0.0000 0.0000 15.8289 0.0000 0.0000
# 5 0.0000 0.0000 0.0000 0.0000 9.3574 0.0000
# 6 0.0000 0.0000 0.0000 0.0000 0.0000 19.7698
#
#
#
# Elastic Compliance Matrix: (Units=1/GPa)
#
#
# Indices 1 2 3 4 5 6 
#
# 1 0.053683 -0.039930 0.002375 0.000000 0.000000 0.000000
# 2 -0.039930 0.056485 0.002181 0.000000 0.000000 0.000000
# 3 0.002375 0.002181 0.015304 0.000000 0.000000 0.000000
# 4 0.000000 0.000000 0.000000 0.063175 0.000000 0.000000
# 5 0.000000 0.000000 0.000000 0.000000 0.106867 0.000000
# 6 0.000000 0.000000 0.000000 0.000000 0.000000 0.050582
#
#
# Mechanical properties :
#
#
# Convention : Reuss Voigt Hill
#
# Bulk Modulus (GPa) = 18.27399 18.39619 18.33509
# Shear Modulus (GPa) = 11.49197 18.28635 14.88916
#
# Velocity S-wave (km/s) = 2.95164 3.72331 3.35970
# Velocity P-wave (km/s) = 5.04677 5.69477 5.38053
#
# Compressibility (1/GPa) = 0.05472259
#
# Stress axis : x y z
#
# Youngs Moduli (GPa) = 18.62799 17.70371 65.34431
#
# Poissons Ratio (x) = 0.70691 -0.15520
# Poissons Ratio (y) = 0.74382 -0.14249
# Poissons Ratio (z) = -0.04424 -0.03861
#
# Static dielectric constant tensor:
#      x y z
#    x 1.415490 0.000000 0.000000 
#    y 0.000000 1.430640 0.000000 
#    z 0.000000 0.000000 1.506900 
# 
# From -- ./inp_files/1762.got.cif
#   From: 2010.05.17/outbox.cif.g08.bks.cpg/sg46_1_cif.got.tgz:1762.got - 2010.06.03 19:58:25.
