data_PCOD9377935
_publ_section_title
;
Structure prediction by ZEFSAII (Michael W. Deem and Ramdas Pophale) SiO2 
 PCOD9377935
Probable space group: I M A 2
;
_chemical_formula_sum "Si O2"
_cell_formula_units_Z 40
_cell_length_a 15.339799
_cell_length_b 12.613654
_cell_length_c 10.288042
_cell_angle_alpha 90.000000
_cell_angle_beta 90.000000
_cell_angle_gamma 90.000000
_cell_volume 1990.642681
_symmetry_space_group_name_H-M "I M A 2"
_symmetry_group_IT_number 46
_symmetry_cell_setting 'orthorhombic'
loop_
_space_group_symop_operation_xyz
x,y,z
-x,-y,z
1/2-x,y,z
1/2+x,-y,z
1/2+x,1/2+y,1/2+z
1/2-x,1/2-y,1/2+z
-x,1/2+y,1/2+z
x,1/2-y,1/2+z
loop_
_atom_site_type_symbol
_atom_site_label
_atom_site_fract_x
_atom_site_fract_y
_atom_site_fract_z
Si Si1 0.850051 0.474317 0.483620
Si Si2 0.250000 0.172262 0.061596
Si Si3 0.098984 0.519337 0.916517
Si Si4 0.750000 0.856031 0.352409
Si Si5 0.145284 0.678514 0.709217
Si Si6 0.643996 0.077177 0.699796
O O1 0.750000 0.432187 0.466527
O O2 0.832128 0.593949 0.531735
O O3 0.889506 0.400199 0.595855
O O4 0.886820 0.468134 0.338727
O O5 0.250000 0.200115 0.212641
O O6 0.250000 0.271488 0.967461
O O7 0.166224 0.432456 0.862342
O O8 0.124049 0.630407 0.849768
O O9 0.000000 0.500000 0.879600
O O10 0.108670 0.521488 0.071491
O O11 0.250000 0.677165 0.701002
O O12 0.117654 0.799357 0.694479
O O13 0.750000 0.069370 0.691112
#
# Coordination Sequence:
#
# PCOD9377935 Si02
#       6
#     8   4   8   4   8   8
#     4   8  16  33  55  91 119 149 209 250 302 371
#     4  10  22  38  67  93 114 174 213 247 317 374
#     4  12  24  42  62  94 130 165 207 256 314 374
#     4  12  24  46  67  87 128 170 211 263 305 380
#     4  10  17  37  64  90 122 157 206 254 322 367
#     4  10  19  33  65  93 120 162 201 260 312 370
#
# _framework density 20.094014000000001
#
# number of rings (size 3 to 8) (size 9 to 14) (size 15 to 20)
#    0.600    1.200    4.000    1.200    2.800    3.200 
#    3.600    1.000    0.000    0.000    0.000    0.000 
#    0.000    0.000    0.000    0.000    0.000    0.000 
#
# Total GULP energy -111507.172487 kJ/mol
# GULP energy per Si atom -5575.358624 kJ/mol
# Density = 2.004828 g / cm^3
# Si number density = 20.094014 Si / 1000 Ang^3
#
#
#
# Elastic Constant Matrix: (Units=GPa)
#
#
# Indices 1 2 3 4 5 6 
#
# 1 48.6317 22.6021 11.9460 0.0000 0.0000 0.0000
# 2 22.6021 45.7909 7.8466 0.0000 0.0000 0.0000
# 3 11.9460 7.8466 123.5797 0.0000 0.0000 0.0000
# 4 0.0000 0.0000 0.0000 43.1763 0.0000 0.0000
# 5 0.0000 0.0000 0.0000 0.0000 -33.3567 0.0000
# 6 0.0000 0.0000 0.0000 0.0000 0.0000 -4.8900
#
#
#
# Elastic Compliance Matrix: (Units=1/GPa)
#
#
# Indices 1 2 3 4 5 6 
#
# 1 0.027069 -0.013055 -0.001788 0.000000 0.000000 0.000000
# 2 -0.013055 0.028375 -0.000540 0.000000 0.000000 0.000000
# 3 -0.001788 -0.000540 0.008299 0.000000 0.000000 0.000000
# 4 0.000000 0.000000 0.000000 0.023161 0.000000 0.000000
# 5 0.000000 0.000000 0.000000 0.000000 -0.029979 0.000000
# 6 0.000000 0.000000 0.000000 0.000000 0.000000 -0.204499
#
#
# Mechanical properties :
#
#
# Convention : Reuss Voigt Hill
#
# Bulk Modulus (GPa) = 30.32293 33.64353 31.98323
# Shear Modulus (GPa) = -47.25133 12.69310 -17.27911
#
# Velocity S-wave (km/s) = -4.85450 2.51606 -2.93561
# Velocity P-wave (km/s) = 4.03711 5.02197 2.11209
#
# Compressibility (1/GPa) = 0.03297834
#
# Stress axis : x y z
#
# Youngs Moduli (GPa) = 36.94227 35.24265 120.49608
#
# Poissons Ratio (x) = 0.46009 0.21542
# Poissons Ratio (y) = 0.48228 0.06503
# Poissons Ratio (z) = 0.06604 0.01902
#
# Static dielectric constant tensor:
#      x y z
#    x 1.744760 0.000000 0.000000 
#    y 0.000000 1.688390 0.000000 
#    z 0.000000 0.000000 1.733560 
# 
# From -- ./inp_files/5470.got.cif
#   From: 2010.05.17/outbox.cif.g08.bks.cpg/sg46_3_cif.got.tgz:5470.got - 2010.06.03 19:58:25.
