data_PCOD9377044
_publ_section_title
;
Structure prediction by ZEFSAII (Michael W. Deem and Ramdas Pophale) SiO2 
 PCOD9377044
Probable space group: I B A 2
;
_chemical_formula_sum "Si O2"
_cell_formula_units_Z 44
_cell_length_a 13.245518
_cell_length_b 16.416183
_cell_length_c 9.036405
_cell_angle_alpha 90.000000
_cell_angle_beta 90.000000
_cell_angle_gamma 90.000000
_cell_volume 1964.883561
_symmetry_space_group_name_H-M "I B A 2"
_symmetry_group_IT_number 45
_symmetry_cell_setting 'orthorhombic'
loop_
_space_group_symop_operation_xyz
x,y,z
-x,-y,z
-x,y,1/2+z
x,-y,1/2+z
1/2+x,1/2+y,1/2+z
1/2-x,1/2-y,1/2+z
1/2-x,1/2+y,z
1/2+x,1/2-y,z
loop_
_atom_site_type_symbol
_atom_site_label
_atom_site_fract_x
_atom_site_fract_y
_atom_site_fract_z
Si Si1 0.000000 0.000000 0.400340
Si Si2 0.447282 0.129059 0.764229
Si Si3 0.291715 0.538709 0.558465
Si Si4 0.414583 0.347161 0.243952
Si Si5 0.840342 0.455102 0.276326
Si Si6 0.971842 0.261026 0.502775
O O1 0.985415 0.080001 0.301946
O O2 0.100851 0.010541 0.495259
O O3 0.565595 0.103532 0.748628
O O4 0.418963 0.175373 0.613684
O O5 0.388338 0.045787 0.791862
O O6 0.447687 0.189951 0.902202
O O7 0.316262 0.609013 0.677820
O O8 0.222406 0.565435 0.422164
O O9 0.236038 0.464744 0.640681
O O10 0.470213 0.300545 0.111246
O O11 0.403335 0.287218 0.384293
#
# Coordination Sequence:
#
# PCOD9377044 Si02
#       6
#     4   8   8   8   8   8
#     4  12  24  42  70  92 140 176 234 278 330 414
#     4  10  22  47  71 100 138 188 226 294 349 409
#     4  12  24  39  69 107 131 174 237 292 338 408
#     4  11  23  40  67 101 131 187 221 282 348 414
#     4  11  24  42  75 104 135 177 247 288 339 414
#     4  10  22  41  72  94 142 185 223 274 370 416
#
# _framework density 22.393184000000002
#
# number of rings (size 3 to 8) (size 9 to 14) (size 15 to 20)
#    0.000    1.091    3.636    2.727    0.000    2.909 
#    0.000    5.455   20.000    0.000    0.000    0.000 
#    0.000    0.000    0.000    0.000    0.000    0.000 
#
# Total GULP energy -123071.626318 kJ/mol
# GULP energy per Si atom -5594.164833 kJ/mol
# Density = 2.234222 g / cm^3
# Si number density = 22.393184 Si / 1000 Ang^3
#
#
#
# Elastic Constant Matrix: (Units=GPa)
#
#
# Indices 1 2 3 4 5 6 
#
# 1 119.5951 31.0910 48.6558 0.0000 0.0000 0.0000
# 2 31.0910 99.5034 47.3830 0.0000 0.0000 0.0000
# 3 48.6558 47.3830 140.5318 0.0000 0.0000 0.0000
# 4 0.0000 0.0000 0.0000 50.7774 0.0000 0.0000
# 5 0.0000 0.0000 0.0000 0.0000 37.1793 0.0000
# 6 0.0000 0.0000 0.0000 0.0000 0.0000 24.9794
#
#
#
# Elastic Compliance Matrix: (Units=1/GPa)
#
#
# Indices 1 2 3 4 5 6 
#
# 1 0.009983 -0.001755 -0.002865 0.000000 0.000000 0.000000
# 2 -0.001755 0.012281 -0.003533 0.000000 0.000000 0.000000
# 3 -0.002865 -0.003533 0.009299 0.000000 0.000000 0.000000
# 4 0.000000 0.000000 0.000000 0.019694 0.000000 0.000000
# 5 0.000000 0.000000 0.000000 0.000000 0.026897 0.000000
# 6 0.000000 0.000000 0.000000 0.000000 0.000000 0.040033
#
#
# Mechanical properties :
#
#
# Convention : Reuss Voigt Hill
#
# Bulk Modulus (GPa) = 65.54321 68.21002 66.87661
# Shear Modulus (GPa) = 35.82229 38.08725 36.95477
#
# Velocity S-wave (km/s) = 4.00396 4.12860 4.06676
# Velocity P-wave (km/s) = 7.12098 7.29749 7.20978
#
# Compressibility (1/GPa) = 0.01525711
#
# Stress axis : x y z
#
# Youngs Moduli (GPa) = 100.16714 81.42829 107.54006
#
# Poissons Ratio (x) = 0.14293 0.30807
# Poissons Ratio (y) = 0.17582 0.37994
# Poissons Ratio (z) = 0.28695 0.28768
#
# Static dielectric constant tensor:
#      x y z
#    x 1.808180 0.000000 0.000000 
#    y 0.000000 1.842500 0.000000 
#    z 0.000000 0.000000 1.846730 
# 
# From -- ./inp_files/1680.got.cif
#   From: 2010.05.17/outbox.cif.g08.bks.cpg/sg45_1_cif.got.tgz:1680.got - 2010.06.03 19:51:22.
