data_PCOD9377299
_publ_section_title
;
Structure prediction by ZEFSAII (Michael W. Deem and Ramdas Pophale) SiO2 
 PCOD9377299
Probable space group: I B A 2
;
_chemical_formula_sum "Si O2"
_cell_formula_units_Z 40
_cell_length_a 10.979490
_cell_length_b 8.666941
_cell_length_c 17.889509
_cell_angle_alpha 90.000000
_cell_angle_beta 90.000000
_cell_angle_gamma 90.000000
_cell_volume 1702.340489
_symmetry_space_group_name_H-M "I B A 2"
_symmetry_group_IT_number 45
_symmetry_cell_setting 'orthorhombic'
loop_
_space_group_symop_operation_xyz
x,y,z
-x,-y,z
-x,y,1/2+z
x,-y,1/2+z
1/2+x,1/2+y,1/2+z
1/2-x,1/2-y,1/2+z
1/2-x,1/2+y,z
1/2+x,1/2-y,z
loop_
_atom_site_type_symbol
_atom_site_label
_atom_site_fract_x
_atom_site_fract_y
_atom_site_fract_z
Si Si1 0.104916 0.381002 0.620040
Si Si2 0.549713 0.664325 0.703092
Si Si3 0.379465 0.294666 0.427064
Si Si4 0.283118 0.176300 0.582040
Si Si5 0.135011 0.854690 0.872231
O O1 0.146146 0.236984 0.570752
O O2 0.215294 0.499151 0.605718
O O3 0.000000 0.500000 0.597412
O O4 0.057352 0.295669 0.695086
O O5 0.500000 0.500000 0.675209
O O6 0.654449 0.741976 0.653355
O O7 0.601328 0.631121 0.784999
O O8 0.356187 0.229591 0.509633
O O9 0.267475 0.220054 0.381142
O O10 0.518343 0.259932 0.403368
O O11 0.364488 0.479014 0.413706
#
# Coordination Sequence:
#
# PCOD9377299 Si02
#       5
#     8   8   8   8   8
#     4  10  24  42  69 111 144 194 267 319 398 453
#     4  11  24  45  74 106 154 200 261 321 387 481
#     4  11  26  49  76 110 157 203 263 322 403 475
#     4  11  24  43  77 104 152 201 265 331 389 472
#     4  11  27  49  72 114 157 206 257 318 409 476
#
# _framework density 23.497062
#
# number of rings (size 3 to 8) (size 9 to 14) (size 15 to 20)
#    0.000    1.200    2.000    2.400   11.200    4.000 
#    3.600    0.000    0.000    0.000    0.000    0.000 
#    0.000    0.000    0.000    0.000    0.000    0.000 
#
# Total GULP energy -111447.448602 kJ/mol
# GULP energy per Si atom -5572.372430 kJ/mol
# Density = 2.344358 g / cm^3
# Si number density = 23.497062 Si / 1000 Ang^3
#
#
#
# Elastic Constant Matrix: (Units=GPa)
#
#
# Indices 1 2 3 4 5 6 
#
# 1 76.6980 48.2447 8.3162 0.0000 0.0000 0.0000
# 2 48.2447 132.6540 39.2483 0.0000 0.0000 0.0000
# 3 8.3162 39.2483 91.6849 0.0000 0.0000 0.0000
# 4 0.0000 0.0000 0.0000 20.4560 0.0000 0.0000
# 5 0.0000 0.0000 0.0000 0.0000 31.3276 0.0000
# 6 0.0000 0.0000 0.0000 0.0000 0.0000 53.5805
#
#
#
# Elastic Compliance Matrix: (Units=1/GPa)
#
#
# Indices 1 2 3 4 5 6 
#
# 1 0.017033 -0.006570 0.001267 0.000000 0.000000 0.000000
# 2 -0.006570 0.011166 -0.004184 0.000000 0.000000 0.000000
# 3 0.001267 -0.004184 0.012583 0.000000 0.000000 0.000000
# 4 0.000000 0.000000 0.000000 0.048885 0.000000 0.000000
# 5 0.000000 0.000000 0.000000 0.000000 0.031921 0.000000
# 6 0.000000 0.000000 0.000000 0.000000 0.000000 0.018663
#
#
# Mechanical properties :
#
#
# Convention : Reuss Voigt Hill
#
# Bulk Modulus (GPa) = 45.85180 54.73947 50.29563
# Shear Modulus (GPa) = 30.03115 34.75468 32.39292
#
# Velocity S-wave (km/s) = 3.57890 3.85009 3.71697
# Velocity P-wave (km/s) = 6.05263 6.56591 6.31448
#
# Compressibility (1/GPa) = 0.02180940
#
# Stress axis : x y z
#
# Youngs Moduli (GPa) = 58.70866 89.56049 79.47238
#
# Poissons Ratio (x) = 0.58839 -0.10072
# Poissons Ratio (y) = 0.38570 0.33250
# Poissons Ratio (z) = -0.07441 0.37471
#
# Static dielectric constant tensor:
#      x y z
#    x 2.162850 0.000000 0.000000 
#    y 0.000000 1.871550 0.000000 
#    z 0.000000 0.000000 1.864960 
# 
# From -- ./inp_files/7423.got.cif
#   From: 2010.05.17/outbox.cif.g08.bks.cpg/sg45_4_cif.got.tgz:7423.got - 2010.06.03 19:51:22.
