data_PCOD9377099
_publ_section_title
;
Structure prediction by ZEFSAII (Michael W. Deem and Ramdas Pophale) SiO2 
 PCOD9377099
Probable space group: I B A 2
;
_chemical_formula_sum "Si O2"
_cell_formula_units_Z 64
_cell_length_a 11.990484
_cell_length_b 14.701085
_cell_length_c 16.928219
_cell_angle_alpha 90.000000
_cell_angle_beta 90.000000
_cell_angle_gamma 90.000000
_cell_volume 2983.990055
_symmetry_space_group_name_H-M "I B A 2"
_symmetry_group_IT_number 45
_symmetry_cell_setting 'orthorhombic'
loop_
_space_group_symop_operation_xyz
x,y,z
-x,-y,z
-x,y,1/2+z
x,-y,1/2+z
1/2+x,1/2+y,1/2+z
1/2-x,1/2-y,1/2+z
1/2-x,1/2+y,z
1/2+x,1/2-y,z
loop_
_atom_site_type_symbol
_atom_site_label
_atom_site_fract_x
_atom_site_fract_y
_atom_site_fract_z
Si Si1 0.877454 0.476864 0.667180
Si Si2 0.473120 0.393002 0.916072
Si Si3 0.765511 0.196658 0.176166
Si Si4 0.622546 0.976862 0.351690
Si Si5 0.715110 0.628492 0.600238
Si Si6 0.765511 0.803341 0.342704
Si Si7 0.526881 0.606998 0.102796
Si Si8 0.215110 0.128491 0.918630
O O1 0.836266 0.372962 0.659702
O O2 0.883092 0.500002 0.759435
O O3 0.783384 0.545040 0.635207
O O4 0.000000 0.500000 0.632733
O O5 0.500000 0.500000 0.913347
O O6 0.375367 0.363980 0.857048
O O7 0.590698 0.351633 0.887754
O O8 0.448262 0.371123 0.009434
O O9 0.778461 0.277882 0.113753
O O10 0.750000 0.250000 0.259434
O O11 0.875367 0.136020 0.161821
O O12 0.663734 0.872960 0.359169
O O13 0.500000 0.000000 0.386136
O O14 0.716617 0.045039 0.383661
O O15 0.590697 0.648367 0.631115
O O16 0.699072 0.606285 0.509434
O O17 0.778462 0.722116 0.405115
O O18 0.500000 0.500000 0.105521
#
# Coordination Sequence:
#
# PCOD9377099 Si02
#       8
#     8   8   8   8   8   8   8   8
#     4  11  25  46  67  98 144 185 228 284 350 426
#     4  10  22  43  70  98 138 183 233 292 346 416
#     4  12  25  43  70 103 139 183 230 289 349 424
#     4  11  25  46  67  98 144 185 228 284 350 426
#     4  11  25  44  69 103 137 183 237 289 355 422
#     4  12  25  43  70 103 139 183 230 289 349 424
#     4  10  22  43  70  98 138 183 233 292 346 416
#     4  11  25  44  69 103 137 183 237 289 355 422
#
# _framework density 21.447792
#
# number of rings (size 3 to 8) (size 9 to 14) (size 15 to 20)
#    0.000    1.000    5.000    0.750    3.500    2.500 
#    0.000    2.500    0.000    0.000    0.000    0.000 
#    0.000    0.000    0.000    0.000    0.000    0.000 
#
# Total GULP energy -178556.576047 kJ/mol
# GULP energy per Si atom -5579.893001 kJ/mol
# Density = 2.139898 g / cm^3
# Si number density = 21.447792 Si / 1000 Ang^3
#
#
#
# Elastic Constant Matrix: (Units=GPa)
#
#
# Indices 1 2 3 4 5 6 
#
# 1 130.0381 44.3855 49.4833 0.0000 0.0000 0.0000
# 2 44.3855 136.5997 20.6469 0.0000 0.0000 0.0000
# 3 49.4833 20.6469 56.2698 0.0000 0.0000 0.0000
# 4 0.0000 0.0000 0.0000 18.0035 0.0000 0.0000
# 5 0.0000 0.0000 0.0000 0.0000 30.0005 0.0000
# 6 0.0000 0.0000 0.0000 0.0000 0.0000 30.3585
#
#
#
# Elastic Compliance Matrix: (Units=1/GPa)
#
#
# Indices 1 2 3 4 5 6 
#
# 1 0.012317 -0.002504 -0.009912 0.000000 0.000000 0.000000
# 2 -0.002504 0.008259 -0.000829 0.000000 0.000000 0.000000
# 3 -0.009912 -0.000829 0.026793 0.000000 0.000000 0.000000
# 4 0.000000 0.000000 0.000000 0.055545 0.000000 0.000000
# 5 0.000000 0.000000 0.000000 0.000000 0.033333 0.000000
# 6 0.000000 0.000000 0.000000 0.000000 0.000000 0.032940
#
#
# Mechanical properties :
#
#
# Convention : Reuss Voigt Hill
#
# Bulk Modulus (GPa) = 47.89598 61.32654 54.61126
# Shear Modulus (GPa) = 24.67483 29.56530 27.12006
#
# Velocity S-wave (km/s) = 3.39552 3.71681 3.55979
# Velocity P-wave (km/s) = 6.14432 6.86113 6.51259
#
# Compressibility (1/GPa) = 0.02087858
#
# Stress axis : x y z
#
# Youngs Moduli (GPa) = 81.19091 121.07275 37.32379
#
# Poissons Ratio (x) = 0.30314 0.36997
# Poissons Ratio (y) = 0.20329 0.03093
# Poissons Ratio (z) = 0.80480 0.10035
#
# Static dielectric constant tensor:
#      x y z
#    x 1.938770 0.000000 0.000000 
#    y 0.000000 1.828550 0.000000 
#    z 0.000000 0.000000 1.796280 
# 
# From -- ./inp_files/8002.got.cif
#   From: 2010.05.17/outbox.cif.g08.bks.cpg/sg45_5_cif.got.tgz:8002.got - 2010.06.03 19:51:22.
