data_PCOD9377505
_publ_section_title
;
Structure prediction by ZEFSAII (Michael W. Deem and Ramdas Pophale) SiO2 
 PCOD9377505
Probable space group: I B A 2
;
_chemical_formula_sum "Si O2"
_cell_formula_units_Z 44
_cell_length_a 6.733216
_cell_length_b 17.503761
_cell_length_c 16.864916
_cell_angle_alpha 90.000000
_cell_angle_beta 90.000000
_cell_angle_gamma 90.000000
_cell_volume 1987.641720
_symmetry_space_group_name_H-M "I B A 2"
_symmetry_group_IT_number 45
_symmetry_cell_setting 'orthorhombic'
loop_
_space_group_symop_operation_xyz
x,y,z
-x,-y,z
-x,y,1/2+z
x,-y,1/2+z
1/2+x,1/2+y,1/2+z
1/2-x,1/2-y,1/2+z
1/2-x,1/2+y,z
1/2+x,1/2-y,z
loop_
_atom_site_type_symbol
_atom_site_label
_atom_site_fract_x
_atom_site_fract_y
_atom_site_fract_z
Si Si1 0.000000 0.000000 0.205510
Si Si2 0.864862 0.340309 0.445529
Si Si3 0.300583 0.350596 0.770990
Si Si4 0.146270 0.895453 0.087497
Si Si5 0.255497 0.179476 0.022737
Si Si6 0.459752 0.798179 0.175227
O O1 0.923363 0.927233 0.253620
O O2 0.159398 0.969513 0.141930
O O3 0.749567 0.340464 0.362993
O O4 0.761622 0.399119 0.505412
O O5 0.831310 0.255129 0.481301
O O6 0.100164 0.356008 0.455384
O O7 0.404920 0.277164 0.727689
O O8 0.083107 0.353837 0.731708
O O9 0.924544 0.868579 0.061644
O O10 0.257447 0.834188 0.143013
O O11 0.400856 0.201022 0.096173
#
# Coordination Sequence:
#
# PCOD9377505 Si02
#       6
#     4   8   8   8   8   8
#     4  12  26  46  72 100 146 196 236 296 372 448
#     4  11  23  39  68 102 140 175 234 301 359 415
#     4  12  25  43  68 111 147 188 240 311 377 430
#     4  11  25  44  72  97 139 190 244 296 357 445
#     4  11  20  40  69 104 130 182 245 292 342 432
#     4  11  24  43  74 104 136 189 252 297 352 439
#
# _framework density 22.136786000000001
#
# number of rings (size 3 to 8) (size 9 to 14) (size 15 to 20)
#    0.000    0.727    3.636    5.455    2.545    1.455 
#    3.273    0.000    4.000    0.000    0.000    0.000 
#    0.000    0.000    0.000    0.000    0.000    0.000 
#
# Total GULP energy -122639.876991 kJ/mol
# GULP energy per Si atom -5574.539863 kJ/mol
# Density = 2.208640 g / cm^3
# Si number density = 22.136786 Si / 1000 Ang^3
#
#
#
# Elastic Constant Matrix: (Units=GPa)
#
#
# Indices 1 2 3 4 5 6 
#
# 1 101.4010 11.8127 12.7106 0.0000 0.0000 0.0000
# 2 11.8127 68.9236 22.5224 0.0000 0.0000 0.0000
# 3 12.7106 22.5224 114.9997 0.0000 0.0000 0.0000
# 4 0.0000 0.0000 0.0000 24.7284 0.0000 0.0000
# 5 0.0000 0.0000 0.0000 0.0000 35.7902 0.0000
# 6 0.0000 0.0000 0.0000 0.0000 0.0000 17.5925
#
#
#
# Elastic Compliance Matrix: (Units=1/GPa)
#
#
# Indices 1 2 3 4 5 6 
#
# 1 0.010137 -0.001465 -0.000833 0.000000 0.000000 0.000000
# 2 -0.001465 0.015713 -0.002915 0.000000 0.000000 0.000000
# 3 -0.000833 -0.002915 0.009359 0.000000 0.000000 0.000000
# 4 0.000000 0.000000 0.000000 0.040439 0.000000 0.000000
# 5 0.000000 0.000000 0.000000 0.000000 0.027941 0.000000
# 6 0.000000 0.000000 0.000000 0.000000 0.000000 0.056842
#
#
# Mechanical properties :
#
#
# Convention : Reuss Voigt Hill
#
# Bulk Modulus (GPa) = 40.35413 42.15732 41.25573
# Shear Modulus (GPa) = 27.91448 31.50746 29.71097
#
# Velocity S-wave (km/s) = 3.55491 3.77677 3.66752
# Velocity P-wave (km/s) = 5.92612 6.17284 6.05074
#
# Compressibility (1/GPa) = 0.02478061
#
# Stress axis : x y z
#
# Youngs Moduli (GPa) = 98.64875 63.64337 106.85177
#
# Poissons Ratio (x) = 0.09324 0.08906
# Poissons Ratio (y) = 0.14452 0.31151
# Poissons Ratio (z) = 0.08222 0.18554
#
# Static dielectric constant tensor:
#      x y z
#    x 1.914630 0.000000 0.000000 
#    y 0.000000 1.899280 0.000000 
#    z 0.000000 0.000000 1.854430 
# 
# From -- ./inp_files/5556.got.cif
#   From: 2010.05.17/outbox.cif.g08.bks.cpg/sg45_3_cif.got.tgz:5556.got - 2010.06.03 19:51:22.
