data_PCOD9377009
_publ_section_title
;
Structure prediction by ZEFSAII (Michael W. Deem and Ramdas Pophale) SiO2 
 PCOD9377009
Probable space group: I B A 2
;
_chemical_formula_sum "Si O2"
_cell_formula_units_Z 48
_cell_length_a 27.039386
_cell_length_b 15.276567
_cell_length_c 5.448394
_cell_angle_alpha 90.000000
_cell_angle_beta 90.000000
_cell_angle_gamma 90.000000
_cell_volume 2250.562617
_symmetry_space_group_name_H-M "I B A 2"
_symmetry_group_IT_number 45
_symmetry_cell_setting 'orthorhombic'
loop_
_space_group_symop_operation_xyz
x,y,z
-x,-y,z
-x,y,1/2+z
x,-y,1/2+z
1/2+x,1/2+y,1/2+z
1/2-x,1/2-y,1/2+z
1/2-x,1/2+y,z
1/2+x,1/2-y,z
loop_
_atom_site_type_symbol
_atom_site_label
_atom_site_fract_x
_atom_site_fract_y
_atom_site_fract_z
Si Si1 0.246700 0.195114 0.791070
Si Si2 0.915528 0.301378 0.890371
Si Si3 0.666209 0.055873 0.373138
Si Si4 0.418051 0.517848 0.930316
Si Si5 0.360883 0.361342 0.137462
Si Si6 0.011225 0.226210 0.068132
O O1 0.261023 0.251023 0.546030
O O2 0.289293 0.125343 0.848534
O O3 0.195351 0.150308 0.711968
O O4 0.884668 0.388915 0.875296
O O5 0.936645 0.270001 0.626724
O O6 0.881899 0.225444 0.009842
O O7 0.967448 0.299382 0.040589
O O8 0.669165 0.004777 0.631362
O O9 0.444684 0.487138 0.686248
O O10 0.392612 0.389890 0.375264
O O11 0.374035 0.555074 0.466381
O O12 0.995668 0.176299 0.315224
#
# Coordination Sequence:
#
# PCOD9377009 Si02
#       6
#     8   8   8   8   8   8
#     4  12  27  44  67 100 128 188 234 275 336 428
#     4  10  22  46  70  98 130 189 224 288 352 419
#     4  12  29  45  68 103 150 178 229 293 348 394
#     4   8  20  35  56  96 120 169 210 275 319 396
#     4  10  22  40  69  91 137 174 231 271 344 418
#     4   8  20  38  69  98 125 165 243 281 335 417
#
# _framework density 21.328002000000001
#
# number of rings (size 3 to 8) (size 9 to 14) (size 15 to 20)
#    2.000    0.000    1.667    1.000    7.000    1.333 
#    0.000    2.500    0.000    3.000    0.000    0.000 
#    0.000    0.000    0.000    0.000    0.000    0.000 
#
# Total GULP energy -133633.518307 kJ/mol
# GULP energy per Si atom -5568.063263 kJ/mol
# Density = 2.127946 g / cm^3
# Si number density = 21.328002 Si / 1000 Ang^3
#
#
#
# Elastic Constant Matrix: (Units=GPa)
#
#
# Indices 1 2 3 4 5 6 
#
# 1 112.9592 45.3241 24.6961 0.0000 0.0000 0.0000
# 2 45.3241 91.4828 58.0110 0.0000 0.0000 0.0000
# 3 24.6961 58.0110 161.7310 0.0000 0.0000 0.0000
# 4 0.0000 0.0000 0.0000 40.0633 0.0000 0.0000
# 5 0.0000 0.0000 0.0000 0.0000 2.4474 0.0000
# 6 0.0000 0.0000 0.0000 0.0000 0.0000 39.2773
#
#
#
# Elastic Compliance Matrix: (Units=1/GPa)
#
#
# Indices 1 2 3 4 5 6 
#
# 1 0.011065 -0.005709 0.000358 0.000000 0.000000 0.000000
# 2 -0.005709 0.017095 -0.005260 0.000000 0.000000 0.000000
# 3 0.000358 -0.005260 0.008015 0.000000 0.000000 0.000000
# 4 0.000000 0.000000 0.000000 0.024961 0.000000 0.000000
# 5 0.000000 0.000000 0.000000 0.000000 0.408601 0.000000
# 6 0.000000 0.000000 0.000000 0.000000 0.000000 0.025460
#
#
# Mechanical properties :
#
#
# Convention : Reuss Voigt Hill
#
# Bulk Modulus (GPa) = 66.87501 69.13725 68.00613
# Shear Modulus (GPa) = 9.58951 32.23373 20.91162
#
# Velocity S-wave (km/s) = 2.12273 3.89180 3.13465
# Velocity P-wave (km/s) = 6.11813 7.25820 6.71241
#
# Compressibility (1/GPa) = 0.01495327
#
# Stress axis : x y z
#
# Youngs Moduli (GPa) = 90.37304 58.49636 124.76444
#
# Poissons Ratio (x) = 0.33397 -0.04469
# Poissons Ratio (y) = 0.51597 0.65626
# Poissons Ratio (z) = -0.03237 0.30769
#
# Static dielectric constant tensor:
#      x y z
#    x 1.758760 0.000000 0.000000 
#    y 0.000000 1.748530 0.000000 
#    z 0.000000 0.000000 1.879680 
# 
# From -- ./inp_files/605.got.cif
#   From: 2010.05.17/outbox.cif.g08.bks.cpg/sg45_1_cif.got.tgz:605.got - 2010.06.03 19:51:22.
