data_PCOD9377726
_publ_section_title
;
Structure prediction by ZEFSAII (Michael W. Deem and Ramdas Pophale) SiO2 
 PCOD9377726
Probable space group: I B A 2
;
_chemical_formula_sum "Si O2"
_cell_formula_units_Z 32
_cell_length_a 4.906298
_cell_length_b 24.893182
_cell_length_c 8.957509
_cell_angle_alpha 90.000000
_cell_angle_beta 90.000000
_cell_angle_gamma 90.000000
_cell_volume 1094.010753
_symmetry_space_group_name_H-M "I B A 2"
_symmetry_group_IT_number 45
_symmetry_cell_setting 'orthorhombic'
loop_
_space_group_symop_operation_xyz
x,y,z
-x,-y,z
-x,y,1/2+z
x,-y,1/2+z
1/2+x,1/2+y,1/2+z
1/2-x,1/2-y,1/2+z
1/2-x,1/2+y,z
1/2+x,1/2-y,z
loop_
_atom_site_type_symbol
_atom_site_label
_atom_site_fract_x
_atom_site_fract_y
_atom_site_fract_z
Si Si1 0.364702 0.056527 0.408970
Si Si2 0.965674 0.063054 0.661227
Si Si3 0.757817 0.783918 0.108217
Si Si4 0.351080 0.848456 0.319293
O O1 0.080029 0.060727 0.494817
O O2 0.536128 0.108676 0.442017
O O3 0.500000 0.000000 0.442703
O O4 0.334116 0.065233 0.230822
O O5 0.129829 0.114155 0.731077
O O6 0.000000 0.000000 0.713288
O O7 0.575546 0.729789 0.130240
O O8 0.597673 0.822965 0.221961
O O9 0.747446 0.803156 0.936411
#
# Coordination Sequence:
#
# PCOD9377726 Si02
#       4
#     8   8   8   8
#     4  12  29  51  77 123 167 223 278 341 424 529
#     4  12  28  49  79 117 169 219 272 339 422 524
#     4  12  30  55  82 119 162 221 296 368 434 506
#     4  12  28  50  82 117 165 217 279 354 439 500
#
# _framework density 29.250167999999999
#
# number of rings (size 3 to 8) (size 9 to 14) (size 15 to 20)
#    0.000    0.000    5.000    2.250   14.000    0.000 
#    0.000    0.000    0.000    0.000    0.000    0.000 
#    0.000    0.000    0.000    0.000    0.000    0.000 
#
# Total GULP energy -89374.127306 kJ/mol
# GULP energy per Si atom -5585.882957 kJ/mol
# Density = 2.918359 g / cm^3
# Si number density = 29.250168 Si / 1000 Ang^3
#
#
#
# Elastic Constant Matrix: (Units=GPa)
#
#
# Indices 1 2 3 4 5 6 
#
# 1 109.5015 9.9898 14.1194 0.0000 0.0000 0.0000
# 2 9.9898 152.9161 29.8006 0.0000 0.0000 0.0000
# 3 14.1194 29.8006 159.7086 -0.0001 0.0000 0.0000
# 4 0.0000 0.0000 -0.0001 40.7176 0.0000 0.0000
# 5 0.0000 0.0000 0.0000 0.0000 36.2969 0.0000
# 6 0.0000 0.0000 0.0000 0.0000 0.0000 50.9127
#
#
#
# Elastic Compliance Matrix: (Units=1/GPa)
#
#
# Indices 1 2 3 4 5 6 
#
# 1 0.009269 -0.000463 -0.000733 0.000000 0.000000 0.000000
# 2 -0.000463 0.006809 -0.001230 0.000000 0.000000 0.000000
# 3 -0.000733 -0.001230 0.006556 0.000000 0.000000 0.000000
# 4 0.000000 0.000000 0.000000 0.024559 0.000000 0.000000
# 5 0.000000 0.000000 0.000000 0.000000 0.027551 0.000000
# 6 0.000000 0.000000 0.000000 0.000000 0.000000 0.019641
#
#
# Mechanical properties :
#
#
# Convention : Reuss Voigt Hill
#
# Bulk Modulus (GPa) = 56.23297 58.88287 57.55792
# Shear Modulus (GPa) = 47.54468 50.13319 48.83893
#
# Velocity S-wave (km/s) = 4.03606 4.14447 4.09063
# Velocity P-wave (km/s) = 6.40205 6.56328 6.48317
#
# Compressibility (1/GPa) = 0.01778316
#
# Stress axis : x y z
#
# Youngs Moduli (GPa) = 107.88611 146.85571 152.53972
#
# Poissons Ratio (x) = 0.06794 0.11183
# Poissons Ratio (y) = 0.04992 0.18758
# Poissons Ratio (z) = 0.07909 0.18059
#
# Static dielectric constant tensor:
#      x y z
#    x 2.260590 0.000000 0.000000 
#    y 0.000000 2.348020 0.000000 
#    z 0.000000 0.000000 2.183300 
# 
# From -- ./inp_files/2869.got.cif
#   From: 2010.05.17/outbox.cif.g08.bks.cpg/sg45_2_cif.got.tgz:2869.got - 2010.06.03 19:51:22.
