data_PCOD9377494
_publ_section_title
;
Structure prediction by ZEFSAII (Michael W. Deem and Ramdas Pophale) SiO2 
 PCOD9377494
Probable space group: I B A 2
;
_chemical_formula_sum "Si O2"
_cell_formula_units_Z 48
_cell_length_a 17.532082
_cell_length_b 9.094530
_cell_length_c 15.417140
_cell_angle_alpha 90.000000
_cell_angle_beta 90.000000
_cell_angle_gamma 90.000000
_cell_volume 2458.202009
_symmetry_space_group_name_H-M "I B A 2"
_symmetry_group_IT_number 45
_symmetry_cell_setting 'orthorhombic'
loop_
_space_group_symop_operation_xyz
x,y,z
-x,-y,z
-x,y,1/2+z
x,-y,1/2+z
1/2+x,1/2+y,1/2+z
1/2-x,1/2-y,1/2+z
1/2-x,1/2+y,z
1/2+x,1/2-y,z
loop_
_atom_site_type_symbol
_atom_site_label
_atom_site_fract_x
_atom_site_fract_y
_atom_site_fract_z
Si Si1 0.431623 0.605962 0.667400
Si Si2 0.189208 0.645326 0.594080
Si Si3 0.579783 0.063164 0.693930
Si Si4 0.766697 0.708397 0.763848
Si Si5 0.824243 0.033009 0.527144
Si Si6 0.654435 0.529409 0.336162
O O1 0.500000 0.500000 0.645213
O O2 0.442950 0.778925 0.653457
O O3 0.365339 0.547909 0.606051
O O4 0.410421 0.577365 0.768409
O O5 0.238028 0.708333 0.676750
O O6 0.115525 0.559001 0.630024
O O7 0.238688 0.531229 0.536893
O O8 0.171757 0.792883 0.541657
O O9 0.656334 0.111717 0.747884
O O10 0.500000 0.000000 0.733019
O O11 0.698514 0.606919 0.794653
O O12 0.787620 0.832703 0.833020
O O13 0.862647 0.996442 0.435426
#
# Coordination Sequence:
#
# PCOD9377494 Si02
#       6
#     8   8   8   8   8   8
#     4  11  23  42  63  89 132 175 214 263 331 387
#     4  12  19  40  64  92 129 165 216 271 322 382
#     4  11  22  37  66  95 124 173 214 260 331 390
#     4  11  19  40  62  90 127 165 213 269 319 378
#     4  12  22  38  65  95 123 170 220 270 316 388
#     4  11  23  37  64  94 123 167 222 265 316 383
#
# _framework density 19.526467
#
# number of rings (size 3 to 8) (size 9 to 14) (size 15 to 20)
#    0.000    0.667    8.333    2.000    0.000    0.667 
#    0.000    0.000    0.000    9.000    0.000    0.000 
#    0.000    0.000    0.000    0.000    0.000    0.000 
#
# Total GULP energy -133760.773553 kJ/mol
# GULP energy per Si atom -5573.365565 kJ/mol
# Density = 1.948202 g / cm^3
# Si number density = 19.526467 Si / 1000 Ang^3
#
#
#
# Elastic Constant Matrix: (Units=GPa)
#
#
# Indices 1 2 3 4 5 6 
#
# 1 59.8760 20.2365 6.8831 0.0000 0.0000 0.0000
# 2 20.2365 116.5328 8.4009 0.0000 0.0000 0.0000
# 3 6.8831 8.4009 81.1178 0.0000 0.0000 0.0000
# 4 0.0000 0.0000 0.0000 19.1592 0.0000 0.0000
# 5 0.0000 0.0000 0.0000 0.0000 3.9062 0.0000
# 6 0.0000 0.0000 0.0000 0.0000 0.0000 41.1963
#
#
#
# Elastic Compliance Matrix: (Units=1/GPa)
#
#
# Indices 1 2 3 4 5 6 
#
# 1 0.017858 -0.003014 -0.001203 0.000000 0.000000 0.000000
# 2 -0.003014 0.009155 -0.000692 0.000000 0.000000 0.000000
# 3 -0.001203 -0.000692 0.012502 0.000000 0.000000 0.000000
# 4 0.000000 0.000000 0.000000 0.052194 0.000000 0.000000
# 5 0.000000 0.000000 0.000000 0.000000 0.256002 0.000000
# 6 0.000000 0.000000 0.000000 0.000000 0.000000 0.024274
#
#
# Mechanical properties :
#
#
# Convention : Reuss Voigt Hill
#
# Bulk Modulus (GPa) = 33.67607 36.50752 35.09180
# Shear Modulus (GPa) = 12.76479 27.65276 20.20877
#
# Velocity S-wave (km/s) = 2.55956 3.76728 3.22054
# Velocity P-wave (km/s) = 5.10088 6.13679 5.64266
#
# Compressibility (1/GPa) = 0.02969467
#
# Stress axis : x y z
#
# Youngs Moduli (GPa) = 55.99641 109.23404 79.99018
#
# Poissons Ratio (x) = 0.32928 0.09624
# Poissons Ratio (y) = 0.16880 0.05538
# Poissons Ratio (z) = 0.06737 0.07562
#
# Static dielectric constant tensor:
#      x y z
#    x 1.735120 0.000000 0.000000 
#    y 0.000000 1.709810 0.000000 
#    z 0.000000 0.000000 1.700120 
# 
# From -- ./inp_files/6894.got.cif
#   From: 2010.05.17/outbox.cif.g08.bks.cpg/sg45_4_cif.got.tgz:6894.got - 2010.06.03 19:51:22.
