data_PCOD9377468
_publ_section_title
;
Structure prediction by ZEFSAII (Michael W. Deem and Ramdas Pophale) SiO2 
 PCOD9377468
Probable space group: I B A 2
;
_chemical_formula_sum "Si O2"
_cell_formula_units_Z 28
_cell_length_a 20.506956
_cell_length_b 4.690532
_cell_length_c 9.037774
_cell_angle_alpha 90.000000
_cell_angle_beta 90.000000
_cell_angle_gamma 90.000000
_cell_volume 869.330226
_symmetry_space_group_name_H-M "I B A 2"
_symmetry_group_IT_number 45
_symmetry_cell_setting 'orthorhombic'
loop_
_space_group_symop_operation_xyz
x,y,z
-x,-y,z
-x,y,1/2+z
x,-y,1/2+z
1/2+x,1/2+y,1/2+z
1/2-x,1/2-y,1/2+z
1/2-x,1/2+y,z
1/2+x,1/2-y,z
loop_
_atom_site_type_symbol
_atom_site_label
_atom_site_fract_x
_atom_site_fract_y
_atom_site_fract_z
Si Si1 0.281956 0.460331 0.925920
Si Si2 0.000000 0.000000 0.851408
Si Si3 0.412698 0.773091 0.600207
Si Si4 0.826728 0.201601 0.670393
O O1 0.218078 0.644113 0.818703
O O2 0.333986 0.544028 0.796065
O O3 0.346698 0.409872 0.050430
O O4 0.227835 0.265218 0.034306
O O5 0.044075 0.179352 0.738426
O O6 0.958827 0.208706 0.959221
O O7 0.385720 0.088275 0.631815
#
# Coordination Sequence:
#
# PCOD9377468 Si02
#       4
#     8   4   8   8
#     4  12  25  46  74 107 146 191 242 304 379 458
#     4  10  26  48  76 108 152 204 260 320 386 456
#     4  11  26  47  74 108 148 198 254 315 382 453
#     4  12  26  46  74 108 148 194 250 312 380 458
#
# _framework density 32.208705999999999
#
# number of rings (size 3 to 8) (size 9 to 14) (size 15 to 20)
#    0.000    0.571    0.000    6.857    0.000   13.714 
#    0.000    2.857    0.000    0.000    0.000    0.000 
#    0.000    0.000    0.000    0.000    0.000    0.000 
#
# Total GULP energy -78334.710391 kJ/mol
# GULP energy per Si atom -5595.336456 kJ/mol
# Density = 3.213540 g / cm^3
# Si number density = 32.208706 Si / 1000 Ang^3
#
#
#
# Elastic Constant Matrix: (Units=GPa)
#
#
# Indices 1 2 3 4 5 6 
#
# 1 270.3024 102.5977 132.8112 0.0000 0.0000 0.0000
# 2 102.5977 241.9323 88.0791 0.0000 0.0000 0.0000
# 3 132.8112 88.0791 479.0235 0.0000 0.0000 0.0000
# 4 0.0000 0.0000 0.0000 61.1638 0.0000 0.0000
# 5 0.0000 0.0000 0.0000 0.0000 35.1190 0.0000
# 6 0.0000 0.0000 0.0000 0.0000 0.0000 95.7423
#
#
#
# Elastic Compliance Matrix: (Units=1/GPa)
#
#
# Indices 1 2 3 4 5 6 
#
# 1 0.004845 -0.001678 -0.001035 0.000000 0.000000 0.000000
# 2 -0.001678 0.005011 -0.000456 0.000000 0.000000 0.000000
# 3 -0.001035 -0.000456 0.002458 0.000000 0.000000 0.000000
# 4 0.000000 0.000000 0.000000 0.016350 0.000000 0.000000
# 5 0.000000 0.000000 0.000000 0.000000 0.028475 0.000000
# 6 0.000000 0.000000 0.000000 0.000000 0.000000 0.010445
#
#
# Mechanical properties :
#
#
# Convention : Reuss Voigt Hill
#
# Bulk Modulus (GPa) = 167.31907 182.02603 174.67255
# Shear Modulus (GPa) = 65.86501 82.92302 74.39402
#
# Velocity S-wave (km/s) = 4.52701 5.07951 4.81120
# Velocity P-wave (km/s) = 8.90990 9.54144 9.23107
#
# Compressibility (1/GPa) = 0.00597661
#
# Stress axis : x y z
#
# Youngs Moduli (GPa) = 206.40548 199.56035 406.77762
#
# Poissons Ratio (x) = 0.33484 0.42091
# Poissons Ratio (y) = 0.34632 0.18557
# Poissons Ratio (z) = 0.21358 0.09104
#
# Static dielectric constant tensor:
#      x y z
#    x 2.544340 0.000000 0.000000 
#    y 0.000000 2.501290 0.000000 
#    z 0.000000 0.000000 2.652510 
# 
# From -- ./inp_files/864.got.cif
#   From: 2010.05.17/outbox.cif.g08.bks.cpg/sg45_1_cif.got.tgz:864.got - 2010.06.03 19:51:22.
