data_PCOD9377413
_publ_section_title
;
Structure prediction by ZEFSAII (Michael W. Deem and Ramdas Pophale) SiO2 
 PCOD9377413
Probable space group: I B A 2
;
_chemical_formula_sum "Si O2"
_cell_formula_units_Z 36
_cell_length_a 7.541867
_cell_length_b 19.646311
_cell_length_c 9.118280
_cell_angle_alpha 90.000000
_cell_angle_beta 90.000000
_cell_angle_gamma 90.000000
_cell_volume 1351.054313
_symmetry_space_group_name_H-M "I B A 2"
_symmetry_group_IT_number 45
_symmetry_cell_setting 'orthorhombic'
loop_
_space_group_symop_operation_xyz
x,y,z
-x,-y,z
-x,y,1/2+z
x,-y,1/2+z
1/2+x,1/2+y,1/2+z
1/2-x,1/2-y,1/2+z
1/2-x,1/2+y,z
1/2+x,1/2-y,z
loop_
_atom_site_type_symbol
_atom_site_label
_atom_site_fract_x
_atom_site_fract_y
_atom_site_fract_z
Si Si1 0.474664 0.227662 0.503400
Si Si2 0.000000 0.000000 0.482239
Si Si3 0.577892 0.320648 0.734396
Si Si4 0.413825 0.128457 0.766232
Si Si5 0.209675 0.922314 0.732922
O O1 0.597437 0.285832 0.575562
O O2 0.383828 0.270663 0.371734
O O3 0.417884 0.192880 0.656367
O O4 0.548515 0.160813 0.423446
O O5 0.876027 0.044758 0.588949
O O6 0.132554 0.042195 0.378001
O O7 0.705355 0.387278 0.752257
O O8 0.374740 0.346461 0.738406
O O9 0.577225 0.079802 0.732036
#
# Coordination Sequence:
#
# PCOD9377413 Si02
#       5
#     8   4   8   8   8
#     4  10  25  40  66 112 152 180 217 266 346 434
#     4  10  26  54  70  98 136 180 250 330 350 392
#     4  11  24  43  69 107 146 184 221 280 341 440
#     4  11  26  41  70 103 145 188 226 272 345 438
#     4  11  26  48  75  96 135 188 239 298 368 397
#
# _framework density 26.645855999999998
#
# number of rings (size 3 to 8) (size 9 to 14) (size 15 to 20)
#    0.000    1.333    0.000    2.667   24.889    0.000 
#    0.000    6.667    0.000    0.000    0.000    0.000 
#    0.000    0.000    0.000    0.000    0.000    0.000 
#
# Total GULP energy -100513.278168 kJ/mol
# GULP energy per Si atom -5584.071009 kJ/mol
# Density = 2.658521 g / cm^3
# Si number density = 26.645856 Si / 1000 Ang^3
#
#
#
# Elastic Constant Matrix: (Units=GPa)
#
#
# Indices 1 2 3 4 5 6 
#
# 1 123.9293 26.2409 28.9588 0.0019 0.0005 0.0000
# 2 26.2409 75.3632 44.9157 0.0009 0.0003 0.0000
# 3 28.9588 44.9157 193.6701 0.0076 0.0022 0.0003
# 4 0.0019 0.0009 0.0076 33.8879 0.0007 0.0000
# 5 0.0005 0.0003 0.0022 0.0007 6.8002 0.0005
# 6 0.0000 0.0000 0.0003 0.0000 0.0005 33.4440
#
#
#
# Elastic Compliance Matrix: (Units=1/GPa)
#
#
# Indices 1 2 3 4 5 6 
#
# 1 0.008793 -0.002643 -0.000702 0.000000 0.000000 0.000000
# 2 -0.002643 0.016192 -0.003360 0.000000 0.000000 0.000000
# 3 -0.000702 -0.003360 0.006048 -0.000001 -0.000002 0.000000
# 4 0.000000 0.000000 -0.000001 0.029509 -0.000003 0.000000
# 5 0.000000 0.000000 -0.000002 -0.000003 0.147054 -0.000002
# 6 0.000000 0.000000 0.000000 0.000000 -0.000002 0.029901
#
#
# Mechanical properties :
#
#
# Convention : Reuss Voigt Hill
#
# Bulk Modulus (GPa) = 56.74642 65.91038 61.32840
# Shear Modulus (GPa) = 19.47187 34.34956 26.91072
#
# Velocity S-wave (km/s) = 2.70620 3.59432 3.18140
# Velocity P-wave (km/s) = 5.57741 6.48189 6.04658
#
# Compressibility (1/GPa) = 0.01762226
#
# Stress axis : x y z
#
# Youngs Moduli (GPa) = 113.72944 61.75898 165.35531
#
# Poissons Ratio (x) = 0.16325 0.11603
# Poissons Ratio (y) = 0.30063 0.55559
# Poissons Ratio (z) = 0.07981 0.20751
#
# Static dielectric constant tensor:
#      x y z
#    x 2.280870 0.000000 0.000000 
#    y 0.000000 2.072290 0.000000 
#    z 0.000000 0.000000 1.957760 
# 
# From -- ./inp_files/919.got.cif
#   From: 2010.05.17/outbox.cif.g08.bks.cpg/sg45_1_cif.got.tgz:919.got - 2010.06.03 19:51:22.
