data_PCOD9377377
_publ_section_title
;
Structure prediction by ZEFSAII (Michael W. Deem and Ramdas Pophale) SiO2 
 PCOD9377377
Probable space group: I B A 2
;
_chemical_formula_sum "Si O2"
_cell_formula_units_Z 64
_cell_length_a 8.579025
_cell_length_b 22.988380
_cell_length_c 13.507607
_cell_angle_alpha 90.000000
_cell_angle_beta 90.000000
_cell_angle_gamma 90.000000
_cell_volume 2663.941707
_symmetry_space_group_name_H-M "I B A 2"
_symmetry_group_IT_number 45
_symmetry_cell_setting 'orthorhombic'
loop_
_space_group_symop_operation_xyz
x,y,z
-x,-y,z
-x,y,1/2+z
x,-y,1/2+z
1/2+x,1/2+y,1/2+z
1/2-x,1/2-y,1/2+z
1/2-x,1/2+y,z
1/2+x,1/2-y,z
loop_
_atom_site_type_symbol
_atom_site_label
_atom_site_fract_x
_atom_site_fract_y
_atom_site_fract_z
Si Si1 0.690559 0.108176 0.712760
Si Si2 0.682610 0.513029 0.583902
Si Si3 0.370556 0.457845 0.880458
Si Si4 0.142747 0.286281 0.443808
Si Si5 0.324379 0.907743 0.195237
Si Si6 0.388743 0.636225 0.865253
Si Si7 0.610414 0.280025 0.243237
Si Si8 0.162465 0.698832 0.560539
O O1 0.752695 0.069972 0.804314
O O2 0.506645 0.103026 0.709162
O O3 0.748854 0.174115 0.727434
O O4 0.768945 0.077347 0.617297
O O5 0.500000 0.500000 0.602185
O O6 0.704293 0.493519 0.470097
O O7 0.786072 0.469882 0.649599
O O8 0.500000 0.500000 0.831850
O O9 0.478481 0.403504 0.914102
O O10 0.288301 0.329633 0.445288
O O11 0.132517 0.266847 0.330024
O O12 0.197019 0.229664 0.503548
O O13 0.981914 0.311324 0.485651
O O14 0.230438 0.899601 0.296631
O O15 0.278946 0.858793 0.114715
O O16 0.472122 0.680057 0.787161
O O17 0.596915 0.243408 0.143409
#
# Coordination Sequence:
#
# PCOD9377377 Si02
#       8
#     8   8   8   8   8   8   8   8
#     4  11  25  47  75 105 144 191 243 309 377 428
#     4  11  25  48  73 103 142 188 250 301 365 450
#     4  10  24  46  77 102 138 196 248 297 370 448
#     4  12  26  43  69 106 153 193 254 301 375 446
#     4  12  26  43  75 106 149 186 245 311 378 437
#     4  11  24  44  71 101 144 199 245 305 370 447
#     4  11  25  49  72 101 153 203 243 305 374 454
#     4  12  27  42  71 108 148 195 245 305 375 450
#
# _framework density 24.024547999999999
#
# number of rings (size 3 to 8) (size 9 to 14) (size 15 to 20)
#    0.000    0.750    2.500    4.500    7.000    5.000 
#    0.000    5.000    0.000    0.000    0.000    0.000 
#    0.000    0.000    0.000    0.000    0.000    0.000 
#
# Total GULP energy -179317.748439 kJ/mol
# GULP energy per Si atom -5603.679639 kJ/mol
# Density = 2.396987 g / cm^3
# Si number density = 24.024548 Si / 1000 Ang^3
#
#
#
# Elastic Constant Matrix: (Units=GPa)
#
#
# Indices 1 2 3 4 5 6 
#
# 1 65.3234 -4.5918 10.0439 0.0000 0.0000 0.0000
# 2 -4.5918 52.5118 26.6334 -0.0001 0.0000 0.0000
# 3 10.0439 26.6334 86.4408 -0.0001 0.0001 0.0000
# 4 0.0000 -0.0001 -0.0001 42.0983 0.0000 0.0000
# 5 0.0000 0.0000 0.0001 0.0000 9.7383 0.0000
# 6 0.0000 0.0000 0.0000 0.0000 0.0000 36.1735
#
#
#
# Elastic Compliance Matrix: (Units=1/GPa)
#
#
# Indices 1 2 3 4 5 6 
#
# 1 0.015918 0.002762 -0.002700 0.000000 0.000000 0.000000
# 2 0.002762 0.023050 -0.007423 0.000000 0.000000 0.000000
# 3 -0.002700 -0.007423 0.014169 0.000000 0.000000 0.000000
# 4 0.000000 0.000000 0.000000 0.023754 0.000000 0.000000
# 5 0.000000 0.000000 0.000000 0.000000 0.102687 0.000000
# 6 0.000000 0.000000 0.000000 0.000000 0.000000 0.027645
#
#
# Mechanical properties :
#
#
# Convention : Reuss Voigt Hill
#
# Bulk Modulus (GPa) = 26.03246 29.82742 27.92994
# Shear Modulus (GPa) = 21.29927 29.08140 25.19033
#
# Velocity S-wave (km/s) = 2.98075 3.48298 3.24161
# Velocity P-wave (km/s) = 4.76506 5.34951 5.06572
#
# Compressibility (1/GPa) = 0.03841358
#
# Stress axis : x y z
#
# Youngs Moduli (GPa) = 62.82285 43.38482 70.57466
#
# Poissons Ratio (x) = -0.11981 0.19058
# Poissons Ratio (y) = -0.17349 0.52385
# Poissons Ratio (z) = 0.16965 0.32203
#
# Static dielectric constant tensor:
#      x y z
#    x 1.873660 0.000000 0.000000 
#    y 0.000000 1.973690 0.000000 
#    z 0.000000 0.000000 1.910100 
# 
# From -- ./inp_files/5857.got.cif
#   From: 2010.05.17/outbox.cif.g08.bks.cpg/sg45_3_cif.got.tgz:5857.got - 2010.06.03 19:51:22.
