data_PCOD9377635
_publ_section_title
;
Structure prediction by ZEFSAII (Michael W. Deem and Ramdas Pophale) SiO2 
 PCOD9377635
Probable space group: I B A 2
;
_chemical_formula_sum "Si O2"
_cell_formula_units_Z 32
_cell_length_a 9.571261
_cell_length_b 13.180065
_cell_length_c 9.466442
_cell_angle_alpha 90.000000
_cell_angle_beta 90.000000
_cell_angle_gamma 90.000000
_cell_volume 1194.190164
_symmetry_space_group_name_H-M "I B A 2"
_symmetry_group_IT_number 45
_symmetry_cell_setting 'orthorhombic'
loop_
_space_group_symop_operation_xyz
x,y,z
-x,-y,z
-x,y,1/2+z
x,-y,1/2+z
1/2+x,1/2+y,1/2+z
1/2-x,1/2-y,1/2+z
1/2-x,1/2+y,z
1/2+x,1/2-y,z
loop_
_atom_site_type_symbol
_atom_site_label
_atom_site_fract_x
_atom_site_fract_y
_atom_site_fract_z
Si Si1 0.965785 0.222190 0.427750
Si Si2 0.585780 0.397284 0.191312
Si Si3 0.312917 0.869607 0.321794
Si Si4 0.664860 0.995844 0.570321
O O1 0.966173 0.194830 0.592118
O O2 0.809552 0.205600 0.370226
O O3 0.053235 0.133742 0.349553
O O4 0.041653 0.323675 0.377610
O O5 0.500000 0.500000 0.158513
O O6 0.744552 0.417803 0.148812
O O7 0.296943 0.894041 0.156371
O O8 0.299560 0.975454 0.409156
O O9 0.500000 0.000000 0.591472
#
# Coordination Sequence:
#
# PCOD9377635 Si02
#       4
#     8   8   8   8
#     4  11  27  44  76 109 146 186 252 301 362 423
#     4  11  24  47  76 103 147 197 242 292 368 445
#     4  11  27  49  74 106 149 192 242 304 361 438
#     4  11  26  47  74 107 146 197 240 298 372 437
#
# _framework density 26.796400999999999
#
# number of rings (size 3 to 8) (size 9 to 14) (size 15 to 20)
#    0.000    1.000    2.500    1.500   10.500    4.000 
#    0.000    0.000    0.000    0.000    0.000    0.000 
#    0.000    0.000    0.000    0.000    0.000    0.000 
#
# Total GULP energy -89563.714528 kJ/mol
# GULP energy per Si atom -5597.732158 kJ/mol
# Density = 2.673541 g / cm^3
# Si number density = 26.796401 Si / 1000 Ang^3
#
#
#
# Elastic Constant Matrix: (Units=GPa)
#
#
# Indices 1 2 3 4 5 6 
#
# 1 135.2088 15.9590 16.4825 0.0000 0.0000 0.0000
# 2 15.9590 101.5174 51.9717 0.0000 0.0000 0.0000
# 3 16.4825 51.9717 84.4456 0.0000 0.0000 0.0000
# 4 0.0000 0.0000 0.0000 33.7419 0.0000 0.0000
# 5 0.0000 0.0000 0.0000 0.0000 11.7674 0.0000
# 6 0.0000 0.0000 0.0000 0.0000 0.0000 49.7084
#
#
#
# Elastic Compliance Matrix: (Units=1/GPa)
#
#
# Indices 1 2 3 4 5 6 
#
# 1 0.007604 -0.000636 -0.001093 0.000000 0.000000 0.000000
# 2 -0.000636 0.014435 -0.008760 0.000000 0.000000 0.000000
# 3 -0.001093 -0.008760 0.017446 0.000000 0.000000 0.000000
# 4 0.000000 0.000000 0.000000 0.029637 0.000000 0.000000
# 5 0.000000 0.000000 0.000000 0.000000 0.084981 0.000000
# 6 0.000000 0.000000 0.000000 0.000000 0.000000 0.020117
#
#
# Mechanical properties :
#
#
# Convention : Reuss Voigt Hill
#
# Bulk Modulus (GPa) = 54.02931 54.44426 54.23679
# Shear Modulus (GPa) = 24.83020 34.82744 29.82882
#
# Velocity S-wave (km/s) = 3.04735 3.60905 3.34003
# Velocity P-wave (km/s) = 5.70863 6.14238 5.92948
#
# Compressibility (1/GPa) = 0.01850847
#
# Stress axis : x y z
#
# Youngs Moduli (GPa) = 131.50539 69.27543 57.31810
#
# Poissons Ratio (x) = 0.04406 0.06264
# Poissons Ratio (y) = 0.08363 0.50210
# Poissons Ratio (z) = 0.14372 0.60685
#
# Static dielectric constant tensor:
#      x y z
#    x 2.101770 0.000000 0.000000 
#    y 0.000000 2.121620 0.000000 
#    z 0.000000 0.000000 2.053830 
# 
# From -- ./inp_files/3097.got.cif
#   From: 2010.05.17/outbox.cif.g08.bks.cpg/sg45_2_cif.got.tgz:3097.got - 2010.06.03 19:51:22.
