data_PCOD9377532
_publ_section_title
;
Structure prediction by ZEFSAII (Michael W. Deem and Ramdas Pophale) SiO2 
 PCOD9377532
Probable space group: I B A 2
;
_chemical_formula_sum "Si O2"
_cell_formula_units_Z 64
_cell_length_a 15.580724
_cell_length_b 23.699545
_cell_length_c 8.594508
_cell_angle_alpha 90.000000
_cell_angle_beta 90.000000
_cell_angle_gamma 90.000000
_cell_volume 3173.574244
_symmetry_space_group_name_H-M "I B A 2"
_symmetry_group_IT_number 45
_symmetry_cell_setting 'orthorhombic'
loop_
_space_group_symop_operation_xyz
x,y,z
-x,-y,z
-x,y,1/2+z
x,-y,1/2+z
1/2+x,1/2+y,1/2+z
1/2-x,1/2-y,1/2+z
1/2-x,1/2+y,z
1/2+x,1/2-y,z
loop_
_atom_site_type_symbol
_atom_site_label
_atom_site_fract_x
_atom_site_fract_y
_atom_site_fract_z
Si Si1 0.088324 0.637322 0.916270
Si Si2 0.346885 0.748847 0.017353
Si Si3 0.247326 0.925268 0.544774
Si Si4 0.596840 0.876650 0.546674
Si Si5 0.916602 0.137208 0.405342
Si Si6 0.600196 0.624503 0.037476
Si Si7 0.342685 0.257362 0.888146
Si Si8 0.751522 0.451214 0.409329
O O1 0.096882 0.622697 0.733900
O O2 0.095856 0.705138 0.930934
O O3 0.168646 0.610918 0.005616
O O4 0.998923 0.615355 0.983330
O O5 0.373593 0.813753 0.996828
O O6 0.343559 0.736473 0.201720
O O7 0.410689 0.704050 0.940158
O O8 0.253244 0.741458 0.942066
O O9 0.162711 0.891103 0.495281
O O10 0.246256 0.939906 0.726190
O O11 0.251652 0.982947 0.447547
O O12 0.663880 0.921309 0.478823
O O13 0.906256 0.127588 0.222734
O O14 0.006691 0.113768 0.465791
O O15 0.631605 0.684732 0.970547
O O16 0.669499 0.578272 0.988278
#
# Coordination Sequence:
#
# PCOD9377532 Si02
#       8
#     8   8   8   8   8   8   8   8
#     4  11  24  42  66  98 133 172 217 266 322 385
#     4  11  22  38  65  98 135 174 215 263 323 386
#     4  12  26  46  70  95 128 169 218 271 327 385
#     4  11  24  42  66  98 133 172 217 266 322 385
#     4  12  25  43  67  98 134 172 219 267 323 387
#     4  12  25  43  67  98 134 172 219 267 323 387
#     4  11  22  38  65  98 135 174 215 263 323 386
#     4  12  26  46  70  95 128 169 218 271 327 385
#
# _framework density 20.166536000000001
#
# number of rings (size 3 to 8) (size 9 to 14) (size 15 to 20)
#    0.000    0.500    2.500    6.750    0.000    6.000 
#    0.000    5.000    0.000    0.000    0.000    0.000 
#    0.000    0.000    0.000    0.000    0.000    0.000 
#
# Total GULP energy -179236.908807 kJ/mol
# GULP energy per Si atom -5601.153400 kJ/mol
# Density = 2.012064 g / cm^3
# Si number density = 20.166536 Si / 1000 Ang^3
#
#
#
# Elastic Constant Matrix: (Units=GPa)
#
#
# Indices 1 2 3 4 5 6 
#
# 1 97.7339 -7.0664 -10.2314 0.0000 0.0000 0.0000
# 2 -7.0664 54.5985 -2.2025 0.0000 0.0000 0.0000
# 3 -10.2314 -2.2025 74.3631 0.0000 0.0000 0.0000
# 4 0.0000 0.0000 0.0000 28.4615 0.0000 0.0000
# 5 0.0000 0.0000 0.0000 0.0000 27.6688 0.0000
# 6 0.0000 0.0000 0.0000 0.0000 0.0000 2.4255
#
#
#
# Elastic Compliance Matrix: (Units=1/GPa)
#
#
# Indices 1 2 3 4 5 6 
#
# 1 0.010490 0.001418 0.001485 0.000000 0.000000 0.000000
# 2 0.001418 0.018529 0.000744 0.000000 0.000000 0.000000
# 3 0.001485 0.000744 0.013674 0.000000 0.000000 0.000000
# 4 0.000000 0.000000 0.000000 0.035135 0.000000 0.000000
# 5 0.000000 0.000000 0.000000 0.000000 0.036142 0.000000
# 6 0.000000 0.000000 0.000000 0.000000 0.000000 0.412293
#
#
# Mechanical properties :
#
#
# Convention : Reuss Voigt Hill
#
# Bulk Modulus (GPa) = 20.00558 20.85498 20.43028
# Shear Modulus (GPa) = 9.33478 28.12420 18.72949
#
# Velocity S-wave (km/s) = 2.15381 3.73848 3.05083
# Velocity P-wave (km/s) = 4.01583 5.38506 4.75004
#
# Compressibility (1/GPa) = 0.04998605
#
# Stress axis : x y z
#
# Youngs Moduli (GPa) = 95.33030 53.96950 73.13193
#
# Poissons Ratio (x) = -0.07650 -0.10862
# Poissons Ratio (y) = -0.13514 -0.05440
# Poissons Ratio (z) = -0.14159 -0.04014
#
# Static dielectric constant tensor:
#      x y z
#    x 1.686060 0.000000 0.000000 
#    y 0.000000 1.687990 0.000000 
#    z 0.000000 0.000000 1.676820 
# 
# From -- ./inp_files/1936.got.cif
#   From: 2010.05.17/outbox.cif.g08.bks.cpg/sg45_1_cif.got.tgz:1936.got - 2010.06.03 19:51:22.
