data_PCOD9377311
_publ_section_title
;
Structure prediction by ZEFSAII (Michael W. Deem and Ramdas Pophale) SiO2 
 PCOD9377311
Probable space group: I B A 2
;
_chemical_formula_sum "Si O2"
_cell_formula_units_Z 40
_cell_length_a 18.677588
_cell_length_b 10.169052
_cell_length_c 8.790878
_cell_angle_alpha 90.000000
_cell_angle_beta 90.000000
_cell_angle_gamma 90.000000
_cell_volume 1669.681028
_symmetry_space_group_name_H-M "I B A 2"
_symmetry_group_IT_number 45
_symmetry_cell_setting 'orthorhombic'
loop_
_space_group_symop_operation_xyz
x,y,z
-x,-y,z
-x,y,1/2+z
x,-y,1/2+z
1/2+x,1/2+y,1/2+z
1/2-x,1/2-y,1/2+z
1/2-x,1/2+y,z
1/2+x,1/2-y,z
loop_
_atom_site_type_symbol
_atom_site_label
_atom_site_fract_x
_atom_site_fract_y
_atom_site_fract_z
Si Si1 0.540259 0.250000 0.697210
Si Si2 0.061452 0.407373 0.425598
Si Si3 0.208803 0.612343 0.790440
Si Si4 0.208803 0.112343 0.103980
Si Si5 0.561452 0.592627 0.468822
O O1 0.486467 0.166105 0.800731
O O2 0.586230 0.177295 0.569999
O O3 0.486467 0.333895 0.593689
O O4 0.586230 0.322706 0.824421
O O5 0.132094 0.450573 0.339007
O O6 0.000000 0.500000 0.495162
O O7 0.198591 0.750000 0.697210
O O8 0.250000 0.500000 0.697210
O O9 0.250000 0.641903 0.947210
O O10 0.132094 0.049427 0.055413
O O11 0.500000 0.500000 0.399259
#
# Coordination Sequence:
#
# PCOD9377311 Si02
#       5
#     8   8   8   8   8
#     4  10  24  42  76 104 152 192 260 326 390 468
#     4  11  25  46  76 110 149 203 264 327 400 464
#     4  12  30  52  81 116 165 215 267 333 410 488
#     4  12  30  52  81 116 165 215 267 333 410 488
#     4  11  25  46  76 110 149 203 264 327 400 464
#
# _framework density 23.956672000000001
#
# number of rings (size 3 to 8) (size 9 to 14) (size 15 to 20)
#    0.000    0.800    2.000    2.400   14.000    3.200 
#    0.000    0.000    0.000    0.000    0.000    0.000 
#    0.000    0.000    0.000    0.000    0.000    0.000 
#
# Total GULP energy -111731.207177 kJ/mol
# GULP energy per Si atom -5586.560359 kJ/mol
# Density = 2.390215 g / cm^3
# Si number density = 23.956672 Si / 1000 Ang^3
#
#
#
# Elastic Constant Matrix: (Units=GPa)
#
#
# Indices 1 2 3 4 5 6 
#
# 1 150.8831 32.8749 41.8141 0.0000 0.0000 0.0000
# 2 32.8749 61.1417 40.4786 0.0000 0.0000 0.0000
# 3 41.8141 40.4786 152.1796 0.0000 0.0000 0.0000
# 4 0.0000 0.0000 0.0000 41.9863 0.0000 0.0000
# 5 0.0000 0.0000 0.0000 0.0000 32.4164 0.0000
# 6 0.0000 0.0000 0.0000 0.0000 0.0000 27.6707
#
#
#
# Elastic Compliance Matrix: (Units=1/GPa)
#
#
# Indices 1 2 3 4 5 6 
#
# 1 0.007692 -0.003322 -0.001230 0.000000 0.000000 0.000000
# 2 -0.003322 0.021286 -0.004749 0.000000 0.000000 0.000000
# 3 -0.001230 -0.004749 0.008172 0.000000 0.000000 0.000000
# 4 0.000000 0.000000 0.000000 0.023817 0.000000 0.000000
# 5 0.000000 0.000000 0.000000 0.000000 0.030849 0.000000
# 6 0.000000 0.000000 0.000000 0.000000 0.000000 0.036139
#
#
# Mechanical properties :
#
#
# Convention : Reuss Voigt Hill
#
# Bulk Modulus (GPa) = 53.91246 66.05997 59.98621
# Shear Modulus (GPa) = 32.73536 37.01712 34.87624
#
# Velocity S-wave (km/s) = 3.70055 3.93513 3.81964
# Velocity P-wave (km/s) = 6.38841 6.94850 6.67433
#
# Compressibility (1/GPa) = 0.01854859
#
# Stress axis : x y z
#
# Youngs Moduli (GPa) = 130.00070 46.98011 122.36323
#
# Poissons Ratio (x) = 0.15605 0.15051
# Poissons Ratio (y) = 0.43182 0.58112
# Poissons Ratio (z) = 0.15991 0.22311
#
# Static dielectric constant tensor:
#      x y z
#    x 1.915390 0.000000 0.000000 
#    y 0.000000 2.101790 0.000000 
#    z 0.000000 0.000000 1.867280 
# 
# From -- ./inp_files/2030.got.cif
#   From: 2010.05.17/outbox.cif.g08.bks.cpg/sg45_2_cif.got.tgz:2030.got - 2010.06.03 19:51:22.
