data_PCOD9377531
_publ_section_title
;
Structure prediction by ZEFSAII (Michael W. Deem and Ramdas Pophale) SiO2 
 PCOD9377531
Probable space group: I B A 2
;
_chemical_formula_sum "Si O2"
_cell_formula_units_Z 64
_cell_length_a 28.969017
_cell_length_b 13.906694
_cell_length_c 8.543008
_cell_angle_alpha 90.000000
_cell_angle_beta 90.000000
_cell_angle_gamma 90.000000
_cell_volume 3441.664010
_symmetry_space_group_name_H-M "I B A 2"
_symmetry_group_IT_number 45
_symmetry_cell_setting 'orthorhombic'
loop_
_space_group_symop_operation_xyz
x,y,z
-x,-y,z
-x,y,1/2+z
x,-y,1/2+z
1/2+x,1/2+y,1/2+z
1/2-x,1/2-y,1/2+z
1/2-x,1/2+y,z
1/2+x,1/2-y,z
loop_
_atom_site_type_symbol
_atom_site_label
_atom_site_fract_x
_atom_site_fract_y
_atom_site_fract_z
Si Si1 0.280560 0.707061 0.739830
Si Si2 0.942046 0.919476 0.747201
Si Si3 0.856816 0.882591 0.544504
Si Si4 0.682517 0.589198 0.535546
Si Si5 0.883804 0.225440 0.739292
Si Si6 0.814575 0.615117 0.296359
Si Si7 0.716082 0.082421 0.652118
Si Si8 0.464131 0.374752 0.607490
O O1 0.309699 0.670444 0.591828
O O2 0.226881 0.681041 0.727576
O O3 0.287370 0.820863 0.754055
O O4 0.299767 0.647302 0.885840
O O5 0.891699 0.887985 0.690823
O O6 0.981623 0.868887 0.642163
O O7 0.947441 0.032581 0.708573
O O8 0.953024 0.898101 0.927346
O O9 0.881405 0.824022 0.408594
O O10 0.843927 0.990880 0.495014
O O11 0.649184 0.658024 0.633140
O O12 0.729149 0.562087 0.630260
O O13 0.861569 0.330361 0.754957
O O14 0.934380 0.215015 0.666206
O O15 0.808252 0.509593 0.225235
O O16 0.805201 0.605715 0.481865
#
# Coordination Sequence:
#
# PCOD9377531 Si02
#       8
#     8   8   8   8   8   8   8   8
#     4  11  23  39  56  85 121 163 210 251 306 357
#     4  11  22  38  59  88 122 164 193 244 304 374
#     4  12  22  38  57  89 122 161 205 247 300 372
#     4  11  23  34  59  83 118 169 203 253 300 363
#     4  12  23  37  57  89 120 160 206 248 302 371
#     4  11  25  39  60  84 118 164 207 261 305 358
#     4  11  24  41  58  81 120 163 211 261 305 351
#     4  11  22  38  59  87 123 160 196 243 303 374
#
# _framework density 18.595656999999999
#
# number of rings (size 3 to 8) (size 9 to 14) (size 15 to 20)
#    0.000    0.750    5.000    4.500    3.500    0.000 
#    0.000    0.000    0.000    0.000    0.000    0.875 
#    0.000    0.000    0.000    0.000    0.000    0.000 
#
# Total GULP energy -179002.238897 kJ/mol
# GULP energy per Si atom -5593.819966 kJ/mol
# Density = 1.855333 g / cm^3
# Si number density = 18.595657 Si / 1000 Ang^3
#
#
#
# Elastic Constant Matrix: (Units=GPa)
#
#
# Indices 1 2 3 4 5 6 
#
# 1 75.4108 33.9021 15.3429 0.0000 0.0000 0.0000
# 2 33.9021 125.6861 24.0441 0.0000 0.0000 0.0000
# 3 15.3429 24.0441 71.5407 0.0000 0.0000 0.0000
# 4 0.0000 0.0000 0.0000 10.4788 0.0000 0.0000
# 5 0.0000 0.0000 0.0000 0.0000 26.5446 0.0000
# 6 0.0000 0.0000 0.0000 0.0000 0.0000 31.4184
#
#
#
# Elastic Compliance Matrix: (Units=1/GPa)
#
#
# Indices 1 2 3 4 5 6 
#
# 1 0.015362 -0.003755 -0.002033 0.000000 0.000000 0.000000
# 2 -0.003755 0.009421 -0.002361 0.000000 0.000000 0.000000
# 3 -0.002033 -0.002361 0.015207 0.000000 0.000000 0.000000
# 4 0.000000 0.000000 0.000000 0.095431 0.000000 0.000000
# 5 0.000000 0.000000 0.000000 0.000000 0.037672 0.000000
# 6 0.000000 0.000000 0.000000 0.000000 0.000000 0.031829
#
#
# Mechanical properties :
#
#
# Convention : Reuss Voigt Hill
#
# Bulk Modulus (GPa) = 42.20556 46.57954 44.39255
# Shear Modulus (GPa) = 21.82286 26.97825 24.40055
#
# Velocity S-wave (km/s) = 3.42942 3.81305 3.62631
# Velocity P-wave (km/s) = 6.19895 6.66999 6.43878
#
# Compressibility (1/GPa) = 0.02369356
#
# Stress axis : x y z
#
# Youngs Moduli (GPa) = 65.09424 106.14783 65.75707
#
# Poissons Ratio (x) = 0.39858 0.13366
# Poissons Ratio (y) = 0.24442 0.15525
# Poissons Ratio (z) = 0.13231 0.25061
#
# Static dielectric constant tensor:
#      x y z
#    x 1.664580 0.000000 0.000000 
#    y 0.000000 1.620990 0.000000 
#    z 0.000000 0.000000 1.681520 
# 
# From -- ./inp_files/2779.got.cif
#   From: 2010.05.17/outbox.cif.g08.bks.cpg/sg45_2_cif.got.tgz:2779.got - 2010.06.03 19:51:22.
