data_PCOD9377677
_publ_section_title
;
Structure prediction by ZEFSAII (Michael W. Deem and Ramdas Pophale) SiO2 
 PCOD9377677
Probable space group: I B A 2
;
_chemical_formula_sum "Si O2"
_cell_formula_units_Z 64
_cell_length_a 12.109191
_cell_length_b 10.914026
_cell_length_c 21.470452
_cell_angle_alpha 90.000000
_cell_angle_beta 90.000000
_cell_angle_gamma 90.000000
_cell_volume 2837.535482
_symmetry_space_group_name_H-M "I B A 2"
_symmetry_group_IT_number 45
_symmetry_cell_setting 'orthorhombic'
loop_
_space_group_symop_operation_xyz
x,y,z
-x,-y,z
-x,y,1/2+z
x,-y,1/2+z
1/2+x,1/2+y,1/2+z
1/2-x,1/2-y,1/2+z
1/2-x,1/2+y,z
1/2+x,1/2-y,z
loop_
_atom_site_type_symbol
_atom_site_label
_atom_site_fract_x
_atom_site_fract_y
_atom_site_fract_z
Si Si1 0.659916 0.839093 0.157500
Si Si2 0.158812 0.440805 0.794280
Si Si3 0.888575 0.064659 0.863010
Si Si4 0.946104 0.343469 0.841678
Si Si5 0.276447 0.111102 0.603887
Si Si6 0.482087 0.744088 0.058990
Si Si7 0.100861 0.588869 0.975562
Si Si8 0.848188 0.985593 0.006749
O O1 0.653773 0.866571 0.230352
O O2 0.745303 0.726042 0.148010
O O3 0.551401 0.787099 0.120959
O O4 0.693185 0.975891 0.131233
O O5 0.278518 0.462696 0.823709
O O6 0.103451 0.575378 0.785884
O O7 0.077530 0.361718 0.838990
O O8 0.909518 0.206663 0.849684
O O9 0.875827 0.028583 0.936367
O O10 0.000000 0.000000 0.840192
O O11 0.896762 0.410190 0.901820
O O12 0.375314 0.167293 0.563864
O O13 0.171526 0.088530 0.559012
O O14 0.428996 0.614006 0.038438
O O15 0.557077 0.783659 0.001108
O O16 0.000000 0.500000 0.993619
O O17 0.223159 0.566924 0.000054
#
# Coordination Sequence:
#
# PCOD9377677 Si02
#       8
#     8   8   8   8   8   8   8   8
#     4  12  29  49  79 109 160 217 284 339 411 503
#     4  11  28  52  79 111 158 223 288 341 421 512
#     4  12  29  47  80 121 165 206 274 351 431 512
#     4  11  26  47  79 111 154 215 269 344 421 504
#     4  12  26  48  71 115 153 215 268 339 412 502
#     4  12  25  45  77 112 160 207 273 334 427 510
#     4  12  20  43  72 108 149 202 261 329 423 519
#     4  12  26  46  73 121 166 203 263 354 431 514
#
# _framework density 22.554784000000001
#
# number of rings (size 3 to 8) (size 9 to 14) (size 15 to 20)
#    0.000    0.250    6.250    1.125   12.250    0.000 
#    0.000    0.000    0.000    0.000    0.000    0.000 
#    0.000    0.000    0.000    0.000    0.000    0.000 
#
# Total GULP energy -178501.258545 kJ/mol
# GULP energy per Si atom -5578.164330 kJ/mol
# Density = 2.250345 g / cm^3
# Si number density = 22.554784 Si / 1000 Ang^3
#
#
#
# Elastic Constant Matrix: (Units=GPa)
#
#
# Indices 1 2 3 4 5 6 
#
# 1 139.5188 67.3674 37.8746 0.0000 0.0000 0.0000
# 2 67.3674 168.0873 49.3856 0.0000 0.0000 0.0000
# 3 37.8746 49.3856 102.0507 0.0000 0.0000 0.0000
# 4 0.0000 0.0000 0.0000 41.2554 0.0000 0.0000
# 5 0.0000 0.0000 0.0000 0.0000 23.7251 0.0000
# 6 0.0000 0.0000 0.0000 0.0000 0.0000 45.3066
#
#
#
# Elastic Compliance Matrix: (Units=1/GPa)
#
#
# Indices 1 2 3 4 5 6 
#
# 1 0.009193 -0.003126 -0.001899 0.000000 0.000000 0.000000
# 2 -0.003126 0.007999 -0.002710 0.000000 0.000000 0.000000
# 3 -0.001899 -0.002710 0.011815 0.000000 0.000000 0.000000
# 4 0.000000 0.000000 0.000000 0.024239 0.000000 0.000000
# 5 0.000000 0.000000 0.000000 0.000000 0.042149 0.000000
# 6 0.000000 0.000000 0.000000 0.000000 0.000000 0.022072
#
#
# Mechanical properties :
#
#
# Convention : Reuss Voigt Hill
#
# Bulk Modulus (GPa) = 73.88024 79.87912 76.87968
# Shear Modulus (GPa) = 36.37683 39.05938 37.71810
#
# Velocity S-wave (km/s) = 4.02035 4.16595 4.09380
# Velocity P-wave (km/s) = 7.37414 7.65720 7.51700
#
# Compressibility (1/GPa) = 0.01353542
#
# Stress axis : x y z
#
# Youngs Moduli (GPa) = 108.78404 125.02061 84.63517
#
# Poissons Ratio (x) = 0.39086 0.16070
# Poissons Ratio (y) = 0.34010 0.22940
# Poissons Ratio (z) = 0.20655 0.33887
#
# Static dielectric constant tensor:
#      x y z
#    x 1.862780 0.000000 0.000000 
#    y 0.000000 2.084450 0.000000 
#    z 0.000000 0.000000 1.871950 
# 
# From -- ./inp_files/9694.got.cif
#   From: 2010.05.17/outbox.cif.g08.bks.cpg/sg45_5_cif.got.tgz:9694.got - 2010.06.03 19:51:22.
