data_PCOD9377467
_publ_section_title
;
Structure prediction by ZEFSAII (Michael W. Deem and Ramdas Pophale) SiO2 
 PCOD9377467
Probable space group: I B A 2
;
_chemical_formula_sum "Si O2"
_cell_formula_units_Z 28
_cell_length_a 15.851649
_cell_length_b 7.323848
_cell_length_c 9.557702
_cell_angle_alpha 90.000000
_cell_angle_beta 90.000000
_cell_angle_gamma 90.000000
_cell_volume 1109.602062
_symmetry_space_group_name_H-M "I B A 2"
_symmetry_group_IT_number 45
_symmetry_cell_setting 'orthorhombic'
loop_
_space_group_symop_operation_xyz
x,y,z
-x,-y,z
-x,y,1/2+z
x,-y,1/2+z
1/2+x,1/2+y,1/2+z
1/2-x,1/2-y,1/2+z
1/2-x,1/2+y,z
1/2+x,1/2-y,z
loop_
_atom_site_type_symbol
_atom_site_label
_atom_site_fract_x
_atom_site_fract_y
_atom_site_fract_z
Si Si1 0.151290 0.948729 0.544700
Si Si2 0.339333 0.045846 0.604761
Si Si3 0.591233 0.278278 0.758805
Si Si4 0.000000 0.500000 0.906014
O O1 0.152302 0.760451 0.632698
O O2 0.122503 0.895282 0.389881
O O3 0.246655 0.021776 0.540969
O O4 0.093464 0.096438 0.622665
O O5 0.348769 0.896475 0.726752
O O6 0.417582 0.999328 0.502685
O O7 0.506508 0.177799 0.808007
#
# Coordination Sequence:
#
# PCOD9377467 Si02
#       4
#     8   8   8   4
#     4  11  26  44  85 114 154 214 283 320 408 483
#     4  11  24  47  74 116 159 211 260 338 396 484
#     4  11  26  50  78 116 159 208 268 334 396 484
#     4  10  26  48  74 108 166 208 252 338 414 456
#
# _framework density 25.234271
#
# number of rings (size 3 to 8) (size 9 to 14) (size 15 to 20)
#    0.000    1.143    2.857    0.857    8.000    4.571 
#    0.000   24.286    0.000    1.714    0.000    0.000 
#    0.000    0.000    0.000    0.000    0.000    0.000 
#
# Total GULP energy -78411.252667 kJ/mol
# GULP energy per Si atom -5600.803762 kJ/mol
# Density = 2.517684 g / cm^3
# Si number density = 25.234271 Si / 1000 Ang^3
#
#
#
# Elastic Constant Matrix: (Units=GPa)
#
#
# Indices 1 2 3 4 5 6 
#
# 1 128.7488 27.0748 33.5928 0.0000 0.0000 0.0000
# 2 27.0748 161.6466 43.9315 0.0000 0.0000 0.0000
# 3 33.5928 43.9315 108.5845 0.0000 0.0000 0.0000
# 4 0.0000 0.0000 0.0000 68.4833 0.0000 0.0000
# 5 0.0000 0.0000 0.0000 0.0000 16.0116 0.0000
# 6 0.0000 0.0000 0.0000 0.0000 0.0000 47.3475
#
#
#
# Elastic Compliance Matrix: (Units=1/GPa)
#
#
# Indices 1 2 3 4 5 6 
#
# 1 0.008540 -0.000800 -0.002318 0.000000 0.000000 0.000000
# 2 -0.000800 0.007026 -0.002595 0.000000 0.000000 0.000000
# 3 -0.002318 -0.002595 0.010976 0.000000 0.000000 0.000000
# 4 0.000000 0.000000 0.000000 0.014602 0.000000 0.000000
# 5 0.000000 0.000000 0.000000 0.000000 0.062455 0.000000
# 6 0.000000 0.000000 0.000000 0.000000 0.000000 0.021120
#
#
# Mechanical properties :
#
#
# Convention : Reuss Voigt Hill
#
# Bulk Modulus (GPa) = 66.15804 67.57535 66.86670
# Shear Modulus (GPa) = 35.41453 45.99387 40.70420
#
# Velocity S-wave (km/s) = 3.75030 4.27391 4.02064
# Velocity P-wave (km/s) = 6.71025 7.15489 6.93613
#
# Compressibility (1/GPa) = 0.01511532
#
# Stress axis : x y z
#
# Youngs Moduli (GPa) = 117.09248 142.33653 91.10414
#
# Poissons Ratio (x) = 0.11392 0.21120
# Poissons Ratio (y) = 0.09372 0.23640
# Poissons Ratio (z) = 0.27145 0.36934
#
# Static dielectric constant tensor:
#      x y z
#    x 1.964870 0.000000 0.000000 
#    y 0.000000 1.997590 0.000000 
#    z 0.000000 0.000000 2.030280 
# 
# From -- ./inp_files/861.got.cif
#   From: 2010.05.17/outbox.cif.g08.bks.cpg/sg45_1_cif.got.tgz:861.got - 2010.06.03 19:51:22.
