data_PCOD9377296
_publ_section_title
;
Structure prediction by ZEFSAII (Michael W. Deem and Ramdas Pophale) SiO2 
 PCOD9377296
Probable space group: I B A 2
;
_chemical_formula_sum "Si O2"
_cell_formula_units_Z 48
_cell_length_a 31.981618
_cell_length_b 7.651554
_cell_length_c 8.799437
_cell_angle_alpha 90.000000
_cell_angle_beta 90.000000
_cell_angle_gamma 90.000000
_cell_volume 2153.302108
_symmetry_space_group_name_H-M "I B A 2"
_symmetry_group_IT_number 45
_symmetry_cell_setting 'orthorhombic'
loop_
_space_group_symop_operation_xyz
x,y,z
-x,-y,z
-x,y,1/2+z
x,-y,1/2+z
1/2+x,1/2+y,1/2+z
1/2-x,1/2-y,1/2+z
1/2-x,1/2+y,z
1/2+x,1/2-y,z
loop_
_atom_site_type_symbol
_atom_site_label
_atom_site_fract_x
_atom_site_fract_y
_atom_site_fract_z
Si Si1 0.500000 0.000000 0.953171
Si Si2 0.000000 0.000000 0.908144
Si Si3 0.710130 0.876442 0.150308
Si Si4 0.146886 0.902660 0.278252
Si Si5 0.463427 0.792046 0.222072
Si Si6 0.796720 0.250879 0.795103
Si Si7 0.910509 0.053514 0.556763
O O1 0.537741 0.945675 0.843301
O O2 0.482758 0.855675 0.065913
O O3 0.956208 0.001124 0.996770
O O4 0.002986 0.835941 0.797091
O O5 0.680667 0.743461 0.242701
O O6 0.755856 0.843094 0.222961
O O7 0.696781 0.076212 0.189653
O O8 0.709248 0.821021 0.970363
O O9 0.168891 0.094616 0.290674
O O10 0.118954 0.872606 0.426579
O O11 0.114676 0.901708 0.137865
O O12 0.421058 0.693896 0.187505
#
# Coordination Sequence:
#
# PCOD9377296 Si02
#       7
#     4   4   8   8   8   8   8
#     4  10  24  42  68 108 144 182 258 330 372 456
#     4  12  24  44  80 102 136 210 264 302 382 454
#     4  12  27  48  81 114 155 201 249 307 390 470
#     4  12  28  50  72 115 160 194 258 318 378 456
#     4  11  23  44  70 104 143 192 256 314 387 438
#     4  12  27  48  81 117 152 203 249 306 391 470
#     4  12  26  46  75 105 147 200 258 318 370 456
#
# _framework density 22.291346999999998
#
# number of rings (size 3 to 8) (size 9 to 14) (size 15 to 20)
#    0.000    0.333    6.667    1.500    4.667    0.000 
#    3.000    0.000    0.000    0.000    0.000    0.000 
#    0.000    0.000    0.000    0.000    0.000    0.000 
#
# Total GULP energy -134075.518387 kJ/mol
# GULP energy per Si atom -5586.479933 kJ/mol
# Density = 2.224061 g / cm^3
# Si number density = 22.291347 Si / 1000 Ang^3
#
#
#
# Elastic Constant Matrix: (Units=GPa)
#
#
# Indices 1 2 3 4 5 6 
#
# 1 122.9450 34.1564 32.4271 0.0000 0.0000 0.0000
# 2 34.1564 102.6208 18.7425 0.0000 0.0000 0.0000
# 3 32.4271 18.7425 102.4099 0.0000 0.0000 0.0000
# 4 0.0000 0.0000 0.0000 36.6232 0.0000 0.0000
# 5 0.0000 0.0000 0.0000 0.0000 40.8200 0.0000
# 6 0.0000 0.0000 0.0000 0.0000 0.0000 20.9399
#
#
#
# Elastic Compliance Matrix: (Units=1/GPa)
#
#
# Indices 1 2 3 4 5 6 
#
# 1 0.009556 -0.002719 -0.002528 0.000000 0.000000 0.000000
# 2 -0.002719 0.010855 -0.001126 0.000000 0.000000 0.000000
# 3 -0.002528 -0.001126 0.010771 0.000000 0.000000 0.000000
# 4 0.000000 0.000000 0.000000 0.027305 0.000000 0.000000
# 5 0.000000 0.000000 0.000000 0.000000 0.024498 0.000000
# 6 0.000000 0.000000 0.000000 0.000000 0.000000 0.047756
#
#
# Mechanical properties :
#
#
# Convention : Reuss Voigt Hill
#
# Bulk Modulus (GPa) = 54.23963 55.40307 54.82135
# Shear Modulus (GPa) = 33.41528 35.85326 34.63427
#
# Velocity S-wave (km/s) = 3.87592 4.01483 3.94599
# Velocity P-wave (km/s) = 6.66448 6.81174 6.73852
#
# Compressibility (1/GPa) = 0.01843671
#
# Stress axis : x y z
#
# Youngs Moduli (GPa) = 104.64756 92.12203 92.83982
#
# Poissons Ratio (x) = 0.25047 0.23472
# Poissons Ratio (y) = 0.28452 0.10451
# Poissons Ratio (z) = 0.26457 0.10371
#
# Static dielectric constant tensor:
#      x y z
#    x 1.600530 0.000000 0.000000 
#    y 0.000000 2.052320 0.000000 
#    z 0.000000 0.000000 1.875960 
# 
# From -- ./inp_files/1090.got.cif
#   From: 2010.05.17/outbox.cif.g08.bks.cpg/sg45_1_cif.got.tgz:1090.got - 2010.06.03 19:51:22.
