data_PCOD9377834
_publ_section_title
;
Structure prediction by ZEFSAII (Michael W. Deem and Ramdas Pophale) SiO2 
 PCOD9377834
Probable space group: I M A 2
;
_chemical_formula_sum "Si O2"
_cell_formula_units_Z 64
_cell_length_a 7.996832
_cell_length_b 19.338284
_cell_length_c 22.378364
_cell_angle_alpha 90.000000
_cell_angle_beta 90.000000
_cell_angle_gamma 90.000000
_cell_volume 3460.702287
_symmetry_space_group_name_H-M "I M A 2"
_symmetry_group_IT_number 46
_symmetry_cell_setting 'orthorhombic'
loop_
_space_group_symop_operation_xyz
x,y,z
-x,-y,z
1/2-x,y,z
1/2+x,-y,z
1/2+x,1/2+y,1/2+z
1/2-x,1/2-y,1/2+z
-x,1/2+y,1/2+z
x,1/2-y,1/2+z
loop_
_atom_site_type_symbol
_atom_site_label
_atom_site_fract_x
_atom_site_fract_y
_atom_site_fract_z
Si Si1 0.546259 0.774240 0.800270
Si Si2 0.049557 0.073656 0.803303
Si Si3 0.056364 0.925137 0.940241
Si Si4 0.560438 0.814807 0.026127
Si Si5 0.053143 0.576281 0.880522
Si Si6 0.449039 0.279939 0.929125
Si Si7 0.047577 0.421883 0.623172
Si Si8 0.451845 0.371284 0.751788
O O1 0.750000 0.772380 0.801931
O O2 0.499447 0.850919 0.778081
O O3 0.487638 0.758581 0.868601
O O4 0.492150 0.708417 0.761125
O O5 0.250000 0.073065 0.809645
O O6 0.969763 0.074248 0.869301
O O7 0.000000 0.000000 0.774477
O O8 0.250000 0.912088 0.954185
O O9 0.000000 0.000000 0.962402
O O10 0.941348 0.869055 0.971386
O O11 0.750000 0.796782 0.044826
O O12 0.484350 0.860649 0.079470
O O13 0.481177 0.749233 0.991852
O O14 0.250000 0.582895 0.885078
O O15 0.000000 0.500000 0.899451
O O16 0.975360 0.639274 0.917610
O O17 0.003117 0.588237 0.811329
O O18 0.250000 0.267288 0.931076
O O19 0.250000 0.418989 0.621228
O O20 0.988918 0.405471 0.690504
O O21 0.000000 0.500000 0.606291
O O22 0.250000 0.371016 0.750062
#
# Coordination Sequence:
#
# PCOD9377834 Si02
#       8
#     8   8   8   8   8   8   8   8
#     4   8  14  27  47  65  88 123 157 195 243 289
#     4  10  17  27  41  62  89 122 155 192 238 287
#     4  11  20  28  40  60  88 124 161 196 230 276
#     4  10  19  33  49  67  94 129 163 200 242 286
#     4  11  21  33  51  76 101 127 160 199 250 300
#     4   9  17  32  50  68  95 127 159 198 246 295
#     4  10  21  34  51  72  98 131 172 208 239 285
#     4   9  18  34  52  72  96 129 169 208 248 288
#
# _framework density 18.493355999999999
#
# number of rings (size 3 to 8) (size 9 to 14) (size 15 to 20)
#    0.000    2.250    1.250    4.875    0.000    3.500 
#    0.000    0.625    0.000    0.000    0.000    0.875 
#    0.000    2.000    0.000    0.000    0.000    0.625 
#
# Total GULP energy -178298.352861 kJ/mol
# GULP energy per Si atom -5571.823527 kJ/mol
# Density = 1.845126 g / cm^3
# Si number density = 18.493356 Si / 1000 Ang^3
#
#
#
# Elastic Constant Matrix: (Units=GPa)
#
#
# Indices 1 2 3 4 5 6 
#
# 1 40.6972 2.2861 3.1103 0.0000 0.0000 0.0000
# 2 2.2861 128.8377 27.3288 0.0000 0.0000 0.0000
# 3 3.1103 27.3288 58.6861 0.0000 0.0000 0.0000
# 4 0.0000 0.0000 0.0000 24.5009 0.0000 0.0000
# 5 0.0000 0.0000 0.0000 0.0000 2.6094 0.0000
# 6 0.0000 0.0000 0.0000 0.0000 0.0000 22.2488
#
#
#
# Elastic Compliance Matrix: (Units=1/GPa)
#
#
# Indices 1 2 3 4 5 6 
#
# 1 0.024675 -0.000178 -0.001225 0.000000 0.000000 0.000000
# 2 -0.000178 0.008614 -0.004002 0.000000 0.000000 0.000000
# 3 -0.001225 -0.004002 0.018968 0.000000 0.000000 0.000000
# 4 0.000000 0.000000 0.000000 0.040815 0.000000 0.000000
# 5 0.000000 0.000000 0.000000 0.000000 0.383224 0.000000
# 6 0.000000 0.000000 0.000000 0.000000 0.000000 0.044946
#
#
# Mechanical properties :
#
#
# Convention : Reuss Voigt Hill
#
# Bulk Modulus (GPa) = 24.12663 32.63015 28.37839
# Shear Modulus (GPa) = 9.15973 22.90489 16.03231
#
# Velocity S-wave (km/s) = 2.22794 3.52312 2.94755
# Velocity P-wave (km/s) = 4.43765 5.85084 5.19255
#
# Compressibility (1/GPa) = 0.04144798
#
# Stress axis : x y z
#
# Youngs Moduli (GPa) = 40.52629 116.09402 52.71962
#
# Poissons Ratio (x) = 0.02067 0.06457
# Poissons Ratio (y) = 0.00721 0.21097
# Poissons Ratio (z) = 0.04964 0.46458
#
# Static dielectric constant tensor:
#      x y z
#    x 1.673240 0.000000 0.000000 
#    y 0.000000 1.672230 0.000000 
#    z 0.000000 0.000000 1.649530 
# 
# From -- ./inp_files/23284.got.cif
#   From: 2010.05.17/outbox.cif.g08.bks.cpg/sg46_12_cif.got.tgz:23284.got - 2010.06.03 19:58:25.
