data_PCOD9377499
_publ_section_title
;
Structure prediction by ZEFSAII (Michael W. Deem and Ramdas Pophale) SiO2 
 PCOD9377499
Probable space group: I B A 2
;
_chemical_formula_sum "Si O2"
_cell_formula_units_Z 64
_cell_length_a 30.321975
_cell_length_b 11.299351
_cell_length_c 9.205573
_cell_angle_alpha 90.000000
_cell_angle_beta 90.000000
_cell_angle_gamma 90.000000
_cell_volume 3154.000888
_symmetry_space_group_name_H-M "I B A 2"
_symmetry_group_IT_number 45
_symmetry_cell_setting 'orthorhombic'
loop_
_space_group_symop_operation_xyz
x,y,z
-x,-y,z
-x,y,1/2+z
x,-y,1/2+z
1/2+x,1/2+y,1/2+z
1/2-x,1/2-y,1/2+z
1/2-x,1/2+y,z
1/2+x,1/2-y,z
loop_
_atom_site_type_symbol
_atom_site_label
_atom_site_fract_x
_atom_site_fract_y
_atom_site_fract_z
Si Si1 0.274401 0.862077 0.627700
Si Si2 0.895731 0.669654 0.485861
Si Si3 0.170657 0.858758 0.039418
Si Si4 0.673155 0.392282 0.193458
Si Si5 0.113584 0.297924 0.027234
Si Si6 0.322463 0.011179 0.401309
Si Si7 0.541525 0.147042 0.265130
Si Si8 0.058698 0.379879 0.767254
O O1 0.290473 0.730679 0.586157
O O2 0.223293 0.853822 0.662675
O O3 0.303187 0.922773 0.758948
O O4 0.283509 0.947034 0.489482
O O5 0.871309 0.776527 0.562484
O O6 0.859942 0.593871 0.390895
O O7 0.935161 0.720995 0.390466
O O8 0.915867 0.597166 0.617858
O O9 0.169145 0.885670 0.867464
O O10 0.169897 0.974965 0.134605
O O11 0.638070 0.312256 0.104203
O O12 0.152507 0.393240 0.001261
O O13 0.089070 0.300137 0.870491
O O14 0.072417 0.334092 0.127663
O O15 0.490314 0.169858 0.240751
O O16 0.549109 0.012648 0.324687
#
# Coordination Sequence:
#
# PCOD9377499 Si02
#       8
#     8   8   8   8   8   8   8   8
#     4  11  27  44  70  98 140 178 233 290 348 405
#     4  11  21  41  64 100 139 177 220 276 341 422
#     4  11  28  47  67  97 132 185 234 290 338 409
#     4  12  29  46  69  95 135 184 247 286 340 411
#     4  12  23  40  66  98 136 184 219 281 346 409
#     4  11  22  41  68 102 139 182 219 276 349 419
#     4  11  20  39  63 106 145 169 219 281 350 432
#     4  11  22  36  68 104 141 176 217 278 360 422
#
# _framework density 20.291687
#
# number of rings (size 3 to 8) (size 9 to 14) (size 15 to 20)
#    0.000    0.750    3.750    3.750    8.750    2.000 
#    0.000    0.000    0.000    4.500    0.000    0.000 
#    0.000    0.000    0.000    0.000    0.000    0.000 
#
# Total GULP energy -178508.576179 kJ/mol
# GULP energy per Si atom -5578.393006 kJ/mol
# Density = 2.024550 g / cm^3
# Si number density = 20.291687 Si / 1000 Ang^3
#
#
#
# Elastic Constant Matrix: (Units=GPa)
#
#
# Indices 1 2 3 4 5 6 
#
# 1 113.5817 27.6462 32.4819 0.0000 0.0000 0.0000
# 2 27.6462 104.9000 33.0133 0.0000 0.0000 0.0000
# 3 32.4819 33.0133 85.0785 0.0000 0.0000 0.0000
# 4 0.0000 0.0000 0.0000 28.9853 0.0000 0.0000
# 5 0.0000 0.0000 0.0000 0.0000 18.8000 0.0000
# 6 0.0000 0.0000 0.0000 0.0000 0.0000 7.3873
#
#
#
# Elastic Compliance Matrix: (Units=1/GPa)
#
#
# Indices 1 2 3 4 5 6 
#
# 1 0.010129 -0.001655 -0.003225 0.000000 0.000000 0.000000
# 2 -0.001655 0.011129 -0.003687 0.000000 0.000000 0.000000
# 3 -0.003225 -0.003687 0.014416 0.000000 0.000000 0.000000
# 4 0.000000 0.000000 0.000000 0.034500 0.000000 0.000000
# 5 0.000000 0.000000 0.000000 0.000000 0.053192 0.000000
# 6 0.000000 0.000000 0.000000 0.000000 0.000000 0.135367
#
#
# Mechanical properties :
#
#
# Convention : Reuss Voigt Hill
#
# Bulk Modulus (GPa) = 53.93408 54.42701 54.18055
# Shear Modulus (GPa) = 17.72755 25.06245 21.39500
#
# Velocity S-wave (km/s) = 2.95894 3.51822 3.25063
# Velocity P-wave (km/s) = 6.18958 6.58669 6.39122
#
# Compressibility (1/GPa) = 0.01854115
#
# Stress axis : x y z
#
# Youngs Moduli (GPa) = 98.72344 89.85350 69.36832
#
# Poissons Ratio (x) = 0.14867 0.22373
# Poissons Ratio (y) = 0.16334 0.25575
# Poissons Ratio (z) = 0.31840 0.33127
#
# Static dielectric constant tensor:
#      x y z
#    x 1.786610 0.000000 0.000000 
#    y 0.000000 1.715580 0.000000 
#    z 0.000000 0.000000 1.785120 
# 
# From -- ./inp_files/2784.got.cif
#   From: 2010.05.17/outbox.cif.g08.bks.cpg/sg45_2_cif.got.tgz:2784.got - 2010.06.03 19:51:22.
