data_PCOD9377083
_publ_section_title
;
Structure prediction by ZEFSAII (Michael W. Deem and Ramdas Pophale) SiO2 
 PCOD9377083
Probable space group: I B A 2
;
_chemical_formula_sum "Si O2"
_cell_formula_units_Z 56
_cell_length_a 14.943847
_cell_length_b 18.979283
_cell_length_c 8.313502
_cell_angle_alpha 90.000000
_cell_angle_beta 90.000000
_cell_angle_gamma 90.000000
_cell_volume 2357.904545
_symmetry_space_group_name_H-M "I B A 2"
_symmetry_group_IT_number 45
_symmetry_cell_setting 'orthorhombic'
loop_
_space_group_symop_operation_xyz
x,y,z
-x,-y,z
-x,y,1/2+z
x,-y,1/2+z
1/2+x,1/2+y,1/2+z
1/2-x,1/2-y,1/2+z
1/2-x,1/2+y,z
1/2+x,1/2-y,z
loop_
_atom_site_type_symbol
_atom_site_label
_atom_site_fract_x
_atom_site_fract_y
_atom_site_fract_z
Si Si1 0.463899 0.079837 0.744990
Si Si2 0.864929 0.226270 0.076439
Si Si3 0.872028 0.383410 0.077891
Si Si4 0.779762 0.395138 0.599737
Si Si5 0.034974 0.170295 0.868807
Si Si6 0.763661 0.022251 0.778142
Si Si7 0.445389 0.434099 0.626587
O O1 0.550779 0.125929 0.712398
O O2 0.386410 0.106907 0.623840
O O3 0.500000 0.000000 0.718376
O O4 0.423052 0.085846 0.922566
O O5 0.836593 0.305847 0.038456
O O6 0.779719 0.174032 0.074353
O O7 0.906885 0.220539 0.256157
O O8 0.944960 0.202959 0.951869
O O9 0.801561 0.436049 0.156422
O O10 0.755794 0.445466 0.450761
O O11 0.750868 0.439187 0.757828
O O12 0.008085 0.107971 0.747675
O O13 0.085988 0.127279 0.006567
O O14 0.863487 0.036771 0.725573
O O15 0.500000 0.500000 0.553235
#
# Coordination Sequence:
#
# PCOD9377083 Si02
#       7
#     8   8   8   8   8   8   8
#     4  12  26  50  79 112 148 198 254 326 374 447
#     4  11  25  48  72 110 152 199 243 304 380 451
#     4  12  27  48  78 108 147 196 251 306 385 450
#     4  12  27  46  75 109 154 186 255 313 377 449
#     4  10  22  43  65 100 148 197 238 297 361 450
#     4  12  26  45  70 109 142 193 244 313 365 452
#     4  11  23  39  68  99 144 194 248 294 361 439
#
# _framework density 23.749901000000001
#
# number of rings (size 3 to 8) (size 9 to 14) (size 15 to 20)
#    0.000    0.571    2.857    5.143    6.000    1.143 
#    5.143    0.000    0.000    0.000    0.000    0.000 
#    0.000    0.000    0.000    0.000    0.000    0.000 
#
# Total GULP energy -156642.179008 kJ/mol
# GULP energy per Si atom -5594.363536 kJ/mol
# Density = 2.369584 g / cm^3
# Si number density = 23.749901 Si / 1000 Ang^3
#
#
#
# Elastic Constant Matrix: (Units=GPa)
#
#
# Indices 1 2 3 4 5 6 
#
# 1 83.4632 45.5020 16.6843 0.0000 0.0000 0.0000
# 2 45.5020 123.2878 8.4793 0.0000 0.0000 0.0000
# 3 16.6843 8.4793 85.2436 0.0000 0.0000 0.0000
# 4 0.0000 0.0000 0.0000 21.6941 0.0000 0.0000
# 5 0.0000 0.0000 0.0000 0.0000 24.4641 0.0000
# 6 0.0000 0.0000 0.0000 0.0000 0.0000 27.7246
#
#
#
# Elastic Compliance Matrix: (Units=1/GPa)
#
#
# Indices 1 2 3 4 5 6 
#
# 1 0.015504 -0.005551 -0.002482 0.000000 0.000000 0.000000
# 2 -0.005551 0.010155 0.000076 0.000000 0.000000 0.000000
# 3 -0.002482 0.000076 0.012209 0.000000 0.000000 0.000000
# 4 0.000000 0.000000 0.000000 0.046095 0.000000 0.000000
# 5 0.000000 0.000000 0.000000 0.000000 0.040876 0.000000
# 6 0.000000 0.000000 0.000000 0.000000 0.000000 0.036069
#
#
# Mechanical properties :
#
#
# Convention : Reuss Voigt Hill
#
# Bulk Modulus (GPa) = 45.55070 48.14730 46.84900
# Shear Modulus (GPa) = 27.15309 29.53183 28.34246
#
# Velocity S-wave (km/s) = 3.38493 3.53008 3.45827
# Velocity P-wave (km/s) = 5.87350 6.07717 5.97620
#
# Compressibility (1/GPa) = 0.02195356
#
# Stress axis : x y z
#
# Youngs Moduli (GPa) = 64.49955 98.47671 81.90453
#
# Poissons Ratio (x) = 0.54668 0.20331
# Poissons Ratio (y) = 0.35806 -0.00626
# Poissons Ratio (z) = 0.16011 -0.00753
#
# Static dielectric constant tensor:
#      x y z
#    x 1.930230 0.000000 0.000000 
#    y 0.000000 1.896070 0.000000 
#    z 0.000000 0.000000 1.944170 
# 
# From -- ./inp_files/1825.got.cif
#   From: 2010.05.17/outbox.cif.g08.bks.cpg/sg45_1_cif.got.tgz:1825.got - 2010.06.03 19:51:22.
