data_PCOD9377957
_publ_section_title
;
Structure prediction by ZEFSAII (Michael W. Deem and Ramdas Pophale) SiO2 
 PCOD9377957
Probable space group: I M A 2
;
_chemical_formula_sum "Si O2"
_cell_formula_units_Z 64
_cell_length_a 8.910146
_cell_length_b 27.126227
_cell_length_c 18.875938
_cell_angle_alpha 90.000000
_cell_angle_beta 90.000000
_cell_angle_gamma 90.000000
_cell_volume 4562.288600
_symmetry_space_group_name_H-M "I M A 2"
_symmetry_group_IT_number 46
_symmetry_cell_setting 'orthorhombic'
loop_
_space_group_symop_operation_xyz
x,y,z
-x,-y,z
1/2-x,y,z
1/2+x,-y,z
1/2+x,1/2+y,1/2+z
1/2-x,1/2-y,1/2+z
-x,1/2+y,1/2+z
x,1/2-y,1/2+z
loop_
_atom_site_type_symbol
_atom_site_label
_atom_site_fract_x
_atom_site_fract_y
_atom_site_fract_z
Si Si1 0.070257 0.745711 0.935400
Si Si2 0.077674 0.300475 0.558357
Si Si3 0.930293 0.947011 0.443325
Si Si4 0.569183 0.253991 0.772506
Si Si5 0.923728 0.801711 0.648173
Si Si6 0.932550 0.650622 0.697004
Si Si7 0.929817 0.947837 0.277780
Si Si8 0.930414 0.353329 0.019426
O O1 0.250000 0.746276 0.936615
O O2 0.021840 0.751302 0.854267
O O3 0.023929 0.692718 0.968433
O O4 0.012012 0.788111 0.987745
O O5 0.250000 0.310890 0.539893
O O6 0.074034 0.249923 0.604425
O O7 0.023207 0.340969 0.614898
O O8 0.750000 0.948269 0.449658
O O9 0.969169 0.938198 0.360251
O O10 0.998446 0.903038 0.489306
O O11 0.000000 0.000000 0.462561
O O12 0.750000 0.254369 0.768190
O O13 0.503810 0.211429 0.721786
O O14 0.505416 0.305633 0.742718
O O15 0.750000 0.815449 0.658315
O O16 0.009010 0.839816 0.597435
O O17 0.750000 0.655747 0.700350
O O18 0.975727 0.598175 0.729519
O O19 0.750000 0.951874 0.274251
O O20 0.000000 0.000000 0.256902
O O21 0.750000 0.356258 0.019748
#
# Coordination Sequence:
#
# PCOD9377957 Si02
#       8
#     8   8   8   8   8   8   8   8
#     4   9  18  28  39  58  84 109 135 167 203 241
#     4   8  15  26  40  56  76 103 135 166 198 237
#     4  10  19  30  43  60  82 110 141 175 210 244
#     4  10  18  27  40  60  83 108 137 169 202 241
#     4   9  17  29  42  58  80 107 137 169 203 243
#     4   9  17  29  42  58  80 108 139 171 205 243
#     4   9  18  30  43  59  82 109 140 176 211 244
#     4  10  18  29  44  61  82 110 141 173 207 245
#
# _framework density 14.028047000000001
#
# number of rings (size 3 to 8) (size 9 to 14) (size 15 to 20)
#    0.000    2.750    0.000    3.000    0.000    5.500 
#    0.000    0.000    0.000    0.000    0.000    0.000 
#    0.000    1.000    0.000    5.250    0.000    4.875 
#
# Total GULP energy -178255.909518 kJ/mol
# GULP energy per Si atom -5570.497172 kJ/mol
# Density = 1.399612 g / cm^3
# Si number density = 14.028047 Si / 1000 Ang^3
#
#
#
# Elastic Constant Matrix: (Units=GPa)
#
#
# Indices 1 2 3 4 5 6 
#
# 1 41.3865 33.3884 40.4793 0.0000 0.0000 0.0000
# 2 33.3884 96.0889 64.8830 0.0000 0.0000 0.0000
# 3 40.4793 64.8830 120.7207 -0.0001 0.0000 0.0000
# 4 0.0000 0.0000 -0.0001 27.1716 0.0000 0.0000
# 5 0.0000 0.0000 0.0000 0.0000 22.1518 0.0000
# 6 0.0000 0.0000 0.0000 0.0000 0.0000 21.4959
#
#
#
# Elastic Compliance Matrix: (Units=1/GPa)
#
#
# Indices 1 2 3 4 5 6 
#
# 1 0.039058 -0.007422 -0.009108 0.000000 0.000000 0.000000
# 2 -0.007422 0.017746 -0.007049 0.000000 0.000000 0.000000
# 3 -0.009108 -0.007049 0.015126 0.000000 0.000000 0.000000
# 4 0.000000 0.000000 0.000000 0.036803 0.000000 0.000000
# 5 0.000000 0.000000 0.000000 0.000000 0.045143 0.000000
# 6 0.000000 0.000000 0.000000 0.000000 0.000000 0.046521
#
#
# Mechanical properties :
#
#
# Convention : Reuss Voigt Hill
#
# Bulk Modulus (GPa) = 40.36694 59.52194 49.94444
# Shear Modulus (GPa) = 19.54566 22.12689 20.83627
#
# Velocity S-wave (km/s) = 3.73678 3.97587 3.85818
# Velocity P-wave (km/s) = 6.88886 7.97493 7.45171
#
# Compressibility (1/GPa) = 0.02477275
#
# Stress axis : x y z
#
# Youngs Moduli (GPa) = 25.60293 56.35171 66.11070
#
# Poissons Ratio (x) = 0.41823 0.60212
# Poissons Ratio (y) = 0.19002 0.46602
# Poissons Ratio (z) = 0.23319 0.39723
#
# Static dielectric constant tensor:
#      x y z
#    x 1.474830 0.000000 0.000000 
#    y 0.000000 1.441050 0.000000 
#    z 0.000000 0.000000 1.464480 
# 
# From -- ./inp_files/18644.got.cif
#   From: 2010.05.17/outbox.cif.g08.bks.cpg/sg46_10_cif.got.tgz:18644.got - 2010.06.03 19:58:25.
