data_PCOD9377157
_publ_section_title
;
Structure prediction by ZEFSAII (Michael W. Deem and Ramdas Pophale) SiO2 
 PCOD9377157
Probable space group: I B A 2
;
_chemical_formula_sum "Si O2"
_cell_formula_units_Z 60
_cell_length_a 18.506653
_cell_length_b 18.340426
_cell_length_c 8.875760
_cell_angle_alpha 90.000000
_cell_angle_beta 90.000000
_cell_angle_gamma 90.000000
_cell_volume 3012.609570
_symmetry_space_group_name_H-M "I B A 2"
_symmetry_group_IT_number 45
_symmetry_cell_setting 'orthorhombic'
loop_
_space_group_symop_operation_xyz
x,y,z
-x,-y,z
-x,y,1/2+z
x,-y,1/2+z
1/2+x,1/2+y,1/2+z
1/2-x,1/2-y,1/2+z
1/2-x,1/2+y,z
1/2+x,1/2-y,z
loop_
_atom_site_type_symbol
_atom_site_label
_atom_site_fract_x
_atom_site_fract_y
_atom_site_fract_z
Si Si1 0.474037 0.743538 0.133390
Si Si2 0.566350 0.400394 0.669755
Si Si3 0.457321 0.841282 0.860140
Si Si4 0.717662 0.660779 0.085373
Si Si5 0.847815 0.561294 0.022708
Si Si6 0.173980 0.265302 0.315379
Si Si7 0.392079 0.914009 0.367493
Si Si8 0.000000 0.000000 0.923817
O O1 0.511726 0.666452 0.144609
O O2 0.526670 0.806872 0.198557
O O3 0.399909 0.744614 0.228004
O O4 0.458583 0.769938 0.965689
O O5 0.646126 0.367364 0.668055
O O6 0.554192 0.455420 0.530718
O O7 0.543771 0.444297 0.818293
O O8 0.524081 0.895602 0.894736
O O9 0.386265 0.885130 0.902514
O O10 0.767219 0.591257 0.043756
O O11 0.765029 0.713059 0.193966
O O12 0.696474 0.704837 0.935111
O O13 0.883733 0.570632 0.187936
O O14 0.861013 0.480640 0.962162
O O15 0.153035 0.340704 0.398406
#
# Coordination Sequence:
#
# PCOD9377157 Si02
#       8
#     8   8   8   8   8   8   8   4
#     4  11  22  40  66  93 126 164 221 263 316 377
#     4  11  23  41  69  94 125 170 212 270 326 379
#     4  11  20  38  61  91 124 163 212 265 298 380
#     4  11  24  42  65  93 130 166 216 264 331 376
#     4  11  24  40  58  93 129 167 209 260 313 388
#     4  10  23  44  59  97 128 165 219 268 309 395
#     4  10  23  40  59  86 129 166 214 251 315 374
#     4  10  24  44  64  96 126 160 226 268 318 386
#
# _framework density 19.916288000000002
#
# number of rings (size 3 to 8) (size 9 to 14) (size 15 to 20)
#    0.000    1.333    4.000    3.600    3.733    5.333 
#    0.000    1.333    0.000    0.000    0.000    0.000 
#    0.000    0.000    0.000    0.000    0.000    0.000 
#
# Total GULP energy -167656.612210 kJ/mol
# GULP energy per Si atom -5588.553740 kJ/mol
# Density = 1.987096 g / cm^3
# Si number density = 19.916288 Si / 1000 Ang^3
#
#
#
# Elastic Constant Matrix: (Units=GPa)
#
#
# Indices 1 2 3 4 5 6 
#
# 1 80.2540 14.9982 2.7830 0.0000 0.0000 0.0000
# 2 14.9982 72.9633 -4.5859 0.0000 0.0000 0.0000
# 3 2.7830 -4.5859 31.1837 0.0000 0.0000 0.0000
# 4 0.0000 0.0000 0.0000 32.4956 0.0000 0.0000
# 5 0.0000 0.0000 0.0000 0.0000 21.0761 0.0000
# 6 0.0000 0.0000 0.0000 0.0000 0.0000 16.8703
#
#
#
# Elastic Compliance Matrix: (Units=1/GPa)
#
#
# Indices 1 2 3 4 5 6 
#
# 1 0.013034 -0.002778 -0.001572 0.000000 0.000000 0.000000
# 2 -0.002778 0.014426 0.002369 0.000000 0.000000 0.000000
# 3 -0.001572 0.002369 0.032557 0.000000 0.000000 0.000000
# 4 0.000000 0.000000 0.000000 0.030773 0.000000 0.000000
# 5 0.000000 0.000000 0.000000 0.000000 0.047447 0.000000
# 6 0.000000 0.000000 0.000000 0.000000 0.000000 0.059276
#
#
# Mechanical properties :
#
#
# Convention : Reuss Voigt Hill
#
# Bulk Modulus (GPa) = 17.83949 23.42127 20.63038
# Shear Modulus (GPa) = 22.71088 25.50211 24.10650
#
# Velocity S-wave (km/s) = 3.38052 3.58224 3.48284
# Velocity P-wave (km/s) = 4.92076 5.37544 5.15312
#
# Compressibility (1/GPa) = 0.05605542
#
# Stress axis : x y z
#
# Youngs Moduli (GPa) = 76.72174 69.32168 30.71564
#
# Poissons Ratio (x) = 0.19258 0.04828
# Poissons Ratio (y) = 0.21314 -0.07278
# Poissons Ratio (z) = 0.12059 -0.16425
#
# Static dielectric constant tensor:
#      x y z
#    x 1.688390 0.000000 0.000000 
#    y 0.000000 1.690350 0.000000 
#    z 0.000000 0.000000 1.717720 
# 
# From -- ./inp_files/2141.got.cif
#   From: 2010.05.17/outbox.cif.g08.bks.cpg/sg45_2_cif.got.tgz:2141.got - 2010.06.03 19:51:22.
