data_PCOD9377855
_publ_section_title
;
Structure prediction by ZEFSAII (Michael W. Deem and Ramdas Pophale) SiO2 
 PCOD9377855
Probable space group: I M A 2
;
_chemical_formula_sum "Si O2"
_cell_formula_units_Z 56
_cell_length_a 23.474470
_cell_length_b 13.521418
_cell_length_c 10.516628
_cell_angle_alpha 90.000000
_cell_angle_beta 90.000000
_cell_angle_gamma 90.000000
_cell_volume 3338.063135
_symmetry_space_group_name_H-M "I M A 2"
_symmetry_group_IT_number 46
_symmetry_cell_setting 'orthorhombic'
loop_
_space_group_symop_operation_xyz
x,y,z
-x,-y,z
1/2-x,y,z
1/2+x,-y,z
1/2+x,1/2+y,1/2+z
1/2-x,1/2-y,1/2+z
-x,1/2+y,1/2+z
x,1/2-y,1/2+z
loop_
_atom_site_type_symbol
_atom_site_label
_atom_site_fract_x
_atom_site_fract_y
_atom_site_fract_z
Si Si1 0.817432 0.281513 0.416640
Si Si2 0.982790 0.295416 0.293442
Si Si3 0.039313 0.098898 0.365422
Si Si4 0.067690 0.016581 0.114784
Si Si5 0.942316 0.933295 0.639632
Si Si6 0.620112 0.196454 0.177301
Si Si7 0.894594 0.042114 0.862650
O O1 0.750000 0.271571 0.415766
O O2 0.846426 0.212559 0.309499
O O3 0.843001 0.267591 0.557694
O O4 0.838827 0.392120 0.380898
O O5 0.936929 0.261090 0.188846
O O6 0.947901 0.379081 0.370958
O O7 0.000979 0.197542 0.368819
O O8 0.036796 0.340981 0.223040
O O9 0.074022 0.092072 0.496140
O O10 0.072235 0.093464 0.231048
O O11 0.000000 0.000000 0.361567
O O12 0.098916 0.915469 0.158345
O O13 0.094561 0.035269 0.976256
O O14 0.000000 0.000000 0.096539
O O15 0.898302 0.993443 0.725042
O O16 0.000000 0.000000 0.632788
#
# Coordination Sequence:
#
# PCOD9377855 Si02
#       7
#     8   8   8   8   8   8   8
#     4  10  21  35  51  70  96 131 184 224 254 291
#     4  10  18  29  46  69  97 138 161 194 244 305
#     4  10  19  27  43  66 100 128 168 189 233 287
#     4  10  17  28  44  66  96 129 165 196 237 304
#     4   9  19  30  43  66  97 130 165 201 236 308
#     4  10  20  30  49  70  96 136 168 207 257 297
#     4   9  20  33  47  65  96 134 171 205 250 294
#
# _framework density 16.776195000000001
#
# number of rings (size 3 to 8) (size 9 to 14) (size 15 to 20)
#    0.000    2.286    2.857    1.714    6.000    3.429 
#    0.000    0.000    0.000    0.000    0.000    0.000 
#    0.000   11.429    0.000    0.000    0.000    0.000 
#
# Total GULP energy -155927.969777 kJ/mol
# GULP energy per Si atom -5568.856063 kJ/mol
# Density = 1.673801 g / cm^3
# Si number density = 16.776195 Si / 1000 Ang^3
#
#
#
# Elastic Constant Matrix: (Units=GPa)
#
#
# Indices 1 2 3 4 5 6 
#
# 1 40.6393 11.0152 21.8343 0.0000 0.0000 0.0000
# 2 11.0152 46.0617 22.7551 0.0000 0.0000 0.0000
# 3 21.8343 22.7551 96.3174 0.0000 0.0000 0.0000
# 4 0.0000 0.0000 0.0000 14.3542 0.0000 0.0000
# 5 0.0000 0.0000 0.0000 0.0000 16.7366 0.0000
# 6 0.0000 0.0000 0.0000 0.0000 0.0000 11.4602
#
#
#
# Elastic Compliance Matrix: (Units=1/GPa)
#
#
# Indices 1 2 3 4 5 6 
#
# 1 0.028697 -0.004131 -0.005529 0.000000 0.000000 0.000000
# 2 -0.004131 0.025173 -0.005011 0.000000 0.000000 0.000000
# 3 -0.005529 -0.005011 0.012820 0.000000 0.000000 0.000000
# 4 0.000000 0.000000 0.000000 0.069666 0.000000 0.000000
# 5 0.000000 0.000000 0.000000 0.000000 0.059749 0.000000
# 6 0.000000 0.000000 0.000000 0.000000 0.000000 0.087258
#
#
# Mechanical properties :
#
#
# Convention : Reuss Voigt Hill
#
# Bulk Modulus (GPa) = 26.77541 32.69194 29.73368
# Shear Modulus (GPa) = 15.37727 17.00446 16.19086
#
# Velocity S-wave (km/s) = 3.03084 3.18717 3.10999
# Velocity P-wave (km/s) = 5.31442 5.75096 5.53699
#
# Compressibility (1/GPa) = 0.03734770
#
# Stress axis : x y z
#
# Youngs Moduli (GPa) = 34.84652 39.72470 78.00542
#
# Poissons Ratio (x) = 0.16410 0.43133
# Poissons Ratio (y) = 0.14395 0.39087
# Poissons Ratio (z) = 0.19268 0.19905
#
# Static dielectric constant tensor:
#      x y z
#    x 1.527040 0.000000 0.000000 
#    y 0.000000 1.612660 0.000000 
#    z 0.000000 0.000000 1.643120 
# 
# From -- ./inp_files/12813.got.cif
#   From: 2010.05.17/outbox.cif.g08.bks.cpg/sg46_7_cif.got.tgz:12813.got - 2010.06.03 19:58:25.
