data_PCOD9377185
_publ_section_title
;
Structure prediction by ZEFSAII (Michael W. Deem and Ramdas Pophale) SiO2 
 PCOD9377185
Probable space group: I B A 2
;
_chemical_formula_sum "Si O2"
_cell_formula_units_Z 48
_cell_length_a 13.400173
_cell_length_b 5.295396
_cell_length_c 30.458973
_cell_angle_alpha 90.000000
_cell_angle_beta 90.000000
_cell_angle_gamma 90.000000
_cell_volume 2161.345042
_symmetry_space_group_name_H-M "I B A 2"
_symmetry_group_IT_number 45
_symmetry_cell_setting 'orthorhombic'
loop_
_space_group_symop_operation_xyz
x,y,z
-x,-y,z
-x,y,1/2+z
x,-y,1/2+z
1/2+x,1/2+y,1/2+z
1/2-x,1/2-y,1/2+z
1/2-x,1/2+y,z
1/2+x,1/2-y,z
loop_
_atom_site_type_symbol
_atom_site_label
_atom_site_fract_x
_atom_site_fract_y
_atom_site_fract_z
Si Si1 0.686398 0.320446 0.950850
Si Si2 0.311327 0.661836 0.053892
Si Si3 0.000000 0.000000 0.893565
Si Si4 0.650182 0.377807 0.223341
Si Si5 0.127116 0.383877 0.760868
Si Si6 0.935068 0.248870 0.637858
Si Si7 0.000000 0.500000 0.340510
O O1 0.767143 0.543742 0.942464
O O2 0.590271 0.390868 0.922659
O O3 0.660018 0.323489 0.002772
O O4 0.273675 0.375744 0.061446
O O5 0.395311 0.736858 0.088444
O O6 0.964659 0.250132 0.866701
O O7 0.754426 0.402875 0.249632
O O8 0.589129 0.154981 0.245583
O O9 0.655461 0.287394 0.172937
O O10 0.600583 0.645371 0.231382
O O11 0.089536 0.381382 0.810593
O O12 0.000000 0.500000 0.645297
O O13 0.000000 0.000000 0.644866
#
# Coordination Sequence:
#
# PCOD9377185 Si02
#       7
#     8   8   4   8   8   8   4
#     4  10  23  48  73 108 146 192 234 286 375 439
#     4  10  23  43  71 100 143 186 235 288 340 424
#     4  12  26  48  76 106 146 180 238 314 362 452
#     4  10  23  42  63  91 130 186 218 275 350 413
#     4  10  23  43  66  89 130 170 228 285 353 408
#     4  12  26  40  64 106 142 185 246 288 334 414
#     4  12  26  46  70 108 130 172 246 308 360 432
#
# _framework density 22.208393000000001
#
# number of rings (size 3 to 8) (size 9 to 14) (size 15 to 20)
#    0.000    1.333    0.000    4.000    9.333    0.000 
#   19.500    0.000    0.000    0.000    0.000    0.000 
#    0.000    0.000    0.000    0.000    0.000    0.000 
#
# Total GULP energy -133893.831021 kJ/mol
# GULP energy per Si atom -5578.909626 kJ/mol
# Density = 2.215785 g / cm^3
# Si number density = 22.208393 Si / 1000 Ang^3
#
#
#
# Elastic Constant Matrix: (Units=GPa)
#
#
# Indices 1 2 3 4 5 6 
#
# 1 83.4602 19.1545 50.0017 0.0000 0.0000 0.0000
# 2 19.1545 151.9852 33.8915 0.0000 0.0000 0.0000
# 3 50.0017 33.8915 90.7659 0.0000 0.0000 0.0000
# 4 0.0000 0.0000 0.0000 37.4045 0.0000 0.0000
# 5 0.0000 0.0000 0.0000 0.0000 34.9050 0.0000
# 6 0.0000 0.0000 0.0000 0.0000 0.0000 32.3197
#
#
#
# Elastic Compliance Matrix: (Units=1/GPa)
#
#
# Indices 1 2 3 4 5 6 
#
# 1 0.017885 -0.000062 -0.009829 0.000000 0.000000 0.000000
# 2 -0.000062 0.007177 -0.002646 0.000000 0.000000 0.000000
# 3 -0.009829 -0.002646 0.017420 0.000000 0.000000 0.000000
# 4 0.000000 0.000000 0.000000 0.026735 0.000000 0.000000
# 5 0.000000 0.000000 0.000000 0.000000 0.028649 0.000000
# 6 0.000000 0.000000 0.000000 0.000000 0.000000 0.030941
#
#
# Mechanical properties :
#
#
# Convention : Reuss Voigt Hill
#
# Bulk Modulus (GPa) = 57.44518 59.14518 58.29518
# Shear Modulus (GPa) = 31.31179 35.80341 33.55760
#
# Velocity S-wave (km/s) = 3.75895 4.01952 3.89142
# Velocity P-wave (km/s) = 6.69045 6.94491 6.81887
#
# Compressibility (1/GPa) = 0.01740790
#
# Stress axis : x y z
#
# Youngs Moduli (GPa) = 55.91330 139.32604 57.40493
#
# Poissons Ratio (x) = 0.00866 0.56425
# Poissons Ratio (y) = 0.00347 0.15188
# Poissons Ratio (z) = 0.54959 0.36863
#
# Static dielectric constant tensor:
#      x y z
#    x 1.770160 0.000000 0.000000 
#    y 0.000000 1.857810 0.000000 
#    z 0.000000 0.000000 1.848920 
# 
# From -- ./inp_files/10061.got.cif
#   From: 2010.05.17/outbox.cif.g08.bks.cpg/sg45_6_cif.got.tgz:10061.got - 2010.06.03 19:51:22.
