data_PCOD9377535
_publ_section_title
;
Structure prediction by ZEFSAII (Michael W. Deem and Ramdas Pophale) SiO2 
 PCOD9377535
Probable space group: I B A 2
;
_chemical_formula_sum "Si O2"
_cell_formula_units_Z 56
_cell_length_a 17.889166
_cell_length_b 9.337841
_cell_length_c 13.809281
_cell_angle_alpha 90.000000
_cell_angle_beta 90.000000
_cell_angle_gamma 90.000000
_cell_volume 2306.787746
_symmetry_space_group_name_H-M "I B A 2"
_symmetry_group_IT_number 45
_symmetry_cell_setting 'orthorhombic'
loop_
_space_group_symop_operation_xyz
x,y,z
-x,-y,z
-x,y,1/2+z
x,-y,1/2+z
1/2+x,1/2+y,1/2+z
1/2-x,1/2-y,1/2+z
1/2-x,1/2+y,z
1/2+x,1/2-y,z
loop_
_atom_site_type_symbol
_atom_site_label
_atom_site_fract_x
_atom_site_fract_y
_atom_site_fract_z
Si Si1 0.545670 0.799477 0.722850
Si Si2 0.115343 0.457609 0.038014
Si Si3 0.823909 0.856446 0.189242
Si Si4 0.500000 0.500000 0.501976
Si Si5 0.599809 0.733711 0.118787
Si Si6 0.226383 0.876005 0.264336
Si Si7 0.500000 0.000000 0.381956
Si Si8 0.153980 0.173613 0.971597
O O1 0.577901 0.890303 0.633250
O O2 0.588701 0.647513 0.719589
O O3 0.458859 0.785082 0.699429
O O4 0.547403 0.888977 0.819869
O O5 0.125529 0.626198 0.056747
O O6 0.174274 0.340821 0.001521
O O7 0.056481 0.426196 0.953577
O O8 0.800416 0.702341 0.230995
O O9 0.768026 0.956018 0.247240
O O10 0.819917 0.890297 0.075675
O O11 0.448624 0.618791 0.557421
O O12 0.568978 0.602563 0.458375
O O13 0.666692 0.670302 0.181927
O O14 0.197589 0.852718 0.372532
#
# Coordination Sequence:
#
# PCOD9377535 Si02
#       8
#     8   8   8   4   8   8   4   8
#     4  11  22  41  70 104 146 183 248 312 370 449
#     4  11  22  39  64 108 143 182 237 305 371 445
#     4  11  28  52  70 106 156 195 254 321 375 465
#     4  12  22  44  78 110 154 194 248 334 380 456
#     4  12  21  44  73 105 147 191 243 316 389 432
#     4  12  29  49  77 109 147 209 252 311 393 463
#     4  12  18  34  66 110 134 184 234 298 372 442
#     4  11  26  49  75 110 151 198 257 310 392 465
#
# _framework density 24.276181000000001
#
# number of rings (size 3 to 8) (size 9 to 14) (size 15 to 20)
#    0.000    0.571    7.143    0.857    4.000    5.143 
#    2.571    0.000    0.000    0.000    0.000    0.000 
#    0.000    0.000    0.000    0.000    0.000    0.000 
#
# Total GULP energy -155982.411276 kJ/mol
# GULP energy per Si atom -5570.800403 kJ/mol
# Density = 2.422093 g / cm^3
# Si number density = 24.276181 Si / 1000 Ang^3
#
#
#
# Elastic Constant Matrix: (Units=GPa)
#
#
# Indices 1 2 3 4 5 6 
#
# 1 41.2817 -8.4777 27.2034 0.0000 0.0000 0.0000
# 2 -8.4777 79.5304 15.8951 0.0000 0.0000 0.0000
# 3 27.2034 15.8951 134.6005 0.0000 0.0000 0.0000
# 4 0.0000 0.0000 0.0000 37.6228 0.0000 0.0000
# 5 0.0000 0.0000 0.0000 0.0000 26.9101 0.0000
# 6 0.0000 0.0000 0.0000 0.0000 0.0000 24.1569
#
#
#
# Elastic Compliance Matrix: (Units=1/GPa)
#
#
# Indices 1 2 3 4 5 6 
#
# 1 0.029391 0.004425 -0.006463 0.000000 0.000000 0.000000
# 2 0.004425 0.013544 -0.002494 0.000000 0.000000 0.000000
# 3 -0.006463 -0.002494 0.009030 0.000000 0.000000 0.000000
# 4 0.000000 0.000000 0.000000 0.026580 0.000000 0.000000
# 5 0.000000 0.000000 0.000000 0.000000 0.037161 0.000000
# 6 0.000000 0.000000 0.000000 0.000000 0.000000 0.041396
#
#
# Mechanical properties :
#
#
# Convention : Reuss Voigt Hill
#
# Bulk Modulus (GPa) = 23.30909 36.07270 29.69090
# Shear Modulus (GPa) = 27.70617 32.45740 30.08179
#
# Velocity S-wave (km/s) = 3.38196 3.66048 3.52397
# Velocity P-wave (km/s) = 4.98726 5.72337 5.36795
#
# Compressibility (1/GPa) = 0.04290171
#
# Stress axis : x y z
#
# Youngs Moduli (GPa) = 34.02392 73.83428 110.74209
#
# Poissons Ratio (x) = -0.32669 0.71568
# Poissons Ratio (y) = -0.15054 0.27615
# Poissons Ratio (z) = 0.21988 0.18412
#
# Static dielectric constant tensor:
#      x y z
#    x 1.941610 0.000000 0.000000 
#    y 0.000000 2.033370 0.000000 
#    z 0.000000 0.000000 1.889410 
# 
# From -- ./inp_files/6969.got.cif
#   From: 2010.05.17/outbox.cif.g08.bks.cpg/sg45_4_cif.got.tgz:6969.got - 2010.06.03 19:51:22.
