data_PCOD9377880
_publ_section_title
;
Structure prediction by ZEFSAII (Michael W. Deem and Ramdas Pophale) SiO2 
 PCOD9377880
Probable space group: I M A 2
;
_chemical_formula_sum "Si O2"
_cell_formula_units_Z 56
_cell_length_a 24.640140
_cell_length_b 23.939738
_cell_length_c 4.842056
_cell_angle_alpha 90.000000
_cell_angle_beta 90.000000
_cell_angle_gamma 90.000000
_cell_volume 2856.224710
_symmetry_space_group_name_H-M "I M A 2"
_symmetry_group_IT_number 46
_symmetry_cell_setting 'orthorhombic'
loop_
_space_group_symop_operation_xyz
x,y,z
-x,-y,z
1/2-x,y,z
1/2+x,-y,z
1/2+x,1/2+y,1/2+z
1/2-x,1/2-y,1/2+z
-x,1/2+y,1/2+z
x,1/2-y,1/2+z
loop_
_atom_site_type_symbol
_atom_site_label
_atom_site_fract_x
_atom_site_fract_y
_atom_site_fract_z
Si Si1 0.750000 0.577873 0.882921
Si Si2 0.573399 0.712155 0.235421
Si Si3 0.865046 0.006341 0.746295
Si Si4 0.526150 0.056793 0.964936
Si Si5 0.521610 0.885166 0.450061
Si Si6 0.250000 0.997701 0.880801
Si Si7 0.191227 0.290496 0.113774
Si Si8 0.865771 0.572616 0.742381
O O1 0.750000 0.521600 0.689635
O O2 0.808717 0.603468 0.809174
O O3 0.750000 0.553537 0.189455
O O4 0.570807 0.768198 0.049405
O O5 0.527092 0.672657 0.114696
O O6 0.632879 0.684265 0.189360
O O7 0.914279 0.044035 0.849055
O O8 0.806021 0.032193 0.807370
O O9 0.868208 0.982955 0.436539
O O10 0.865925 0.950128 0.933155
O O11 0.490305 0.071816 0.697379
O O12 0.500000 0.000000 0.086720
O O13 0.520935 0.103039 0.204598
O O14 0.579565 0.895032 0.305461
O O15 0.250000 0.319064 0.164535
O O16 0.191110 0.234896 0.308054
#
# Coordination Sequence:
#
# PCOD9377880 Si02
#       8
#     4   8   8   8   8   4   8   8
#     4   8  16  26  42  60  90 123 160 203 232 274
#     4  10  21  37  52  67  93 126 161 208 253 288
#     4  10  18  30  48  66  98 129 159 195 235 275
#     4  12  21  33  50  74 103 131 158 202 242 284
#     4  12  22  33  51  74  95 129 170 201 243 300
#     4   8  16  28  44  64  86 131 164 183 230 280
#     4   8  14  27  48  67  84 112 154 203 257 297
#     4  10  17  30  44  67  93 125 165 199 237 284
#
# _framework density 19.606300000000001
#
# number of rings (size 3 to 8) (size 9 to 14) (size 15 to 20)
#    0.000    2.000    2.857    2.143    0.000    0.000 
#    1.286    0.000    0.000    0.000    0.000    0.000 
#    0.000    0.000    0.000   12.857    0.000    0.000 
#
# Total GULP energy -156363.952147 kJ/mol
# GULP energy per Si atom -5584.426862 kJ/mol
# Density = 1.956168 g / cm^3
# Si number density = 19.606300 Si / 1000 Ang^3
#
#
#
# Elastic Constant Matrix: (Units=GPa)
#
#
# Indices 1 2 3 4 5 6 
#
# 1 97.0082 26.9694 3.1638 0.0000 0.0000 0.0000
# 2 26.9694 36.7838 9.1217 0.0000 0.0000 0.0000
# 3 3.1638 9.1217 73.3599 0.0000 0.0000 0.0000
# 4 0.0000 0.0000 0.0000 21.6801 0.0000 0.0000
# 5 0.0000 0.0000 0.0000 0.0000 25.0665 0.0000
# 6 0.0000 0.0000 0.0000 0.0000 0.0000 24.3295
#
#
#
# Elastic Compliance Matrix: (Units=1/GPa)
#
#
# Indices 1 2 3 4 5 6 
#
# 1 0.012977 -0.009674 0.000643 0.000000 0.000000 0.000000
# 2 -0.009674 0.035263 -0.003967 0.000000 0.000000 0.000000
# 3 0.000643 -0.003967 0.014097 0.000000 0.000000 0.000000
# 4 0.000000 0.000000 0.000000 0.046125 0.000000 0.000000
# 5 0.000000 0.000000 0.000000 0.000000 0.039894 0.000000
# 6 0.000000 0.000000 0.000000 0.000000 0.000000 0.041102
#
#
# Mechanical properties :
#
#
# Convention : Reuss Voigt Hill
#
# Bulk Modulus (GPa) = 27.51781 31.74020 29.62900
# Shear Modulus (GPa) = 21.97150 25.40838 23.68994
#
# Velocity S-wave (km/s) = 3.35122 3.60381 3.47981
# Velocity P-wave (km/s) = 5.38887 5.79142 5.59376
#
# Compressibility (1/GPa) = 0.03634011
#
# Stress axis : x y z
#
# Youngs Moduli (GPa) = 77.05990 28.35869 70.93715
#
# Poissons Ratio (x) = 0.27434 -0.04563
# Poissons Ratio (y) = 0.74548 0.28143
# Poissons Ratio (z) = -0.04957 0.11251
#
# Static dielectric constant tensor:
#      x y z
#    x 1.771020 0.000000 0.000000 
#    y 0.000000 1.715960 0.000000 
#    z 0.000000 0.000000 1.710760 
# 
# From -- ./inp_files/2382.got.cif
#   From: 2010.05.17/outbox.cif.g08.bks.cpg/sg46_2_cif.got.tgz:2382.got - 2010.06.03 19:58:25.
