data_PCOD9377417
_publ_section_title
;
Structure prediction by ZEFSAII (Michael W. Deem and Ramdas Pophale) SiO2 
 PCOD9377417
Probable space group: I B A 2
;
_chemical_formula_sum "Si O2"
_cell_formula_units_Z 60
_cell_length_a 8.874931
_cell_length_b 23.971581
_cell_length_c 13.129003
_cell_angle_alpha 90.000000
_cell_angle_beta 90.000000
_cell_angle_gamma 90.000000
_cell_volume 2793.144544
_symmetry_space_group_name_H-M "I B A 2"
_symmetry_group_IT_number 45
_symmetry_cell_setting 'orthorhombic'
loop_
_space_group_symop_operation_xyz
x,y,z
-x,-y,z
-x,y,1/2+z
x,-y,1/2+z
1/2+x,1/2+y,1/2+z
1/2-x,1/2-y,1/2+z
1/2-x,1/2+y,z
1/2+x,1/2-y,z
loop_
_atom_site_type_symbol
_atom_site_label
_atom_site_fract_x
_atom_site_fract_y
_atom_site_fract_z
Si Si1 0.993669 0.635103 0.281800
Si Si2 0.000000 0.500000 0.610748
Si Si3 0.828803 0.551674 0.432576
Si Si4 0.084396 0.182112 0.465298
Si Si5 0.148442 0.253297 0.860674
Si Si6 0.789167 0.534607 0.771782
Si Si7 0.196638 0.839885 0.191050
Si Si8 0.016813 0.079713 0.838635
O O1 0.050942 0.693792 0.324348
O O2 0.129982 0.593706 0.253044
O O3 0.901744 0.602040 0.369228
O O4 0.873673 0.645299 0.191979
O O5 0.080679 0.454899 0.537434
O O6 0.140792 0.508637 0.688987
O O7 0.844121 0.491707 0.377537
O O8 0.647049 0.559639 0.418375
O O9 0.203214 0.221117 0.408674
O O10 0.130200 0.171776 0.580731
O O11 0.928529 0.214328 0.445997
O O12 0.077078 0.124333 0.404278
O O13 0.178087 0.213884 0.763933
O O14 0.611192 0.541814 0.785026
O O15 0.105345 0.888748 0.248467
#
# Coordination Sequence:
#
# PCOD9377417 Si02
#       8
#     8   4   8   8   8   8   8   8
#     4  11  21  44  66  87 137 181 218 292 346 410
#     4  12  24  42  78 102 138 184 246 282 360 428
#     4  11  24  48  65 100 143 179 229 297 353 428
#     4  11  24  43  68 102 135 189 232 283 367 421
#     4  11  23  43  63  96 139 174 231 295 341 422
#     4  12  23  45  69 103 138 179 233 300 346 420
#     4  10  25  43  64  99 138 181 234 281 354 428
#     4  10  25  45  69  99 149 177 230 302 356 419
#
# _framework density 21.481164
#
# number of rings (size 3 to 8) (size 9 to 14) (size 15 to 20)
#    0.000    1.067    5.333    0.400    3.733    2.133 
#    0.000    1.333    0.000    0.000    0.000    0.000 
#    0.000    0.000    0.000    0.000    0.000    0.000 
#
# Total GULP energy -167339.365635 kJ/mol
# GULP energy per Si atom -5577.978854 kJ/mol
# Density = 2.143227 g / cm^3
# Si number density = 21.481164 Si / 1000 Ang^3
#
#
#
# Elastic Constant Matrix: (Units=GPa)
#
#
# Indices 1 2 3 4 5 6 
#
# 1 142.2024 47.6328 43.5703 0.0000 0.0000 0.0000
# 2 47.6328 78.3586 24.3638 0.0000 0.0000 0.0000
# 3 43.5703 24.3638 86.1169 0.0001 0.0000 0.0000
# 4 0.0000 0.0000 0.0001 21.3757 0.0000 0.0000
# 5 0.0000 0.0000 0.0000 0.0000 21.9301 0.0000
# 6 0.0000 0.0000 0.0000 0.0000 0.0000 50.3673
#
#
#
# Elastic Compliance Matrix: (Units=1/GPa)
#
#
# Indices 1 2 3 4 5 6 
#
# 1 0.009736 -0.004810 -0.003565 0.000000 0.000000 0.000000
# 2 -0.004810 0.016369 -0.002198 0.000000 0.000000 0.000000
# 3 -0.003565 -0.002198 0.014037 0.000000 0.000000 0.000000
# 4 0.000000 0.000000 0.000000 0.046782 0.000000 0.000000
# 5 0.000000 0.000000 0.000000 0.000000 0.045599 0.000000
# 6 0.000000 0.000000 0.000000 0.000000 0.000000 0.019854
#
#
# Mechanical properties :
#
#
# Convention : Reuss Voigt Hill
#
# Bulk Modulus (GPa) = 52.63826 59.75685 56.19756
# Shear Modulus (GPa) = 27.80026 31.47536 29.63781
#
# Velocity S-wave (km/s) = 3.60136 3.83202 3.71848
# Velocity P-wave (km/s) = 6.46921 6.88896 6.68238
#
# Compressibility (1/GPa) = 0.01899759
#
# Stress axis : x y z
#
# Youngs Moduli (GPa) = 102.71610 61.09169 71.23777
#
# Poissons Ratio (x) = 0.29383 0.25396
# Poissons Ratio (y) = 0.49403 0.15655
# Poissons Ratio (z) = 0.36617 0.13425
#
# Static dielectric constant tensor:
#      x y z
#    x 1.844350 0.000000 0.000000 
#    y 0.000000 1.810740 0.000000 
#    z 0.000000 0.000000 1.741960 
# 
# From -- ./inp_files/3345.got.cif
#   From: 2010.05.17/outbox.cif.g08.bks.cpg/sg45_2_cif.got.tgz:3345.got - 2010.06.03 19:51:22.
