data_PCOD9377104
_publ_section_title
;
Structure prediction by ZEFSAII (Michael W. Deem and Ramdas Pophale) SiO2 
 PCOD9377104
Probable space group: I B A 2
;
_chemical_formula_sum "Si O2"
_cell_formula_units_Z 56
_cell_length_a 18.238868
_cell_length_b 14.824360
_cell_length_c 8.885517
_cell_angle_alpha 90.000000
_cell_angle_beta 90.000000
_cell_angle_gamma 90.000000
_cell_volume 2402.462046
_symmetry_space_group_name_H-M "I B A 2"
_symmetry_group_IT_number 45
_symmetry_cell_setting 'orthorhombic'
loop_
_space_group_symop_operation_xyz
x,y,z
-x,-y,z
-x,y,1/2+z
x,-y,1/2+z
1/2+x,1/2+y,1/2+z
1/2-x,1/2-y,1/2+z
1/2-x,1/2+y,z
1/2+x,1/2-y,z
loop_
_atom_site_type_symbol
_atom_site_label
_atom_site_fract_x
_atom_site_fract_y
_atom_site_fract_z
Si Si1 0.970572 0.867369 0.526240
Si Si2 0.253316 0.628112 0.015335
Si Si3 0.500000 0.000000 0.978883
Si Si4 0.612851 0.262919 0.077062
Si Si5 0.911343 0.680739 0.409367
Si Si6 0.360403 0.915261 0.995242
Si Si7 0.233286 0.479822 0.251134
Si Si8 0.000000 0.000000 0.273531
O O1 0.057311 0.843273 0.541004
O O2 0.936646 0.767495 0.508740
O O3 0.953635 0.932485 0.666814
O O4 0.957058 0.930526 0.381741
O O5 0.168613 0.651323 0.975391
O O6 0.281183 0.577311 0.865583
O O7 0.303114 0.709941 0.061324
O O8 0.264341 0.559413 0.151868
O O9 0.465757 0.093014 0.906517
O O10 0.571060 0.032264 0.066019
O O11 0.594850 0.221392 0.240694
O O12 0.608600 0.182107 0.956307
O O13 0.301045 0.914001 0.126714
O O14 0.327055 0.969729 0.856527
#
# Coordination Sequence:
#
# PCOD9377104 Si02
#       8
#     8   8   4   8   8   8   8   4
#     4  11  24  48  76 106 142 189 262 312 386 444
#     4  11  26  46  69 103 155 192 251 310 375 463
#     4  12  22  42  80 110 162 190 244 324 384 476
#     4  12  26  44  71 109 146 193 254 312 376 463
#     4  12  25  47  74 119 150 200 248 319 393 470
#     4  11  22  40  69 106 148 189 241 299 386 446
#     4  10  22  44  64 100 141 199 244 287 381 452
#     4  10  24  48  74  98 140 188 246 324 360 434
#
# _framework density 23.309422000000001
#
# number of rings (size 3 to 8) (size 9 to 14) (size 15 to 20)
#    0.000    0.857    7.143    0.000    2.000    5.714 
#    0.000    0.000    0.000    0.000    0.000    0.000 
#    0.000    0.000    0.000    0.000    0.000    0.000 
#
# Total GULP energy -156059.483226 kJ/mol
# GULP energy per Si atom -5573.552972 kJ/mol
# Density = 2.325637 g / cm^3
# Si number density = 23.309422 Si / 1000 Ang^3
#
#
#
# Elastic Constant Matrix: (Units=GPa)
#
#
# Indices 1 2 3 4 5 6 
#
# 1 56.9953 42.3505 19.1009 0.0000 0.0000 0.0000
# 2 42.3505 159.9409 46.9446 0.0000 0.0000 0.0000
# 3 19.1009 46.9446 94.8714 0.0000 0.0000 0.0000
# 4 0.0000 0.0000 0.0000 38.3954 0.0000 0.0000
# 5 0.0000 0.0000 0.0000 0.0000 11.5510 0.0000
# 6 0.0000 0.0000 0.0000 0.0000 0.0000 39.4604
#
#
#
# Elastic Compliance Matrix: (Units=1/GPa)
#
#
# Indices 1 2 3 4 5 6 
#
# 1 0.022108 -0.005320 -0.001819 0.000000 0.000000 0.000000
# 2 -0.005320 0.008595 -0.003182 0.000000 0.000000 0.000000
# 3 -0.001819 -0.003182 0.012481 0.000000 0.000000 0.000000
# 4 0.000000 0.000000 0.000000 0.026045 0.000000 0.000000
# 5 0.000000 0.000000 0.000000 0.000000 0.086572 0.000000
# 6 0.000000 0.000000 0.000000 0.000000 0.000000 0.025342
#
#
# Mechanical properties :
#
#
# Convention : Reuss Voigt Hill
#
# Bulk Modulus (GPa) = 44.35983 58.73329 51.54656
# Shear Modulus (GPa) = 23.88934 31.44214 27.66574
#
# Velocity S-wave (km/s) = 3.20485 3.67673 3.44887
# Velocity P-wave (km/s) = 5.72424 6.57848 6.16617
#
# Compressibility (1/GPa) = 0.02254292
#
# Stress axis : x y z
#
# Youngs Moduli (GPa) = 45.23263 116.34763 80.12069
#
# Poissons Ratio (x) = 0.61899 0.14570
# Poissons Ratio (y) = 0.24064 0.25493
# Poissons Ratio (z) = 0.08226 0.37020
#
# Static dielectric constant tensor:
#      x y z
#    x 2.147660 0.000000 0.000000 
#    y 0.000000 1.971120 0.000000 
#    z 0.000000 0.000000 1.878480 
# 
# From -- ./inp_files/2354.got.cif
#   From: 2010.05.17/outbox.cif.g08.bks.cpg/sg45_2_cif.got.tgz:2354.got - 2010.06.03 19:51:22.
