data_PCOD9377051
_publ_section_title
;
Structure prediction by ZEFSAII (Michael W. Deem and Ramdas Pophale) SiO2 
 PCOD9377051
Probable space group: I B A 2
;
_chemical_formula_sum "Si O2"
_cell_formula_units_Z 48
_cell_length_a 8.612712
_cell_length_b 14.387779
_cell_length_c 17.009497
_cell_angle_alpha 90.000000
_cell_angle_beta 90.000000
_cell_angle_gamma 90.000000
_cell_volume 2107.779394
_symmetry_space_group_name_H-M "I B A 2"
_symmetry_group_IT_number 45
_symmetry_cell_setting 'orthorhombic'
loop_
_space_group_symop_operation_xyz
x,y,z
-x,-y,z
-x,y,1/2+z
x,-y,1/2+z
1/2+x,1/2+y,1/2+z
1/2-x,1/2-y,1/2+z
1/2-x,1/2+y,z
1/2+x,1/2-y,z
loop_
_atom_site_type_symbol
_atom_site_label
_atom_site_fract_x
_atom_site_fract_y
_atom_site_fract_z
Si Si1 0.500343 0.684601 0.903840
Si Si2 0.246546 0.459838 0.469627
Si Si3 0.389258 0.303907 0.647101
Si Si4 0.802830 0.670750 0.803947
Si Si5 0.000000 0.500000 0.335765
Si Si6 0.600932 0.805510 0.052997
Si Si7 0.500000 0.500000 0.581742
O O1 0.382232 0.607576 0.935939
O O2 0.661628 0.648487 0.865773
O O3 0.403314 0.745581 0.840903
O O4 0.547134 0.750801 0.976195
O O5 0.121112 0.411320 0.527663
O O6 0.350473 0.524347 0.526760
O O7 0.143473 0.480170 0.394051
O O8 0.295009 0.303515 0.726995
O O9 0.513038 0.223895 0.631835
O O10 0.275693 0.280707 0.575038
O O11 0.458020 0.407470 0.631172
O O12 0.927069 0.587643 0.790106
#
# Coordination Sequence:
#
# PCOD9377051 Si02
#       7
#     8   8   8   8   4   8   4
#     4  12  21  44  73  99 130 178 239 288 335 412
#     4  11  23  39  70 101 130 175 232 295 330 405
#     4  11  25  40  67  97 139 178 219 284 346 415
#     4  12  25  43  67 103 141 181 226 283 358 414
#     4  12  26  40  66 102 140 178 226 284 352 416
#     4  11  20  42  69  97 122 175 236 278 330 399
#     4  10  22  42  62  98 138 178 222 272 370 400
#
# _framework density 22.772780999999998
#
# number of rings (size 3 to 8) (size 9 to 14) (size 15 to 20)
#    0.000    0.667    6.667    2.000    0.000    1.333 
#    0.000    6.667    0.000    0.000    0.000    0.000 
#    0.000    0.000    0.000    0.000    0.000    0.000 
#
# Total GULP energy -133832.161532 kJ/mol
# GULP energy per Si atom -5576.340064 kJ/mol
# Density = 2.272095 g / cm^3
# Si number density = 22.772781 Si / 1000 Ang^3
#
#
#
# Elastic Constant Matrix: (Units=GPa)
#
#
# Indices 1 2 3 4 5 6 
#
# 1 116.7410 56.2227 51.8539 0.0000 0.0000 0.0000
# 2 56.2227 58.4191 33.5232 0.0000 0.0000 0.0000
# 3 51.8539 33.5232 109.3842 0.0000 0.0000 0.0000
# 4 0.0000 0.0000 0.0000 20.0881 0.0000 0.0000
# 5 0.0000 0.0000 0.0000 0.0000 30.3385 0.0000
# 6 0.0000 0.0000 0.0000 0.0000 0.0000 54.4557
#
#
#
# Elastic Compliance Matrix: (Units=1/GPa)
#
#
# Indices 1 2 3 4 5 6 
#
# 1 0.017131 -0.014350 -0.003723 0.000000 0.000000 0.000000
# 2 -0.014350 0.032792 -0.003247 0.000000 0.000000 0.000000
# 3 -0.003723 -0.003247 0.011902 0.000000 0.000000 0.000000
# 4 0.000000 0.000000 0.000000 0.049781 0.000000 0.000000
# 5 0.000000 0.000000 0.000000 0.000000 0.032961 0.000000
# 6 0.000000 0.000000 0.000000 0.000000 0.000000 0.018364
#
#
# Mechanical properties :
#
#
# Convention : Reuss Voigt Hill
#
# Bulk Modulus (GPa) = 52.12630 63.08264 57.60447
# Shear Modulus (GPa) = 23.58877 30.50609 27.04743
#
# Velocity S-wave (km/s) = 3.22193 3.66401 3.45005
# Velocity P-wave (km/s) = 6.06469 6.75729 6.42034
#
# Compressibility (1/GPa) = 0.01918417
#
# Stress axis : x y z
#
# Youngs Moduli (GPa) = 58.37454 30.49549 84.01920
#
# Poissons Ratio (x) = 0.43762 0.31280
# Poissons Ratio (y) = 0.83769 0.27280
# Poissons Ratio (z) = 0.21732 0.09902
#
# Static dielectric constant tensor:
#      x y z
#    x 1.983270 0.000000 0.000000 
#    y 0.000000 2.007660 0.000000 
#    z 0.000000 0.000000 1.890310 
# 
# From -- ./inp_files/7602.got.cif
#   From: 2010.05.17/outbox.cif.g08.bks.cpg/sg45_4_cif.got.tgz:7602.got - 2010.06.03 19:51:22.
