data_PCOD9377938
_publ_section_title
;
Structure prediction by ZEFSAII (Michael W. Deem and Ramdas Pophale) SiO2 
 PCOD9377938
Probable space group: I M A 2
;
_chemical_formula_sum "Si O2"
_cell_formula_units_Z 64
_cell_length_a 8.762709
_cell_length_b 27.318331
_cell_length_c 18.986521
_cell_angle_alpha 90.000000
_cell_angle_beta 90.000000
_cell_angle_gamma 90.000000
_cell_volume 4545.042476
_symmetry_space_group_name_H-M "I M A 2"
_symmetry_group_IT_number 46
_symmetry_cell_setting 'orthorhombic'
loop_
_space_group_symop_operation_xyz
x,y,z
-x,-y,z
1/2-x,y,z
1/2+x,-y,z
1/2+x,1/2+y,1/2+z
1/2-x,1/2-y,1/2+z
-x,1/2+y,1/2+z
x,1/2-y,1/2+z
loop_
_atom_site_type_symbol
_atom_site_label
_atom_site_fract_x
_atom_site_fract_y
_atom_site_fract_z
Si Si1 0.565080 0.246089 0.132760
Si Si2 0.932046 0.754502 0.978102
Si Si3 0.573297 0.299117 0.852411
Si Si4 0.065792 0.447530 0.477713
Si Si5 0.066996 0.351587 0.393971
Si Si6 0.564223 0.351032 0.716968
Si Si7 0.934121 0.052429 0.134023
Si Si8 0.925937 0.302938 0.264724
O O1 0.750000 0.246556 0.132533
O O2 0.516540 0.193641 0.165794
O O3 0.514299 0.288408 0.187500
O O4 0.504117 0.251998 0.054526
O O5 0.750000 0.755824 0.983901
O O6 0.984787 0.806373 0.943770
O O7 0.981441 0.712796 0.922700
O O8 0.750000 0.309392 0.870259
O O9 0.513694 0.339193 0.796731
O O10 0.571560 0.248896 0.806636
O O11 0.250000 0.449748 0.481187
O O12 0.018589 0.403093 0.427022
O O13 0.000000 0.500000 0.454853
O O14 0.000311 0.438234 0.555938
O O15 0.250000 0.350533 0.394200
O O16 0.011696 0.340516 0.315105
O O17 0.750000 0.349342 0.718989
O O18 0.520167 0.402955 0.684688
O O19 0.750000 0.050144 0.130193
O O20 0.000000 0.000000 0.157031
O O21 0.750000 0.318212 0.258593
#
# Coordination Sequence:
#
# PCOD9377938 Si02
#       8
#     8   8   8   8   8   8   8   8
#     4   9  16  27  41  58  78 103 134 165 191 224
#     4  10  18  26  37  58  83 106 130 158 193 235
#     4   8  14  27  42  55  73 100 131 164 194 225
#     4  10  19  30  41  56  78 105 135 167 197 228
#     4   9  18  29  40  55  79 106 132 161 197 234
#     4   8  15  27  43  58  74 101 138 168 193 226
#     4  10  18  28  41  58  79 104 133 167 200 231
#     4   8  15  26  41  58  75  97 130 164 193 227
#
# _framework density 14.081275
#
# number of rings (size 3 to 8) (size 9 to 14) (size 15 to 20)
#    0.000    3.000    0.000    4.125    0.000    2.000 
#    0.000    3.750    0.000    0.000    0.000    0.000 
#    0.000    1.000    0.000    9.000    0.000    5.375 
#
# Total GULP energy -178146.268224 kJ/mol
# GULP energy per Si atom -5567.070882 kJ/mol
# Density = 1.404923 g / cm^3
# Si number density = 14.081275 Si / 1000 Ang^3
#
#
#
# Elastic Constant Matrix: (Units=GPa)
#
#
# Indices 1 2 3 4 5 6 
#
# 1 26.0946 24.1597 27.1137 0.0000 0.0000 0.0000
# 2 24.1597 95.7112 65.6575 0.0000 0.0000 0.0000
# 3 27.1137 65.6575 119.6463 0.0001 0.0000 0.0000
# 4 0.0000 0.0000 0.0001 27.7178 0.0000 0.0000
# 5 0.0000 0.0000 0.0000 0.0000 18.0806 0.0000
# 6 0.0000 0.0000 0.0000 0.0000 0.0000 16.2398
#
#
#
# Elastic Compliance Matrix: (Units=1/GPa)
#
#
# Indices 1 2 3 4 5 6 
#
# 1 0.054033 -0.008402 -0.007634 0.000000 0.000000 0.000000
# 2 -0.008402 0.018062 -0.008008 0.000000 0.000000 0.000000
# 3 -0.007634 -0.008008 0.014482 0.000000 0.000000 0.000000
# 4 0.000000 0.000000 0.000000 0.036078 0.000000 0.000000
# 5 0.000000 0.000000 0.000000 0.000000 0.055308 0.000000
# 6 0.000000 0.000000 0.000000 0.000000 0.000000 0.061577
#
#
# Mechanical properties :
#
#
# Convention : Reuss Voigt Hill
#
# Bulk Modulus (GPa) = 25.98088 52.81265 39.39677
# Shear Modulus (GPa) = 16.64117 20.70905 18.67511
#
# Velocity S-wave (km/s) = 3.44145 3.83911 3.64571
# Velocity P-wave (km/s) = 5.85510 7.56562 6.76464
#
# Compressibility (1/GPa) = 0.03848984
#
# Stress axis : x y z
#
# Youngs Moduli (GPa) = 18.50706 55.36352 69.04960
#
# Poissons Ratio (x) = 0.46519 0.52711
# Poissons Ratio (y) = 0.15551 0.55294
# Poissons Ratio (z) = 0.14128 0.44334
#
# Static dielectric constant tensor:
#      x y z
#    x 1.477650 0.000000 0.000000 
#    y 0.000000 1.461100 0.000000 
#    z 0.000000 0.000000 1.460980 
# 
# From -- ./inp_files/18676.got.cif
#   From: 2010.05.17/outbox.cif.g08.bks.cpg/sg46_10_cif.got.tgz:18676.got - 2010.06.03 19:58:25.
