data_PCOD9377174
_publ_section_title
;
Structure prediction by ZEFSAII (Michael W. Deem and Ramdas Pophale) SiO2 
 PCOD9377174
Probable space group: I B A 2
;
_chemical_formula_sum "Si O2"
_cell_formula_units_Z 40
_cell_length_a 23.568380
_cell_length_b 5.100596
_cell_length_c 13.169285
_cell_angle_alpha 90.000000
_cell_angle_beta 90.000000
_cell_angle_gamma 90.000000
_cell_volume 1583.116423
_symmetry_space_group_name_H-M "I B A 2"
_symmetry_group_IT_number 45
_symmetry_cell_setting 'orthorhombic'
loop_
_space_group_symop_operation_xyz
x,y,z
-x,-y,z
-x,y,1/2+z
x,-y,1/2+z
1/2+x,1/2+y,1/2+z
1/2-x,1/2-y,1/2+z
1/2-x,1/2+y,z
1/2+x,1/2-y,z
loop_
_atom_site_type_symbol
_atom_site_label
_atom_site_fract_x
_atom_site_fract_y
_atom_site_fract_z
Si Si1 0.500000 0.000000 0.545120
Si Si2 0.846369 0.778160 0.867260
Si Si3 0.815925 0.550236 0.078463
Si Si4 0.689976 0.550812 0.162689
Si Si5 0.580874 0.212582 0.365768
Si Si6 0.000000 0.000000 0.699015
O O1 0.451377 0.916002 0.462598
O O2 0.497894 0.747022 0.619901
O O3 0.804262 0.858400 0.777433
O O4 0.887310 0.548887 0.825440
O O5 0.877393 0.048142 0.896551
O O6 0.817889 0.648659 0.964703
O O7 0.751234 0.500623 0.113597
O O8 0.843075 0.272990 0.101870
O O9 0.841230 0.777056 0.148615
O O10 0.543139 0.364292 0.281800
#
# Coordination Sequence:
#
# PCOD9377174 Si02
#       6
#     4   8   8   8   8   4
#     4  12  26  48  76 102 146 192 230 302 380 444
#     4  12  25  42  69 102 144 184 240 310 344 428
#     4  10  23  41  64  95 134 185 239 289 359 420
#     4  10  23  41  64  95 134 185 239 289 359 420
#     4  12  27  46  71 110 140 182 248 296 370 446
#     4  12  26  48  76 102 146 192 230 302 380 444
#
# _framework density 25.266621000000001
#
# number of rings (size 3 to 8) (size 9 to 14) (size 15 to 20)
#    0.000    0.800    0.000    7.200    0.000   16.000 
#    0.000    0.000    0.000    0.000    0.000    0.000 
#    0.000    0.000    0.000    0.000    0.000    0.000 
#
# Total GULP energy -111557.445307 kJ/mol
# GULP energy per Si atom -5577.872265 kJ/mol
# Density = 2.520911 g / cm^3
# Si number density = 25.266621 Si / 1000 Ang^3
#
#
#
# Elastic Constant Matrix: (Units=GPa)
#
#
# Indices 1 2 3 4 5 6 
#
# 1 46.5182 1.0471 19.8726 0.0000 0.0000 0.0000
# 2 1.0471 188.2681 -0.3741 0.0000 0.0000 0.0000
# 3 19.8726 -0.3741 123.5236 0.0000 0.0000 0.0000
# 4 0.0000 0.0000 0.0000 65.0734 0.0000 0.0000
# 5 0.0000 0.0000 0.0000 0.0000 46.5870 0.0000
# 6 0.0000 0.0000 0.0000 0.0000 0.0000 29.9697
#
#
#
# Elastic Compliance Matrix: (Units=1/GPa)
#
#
# Indices 1 2 3 4 5 6 
#
# 1 0.023087 -0.000136 -0.003715 0.000000 0.000000 0.000000
# 2 -0.000136 0.005312 0.000038 0.000000 0.000000 0.000000
# 3 -0.003715 0.000038 0.008693 0.000000 0.000000 0.000000
# 4 0.000000 0.000000 0.000000 0.015367 0.000000 0.000000
# 5 0.000000 0.000000 0.000000 0.000000 0.021465 0.000000
# 6 0.000000 0.000000 0.000000 0.000000 0.000000 0.033367
#
#
# Mechanical properties :
#
#
# Convention : Reuss Voigt Hill
#
# Bulk Modulus (GPa) = 33.93548 44.37788 39.15668
# Shear Modulus (GPa) = 40.08343 50.84364 45.46353
#
# Velocity S-wave (km/s) = 3.98731 4.49072 4.24648
# Velocity P-wave (km/s) = 5.88713 6.67013 6.29082
#
# Compressibility (1/GPa) = 0.02946769
#
# Stress axis : x y z
#
# Youngs Moduli (GPa) = 43.31454 188.23865 115.03043
#
# Poissons Ratio (x) = 0.02556 0.42730
# Poissons Ratio (y) = 0.00588 -0.00436
# Poissons Ratio (z) = 0.16090 -0.00714
#
# Static dielectric constant tensor:
#      x y z
#    x 1.093960 0.000000 0.000000 
#    y 0.000000 2.142460 0.000000 
#    z 0.000000 0.000000 2.012850 
# 
# From -- ./inp_files/4832.got.cif
#   From: 2010.05.17/outbox.cif.g08.bks.cpg/sg45_3_cif.got.tgz:4832.got - 2010.06.03 19:51:22.
