data_PCOD9377300
_publ_section_title
;
Structure prediction by ZEFSAII (Michael W. Deem and Ramdas Pophale) SiO2 
 PCOD9377300
Probable space group: I B A 2
;
_chemical_formula_sum "Si O2"
_cell_formula_units_Z 44
_cell_length_a 16.684835
_cell_length_b 13.386048
_cell_length_c 8.586236
_cell_angle_alpha 90.000000
_cell_angle_beta 90.000000
_cell_angle_gamma 90.000000
_cell_volume 1917.684312
_symmetry_space_group_name_H-M "I B A 2"
_symmetry_group_IT_number 45
_symmetry_cell_setting 'orthorhombic'
loop_
_space_group_symop_operation_xyz
x,y,z
-x,-y,z
-x,y,1/2+z
x,-y,1/2+z
1/2+x,1/2+y,1/2+z
1/2-x,1/2-y,1/2+z
1/2-x,1/2+y,z
1/2+x,1/2-y,z
loop_
_atom_site_type_symbol
_atom_site_label
_atom_site_fract_x
_atom_site_fract_y
_atom_site_fract_z
Si Si1 0.117995 0.590990 0.318100
Si Si2 0.569445 0.633982 0.660845
Si Si3 0.745929 0.709263 0.668947
Si Si4 0.000000 0.000000 0.421268
Si Si5 0.671512 0.134665 0.352656
Si Si6 0.515878 0.168138 0.532110
O O1 0.187174 0.672662 0.291164
O O2 0.157550 0.482820 0.333607
O O3 0.060698 0.606256 0.167328
O O4 0.061312 0.612423 0.464199
O O5 0.529651 0.588445 0.812877
O O6 0.566933 0.546352 0.532287
O O7 0.660703 0.658275 0.694294
O O8 0.516558 0.726269 0.596117
O O9 0.720488 0.823077 0.704808
O O10 0.779216 0.673704 0.502837
O O11 0.582130 0.177004 0.393590
#
# Coordination Sequence:
#
# PCOD9377300 Si02
#       6
#     8   8   8   4   8   8
#     4  11  26  46  73 109 141 195 236 303 366 438
#     4  11  23  44  68 103 139 190 235 305 343 434
#     4  11  26  44  68 104 148 186 240 298 363 429
#     4  10  24  42  70 100 136 192 250 276 360 424
#     4  11  26  46  70 107 142 196 234 302 365 435
#     4  11  24  46  75 102 145 183 249 302 362 429
#
# _framework density 22.94434
#
# number of rings (size 3 to 8) (size 9 to 14) (size 15 to 20)
#    0.000    1.091    0.000    4.909    2.545   14.545 
#    6.545    0.000    0.000    0.000    0.000    0.000 
#    0.000    0.000    0.000    0.000    0.000    0.000 
#
# Total GULP energy -123066.539420 kJ/mol
# GULP energy per Si atom -5593.933610 kJ/mol
# Density = 2.289212 g / cm^3
# Si number density = 22.944340 Si / 1000 Ang^3
#
#
#
# Elastic Constant Matrix: (Units=GPa)
#
#
# Indices 1 2 3 4 5 6 
#
# 1 110.0583 40.9819 15.3096 0.0000 0.0000 0.0000
# 2 40.9819 129.1065 45.2799 0.0000 0.0000 0.0000
# 3 15.3096 45.2799 72.9175 0.0000 0.0000 0.0000
# 4 0.0000 0.0000 0.0000 38.8458 0.0000 0.0000
# 5 0.0000 0.0000 0.0000 0.0000 42.4923 0.0000
# 6 0.0000 0.0000 0.0000 0.0000 0.0000 28.2674
#
#
#
# Elastic Compliance Matrix: (Units=1/GPa)
#
#
# Indices 1 2 3 4 5 6 
#
# 1 0.010306 -0.003212 -0.000169 0.000000 0.000000 0.000000
# 2 -0.003212 0.010903 -0.006096 0.000000 0.000000 0.000000
# 3 -0.000169 -0.006096 0.017535 0.000000 0.000000 0.000000
# 4 0.000000 0.000000 0.000000 0.025743 0.000000 0.000000
# 5 0.000000 0.000000 0.000000 0.000000 0.023534 0.000000
# 6 0.000000 0.000000 0.000000 0.000000 0.000000 0.035376
#
#
# Mechanical properties :
#
#
# Convention : Reuss Voigt Hill
#
# Bulk Modulus (GPa) = 50.53234 57.24725 53.88980
# Shear Modulus (GPa) = 33.56874 35.95518 34.76196
#
# Velocity S-wave (km/s) = 3.82913 3.96291 3.89659
# Velocity P-wave (km/s) = 6.45146 6.77821 6.61686
#
# Compressibility (1/GPa) = 0.01978931
#
# Stress axis : x y z
#
# Youngs Moduli (GPa) = 97.03420 91.71667 57.02798
#
# Poissons Ratio (x) = 0.29459 0.00965
# Poissons Ratio (y) = 0.31167 0.34765
# Poissons Ratio (z) = 0.01642 0.55912
#
# Static dielectric constant tensor:
#      x y z
#    x 1.826770 0.000000 0.000000 
#    y 0.000000 1.882780 0.000000 
#    z 0.000000 0.000000 1.919700 
# 
# From -- ./inp_files/1862.got.cif
#   From: 2010.05.17/outbox.cif.g08.bks.cpg/sg45_1_cif.got.tgz:1862.got - 2010.06.03 19:51:22.
