data_PCOD9377405
_publ_section_title
;
Structure prediction by ZEFSAII (Michael W. Deem and Ramdas Pophale) SiO2 
 PCOD9377405
Probable space group: I B A 2
;
_chemical_formula_sum "Si O2"
_cell_formula_units_Z 44
_cell_length_a 25.453776
_cell_length_b 7.991350
_cell_length_c 8.977074
_cell_angle_alpha 90.000000
_cell_angle_beta 90.000000
_cell_angle_gamma 90.000000
_cell_volume 1826.026917
_symmetry_space_group_name_H-M "I B A 2"
_symmetry_group_IT_number 45
_symmetry_cell_setting 'orthorhombic'
loop_
_space_group_symop_operation_xyz
x,y,z
-x,-y,z
-x,y,1/2+z
x,-y,1/2+z
1/2+x,1/2+y,1/2+z
1/2-x,1/2-y,1/2+z
1/2-x,1/2+y,z
1/2+x,1/2-y,z
loop_
_atom_site_type_symbol
_atom_site_label
_atom_site_fract_x
_atom_site_fract_y
_atom_site_fract_z
Si Si1 0.830387 0.329113 0.554510
Si Si2 0.642012 0.729556 0.255670
Si Si3 0.500000 0.000000 0.269493
Si Si4 0.634602 0.351734 0.333788
Si Si5 0.720225 0.190414 0.544124
Si Si6 0.940686 0.322254 0.025845
O O1 0.869049 0.295453 0.419040
O O2 0.859394 0.290746 0.708008
O O3 0.782404 0.198145 0.539097
O O4 0.800707 0.502793 0.527783
O O5 0.632970 0.531710 0.256476
O O6 0.702389 0.756362 0.210071
O O7 0.609474 0.837129 0.135694
O O8 0.455974 0.941216 0.387997
O O9 0.514792 0.850202 0.153111
O O10 0.686027 0.312311 0.436368
O O11 0.581743 0.336749 0.433644
#
# Coordination Sequence:
#
# PCOD9377405 Si02
#       6
#     8   8   4   8   8   8
#     4  12  23  39  66  97 145 194 241 294 333 411
#     4  11  24  42  66 100 144 188 238 287 348 420
#     4  10  24  50  78 106 140 162 234 306 348 462
#     4  11  24  42  66 100 144 188 238 287 348 420
#     4  11  24  40  61  99 141 195 245 283 344 391
#     4  10  25  45  74 104 133 178 220 291 366 414
#
# _framework density 24.096031
#
# number of rings (size 3 to 8) (size 9 to 14) (size 15 to 20)
#    0.000    1.091    0.000    6.545   10.182    1.455 
#    0.000    2.727    0.000    0.000    0.000    0.000 
#    0.000    0.000    0.000    0.000    0.000    0.000 
#
# Total GULP energy -122548.891263 kJ/mol
# GULP energy per Si atom -5570.404148 kJ/mol
# Density = 2.404119 g / cm^3
# Si number density = 24.096031 Si / 1000 Ang^3
#
#
#
# Elastic Constant Matrix: (Units=GPa)
#
#
# Indices 1 2 3 4 5 6 
#
# 1 61.5017 30.5182 41.4973 0.0000 0.0000 0.0000
# 2 30.5182 106.7920 16.1300 0.0000 0.0000 0.0000
# 3 41.4973 16.1300 149.1449 0.0000 0.0000 0.0000
# 4 0.0000 0.0000 0.0000 7.7608 0.0000 0.0000
# 5 0.0000 0.0000 0.0000 0.0000 38.1839 0.0000
# 6 0.0000 0.0000 0.0000 0.0000 0.0000 19.8716
#
#
#
# Elastic Compliance Matrix: (Units=1/GPa)
#
#
# Indices 1 2 3 4 5 6 
#
# 1 0.022986 -0.005696 -0.005779 0.000000 0.000000 0.000000
# 2 -0.005696 0.010931 0.000403 0.000000 0.000000 0.000000
# 3 -0.005779 0.000403 0.008269 0.000000 0.000000 0.000000
# 4 0.000000 0.000000 0.000000 0.128853 0.000000 0.000000
# 5 0.000000 0.000000 0.000000 0.000000 0.026189 0.000000
# 6 0.000000 0.000000 0.000000 0.000000 0.000000 0.050323
#
#
# Mechanical properties :
#
#
# Convention : Reuss Voigt Hill
#
# Bulk Modulus (GPa) = 49.89835 54.85886 52.37861
# Shear Modulus (GPa) = 18.09127 28.44947 23.27037
#
# Velocity S-wave (km/s) = 2.74304 3.43982 3.11100
# Velocity P-wave (km/s) = 5.54846 6.21230 5.88974
#
# Compressibility (1/GPa) = 0.02004074
#
# Stress axis : x y z
#
# Youngs Moduli (GPa) = 43.50559 91.48405 120.92816
#
# Poissons Ratio (x) = 0.52107 0.69889
# Poissons Ratio (y) = 0.24780 -0.04868
# Poissons Ratio (z) = 0.25144 -0.03683
#
# Static dielectric constant tensor:
#      x y z
#    x 2.004750 0.000000 0.000000 
#    y 0.000000 1.917430 0.000000 
#    z 0.000000 0.000000 1.977550 
# 
# From -- ./inp_files/2718.got.cif
#   From: 2010.05.17/outbox.cif.g08.bks.cpg/sg45_2_cif.got.tgz:2718.got - 2010.06.03 19:51:22.
