data_PCOD9377803
_publ_section_title
;
Structure prediction by ZEFSAII (Michael W. Deem and Ramdas Pophale) SiO2 
 PCOD9377803
Probable space group: I M A 2
;
_chemical_formula_sum "Si O2"
_cell_formula_units_Z 52
_cell_length_a 19.489298
_cell_length_b 14.796121
_cell_length_c 9.368494
_cell_angle_alpha 90.000000
_cell_angle_beta 90.000000
_cell_angle_gamma 90.000000
_cell_volume 2701.555248
_symmetry_space_group_name_H-M "I M A 2"
_symmetry_group_IT_number 46
_symmetry_cell_setting 'orthorhombic'
loop_
_space_group_symop_operation_xyz
x,y,z
-x,-y,z
1/2-x,y,z
1/2+x,-y,z
1/2+x,1/2+y,1/2+z
1/2-x,1/2-y,1/2+z
-x,1/2+y,1/2+z
x,1/2-y,1/2+z
loop_
_atom_site_type_symbol
_atom_site_label
_atom_site_fract_x
_atom_site_fract_y
_atom_site_fract_z
Si Si1 0.929876 0.810588 0.829130
Si Si2 0.951385 0.913702 0.090909
Si Si3 0.391800 0.863996 0.389466
Si Si4 0.500000 0.500000 0.971556
Si Si5 0.175665 0.458430 0.803870
Si Si6 0.944320 0.246951 0.660063
Si Si7 0.890847 0.645429 0.033144
O O1 0.921459 0.720907 0.925654
O O2 0.881558 0.813021 0.689497
O O3 0.006244 0.812733 0.761199
O O4 0.918427 0.892652 0.936680
O O5 0.889128 0.930219 0.203279
O O6 0.002206 0.826758 0.113769
O O7 0.000000 0.000000 0.084378
O O8 0.407642 0.809254 0.535119
O O9 0.389307 0.794043 0.261154
O O10 0.460097 0.926396 0.379215
O O11 0.334635 0.939823 0.364791
O O12 0.556741 0.560032 0.051387
O O13 0.250000 0.449480 0.733516
O O14 0.170929 0.395345 0.943530
#
# Coordination Sequence:
#
# PCOD9377803 Si02
#       7
#     8   8   8   4   8   8   8
#     4  12  20  35  59  98 127 151 199 266 319 371
#     4  12  23  35  65  96 124 158 210 263 318 372
#     4  11  21  34  61  87 125 161 199 256 307 372
#     4  10  16  30  52  86 116 158 190 242 310 356
#     4  11  25  45  62  85 126 178 213 250 317 392
#     4  12  18  35  59  96 124 149 198 261 317 362
#     4  11  21  35  58  85 126 161 200 251 309 378
#
# _framework density 19.248172
#
# number of rings (size 3 to 8) (size 9 to 14) (size 15 to 20)
#    0.000    0.615    9.231    0.923    2.154    0.000 
#    0.000    4.615    0.000    0.000    0.000    0.000 
#    0.000    0.000    0.000    0.000    0.000    0.000 
#
# Total GULP energy -144745.714581 kJ/mol
# GULP energy per Si atom -5567.142869 kJ/mol
# Density = 1.920436 g / cm^3
# Si number density = 19.248172 Si / 1000 Ang^3
#
#
#
# Elastic Constant Matrix: (Units=GPa)
#
#
# Indices 1 2 3 4 5 6 
#
# 1 64.9917 25.6803 22.3611 0.0000 0.0000 0.0000
# 2 25.6803 94.8495 62.3417 0.0000 0.0000 0.0000
# 3 22.3611 62.3417 143.7378 0.0000 0.0000 0.0000
# 4 0.0000 0.0000 0.0000 38.3825 0.0000 0.0000
# 5 0.0000 0.0000 0.0000 0.0000 10.3699 0.0000
# 6 0.0000 0.0000 0.0000 0.0000 0.0000 5.1167
#
#
#
# Elastic Compliance Matrix: (Units=1/GPa)
#
#
# Indices 1 2 3 4 5 6 
#
# 1 0.017317 -0.004081 -0.000924 0.000000 0.000000 0.000000
# 2 -0.004081 0.015709 -0.006178 0.000000 0.000000 0.000000
# 3 -0.000924 -0.006178 0.009780 0.000000 0.000000 0.000000
# 4 0.000000 0.000000 0.000000 0.026054 0.000000 0.000000
# 5 0.000000 0.000000 0.000000 0.000000 0.096433 0.000000
# 6 0.000000 0.000000 0.000000 0.000000 0.000000 0.195440
#
#
# Mechanical properties :
#
#
# Convention : Reuss Voigt Hill
#
# Bulk Modulus (GPa) = 48.92499 58.26059 53.59279
# Shear Modulus (GPa) = 12.82338 23.65353 18.23845
#
# Velocity S-wave (km/s) = 2.58391 3.50933 3.08156
# Velocity P-wave (km/s) = 5.86304 6.83772 6.36905
#
# Compressibility (1/GPa) = 0.02043945
#
# Stress axis : x y z
#
# Youngs Moduli (GPa) = 57.74634 63.65841 102.24465
#
# Poissons Ratio (x) = 0.25981 0.09446
# Poissons Ratio (y) = 0.23568 0.63170
# Poissons Ratio (z) = 0.05335 0.39330
#
# Static dielectric constant tensor:
#      x y z
#    x 1.696780 0.000000 0.000000 
#    y 0.000000 1.746080 0.000000 
#    z 0.000000 0.000000 1.749400 
# 
# From -- ./inp_files/7362.got.cif
#   From: 2010.05.17/outbox.cif.g08.bks.cpg/sg46_4_cif.got.tgz:7362.got - 2010.06.03 19:58:25.
