data_PCOD9377756
_publ_section_title
;
Structure prediction by ZEFSAII (Michael W. Deem and Ramdas Pophale) SiO2 
 PCOD9377756
Probable space group: I M A 2
;
_chemical_formula_sum "Si O2"
_cell_formula_units_Z 52
_cell_length_a 9.817179
_cell_length_b 33.282100
_cell_length_c 6.914480
_cell_angle_alpha 90.000000
_cell_angle_beta 90.000000
_cell_angle_gamma 90.000000
_cell_volume 2259.211841
_symmetry_space_group_name_H-M "I M A 2"
_symmetry_group_IT_number 46
_symmetry_cell_setting 'orthorhombic'
loop_
_space_group_symop_operation_xyz
x,y,z
-x,-y,z
1/2-x,y,z
1/2+x,-y,z
1/2+x,1/2+y,1/2+z
1/2-x,1/2-y,1/2+z
-x,1/2+y,1/2+z
x,1/2-y,1/2+z
loop_
_atom_site_type_symbol
_atom_site_label
_atom_site_fract_x
_atom_site_fract_y
_atom_site_fract_z
Si Si1 0.913037 0.961996 0.786330
Si Si2 0.406755 0.374961 0.382181
Si Si3 0.250000 0.992928 0.238536
Si Si4 0.021450 0.444610 0.832342
Si Si5 0.093147 0.355022 0.919931
Si Si6 0.595178 0.284514 0.013505
Si Si7 0.404430 0.694783 0.463508
O O1 0.750000 0.969084 0.801597
O O2 0.955198 0.920916 0.890493
O O3 0.945934 0.955582 0.558665
O O4 0.000000 0.000000 0.849271
O O5 0.250000 0.373549 0.443031
O O6 0.407823 0.364570 0.152101
O O7 0.496404 0.342469 0.491448
O O8 0.371278 0.959466 0.280027
O O9 0.367528 0.028586 0.222655
O O10 0.045582 0.396761 0.823181
O O11 0.250000 0.346187 0.869859
O O12 0.996549 0.316164 0.898443
O O13 0.750000 0.281713 0.936511
O O14 0.603567 0.300468 0.231041
O O15 0.544140 0.238693 0.027503
O O16 0.250000 0.687519 0.532379
#
# Coordination Sequence:
#
# PCOD9377756 Si02
#       7
#     8   8   4   8   8   8   8
#     4  10  15  22  32  49  75 107 138 171 203 247
#     4   8  16  26  38  54  80 110 140 173 209 250
#     4  10  16  20  32  46  72 108 140 172 202 246
#     4  10  15  23  30  49  73 106 143 170 203 242
#     4   9  16  26  38  55  79 109 141 176 209 252
#     4   9  18  30  46  63  85 111 143 175 218 253
#     4   9  17  31  45  64  84 112 141 178 212 254
#
# _framework density 23.016876
#
# number of rings (size 3 to 8) (size 9 to 14) (size 15 to 20)
#    0.000    2.769    3.077    0.923    1.077    1.231 
#    2.769    0.000    0.000    0.000    0.000    0.000 
#    0.000    0.000    5.231    2.615    0.000    5.846 
#
# Total GULP energy -144909.210297 kJ/mol
# GULP energy per Si atom -5573.431165 kJ/mol
# Density = 2.296449 g / cm^3
# Si number density = 23.016876 Si / 1000 Ang^3
#
#
#
# Elastic Constant Matrix: (Units=GPa)
#
#
# Indices 1 2 3 4 5 6 
#
# 1 169.6112 118.6668 6.5483 0.0033 0.0021 0.0001
# 2 118.6668 240.7131 19.3706 0.0050 0.0017 0.0005
# 3 6.5483 19.3706 77.3858 0.0047 0.0007 -0.0013
# 4 0.0033 0.0050 0.0047 29.6367 -0.0004 -0.0006
# 5 0.0021 0.0017 0.0007 -0.0004 7.0215 0.0038
# 6 0.0001 0.0005 -0.0013 -0.0006 0.0038 45.7271
#
#
#
# Elastic Compliance Matrix: (Units=1/GPa)
#
#
# Indices 1 2 3 4 5 6 
#
# 1 0.009010 -0.004470 0.000357 0.000000 -0.000002 0.000000
# 2 -0.004470 0.006458 -0.001238 0.000000 0.000000 0.000000
# 3 0.000357 -0.001238 0.013202 -0.000002 -0.000001 0.000000
# 4 0.000000 0.000000 -0.000002 0.033742 0.000002 0.000000
# 5 -0.000002 0.000000 -0.000001 0.000002 0.142420 -0.000012
# 6 0.000000 0.000000 0.000000 0.000000 -0.000012 0.021869
#
#
# Mechanical properties :
#
#
# Convention : Reuss Voigt Hill
#
# Bulk Modulus (GPa) = 55.66176 86.32015 70.99095
# Shear Modulus (GPa) = 20.54297 39.35202 29.94749
#
# Velocity S-wave (km/s) = 2.99074 4.13934 3.61100
# Velocity P-wave (km/s) = 6.01345 7.77367 6.94951
#
# Compressibility (1/GPa) = 0.01796566
#
# Stress axis : x y z
#
# Youngs Moduli (GPa) = 110.99198 154.85337 75.74596
#
# Poissons Ratio (x) = 0.69224 -0.02701
# Poissons Ratio (y) = 0.49617 0.09379
# Poissons Ratio (z) = -0.03958 0.19174
#
# Static dielectric constant tensor:
#      x y z
#    x 1.782750 0.000000 0.000000 
#    y 0.000000 1.823700 0.000000 
#    z 0.000000 0.000000 2.038620 
# 
# From -- ./inp_files/9600.got.cif
#   From: 2010.05.17/outbox.cif.g08.bks.cpg/sg46_5_cif.got.tgz:9600.got - 2010.06.03 19:58:25.
