data_PCOD9377164
_publ_section_title
;
Structure prediction by ZEFSAII (Michael W. Deem and Ramdas Pophale) SiO2 
 PCOD9377164
Probable space group: I B A 2
;
_chemical_formula_sum "Si O2"
_cell_formula_units_Z 60
_cell_length_a 8.129811
_cell_length_b 16.039474
_cell_length_c 20.278942
_cell_angle_alpha 90.000000
_cell_angle_beta 90.000000
_cell_angle_gamma 90.000000
_cell_volume 2644.331292
_symmetry_space_group_name_H-M "I B A 2"
_symmetry_group_IT_number 45
_symmetry_cell_setting 'orthorhombic'
loop_
_space_group_symop_operation_xyz
x,y,z
-x,-y,z
-x,y,1/2+z
x,-y,1/2+z
1/2+x,1/2+y,1/2+z
1/2-x,1/2-y,1/2+z
1/2-x,1/2+y,z
1/2+x,1/2-y,z
loop_
_atom_site_type_symbol
_atom_site_label
_atom_site_fract_x
_atom_site_fract_y
_atom_site_fract_z
Si Si1 0.247650 0.637374 0.145350
Si Si2 0.814320 0.462021 0.698632
Si Si3 0.815984 0.809616 0.325591
Si Si4 0.073221 0.715797 0.696777
Si Si5 0.603166 0.844084 0.000154
Si Si6 0.000000 0.500000 0.927136
Si Si7 0.189167 0.008180 0.330077
Si Si8 0.090483 0.215424 0.924114
O O1 0.271397 0.538680 0.159601
O O2 0.400248 0.700321 0.154129
O O3 0.113156 0.683639 0.192372
O O4 0.167248 0.645215 0.073357
O O5 0.830872 0.367559 0.671435
O O6 0.725902 0.448127 0.768701
O O7 0.000000 0.500000 0.708008
O O8 0.877447 0.744101 0.270977
O O9 0.786133 0.900694 0.297199
O O10 0.665813 0.777455 0.369322
O O11 0.951470 0.828174 0.381930
O O12 0.497100 0.920721 0.974479
O O13 0.761038 0.837624 0.952161
O O14 0.495545 0.762831 0.984486
O O15 0.164430 0.501145 0.882538
O O16 0.000000 0.000000 0.351688
#
# Coordination Sequence:
#
# PCOD9377164 Si02
#       8
#     8   8   8   8   8   4   8   8
#     4  11  24  45  66  98 133 187 235 277 348 423
#     4  10  24  41  66  99 135 177 229 285 348 426
#     4  11  22  40  65  99 133 169 223 291 360 406
#     4  11  24  39  69  96 133 176 225 293 346 411
#     4  11  24  44  68  93 138 181 236 277 347 424
#     4  12  26  44  70 104 136 192 224 298 358 420
#     4  12  25  41  67 103 145 173 232 294 363 422
#     4  10  23  40  66  98 127 176 226 283 344 424
#
# _framework density 22.690048000000001
#
# number of rings (size 3 to 8) (size 9 to 14) (size 15 to 20)
#    0.000    1.067    3.333    2.400   12.133    0.000 
#    0.000    0.000    0.000    0.800    0.000    0.000 
#    0.000    0.000    0.000    0.000    0.000    0.000 
#
# Total GULP energy -167463.407614 kJ/mol
# GULP energy per Si atom -5582.113587 kJ/mol
# Density = 2.263840 g / cm^3
# Si number density = 22.690048 Si / 1000 Ang^3
#
#
#
# Elastic Constant Matrix: (Units=GPa)
#
#
# Indices 1 2 3 4 5 6 
#
# 1 73.9775 9.7004 13.8818 0.0000 0.0000 0.0000
# 2 9.7004 110.7158 21.7184 0.0000 0.0000 0.0000
# 3 13.8818 21.7184 74.6464 0.0000 0.0000 0.0000
# 4 0.0000 0.0000 0.0000 3.0540 0.0000 0.0000
# 5 0.0000 0.0000 0.0000 0.0000 16.1545 0.0000
# 6 0.0000 0.0000 0.0000 0.0000 0.0000 5.5876
#
#
#
# Elastic Compliance Matrix: (Units=1/GPa)
#
#
# Indices 1 2 3 4 5 6 
#
# 1 0.014067 -0.000763 -0.002394 0.000000 0.000000 0.000000
# 2 -0.000763 0.009620 -0.002657 0.000000 0.000000 0.000000
# 3 -0.002394 -0.002657 0.014615 0.000000 0.000000 0.000000
# 4 0.000000 0.000000 0.000000 0.327444 0.000000 0.000000
# 5 0.000000 0.000000 0.000000 0.000000 0.061902 0.000000
# 6 0.000000 0.000000 0.000000 0.000000 0.000000 0.178969
#
#
# Mechanical properties :
#
#
# Convention : Reuss Voigt Hill
#
# Bulk Modulus (GPa) = 37.48990 38.88233 38.18611
# Shear Modulus (GPa) = 7.97274 19.22847 13.60061
#
# Velocity S-wave (km/s) = 1.87654 2.91424 2.45094
# Velocity P-wave (km/s) = 4.61017 5.33828 4.98753
#
# Compressibility (1/GPa) = 0.02667385
#
# Stress axis : x y z
#
# Youngs Moduli (GPa) = 71.08887 103.94787 68.42379
#
# Poissons Ratio (x) = 0.07930 0.16381
# Poissons Ratio (y) = 0.05423 0.18181
# Poissons Ratio (z) = 0.17019 0.27620
#
# Static dielectric constant tensor:
#      x y z
#    x 1.886440 0.000000 0.000000 
#    y 0.000000 1.899150 0.000000 
#    z 0.000000 0.000000 1.819950 
# 
# From -- ./inp_files/7705.got.cif
#   From: 2010.05.17/outbox.cif.g08.bks.cpg/sg45_4_cif.got.tgz:7705.got - 2010.06.03 19:51:22.
