data_PCOD9377759
_publ_section_title
;
Structure prediction by ZEFSAII (Michael W. Deem and Ramdas Pophale) SiO2 
 PCOD9377759
Probable space group: I M A 2
;
_chemical_formula_sum "Si O2"
_cell_formula_units_Z 48
_cell_length_a 8.622360
_cell_length_b 7.685685
_cell_length_c 33.677943
_cell_angle_alpha 90.000000
_cell_angle_beta 90.000000
_cell_angle_gamma 90.000000
_cell_volume 2231.794947
_symmetry_space_group_name_H-M "I M A 2"
_symmetry_group_IT_number 46
_symmetry_cell_setting 'orthorhombic'
loop_
_space_group_symop_operation_xyz
x,y,z
-x,-y,z
1/2-x,y,z
1/2+x,-y,z
1/2+x,1/2+y,1/2+z
1/2-x,1/2-y,1/2+z
-x,1/2+y,1/2+z
x,1/2-y,1/2+z
loop_
_atom_site_type_symbol
_atom_site_label
_atom_site_fract_x
_atom_site_fract_y
_atom_site_fract_z
Si Si1 0.563773 0.698969 0.084710
Si Si2 0.564087 0.693361 0.998844
Si Si3 0.436049 0.198565 0.747355
Si Si4 0.565431 0.301070 0.166051
Si Si5 0.934189 0.306810 0.414211
Si Si6 0.564155 0.801318 0.833896
O O1 0.500000 0.500000 0.084206
O O2 0.750000 0.692916 0.087642
O O3 0.495220 0.779711 0.124855
O O4 0.522567 0.779096 0.041519
O O5 0.500000 0.500000 0.002874
O O6 0.750000 0.697517 0.995333
O O7 0.492625 0.752389 0.957432
O O8 0.250000 0.193114 0.743946
O O9 0.505810 0.279474 0.707339
O O10 0.476765 0.276418 0.790629
O O11 0.500000 0.000000 0.748307
O O12 0.500000 0.500000 0.166167
O O13 0.750000 0.307110 0.165837
O O14 0.750000 0.302063 0.413377
O O15 0.000000 0.500000 0.410786
O O16 0.997221 0.216721 0.374034
O O17 0.750000 0.808177 0.837207
O O18 0.500000 0.000000 0.832146
#
# Coordination Sequence:
#
# PCOD9377759 Si02
#       6
#     8   8   8   8   8   8
#     4   9  16  26  40  57  81 112 145 182 223 269
#     4  10  20  34  51  71  95 124 159 197 238 283
#     4   9  15  22  33  50  75 107 142 178 218 265
#     4  10  16  21  32  50  76 108 142 178 216 264
#     4  11  21  33  50  70  95 126 159 197 238 282
#     4   9  16  26  40  58  82 113 148 186 227 273
#
# _framework density 21.507352000000001
#
# number of rings (size 3 to 8) (size 9 to 14) (size 15 to 20)
#    0.000    2.333    0.000    8.000    0.000    4.000 
#    0.000    0.000    0.000    0.000    0.000    0.000 
#    0.000    1.333    0.000   11.000    0.000   13.833 
#
# Total GULP energy -133734.937525 kJ/mol
# GULP energy per Si atom -5572.289064 kJ/mol
# Density = 2.145840 g / cm^3
# Si number density = 21.507352 Si / 1000 Ang^3
#
#
#
# Elastic Constant Matrix: (Units=GPa)
#
#
# Indices 1 2 3 4 5 6 
#
# 1 135.3417 3.3925 102.8599 0.0000 0.0000 0.0000
# 2 3.3925 28.1000 22.5960 0.0000 0.0000 0.0000
# 3 102.8599 22.5960 314.5269 0.0000 0.0000 0.0000
# 4 0.0000 0.0000 0.0000 3.3121 0.0000 0.0000
# 5 0.0000 0.0000 0.0000 0.0000 38.7979 0.0000
# 6 0.0000 0.0000 0.0000 0.0000 0.0000 5.4912
#
#
#
# Elastic Compliance Matrix: (Units=1/GPa)
#
#
# Indices 1 2 3 4 5 6 
#
# 1 0.009891 0.001493 -0.003342 0.000000 0.000000 0.000000
# 2 0.001493 0.037995 -0.003218 0.000000 0.000000 0.000000
# 3 -0.003342 -0.003218 0.004503 0.000000 0.000000 0.000000
# 4 0.000000 0.000000 0.000000 0.301926 0.000000 0.000000
# 5 0.000000 0.000000 0.000000 0.000000 0.025775 0.000000
# 6 0.000000 0.000000 0.000000 0.000000 0.000000 0.182110
#
#
# Mechanical properties :
#
#
# Convention : Reuss Voigt Hill
#
# Bulk Modulus (GPa) = 23.66532 81.74060 52.70296
# Shear Modulus (GPa) = 8.52634 32.79491 20.66062
#
# Velocity S-wave (km/s) = 1.99324 3.90913 3.10277
# Velocity P-wave (km/s) = 4.04037 7.64614 6.11507
#
# Compressibility (1/GPa) = 0.04225593
#
# Stress axis : x y z
#
# Youngs Moduli (GPa) = 101.09997 26.31954 222.04980
#
# Poissons Ratio (x) = -0.03930 0.74209
# Poissons Ratio (y) = -0.15097 0.71454
# Poissons Ratio (z) = 0.33788 0.08469
#
# Static dielectric constant tensor:
#      x y z
#    x 1.708620 0.000000 0.000000 
#    y 0.000000 1.906060 0.000000 
#    z 0.000000 0.000000 1.960310 
# 
# From -- ./inp_files/25119.got.cif
#   From: 2010.05.17/outbox.cif.g08.bks.cpg/sg46_13_cif.got.tgz:25119.got - 2010.06.03 19:58:25.
