data_PCOD9377831
_publ_section_title
;
Structure prediction by ZEFSAII (Michael W. Deem and Ramdas Pophale) SiO2 
 PCOD9377831
Probable space group: I M A 2
;
_chemical_formula_sum "Si O2"
_cell_formula_units_Z 64
_cell_length_a 14.109668
_cell_length_b 9.597762
_cell_length_c 18.379517
_cell_angle_alpha 90.000000
_cell_angle_beta 90.000000
_cell_angle_gamma 90.000000
_cell_volume 2488.976898
_symmetry_space_group_name_H-M "I M A 2"
_symmetry_group_IT_number 46
_symmetry_cell_setting 'orthorhombic'
loop_
_space_group_symop_operation_xyz
x,y,z
-x,-y,z
1/2-x,y,z
1/2+x,-y,z
1/2+x,1/2+y,1/2+z
1/2-x,1/2-y,1/2+z
-x,1/2+y,1/2+z
x,1/2-y,1/2+z
loop_
_atom_site_type_symbol
_atom_site_label
_atom_site_fract_x
_atom_site_fract_y
_atom_site_fract_z
Si Si1 0.641617 0.426914 0.858330
Si Si2 0.433641 0.663112 0.012134
Si Si3 0.149882 0.229561 0.487828
Si Si4 0.364371 0.942301 0.202187
Si Si5 0.139342 0.350164 0.337744
Si Si6 0.919523 0.128899 0.810883
Si Si7 0.105508 0.977673 0.038935
Si Si8 0.637791 0.129703 0.661770
O O1 0.750000 0.465848 0.870287
O O2 0.592002 0.414585 0.937004
O O3 0.606070 0.497476 0.782049
O O4 0.637498 0.266033 0.830854
O O5 0.546317 0.687433 0.015388
O O6 0.377981 0.813691 0.020938
O O7 0.403360 0.585324 0.085443
O O8 0.250000 0.161367 0.511516
O O9 0.142739 0.233025 0.400520
O O10 0.159166 0.392687 0.506448
O O11 0.250000 0.940743 0.204960
O O12 0.391115 0.011819 0.126083
O O13 0.397631 0.784751 0.184150
O O14 0.250000 0.347504 0.307673
O O15 0.117883 0.509139 0.365366
O O16 0.030301 0.329368 0.307951
O O17 0.890424 0.052862 0.735225
O O18 0.000000 0.000000 0.012386
O O19 0.750000 0.133330 0.655783
#
# Coordination Sequence:
#
# PCOD9377831 Si02
#       8
#     8   8   8   8   8   8   8   8
#     4  10  17  26  43  64  89 118 150 186 230 277
#     4  10  18  29  43  67  93 117 151 192 233 275
#     4  10  19  29  43  66  97 127 154 183 225 277
#     4   8  15  26  39  60  86 115 147 180 223 268
#     4  10  19  29  44  67  95 125 155 187 227 278
#     4  10  18  29  45  65  93 123 152 189 229 279
#     4   9  17  26  42  63  91 119 151 183 228 272
#     4   9  17  29  44  64  91 121 152 188 231 276
#
# _framework density 25.713377000000001
#
# number of rings (size 3 to 8) (size 9 to 14) (size 15 to 20)
#    0.000    2.500    1.250    3.375    3.500    2.500 
#    0.000    0.625    0.000    0.000    3.250    0.875 
#    0.000    0.000    0.000    0.000    0.000    0.000 
#
# Total GULP energy -178150.086780 kJ/mol
# GULP energy per Si atom -5567.190212 kJ/mol
# Density = 2.565485 g / cm^3
# Si number density = 25.713377 Si / 1000 Ang^3
#
#
#
# Elastic Constant Matrix: (Units=GPa)
#
#
# Indices 1 2 3 4 5 6 
#
# 1 203.5534 15.8234 55.9210 0.0000 0.0000 0.0000
# 2 15.8234 51.0414 18.0981 0.0000 0.0000 0.0000
# 3 55.9210 18.0981 169.1196 0.0000 0.0000 0.0000
# 4 0.0000 0.0000 0.0000 18.6211 0.0000 0.0000
# 5 0.0000 0.0000 0.0000 0.0000 39.5118 0.0000
# 6 0.0000 0.0000 0.0000 0.0000 0.0000 25.9228
#
#
#
# Elastic Compliance Matrix: (Units=1/GPa)
#
#
# Indices 1 2 3 4 5 6 
#
# 1 0.005462 -0.001094 -0.001689 0.000000 0.000000 0.000000
# 2 -0.001094 0.020584 -0.001841 0.000000 0.000000 0.000000
# 3 -0.001689 -0.001841 0.006668 0.000000 0.000000 0.000000
# 4 0.000000 0.000000 0.000000 0.053703 0.000000 0.000000
# 5 0.000000 0.000000 0.000000 0.000000 0.025309 0.000000
# 6 0.000000 0.000000 0.000000 0.000000 0.000000 0.038576
#
#
# Mechanical properties :
#
#
# Convention : Reuss Voigt Hill
#
# Bulk Modulus (GPa) = 42.61511 67.04438 54.82975
# Shear Modulus (GPa) = 29.87358 39.06924 34.47141
#
# Velocity S-wave (km/s) = 3.41220 3.90219 3.66540
# Velocity P-wave (km/s) = 5.66862 6.81419 6.26763
#
# Compressibility (1/GPa) = 0.02346585
#
# Stress axis : x y z
#
# Youngs Moduli (GPa) = 183.09108 48.58150 149.96055
#
# Poissons Ratio (x) = 0.05317 0.25326
# Poissons Ratio (y) = 0.20037 0.27606
# Poissons Ratio (z) = 0.30922 0.08943
#
# Static dielectric constant tensor:
#      x y z
#    x 1.984420 0.000000 0.000000 
#    y 0.000000 2.104220 0.000000 
#    z 0.000000 0.000000 2.286120 
# 
# From -- ./inp_files/19721.got.cif
#   From: 2010.05.17/outbox.cif.g08.bks.cpg/sg46_10_cif.got.tgz:19721.got - 2010.06.03 19:58:25.
