data_PCOD9377178
_publ_section_title
;
Structure prediction by ZEFSAII (Michael W. Deem and Ramdas Pophale) SiO2 
 PCOD9377178
Probable space group: I B A 2
;
_chemical_formula_sum "Si O2"
_cell_formula_units_Z 56
_cell_length_a 17.945101
_cell_length_b 14.414242
_cell_length_c 8.799679
_cell_angle_alpha 90.000000
_cell_angle_beta 90.000000
_cell_angle_gamma 90.000000
_cell_volume 2276.169220
_symmetry_space_group_name_H-M "I B A 2"
_symmetry_group_IT_number 45
_symmetry_cell_setting 'orthorhombic'
loop_
_space_group_symop_operation_xyz
x,y,z
-x,-y,z
-x,y,1/2+z
x,-y,1/2+z
1/2+x,1/2+y,1/2+z
1/2-x,1/2-y,1/2+z
1/2-x,1/2+y,z
1/2+x,1/2-y,z
loop_
_atom_site_type_symbol
_atom_site_label
_atom_site_fract_x
_atom_site_fract_y
_atom_site_fract_z
Si Si1 0.967826 0.290373 0.204830
Si Si2 0.173060 0.396186 0.651185
Si Si3 0.757327 0.468880 0.849798
Si Si4 0.897277 0.259568 0.537631
Si Si5 0.914259 0.116057 0.021673
Si Si6 0.889432 0.933639 0.206451
Si Si7 0.239005 0.804078 0.124377
O O1 0.912160 0.364856 0.127506
O O2 0.938729 0.273957 0.376317
O O3 0.957872 0.194893 0.110971
O O4 0.054293 0.309116 0.170995
O O5 0.176442 0.467955 0.787455
O O6 0.221241 0.448059 0.521811
O O7 0.215074 0.298461 0.674485
O O8 0.682950 0.523935 0.795977
O O9 0.750552 0.369600 0.768976
O O10 0.882037 0.153079 0.591734
O O11 0.815254 0.302432 0.532806
O O12 0.829566 0.154501 0.029889
O O13 0.917990 0.019851 0.110144
O O14 0.938087 0.101622 0.848675
#
# Coordination Sequence:
#
# PCOD9377178 Si02
#       7
#     8   8   8   8   8   8   8
#     4  11  28  46  71 103 143 201 248 301 378 455
#     4  11  26  44  74 111 146 183 250 304 375 445
#     4  11  24  42  72 110 143 186 235 302 366 433
#     4  12  26  46  71  99 146 197 247 306 373 445
#     4  10  23  41  69 110 142 185 237 304 371 445
#     4  11  22  41  71 107 149 180 241 303 373 440
#     4  10  25  40  75 102 148 184 244 305 369 437
#
# _framework density 24.602741999999999
#
# number of rings (size 3 to 8) (size 9 to 14) (size 15 to 20)
#    0.000    1.143    1.429    3.429   16.000    0.571 
#    0.000    3.571    0.000    0.000    0.000    0.000 
#    0.000    0.000    0.000    0.000    0.000    0.000 
#
# Total GULP energy -156752.615976 kJ/mol
# GULP energy per Si atom -5598.307713 kJ/mol
# Density = 2.454674 g / cm^3
# Si number density = 24.602742 Si / 1000 Ang^3
#
#
#
# Elastic Constant Matrix: (Units=GPa)
#
#
# Indices 1 2 3 4 5 6 
#
# 1 137.1364 26.2188 17.9121 0.0000 0.0000 0.0000
# 2 26.2188 75.8233 36.4502 0.0000 0.0000 0.0000
# 3 17.9121 36.4502 136.1103 0.0000 0.0000 0.0000
# 4 0.0000 0.0000 0.0000 28.9658 0.0000 0.0000
# 5 0.0000 0.0000 0.0000 0.0000 27.1009 0.0000
# 6 0.0000 0.0000 0.0000 0.0000 0.0000 19.5672
#
#
#
# Elastic Compliance Matrix: (Units=1/GPa)
#
#
# Indices 1 2 3 4 5 6 
#
# 1 0.007823 -0.002537 -0.000350 0.000000 0.000000 0.000000
# 2 -0.002537 0.015960 -0.003940 0.000000 0.000000 0.000000
# 3 -0.000350 -0.003940 0.008448 0.000000 0.000000 0.000000
# 4 0.000000 0.000000 0.000000 0.034524 0.000000 0.000000
# 5 0.000000 0.000000 0.000000 0.000000 0.036899 0.000000
# 6 0.000000 0.000000 0.000000 0.000000 0.000000 0.051106
#
#
# Mechanical properties :
#
#
# Convention : Reuss Voigt Hill
#
# Bulk Modulus (GPa) = 53.83069 56.69247 55.26158
# Shear Modulus (GPa) = 28.63594 33.02603 30.83098
#
# Velocity S-wave (km/s) = 3.41535 3.66781 3.54383
# Velocity P-wave (km/s) = 6.12211 6.40549 6.26540
#
# Compressibility (1/GPa) = 0.01857676
#
# Stress axis : x y z
#
# Youngs Moduli (GPa) = 127.83269 62.65717 118.36771
#
# Poissons Ratio (x) = 0.15894 0.04145
# Poissons Ratio (y) = 0.32427 0.46639
# Poissons Ratio (z) = 0.04476 0.24688
#
# Static dielectric constant tensor:
#      x y z
#    x 2.061310 0.000000 0.000000 
#    y 0.000000 1.936450 0.000000 
#    z 0.000000 0.000000 1.952040 
# 
# From -- ./inp_files/2326.got.cif
#   From: 2010.05.17/outbox.cif.g08.bks.cpg/sg45_2_cif.got.tgz:2326.got - 2010.06.03 19:51:22.
