data_PCOD9377927
_publ_section_title
;
Structure prediction by ZEFSAII (Michael W. Deem and Ramdas Pophale) SiO2 
 PCOD9377927
Probable space group: I M A 2
;
_chemical_formula_sum "Si O2"
_cell_formula_units_Z 44
_cell_length_a 21.729419
_cell_length_b 7.102711
_cell_length_c 14.329830
_cell_angle_alpha 90.000000
_cell_angle_beta 90.000000
_cell_angle_gamma 90.000000
_cell_volume 2211.634198
_symmetry_space_group_name_H-M "I M A 2"
_symmetry_group_IT_number 46
_symmetry_cell_setting 'orthorhombic'
loop_
_space_group_symop_operation_xyz
x,y,z
-x,-y,z
1/2-x,y,z
1/2+x,-y,z
1/2+x,1/2+y,1/2+z
1/2-x,1/2-y,1/2+z
-x,1/2+y,1/2+z
x,1/2-y,1/2+z
loop_
_atom_site_type_symbol
_atom_site_label
_atom_site_fract_x
_atom_site_fract_y
_atom_site_fract_z
Si Si1 0.386651 0.746931 0.745170
Si Si2 0.623497 0.291534 0.958904
Si Si3 0.750000 0.412073 0.713690
Si Si4 0.884712 0.922554 0.620299
Si Si5 0.250000 0.270691 0.089733
Si Si6 0.250000 0.503337 0.919428
Si Si7 0.068992 0.010051 0.082785
O O1 0.400596 0.714016 0.853370
O O2 0.313933 0.704106 0.720537
O O3 0.423944 0.607257 0.678268
O O4 0.400282 0.958379 0.711893
O O5 0.692436 0.367238 0.946233
O O6 0.597488 0.442897 0.033026
O O7 0.614252 0.090978 0.008851
O O8 0.750000 0.557526 0.627532
O O9 0.750000 0.533573 0.809395
O O10 0.811845 0.874868 0.623046
O O11 0.915500 0.723213 0.605550
O O12 0.250000 0.311555 0.978734
O O13 0.000000 0.000000 0.045619
#
# Coordination Sequence:
#
# PCOD9377927 Si02
#       7
#     8   8   4   8   4   4   8
#     4  10  21  40  61  91 121 160 195 251 301 363
#     4   9  21  40  61  88 124 155 199 249 303 359
#     4  10  17  35  61  88 128 151 196 246 305 373
#     4  10  21  38  62  89 122 153 201 244 301 359
#     4  10  17  34  59  91 116 161 184 246 309 358
#     4   8  18  35  60  91 120 156 194 242 312 369
#     4  11  24  42  59  87 118 160 207 249 297 353
#
# _framework density 19.894791999999999
#
# number of rings (size 3 to 8) (size 9 to 14) (size 15 to 20)
#    0.000    2.182    1.818    0.545    0.000    7.273 
#    9.818    0.000    0.000    0.000    0.000    0.000 
#    0.000    0.000    0.000    0.000    0.000    0.000 
#
# Total GULP energy -122665.621686 kJ/mol
# GULP energy per Si atom -5575.710077 kJ/mol
# Density = 1.984951 g / cm^3
# Si number density = 19.894792 Si / 1000 Ang^3
#
#
#
# Elastic Constant Matrix: (Units=GPa)
#
#
# Indices 1 2 3 4 5 6 
#
# 1 28.5639 12.4679 11.3348 0.0000 0.0000 0.0000
# 2 12.4679 123.9157 39.6864 0.0000 0.0000 0.0000
# 3 11.3348 39.6864 102.8576 0.0000 0.0000 0.0000
# 4 0.0000 0.0000 0.0000 21.9640 0.0000 0.0000
# 5 0.0000 0.0000 0.0000 0.0000 12.3353 0.0000
# 6 0.0000 0.0000 0.0000 0.0000 0.0000 208.8686
#
#
#
# Elastic Compliance Matrix: (Units=1/GPa)
#
#
# Indices 1 2 3 4 5 6 
#
# 1 0.037437 -0.002790 -0.003049 0.000000 0.000000 0.000000
# 2 -0.002790 0.009416 -0.003325 0.000000 0.000000 0.000000
# 3 -0.003049 -0.003325 0.011341 0.000000 0.000000 0.000000
# 4 0.000000 0.000000 0.000000 0.045529 0.000000 0.000000
# 5 0.000000 0.000000 0.000000 0.000000 0.081068 0.000000
# 6 0.000000 0.000000 0.000000 0.000000 0.000000 0.004788
#
#
# Mechanical properties :
#
#
# Convention : Reuss Voigt Hill
#
# Bulk Modulus (GPa) = 25.08483 42.47947 33.78215
# Shear Modulus (GPa) = 22.60431 61.42345 42.01388
#
# Velocity S-wave (km/s) = 3.37440 5.56248 4.60042
# Velocity P-wave (km/s) = 5.27430 7.91538 6.72575
#
# Compressibility (1/GPa) = 0.03986473
#
# Stress axis : x y z
#
# Youngs Moduli (GPa) = 26.71149 106.20447 88.17359
#
# Poissons Ratio (x) = 0.29634 0.26884
# Poissons Ratio (y) = 0.07453 0.29322
# Poissons Ratio (z) = 0.08144 0.35318
#
# Static dielectric constant tensor:
#      x y z
#    x 1.709850 0.000000 0.000000 
#    y 0.000000 1.680190 0.000000 
#    z 0.000000 0.000000 1.701480 
# 
# From -- ./inp_files/17520.got.cif
#   From: 2010.05.17/outbox.cif.g08.bks.cpg/sg46_9_cif.got.tgz:17520.got - 2010.06.03 19:58:25.
