data_PCOD9377995
_publ_section_title
;
Structure prediction by ZEFSAII (Michael W. Deem and Ramdas Pophale) SiO2 
 PCOD9377995
Probable space group: I M A 2
;
_chemical_formula_sum "Si O2"
_cell_formula_units_Z 56
_cell_length_a 7.883360
_cell_length_b 19.085865
_cell_length_c 21.760692
_cell_angle_alpha 90.000000
_cell_angle_beta 90.000000
_cell_angle_gamma 90.000000
_cell_volume 3274.129924
_symmetry_space_group_name_H-M "I M A 2"
_symmetry_group_IT_number 46
_symmetry_cell_setting 'orthorhombic'
loop_
_space_group_symop_operation_xyz
x,y,z
-x,-y,z
1/2-x,y,z
1/2+x,-y,z
1/2+x,1/2+y,1/2+z
1/2-x,1/2-y,1/2+z
-x,1/2+y,1/2+z
x,1/2-y,1/2+z
loop_
_atom_site_type_symbol
_atom_site_label
_atom_site_fract_x
_atom_site_fract_y
_atom_site_fract_z
Si Si1 0.056226 0.290069 0.989250
Si Si2 0.451983 0.420079 0.415089
Si Si3 0.554553 0.219565 0.866710
Si Si4 0.454661 0.080373 0.420211
Si Si5 0.454869 0.154333 0.294288
Si Si6 0.454498 0.418595 0.669920
Si Si7 0.458316 0.150016 0.042906
O O1 0.250000 0.301534 0.009513
O O2 0.979649 0.365523 0.972277
O O3 0.055370 0.251171 0.922753
O O4 0.981607 0.230252 0.033244
O O5 0.500000 0.500000 0.403830
O O6 0.250000 0.414387 0.414402
O O7 0.522272 0.363124 0.367035
O O8 0.511623 0.394950 0.483130
O O9 0.750000 0.231995 0.882612
O O10 0.510384 0.266141 0.807838
O O11 0.250000 0.086371 0.420329
O O12 0.513122 0.108374 0.353261
O O13 0.500000 0.000000 0.429449
O O14 0.250000 0.152562 0.293866
O O15 0.516822 0.121693 0.230617
O O16 0.500000 0.500000 0.672924
O O17 0.250000 0.413377 0.669638
O O18 0.515426 0.384481 0.606235
O O19 0.250000 0.151177 0.042414
#
# Coordination Sequence:
#
# PCOD9377995 Si02
#       7
#     8   8   8   8   8   8   8
#     4   8  15  29  44  59  84 115 144 177 220 265
#     4  10  18  29  45  66  93 119 145 179 220 263
#     4  10  18  28  44  64  84 110 146 183 220 261
#     4   9  16  25  39  59  83 110 137 172 216 257
#     4   9  18  31  43  58  85 118 147 176 213 257
#     4  10  19  30  45  65  89 118 151 182 213 253
#     4   8  15  28  45  63  86 118 151 181 212 254
#
# _framework density 17.103781000000001
#
# number of rings (size 3 to 8) (size 9 to 14) (size 15 to 20)
#    0.000    2.857    0.000    4.286    0.000    2.857 
#    0.000    2.857    0.000    0.000    0.000    1.000 
#    0.000    2.286    0.000    0.000    0.000    0.000 
#
# Total GULP energy -155947.766686 kJ/mol
# GULP energy per Si atom -5569.563096 kJ/mol
# Density = 1.706485 g / cm^3
# Si number density = 17.103781 Si / 1000 Ang^3
#
#
#
# Elastic Constant Matrix: (Units=GPa)
#
#
# Indices 1 2 3 4 5 6 
#
# 1 29.5674 4.9877 5.9835 0.0000 0.0000 0.0000
# 2 4.9877 177.5294 74.6538 0.0000 0.0000 0.0000
# 3 5.9835 74.6538 84.2278 0.0000 0.0000 0.0000
# 4 0.0000 0.0000 0.0000 30.3032 0.0000 0.0000
# 5 0.0000 0.0000 0.0000 0.0000 3.6771 0.0000
# 6 0.0000 0.0000 0.0000 0.0000 0.0000 23.8677
#
#
#
# Elastic Compliance Matrix: (Units=1/GPa)
#
#
# Indices 1 2 3 4 5 6 
#
# 1 0.034315 0.000097 -0.002524 0.000000 0.000000 0.000000
# 2 0.000097 0.008980 -0.007966 0.000000 0.000000 0.000000
# 3 -0.002524 -0.007966 0.019113 0.000000 0.000000 0.000000
# 4 0.000000 0.000000 0.000000 0.033000 0.000000 0.000000
# 5 0.000000 0.000000 0.000000 0.000000 0.271951 0.000000
# 6 0.000000 0.000000 0.000000 0.000000 0.000000 0.041898
#
#
# Mechanical properties :
#
#
# Convention : Reuss Voigt Hill
#
# Bulk Modulus (GPa) = 24.02564 51.39716 37.71140
# Shear Modulus (GPa) = 11.26339 25.28294 18.27316
#
# Velocity S-wave (km/s) = 2.56897 3.84892 3.27214
# Velocity P-wave (km/s) = 4.78299 7.06170 6.03094
#
# Compressibility (1/GPa) = 0.04162220
#
# Stress axis : x y z
#
# Youngs Moduli (GPa) = 29.14148 111.35800 52.32163
#
# Poissons Ratio (x) = -0.01083 0.13206
# Poissons Ratio (y) = -0.00283 0.41680
# Poissons Ratio (z) = 0.07355 0.88710
#
# Static dielectric constant tensor:
#      x y z
#    x 1.629610 0.000000 0.000000 
#    y 0.000000 1.609140 0.000000 
#    z 0.000000 0.000000 1.570360 
# 
# From -- ./inp_files/21222.got.cif
#   From: 2010.05.17/outbox.cif.g08.bks.cpg/sg46_11_cif.got.tgz:21222.got - 2010.06.03 19:58:25.
