data_PCOD9377391
_publ_section_title
;
Structure prediction by ZEFSAII (Michael W. Deem and Ramdas Pophale) SiO2 
 PCOD9377391
Probable space group: I B A 2
;
_chemical_formula_sum "Si O2"
_cell_formula_units_Z 40
_cell_length_a 21.146068
_cell_length_b 8.868041
_cell_length_c 8.665823
_cell_angle_alpha 90.000000
_cell_angle_beta 90.000000
_cell_angle_gamma 90.000000
_cell_volume 1625.051508
_symmetry_space_group_name_H-M "I B A 2"
_symmetry_group_IT_number 45
_symmetry_cell_setting 'orthorhombic'
loop_
_space_group_symop_operation_xyz
x,y,z
-x,-y,z
-x,y,1/2+z
x,-y,1/2+z
1/2+x,1/2+y,1/2+z
1/2-x,1/2-y,1/2+z
1/2-x,1/2+y,z
1/2+x,1/2-y,z
loop_
_atom_site_type_symbol
_atom_site_label
_atom_site_fract_x
_atom_site_fract_y
_atom_site_fract_z
Si Si1 0.626051 0.366059 0.567050
Si Si2 0.500000 0.000000 0.532082
Si Si3 0.754829 0.456902 0.131292
Si Si4 0.692762 0.798279 0.828708
Si Si5 0.500000 0.500000 0.457062
Si Si6 0.945890 0.293990 0.293875
O O1 0.690172 0.457227 0.587822
O O2 0.630588 0.274827 0.405132
O O3 0.563416 0.466943 0.554345
O O4 0.619050 0.265573 0.721292
O O5 0.522065 0.132945 0.643431
O O6 0.447211 0.074588 0.421339
O O7 0.734579 0.336236 0.259750
O O8 0.806570 0.573955 0.197494
O O9 0.776631 0.373421 0.978595
O O10 0.516943 0.650224 0.360729
#
# Coordination Sequence:
#
# PCOD9377391 Si02
#       6
#     8   4   8   8   4   8
#     4  12  26  47  82 113 156 205 265 334 392 490
#     4  10  24  48  70 102 162 194 260 318 386 472
#     4  12  25  50  77 112 155 201 272 327 402 469
#     4  12  25  49  77 112 152 205 263 334 395 464
#     4  12  26  50  80 116 154 214 266 314 408 500
#     4  11  24  47  72 111 151 204 258 318 397 481
#
# _framework density 24.614605999999998
#
# number of rings (size 3 to 8) (size 9 to 14) (size 15 to 20)
#    0.000    0.400    6.000    1.800    0.000    1.600 
#    0.000    0.000    0.000    0.000    0.000    0.000 
#    0.000    0.000    0.000    0.000    0.000    0.000 
#
# Total GULP energy -111954.679506 kJ/mol
# GULP energy per Si atom -5597.733975 kJ/mol
# Density = 2.455858 g / cm^3
# Si number density = 24.614606 Si / 1000 Ang^3
#
#
#
# Elastic Constant Matrix: (Units=GPa)
#
#
# Indices 1 2 3 4 5 6 
#
# 1 69.6550 25.9093 24.8537 0.0000 0.0000 0.0000
# 2 25.9093 121.7191 47.4042 0.0000 0.0000 0.0000
# 3 24.8537 47.4042 119.3852 0.0000 0.0000 0.0000
# 4 0.0000 0.0000 0.0000 63.8721 0.0000 0.0000
# 5 0.0000 0.0000 0.0000 0.0000 39.7622 0.0000
# 6 0.0000 0.0000 0.0000 0.0000 0.0000 36.7862
#
#
#
# Elastic Compliance Matrix: (Units=1/GPa)
#
#
# Indices 1 2 3 4 5 6 
#
# 1 0.016134 -0.002515 -0.002360 0.000000 0.000000 0.000000
# 2 -0.002515 0.010111 -0.003491 0.000000 0.000000 0.000000
# 3 -0.002360 -0.003491 0.010254 0.000000 0.000000 0.000000
# 4 0.000000 0.000000 0.000000 0.015656 0.000000 0.000000
# 5 0.000000 0.000000 0.000000 0.000000 0.025150 0.000000
# 6 0.000000 0.000000 0.000000 0.000000 0.000000 0.027184
#
#
# Mechanical properties :
#
#
# Convention : Reuss Voigt Hill
#
# Bulk Modulus (GPa) = 50.59216 56.34376 53.46796
# Shear Modulus (GPa) = 39.12068 42.25692 40.68880
#
# Velocity S-wave (km/s) = 3.99096 4.14785 4.07016
# Velocity P-wave (km/s) = 6.46803 6.77345 6.62250
#
# Compressibility (1/GPa) = 0.01976591
#
# Stress axis : x y z
#
# Youngs Moduli (GPa) = 61.98039 98.90600 97.52531
#
# Poissons Ratio (x) = 0.24877 0.23017
# Poissons Ratio (y) = 0.15589 0.34046
# Poissons Ratio (z) = 0.14628 0.34528
#
# Static dielectric constant tensor:
#      x y z
#    x 1.957820 0.000000 0.000000 
#    y 0.000000 2.033910 0.000000 
#    z 0.000000 0.000000 1.945780 
# 
# From -- ./inp_files/973.got.cif
#   From: 2010.05.17/outbox.cif.g08.bks.cpg/sg45_1_cif.got.tgz:973.got - 2010.06.03 19:51:22.
