data_PCOD9377562
_publ_section_title
;
Structure prediction by ZEFSAII (Michael W. Deem and Ramdas Pophale) SiO2 
 PCOD9377562
Probable space group: I B A 2
;
_chemical_formula_sum "Si O2"
_cell_formula_units_Z 64
_cell_length_a 11.384768
_cell_length_b 17.687535
_cell_length_c 14.630094
_cell_angle_alpha 90.000000
_cell_angle_beta 90.000000
_cell_angle_gamma 90.000000
_cell_volume 2946.039827
_symmetry_space_group_name_H-M "I B A 2"
_symmetry_group_IT_number 45
_symmetry_cell_setting 'orthorhombic'
loop_
_space_group_symop_operation_xyz
x,y,z
-x,-y,z
-x,y,1/2+z
x,-y,1/2+z
1/2+x,1/2+y,1/2+z
1/2-x,1/2-y,1/2+z
1/2-x,1/2+y,z
1/2+x,1/2-y,z
loop_
_atom_site_type_symbol
_atom_site_label
_atom_site_fract_x
_atom_site_fract_y
_atom_site_fract_z
Si Si1 0.262189 0.045353 0.843230
Si Si2 0.100224 0.803789 0.909948
Si Si3 0.024392 0.358416 0.425777
Si Si4 0.581331 0.344041 0.759072
Si Si5 0.066124 0.918579 0.068934
Si Si6 0.315363 0.047162 0.510685
Si Si7 0.828134 0.313339 0.285247
Si Si8 0.872109 0.461043 0.178498
O O1 0.372943 0.090030 0.884886
O O2 0.152399 0.098032 0.823446
O O3 0.291768 0.009497 0.746281
O O4 0.252376 0.978866 0.917285
O O5 0.230454 0.812982 0.866680
O O6 0.081024 0.721218 0.955604
O O7 0.025403 0.813991 0.818430
O O8 0.048645 0.863934 0.982319
O O9 0.929911 0.401746 0.490693
O O10 0.944795 0.336277 0.339643
O O11 0.535512 0.382062 0.666457
O O12 0.663893 0.270723 0.743964
O O13 0.209037 0.919255 0.069146
O O14 0.000000 0.000000 0.059622
O O15 0.351481 0.975625 0.571986
O O16 0.833816 0.376372 0.205867
O O17 0.000000 0.500000 0.196922
#
# Coordination Sequence:
#
# PCOD9377562 Si02
#       8
#     8   8   8   8   8   8   8   8
#     4  12  21  44  70 105 140 186 235 304 367 438
#     4  11  25  48  74 103 147 192 245 305 370 445
#     4  11  22  44  74 101 142 183 238 301 375 427
#     4  11  27  46  74 103 146 195 242 302 372 450
#     4  12  27  48  69 106 146 197 248 303 366 450
#     4  12  25  41  72 106 141 187 247 298 365 438
#     4  11  23  46  70 105 142 191 237 303 373 431
#     4  12  23  39  70 106 141 185 241 305 368 434
#
# _framework density 21.724077999999999
#
# number of rings (size 3 to 8) (size 9 to 14) (size 15 to 20)
#    0.000    0.500    6.250    1.875    1.750    3.500 
#    2.250    0.000    0.000    0.000    0.000    0.000 
#    0.000    0.000    0.000    0.000    0.000    0.000 
#
# Total GULP energy -178366.746493 kJ/mol
# GULP energy per Si atom -5573.960828 kJ/mol
# Density = 2.167463 g / cm^3
# Si number density = 21.724078 Si / 1000 Ang^3
#
#
#
# Elastic Constant Matrix: (Units=GPa)
#
#
# Indices 1 2 3 4 5 6 
#
# 1 15.3818 0.3142 3.7298 0.0000 0.0000 0.0000
# 2 0.3142 123.4000 46.0192 0.0000 0.0000 0.0000
# 3 3.7298 46.0192 111.0824 0.0000 0.0000 0.0000
# 4 0.0000 0.0000 0.0000 22.6321 0.0000 0.0000
# 5 0.0000 0.0000 0.0000 0.0000 27.3697 0.0000
# 6 0.0000 0.0000 0.0000 0.0000 0.0000 14.1578
#
#
#
# Elastic Compliance Matrix: (Units=1/GPa)
#
#
# Indices 1 2 3 4 5 6 
#
# 1 0.065608 0.000774 -0.002524 0.000000 0.000000 0.000000
# 2 0.000774 0.009594 -0.004000 0.000000 0.000000 0.000000
# 3 -0.002524 -0.004000 0.010744 0.000000 0.000000 0.000000
# 4 0.000000 0.000000 0.000000 0.044185 0.000000 0.000000
# 5 0.000000 0.000000 0.000000 0.000000 0.036537 0.000000
# 6 0.000000 0.000000 0.000000 0.000000 0.000000 0.070633
#
#
# Mechanical properties :
#
#
# Convention : Reuss Voigt Hill
#
# Bulk Modulus (GPa) = 13.43256 38.88784 26.16020
# Shear Modulus (GPa) = 18.27382 26.15198 22.21290
#
# Velocity S-wave (km/s) = 2.90345 3.47338 3.20113
# Velocity P-wave (km/s) = 4.17573 5.83314 5.07259
#
# Compressibility (1/GPa) = 0.07444595
#
# Stress axis : x y z
#
# Youngs Moduli (GPa) = 15.24207 104.23588 93.07208
#
# Poissons Ratio (x) = -0.08068 0.23487
# Poissons Ratio (y) = -0.01180 0.37233
# Poissons Ratio (z) = 0.03846 0.41699
#
# Static dielectric constant tensor:
#      x y z
#    x 1.868310 0.000000 0.000000 
#    y 0.000000 1.970020 0.000000 
#    z 0.000000 0.000000 1.762170 
# 
# From -- ./inp_files/6288.got.cif
#   From: 2010.05.17/outbox.cif.g08.bks.cpg/sg45_4_cif.got.tgz:6288.got - 2010.06.03 19:51:22.
