data_PCOD9377320
_publ_section_title
;
Structure prediction by ZEFSAII (Michael W. Deem and Ramdas Pophale) SiO2 
 PCOD9377320
Probable space group: I B A 2
;
_chemical_formula_sum "Si O2"
_cell_formula_units_Z 64
_cell_length_a 8.798364
_cell_length_b 16.307969
_cell_length_c 21.487624
_cell_angle_alpha 90.000000
_cell_angle_beta 90.000000
_cell_angle_gamma 90.000000
_cell_volume 3083.118367
_symmetry_space_group_name_H-M "I B A 2"
_symmetry_group_IT_number 45
_symmetry_cell_setting 'orthorhombic'
loop_
_space_group_symop_operation_xyz
x,y,z
-x,-y,z
-x,y,1/2+z
x,-y,1/2+z
1/2+x,1/2+y,1/2+z
1/2-x,1/2-y,1/2+z
1/2-x,1/2+y,z
1/2+x,1/2-y,z
loop_
_atom_site_type_symbol
_atom_site_label
_atom_site_fract_x
_atom_site_fract_y
_atom_site_fract_z
Si Si1 0.344675 0.080125 0.282770
Si Si2 0.604703 0.680307 0.588230
Si Si3 0.320137 0.480490 0.657585
Si Si4 0.794757 0.784763 0.367702
Si Si5 0.661622 0.155213 0.272771
Si Si6 0.727039 0.332238 0.639204
Si Si7 0.837884 0.040919 0.351794
Si Si8 0.078979 0.834174 0.442634
O O1 0.252951 0.047657 0.222888
O O2 0.280609 0.163450 0.312476
O O3 0.518579 0.095083 0.264574
O O4 0.302307 0.018714 0.338983
O O5 0.693166 0.598832 0.612459
O O6 0.451397 0.682869 0.629115
O O7 0.690267 0.767010 0.594817
O O8 0.564673 0.668699 0.516053
O O9 0.500000 0.500000 0.665334
O O10 0.251028 0.568343 0.634654
O O11 0.882789 0.715767 0.328179
O O12 0.676239 0.740931 0.413985
O O13 0.916032 0.833669 0.408662
O O14 0.710448 0.191341 0.207290
O O15 0.810906 0.110857 0.300169
O O16 0.837961 0.083896 0.418423
O O17 0.000000 0.000000 0.341202
#
# Coordination Sequence:
#
# PCOD9377320 Si02
#       8
#     8   8   8   8   8   8   8   8
#     4  12  22  42  66 101 142 165 220 287 353 407
#     4  11  26  47  68  97 138 187 236 286 329 417
#     4  10  24  43  70 103 136 177 229 285 347 420
#     4  11  23  40  69  97 129 180 220 283 344 405
#     4  11  25  40  65 103 136 168 220 280 354 413
#     4  11  25  44  70  97 135 182 228 285 354 401
#     4  11  23  38  68  99 133 171 214 273 342 403
#     4  11  24  45  64  97 134 177 239 266 337 414
#
# _framework density 20.758202000000001
#
# number of rings (size 3 to 8) (size 9 to 14) (size 15 to 20)
#    0.000    1.000    3.750    2.250    5.250    1.500 
#    2.250    0.000    0.000    0.000    0.000    0.000 
#    0.000    0.000    0.000    0.000    0.000    0.000 
#
# Total GULP energy -178557.234647 kJ/mol
# GULP energy per Si atom -5579.913583 kJ/mol
# Density = 2.071096 g / cm^3
# Si number density = 20.758202 Si / 1000 Ang^3
#
#
#
# Elastic Constant Matrix: (Units=GPa)
#
#
# Indices 1 2 3 4 5 6 
#
# 1 62.7928 37.0466 31.5677 0.0000 0.0000 0.0000
# 2 37.0466 90.0716 38.7969 0.0000 0.0000 0.0000
# 3 31.5677 38.7969 90.8178 0.0000 0.0000 0.0000
# 4 0.0000 0.0000 0.0000 26.5483 0.0000 0.0000
# 5 0.0000 0.0000 0.0000 0.0000 17.6610 0.0000
# 6 0.0000 0.0000 0.0000 0.0000 0.0000 25.0332
#
#
#
# Elastic Compliance Matrix: (Units=1/GPa)
#
#
# Indices 1 2 3 4 5 6 
#
# 1 0.022590 -0.007242 -0.004759 0.000000 0.000000 0.000000
# 2 -0.007242 0.015927 -0.004287 0.000000 0.000000 0.000000
# 3 -0.004759 -0.004287 0.014496 0.000000 0.000000 0.000000
# 4 0.000000 0.000000 0.000000 0.037667 0.000000 0.000000
# 5 0.000000 0.000000 0.000000 0.000000 0.056622 0.000000
# 6 0.000000 0.000000 0.000000 0.000000 0.000000 0.039947
#
#
# Mechanical properties :
#
#
# Convention : Reuss Voigt Hill
#
# Bulk Modulus (GPa) = 48.92469 50.94494 49.93482
# Shear Modulus (GPa) = 22.06167 22.93324 22.49745
#
# Velocity S-wave (km/s) = 3.26359 3.32743 3.29566
# Velocity P-wave (km/s) = 6.14991 6.27357 6.21205
#
# Compressibility (1/GPa) = 0.02043958
#
# Stress axis : x y z
#
# Youngs Moduli (GPa) = 44.26717 62.78528 68.98246
#
# Poissons Ratio (x) = 0.45467 0.32826
# Poissons Ratio (y) = 0.32057 0.29572
# Poissons Ratio (z) = 0.21065 0.26915
#
# Static dielectric constant tensor:
#      x y z
#    x 1.744650 0.000000 0.000000 
#    y 0.000000 1.866480 0.000000 
#    z 0.000000 0.000000 1.693430 
# 
# From -- ./inp_files/8976.got.cif
#   From: 2010.05.17/outbox.cif.g08.bks.cpg/sg45_5_cif.got.tgz:8976.got - 2010.06.03 19:51:22.
