data_PCOD9377215
_publ_section_title
;
Structure prediction by ZEFSAII (Michael W. Deem and Ramdas Pophale) SiO2 
 PCOD9377215
Probable space group: I B A 2
;
_chemical_formula_sum "Si O2"
_cell_formula_units_Z 56
_cell_length_a 20.117922
_cell_length_b 11.507781
_cell_length_c 9.863549
_cell_angle_alpha 90.000000
_cell_angle_beta 90.000000
_cell_angle_gamma 90.000000
_cell_volume 2283.536274
_symmetry_space_group_name_H-M "I B A 2"
_symmetry_group_IT_number 45
_symmetry_cell_setting 'orthorhombic'
loop_
_space_group_symop_operation_xyz
x,y,z
-x,-y,z
-x,y,1/2+z
x,-y,1/2+z
1/2+x,1/2+y,1/2+z
1/2-x,1/2-y,1/2+z
1/2-x,1/2+y,z
1/2+x,1/2-y,z
loop_
_atom_site_type_symbol
_atom_site_label
_atom_site_fract_x
_atom_site_fract_y
_atom_site_fract_z
Si Si1 0.947791 0.283376 0.362830
Si Si2 0.676351 0.218742 0.529567
Si Si3 0.175232 0.575033 0.300452
Si Si4 0.594337 0.352400 0.110123
Si Si5 0.412041 0.137692 0.807987
Si Si6 0.108732 0.902880 0.177661
Si Si7 0.785730 0.912962 0.916839
O O1 0.878795 0.351467 0.384335
O O2 0.937705 0.198691 0.235263
O O3 0.008968 0.365488 0.327583
O O4 0.952919 0.201874 0.494338
O O5 0.694402 0.155404 0.671698
O O6 0.616863 0.149517 0.459005
O O7 0.648293 0.347316 0.551355
O O8 0.737783 0.199610 0.428968
O O9 0.129839 0.467598 0.244906
O O10 0.233889 0.518633 0.390192
O O11 0.571664 0.476855 0.162793
O O12 0.602756 0.744577 0.724562
O O13 0.664372 0.393263 0.042140
O O14 0.165916 0.916963 0.289823
#
# Coordination Sequence:
#
# PCOD9377215 Si02
#       7
#     8   8   8   8   8   8   8
#     4  10  25  48  69 103 139 188 242 297 366 430
#     4  10  24  42  73 104 139 187 232 304 361 432
#     4  10  23  47  71 108 138 183 234 308 372 421
#     4  11  26  43  70 100 143 192 234 301 352 440
#     4  11  26  44  71 107 139 188 244 294 374 432
#     4  10  24  45  64 101 140 187 238 285 356 426
#     4  10  23  43  71 104 138 184 234 297 359 431
#
# _framework density 24.523368000000001
#
# number of rings (size 3 to 8) (size 9 to 14) (size 15 to 20)
#    0.000    1.714    0.000    1.286   16.000    4.000 
#    2.571    0.000    0.000    0.000    0.000    0.000 
#    0.000    0.000    0.000    0.000    0.000    0.000 
#
# Total GULP energy -156433.308104 kJ/mol
# GULP energy per Si atom -5586.903861 kJ/mol
# Density = 2.446755 g / cm^3
# Si number density = 24.523368 Si / 1000 Ang^3
#
#
#
# Elastic Constant Matrix: (Units=GPa)
#
#
# Indices 1 2 3 4 5 6 
#
# 1 106.8543 18.9912 17.8156 0.0000 0.0000 0.0000
# 2 18.9912 133.3427 21.6605 0.0000 0.0000 0.0000
# 3 17.8156 21.6605 70.4972 0.0000 0.0000 0.0000
# 4 0.0000 0.0000 0.0000 29.6033 0.0000 0.0000
# 5 0.0000 0.0000 0.0000 0.0000 27.9823 0.0000
# 6 0.0000 0.0000 0.0000 0.0000 0.0000 20.1336
#
#
#
# Elastic Compliance Matrix: (Units=1/GPa)
#
#
# Indices 1 2 3 4 5 6 
#
# 1 0.009910 -0.001057 -0.002179 0.000000 0.000000 0.000000
# 2 -0.001057 0.008006 -0.002193 0.000000 0.000000 0.000000
# 3 -0.002179 -0.002193 0.015409 0.000000 0.000000 0.000000
# 4 0.000000 0.000000 0.000000 0.033780 0.000000 0.000000
# 5 0.000000 0.000000 0.000000 0.000000 0.035737 0.000000
# 6 0.000000 0.000000 0.000000 0.000000 0.000000 0.049668
#
#
# Mechanical properties :
#
#
# Convention : Reuss Voigt Hill
#
# Bulk Modulus (GPa) = 44.51086 47.51431 46.01258
# Shear Modulus (GPa) = 29.26393 32.35895 30.81144
#
# Velocity S-wave (km/s) = 3.45818 3.63645 3.54843
# Velocity P-wave (km/s) = 5.84253 6.08678 5.96590
#
# Compressibility (1/GPa) = 0.02246643
#
# Stress axis : x y z
#
# Youngs Moduli (GPa) = 100.90977 124.90221 64.89511
#
# Poissons Ratio (x) = 0.13207 0.14144
# Poissons Ratio (y) = 0.10670 0.14230
# Poissons Ratio (z) = 0.21993 0.27388
#
# Static dielectric constant tensor:
#      x y z
#    x 1.983900 0.000000 0.000000 
#    y 0.000000 1.986030 0.000000 
#    z 0.000000 0.000000 1.943650 
# 
# From -- ./inp_files/4641.got.cif
#   From: 2010.05.17/outbox.cif.g08.bks.cpg/sg45_3_cif.got.tgz:4641.got - 2010.06.03 19:51:22.
