data_PCOD9377953
_publ_section_title
;
Structure prediction by ZEFSAII (Michael W. Deem and Ramdas Pophale) SiO2 
 PCOD9377953
Probable space group: I M A 2
;
_chemical_formula_sum "Si O2"
_cell_formula_units_Z 64
_cell_length_a 7.857192
_cell_length_b 19.115822
_cell_length_c 27.650768
_cell_angle_alpha 90.000000
_cell_angle_beta 90.000000
_cell_angle_gamma 90.000000
_cell_volume 4153.053655
_symmetry_space_group_name_H-M "I M A 2"
_symmetry_group_IT_number 46
_symmetry_cell_setting 'orthorhombic'
loop_
_space_group_symop_operation_xyz
x,y,z
-x,-y,z
1/2-x,y,z
1/2+x,-y,z
1/2+x,1/2+y,1/2+z
1/2-x,1/2-y,1/2+z
-x,1/2+y,1/2+z
x,1/2-y,1/2+z
loop_
_atom_site_type_symbol
_atom_site_label
_atom_site_fract_x
_atom_site_fract_y
_atom_site_fract_z
Si Si1 0.554250 0.784044 0.053410
Si Si2 0.955276 0.419532 0.898061
Si Si3 0.959177 0.161431 0.195370
Si Si4 0.955016 0.419655 0.789237
Si Si5 0.944290 0.296071 0.146195
Si Si6 0.452603 0.580570 0.598585
Si Si7 0.955227 0.080700 0.585927
Si Si8 0.544310 0.335828 0.990474
O O1 0.750000 0.770555 0.065675
O O2 0.444090 0.747823 0.095781
O O3 0.521871 0.866420 0.057875
O O4 0.512328 0.742250 0.004695
O O5 0.750000 0.415027 0.897125
O O6 0.018342 0.404343 0.843619
O O7 0.017343 0.367863 0.939992
O O8 0.000000 0.500000 0.909664
O O9 0.750000 0.162624 0.195040
O O10 0.016587 0.129968 0.246214
O O11 0.019830 0.240208 0.183606
O O12 0.012007 0.111516 0.150621
O O13 0.750000 0.414460 0.790192
O O14 0.000000 0.500000 0.778112
O O15 0.750000 0.309154 0.161648
O O16 0.021582 0.369810 0.129473
O O17 0.500000 0.500000 0.592988
O O18 0.250000 0.586039 0.597906
O O19 0.750000 0.086785 0.586303
O O20 0.013365 0.114153 0.534900
O O21 0.000000 0.000000 0.589941
O O22 0.750000 0.336686 0.989919
#
# Coordination Sequence:
#
# PCOD9377953 Si02
#       8
#     8   8   8   8   8   8   8   8
#     4  10  18  27  40  58  76  98 129 164 196 230
#     4   9  17  27  40  57  79 104 132 165 199 230
#     4   8  14  25  41  56  75 104 135 162 192 227
#     4   9  16  26  39  57  78 102 131 164 195 226
#     4   8  15  28  40  52  74 104 130 157 194 234
#     4  10  18  28  41  58  81 108 134 162 193 230
#     4   9  16  24  36  52  72  97 126 155 188 227
#     4   9  17  29  40  52  74 105 132 157 192 232
#
# _framework density 15.410347
#
# number of rings (size 3 to 8) (size 9 to 14) (size 15 to 20)
#    0.000    3.000    0.000    3.750    0.000    2.500 
#    0.000    2.500    0.000    0.000    0.000    0.000 
#    0.000    1.000    0.000    4.000    0.000    2.125 
#
# Total GULP energy -178147.370064 kJ/mol
# GULP energy per Si atom -5567.105314 kJ/mol
# Density = 1.537527 g / cm^3
# Si number density = 15.410347 Si / 1000 Ang^3
#
#
#
# Elastic Constant Matrix: (Units=GPa)
#
#
# Indices 1 2 3 4 5 6 
#
# 1 26.9703 6.8694 9.0198 0.0000 0.0000 0.0000
# 2 6.8694 124.2327 68.6153 0.0000 0.0000 0.0000
# 3 9.0198 68.6153 100.2402 0.0000 0.0000 0.0000
# 4 0.0000 0.0000 0.0000 29.6973 0.0000 0.0000
# 5 0.0000 0.0000 0.0000 0.0000 2.3243 0.0000
# 6 0.0000 0.0000 0.0000 0.0000 0.0000 19.7945
#
#
#
# Elastic Compliance Matrix: (Units=1/GPa)
#
#
# Indices 1 2 3 4 5 6 
#
# 1 0.038237 -0.000344 -0.003205 0.000000 0.000000 0.000000
# 2 -0.000344 0.012946 -0.008830 0.000000 0.000000 0.000000
# 3 -0.003205 -0.008830 0.016309 0.000000 0.000000 0.000000
# 4 0.000000 0.000000 0.000000 0.033673 0.000000 0.000000
# 5 0.000000 0.000000 0.000000 0.000000 0.430241 0.000000
# 6 0.000000 0.000000 0.000000 0.000000 0.000000 0.050519
#
#
# Mechanical properties :
#
#
# Convention : Reuss Voigt Hill
#
# Bulk Modulus (GPa) = 23.40133 46.71691 35.05912
# Shear Modulus (GPa) = 8.05246 21.49246 14.77246
#
# Velocity S-wave (km/s) = 2.28838 3.73859 3.09950
# Velocity P-wave (km/s) = 4.71176 7.00123 5.96732
#
# Compressibility (1/GPa) = 0.04273261
#
# Stress axis : x y z
#
# Youngs Moduli (GPa) = 26.15243 77.24646 61.31618
#
# Poissons Ratio (x) = 0.02658 0.19653
# Poissons Ratio (y) = 0.00900 0.54145
# Poissons Ratio (z) = 0.08382 0.68212
#
# Static dielectric constant tensor:
#      x y z
#    x 1.571100 0.000000 0.000000 
#    y 0.000000 1.527950 0.000000 
#    z 0.000000 0.000000 1.520580 
# 
# From -- ./inp_files/24393.got.cif
#   From: 2010.05.17/outbox.cif.g08.bks.cpg/sg46_13_cif.got.tgz:24393.got - 2010.06.03 19:58:25.
