data_PCOD9377879
_publ_section_title
;
Structure prediction by ZEFSAII (Michael W. Deem and Ramdas Pophale) SiO2 
 PCOD9377879
Probable space group: I M A 2
;
_chemical_formula_sum "Si O2"
_cell_formula_units_Z 40
_cell_length_a 16.109135
_cell_length_b 19.461634
_cell_length_c 5.082421
_cell_angle_alpha 90.000000
_cell_angle_beta 90.000000
_cell_angle_gamma 90.000000
_cell_volume 1593.390262
_symmetry_space_group_name_H-M "I M A 2"
_symmetry_group_IT_number 46
_symmetry_cell_setting 'orthorhombic'
loop_
_space_group_symop_operation_xyz
x,y,z
-x,-y,z
1/2-x,y,z
1/2+x,-y,z
1/2+x,1/2+y,1/2+z
1/2-x,1/2-y,1/2+z
-x,1/2+y,1/2+z
x,1/2-y,1/2+z
loop_
_atom_site_type_symbol
_atom_site_label
_atom_site_fract_x
_atom_site_fract_y
_atom_site_fract_z
Si Si1 0.096333 0.975979 0.232890
Si Si2 0.876032 0.556235 0.236513
Si Si3 0.655389 0.296970 0.952958
Si Si4 0.960041 0.369237 0.340912
Si Si5 0.875418 0.707686 0.365020
O O1 0.138542 0.003852 0.499318
O O2 0.087686 0.901555 0.089762
O O3 0.000000 0.000000 0.247379
O O4 0.142606 0.019749 0.008387
O O5 0.842798 0.634607 0.254947
O O6 0.974718 0.573507 0.243159
O O7 0.750000 0.321667 0.972247
O O8 0.645271 0.233186 0.160642
O O9 0.596844 0.351220 0.095593
O O10 0.024481 0.306646 0.391076
O O11 0.853291 0.733866 0.654376
#
# Coordination Sequence:
#
# PCOD9377879 Si02
#       5
#     8   8   8   8   8
#     4  10  17  30  40  63  81 111 145 196 235 274
#     4   9  20  27  43  60  87 109 148 196 227 282
#     4  10  21  35  49  68  95 126 169 218 252 274
#     4   9  20  29  50  63  89 122 159 204 238 287
#     4  10  19  28  40  61  84 116 151 184 221 271
#
# _framework density 25.103707
#
# number of rings (size 3 to 8) (size 9 to 14) (size 15 to 20)
#    1.200    1.200    0.000    4.200    0.000    4.800 
#    0.000    0.000    0.000    0.000    0.000    0.000 
#    0.000    0.000    0.000    0.000    0.000   20.000 
#
# Total GULP energy -111474.999987 kJ/mol
# GULP energy per Si atom -5573.749999 kJ/mol
# Density = 2.504657 g / cm^3
# Si number density = 25.103707 Si / 1000 Ang^3
#
#
#
# Elastic Constant Matrix: (Units=GPa)
#
#
# Indices 1 2 3 4 5 6 
#
# 1 56.4073 8.5613 -19.8167 0.0000 0.0000 0.0000
# 2 8.5613 93.7235 31.0561 0.0000 0.0000 0.0000
# 3 -19.8167 31.0561 136.6943 0.0000 0.0000 0.0000
# 4 0.0000 0.0000 0.0000 29.5490 0.0000 0.0000
# 5 0.0000 0.0000 0.0000 0.0000 -14.4835 0.0000
# 6 0.0000 0.0000 0.0000 0.0000 0.0000 -10.9230
#
#
#
# Elastic Compliance Matrix: (Units=1/GPa)
#
#
# Indices 1 2 3 4 5 6 
#
# 1 0.019393 -0.002923 0.003476 0.000000 0.000000 0.000000
# 2 -0.002923 0.011979 -0.003145 0.000000 0.000000 0.000000
# 3 0.003476 -0.003145 0.008534 0.000000 0.000000 0.000000
# 4 0.000000 0.000000 0.000000 0.033842 0.000000 0.000000
# 5 0.000000 0.000000 0.000000 0.000000 -0.069044 0.000000
# 6 0.000000 0.000000 0.000000 0.000000 0.000000 -0.091550
#
#
# Mechanical properties :
#
#
# Convention : Reuss Voigt Hill
#
# Bulk Modulus (GPa) = 28.80181 36.26959 32.53570
# Shear Modulus (GPa) = -71.34017 18.63013 -26.35502
#
# Velocity S-wave (km/s) = -5.33665 2.72716 -3.24365
# Velocity P-wave (km/s) = 5.14540 4.93921 1.01965
#
# Compressibility (1/GPa) = 0.03472004
#
# Stress axis : x y z
#
# Youngs Moduli (GPa) = 51.56538 83.47995 117.17783
#
# Poissons Ratio (x) = 0.24402 -0.40725
# Poissons Ratio (y) = 0.15073 0.36856
# Poissons Ratio (z) = -0.17922 0.26257
#
# Static dielectric constant tensor:
#      x y z
#    x 2.042520 0.000000 0.000000 
#    y 0.000000 2.166100 0.000000 
#    z 0.000000 0.000000 1.962870 
# 
# From -- ./inp_files/2011.got.cif
#   From: 2010.05.17/outbox.cif.g08.bks.cpg/sg46_2_cif.got.tgz:2011.got - 2010.06.03 19:58:25.
