data_PCOD9377433
_publ_section_title
;
Structure prediction by ZEFSAII (Michael W. Deem and Ramdas Pophale) SiO2 
 PCOD9377433
Probable space group: I B A 2
;
_chemical_formula_sum "Si O2"
_cell_formula_units_Z 56
_cell_length_a 22.898597
_cell_length_b 7.263577
_cell_length_c 13.471268
_cell_angle_alpha 90.000000
_cell_angle_beta 90.000000
_cell_angle_gamma 90.000000
_cell_volume 2240.618383
_symmetry_space_group_name_H-M "I B A 2"
_symmetry_group_IT_number 45
_symmetry_cell_setting 'orthorhombic'
loop_
_space_group_symop_operation_xyz
x,y,z
-x,-y,z
-x,y,1/2+z
x,-y,1/2+z
1/2+x,1/2+y,1/2+z
1/2-x,1/2-y,1/2+z
1/2-x,1/2+y,z
1/2+x,1/2-y,z
loop_
_atom_site_type_symbol
_atom_site_label
_atom_site_fract_x
_atom_site_fract_y
_atom_site_fract_z
Si Si1 0.818839 0.045104 0.895430
Si Si2 0.292976 0.599850 0.179595
Si Si3 0.051990 0.128353 0.401684
Si Si4 0.708712 0.820768 0.480037
Si Si5 0.948068 0.411333 0.056961
Si Si6 0.607847 0.004313 0.875052
Si Si7 0.840899 0.688925 0.686887
O O1 0.886816 0.026388 0.917914
O O2 0.776602 0.127172 0.979695
O O3 0.808698 0.154987 0.792958
O O4 0.796608 0.836402 0.895833
O O5 0.222099 0.588127 0.180206
O O6 0.325818 0.403950 0.176946
O O7 0.308741 0.729864 0.085722
O O8 0.034578 0.217916 0.506855
O O9 0.077119 0.310682 0.343712
O O10 0.000000 0.000000 0.362293
O O11 0.669850 0.986202 0.434969
O O12 0.886295 0.375675 0.104850
O O13 0.000000 0.500000 0.119161
O O14 0.936106 0.552965 0.964831
O O15 0.621223 0.132876 0.783499
#
# Coordination Sequence:
#
# PCOD9377433 Si02
#       7
#     8   8   8   8   8   8   8
#     4  12  24  44  70 112 156 203 261 332 399 498
#     4  12  26  41  78 111 167 202 258 333 418 495
#     4  10  25  46  76 108 150 207 270 329 400 477
#     4  12  24  42  73 114 160 209 264 330 418 483
#     4  10  26  49  76 102 148 209 264 334 394 485
#     4  10  25  46  78 107 158 202 266 329 409 480
#     4  12  26  48  72 121 153 210 265 329 415 491
#
# _framework density 24.993099000000001
#
# number of rings (size 3 to 8) (size 9 to 14) (size 15 to 20)
#    0.857    0.000    2.857    3.429    8.000    0.571 
#    2.571    0.000    0.000    0.000    0.000    0.000 
#    0.000    0.000    0.000    0.000    0.000    0.000 
#
# Total GULP energy -155997.796661 kJ/mol
# GULP energy per Si atom -5571.349881 kJ/mol
# Density = 2.493621 g / cm^3
# Si number density = 24.993099 Si / 1000 Ang^3
#
#
#
# Elastic Constant Matrix: (Units=GPa)
#
#
# Indices 1 2 3 4 5 6 
#
# 1 172.0793 73.2078 16.7232 0.0000 0.0000 0.0000
# 2 73.2078 97.5627 49.4417 0.0000 0.0000 0.0000
# 3 16.7232 49.4417 101.2230 0.0000 0.0000 0.0000
# 4 0.0000 0.0000 0.0000 29.8003 0.0000 0.0000
# 5 0.0000 0.0000 0.0000 0.0000 21.7986 0.0000
# 6 0.0000 0.0000 0.0000 0.0000 0.0000 56.6297
#
#
#
# Elastic Compliance Matrix: (Units=1/GPa)
#
#
# Indices 1 2 3 4 5 6 
#
# 1 0.008953 -0.007932 0.002395 0.000000 0.000000 0.000000
# 2 -0.007932 0.020649 -0.008775 0.000000 0.000000 0.000000
# 3 0.002395 -0.008775 0.013770 0.000000 0.000000 0.000000
# 4 0.000000 0.000000 0.000000 0.033557 0.000000 0.000000
# 5 0.000000 0.000000 0.000000 0.000000 0.045875 0.000000
# 6 0.000000 0.000000 0.000000 0.000000 0.000000 0.017659
#
#
# Mechanical properties :
#
#
# Convention : Reuss Voigt Hill
#
# Bulk Modulus (GPa) = 67.80864 72.17892 69.99378
# Shear Modulus (GPa) = 28.73555 37.07853 32.90704
#
# Velocity S-wave (km/s) = 3.39446 3.85587 3.63250
# Velocity P-wave (km/s) = 6.52326 6.98326 6.75718
#
# Compressibility (1/GPa) = 0.01474738
#
# Stress axis : x y z
#
# Youngs Moduli (GPa) = 111.69560 48.42963 72.62335
#
# Poissons Ratio (x) = 0.38413 -0.17394
# Poissons Ratio (y) = 0.88594 0.63729
# Poissons Ratio (z) = -0.26752 0.42498
#
# Static dielectric constant tensor:
#      x y z
#    x 1.944020 0.000000 0.000000 
#    y 0.000000 2.083000 0.000000 
#    z 0.000000 0.000000 2.075850 
# 
# From -- ./inp_files/6954.got.cif
#   From: 2010.05.17/outbox.cif.g08.bks.cpg/sg45_4_cif.got.tgz:6954.got - 2010.06.03 19:51:22.
