data_PCOD9377361
_publ_section_title
;
Structure prediction by ZEFSAII (Michael W. Deem and Ramdas Pophale) SiO2 
 PCOD9377361
Probable space group: I B A 2
;
_chemical_formula_sum "Si O2"
_cell_formula_units_Z 44
_cell_length_a 20.643911
_cell_length_b 9.071544
_cell_length_c 7.824599
_cell_angle_alpha 90.000000
_cell_angle_beta 90.000000
_cell_angle_gamma 90.000000
_cell_volume 1465.329454
_symmetry_space_group_name_H-M "I B A 2"
_symmetry_group_IT_number 45
_symmetry_cell_setting 'orthorhombic'
loop_
_space_group_symop_operation_xyz
x,y,z
-x,-y,z
-x,y,1/2+z
x,-y,1/2+z
1/2+x,1/2+y,1/2+z
1/2-x,1/2-y,1/2+z
1/2-x,1/2+y,z
1/2+x,1/2-y,z
loop_
_atom_site_type_symbol
_atom_site_label
_atom_site_fract_x
_atom_site_fract_y
_atom_site_fract_z
Si Si1 0.638102 0.544062 0.581490
Si Si2 0.603559 0.096424 0.868205
Si Si3 0.804822 0.194684 0.263653
Si Si4 0.000000 0.000000 0.504966
Si Si5 0.538951 0.170424 0.490117
Si Si6 0.161527 0.336311 0.245041
O O1 0.675680 0.391061 0.592709
O O2 0.645428 0.621244 0.398353
O O3 0.562626 0.535598 0.614251
O O4 0.662637 0.660983 0.717500
O O5 0.674032 0.136973 0.766327
O O6 0.564248 0.153602 0.683034
O O7 0.533701 0.111147 0.972133
O O8 0.644725 0.109813 0.056365
O O9 0.733518 0.146407 0.315335
O O10 0.973834 0.841289 0.435299
O O11 0.599540 0.101968 0.362525
#
# Coordination Sequence:
#
# PCOD9377361 Si02
#       6
#     8   8   8   4   8   8
#     4  12  29  45  81 114 158 211 260 328 399 483
#     4   9  21  44  75 106 152 197 264 323 398 458
#     4  12  26  52  75 119 158 209 267 327 405 486
#     4  12  24  44  76 118 152 206 276 318 408 478
#     4   9  21  45  73 109 148 203 256 335 389 469
#     4  10  24  45  74 108 153 204 261 325 399 472
#
# _framework density 30.027377999999999
#
# number of rings (size 3 to 8) (size 9 to 14) (size 15 to 20)
#    1.091    0.364    1.818    2.182    2.545    5.091 
#    3.273    0.000    0.000    0.000    0.000    0.000 
#    0.000    0.000    0.000    0.000    0.000    0.000 
#
# Total GULP energy -122560.489458 kJ/mol
# GULP energy per Si atom -5570.931339 kJ/mol
# Density = 2.995903 g / cm^3
# Si number density = 30.027378 Si / 1000 Ang^3
#
#
#
# Elastic Constant Matrix: (Units=GPa)
#
#
# Indices 1 2 3 4 5 6 
#
# 1 221.7936 59.3715 60.4204 0.0000 0.0000 0.0000
# 2 59.3715 130.1944 30.8576 0.0000 0.0000 0.0000
# 3 60.4204 30.8576 155.7562 0.0000 0.0000 0.0000
# 4 0.0000 0.0000 0.0000 38.9797 0.0000 0.0000
# 5 0.0000 0.0000 0.0000 0.0000 56.6717 0.0000
# 6 0.0000 0.0000 0.0000 0.0000 0.0000 62.0509
#
#
#
# Elastic Compliance Matrix: (Units=1/GPa)
#
#
# Indices 1 2 3 4 5 6 
#
# 1 0.005548 -0.002119 -0.001732 0.000000 0.000000 0.000000
# 2 -0.002119 0.008869 -0.000935 0.000000 0.000000 0.000000
# 3 -0.001732 -0.000935 0.007277 0.000000 0.000000 0.000000
# 4 0.000000 0.000000 0.000000 0.025654 0.000000 0.000000
# 5 0.000000 0.000000 0.000000 0.000000 0.017645 0.000000
# 6 0.000000 0.000000 0.000000 0.000000 0.000000 0.016116
#
#
# Mechanical properties :
#
#
# Convention : Reuss Voigt Hill
#
# Bulk Modulus (GPa) = 82.50024 89.89369 86.19696
# Shear Modulus (GPa) = 52.78521 55.34678 54.06599
#
# Velocity S-wave (km/s) = 4.19728 4.29792 4.24790
# Velocity P-wave (km/s) = 7.14313 7.39133 7.26829
#
# Compressibility (1/GPa) = 0.01212118
#
# Stress axis : x y z
#
# Youngs Moduli (GPa) = 180.24736 112.75353 137.41027
#
# Poissons Ratio (x) = 0.23897 0.23803
# Poissons Ratio (y) = 0.38202 0.12847
# Poissons Ratio (z) = 0.31223 0.10541
#
# Static dielectric constant tensor:
#      x y z
#    x 1.975560 0.000000 0.000000 
#    y 0.000000 3.935590 0.000000 
#    z 0.000000 0.000000 2.225300 
# 
# From -- ./inp_files/1672.got.cif
#   From: 2010.05.17/outbox.cif.g08.bks.cpg/sg45_1_cif.got.tgz:1672.got - 2010.06.03 19:51:22.
