data_PCOD9377610
_publ_section_title
;
Structure prediction by ZEFSAII (Michael W. Deem and Ramdas Pophale) SiO2 
 PCOD9377610
Probable space group: I B A 2
;
_chemical_formula_sum "Si O2"
_cell_formula_units_Z 44
_cell_length_a 8.279315
_cell_length_b 16.493736
_cell_length_c 13.721340
_cell_angle_alpha 90.000000
_cell_angle_beta 90.000000
_cell_angle_gamma 90.000000
_cell_volume 1873.742774
_symmetry_space_group_name_H-M "I B A 2"
_symmetry_group_IT_number 45
_symmetry_cell_setting 'orthorhombic'
loop_
_space_group_symop_operation_xyz
x,y,z
-x,-y,z
-x,y,1/2+z
x,-y,1/2+z
1/2+x,1/2+y,1/2+z
1/2-x,1/2-y,1/2+z
1/2-x,1/2+y,z
1/2+x,1/2-y,z
loop_
_atom_site_type_symbol
_atom_site_label
_atom_site_fract_x
_atom_site_fract_y
_atom_site_fract_z
Si Si1 0.500000 0.000000 0.326190
Si Si2 0.109556 0.240314 0.740148
Si Si3 0.667307 0.851586 0.424939
Si Si4 0.356600 0.262093 0.605335
Si Si5 0.342481 0.555501 0.783111
Si Si6 0.482857 0.412414 0.486300
O O1 0.451440 0.076684 0.392598
O O2 0.664924 0.018052 0.265705
O O3 0.151422 0.284476 0.839956
O O4 0.172248 0.276386 0.637082
O O5 0.141263 0.144428 0.738368
O O6 0.920092 0.251951 0.715748
O O7 0.632296 0.809410 0.527747
O O8 0.849586 0.885554 0.434910
O O9 0.426748 0.342135 0.556788
O O10 0.500000 0.500000 0.760636
O O11 0.356900 0.572321 0.899277
O O12 0.500000 0.500000 0.536027
#
# Coordination Sequence:
#
# PCOD9377610 Si02
#       6
#     4   8   8   8   8   8
#     4  12  26  44  82 108 144 210 246 310 396 434
#     4  12  27  47  76 112 147 201 253 305 385 455
#     4  12  26  49  74 106 156 194 251 320 370 456
#     4  12  27  45  74 112 144 199 252 302 379 453
#     4  11  24  48  77 110 152 202 252 313 383 450
#     4  11  23  49  74 104 151 205 245 313 384 445
#
# _framework density 23.482410999999999
#
# number of rings (size 3 to 8) (size 9 to 14) (size 15 to 20)
#    0.000    0.364    7.273    2.182    5.091    0.727 
#    0.000    3.636    0.000    0.000    0.000    0.000 
#    0.000    0.000    0.000    0.000    0.000    0.000 
#
# Total GULP energy -122934.716539 kJ/mol
# GULP energy per Si atom -5587.941661 kJ/mol
# Density = 2.342896 g / cm^3
# Si number density = 23.482411 Si / 1000 Ang^3
#
#
#
# Elastic Constant Matrix: (Units=GPa)
#
#
# Indices 1 2 3 4 5 6 
#
# 1 106.0124 58.7289 27.7528 0.0000 0.0000 0.0000
# 2 58.7289 111.3218 16.6008 0.0000 0.0000 0.0000
# 3 27.7528 16.6008 83.9250 0.0000 0.0000 0.0000
# 4 0.0000 0.0000 0.0000 8.1786 0.0000 0.0000
# 5 0.0000 0.0000 0.0000 0.0000 9.8637 0.0000
# 6 0.0000 0.0000 0.0000 0.0000 0.0000 44.2610
#
#
#
# Elastic Compliance Matrix: (Units=1/GPa)
#
#
# Indices 1 2 3 4 5 6 
#
# 1 0.014164 -0.006980 -0.003303 0.000000 0.000000 0.000000
# 2 -0.006980 0.012696 -0.000203 0.000000 0.000000 0.000000
# 3 -0.003303 -0.000203 0.013048 0.000000 0.000000 0.000000
# 4 0.000000 0.000000 0.000000 0.122270 0.000000 0.000000
# 5 0.000000 0.000000 0.000000 0.000000 0.101382 0.000000
# 6 0.000000 0.000000 0.000000 0.000000 0.000000 0.022593
#
#
# Mechanical properties :
#
#
# Convention : Reuss Voigt Hill
#
# Bulk Modulus (GPa) = 52.81157 56.38047 54.59602
# Shear Modulus (GPa) = 15.95218 25.67245 20.81231
#
# Velocity S-wave (km/s) = 2.60921 3.31004 2.98030
# Velocity P-wave (km/s) = 5.62281 6.21854 5.92816
#
# Compressibility (1/GPa) = 0.01893524
#
# Stress axis : x y z
#
# Youngs Moduli (GPa) = 70.59960 78.76748 76.64056
#
# Poissons Ratio (x) = 0.54979 0.25317
# Poissons Ratio (y) = 0.49278 0.01556
# Poissons Ratio (z) = 0.23321 0.01600
#
# Static dielectric constant tensor:
#      x y z
#    x 1.950650 0.000000 0.000000 
#    y 0.000000 1.882840 0.000000 
#    z 0.000000 0.000000 1.833260 
# 
# From -- ./inp_files/5570.got.cif
#   From: 2010.05.17/outbox.cif.g08.bks.cpg/sg45_3_cif.got.tgz:5570.got - 2010.06.03 19:51:22.
