data_PCOD9377001
_publ_section_title
;
Structure prediction by ZEFSAII (Michael W. Deem and Ramdas Pophale) SiO2 
 PCOD9377001
Probable space group: I B A 2
;
_chemical_formula_sum "Si O2"
_cell_formula_units_Z 52
_cell_length_a 16.723987
_cell_length_b 13.887242
_cell_length_c 9.860141
_cell_angle_alpha 90.000000
_cell_angle_beta 90.000000
_cell_angle_gamma 90.000000
_cell_volume 2290.018286
_symmetry_space_group_name_H-M "I B A 2"
_symmetry_group_IT_number 45
_symmetry_cell_setting 'orthorhombic'
loop_
_space_group_symop_operation_xyz
x,y,z
-x,-y,z
-x,y,1/2+z
x,-y,1/2+z
1/2+x,1/2+y,1/2+z
1/2-x,1/2-y,1/2+z
1/2-x,1/2+y,z
1/2+x,1/2-y,z
loop_
_atom_site_type_symbol
_atom_site_label
_atom_site_fract_x
_atom_site_fract_y
_atom_site_fract_z
Si Si1 0.063184 0.799264 0.062470
Si Si2 0.741503 0.484173 0.057351
Si Si3 0.773444 0.286779 0.164344
Si Si4 0.178969 0.679284 0.461808
Si Si5 0.136600 0.944135 0.307200
Si Si6 0.000000 0.000000 0.983461
Si Si7 0.469807 0.246736 0.324662
O O1 0.156359 0.780323 0.099792
O O2 0.018304 0.728095 0.167488
O O3 0.014742 0.902589 0.070622
O O4 0.047505 0.765521 0.910558
O O5 0.788642 0.397833 0.128152
O O6 0.672188 0.516965 0.165753
O O7 0.791171 0.577092 0.015227
O O8 0.706771 0.441286 0.917480
O O9 0.772259 0.284576 0.327346
O O10 0.694330 0.252387 0.086129
O O11 0.089398 0.676907 0.404255
O O12 0.074358 0.013255 0.381564
O O13 0.084521 0.845688 0.314569
#
# Coordination Sequence:
#
# PCOD9377001 Si02
#       7
#     8   8   8   8   8   4   8
#     4  10  23  40  62  93 131 170 213 270 340 405
#     4  12  23  40  64  96 132 175 227 277 339 406
#     4  11  24  42  66  96 133 177 229 285 341 415
#     4  11  23  42  65  91 131 173 224 284 336 410
#     4  11  22  39  61  95 130 173 220 270 343 401
#     4  10  22  40  66  98 140 176 220 284 348 428
#     4  10  22  41  60  91 128 167 216 267 333 401
#
# _framework density 22.707242000000001
#
# number of rings (size 3 to 8) (size 9 to 14) (size 15 to 20)
#    0.000    1.231    3.077    3.692    0.000    9.231 
#    0.000    0.769    0.000    3.692    0.000    0.000 
#    0.000    0.000    0.000    0.000    0.000    0.000 
#
# Total GULP energy -144846.846252 kJ/mol
# GULP energy per Si atom -5571.032548 kJ/mol
# Density = 2.265556 g / cm^3
# Si number density = 22.707242 Si / 1000 Ang^3
#
#
#
# Elastic Constant Matrix: (Units=GPa)
#
#
# Indices 1 2 3 4 5 6 
#
# 1 38.6491 17.6469 12.1262 0.0000 0.0000 0.0000
# 2 17.6469 88.7559 17.8687 0.0000 0.0000 0.0000
# 3 12.1262 17.8687 99.8414 0.0000 0.0000 0.0000
# 4 0.0000 0.0000 0.0000 31.1548 0.0000 0.0000
# 5 0.0000 0.0000 0.0000 0.0000 43.9250 0.0000
# 6 0.0000 0.0000 0.0000 0.0000 0.0000 20.3540
#
#
#
# Elastic Compliance Matrix: (Units=1/GPa)
#
#
# Indices 1 2 3 4 5 6 
#
# 1 0.029089 -0.005262 -0.002591 0.000000 0.000000 0.000000
# 2 -0.005262 0.012640 -0.001623 0.000000 0.000000 0.000000
# 3 -0.002591 -0.001623 0.010621 0.000000 0.000000 0.000000
# 4 0.000000 0.000000 0.000000 0.032098 0.000000 0.000000
# 5 0.000000 0.000000 0.000000 0.000000 0.022766 0.000000
# 6 0.000000 0.000000 0.000000 0.000000 0.000000 0.049130
#
#
# Mechanical properties :
#
#
# Convention : Reuss Voigt Hill
#
# Bulk Modulus (GPa) = 29.94224 35.83665 32.88945
# Shear Modulus (GPa) = 26.81972 31.06040 28.94006
#
# Velocity S-wave (km/s) = 3.44045 3.70248 3.57387
# Velocity P-wave (km/s) = 5.38490 5.83901 5.61655
#
# Compressibility (1/GPa) = 0.03339764
#
# Stress axis : x y z
#
# Youngs Moduli (GPa) = 34.37673 79.11495 94.15230
#
# Poissons Ratio (x) = 0.41630 0.24398
# Poissons Ratio (y) = 0.18089 0.15282
# Poissons Ratio (z) = 0.08908 0.12841
#
# Static dielectric constant tensor:
#      x y z
#    x 1.904580 0.000000 0.000000 
#    y 0.000000 1.900930 0.000000 
#    z 0.000000 0.000000 1.974540 
# 
# From -- ./inp_files/2320.got.cif
#   From: 2010.05.17/outbox.cif.g08.bks.cpg/sg45_2_cif.got.tgz:2320.got - 2010.06.03 19:51:22.
