data_PCOD9377024
_publ_section_title
;
Structure prediction by ZEFSAII (Michael W. Deem and Ramdas Pophale) SiO2 
 PCOD9377024
Probable space group: I B A 2
;
_chemical_formula_sum "Si O2"
_cell_formula_units_Z 64
_cell_length_a 30.675151
_cell_length_b 8.456749
_cell_length_c 11.325805
_cell_angle_alpha 90.000000
_cell_angle_beta 90.000000
_cell_angle_gamma 90.000000
_cell_volume 2938.050322
_symmetry_space_group_name_H-M "I B A 2"
_symmetry_group_IT_number 45
_symmetry_cell_setting 'orthorhombic'
loop_
_space_group_symop_operation_xyz
x,y,z
-x,-y,z
-x,y,1/2+z
x,-y,1/2+z
1/2+x,1/2+y,1/2+z
1/2-x,1/2-y,1/2+z
1/2-x,1/2+y,z
1/2+x,1/2-y,z
loop_
_atom_site_type_symbol
_atom_site_label
_atom_site_fract_x
_atom_site_fract_y
_atom_site_fract_z
Si Si1 0.923698 0.832388 0.168680
Si Si2 0.717508 0.497653 0.323194
Si Si3 0.875651 0.014556 0.353114
Si Si4 0.792165 0.535070 0.001368
Si Si5 0.112053 0.650578 0.438445
Si Si6 0.958286 0.610400 0.376188
Si Si7 0.237093 0.733698 0.156984
Si Si8 0.541637 0.416019 0.503642
O O1 0.948568 0.722909 0.263570
O O2 0.882930 0.916411 0.233529
O O3 0.908163 0.726961 0.058186
O O4 0.952358 0.980640 0.122251
O O5 0.673453 0.485589 0.397495
O O6 0.761182 0.526286 0.397024
O O7 0.728260 0.347146 0.244004
O O8 0.710541 0.641178 0.233012
O O9 0.885183 0.201544 0.348315
O O10 0.912530 0.946876 0.439122
O O11 0.839243 0.589677 0.961678
O O12 0.792970 0.399997 0.100490
O O13 0.764528 0.678239 0.056889
O O14 0.082283 0.506280 0.396772
O O15 0.965402 0.728860 0.488386
O O16 0.000000 0.500000 0.358868
O O17 0.500000 0.500000 0.442661
#
# Coordination Sequence:
#
# PCOD9377024 Si02
#       8
#     8   8   8   8   8   8   8   8
#     4  10  24  42  67  93 129 174 209 257 322 383
#     4  11  22  39  61  88 125 167 208 262 315 366
#     4  10  22  41  64  92 127 169 215 257 314 389
#     4  11  23  41  61  88 127 165 207 264 315 367
#     4  11  24  42  65  98 129 164 217 270 318 374
#     4  11  25  44  68 100 130 162 212 269 316 374
#     4  10  23  37  60  90 120 165 218 253 309 384
#     4  10  23  44  67  93 126 168 211 254 314 389
#
# _framework density 21.783152000000001
#
# number of rings (size 3 to 8) (size 9 to 14) (size 15 to 20)
#    0.000    1.500    0.000    4.500    0.000   16.500 
#    0.000    0.000    0.000    0.000    0.000    0.000 
#    0.000    0.000    0.000    0.000    0.000    0.000 
#
# Total GULP energy -178738.577291 kJ/mol
# GULP energy per Si atom -5585.580540 kJ/mol
# Density = 2.173357 g / cm^3
# Si number density = 21.783152 Si / 1000 Ang^3
#
#
#
# Elastic Constant Matrix: (Units=GPa)
#
#
# Indices 1 2 3 4 5 6 
#
# 1 109.7848 33.9193 20.9411 0.0000 0.0000 0.0000
# 2 33.9193 123.8168 40.2607 0.0000 0.0000 0.0000
# 3 20.9411 40.2607 64.3422 0.0000 0.0000 0.0000
# 4 0.0000 0.0000 0.0000 50.9085 0.0000 0.0000
# 5 0.0000 0.0000 0.0000 0.0000 25.1918 0.0000
# 6 0.0000 0.0000 0.0000 0.0000 0.0000 5.2027
#
#
#
# Elastic Compliance Matrix: (Units=1/GPa)
#
#
# Indices 1 2 3 4 5 6 
#
# 1 0.010144 -0.002141 -0.001962 0.000000 0.000000 0.000000
# 2 -0.002141 0.010591 -0.005930 0.000000 0.000000 0.000000
# 3 -0.001962 -0.005930 0.019891 0.000000 0.000000 0.000000
# 4 0.000000 0.000000 0.000000 0.019643 0.000000 0.000000
# 5 0.000000 0.000000 0.000000 0.000000 0.039696 0.000000
# 6 0.000000 0.000000 0.000000 0.000000 0.000000 0.192208
#
#
# Mechanical properties :
#
#
# Convention : Reuss Voigt Hill
#
# Bulk Modulus (GPa) = 48.63775 54.24289 51.44032
# Shear Modulus (GPa) = 15.66936 29.78210 22.72573
#
# Velocity S-wave (km/s) = 2.68495 3.70159 3.23347
# Velocity P-wave (km/s) = 5.65584 6.57452 6.13241
#
# Compressibility (1/GPa) = 0.02056016
#
# Stress axis : x y z
#
# Youngs Moduli (GPa) = 98.57580 94.41649 50.27326
#
# Poissons Ratio (x) = 0.20216 0.09863
# Poissons Ratio (y) = 0.21106 0.29814
# Poissons Ratio (z) = 0.19340 0.55993
#
# Static dielectric constant tensor:
#      x y z
#    x 1.794660 0.000000 0.000000 
#    y 0.000000 1.795280 0.000000 
#    z 0.000000 0.000000 1.859430 
# 
# From -- ./inp_files/4984.got.cif
#   From: 2010.05.17/outbox.cif.g08.bks.cpg/sg45_3_cif.got.tgz:4984.got - 2010.06.03 19:51:22.
