data_PCOD9377073
_publ_section_title
;
Structure prediction by ZEFSAII (Michael W. Deem and Ramdas Pophale) SiO2 
 PCOD9377073
Probable space group: I B A 2
;
_chemical_formula_sum "Si O2"
_cell_formula_units_Z 64
_cell_length_a 10.906339
_cell_length_b 28.251285
_cell_length_c 8.999430
_cell_angle_alpha 90.000000
_cell_angle_beta 90.000000
_cell_angle_gamma 90.000000
_cell_volume 2772.887195
_symmetry_space_group_name_H-M "I B A 2"
_symmetry_group_IT_number 45
_symmetry_cell_setting 'orthorhombic'
loop_
_space_group_symop_operation_xyz
x,y,z
-x,-y,z
-x,y,1/2+z
x,-y,1/2+z
1/2+x,1/2+y,1/2+z
1/2-x,1/2-y,1/2+z
1/2-x,1/2+y,z
1/2+x,1/2-y,z
loop_
_atom_site_type_symbol
_atom_site_label
_atom_site_fract_x
_atom_site_fract_y
_atom_site_fract_z
Si Si1 0.635682 0.237066 0.421420
Si Si2 0.517934 0.053758 0.517368
Si Si3 0.040358 0.759803 0.219711
Si Si4 0.362256 0.520159 0.134174
Si Si5 0.259486 0.444286 0.327531
Si Si6 0.666279 0.187932 0.932585
Si Si7 0.178729 0.409765 0.787576
Si Si8 0.251563 0.838212 0.246115
O O1 0.540981 0.243362 0.552766
O O2 0.594201 0.268424 0.280392
O O3 0.753129 0.266003 0.472567
O O4 0.670864 0.184374 0.379968
O O5 0.622341 0.052940 0.389719
O O6 0.395546 0.070634 0.431801
O O7 0.582011 0.084062 0.649749
O O8 0.500000 0.000000 0.571700
O O9 0.073442 0.713684 0.318399
O O10 0.133270 0.803380 0.235302
O O11 0.500000 0.500000 0.157362
O O12 0.278315 0.476328 0.183828
O O13 0.301578 0.561701 0.237134
O O14 0.342438 0.536466 0.964289
O O15 0.287911 0.390704 0.284020
O O16 0.711272 0.143808 0.832099
O O17 0.664377 0.164966 0.098224
#
# Coordination Sequence:
#
# PCOD9377073 Si02
#       8
#     8   8   8   8   8   8   8   8
#     4  10  22  43  67  97 140 182 233 287 356 422
#     4  11  24  43  67 102 140 177 228 301 362 430
#     4  10  22  42  68  98 138 186 226 293 355 420
#     4  11  26  49  71 100 141 191 240 304 352 434
#     4  11  26  45  71 104 139 186 240 294 370 426
#     4  10  24  42  66 101 139 180 238 293 351 436
#     4  11  26  41  71 105 136 187 232 297 365 432
#     4  10  24  44  67 100 137 183 234 291 350 435
#
# _framework density 23.080634
#
# number of rings (size 3 to 8) (size 9 to 14) (size 15 to 20)
#    0.000    1.500    1.250    1.500   10.500    2.000 
#    4.500    0.000    0.000    0.000    0.000    0.000 
#    0.000    0.000    0.000    0.000    0.000    0.000 
#
# Total GULP energy -178419.924966 kJ/mol
# GULP energy per Si atom -5575.622655 kJ/mol
# Density = 2.302810 g / cm^3
# Si number density = 23.080634 Si / 1000 Ang^3
#
#
#
# Elastic Constant Matrix: (Units=GPa)
#
#
# Indices 1 2 3 4 5 6 
#
# 1 52.9771 18.7452 26.5465 -0.0001 -0.0002 0.0001
# 2 18.7452 153.3977 58.6048 -0.0002 0.0000 0.0000
# 3 26.5465 58.6048 117.2917 0.0002 0.0018 0.0008
# 4 -0.0001 -0.0002 0.0002 29.0776 0.0001 -0.0001
# 5 -0.0002 0.0000 0.0018 0.0001 32.1870 0.0000
# 6 0.0001 0.0000 0.0008 -0.0001 0.0000 9.2688
#
#
#
# Elastic Compliance Matrix: (Units=1/GPa)
#
#
# Indices 1 2 3 4 5 6 
#
# 1 0.021401 -0.000945 -0.004371 0.000000 0.000000 0.000000
# 2 -0.000945 0.008099 -0.003833 0.000000 0.000000 0.000000
# 3 -0.004371 -0.003833 0.011430 0.000000 -0.000001 -0.000001
# 4 0.000000 0.000000 0.000000 0.034391 0.000000 0.000001
# 5 0.000000 0.000000 -0.000001 0.000000 0.031068 0.000000
# 6 0.000000 0.000000 -0.000001 0.000001 0.000000 0.107889
#
#
# Mechanical properties :
#
#
# Convention : Reuss Voigt Hill
#
# Bulk Modulus (GPa) = 44.18625 59.05105 51.61865
# Shear Modulus (GPa) = 20.82291 28.75800 24.79046
#
# Velocity S-wave (km/s) = 3.00689 3.53367 3.28087
# Velocity P-wave (km/s) = 5.58937 6.50303 6.06343
#
# Compressibility (1/GPa) = 0.02263147
#
# Stress axis : x y z
#
# Youngs Moduli (GPa) = 46.72680 123.47613 87.48826
#
# Poissons Ratio (x) = 0.11670 0.38245
# Poissons Ratio (y) = 0.04416 0.33531
# Poissons Ratio (z) = 0.20426 0.47324
#
# Static dielectric constant tensor:
#      x y z
#    x 2.093140 0.000000 0.000000 
#    y 0.000000 1.858420 0.000000 
#    z 0.000000 0.000000 1.895570 
# 
# From -- ./inp_files/1513.got.cif
#   From: 2010.05.17/outbox.cif.g08.bks.cpg/sg45_1_cif.got.tgz:1513.got - 2010.06.03 19:51:22.
