data_PCOD9377911
_publ_section_title
;
Structure prediction by ZEFSAII (Michael W. Deem and Ramdas Pophale) SiO2 
 PCOD9377911
Probable space group: I M A 2
;
_chemical_formula_sum "Si O2"
_cell_formula_units_Z 64
_cell_length_a 14.882089
_cell_length_b 12.339920
_cell_length_c 15.901149
_cell_angle_alpha 90.000000
_cell_angle_beta 90.000000
_cell_angle_gamma 90.000000
_cell_volume 2920.147231
_symmetry_space_group_name_H-M "I M A 2"
_symmetry_group_IT_number 46
_symmetry_cell_setting 'orthorhombic'
loop_
_space_group_symop_operation_xyz
x,y,z
-x,-y,z
1/2-x,y,z
1/2+x,-y,z
1/2+x,1/2+y,1/2+z
1/2-x,1/2-y,1/2+z
-x,1/2+y,1/2+z
x,1/2-y,1/2+z
loop_
_atom_site_type_symbol
_atom_site_label
_atom_site_fract_x
_atom_site_fract_y
_atom_site_fract_z
Si Si1 0.646956 0.622051 0.077370
Si Si2 0.860175 0.023506 0.729186
Si Si3 0.859887 0.243015 0.169719
Si Si4 0.359914 0.987466 0.914469
Si Si5 0.139627 0.134574 0.070098
Si Si6 0.641952 0.007343 0.228383
Si Si7 0.642390 0.254034 0.475336
Si Si8 0.897061 0.484770 0.918865
O O1 0.750000 0.641425 0.103636
O O2 0.606773 0.549196 0.151746
O O3 0.607509 0.741613 0.066351
O O4 0.649898 0.554673 0.991141
O O5 0.750000 0.025277 0.726150
O O6 0.888311 0.148285 0.717183
O O7 0.886949 0.980397 0.820489
O O8 0.750000 0.241208 0.171734
O O9 0.890690 0.129204 0.208296
O O10 0.887217 0.251922 0.072258
O O11 0.250000 0.987709 0.915830
O O12 0.390370 0.864626 0.933138
O O13 0.389854 0.065993 0.989082
O O14 0.250000 0.133137 0.068242
O O15 0.111046 0.074524 0.155740
O O16 0.750000 0.010002 0.222616
O O17 0.619764 0.977339 0.323865
O O18 0.750000 0.263946 0.478246
O O19 0.624362 0.142237 0.427765
O O20 0.000000 0.500000 0.939029
#
# Coordination Sequence:
#
# PCOD9377911 Si02
#       8
#     8   8   8   8   8   8   8   8
#     4  10  20  36  57  80 111 150 186 225 276 335
#     4   9  16  26  46  79 112 138 168 213 270 327
#     4   9  15  27  53  86 111 135 173 224 285 335
#     4   9  16  28  52  89 119 133 167 229 288 337
#     4   9  18  32  55  87 115 141 178 225 278 335
#     4  10  19  35  59  86 113 143 181 232 284 336
#     4  10  17  32  59  85 112 144 180 233 290 333
#     4  12  25  38  53  79 114 154 196 232 276 329
#
# _framework density 21.916702000000001
#
# number of rings (size 3 to 8) (size 9 to 14) (size 15 to 20)
#    0.000    2.250    2.500    1.875    0.000    3.000 
#    0.000    5.000    0.000    0.000    0.000    0.000 
#    0.000    0.000    0.000    0.000    0.000    0.000 
#
# Total GULP energy -178758.528374 kJ/mol
# GULP energy per Si atom -5586.204012 kJ/mol
# Density = 2.186682 g / cm^3
# Si number density = 21.916702 Si / 1000 Ang^3
#
#
#
# Elastic Constant Matrix: (Units=GPa)
#
#
# Indices 1 2 3 4 5 6 
#
# 1 39.3435 6.1400 2.7333 0.0000 0.0000 0.0000
# 2 6.1400 154.4021 67.0543 0.0000 0.0000 0.0000
# 3 2.7333 67.0543 155.8251 0.0000 0.0000 0.0000
# 4 0.0000 0.0000 0.0000 -0.8836 0.0000 0.0000
# 5 0.0000 0.0000 0.0000 0.0000 -18.9810 0.0000
# 6 0.0000 0.0000 0.0000 0.0000 0.0000 -18.0843
#
#
#
# Elastic Compliance Matrix: (Units=1/GPa)
#
#
# Indices 1 2 3 4 5 6 
#
# 1 0.025576 -0.001011 -0.000013 0.000000 0.000000 0.000000
# 2 -0.001011 0.008005 -0.003427 0.000000 0.000000 0.000000
# 3 -0.000013 -0.003427 0.007892 0.000000 0.000000 0.000000
# 4 0.000000 0.000000 0.000000 -1.131796 0.000000 0.000000
# 5 0.000000 0.000000 0.000000 0.000000 -0.052684 0.000000
# 6 0.000000 0.000000 0.000000 0.000000 0.000000 -0.055297
#
#
# Mechanical properties :
#
#
# Convention : Reuss Voigt Hill
#
# Bulk Modulus (GPa) = 30.70307 55.71400 43.20853
# Shear Modulus (GPa) = -4.24253 10.65309 3.20528
#
# Velocity S-wave (km/s) = -1.39282 2.20710 1.21064
# Velocity P-wave (km/s) = 3.38420 5.65429 4.65960
#
# Compressibility (1/GPa) = 0.03257003
#
# Stress axis : x y z
#
# Youngs Moduli (GPa) = 39.09926 124.92040 126.70436
#
# Poissons Ratio (x) = 0.12632 0.00171
# Poissons Ratio (y) = 0.03954 0.43422
# Poissons Ratio (z) = 0.00053 0.42810
#
# Static dielectric constant tensor:
#      x y z
#    x 1.805650 0.000000 0.000000 
#    y 0.000000 1.728130 0.000000 
#    z 0.000000 0.000000 1.788480 
# 
# From -- ./inp_files/16777.got.cif
#   From: 2010.05.17/outbox.cif.g08.bks.cpg/sg46_9_cif.got.tgz:16777.got - 2010.06.03 19:58:25.
