data_PCOD9377342
_publ_section_title
;
Structure prediction by ZEFSAII (Michael W. Deem and Ramdas Pophale) SiO2 
 PCOD9377342
Probable space group: I B A 2
;
_chemical_formula_sum "Si O2"
_cell_formula_units_Z 64
_cell_length_a 8.812125
_cell_length_b 22.093014
_cell_length_c 16.339853
_cell_angle_alpha 90.000000
_cell_angle_beta 90.000000
_cell_angle_gamma 90.000000
_cell_volume 3181.147173
_symmetry_space_group_name_H-M "I B A 2"
_symmetry_group_IT_number 45
_symmetry_cell_setting 'orthorhombic'
loop_
_space_group_symop_operation_xyz
x,y,z
-x,-y,z
-x,y,1/2+z
x,-y,1/2+z
1/2+x,1/2+y,1/2+z
1/2-x,1/2-y,1/2+z
1/2-x,1/2+y,z
1/2+x,1/2-y,z
loop_
_atom_site_type_symbol
_atom_site_label
_atom_site_fract_x
_atom_site_fract_y
_atom_site_fract_z
Si Si1 0.670407 0.273278 0.780030
Si Si2 0.835557 0.116438 0.517539
Si Si3 0.769718 0.807434 0.417991
Si Si4 0.581719 0.439687 0.179436
Si Si5 0.049932 0.313091 0.181750
Si Si6 0.908993 0.437841 0.125080
Si Si7 0.503921 0.387457 0.353069
Si Si8 0.546517 0.256436 0.013669
O O1 0.777497 0.240364 0.844921
O O2 0.569727 0.219533 0.742052
O O3 0.571513 0.323745 0.825664
O O4 0.780363 0.306129 0.715916
O O5 0.932577 0.106087 0.601981
O O6 0.676455 0.085672 0.542329
O O7 0.909774 0.091436 0.433422
O O8 0.830765 0.188882 0.509340
O O9 0.603873 0.797150 0.454559
O O10 0.826853 0.871416 0.384651
O O11 0.892882 0.788430 0.485591
O O12 0.500000 0.500000 0.150910
O O13 0.763422 0.448247 0.184296
O O14 0.515249 0.423047 0.268026
O O15 0.005406 0.381806 0.160416
O O16 0.037834 0.271982 0.101716
O O17 0.000000 0.500000 0.114781
#
# Coordination Sequence:
#
# PCOD9377342 Si02
#       8
#     8   8   8   8   8   8   8   8
#     4  12  22  36  62 100 134 170 208 275 355 416
#     4   9  21  41  68  97 138 167 226 284 342 408
#     4  11  20  37  57  95 135 164 207 261 344 417
#     4  10  24  44  71  91 131 179 243 281 334 397
#     4  12  24  38  66  95 136 171 229 272 347 424
#     4  10  24  46  67  93 137 184 234 294 336 401
#     4  11  22  40  69  99 136 172 225 287 347 413
#     4  11  21  38  62  95 133 175 207 274 351 417
#
# _framework density 20.118528999999999
#
# number of rings (size 3 to 8) (size 9 to 14) (size 15 to 20)
#    0.750    0.500    3.750    3.750    1.750    1.500 
#    0.000    0.000    2.750    0.000    0.000    0.000 
#    0.000    0.000    0.000    0.000    0.000    0.000 
#
# Total GULP energy -178278.130938 kJ/mol
# GULP energy per Si atom -5571.191592 kJ/mol
# Density = 2.007274 g / cm^3
# Si number density = 20.118529 Si / 1000 Ang^3
#
#
#
# Elastic Constant Matrix: (Units=GPa)
#
#
# Indices 1 2 3 4 5 6 
#
# 1 40.8011 26.0565 12.9038 0.0000 0.0000 0.0000
# 2 26.0565 79.2165 23.5922 0.0000 0.0000 0.0000
# 3 12.9038 23.5922 103.3095 0.0000 0.0000 0.0000
# 4 0.0000 0.0000 0.0000 11.2365 0.0000 0.0000
# 5 0.0000 0.0000 0.0000 0.0000 21.4826 0.0000
# 6 0.0000 0.0000 0.0000 0.0000 0.0000 34.5250
#
#
#
# Elastic Compliance Matrix: (Units=1/GPa)
#
#
# Indices 1 2 3 4 5 6 
#
# 1 0.031293 -0.009795 -0.001672 0.000000 0.000000 0.000000
# 2 -0.009795 0.016611 -0.002570 0.000000 0.000000 0.000000
# 3 -0.001672 -0.002570 0.010475 0.000000 0.000000 0.000000
# 4 0.000000 0.000000 0.000000 0.088996 0.000000 0.000000
# 5 0.000000 0.000000 0.000000 0.000000 0.046549 0.000000
# 6 0.000000 0.000000 0.000000 0.000000 0.000000 0.028965
#
#
# Mechanical properties :
#
#
# Convention : Reuss Voigt Hill
#
# Bulk Modulus (GPa) = 32.99715 38.71470 35.85593
# Shear Modulus (GPa) = 19.15233 24.16713 21.65973
#
# Velocity S-wave (km/s) = 3.08876 3.46965 3.28473
# Velocity P-wave (km/s) = 5.39977 5.94444 5.67864
#
# Compressibility (1/GPa) = 0.03030564
#
# Stress axis : x y z
#
# Youngs Moduli (GPa) = 31.95565 60.20125 95.46238
#
# Poissons Ratio (x) = 0.58969 0.15959
# Poissons Ratio (y) = 0.31302 0.24533
# Poissons Ratio (z) = 0.05342 0.15471
#
# Static dielectric constant tensor:
#      x y z
#    x 1.759060 0.000000 0.000000 
#    y 0.000000 1.685640 0.000000 
#    z 0.000000 0.000000 1.768920 
# 
# From -- ./inp_files/7818.got.cif
#   From: 2010.05.17/outbox.cif.g08.bks.cpg/sg45_4_cif.got.tgz:7818.got - 2010.06.03 19:51:22.
