data_PCOD9377744
_publ_section_title
;
Structure prediction by ZEFSAII (Michael W. Deem and Ramdas Pophale) SiO2 
 PCOD9377744
Probable space group: I B A 2
;
_chemical_formula_sum "Si O2"
_cell_formula_units_Z 32
_cell_length_a 15.000000
_cell_length_b 9.000000
_cell_length_c 24.000000
_cell_angle_alpha 90.000000
_cell_angle_beta 90.000000
_cell_angle_gamma 90.000000
_cell_volume 3240.000000
_symmetry_space_group_name_H-M "I B A 2"
_symmetry_group_IT_number 45
_symmetry_cell_setting 'orthorhombic'
loop_
_space_group_symop_operation_xyz
x,y,z
-x,-y,z
-x,y,1/2+z
x,-y,1/2+z
1/2+x,1/2+y,1/2+z
1/2-x,1/2-y,1/2+z
1/2-x,1/2+y,z
1/2+x,1/2-y,z
loop_
_atom_site_type_symbol
_atom_site_label
_atom_site_fract_x
_atom_site_fract_y
_atom_site_fract_z
Si Si1 0.134643 0.259043 0.402060
Si Si2 0.591008 0.820066 0.768926
Si Si3 0.547054 0.848238 0.085563
Si Si4 0.976417 0.173515 0.481154
Si Si5 0.914120 0.345331 0.214536
Si Si6 0.736723 0.988304 0.084994
Si Si7 0.283090 0.735835 0.169564
Si Si8 0.290827 0.543156 0.958017
O O1 0.118216 0.291625 0.334694
O O2 0.204779 0.377502 0.429348
O O3 0.039984 0.258425 0.436205
O O4 0.175734 0.095119 0.418988
O O5 0.487584 0.774618 0.756461
O O6 0.652772 0.738645 0.723083
O O7 0.599252 0.992131 0.744688
O O8 0.538153 0.837997 0.152994
O O9 0.500000 0.000000 0.068407
O O10 0.652405 0.877007 0.076717
O O11 0.504587 0.729732 0.043073
O O12 0.870631 0.166315 0.466536
O O13 0.000000 0.000000 0.478386
O O14 0.816440 0.280528 0.197778
O O15 0.709146 0.125351 0.125768
O O16 0.801622 0.900093 0.127097
O O17 0.771280 0.015740 0.021946
#
# Coordination Sequence:
#
# PCOD9377744 Si02
#       8
#     8   8   8   8   8   8   8   8
#     4  11  26  46  66  98 136 187 235 285 343 415
#     4  11  23  46  68  95 140 184 238 284 341 420
#     4  11  20  40  68  99 133 170 225 281 346 417
#     4  10  25  44  65  99 142 177 224 283 349 412
#     4  10  23  43  68  99 137 180 228 285 350 416
#     4  11  23  39  68 101 146 167 227 285 356 413
#     4  11  22  41  69 106 134 182 223 291 349 420
#     4  11  25  44  69 100 140 183 229 293 348 415
#
# _framework density 9.8765429999999999
#
# number of rings (size 3 to 8) (size 9 to 14) (size 15 to 20)
#    0.000    1.250    5.000    0.750   12.250    1.000 
#    4.500    3.125    0.000    0.000    0.000    0.000 
#    0.000    0.000    0.000    0.000    0.000    0.000 
#
# Total GULP energy -178259.104095 kJ/mol
# GULP energy per Si atom -5570.597003 kJ/mol
# Density = 0.985406 g / cm^3
# Si number density = 9.876543 Si / 1000 Ang^3
#
#
#
# Elastic Constant Matrix: (Units=GPa)
#
#
# Indices 1 2 3 4 5 6 
#
# 1 91.7583 -3.0667 40.4993 0.0000 0.0000 0.0000
# 2 -3.0667 40.6104 31.0946 0.0000 0.0000 0.0000
# 3 40.4993 31.0946 195.9703 0.0000 0.0000 0.0000
# 4 0.0000 0.0000 0.0000 39.9573 0.0000 0.0000
# 5 0.0000 0.0000 0.0000 0.0000 44.5369 0.0000
# 6 0.0000 0.0000 0.0000 0.0000 0.0000 33.1567
#
#
#
# Elastic Compliance Matrix: (Units=1/GPa)
#
#
# Indices 1 2 3 4 5 6 
#
# 1 0.012367 0.003290 -0.003078 0.000000 0.000000 0.000000
# 2 0.003290 0.028905 -0.005266 0.000000 0.000000 0.000000
# 3 -0.003078 -0.005266 0.006574 0.000000 0.000000 0.000000
# 4 0.000000 0.000000 0.000000 0.025027 0.000000 0.000000
# 5 0.000000 0.000000 0.000000 0.000000 0.022453 0.000000
# 6 0.000000 0.000000 0.000000 0.000000 0.000000 0.030160
#
#
# Mechanical properties :
#
#
# Convention : Reuss Voigt Hill
#
# Bulk Modulus (GPa) = 26.49796 51.71038 39.10417
# Shear Modulus (GPa) = 33.74434 40.85096 37.29765
#
# Velocity S-wave (km/s) = 4.13765 4.55255 4.35005
# Velocity P-wave (km/s) = 6.02251 7.33958 6.71342
#
# Compressibility (1/GPa) = 0.03773875
#
# Stress axis : x y z
#
# Youngs Moduli (GPa) = 80.86290 34.59602 152.10324
#
# Poissons Ratio (x) = -0.11384 0.46814
# Poissons Ratio (y) = -0.26608 0.80103
# Poissons Ratio (z) = 0.24888 0.18220
#
# Static dielectric constant tensor:
#      x y z
#    x 1.806430 0.000000 0.000000 
#    y 0.000000 1.766530 0.000000 
#    z 0.000000 0.000000 1.673090 
# 
# From -- ./inp_files/9778.got.cif
#   From: 2010.05.17/outbox.ucp.g08.bks.cvg/sg45_5_cif.got.tgz:9778.got - 2010.06.11 16:34:12.
