data_PCOD9377246
_publ_section_title
;
Structure prediction by ZEFSAII (Michael W. Deem and Ramdas Pophale) SiO2 
 PCOD9377246
Probable space group: I B A 2
;
_chemical_formula_sum "Si O2"
_cell_formula_units_Z 32
_cell_length_a 19.560529
_cell_length_b 5.029210
_cell_length_c 13.864427
_cell_angle_alpha 90.000000
_cell_angle_beta 90.000000
_cell_angle_gamma 90.000000
_cell_volume 1363.899253
_symmetry_space_group_name_H-M "I B A 2"
_symmetry_group_IT_number 45
_symmetry_cell_setting 'orthorhombic'
loop_
_space_group_symop_operation_xyz
x,y,z
-x,-y,z
-x,y,1/2+z
x,-y,1/2+z
1/2+x,1/2+y,1/2+z
1/2-x,1/2-y,1/2+z
1/2-x,1/2+y,z
1/2+x,1/2-y,z
loop_
_atom_site_type_symbol
_atom_site_label
_atom_site_fract_x
_atom_site_fract_y
_atom_site_fract_z
Si Si1 0.621326 0.395687 0.980980
Si Si2 0.206986 0.883185 0.817150
Si Si3 0.923038 0.582115 0.589060
Si Si4 0.071396 0.859353 0.274465
O O1 0.685084 0.534980 0.926620
O O2 0.575450 0.304514 0.888718
O O3 0.588784 0.627657 0.044186
O O4 0.628594 0.132798 0.044524
O O5 0.231156 0.586511 0.798226
O O6 0.138885 0.960755 0.759314
O O7 0.920266 0.611959 0.704145
O O8 0.000000 0.500000 0.563803
O O9 0.000000 0.000000 0.251713
#
# Coordination Sequence:
#
# PCOD9377246 Si02
#       4
#     8   8   8   8
#     4  10  25  42  69  93 142 177 220 275 342 387
#     4  10  23  46  68  95 137 182 225 274 335 407
#     4  12  23  41  66 106 136 171 226 281 337 408
#     4  10  24  43  72 102 139 174 227 280 343 394
#
# _framework density 23.462143000000001
#
# number of rings (size 3 to 8) (size 9 to 14) (size 15 to 20)
#    1.500    0.000    0.000    5.250    0.000    9.000 
#    0.000    7.500    0.000    0.000    0.000    0.000 
#    0.000    0.000    0.000    0.000    0.000    0.000 
#
# Total GULP energy -89349.006326 kJ/mol
# GULP energy per Si atom -5584.312895 kJ/mol
# Density = 2.340874 g / cm^3
# Si number density = 23.462143 Si / 1000 Ang^3
#
#
#
# Elastic Constant Matrix: (Units=GPa)
#
#
# Indices 1 2 3 4 5 6 
#
# 1 79.8766 -10.3902 16.3866 0.0000 0.0000 0.0000
# 2 -10.3902 90.2635 63.7997 0.0000 0.0000 0.0000
# 3 16.3866 63.7997 78.3543 0.0000 0.0000 0.0000
# 4 0.0000 0.0000 0.0000 -17.2956 0.0000 0.0000
# 5 0.0000 0.0000 0.0000 0.0000 15.9132 0.0000
# 6 0.0000 0.0000 0.0000 0.0000 0.0000 27.9944
#
#
#
# Elastic Compliance Matrix: (Units=1/GPa)
#
#
# Indices 1 2 3 4 5 6 
#
# 1 0.016195 0.010031 -0.011555 0.000000 0.000000 0.000000
# 2 0.010031 0.032313 -0.028409 0.000000 0.000000 0.000000
# 3 -0.011555 -0.028409 0.038311 0.000000 0.000000 0.000000
# 4 0.000000 0.000000 0.000000 -0.057818 0.000000 0.000000
# 5 0.000000 0.000000 0.000000 0.000000 0.062841 0.000000
# 6 0.000000 0.000000 0.000000 0.000000 0.000000 0.035721
#
#
# Mechanical properties :
#
#
# Convention : Reuss Voigt Hill
#
# Bulk Modulus (GPa) = 37.10025 43.12071 40.11048
# Shear Modulus (GPa) = 25.45675 17.23561 21.34618
#
# Velocity S-wave (km/s) = 3.29753 2.71332 3.01958
# Velocity P-wave (km/s) = 5.50867 5.31365 5.41204
#
# Compressibility (1/GPa) = 0.02695400
#
# Stress axis : x y z
#
# Youngs Moduli (GPa) = 61.74901 30.94729 26.10241
#
# Poissons Ratio (x) = -0.31044 0.30161
# Poissons Ratio (y) = -0.61942 0.74153
# Poissons Ratio (z) = 0.71349 0.87917
#
# Static dielectric constant tensor:
#      x y z
#    x 1.901080 0.000000 0.000000 
#    y 0.000000 1.905390 0.000000 
#    z 0.000000 0.000000 1.911940 
# 
# From -- ./inp_files/6875.got.cif
#   From: 2010.05.17/outbox.cif.g08.bks.cpg/sg45_4_cif.got.tgz:6875.got - 2010.06.03 19:51:22.
