data_PCOD9377760
_publ_section_title
;
Structure prediction by ZEFSAII (Michael W. Deem and Ramdas Pophale) SiO2 
 PCOD9377760
Probable space group: I M A 2
;
_chemical_formula_sum "Si O2"
_cell_formula_units_Z 52
_cell_length_a 29.443625
_cell_length_b 7.695085
_cell_length_c 8.750748
_cell_angle_alpha 90.000000
_cell_angle_beta 90.000000
_cell_angle_gamma 90.000000
_cell_volume 1982.667450
_symmetry_space_group_name_H-M "I M A 2"
_symmetry_group_IT_number 46
_symmetry_cell_setting 'orthorhombic'
loop_
_space_group_symop_operation_xyz
x,y,z
-x,-y,z
1/2-x,y,z
1/2+x,-y,z
1/2+x,1/2+y,1/2+z
1/2-x,1/2-y,1/2+z
-x,1/2+y,1/2+z
x,1/2-y,1/2+z
loop_
_atom_site_type_symbol
_atom_site_label
_atom_site_fract_x
_atom_site_fract_y
_atom_site_fract_z
Si Si1 0.077439 0.155176 0.876690
Si Si2 0.200180 0.571055 0.324506
Si Si3 0.375940 0.529938 0.092097
Si Si4 0.848353 0.479076 0.594603
Si Si5 0.000000 0.500000 0.593994
Si Si6 0.699008 0.846689 0.372326
Si Si7 0.573076 0.432200 0.815301
O O1 0.090545 0.072548 0.711308
O O2 0.071307 0.359476 0.845458
O O3 0.119141 0.095075 0.984744
O O4 0.034681 0.092919 0.977891
O O5 0.250000 0.865329 0.786146
O O6 0.161924 0.605852 0.203389
O O7 0.181476 0.640107 0.484555
O O8 0.201696 0.361876 0.353541
O O9 0.340954 0.419109 0.981974
O O10 0.410154 0.634896 0.979621
O O11 0.814533 0.584820 0.704305
O O12 0.885133 0.398028 0.705631
O O13 0.028960 0.615891 0.716332
O O14 0.750000 0.904323 0.419176
#
# Coordination Sequence:
#
# PCOD9377760 Si02
#       7
#     8   8   8   8   4   8   8
#     4  10  18  31  48  64  87 117 154 196 234 278
#     4  10  16  21  32  53  81 114 155 190 208 237
#     4  10  17  26  39  56  81 117 154 189 224 256
#     4   9  16  26  39  56  83 119 153 187 221 253
#     4  10  22  34  48  70  86 110 158 200 242 286
#     4  10  16  21  32  53  81 114 155 190 208 237
#     4  10  18  31  48  64  87 117 154 196 234 278
#
# _framework density 26.227293
#
# number of rings (size 3 to 8) (size 9 to 14) (size 15 to 20)
#    0.000    2.154    0.000    9.231    0.000    3.077 
#    0.000    0.000    0.000    0.000    0.000    0.000 
#    0.000    0.000    0.000    0.000    0.000 1095.385 
#
# Total GULP energy -145239.147017 kJ/mol
# GULP energy per Si atom -5586.121039 kJ/mol
# Density = 2.616760 g / cm^3
# Si number density = 26.227293 Si / 1000 Ang^3
#
#
#
# Elastic Constant Matrix: (Units=GPa)
#
#
# Indices 1 2 3 4 5 6 
#
# 1 193.2066 38.1074 63.1636 0.0000 0.0000 0.0000
# 2 38.1074 56.8572 45.6345 0.0000 0.0000 0.0000
# 3 63.1636 45.6345 195.0912 0.0000 0.0000 0.0000
# 4 0.0000 0.0000 0.0000 31.1443 0.0000 0.0000
# 5 0.0000 0.0000 0.0000 0.0000 43.2312 0.0000
# 6 0.0000 0.0000 0.0000 0.0000 0.0000 31.6125
#
#
#
# Elastic Compliance Matrix: (Units=1/GPa)
#
#
# Indices 1 2 3 4 5 6 
#
# 1 0.006212 -0.003139 -0.001277 0.000000 0.000000 0.000000
# 2 -0.003139 0.023239 -0.004420 0.000000 0.000000 0.000000
# 3 -0.001277 -0.004420 0.006573 0.000000 0.000000 0.000000
# 4 0.000000 0.000000 0.000000 0.032109 0.000000 0.000000
# 5 0.000000 0.000000 0.000000 0.000000 0.023131 0.000000
# 6 0.000000 0.000000 0.000000 0.000000 0.000000 0.031633
#
#
# Mechanical properties :
#
#
# Convention : Reuss Voigt Hill
#
# Bulk Modulus (GPa) = 54.48600 82.10732 68.29666
# Shear Modulus (GPa) = 34.08632 41.08090 37.58361
#
# Velocity S-wave (km/s) = 3.60898 3.96200 3.78960
# Velocity P-wave (km/s) = 6.17948 7.23214 6.72643
#
# Compressibility (1/GPa) = 0.01835334
#
# Stress axis : x y z
#
# Youngs Moduli (GPa) = 160.96828 43.03135 152.13429
#
# Poissons Ratio (x) = 0.13506 0.19430
# Poissons Ratio (y) = 0.50522 0.67239
# Poissons Ratio (z) = 0.20559 0.19019
#
# Static dielectric constant tensor:
#      x y z
#    x 2.065640 0.000000 0.000000 
#    y 0.000000 2.185170 0.000000 
#    z 0.000000 0.000000 2.094080 
# 
# From -- ./inp_files/8456.got.cif
#   From: 2010.05.17/outbox.cif.g08.bks.cpg/sg46_5_cif.got.tgz:8456.got - 2010.06.03 19:58:25.
