data_PCOD9377980
_publ_section_title
;
Structure prediction by ZEFSAII (Michael W. Deem and Ramdas Pophale) SiO2 
 PCOD9377980
Probable space group: I M A 2
;
_chemical_formula_sum "Si O2"
_cell_formula_units_Z 64
_cell_length_a 8.638546
_cell_length_b 27.404616
_cell_length_c 18.925155
_cell_angle_alpha 90.000000
_cell_angle_beta 90.000000
_cell_angle_gamma 90.000000
_cell_volume 4480.266174
_symmetry_space_group_name_H-M "I M A 2"
_symmetry_group_IT_number 46
_symmetry_cell_setting 'orthorhombic'
loop_
_space_group_symop_operation_xyz
x,y,z
-x,-y,z
1/2-x,y,z
1/2+x,-y,z
1/2+x,1/2+y,1/2+z
1/2-x,1/2-y,1/2+z
-x,1/2+y,1/2+z
x,1/2-y,1/2+z
loop_
_atom_site_type_symbol
_atom_site_label
_atom_site_fract_x
_atom_site_fract_y
_atom_site_fract_z
Si Si1 0.434802 0.755260 0.351290
Si Si2 0.564992 0.293157 0.637738
Si Si3 0.064605 0.247021 0.507886
Si Si4 0.566186 0.798071 0.723571
Si Si5 0.562888 0.552756 0.007310
Si Si6 0.561638 0.648159 0.089707
Si Si7 0.564851 0.145922 0.267219
Si Si8 0.434541 0.052524 0.343865
O O1 0.250000 0.755687 0.358187
O O2 0.512040 0.750353 0.427309
O O3 0.484072 0.712277 0.297612
O O4 0.481614 0.806819 0.314435
O O5 0.750000 0.284482 0.643082
O O6 0.511607 0.288567 0.557184
O O7 0.474024 0.249647 0.676946
O O8 0.530191 0.340354 0.685628
O O9 0.250000 0.250191 0.513022
O O10 0.015476 0.194427 0.541048
O O11 0.750000 0.801353 0.734605
O O12 0.514525 0.841336 0.670755
O O13 0.500000 0.500000 0.029243
O O14 0.750000 0.551654 0.009000
O O15 0.514903 0.561036 0.925544
O O16 0.508789 0.597618 0.055603
O O17 0.750000 0.648003 0.089378
O O18 0.750000 0.141338 0.273651
O O19 0.489045 0.097177 0.296110
O O20 0.250000 0.050155 0.343483
O O21 0.500000 0.000000 0.321633
#
# Coordination Sequence:
#
# PCOD9377980 Si02
#       8
#     8   8   8   8   8   8   8   8
#     4  10  19  29  41  60  86 113 138 172 212 248
#     4   9  17  29  42  59  84 110 134 169 212 249
#     4  10  18  28  43  62  82 109 144 175 202 245
#     4   9  16  27  42  59  79 107 140 172 203 243
#     4   9  17  29  41  57  80 106 136 171 207 240
#     4   8  15  27  42  58  79 106 137 171 205 237
#     4   9  18  30  43  59  82 111 142 171 206 250
#     4  10  19  29  43  60  82 110 141 177 212 244
#
# _framework density 14.284865
#
# number of rings (size 3 to 8) (size 9 to 14) (size 15 to 20)
#    0.000    2.750    0.000    4.125    0.000    4.500 
#    0.000    3.750    0.000    0.000    0.000    0.000 
#    0.000    1.000    0.000    9.250    0.000    3.875 
#
# Total GULP energy -178187.591982 kJ/mol
# GULP energy per Si atom -5568.362249 kJ/mol
# Density = 1.425235 g / cm^3
# Si number density = 14.284865 Si / 1000 Ang^3
#
#
#
# Elastic Constant Matrix: (Units=GPa)
#
#
# Indices 1 2 3 4 5 6 
#
# 1 25.4737 22.8980 20.6030 0.0000 0.0000 0.0000
# 2 22.8980 93.1652 56.9746 0.0000 0.0000 0.0000
# 3 20.6030 56.9746 98.2783 0.0001 0.0000 0.0000
# 4 0.0000 0.0000 0.0001 24.3216 0.0000 0.0000
# 5 0.0000 0.0000 0.0000 0.0000 21.9515 0.0000
# 6 0.0000 0.0000 0.0000 0.0000 0.0000 19.6741
#
#
#
# Elastic Compliance Matrix: (Units=1/GPa)
#
#
# Indices 1 2 3 4 5 6 
#
# 1 0.052194 -0.009507 -0.005430 0.000000 0.000000 0.000000
# 2 -0.009507 0.018361 -0.008651 0.000000 0.000000 0.000000
# 3 -0.005430 -0.008651 0.016329 0.000000 0.000000 0.000000
# 4 0.000000 0.000000 0.000000 0.041116 0.000000 0.000000
# 5 0.000000 0.000000 0.000000 0.000000 0.045555 0.000000
# 6 0.000000 0.000000 0.000000 0.000000 0.000000 0.050828
#
#
# Mechanical properties :
#
#
# Convention : Reuss Voigt Hill
#
# Bulk Modulus (GPa) = 25.18487 46.42982 35.80735
# Shear Modulus (GPa) = 17.55641 20.95220 19.25431
#
# Velocity S-wave (km/s) = 3.50954 3.83396 3.67533
# Velocity P-wave (km/s) = 5.83877 7.22304 6.56748
#
# Compressibility (1/GPa) = 0.03970638
#
# Stress axis : x y z
#
# Youngs Moduli (GPa) = 19.15918 54.46348 61.24100
#
# Poissons Ratio (x) = 0.51781 0.33256
# Poissons Ratio (y) = 0.18215 0.52981
# Poissons Ratio (z) = 0.10404 0.47117
#
# Static dielectric constant tensor:
#      x y z
#    x 1.480050 0.000000 0.000000 
#    y 0.000000 1.457140 0.000000 
#    z 0.000000 0.000000 1.488400 
# 
# From -- ./inp_files/18635.got.cif
#   From: 2010.05.17/outbox.cif.g08.bks.cpg/sg46_10_cif.got.tgz:18635.got - 2010.06.03 19:58:25.
