data_PCOD9377193
_publ_section_title
;
Structure prediction by ZEFSAII (Michael W. Deem and Ramdas Pophale) SiO2 
 PCOD9377193
Probable space group: I B A 2
;
_chemical_formula_sum "Si O2"
_cell_formula_units_Z 60
_cell_length_a 11.556142
_cell_length_b 24.759368
_cell_length_c 9.012155
_cell_angle_alpha 90.000000
_cell_angle_beta 90.000000
_cell_angle_gamma 90.000000
_cell_volume 2578.582774
_symmetry_space_group_name_H-M "I B A 2"
_symmetry_group_IT_number 45
_symmetry_cell_setting 'orthorhombic'
loop_
_space_group_symop_operation_xyz
x,y,z
-x,-y,z
-x,y,1/2+z
x,-y,1/2+z
1/2+x,1/2+y,1/2+z
1/2-x,1/2-y,1/2+z
1/2-x,1/2+y,z
1/2+x,1/2-y,z
loop_
_atom_site_type_symbol
_atom_site_label
_atom_site_fract_x
_atom_site_fract_y
_atom_site_fract_z
Si Si1 0.160586 0.282523 0.073070
Si Si2 0.123470 0.170597 0.992148
Si Si3 0.510716 0.191192 0.795675
Si Si4 0.859135 0.047532 0.231588
Si Si5 0.398399 0.925189 0.233427
Si Si6 0.396460 0.441406 0.574674
Si Si7 0.105346 0.798685 0.165179
Si Si8 0.500000 0.000000 0.980701
O O1 0.109979 0.281581 0.240636
O O2 0.279832 0.313364 0.076713
O O3 0.197092 0.223310 0.020518
O O4 0.062596 0.305741 0.961943
O O5 0.102302 0.167611 0.817476
O O6 0.164819 0.116696 0.070976
O O7 0.002745 0.187510 0.065178
O O8 0.477072 0.128962 0.756089
O O9 0.595936 0.234884 0.713174
O O10 0.740207 0.080928 0.223012
O O11 0.897889 0.043131 0.402026
O O12 0.972197 0.064520 0.135924
O O13 0.834576 0.987178 0.169607
O O14 0.418871 0.964924 0.372873
O O15 0.437502 0.957128 0.087105
#
# Coordination Sequence:
#
# PCOD9377193 Si02
#       8
#     8   8   8   8   8   8   8   4
#     4  10  23  44  69 104 141 178 231 293 348 433
#     4  10  23  42  67 101 138 178 236 281 349 433
#     4  10  23  42  71 101 138 183 238 282 355 435
#     4  11  24  42  71  99 147 173 244 289 361 418
#     4  11  23  46  69 101 138 193 226 302 353 415
#     4  11  23  43  67 107 133 190 226 300 345 439
#     4  10  23  44  68 102 144 182 227 299 349 434
#     4  10  24  44  68  96 144 170 254 286 332 432
#
# _framework density 23.268595999999999
#
# number of rings (size 3 to 8) (size 9 to 14) (size 15 to 20)
#    0.000    1.600    0.000    4.000    3.733    8.533 
#    7.200    0.000    5.867    0.000    0.000    0.000 
#    0.000    0.000    0.000    0.000    0.000    0.000 
#
# Total GULP energy -167335.335448 kJ/mol
# GULP energy per Si atom -5577.844515 kJ/mol
# Density = 2.321564 g / cm^3
# Si number density = 23.268596 Si / 1000 Ang^3
#
#
#
# Elastic Constant Matrix: (Units=GPa)
#
#
# Indices 1 2 3 4 5 6 
#
# 1 55.6294 22.6934 35.1739 0.0002 0.0001 0.0000
# 2 22.6934 161.1757 51.5836 -0.0001 0.0000 0.0000
# 3 35.1739 51.5836 125.0328 0.0005 -0.0001 0.0000
# 4 0.0002 -0.0001 0.0005 34.4161 -0.0001 0.0000
# 5 0.0001 0.0000 -0.0001 -0.0001 16.8558 0.0000
# 6 0.0000 0.0000 0.0000 0.0000 0.0000 12.3287
#
#
#
# Elastic Compliance Matrix: (Units=1/GPa)
#
#
# Indices 1 2 3 4 5 6 
#
# 1 0.022097 -0.001292 -0.005683 0.000000 0.000000 0.000000
# 2 -0.001292 0.007224 -0.002617 0.000000 0.000000 0.000000
# 3 -0.005683 -0.002617 0.010676 0.000000 0.000000 0.000000
# 4 0.000000 0.000000 0.000000 0.029056 0.000000 0.000000
# 5 0.000000 0.000000 0.000000 0.000000 0.059327 0.000000
# 6 0.000000 0.000000 0.000000 0.000000 0.000000 0.081112
#
#
# Mechanical properties :
#
#
# Convention : Reuss Voigt Hill
#
# Bulk Modulus (GPa) = 48.04801 62.30441 55.17621
# Shear Modulus (GPa) = 21.22127 28.21259 24.71693
#
# Velocity S-wave (km/s) = 3.02323 3.48584 3.26274
# Velocity P-wave (km/s) = 5.73417 6.56016 6.16102
#
# Compressibility (1/GPa) = 0.02081252
#
# Stress axis : x y z
#
# Youngs Moduli (GPa) = 45.25576 138.43061 93.66646
#
# Poissons Ratio (x) = 0.17890 0.53231
# Poissons Ratio (y) = 0.05849 0.24510
# Poissons Ratio (z) = 0.25719 0.36223
#
# Static dielectric constant tensor:
#      x y z
#    x 1.863190 0.000000 0.000000 
#    y 0.000000 2.013520 0.000000 
#    z 0.000000 0.000000 1.849270 
# 
# From -- ./inp_files/1455.got.cif
#   From: 2010.05.17/outbox.cif.g08.bks.cpg/sg45_1_cif.got.tgz:1455.got - 2010.06.03 19:51:22.
