data_PCOD9377795
_publ_section_title
;
Structure prediction by ZEFSAII (Michael W. Deem and Ramdas Pophale) SiO2 
 PCOD9377795
Probable space group: I M A 2
;
_chemical_formula_sum "Si O2"
_cell_formula_units_Z 40
_cell_length_a 13.527294
_cell_length_b 19.608424
_cell_length_c 8.615287
_cell_angle_alpha 90.000000
_cell_angle_beta 90.000000
_cell_angle_gamma 90.000000
_cell_volume 2285.195541
_symmetry_space_group_name_H-M "I M A 2"
_symmetry_group_IT_number 46
_symmetry_cell_setting 'orthorhombic'
loop_
_space_group_symop_operation_xyz
x,y,z
-x,-y,z
1/2-x,y,z
1/2+x,-y,z
1/2+x,1/2+y,1/2+z
1/2-x,1/2-y,1/2+z
-x,1/2+y,1/2+z
x,1/2-y,1/2+z
loop_
_atom_site_type_symbol
_atom_site_label
_atom_site_fract_x
_atom_site_fract_y
_atom_site_fract_z
Si Si1 0.541115 0.175946 0.615310
Si Si2 0.250000 0.858878 0.973198
Si Si3 0.750000 0.227994 0.654168
Si Si4 0.578131 0.720311 0.831847
Si Si5 0.855105 0.844665 0.030897
Si Si6 0.460562 0.923089 0.892531
O O1 0.651870 0.197675 0.577304
O O2 0.498819 0.235892 0.727573
O O3 0.477027 0.175614 0.460456
O O4 0.537904 0.108382 0.718904
O O5 0.250000 0.804331 0.828378
O O6 0.350709 0.903697 0.956925
O O7 0.250000 0.809381 0.123953
O O8 0.638779 0.676857 0.709571
O O9 0.639609 0.776314 0.926873
O O10 0.750000 0.880030 0.997998
O O11 0.955054 0.883706 0.989124
O O12 0.500000 0.000000 0.891931
#
# Coordination Sequence:
#
# PCOD9377795 Si02
#       6
#     8   4   4   8   8   8
#     4   9  17  30  51  78 110 137 173 229 274 324
#     4  10  20  34  58  82 110 136 178 232 278 322
#     4  10  16  28  52  84 102 130 176 230 286 308
#     4   9  17  31  50  79 107 131 172 220 281 313
#     4  10  19  32  54  79 107 140 173 224 265 318
#     4  10  22  36  52  77 108 150 184 215 261 332
#
# _framework density 17.503972000000001
#
# number of rings (size 3 to 8) (size 9 to 14) (size 15 to 20)
#    0.000    2.400    0.000    5.400    1.400    0.000 
#    0.000    2.000    0.000    0.000    5.200    0.000 
#    0.000    0.000    0.000    0.000    0.000    0.000 
#
# Total GULP energy -111378.960664 kJ/mol
# GULP energy per Si atom -5568.948033 kJ/mol
# Density = 1.746413 g / cm^3
# Si number density = 17.503972 Si / 1000 Ang^3
#
#
#
# Elastic Constant Matrix: (Units=GPa)
#
#
# Indices 1 2 3 4 5 6 
#
# 1 165.1365 54.7377 41.5260 0.0000 0.0000 0.0000
# 2 54.7377 86.8658 25.8795 0.0000 0.0000 0.0000
# 3 41.5260 25.8795 77.9550 0.0000 0.0000 0.0000
# 4 0.0000 0.0000 0.0000 15.8810 0.0000 0.0000
# 5 0.0000 0.0000 0.0000 0.0000 -2.5977 0.0000
# 6 0.0000 0.0000 0.0000 0.0000 0.0000 16.6320
#
#
#
# Elastic Compliance Matrix: (Units=1/GPa)
#
#
# Indices 1 2 3 4 5 6 
#
# 1 0.008224 -0.004303 -0.002953 0.000000 0.000000 0.000000
# 2 -0.004303 0.015027 -0.002696 0.000000 0.000000 0.000000
# 3 -0.002953 -0.002696 0.015296 0.000000 0.000000 0.000000
# 4 0.000000 0.000000 0.000000 0.062968 0.000000 0.000000
# 5 0.000000 0.000000 0.000000 0.000000 -0.384952 0.000000
# 6 0.000000 0.000000 0.000000 0.000000 0.000000 0.060125
#
#
# Mechanical properties :
#
#
# Convention : Reuss Voigt Hill
#
# Bulk Modulus (GPa) = 53.63891 63.80486 58.72189
# Shear Modulus (GPa) = -25.35589 19.83732 -2.75929
#
# Velocity S-wave (km/s) = -3.81015 3.37011 -1.25690
# Velocity P-wave (km/s) = 3.36958 7.18848 5.61375
#
# Compressibility (1/GPa) = 0.01864318
#
# Stress axis : x y z
#
# Youngs Moduli (GPa) = 121.59054 66.54796 65.37692
#
# Poissons Ratio (x) = 0.28635 0.19303
# Poissons Ratio (y) = 0.52318 0.17629
# Poissons Ratio (z) = 0.35901 0.17945
#
# Static dielectric constant tensor:
#      x y z
#    x 1.638980 0.000000 0.000000 
#    y 0.000000 1.598960 0.000000 
#    z 0.000000 0.000000 1.598530 
# 
# From -- ./inp_files/4593.got.cif
#   From: 2010.05.17/outbox.cif.g08.bks.cpg/sg46_3_cif.got.tgz:4593.got - 2010.06.03 19:58:25.
