data_PCOD9377921
_publ_section_title
;
Structure prediction by ZEFSAII (Michael W. Deem and Ramdas Pophale) SiO2 
 PCOD9377921
Probable space group: I M A 2
;
_chemical_formula_sum "Si O2"
_cell_formula_units_Z 44
_cell_length_a 15.106567
_cell_length_b 8.566931
_cell_length_c 15.991136
_cell_angle_alpha 90.000000
_cell_angle_beta 90.000000
_cell_angle_gamma 90.000000
_cell_volume 2069.523523
_symmetry_space_group_name_H-M "I M A 2"
_symmetry_group_IT_number 46
_symmetry_cell_setting 'orthorhombic'
loop_
_space_group_symop_operation_xyz
x,y,z
-x,-y,z
1/2-x,y,z
1/2+x,-y,z
1/2+x,1/2+y,1/2+z
1/2-x,1/2-y,1/2+z
-x,1/2+y,1/2+z
x,1/2-y,1/2+z
loop_
_atom_site_type_symbol
_atom_site_label
_atom_site_fract_x
_atom_site_fract_y
_atom_site_fract_z
Si Si1 0.945069 0.648758 0.083750
Si Si2 0.250000 0.420848 0.345200
Si Si3 0.601820 0.348243 0.622781
Si Si4 0.943632 0.656250 0.286166
Si Si5 0.000000 0.500000 0.762216
Si Si6 0.250000 0.168495 0.583939
Si Si7 0.750000 0.126887 0.699747
Si Si8 0.750000 0.985465 0.036169
O O1 0.936773 0.641181 0.185077
O O2 0.847805 0.651644 0.043596
O O3 0.000000 0.500000 0.053974
O O4 0.011745 0.793458 0.078416
O O5 0.156400 0.347373 0.318951
O O6 0.250000 0.590232 0.298020
O O7 0.250000 0.422026 0.444257
O O8 0.580504 0.466428 0.697885
O O9 0.661576 0.213407 0.666998
O O10 0.663784 0.415831 0.552391
O O11 0.000000 0.500000 0.312794
O O12 0.984547 0.829721 0.304703
O O13 0.250000 0.350048 0.606115
O O14 0.250000 0.040919 0.655722
#
# Coordination Sequence:
#
# PCOD9377921 Si02
#       8
#     8   4   8   8   4   4   4   4
#     4  10  17  33  65  93 115 159 222 271 310 371
#     4  12  22  41  64  96 132 182 208 270 350 401
#     4  10  21  38  62  98 124 164 221 275 323 391
#     4  10  20  37  63  95 129 167 220 274 326 393
#     4  10  20  36  68  96 124 162 234 278 316 380
#     4  12  20  36  61  90 121 165 218 261 315 391
#     4  11  20  37  72  90 121 167 232 268 315 403
#     4  11  26  38  59  96 140 162 206 271 348 405
#
# _framework density 21.260933999999999
#
# number of rings (size 3 to 8) (size 9 to 14) (size 15 to 20)
#    0.000    1.455    3.636    4.364    0.000    0.727 
#    4.909    0.909   18.000    0.000    0.000    0.000 
#    0.000    0.000    0.000    0.000    0.000    0.000 
#
# Total GULP energy -122521.701258 kJ/mol
# GULP energy per Si atom -5569.168239 kJ/mol
# Density = 2.121254 g / cm^3
# Si number density = 21.260934 Si / 1000 Ang^3
#
#
#
# Elastic Constant Matrix: (Units=GPa)
#
#
# Indices 1 2 3 4 5 6 
#
# 1 191.8077 63.3413 23.0150 0.0000 0.0000 0.0000
# 2 63.3413 127.1903 20.9499 0.0000 0.0000 0.0000
# 3 23.0150 20.9499 30.1462 0.0000 0.0000 0.0000
# 4 0.0000 0.0000 0.0000 7.8548 0.0000 0.0000
# 5 0.0000 0.0000 0.0000 0.0000 -10.5696 0.0000
# 6 0.0000 0.0000 0.0000 0.0000 0.0000 15.8039
#
#
#
# Elastic Compliance Matrix: (Units=1/GPa)
#
#
# Indices 1 2 3 4 5 6 
#
# 1 0.006479 -0.002724 -0.003054 0.000000 0.000000 0.000000
# 2 -0.002724 0.010024 -0.004886 0.000000 0.000000 0.000000
# 3 -0.003054 -0.004886 0.038899 0.000000 0.000000 0.000000
# 4 0.000000 0.000000 0.000000 0.127311 0.000000 0.000000
# 5 0.000000 0.000000 0.000000 0.000000 -0.094611 0.000000
# 6 0.000000 0.000000 0.000000 0.000000 0.000000 0.063275
#
#
# Mechanical properties :
#
#
# Convention : Reuss Voigt Hill
#
# Bulk Modulus (GPa) = 29.34795 62.63964 45.99379
# Shear Modulus (GPa) = 27.16456 18.74036 22.95246
#
# Velocity S-wave (km/s) = 3.57834 2.97214 3.28923
# Velocity P-wave (km/s) = 5.55934 6.42685 6.00877
#
# Compressibility (1/GPa) = 0.03407393
#
# Stress axis : x y z
#
# Youngs Moduli (GPa) = 154.33351 99.76518 25.70770
#
# Poissons Ratio (x) = 0.27174 0.07851
# Poissons Ratio (y) = 0.42037 0.12562
# Poissons Ratio (z) = 0.47131 0.48748
#
# Static dielectric constant tensor:
#      x y z
#    x 1.853320 0.000000 0.000000 
#    y 0.000000 1.860370 0.000000 
#    z 0.000000 0.000000 1.718970 
# 
# From -- ./inp_files/19374.got.cif
#   From: 2010.05.17/outbox.cif.g08.bks.cpg/sg46_10_cif.got.tgz:19374.got - 2010.06.03 19:58:25.
