data_PCOD9377888
_publ_section_title
;
Structure prediction by ZEFSAII (Michael W. Deem and Ramdas Pophale) SiO2 
 PCOD9377888
Probable space group: I M A 2
;
_chemical_formula_sum "Si O2"
_cell_formula_units_Z 64
_cell_length_a 20.005620
_cell_length_b 12.954877
_cell_length_c 12.349312
_cell_angle_alpha 90.000000
_cell_angle_beta 90.000000
_cell_angle_gamma 90.000000
_cell_volume 3200.575469
_symmetry_space_group_name_H-M "I M A 2"
_symmetry_group_IT_number 46
_symmetry_cell_setting 'orthorhombic'
loop_
_space_group_symop_operation_xyz
x,y,z
-x,-y,z
1/2-x,y,z
1/2+x,-y,z
1/2+x,1/2+y,1/2+z
1/2-x,1/2-y,1/2+z
-x,1/2+y,1/2+z
x,1/2-y,1/2+z
loop_
_atom_site_type_symbol
_atom_site_label
_atom_site_fract_x
_atom_site_fract_y
_atom_site_fract_z
Si Si1 0.825164 0.422723 0.299960
Si Si2 0.824070 0.890896 0.971260
Si Si3 0.539176 0.827898 0.635433
Si Si4 0.970867 0.611017 0.885341
Si Si5 0.466988 0.101195 0.061667
Si Si6 0.463196 0.672094 0.341852
Si Si7 0.823521 0.585133 0.130273
Si Si8 0.176189 0.155520 0.387246
O O1 0.750000 0.379156 0.306331
O O2 0.827589 0.522989 0.377957
O O3 0.884454 0.348481 0.335951
O O4 0.835353 0.472274 0.180733
O O5 0.750000 0.897214 0.021873
O O6 0.830233 0.775714 0.922500
O O7 0.887645 0.909297 0.046405
O O8 0.532613 0.878860 0.517201
O O9 0.520913 0.708497 0.621103
O O10 0.494476 0.871618 0.731078
O O11 0.616622 0.841758 0.667220
O O12 0.895550 0.625436 0.838322
O O13 0.000000 0.500000 0.859070
O O14 0.016177 0.708161 0.851643
O O15 0.501585 0.117355 0.943786
O O16 0.500000 0.000000 0.110826
O O17 0.750000 0.619142 0.169350
O O18 0.821832 0.591810 0.000667
O O19 0.250000 0.142239 0.334997
#
# Coordination Sequence:
#
# PCOD9377888 Si02
#       8
#     8   8   8   8   8   8   8   8
#     4  10  21  33  55  85 110 141 187 235 284 337
#     4  10  17  30  51  78 112 143 170 223 288 334
#     4  10  22  33  54  83 106 149 184 225 287 329
#     4  10  22  38  54  80 113 144 191 231 274 346
#     4  11  20  35  54  82 113 144 190 232 274 347
#     4  11  22  36  56  79 112 144 183 231 288 325
#     4   9  17  29  47  77 111 136 169 221 277 333
#     4   9  17  32  51  76 112 143 173 224 285 332
#
# _framework density 19.996403999999998
#
# number of rings (size 3 to 8) (size 9 to 14) (size 15 to 20)
#    0.000    2.000    5.000    0.750    3.500    0.500 
#    0.000    0.625    0.000    3.750    0.000    1.750 
#    0.000    0.000    0.000    0.000    0.000    0.000 
#
# Total GULP energy -178554.295774 kJ/mol
# GULP energy per Si atom -5579.821743 kJ/mol
# Density = 1.995089 g / cm^3
# Si number density = 19.996404 Si / 1000 Ang^3
#
#
#
# Elastic Constant Matrix: (Units=GPa)
#
#
# Indices 1 2 3 4 5 6 
#
# 1 173.1434 69.1904 26.3201 0.0000 0.0000 0.0000
# 2 69.1904 96.1079 7.0739 0.0000 0.0000 0.0000
# 3 26.3201 7.0739 64.5103 0.0000 0.0000 0.0000
# 4 0.0000 0.0000 0.0000 2.1477 0.0000 0.0000
# 5 0.0000 0.0000 0.0000 0.0000 14.7067 0.0000
# 6 0.0000 0.0000 0.0000 0.0000 0.0000 31.6928
#
#
#
# Elastic Compliance Matrix: (Units=1/GPa)
#
#
# Indices 1 2 3 4 5 6 
#
# 1 0.008599 -0.005981 -0.002853 0.000000 0.000000 0.000000
# 2 -0.005981 0.014649 0.000834 0.000000 0.000000 0.000000
# 3 -0.002853 0.000834 0.016574 0.000000 0.000000 0.000000
# 4 0.000000 0.000000 0.000000 0.465620 0.000000 0.000000
# 5 0.000000 0.000000 0.000000 0.000000 0.067996 0.000000
# 6 0.000000 0.000000 0.000000 0.000000 0.000000 0.031553
#
#
# Mechanical properties :
#
#
# Convention : Reuss Voigt Hill
#
# Bulk Modulus (GPa) = 41.97613 59.88115 50.92864
# Shear Modulus (GPa) = 7.94999 25.12125 16.53562
#
# Velocity S-wave (km/s) = 1.99608 3.54826 2.87876
# Velocity P-wave (km/s) = 5.13321 6.84090 6.04763
#
# Compressibility (1/GPa) = 0.02382306
#
# Stress axis : x y z
#
# Youngs Moduli (GPa) = 116.28975 68.26247 60.33607
#
# Poissons Ratio (x) = 0.40827 0.17212
# Poissons Ratio (y) = 0.69551 -0.05031
# Poissons Ratio (z) = 0.33173 -0.05692
#
# Static dielectric constant tensor:
#      x y z
#    x 1.733670 0.000000 0.000000 
#    y 0.000000 1.678250 0.000000 
#    z 0.000000 0.000000 1.762270 
# 
# From -- ./inp_files/16852.got.cif
#   From: 2010.05.17/outbox.cif.g08.bks.cpg/sg46_9_cif.got.tgz:16852.got - 2010.06.03 19:58:25.
