data_PCOD9377003
_publ_section_title
;
Structure prediction by ZEFSAII (Michael W. Deem and Ramdas Pophale) SiO2 
 PCOD9377003
Probable space group: I B A 2
;
_chemical_formula_sum "Si O2"
_cell_formula_units_Z 64
_cell_length_a 18.879869
_cell_length_b 10.185352
_cell_length_c 15.060955
_cell_angle_alpha 90.000000
_cell_angle_beta 90.000000
_cell_angle_gamma 90.000000
_cell_volume 2896.193204
_symmetry_space_group_name_H-M "I B A 2"
_symmetry_group_IT_number 45
_symmetry_cell_setting 'orthorhombic'
loop_
_space_group_symop_operation_xyz
x,y,z
-x,-y,z
-x,y,1/2+z
x,-y,1/2+z
1/2+x,1/2+y,1/2+z
1/2-x,1/2-y,1/2+z
1/2-x,1/2+y,z
1/2+x,1/2-y,z
loop_
_atom_site_type_symbol
_atom_site_label
_atom_site_fract_x
_atom_site_fract_y
_atom_site_fract_z
Si Si1 0.856401 0.650644 0.831080
Si Si2 0.934976 0.899493 0.115829
Si Si3 0.328429 0.128381 0.135388
Si Si4 0.435754 0.592495 0.305384
Si Si5 0.472724 0.264172 0.438673
Si Si6 0.198770 0.850937 0.888561
Si Si7 0.705671 0.571648 0.091193
Si Si8 0.104989 0.601785 0.945969
O O1 0.868986 0.622472 0.728248
O O2 0.909268 0.760441 0.868204
O O3 0.773345 0.678745 0.843103
O O4 0.874416 0.528429 0.894272
O O5 0.931623 0.827522 0.212133
O O6 0.866324 0.992502 0.110049
O O7 0.941808 0.800189 0.033828
O O8 0.000000 0.000000 0.102661
O O9 0.298515 0.278016 0.125616
O O10 0.267914 0.017331 0.131082
O O11 0.376579 0.102078 0.049763
O O12 0.500000 0.500000 0.276739
O O13 0.468584 0.637456 0.399343
O O14 0.354680 0.560812 0.329624
O O15 0.522450 0.137027 0.437968
O O16 0.155207 0.716395 0.904614
O O17 0.213050 0.915915 0.984276
#
# Coordination Sequence:
#
# PCOD9377003 Si02
#       8
#     8   8   8   8   8   8   8   8
#     4  12  26  43  72 100 140 193 239 290 367 440
#     4  11  23  41  71 102 139 182 239 300 362 422
#     4  11  26  45  74 104 146 188 243 303 364 446
#     4  10  22  40  68 102 136 176 234 294 360 419
#     4  11  25  43  68 100 141 186 237 292 367 432
#     4  10  22  43  68  99 142 179 233 298 349 432
#     4  11  24  45  72 107 146 188 240 299 375 427
#     4  10  24  48  65 101 141 180 237 300 356 435
#
# _framework density 22.097971999999999
#
# number of rings (size 3 to 8) (size 9 to 14) (size 15 to 20)
#    0.000    1.250    1.250    4.500   10.500    1.000 
#    4.500    1.250    0.000    0.000    0.000    0.000 
#    0.000    0.000    0.000    0.000    0.000    0.000 
#
# Total GULP energy -178489.188257 kJ/mol
# GULP energy per Si atom -5577.787133 kJ/mol
# Density = 2.204768 g / cm^3
# Si number density = 22.097972 Si / 1000 Ang^3
#
#
#
# Elastic Constant Matrix: (Units=GPa)
#
#
# Indices 1 2 3 4 5 6 
#
# 1 98.7123 0.9691 7.0508 0.0000 0.0000 0.0000
# 2 0.9691 27.2343 -9.0227 0.0000 0.0000 0.0000
# 3 7.0508 -9.0227 107.9265 0.0000 0.0000 0.0000
# 4 0.0000 0.0000 0.0000 21.4425 0.0000 0.0000
# 5 0.0000 0.0000 0.0000 0.0000 89.9191 0.0000
# 6 0.0000 0.0000 0.0000 0.0000 0.0000 18.9443
#
#
#
# Elastic Compliance Matrix: (Units=1/GPa)
#
#
# Indices 1 2 3 4 5 6 
#
# 1 0.010187 -0.000600 -0.000716 0.000000 0.000000 0.000000
# 2 -0.000600 0.037800 0.003199 0.000000 0.000000 0.000000
# 3 -0.000716 0.003199 0.009580 0.000000 0.000000 0.000000
# 4 0.000000 0.000000 0.000000 0.046636 0.000000 0.000000
# 5 0.000000 0.000000 0.000000 0.000000 0.011121 0.000000
# 6 0.000000 0.000000 0.000000 0.000000 0.000000 0.052786
#
#
# Mechanical properties :
#
#
# Convention : Reuss Voigt Hill
#
# Bulk Modulus (GPa) = 16.30397 25.76304 21.03350
# Shear Modulus (GPa) = 27.05811 41.71958 34.38884
#
# Velocity S-wave (km/s) = 3.50303 4.34975 3.94915
# Velocity P-wave (km/s) = 4.87398 6.07544 5.50757
#
# Compressibility (1/GPa) = 0.06133477
#
# Stress axis : x y z
#
# Youngs Moduli (GPa) = 98.15992 26.45532 104.38653
#
# Poissons Ratio (x) = 0.01586 0.07471
# Poissons Ratio (y) = 0.05886 -0.33396
# Poissons Ratio (z) = 0.07025 -0.08464
#
# Static dielectric constant tensor:
#      x y z
#    x 1.431650 0.000000 0.000000 
#    y 0.000000 1.911750 0.000000 
#    z 0.000000 0.000000 1.814630 
# 
# From -- ./inp_files/6817.got.cif
#   From: 2010.05.17/outbox.cif.g08.bks.cpg/sg45_4_cif.got.tgz:6817.got - 2010.06.03 19:51:22.
