data_PCOD9377015
_publ_section_title
;
Structure prediction by ZEFSAII (Michael W. Deem and Ramdas Pophale) SiO2 
 PCOD9377015
Probable space group: I B A 2
;
_chemical_formula_sum "Si O2"
_cell_formula_units_Z 48
_cell_length_a 18.114781
_cell_length_b 13.610241
_cell_length_c 8.433759
_cell_angle_alpha 90.000000
_cell_angle_beta 90.000000
_cell_angle_gamma 90.000000
_cell_volume 2079.314059
_symmetry_space_group_name_H-M "I B A 2"
_symmetry_group_IT_number 45
_symmetry_cell_setting 'orthorhombic'
loop_
_space_group_symop_operation_xyz
x,y,z
-x,-y,z
-x,y,1/2+z
x,-y,1/2+z
1/2+x,1/2+y,1/2+z
1/2-x,1/2-y,1/2+z
1/2-x,1/2+y,z
1/2+x,1/2-y,z
loop_
_atom_site_type_symbol
_atom_site_label
_atom_site_fract_x
_atom_site_fract_y
_atom_site_fract_z
Si Si1 0.346052 0.293210 0.689440
Si Si2 0.000000 0.000000 0.900013
Si Si3 0.500000 0.000000 0.101724
Si Si4 0.055292 0.358382 0.349196
Si Si5 0.068586 0.203093 0.852134
Si Si6 0.290150 0.650738 0.693401
Si Si7 0.169112 0.024694 0.407399
O O1 0.385438 0.225698 0.822549
O O2 0.394138 0.296132 0.527819
O O3 0.269630 0.235132 0.671320
O O4 0.336198 0.401965 0.757565
O O5 0.083427 0.986556 0.968992
O O6 0.983204 0.893304 0.822085
O O7 0.554804 0.066016 0.204608
O O8 0.449353 0.073203 0.000754
O O9 0.978678 0.300121 0.342382
O O10 0.130435 0.200692 0.717813
O O11 0.292937 0.575593 0.845293
O O12 0.286854 0.580779 0.541900
#
# Coordination Sequence:
#
# PCOD9377015 Si02
#       7
#     8   4   4   8   8   8   8
#     4  12  25  46  69 102 142 190 237 289 367 432
#     4  10  22  40  74 106 138 170 240 302 356 418
#     4  10  24  44  64 102 130 178 234 294 354 406
#     4  11  23  44  71 100 135 181 243 297 347 428
#     4  11  24  44  71 107 140 187 238 301 366 426
#     4  11  27  45  67 102 145 185 234 292 367 436
#     4  11  24  44  73 104 140 184 237 299 365 423
#
# _framework density 23.084536
#
# number of rings (size 3 to 8) (size 9 to 14) (size 15 to 20)
#    0.000    1.000    3.333    3.000    4.667    4.667 
#    6.000    0.000    0.000    0.000    0.000    0.000 
#    0.000    0.000    0.000    0.000    0.000    0.000 
#
# Total GULP energy -133992.545986 kJ/mol
# GULP energy per Si atom -5583.022749 kJ/mol
# Density = 2.303199 g / cm^3
# Si number density = 23.084536 Si / 1000 Ang^3
#
#
#
# Elastic Constant Matrix: (Units=GPa)
#
#
# Indices 1 2 3 4 5 6 
#
# 1 63.2618 36.3068 6.6117 0.0000 0.0000 0.0000
# 2 36.3068 130.9831 21.0003 0.0000 0.0000 0.0000
# 3 6.6117 21.0003 64.7489 0.0000 0.0000 0.0000
# 4 0.0000 0.0000 0.0000 88.1829 0.0000 0.0000
# 5 0.0000 0.0000 0.0000 0.0000 7.9887 0.0000
# 6 0.0000 0.0000 0.0000 0.0000 0.0000 27.1845
#
#
#
# Elastic Compliance Matrix: (Units=1/GPa)
#
#
# Indices 1 2 3 4 5 6 
#
# 1 0.018801 -0.005173 -0.000242 0.000000 0.000000 0.000000
# 2 -0.005173 0.009476 -0.002545 0.000000 0.000000 0.000000
# 3 -0.000242 -0.002545 0.016295 0.000000 0.000000 0.000000
# 4 0.000000 0.000000 0.000000 0.011340 0.000000 0.000000
# 5 0.000000 0.000000 0.000000 0.000000 0.125176 0.000000
# 6 0.000000 0.000000 0.000000 0.000000 0.000000 0.036786
#
#
# Mechanical properties :
#
#
# Convention : Reuss Voigt Hill
#
# Bulk Modulus (GPa) = 34.90164 42.98126 38.94145
# Shear Modulus (GPa) = 20.54692 37.67622 29.11157
#
# Velocity S-wave (km/s) = 2.98665 4.04431 3.55503
# Velocity P-wave (km/s) = 5.20051 6.36145 5.81005
#
# Compressibility (1/GPa) = 0.02865195
#
# Stress axis : x y z
#
# Youngs Moduli (GPa) = 53.18781 105.52478 61.37017
#
# Poissons Ratio (x) = 0.54584 0.01486
# Poissons Ratio (y) = 0.27512 0.15621
# Poissons Ratio (z) = 0.01288 0.26860
#
# Static dielectric constant tensor:
#      x y z
#    x 1.861270 0.000000 0.000000 
#    y 0.000000 1.777190 0.000000 
#    z 0.000000 0.000000 1.930820 
# 
# From -- ./inp_files/1728.got.cif
#   From: 2010.05.17/outbox.cif.g08.bks.cpg/sg45_1_cif.got.tgz:1728.got - 2010.06.03 19:51:22.
