data_PCOD9377339
_publ_section_title
;
Structure prediction by ZEFSAII (Michael W. Deem and Ramdas Pophale) SiO2 
 PCOD9377339
Probable space group: I B A 2
;
_chemical_formula_sum "Si O2"
_cell_formula_units_Z 40
_cell_length_a 18.025326
_cell_length_b 9.142680
_cell_length_c 10.622947
_cell_angle_alpha 90.000000
_cell_angle_beta 90.000000
_cell_angle_gamma 90.000000
_cell_volume 1750.659408
_symmetry_space_group_name_H-M "I B A 2"
_symmetry_group_IT_number 45
_symmetry_cell_setting 'orthorhombic'
loop_
_space_group_symop_operation_xyz
x,y,z
-x,-y,z
-x,y,1/2+z
x,-y,1/2+z
1/2+x,1/2+y,1/2+z
1/2-x,1/2-y,1/2+z
1/2-x,1/2+y,z
1/2+x,1/2-y,z
loop_
_atom_site_type_symbol
_atom_site_label
_atom_site_fract_x
_atom_site_fract_y
_atom_site_fract_z
Si Si1 0.847288 0.211131 0.731350
Si Si2 0.882145 0.665726 0.503502
Si Si3 0.289432 0.970327 0.691223
Si Si4 0.981471 0.167198 0.537969
Si Si5 0.934058 0.406385 0.352288
O O1 0.871816 0.250387 0.872616
O O2 0.791265 0.075176 0.736228
O O3 0.803528 0.356801 0.684021
O O4 0.916451 0.182875 0.640080
O O5 0.804735 0.620270 0.563935
O O6 0.918740 0.509814 0.473155
O O7 0.941976 0.756079 0.583131
O O8 0.356886 0.911753 0.778560
O O9 0.958174 0.252828 0.410335
O O10 0.000000 0.000000 0.512646
O O11 0.000000 0.500000 0.285031
#
# Coordination Sequence:
#
# PCOD9377339 Si02
#       5
#     8   8   8   8   8
#     4  11  27  45  68 108 137 185 234 283 360 417
#     4  10  24  44  70  97 139 188 229 285 348 417
#     4  11  25  43  71  98 146 182 232 291 350 425
#     4  11  25  44  71 101 141 177 238 293 340 417
#     4   9  21  43  71  98 130 185 238 276 347 416
#
# _framework density 22.848534000000001
#
# number of rings (size 3 to 8) (size 9 to 14) (size 15 to 20)
#    0.000    1.600    2.000    0.000   14.000    2.400 
#    0.000    0.000    0.000    0.000    0.000    0.000 
#    0.000    0.000    0.000    0.000    0.000    0.000 
#
# Total GULP energy -111761.181569 kJ/mol
# GULP energy per Si atom -5588.059078 kJ/mol
# Density = 2.279653 g / cm^3
# Si number density = 22.848534 Si / 1000 Ang^3
#
#
#
# Elastic Constant Matrix: (Units=GPa)
#
#
# Indices 1 2 3 4 5 6 
#
# 1 95.2079 40.2649 29.1471 0.0000 0.0000 0.0000
# 2 40.2649 139.8859 22.5512 0.0000 0.0000 0.0000
# 3 29.1471 22.5512 57.9518 0.0000 0.0000 0.0000
# 4 0.0000 0.0000 0.0000 11.5598 0.0000 0.0000
# 5 0.0000 0.0000 0.0000 0.0000 32.0768 0.0000
# 6 0.0000 0.0000 0.0000 0.0000 0.0000 47.8810
#
#
#
# Elastic Compliance Matrix: (Units=1/GPa)
#
#
# Indices 1 2 3 4 5 6 
#
# 1 0.013483 -0.002974 -0.005624 0.000000 0.000000 0.000000
# 2 -0.002974 0.008283 -0.001727 0.000000 0.000000 0.000000
# 3 -0.005624 -0.001727 0.020756 0.000000 0.000000 0.000000
# 4 0.000000 0.000000 0.000000 0.086507 0.000000 0.000000
# 5 0.000000 0.000000 0.000000 0.000000 0.031175 0.000000
# 6 0.000000 0.000000 0.000000 0.000000 0.000000 0.020885
#
#
# Mechanical properties :
#
#
# Convention : Reuss Voigt Hill
#
# Bulk Modulus (GPa) = 45.72154 52.99686 49.35920
# Shear Modulus (GPa) = 23.91986 31.70901 27.81444
#
# Velocity S-wave (km/s) = 3.23908 3.72935 3.49283
# Velocity P-wave (km/s) = 5.83464 6.46446 6.15761
#
# Compressibility (1/GPa) = 0.02187153
#
# Stress axis : x y z
#
# Youngs Moduli (GPa) = 74.16796 120.72508 48.17775
#
# Poissons Ratio (x) = 0.35907 0.27095
# Poissons Ratio (y) = 0.22060 0.08322
# Poissons Ratio (z) = 0.41711 0.20854
#
# Static dielectric constant tensor:
#      x y z
#    x 1.883810 0.000000 0.000000 
#    y 0.000000 1.842640 0.000000 
#    z 0.000000 0.000000 1.921420 
# 
# From -- ./inp_files/3152.got.cif
#   From: 2010.05.17/outbox.cif.g08.bks.cpg/sg45_2_cif.got.tgz:3152.got - 2010.06.03 19:51:22.
