data_PCOD9377928
_publ_section_title
;
Structure prediction by ZEFSAII (Michael W. Deem and Ramdas Pophale) SiO2 
 PCOD9377928
Probable space group: I M A 2
;
_chemical_formula_sum "Si O2"
_cell_formula_units_Z 64
_cell_length_a 7.539278
_cell_length_b 24.236391
_cell_length_c 16.180968
_cell_angle_alpha 90.000000
_cell_angle_beta 90.000000
_cell_angle_gamma 90.000000
_cell_volume 2956.665589
_symmetry_space_group_name_H-M "I M A 2"
_symmetry_group_IT_number 46
_symmetry_cell_setting 'orthorhombic'
loop_
_space_group_symop_operation_xyz
x,y,z
-x,-y,z
1/2-x,y,z
1/2+x,-y,z
1/2+x,1/2+y,1/2+z
1/2-x,1/2-y,1/2+z
-x,1/2+y,1/2+z
x,1/2-y,1/2+z
loop_
_atom_site_type_symbol
_atom_site_label
_atom_site_fract_x
_atom_site_fract_y
_atom_site_fract_z
Si Si1 0.543984 0.871685 0.139820
Si Si2 0.532402 0.867596 0.322223
Si Si3 0.467598 0.367594 0.322223
Si Si4 0.955895 0.249999 0.087037
Si Si5 0.037299 0.064538 0.480362
Si Si6 0.962701 0.935462 0.980360
Si Si7 0.464545 0.249999 0.392798
Si Si8 0.043983 0.371683 0.139820
O O1 0.750000 0.888344 0.143836
O O2 0.468173 0.882521 0.230674
O O3 0.536584 0.806343 0.121922
O O4 0.465877 0.903645 0.061142
O O5 0.750000 0.867801 0.320174
O O6 0.472928 0.908040 0.395272
O O7 0.478458 0.805626 0.347097
O O8 0.250000 0.367799 0.320174
O O9 0.527072 0.408038 0.395272
O O10 0.521541 0.305624 0.347095
O O11 0.531827 0.382520 0.230673
O O12 0.750000 0.249998 0.108738
O O13 0.036583 0.306341 0.121922
O O14 0.976295 0.250000 0.987895
O O15 0.250000 0.072622 0.479734
O O16 0.965877 0.096357 0.561141
O O17 0.000000 0.000000 0.484360
O O18 0.750000 0.927378 0.979733
O O19 0.000000 0.000000 0.984355
O O20 0.250000 0.249999 0.394663
O O21 0.250000 0.388342 0.143835
#
# Coordination Sequence:
#
# PCOD9377928 Si02
#       8
#     8   8   8   8   8   8   8   8
#     4  10  20  38  62  82 108 149 191 227 268 331
#     4   9  18  34  60  87 105 138 190 232 268 323
#     4   9  18  34  60  87 105 138 190 232 268 323
#     4  12  23  34  54  87 121 146 176 226 287 335
#     4  10  21  37  57  82 111 146 189 232 274 323
#     4  10  21  37  57  82 111 146 189 232 274 323
#     4  10  17  34  60  83 109 142 184 228 273 335
#     4  10  20  38  62  82 108 149 191 227 268 331
#
# _framework density 21.646006
#
# number of rings (size 3 to 8) (size 9 to 14) (size 15 to 20)
#    0.000    2.000    2.500    1.875    0.000    4.000 
#    0.000    3.750    0.000    0.000    0.000    0.000 
#    0.000    0.000    0.000    0.000    0.000    0.000 
#
# Total GULP energy -178820.792006 kJ/mol
# GULP energy per Si atom -5588.149750 kJ/mol
# Density = 2.159674 g / cm^3
# Si number density = 21.646006 Si / 1000 Ang^3
#
#
#
# Elastic Constant Matrix: (Units=GPa)
#
#
# Indices 1 2 3 4 5 6 
#
# 1 54.2378 -13.4555 3.8052 0.0000 0.0000 0.0000
# 2 -13.4555 146.5454 100.4157 0.0000 0.0000 0.0000
# 3 3.8052 100.4157 246.7665 0.0002 0.0000 0.0000
# 4 0.0000 0.0000 0.0002 -0.4108 0.0000 0.0000
# 5 0.0000 0.0000 0.0000 0.0000 -8.3452 0.0000
# 6 0.0000 0.0000 0.0000 0.0000 0.0000 16.1164
#
#
#
# Elastic Compliance Matrix: (Units=1/GPa)
#
#
# Indices 1 2 3 4 5 6 
#
# 1 0.019213 0.002728 -0.001406 0.000000 0.000000 0.000000
# 2 0.002728 0.009849 -0.004050 -0.000001 0.000000 0.000000
# 3 -0.001406 -0.004050 0.005722 0.000002 0.000000 0.000000
# 4 0.000000 -0.000001 0.000002 -2.434411 0.000001 0.000000
# 5 0.000000 0.000000 0.000000 0.000001 -0.119830 0.000000
# 6 0.000000 0.000000 0.000000 0.000000 0.000000 0.062049
#
#
# Mechanical properties :
#
#
# Convention : Reuss Voigt Hill
#
# Bulk Modulus (GPa) = 34.09830 69.89785 51.99807
# Shear Modulus (GPa) = -2.04736 25.25770 11.60517
#
# Velocity S-wave (km/s) = -0.97360 3.41963 2.31797
# Velocity P-wave (km/s) = 3.81091 6.92483 5.58911
#
# Compressibility (1/GPa) = 0.02932698
#
# Stress axis : x y z
#
# Youngs Moduli (GPa) = 52.04904 101.52864 174.75892
#
# Poissons Ratio (x) = -0.27693 0.24575
# Poissons Ratio (y) = -0.14197 0.70778
# Poissons Ratio (z) = 0.07319 0.41120
#
# Static dielectric constant tensor:
#      x y z
#    x 1.803010 0.000000 0.000000 
#    y 0.000000 1.724430 0.000000 
#    z 0.000000 0.000000 1.792410 
# 
# From -- ./inp_files/14504.got.cif
#   From: 2010.05.17/outbox.cif.g08.bks.cpg/sg46_8_cif.got.tgz:14504.got - 2010.06.03 19:58:25.
