data_PCOD9377696
_publ_section_title
;
Structure prediction by ZEFSAII (Michael W. Deem and Ramdas Pophale) SiO2 
 PCOD9377696
Probable space group: I B A 2
;
_chemical_formula_sum "Si O2"
_cell_formula_units_Z 24
_cell_length_a 11.284059
_cell_length_b 15.335122
_cell_length_c 5.494205
_cell_angle_alpha 90.000000
_cell_angle_beta 90.000000
_cell_angle_gamma 90.000000
_cell_volume 950.730537
_symmetry_space_group_name_H-M "I B A 2"
_symmetry_group_IT_number 45
_symmetry_cell_setting 'orthorhombic'
loop_
_space_group_symop_operation_xyz
x,y,z
-x,-y,z
-x,y,1/2+z
x,-y,1/2+z
1/2+x,1/2+y,1/2+z
1/2-x,1/2-y,1/2+z
1/2-x,1/2+y,z
1/2+x,1/2-y,z
loop_
_atom_site_type_symbol
_atom_site_label
_atom_site_fract_x
_atom_site_fract_y
_atom_site_fract_z
Si Si1 0.199697 0.273552 0.712540
Si Si2 0.693628 0.979337 0.282120
Si Si3 0.930052 0.895610 0.801108
O O1 0.208057 0.259768 0.421350
O O2 0.208967 0.376100 0.756398
O O3 0.096235 0.207931 0.792359
O O4 0.631478 0.991870 0.537447
O O5 0.811816 0.042631 0.292525
O O6 0.003696 0.911542 0.554942
#
# Coordination Sequence:
#
# PCOD9377696 Si02
#       3
#     8   8   8
#     4  12  23  45  64  98 140 186 220 269 342 423
#     4  12  23  42  68 100 134 185 224 273 334 420
#     4  12  26  43  70 107 140 166 226 298 343 378
#
# _framework density 25.243746000000002
#
# number of rings (size 3 to 8) (size 9 to 14) (size 15 to 20)
#    0.000    0.000    6.667    4.000    0.000    4.000 
#    0.000    0.000    0.000    6.000    0.000    0.000 
#    0.000    0.000    0.000    0.000    0.000    0.000 
#
# Total GULP energy -66924.920500 kJ/mol
# GULP energy per Si atom -5577.076708 kJ/mol
# Density = 2.518629 g / cm^3
# Si number density = 25.243746 Si / 1000 Ang^3
#
#
#
# Elastic Constant Matrix: (Units=GPa)
#
#
# Indices 1 2 3 4 5 6 
#
# 1 95.1402 44.2269 36.3789 0.0000 0.0000 0.0000
# 2 44.2269 203.2631 45.6328 0.0000 0.0000 0.0000
# 3 36.3789 45.6328 160.4385 0.0000 0.0000 0.0000
# 4 0.0000 0.0000 0.0000 19.6216 0.0000 0.0000
# 5 0.0000 0.0000 0.0000 0.0000 -12.9299 0.0000
# 6 0.0000 0.0000 0.0000 0.0000 0.0000 36.0995
#
#
#
# Elastic Compliance Matrix: (Units=1/GPa)
#
#
# Indices 1 2 3 4 5 6 
#
# 1 0.012367 -0.002202 -0.002178 0.000000 0.000000 0.000000
# 2 -0.002202 0.005647 -0.001107 0.000000 0.000000 0.000000
# 3 -0.002178 -0.001107 0.007042 0.000000 0.000000 0.000000
# 4 0.000000 0.000000 0.000000 0.050964 0.000000 0.000000
# 5 0.000000 0.000000 0.000000 0.000000 -0.077340 0.000000
# 6 0.000000 0.000000 0.000000 0.000000 0.000000 0.027701
#
#
# Mechanical properties :
#
#
# Convention : Reuss Voigt Hill
#
# Bulk Modulus (GPa) = 71.01039 79.03546 75.02292
# Shear Modulus (GPa) = 118.90735 30.73177 74.81956
#
# Velocity S-wave (km/s) = 6.87066 3.49291 5.45006
# Velocity P-wave (km/s) = 9.54632 6.90247 8.32996
#
# Compressibility (1/GPa) = 0.01408245
#
# Stress axis : x y z
#
# Youngs Moduli (GPa) = 80.85910 177.07389 142.01307
#
# Poissons Ratio (x) = 0.38991 0.30929
# Poissons Ratio (y) = 0.17805 0.15720
# Poissons Ratio (z) = 0.17611 0.19601
#
# Static dielectric constant tensor:
#      x y z
#    x 2.073440 0.000000 0.000000 
#    y 0.000000 1.957950 0.000000 
#    z 0.000000 0.000000 2.054780 
# 
# From -- ./inp_files/34.got.cif
#   From: 2010.05.17/outbox.cif.g08.bks.cpg/sg45_1_cif.got.tgz:34.got - 2010.06.03 19:51:22.
