data_PCOD9377724
_publ_section_title
;
Structure prediction by ZEFSAII (Michael W. Deem and Ramdas Pophale) SiO2 
 PCOD9377724
Probable space group: I B A 2
;
_chemical_formula_sum "Si O2"
_cell_formula_units_Z 40
_cell_length_a 8.439677
_cell_length_b 9.032089
_cell_length_c 20.169744
_cell_angle_alpha 90.000000
_cell_angle_beta 90.000000
_cell_angle_gamma 90.000000
_cell_volume 1537.497507
_symmetry_space_group_name_H-M "I B A 2"
_symmetry_group_IT_number 45
_symmetry_cell_setting 'orthorhombic'
loop_
_space_group_symop_operation_xyz
x,y,z
-x,-y,z
-x,y,1/2+z
x,-y,1/2+z
1/2+x,1/2+y,1/2+z
1/2-x,1/2-y,1/2+z
1/2-x,1/2+y,z
1/2+x,1/2-y,z
loop_
_atom_site_type_symbol
_atom_site_label
_atom_site_fract_x
_atom_site_fract_y
_atom_site_fract_z
Si Si1 0.146556 0.069955 0.513510
Si Si2 0.643584 0.605808 0.711694
Si Si3 0.135046 0.837592 0.422856
Si Si4 0.862061 0.391052 0.625052
Si Si5 0.675903 0.059422 0.838656
O O1 0.261749 0.156702 0.560751
O O2 0.043203 0.145431 0.453953
O O3 0.227749 0.925492 0.480947
O O4 0.000000 0.000000 0.555795
O O5 0.500000 0.500000 0.730956
O O6 0.755009 0.500728 0.668186
O O7 0.593769 0.751063 0.670346
O O8 0.744584 0.643962 0.777115
O O9 0.151385 0.671367 0.399937
O O10 0.199753 0.932802 0.360743
O O11 0.000000 0.500000 0.602123
O O12 0.500000 0.000000 0.821225
#
# Coordination Sequence:
#
# PCOD9377724 Si02
#       5
#     8   8   8   8   8
#     4   8  23  51  77 111 167 205 265 326 407 482
#     4  12  29  51  83 117 166 222 276 350 414 488
#     4   9  25  47  80 120 160 214 256 340 412 479
#     4  12  26  53  81 121 158 221 283 341 416 482
#     4  12  27  49  85 121 164 212 280 333 413 499
#
# _framework density 26.016304999999999
#
# number of rings (size 3 to 8) (size 9 to 14) (size 15 to 20)
#    1.200    0.000    0.000    3.600    8.400    5.600 
#    7.200    2.000    4.400    0.000    0.000    0.000 
#    0.000    0.000    0.000    0.000    0.000    0.000 
#
# Total GULP energy -111678.255047 kJ/mol
# GULP energy per Si atom -5583.912752 kJ/mol
# Density = 2.595709 g / cm^3
# Si number density = 26.016305 Si / 1000 Ang^3
#
#
#
# Elastic Constant Matrix: (Units=GPa)
#
#
# Indices 1 2 3 4 5 6 
#
# 1 133.7596 53.6748 66.7698 0.0000 0.0000 0.0000
# 2 53.6748 155.6004 62.4879 0.0000 0.0000 0.0000
# 3 66.7698 62.4879 112.5786 0.0000 0.0000 0.0000
# 4 0.0000 0.0000 0.0000 42.9869 0.0000 0.0000
# 5 0.0000 0.0000 0.0000 0.0000 49.7392 0.0000
# 6 0.0000 0.0000 0.0000 0.0000 0.0000 27.6931
#
#
#
# Elastic Compliance Matrix: (Units=1/GPa)
#
#
# Indices 1 2 3 4 5 6 
#
# 1 0.010884 -0.001495 -0.005625 0.000000 0.000000 0.000000
# 2 -0.001495 0.008476 -0.003818 0.000000 0.000000 0.000000
# 3 -0.005625 -0.003818 0.014338 0.000000 0.000000 0.000000
# 4 0.000000 0.000000 0.000000 0.023263 0.000000 0.000000
# 5 0.000000 0.000000 0.000000 0.000000 0.020105 0.000000
# 6 0.000000 0.000000 0.000000 0.000000 0.000000 0.036110
#
#
# Mechanical properties :
#
#
# Convention : Reuss Voigt Hill
#
# Bulk Modulus (GPa) = 84.59347 85.31151 84.95249
# Shear Modulus (GPa) = 35.97308 38.68425 37.32866
#
# Velocity S-wave (km/s) = 3.72252 3.86025 3.79201
# Velocity P-wave (km/s) = 7.14579 7.26164 7.20395
#
# Compressibility (1/GPa) = 0.01182124
#
# Stress axis : x y z
#
# Youngs Moduli (GPa) = 91.87609 117.98451 69.74471
#
# Poissons Ratio (x) = 0.17644 0.39234
# Poissons Ratio (y) = 0.13740 0.26625
# Poissons Ratio (z) = 0.51683 0.45041
#
# Static dielectric constant tensor:
#      x y z
#    x 2.186850 0.000000 0.000000 
#    y 0.000000 2.138260 0.000000 
#    z 0.000000 0.000000 2.067980 
# 
# From -- ./inp_files/9493.got.cif
#   From: 2010.05.17/outbox.cif.g08.bks.cpg/sg45_5_cif.got.tgz:9493.got - 2010.06.03 19:51:22.
