data_PCOD9377349
_publ_section_title
;
Structure prediction by ZEFSAII (Michael W. Deem and Ramdas Pophale) SiO2 
 PCOD9377349
Probable space group: I B A 2
;
_chemical_formula_sum "Si O2"
_cell_formula_units_Z 40
_cell_length_a 19.880990
_cell_length_b 8.924488
_cell_length_c 8.976862
_cell_angle_alpha 90.000000
_cell_angle_beta 90.000000
_cell_angle_gamma 90.000000
_cell_volume 1592.743589
_symmetry_space_group_name_H-M "I B A 2"
_symmetry_group_IT_number 45
_symmetry_cell_setting 'orthorhombic'
loop_
_space_group_symop_operation_xyz
x,y,z
-x,-y,z
-x,y,1/2+z
x,-y,1/2+z
1/2+x,1/2+y,1/2+z
1/2-x,1/2-y,1/2+z
1/2-x,1/2+y,z
1/2+x,1/2-y,z
loop_
_atom_site_type_symbol
_atom_site_label
_atom_site_fract_x
_atom_site_fract_y
_atom_site_fract_z
Si Si1 0.653636 0.968419 0.129870
Si Si2 0.934436 0.930888 0.220865
Si Si3 0.842207 0.050971 0.447903
Si Si4 0.060675 0.620433 0.877856
Si Si5 0.266126 0.835415 0.890838
O O1 0.710366 0.882710 0.225402
O O2 0.610503 0.053903 0.253556
O O3 0.600694 0.872504 0.033645
O O4 0.687420 0.082914 0.013977
O O5 0.875345 0.904957 0.102614
O O6 0.955733 0.784271 0.313798
O O7 0.902364 0.053378 0.330813
O O8 0.000000 0.000000 0.144737
O O9 0.781836 0.161076 0.404241
O O10 0.808576 0.887668 0.431130
O O11 0.000000 0.500000 0.894329
#
# Coordination Sequence:
#
# PCOD9377349 Si02
#       5
#     8   8   8   8   8
#     4  10  24  44  77 108 149 191 262 320 383 452
#     4  12  30  50  76 114 159 207 255 321 390 464
#     4  12  29  50  78 112 158 204 266 322 394 461
#     4  11  25  46  77 111 150 205 261 313 381 463
#     4  11  26  48  77 111 148 203 257 323 394 460
#
# _framework density 25.113897999999999
#
# number of rings (size 3 to 8) (size 9 to 14) (size 15 to 20)
#    0.000    0.800    2.000    2.400   14.000    6.400 
#    0.000    0.000    0.000    0.000    0.000    0.000 
#    0.000    0.000    0.000    0.000    0.000    0.000 
#
# Total GULP energy -112083.937892 kJ/mol
# GULP energy per Si atom -5604.196895 kJ/mol
# Density = 2.505674 g / cm^3
# Si number density = 25.113898 Si / 1000 Ang^3
#
#
#
# Elastic Constant Matrix: (Units=GPa)
#
#
# Indices 1 2 3 4 5 6 
#
# 1 118.1538 39.2096 23.1856 0.0000 0.0000 0.0000
# 2 39.2096 91.1201 27.7233 0.0000 0.0000 0.0000
# 3 23.1856 27.7233 127.0750 0.0000 0.0000 0.0000
# 4 0.0000 0.0000 0.0000 20.1594 0.0000 0.0000
# 5 0.0000 0.0000 0.0000 0.0000 38.3990 0.0000
# 6 0.0000 0.0000 0.0000 0.0000 0.0000 44.3867
#
#
#
# Elastic Compliance Matrix: (Units=1/GPa)
#
#
# Indices 1 2 3 4 5 6 
#
# 1 0.009979 -0.004006 -0.000947 0.000000 0.000000 0.000000
# 2 -0.004006 0.013363 -0.002184 0.000000 0.000000 0.000000
# 3 -0.000947 -0.002184 0.008519 0.000000 0.000000 0.000000
# 4 0.000000 0.000000 0.000000 0.049605 0.000000 0.000000
# 5 0.000000 0.000000 0.000000 0.000000 0.026042 0.000000
# 6 0.000000 0.000000 0.000000 0.000000 0.000000 0.022529
#
#
# Mechanical properties :
#
#
# Convention : Reuss Voigt Hill
#
# Bulk Modulus (GPa) = 56.86270 57.39843 57.13057
# Shear Modulus (GPa) = 33.29500 37.00436 35.14968
#
# Velocity S-wave (km/s) = 3.64505 3.84273 3.74520
# Velocity P-wave (km/s) = 6.35659 6.52638 6.44205
#
# Compressibility (1/GPa) = 0.01758622
#
# Stress axis : x y z
#
# Youngs Moduli (GPa) = 100.21364 74.83412 117.38923
#
# Poissons Ratio (x) = 0.29977 0.11114
# Poissons Ratio (y) = 0.40144 0.25643
# Poissons Ratio (z) = 0.09488 0.16347
#
# Static dielectric constant tensor:
#      x y z
#    x 1.983050 0.000000 0.000000 
#    y 0.000000 2.014820 0.000000 
#    z 0.000000 0.000000 1.963690 
# 
# From -- ./inp_files/2445.got.cif
#   From: 2010.05.17/outbox.cif.g08.bks.cpg/sg45_2_cif.got.tgz:2445.got - 2010.06.03 19:51:22.
