data_PCOD9377912
_publ_section_title
;
Structure prediction by ZEFSAII (Michael W. Deem and Ramdas Pophale) SiO2 
 PCOD9377912
Probable space group: I M A 2
;
_chemical_formula_sum "Si O2"
_cell_formula_units_Z 40
_cell_length_a 12.697654
_cell_length_b 9.996867
_cell_length_c 14.607662
_cell_angle_alpha 90.000000
_cell_angle_beta 90.000000
_cell_angle_gamma 90.000000
_cell_volume 1854.249260
_symmetry_space_group_name_H-M "I M A 2"
_symmetry_group_IT_number 46
_symmetry_cell_setting 'orthorhombic'
loop_
_space_group_symop_operation_xyz
x,y,z
-x,-y,z
1/2-x,y,z
1/2+x,-y,z
1/2+x,1/2+y,1/2+z
1/2-x,1/2-y,1/2+z
-x,1/2+y,1/2+z
x,1/2-y,1/2+z
loop_
_atom_site_type_symbol
_atom_site_label
_atom_site_fract_x
_atom_site_fract_y
_atom_site_fract_z
Si Si1 0.627052 0.871522 0.081400
Si Si2 0.123796 0.484910 0.244005
Si Si3 0.629085 0.668090 0.778161
Si Si4 0.471975 0.146891 0.473474
Si Si5 0.371202 0.613398 0.443061
O O1 0.750000 0.882989 0.098227
O O2 0.579001 0.881963 0.182686
O O3 0.607848 0.725317 0.039181
O O4 0.603657 0.985303 0.006948
O O5 0.250000 0.513775 0.208365
O O6 0.130057 0.328820 0.269274
O O7 0.115540 0.570869 0.337573
O O8 0.000000 0.500000 0.204432
O O9 0.750000 0.621725 0.788049
O O10 0.571138 0.632135 0.870911
O O11 0.564980 0.255234 0.468775
O O12 0.500000 0.000000 0.505961
O O13 0.250000 0.643443 0.458549
#
# Coordination Sequence:
#
# PCOD9377912 Si02
#       5
#     8   8   8   8   8
#     4  10  21  40  66  90 118 163 216 266 319 392
#     4  10  17  32  62  93 120 159 213 266 316 384
#     4  10  21  38  64  92 119 159 213 267 324 385
#     4  12  24  38  59  93 129 166 205 267 331 390
#     4  10  20  38  65  90 122 169 218 267 323 392
#
# _framework density 21.572075000000002
#
# number of rings (size 3 to 8) (size 9 to 14) (size 15 to 20)
#    0.000    1.600    4.000    1.200    0.000    4.000 
#    0.000    0.000    0.000    2.400    0.000    0.000 
#    0.000    0.000    0.000    0.000    0.000    0.000 
#
# Total GULP energy -111357.077550 kJ/mol
# GULP energy per Si atom -5567.853878 kJ/mol
# Density = 2.152298 g / cm^3
# Si number density = 21.572075 Si / 1000 Ang^3
#
#
#
# Elastic Constant Matrix: (Units=GPa)
#
#
# Indices 1 2 3 4 5 6 
#
# 1 85.0768 26.2304 9.7949 0.0000 0.0000 0.0000
# 2 26.2304 117.9937 25.1979 0.0000 0.0000 0.0000
# 3 9.7949 25.1979 108.5984 0.0000 0.0000 0.0000
# 4 0.0000 0.0000 0.0000 9.7623 0.0000 0.0000
# 5 0.0000 0.0000 0.0000 0.0000 22.3343 0.0000
# 6 0.0000 0.0000 0.0000 0.0000 0.0000 -5.5238
#
#
#
# Elastic Compliance Matrix: (Units=1/GPa)
#
#
# Indices 1 2 3 4 5 6 
#
# 1 0.012646 -0.002702 -0.000514 0.000000 0.000000 0.000000
# 2 -0.002702 0.009494 -0.001959 0.000000 0.000000 0.000000
# 3 -0.000514 -0.001959 0.009709 0.000000 0.000000 0.000000
# 4 0.000000 0.000000 0.000000 0.102435 0.000000 0.000000
# 5 0.000000 0.000000 0.000000 0.000000 0.044774 0.000000
# 6 0.000000 0.000000 0.000000 0.000000 0.000000 -0.181036
#
#
# Mechanical properties :
#
#
# Convention : Reuss Voigt Hill
#
# Bulk Modulus (GPa) = 46.51111 48.23504 47.37307
# Shear Modulus (GPa) = 321.78450 22.01094 171.89772
#
# Velocity S-wave (km/s) = 12.22665 3.19775 8.93635
# Velocity P-wave (km/s) = 14.86368 6.00355 11.33516
#
# Compressibility (1/GPa) = 0.02150024
#
# Stress axis : x y z
#
# Youngs Moduli (GPa) = 79.07538 105.32980 102.99541
#
# Poissons Ratio (x) = 0.28456 0.05291
# Poissons Ratio (y) = 0.21363 0.20179
# Poissons Ratio (z) = 0.04063 0.20636
#
# Static dielectric constant tensor:
#      x y z
#    x 1.899920 0.000000 0.000000 
#    y 0.000000 1.727680 0.000000 
#    z 0.000000 0.000000 1.816960 
# 
# From -- ./inp_files/15678.got.cif
#   From: 2010.05.17/outbox.cif.g08.bks.cpg/sg46_8_cif.got.tgz:15678.got - 2010.06.03 19:58:25.
