data_PCOD9377799
_publ_section_title
;
Structure prediction by ZEFSAII (Michael W. Deem and Ramdas Pophale) SiO2 
 PCOD9377799
Probable space group: I M A 2
;
_chemical_formula_sum "Si O2"
_cell_formula_units_Z 52
_cell_length_a 20.933921
_cell_length_b 26.692465
_cell_length_c 5.294785
_cell_angle_alpha 90.000000
_cell_angle_beta 90.000000
_cell_angle_gamma 90.000000
_cell_volume 2958.609127
_symmetry_space_group_name_H-M "I M A 2"
_symmetry_group_IT_number 46
_symmetry_cell_setting 'orthorhombic'
loop_
_space_group_symop_operation_xyz
x,y,z
-x,-y,z
1/2-x,y,z
1/2+x,-y,z
1/2+x,1/2+y,1/2+z
1/2-x,1/2-y,1/2+z
-x,1/2+y,1/2+z
x,1/2-y,1/2+z
loop_
_atom_site_type_symbol
_atom_site_label
_atom_site_fract_x
_atom_site_fract_y
_atom_site_fract_z
Si Si1 0.924473 0.371342 0.348670
Si Si2 0.673665 0.282354 0.303140
Si Si3 0.933248 0.530822 0.764461
Si Si4 0.006931 0.138263 0.349484
Si Si5 0.385419 0.217906 0.246151
Si Si6 0.250000 0.217106 0.354269
Si Si7 0.423172 0.988924 0.763973
O O1 0.865082 0.334048 0.316983
O O2 0.955352 0.363471 0.623995
O O3 0.911586 0.430676 0.318226
O O4 0.974045 0.358876 0.122775
O O5 0.750000 0.291213 0.305295
O O6 0.657864 0.248177 0.547450
O O7 0.900440 0.522782 0.495951
O O8 0.000000 0.500000 0.736684
O O9 0.953055 0.586922 0.827813
O O10 0.896362 0.505761 0.995499
O O11 0.054560 0.183484 0.299435
O O12 0.386563 0.261341 0.460702
O O13 0.317317 0.190905 0.298517
O O14 0.250000 0.238322 0.640540
O O15 0.500000 0.000000 0.738956
#
# Coordination Sequence:
#
# PCOD9377799 Si02
#       7
#     8   8   8   8   8   4   8
#     4  12  21  32  55  80 102 136 173 210 272 315
#     4  10  23  42  57  73 103 144 186 223 265 320
#     4  10  16  30  46  69 104 134 162 194 245 304
#     4  12  21  30  51  82 108 131 167 209 270 310
#     4  10  21  35  49  73 104 136 168 209 246 297
#     4   8  16  34  54  64  88 136 178 192 224 282
#     4  10  16  30  48  72 101 129 165 201 242 306
#
# _framework density 17.575825999999999
#
# number of rings (size 3 to 8) (size 9 to 14) (size 15 to 20)
#    0.000    1.538    6.154    1.846    0.000    3.692 
#    0.000    0.000    0.000    0.000    4.000    0.000 
#    0.000    0.000    0.000    0.000    0.000    0.000 
#
# Total GULP energy -144894.965985 kJ/mol
# GULP energy per Si atom -5572.883307 kJ/mol
# Density = 1.753582 g / cm^3
# Si number density = 17.575826 Si / 1000 Ang^3
#
#
#
# Elastic Constant Matrix: (Units=GPa)
#
#
# Indices 1 2 3 4 5 6 
#
# 1 19.1364 20.5143 -7.6431 0.0000 0.0000 0.0000
# 2 20.5143 57.7157 -10.5625 0.0000 0.0000 0.0000
# 3 -7.6431 -10.5625 85.2944 0.0000 0.0000 0.0000
# 4 0.0000 0.0000 0.0000 21.0150 0.0000 0.0000
# 5 0.0000 0.0000 0.0000 0.0000 10.4934 0.0000
# 6 0.0000 0.0000 0.0000 0.0000 0.0000 5.5875
#
#
#
# Elastic Compliance Matrix: (Units=1/GPa)
#
#
# Indices 1 2 3 4 5 6 
#
# 1 0.085738 -0.029743 0.004000 0.000000 0.000000 0.000000
# 2 -0.029743 0.028046 0.000808 0.000000 0.000000 0.000000
# 3 0.004000 0.000808 0.012183 0.000000 0.000000 0.000000
# 4 0.000000 0.000000 0.000000 0.047585 0.000000 0.000000
# 5 0.000000 0.000000 0.000000 0.000000 0.095298 0.000000
# 6 0.000000 0.000000 0.000000 0.000000 0.000000 0.178970
#
#
# Mechanical properties :
#
#
# Convention : Reuss Voigt Hill
#
# Bulk Modulus (GPa) = 13.14123 18.52933 15.83528
# Shear Modulus (GPa) = 9.55922 18.07504 13.81713
#
# Velocity S-wave (km/s) = 2.33466 3.21035 2.80687
# Velocity P-wave (km/s) = 3.84196 4.93023 4.41972
#
# Compressibility (1/GPa) = 0.07609636
#
# Stress axis : x y z
#
# Youngs Moduli (GPa) = 11.66343 35.65600 82.08462
#
# Poissons Ratio (x) = 1.06050 -0.32831
# Poissons Ratio (y) = 0.34690 -0.06632
# Poissons Ratio (z) = -0.04665 -0.02881
#
# Static dielectric constant tensor:
#      x y z
#    x 1.561460 0.000000 0.000000 
#    y 0.000000 1.580990 0.000000 
#    z 0.000000 0.000000 1.669790 
# 
# From -- ./inp_files/2090.got.cif
#   From: 2010.05.17/outbox.cif.g08.bks.cpg/sg46_2_cif.got.tgz:2090.got - 2010.06.03 19:58:25.
