data_PCOD9377336
_publ_section_title
;
Structure prediction by ZEFSAII (Michael W. Deem and Ramdas Pophale) SiO2 
 PCOD9377336
Probable space group: I B A 2
;
_chemical_formula_sum "Si O2"
_cell_formula_units_Z 36
_cell_length_a 8.935012
_cell_length_b 13.570435
_cell_length_c 9.897348
_cell_angle_alpha 90.000000
_cell_angle_beta 90.000000
_cell_angle_gamma 90.000000
_cell_volume 1200.073235
_symmetry_space_group_name_H-M "I B A 2"
_symmetry_group_IT_number 45
_symmetry_cell_setting 'orthorhombic'
loop_
_space_group_symop_operation_xyz
x,y,z
-x,-y,z
-x,y,1/2+z
x,-y,1/2+z
1/2+x,1/2+y,1/2+z
1/2-x,1/2-y,1/2+z
1/2-x,1/2+y,z
1/2+x,1/2-y,z
loop_
_atom_site_type_symbol
_atom_site_label
_atom_site_fract_x
_atom_site_fract_y
_atom_site_fract_z
Si Si1 0.202422 0.485776 0.661500
Si Si2 0.011628 0.662929 0.586381
Si Si3 0.000000 0.000000 0.575976
Si Si4 0.129668 0.889508 0.838382
Si Si5 0.356109 0.729968 0.829227
O O1 0.117798 0.417763 0.555178
O O2 0.379726 0.445512 0.671768
O O3 0.194620 0.439861 0.810522
O O4 0.136985 0.593687 0.657533
O O5 0.923308 0.732661 0.688079
O O6 0.083061 0.725222 0.469239
O O7 0.886961 0.935637 0.491531
O O8 0.187116 0.774678 0.829642
O O9 0.935201 0.878371 0.831707
#
# Coordination Sequence:
#
# PCOD9377336 Si02
#       5
#     8   8   4   8   8
#     4  10  24  44  70 104 140 191 247 303 369 452
#     4  10  24  46  76 100 145 192 248 301 377 444
#     4  12  24  44  70 100 146 184 254 290 382 442
#     4  11  27  43  70 107 144 196 241 312 375 452
#     4  11  26  46  71 108 146 191 245 311 379 446
#
# _framework density 29.998169999999998
#
# number of rings (size 3 to 8) (size 9 to 14) (size 15 to 20)
#    0.000    1.333    2.222    0.667    9.333    5.333 
#    0.000    0.000    0.000    0.000    0.000    0.000 
#    0.000    0.000    0.000    0.000    0.000    0.000 
#
# Total GULP energy -100213.565958 kJ/mol
# GULP energy per Si atom -5567.420331 kJ/mol
# Density = 2.992989 g / cm^3
# Si number density = 29.998170 Si / 1000 Ang^3
#
#
#
# Elastic Constant Matrix: (Units=GPa)
#
#
# Indices 1 2 3 4 5 6 
#
# 1 165.4634 15.5735 19.9744 0.0000 0.0000 0.0000
# 2 15.5735 77.9487 25.7149 0.0000 0.0000 0.0000
# 3 19.9744 25.7149 87.2881 0.0001 -0.0001 0.0001
# 4 0.0000 0.0000 0.0001 49.7711 -0.0001 0.0001
# 5 0.0000 0.0000 -0.0001 -0.0001 57.7781 0.0000
# 6 0.0000 0.0000 0.0001 0.0001 0.0000 50.9509
#
#
#
# Elastic Compliance Matrix: (Units=1/GPa)
#
#
# Indices 1 2 3 4 5 6 
#
# 1 0.006267 -0.000863 -0.001180 0.000000 0.000000 0.000000
# 2 -0.000863 0.014329 -0.004024 0.000000 0.000000 0.000000
# 3 -0.001180 -0.004024 0.012912 0.000000 0.000000 0.000000
# 4 0.000000 0.000000 0.000000 0.020092 0.000000 0.000000
# 5 0.000000 0.000000 0.000000 0.000000 0.017308 0.000000
# 6 0.000000 0.000000 0.000000 0.000000 0.000000 0.019627
#
#
# Mechanical properties :
#
#
# Convention : Reuss Voigt Hill
#
# Bulk Modulus (GPa) = 46.78460 50.35841 48.57151
# Shear Modulus (GPa) = 45.54058 49.66250 47.60154
#
# Velocity S-wave (km/s) = 3.90052 4.07322 3.98781
# Velocity P-wave (km/s) = 5.99292 6.24060 6.11801
#
# Compressibility (1/GPa) = 0.02137456
#
# Stress axis : x y z
#
# Youngs Moduli (GPa) = 159.55862 69.78968 77.44898
#
# Poissons Ratio (x) = 0.06022 0.09139
# Poissons Ratio (y) = 0.13768 0.31164
# Poissons Ratio (z) = 0.18827 0.28082
#
# Static dielectric constant tensor:
#      x y z
#    x 2.835030 0.000000 0.000000 
#    y 0.000000 2.480140 0.000000 
#    z 0.000000 0.000000 2.471060 
# 
# From -- ./inp_files/3545.got.cif
#   From: 2010.05.17/outbox.cif.g08.bks.cpg/sg45_2_cif.got.tgz:3545.got - 2010.06.03 19:51:22.
