data_PCOD9377580
_publ_section_title
;
Structure prediction by ZEFSAII (Michael W. Deem and Ramdas Pophale) SiO2 
 PCOD9377580
Probable space group: I B A 2
;
_chemical_formula_sum "Si O2"
_cell_formula_units_Z 64
_cell_length_a 31.297749
_cell_length_b 8.353661
_cell_length_c 10.981647
_cell_angle_alpha 90.000000
_cell_angle_beta 90.000000
_cell_angle_gamma 90.000000
_cell_volume 2871.160231
_symmetry_space_group_name_H-M "I B A 2"
_symmetry_group_IT_number 45
_symmetry_cell_setting 'orthorhombic'
loop_
_space_group_symop_operation_xyz
x,y,z
-x,-y,z
-x,y,1/2+z
x,-y,1/2+z
1/2+x,1/2+y,1/2+z
1/2-x,1/2-y,1/2+z
1/2-x,1/2+y,z
1/2+x,1/2-y,z
loop_
_atom_site_type_symbol
_atom_site_label
_atom_site_fract_x
_atom_site_fract_y
_atom_site_fract_z
Si Si1 0.619544 0.557077 0.500000
Si Si2 0.523753 0.673506 0.542761
Si Si3 0.112310 0.841919 0.235805
Si Si4 0.228506 0.277823 0.516846
Si Si5 0.678416 0.060893 0.720385
Si Si6 0.268039 0.474157 0.842456
Si Si7 0.487345 0.311241 0.283566
Si Si8 0.688366 0.719386 0.652351
O O1 0.573627 0.639784 0.524662
O O2 0.620203 0.415717 0.601325
O O3 0.620883 0.540470 0.352851
O O4 0.657315 0.673364 0.543945
O O5 0.500000 0.500000 0.550555
O O6 0.507014 0.756116 0.419461
O O7 0.514558 0.755629 0.671545
O O8 0.141429 0.684642 0.253379
O O9 0.062151 0.802455 0.245814
O O10 0.194887 0.387904 0.585325
O O11 0.254873 0.366705 0.411338
O O12 0.209353 0.127769 0.448576
O O13 0.264980 0.219347 0.609516
O O14 0.720753 0.082636 0.801456
O O15 0.668612 0.871224 0.722973
O O16 0.298368 0.440244 0.727834
O O17 0.500000 0.500000 0.296316
#
# Coordination Sequence:
#
# PCOD9377580 Si02
#       8
#     8   8   8   8   8   8   8   8
#     4  11  24  38  62 100 132 169 217 283 325 396
#     4   9  16  32  57  88 128 161 207 264 336 375
#     4  11  24  39  63  97 135 173 220 273 340 397
#     4  11  23  41  63  85 119 171 221 272 329 391
#     4  11  25  42  58  88 128 176 212 271 341 399
#     4  11  23  41  62  84 120 169 221 272 330 390
#     4   9  16  32  58  89 126 165 207 269 329 386
#     4  11  25  39  61  91 126 170 223 274 330 396
#
# _framework density 22.290641000000001
#
# number of rings (size 3 to 8) (size 9 to 14) (size 15 to 20)
#    0.000    1.500    5.000    0.750    5.250    0.000 
#    0.000    0.000    0.000    0.750    0.000    3.500 
#    0.000    0.000    0.000    0.000    0.000    0.000 
#
# Total GULP energy -178391.577174 kJ/mol
# GULP energy per Si atom -5574.736787 kJ/mol
# Density = 2.223991 g / cm^3
# Si number density = 22.290641 Si / 1000 Ang^3
#
#
#
# Elastic Constant Matrix: (Units=GPa)
#
#
# Indices 1 2 3 4 5 6 
#
# 1 93.6598 7.2648 10.0521 0.0000 0.0000 0.0000
# 2 7.2648 43.1788 12.0824 0.0000 0.0000 0.0000
# 3 10.0521 12.0824 112.8968 0.0000 0.0000 0.0000
# 4 0.0000 0.0000 0.0000 24.1447 0.0000 0.0000
# 5 0.0000 0.0000 0.0000 0.0000 36.4462 0.0000
# 6 0.0000 0.0000 0.0000 0.0000 0.0000 15.5633
#
#
#
# Elastic Compliance Matrix: (Units=1/GPa)
#
#
# Indices 1 2 3 4 5 6 
#
# 1 0.010887 -0.001609 -0.000797 0.000000 0.000000 0.000000
# 2 -0.001609 0.024112 -0.002437 0.000000 0.000000 0.000000
# 3 -0.000797 -0.002437 0.009189 0.000000 0.000000 0.000000
# 4 0.000000 0.000000 0.000000 0.041417 0.000000 0.000000
# 5 0.000000 0.000000 0.000000 0.000000 0.027438 0.000000
# 6 0.000000 0.000000 0.000000 0.000000 0.000000 0.064254
#
#
# Mechanical properties :
#
#
# Convention : Reuss Voigt Hill
#
# Bulk Modulus (GPa) = 28.98339 34.28155 31.63247
# Shear Modulus (GPa) = 25.19085 29.91990 27.55537
#
# Velocity S-wave (km/s) = 3.36536 3.66766 3.51976
# Velocity P-wave (km/s) = 5.30392 5.77481 5.54437
#
# Compressibility (1/GPa) = 0.03450252
#
# Stress axis : x y z
#
# Youngs Moduli (GPa) = 91.85029 41.47281 108.82020
#
# Poissons Ratio (x) = 0.06672 0.08675
# Poissons Ratio (y) = 0.14776 0.26523
# Poissons Ratio (z) = 0.07322 0.10108
#
# Static dielectric constant tensor:
#      x y z
#    x 1.794460 0.000000 0.000000 
#    y 0.000000 1.883770 0.000000 
#    z 0.000000 0.000000 1.924530 
# 
# From -- ./inp_files/3398.got.cif
#   From: 2010.05.17/outbox.cif.g08.bks.cpg/sg45_2_cif.got.tgz:3398.got - 2010.06.03 19:51:22.
