data_PCOD9377281
_publ_section_title
;
Structure prediction by ZEFSAII (Michael W. Deem and Ramdas Pophale) SiO2 
 PCOD9377281
Probable space group: I B A 2
;
_chemical_formula_sum "Si O2"
_cell_formula_units_Z 60
_cell_length_a 10.689013
_cell_length_b 8.401753
_cell_length_c 29.232816
_cell_angle_alpha 90.000000
_cell_angle_beta 90.000000
_cell_angle_gamma 90.000000
_cell_volume 2625.295342
_symmetry_space_group_name_H-M "I B A 2"
_symmetry_group_IT_number 45
_symmetry_cell_setting 'orthorhombic'
loop_
_space_group_symop_operation_xyz
x,y,z
-x,-y,z
-x,y,1/2+z
x,-y,1/2+z
1/2+x,1/2+y,1/2+z
1/2-x,1/2-y,1/2+z
1/2-x,1/2+y,z
1/2+x,1/2-y,z
loop_
_atom_site_type_symbol
_atom_site_label
_atom_site_fract_x
_atom_site_fract_y
_atom_site_fract_z
Si Si1 0.358952 0.786137 0.700170
Si Si2 0.711271 0.815862 0.609903
Si Si3 0.571321 0.720421 0.915583
Si Si4 0.500000 0.000000 0.146535
Si Si5 0.188002 0.888142 0.450005
Si Si6 0.637824 0.464313 0.049008
Si Si7 0.221288 0.572415 0.763964
Si Si8 0.898444 0.135531 0.811416
O O1 0.271579 0.732482 0.658143
O O2 0.486128 0.837748 0.675645
O O3 0.339008 0.657092 0.739120
O O4 0.325468 0.950023 0.725843
O O5 0.621557 0.968009 0.616952
O O6 0.637149 0.670326 0.587883
O O7 0.810609 0.877855 0.573051
O O8 0.677677 0.848383 0.928199
O O9 0.635310 0.557416 0.933360
O O10 0.429678 0.728272 0.936096
O O11 0.566805 0.702766 0.860860
O O12 0.208422 0.900700 0.504425
O O13 0.500000 0.500000 0.031760
O O14 0.125753 0.711667 0.778614
O O15 0.269074 0.466013 0.806433
O O16 0.000000 0.000000 0.801031
#
# Coordination Sequence:
#
# PCOD9377281 Si02
#       8
#     8   8   8   4   8   8   8   8
#     4  11  22  44  63  99 140 185 230 287 352 420
#     4  12  25  43  70 101 142 186 236 294 349 431
#     4  11  23  46  70 101 139 185 229 296 367 436
#     4  12  24  40  68  96 136 182 236 280 352 416
#     4  11  24  44  72 101 141 181 236 296 357 440
#     4  12  25  44  69 103 138 184 240 292 359 414
#     4  10  24  41  67 102 138 179 239 292 352 425
#     4  11  23  42  68 100 138 182 234 299 362 431
#
# _framework density 22.854571
#
# number of rings (size 3 to 8) (size 9 to 14) (size 15 to 20)
#    0.000    0.800    5.333    2.400    1.867    0.533 
#    0.000    1.333    0.000    0.000    0.000    0.000 
#    0.000    0.000    0.000    0.000    0.000    0.000 
#
# Total GULP energy -167419.619697 kJ/mol
# GULP energy per Si atom -5580.653990 kJ/mol
# Density = 2.280255 g / cm^3
# Si number density = 22.854571 Si / 1000 Ang^3
#
#
#
# Elastic Constant Matrix: (Units=GPa)
#
#
# Indices 1 2 3 4 5 6 
#
# 1 48.3444 8.2455 14.0324 0.0000 0.0000 0.0000
# 2 8.2455 62.1625 27.3479 0.0001 0.0000 0.0000
# 3 14.0324 27.3479 122.9844 0.0000 0.0000 0.0000
# 4 0.0000 0.0001 0.0000 2304.1361 0.0000 0.0000
# 5 0.0000 0.0000 0.0000 0.0000 17.7016 0.0000
# 6 0.0000 0.0000 0.0000 0.0000 0.0000 27.4325
#
#
#
# Elastic Compliance Matrix: (Units=1/GPa)
#
#
# Indices 1 2 3 4 5 6 
#
# 1 0.021610 -0.001975 -0.002027 0.000000 0.000000 0.000000
# 2 -0.001975 0.018012 -0.003780 0.000000 0.000000 0.000000
# 3 -0.002027 -0.003780 0.009203 0.000000 0.000000 0.000000
# 4 0.000000 0.000000 0.000000 0.000434 0.000000 0.000000
# 5 0.000000 0.000000 0.000000 0.000000 0.056492 0.000000
# 6 0.000000 0.000000 0.000000 0.000000 0.000000 0.036453
#
#
# Mechanical properties :
#
#
# Convention : Reuss Voigt Hill
#
# Bulk Modulus (GPa) = 30.06437 36.97143 33.51790
# Shear Modulus (GPa) = 29.61139 482.11174 255.86157
#
# Velocity S-wave (km/s) = 3.60341 14.53979 10.59222
# Velocity P-wave (km/s) = 5.52231 17.26517 12.81760
#
# Compressibility (1/GPa) = 0.03326196
#
# Stress axis : x y z
#
# Youngs Moduli (GPa) = 46.27491 55.51924 108.66166
#
# Poissons Ratio (x) = 0.10964 0.22021
# Poissons Ratio (y) = 0.09139 0.41073
# Poissons Ratio (z) = 0.09378 0.20986
#
# Static dielectric constant tensor:
#      x y z
#    x 1.904470 0.000000 0.000000 
#    y 0.000000 -0.782540 0.000000 
#    z 0.000000 0.000000 1.841530 
# 
# From -- ./inp_files/10039.got.cif
#   From: 2010.05.17/outbox.cif.g08.bks.cpg/sg45_6_cif.got.tgz:10039.got - 2010.06.03 19:51:22.
