data_PCOD9377169
_publ_section_title
;
Structure prediction by ZEFSAII (Michael W. Deem and Ramdas Pophale) SiO2 
 PCOD9377169
Probable space group: I B A 2
;
_chemical_formula_sum "Si O2"
_cell_formula_units_Z 60
_cell_length_a 24.411161
_cell_length_b 9.625726
_cell_length_c 9.375490
_cell_angle_alpha 90.000000
_cell_angle_beta 90.000000
_cell_angle_gamma 90.000000
_cell_volume 2203.007142
_symmetry_space_group_name_H-M "I B A 2"
_symmetry_group_IT_number 45
_symmetry_cell_setting 'orthorhombic'
loop_
_space_group_symop_operation_xyz
x,y,z
-x,-y,z
-x,y,1/2+z
x,-y,1/2+z
1/2+x,1/2+y,1/2+z
1/2-x,1/2-y,1/2+z
1/2-x,1/2+y,z
1/2+x,1/2-y,z
loop_
_atom_site_type_symbol
_atom_site_label
_atom_site_fract_x
_atom_site_fract_y
_atom_site_fract_z
Si Si1 0.000000 0.000000 0.465010
Si Si2 0.806570 0.516391 0.310397
Si Si3 0.269277 0.466795 0.571581
Si Si4 0.359249 0.309503 0.732626
Si Si5 0.441468 0.338953 0.216385
Si Si6 0.038083 0.660068 0.711725
Si Si7 0.595156 0.981369 0.973187
Si Si8 0.658975 0.297229 0.558233
O O1 0.962030 0.088807 0.359329
O O2 0.035373 0.094121 0.570448
O O3 0.760912 0.564544 0.424403
O O4 0.773713 0.429745 0.195436
O O5 0.835272 0.650925 0.238768
O O6 0.856405 0.437620 0.388793
O O7 0.324910 0.390063 0.614558
O O8 0.281762 0.632764 0.581440
O O9 0.424197 0.299330 0.704304
O O10 0.351754 0.357581 0.896650
O O11 0.474243 0.193260 0.214465
O O12 0.377303 0.346186 0.192093
O O13 0.060473 0.572062 0.580336
O O14 0.055769 0.590280 0.859029
O O15 0.632103 0.856647 0.039864
#
# Coordination Sequence:
#
# PCOD9377169 Si02
#       8
#     4   8   8   8   8   8   8   8
#     4  10  24  40  68 100 134 186 232 304 356 444
#     4  10  23  40  70 101 140 186 231 299 355 438
#     4  12  23  42  68 101 145 190 235 293 368 422
#     4  10  24  43  66 104 148 177 252 293 362 444
#     4  11  24  44  71  99 145 186 243 297 374 425
#     4  10  23  46  70 103 139 192 227 311 358 434
#     4  10  23  48  71 102 149 177 255 294 364 446
#     4  10  24  42  66 103 141 189 237 298 348 444
#
# _framework density 27.235498
#
# number of rings (size 3 to 8) (size 9 to 14) (size 15 to 20)
#    0.000    1.867    1.333    3.200    9.333    2.667 
#    2.400    2.667    0.000    0.000    0.000    0.000 
#    0.000    0.000    0.000    0.000    0.000    0.000 
#
# Total GULP energy -167983.958344 kJ/mol
# GULP energy per Si atom -5599.465278 kJ/mol
# Density = 2.717351 g / cm^3
# Si number density = 27.235498 Si / 1000 Ang^3
#
#
#
# Elastic Constant Matrix: (Units=GPa)
#
#
# Indices 1 2 3 4 5 6 
#
# 1 107.5296 14.4563 3.4417 0.0000 0.0000 0.0000
# 2 14.4563 65.4276 18.3169 0.0000 0.0000 0.0000
# 3 3.4417 18.3169 105.1326 0.0000 0.0000 0.0000
# 4 0.0000 0.0000 0.0000 34.4204 0.0000 0.0000
# 5 0.0000 0.0000 0.0000 0.0000 37.1696 0.0000
# 6 0.0000 0.0000 0.0000 0.0000 0.0000 45.8922
#
#
#
# Elastic Compliance Matrix: (Units=1/GPa)
#
#
# Indices 1 2 3 4 5 6 
#
# 1 0.009585 -0.002134 0.000058 0.000000 0.000000 0.000000
# 2 -0.002134 0.016543 -0.002812 0.000000 0.000000 0.000000
# 3 0.000058 -0.002812 0.010000 0.000000 0.000000 0.000000
# 4 0.000000 0.000000 0.000000 0.029053 0.000000 0.000000
# 5 0.000000 0.000000 0.000000 0.000000 0.026904 0.000000
# 6 0.000000 0.000000 0.000000 0.000000 0.000000 0.021790
#
#
# Mechanical properties :
#
#
# Convention : Reuss Voigt Hill
#
# Bulk Modulus (GPa) = 37.94936 38.94663 38.44799
# Shear Modulus (GPa) = 37.75455 39.62144 38.68800
#
# Velocity S-wave (km/s) = 3.72724 3.81829 3.77304
# Velocity P-wave (km/s) = 5.69975 5.81120 5.75575
#
# Compressibility (1/GPa) = 0.02635091
#
# Stress axis : x y z
#
# Youngs Moduli (GPa) = 104.33180 60.44880 100.00117
#
# Poissons Ratio (x) = 0.12900 -0.00580
# Poissons Ratio (y) = 0.22265 0.28124
# Poissons Ratio (z) = -0.00605 0.17000
#
# Static dielectric constant tensor:
#      x y z
#    x 2.120870 0.000000 0.000000 
#    y 0.000000 2.310860 0.000000 
#    z 0.000000 0.000000 2.088580 
# 
# From -- ./inp_files/2622.got.cif
#   From: 2010.05.17/outbox.cif.g08.bks.cpg/sg45_2_cif.got.tgz:2622.got - 2010.06.03 19:51:22.
