data_PCOD9377097
_publ_section_title
;
Structure prediction by ZEFSAII (Michael W. Deem and Ramdas Pophale) SiO2 
 PCOD9377097
Probable space group: I B A 2
;
_chemical_formula_sum "Si O2"
_cell_formula_units_Z 56
_cell_length_a 13.861724
_cell_length_b 12.597113
_cell_length_c 13.911473
_cell_angle_alpha 90.000000
_cell_angle_beta 90.000000
_cell_angle_gamma 90.000000
_cell_volume 2429.189469
_symmetry_space_group_name_H-M "I B A 2"
_symmetry_group_IT_number 45
_symmetry_cell_setting 'orthorhombic'
loop_
_space_group_symop_operation_xyz
x,y,z
-x,-y,z
-x,y,1/2+z
x,-y,1/2+z
1/2+x,1/2+y,1/2+z
1/2-x,1/2-y,1/2+z
1/2-x,1/2+y,z
1/2+x,1/2-y,z
loop_
_atom_site_type_symbol
_atom_site_label
_atom_site_fract_x
_atom_site_fract_y
_atom_site_fract_z
Si Si1 0.000000 0.000000 0.728420
Si Si2 0.867912 0.607460 0.791913
Si Si3 0.500000 0.000000 0.647670
Si Si4 0.684049 0.514820 0.363148
Si Si5 0.874189 0.827763 0.128699
Si Si6 0.767929 0.190281 0.237037
Si Si7 0.271569 0.474970 0.067636
Si Si8 0.580064 0.859326 0.500059
O O1 0.910780 0.980441 0.799294
O O2 0.962206 0.098854 0.664192
O O3 0.762414 0.569895 0.826312
O O4 0.850018 0.721150 0.744867
O O5 0.933480 0.624402 0.887114
O O6 0.911678 0.521096 0.719920
O O7 0.498412 0.099546 0.575482
O O8 0.735204 0.627237 0.337996
O O9 0.662809 0.483828 0.472488
O O10 0.833680 0.744135 0.207011
O O11 0.895117 0.759545 0.033190
O O12 0.785407 0.908500 0.110773
O O13 0.793282 0.109425 0.150574
O O14 0.168737 0.437939 0.027650
#
# Coordination Sequence:
#
# PCOD9377097 Si02
#       8
#     4   8   4   8   8   8   8   8
#     4  12  24  42  70 102 144 182 242 292 368 434
#     4  11  23  44  69 100 140 188 240 297 364 434
#     4  12  24  42  72  98 142 186 238 304 360 428
#     4  11  24  44  68 101 141 187 234 300 355 429
#     4  11  22  42  68  99 141 185 233 294 356 426
#     4  11  20  42  71  97 134 190 231 289 363 422
#     4  10  22  43  69  94 136 182 235 292 349 426
#     4  10  24  41  68 104 136 182 245 292 355 441
#
# _framework density 23.052955999999998
#
# number of rings (size 3 to 8) (size 9 to 14) (size 15 to 20)
#    0.000    1.143    2.857    3.857    2.000    0.571 
#    0.000    1.429    0.000    0.000    0.000    0.000 
#    0.000    0.000    0.000    0.000    0.000    0.000 
#
# Total GULP energy -156335.960659 kJ/mol
# GULP energy per Si atom -5583.427166 kJ/mol
# Density = 2.300049 g / cm^3
# Si number density = 23.052956 Si / 1000 Ang^3
#
#
#
# Elastic Constant Matrix: (Units=GPa)
#
#
# Indices 1 2 3 4 5 6 
#
# 1 57.7278 15.5186 28.4643 0.0000 0.0000 0.0000
# 2 15.5186 123.9025 43.5685 0.0000 0.0000 0.0000
# 3 28.4643 43.5685 140.6706 0.0000 0.0000 0.0000
# 4 0.0000 0.0000 0.0000 16.8203 0.0000 0.0000
# 5 0.0000 0.0000 0.0000 0.0000 24.6819 0.0000
# 6 0.0000 0.0000 0.0000 0.0000 0.0000 36.2289
#
#
#
# Elastic Compliance Matrix: (Units=1/GPa)
#
#
# Indices 1 2 3 4 5 6 
#
# 1 0.019394 -0.001177 -0.003560 0.000000 0.000000 0.000000
# 2 -0.001177 0.009129 -0.002589 0.000000 0.000000 0.000000
# 3 -0.003560 -0.002589 0.008631 0.000000 0.000000 0.000000
# 4 0.000000 0.000000 0.000000 0.059452 0.000000 0.000000
# 5 0.000000 0.000000 0.000000 0.000000 0.040516 0.000000
# 6 0.000000 0.000000 0.000000 0.000000 0.000000 0.027602
#
#
# Mechanical properties :
#
#
# Convention : Reuss Voigt Hill
#
# Bulk Modulus (GPa) = 44.44113 55.26708 49.85410
# Shear Modulus (GPa) = 26.75559 31.19620 28.97589
#
# Velocity S-wave (km/s) = 3.41047 3.68263 3.54916
# Velocity P-wave (km/s) = 5.90154 6.48910 6.20228
#
# Compressibility (1/GPa) = 0.02250168
#
# Stress axis : x y z
#
# Youngs Moduli (GPa) = 51.56123 109.54397 115.86129
#
# Poissons Ratio (x) = 0.12898 0.41244
# Poissons Ratio (y) = 0.06071 0.29998
# Poissons Ratio (z) = 0.18354 0.28362
#
# Static dielectric constant tensor:
#      x y z
#    x 1.914530 0.000000 0.000000 
#    y 0.000000 1.902660 0.000000 
#    z 0.000000 0.000000 1.909890 
# 
# From -- ./inp_files/6542.got.cif
#   From: 2010.05.17/outbox.cif.g08.bks.cpg/sg45_4_cif.got.tgz:6542.got - 2010.06.03 19:51:22.
