data_PCOD9377676
_publ_section_title
;
Structure prediction by ZEFSAII (Michael W. Deem and Ramdas Pophale) SiO2 
 PCOD9377676
Probable space group: I B A 2
;
_chemical_formula_sum "Si O2"
_cell_formula_units_Z 40
_cell_length_a 9.114154
_cell_length_b 9.236655
_cell_length_c 19.779628
_cell_angle_alpha 90.000000
_cell_angle_beta 90.000000
_cell_angle_gamma 90.000000
_cell_volume 1665.134061
_symmetry_space_group_name_H-M "I B A 2"
_symmetry_group_IT_number 45
_symmetry_cell_setting 'orthorhombic'
loop_
_space_group_symop_operation_xyz
x,y,z
-x,-y,z
-x,y,1/2+z
x,-y,1/2+z
1/2+x,1/2+y,1/2+z
1/2-x,1/2-y,1/2+z
1/2-x,1/2+y,z
1/2+x,1/2-y,z
loop_
_atom_site_type_symbol
_atom_site_label
_atom_site_fract_x
_atom_site_fract_y
_atom_site_fract_z
Si Si1 0.666866 0.546501 0.018550
Si Si2 0.381312 0.391385 0.659556
Si Si3 0.559453 0.666176 0.350689
Si Si4 0.437426 0.159906 0.212409
Si Si5 0.335646 0.173893 0.940537
O O1 0.500000 0.500000 0.996004
O O2 0.669382 0.480366 0.093381
O O3 0.687287 0.714447 0.003042
O O4 0.797103 0.476716 0.974911
O O5 0.500000 0.500000 0.692154
O O6 0.474924 0.243719 0.652543
O O7 0.235208 0.352264 0.699086
O O8 0.500000 0.500000 0.349621
O O9 0.539215 0.745957 0.279617
O O10 0.481314 0.767226 0.406615
O O11 0.725778 0.671759 0.376373
O O12 0.500000 0.000000 0.220594
#
# Coordination Sequence:
#
# PCOD9377676 Si02
#       5
#     8   8   8   8   8
#     4  11  26  47  73 112 153 194 247 318 384 466
#     4  11  27  51  76 111 159 197 258 326 387 477
#     4  12  27  49  71 108 153 197 254 324 379 457
#     4  12  28  47  78 112 147 211 265 321 397 460
#     4  12  23  47  73 106 149 194 247 308 390 447
#
# _framework density 24.022088
#
# number of rings (size 3 to 8) (size 9 to 14) (size 15 to 20)
#    0.000    0.400    4.000    3.000   11.200    3.200 
#    0.000    0.000    0.000    0.000    0.000    0.000 
#    0.000    0.000    0.000    0.000    0.000    0.000 
#
# Total GULP energy -111724.099624 kJ/mol
# GULP energy per Si atom -5586.204981 kJ/mol
# Density = 2.396741 g / cm^3
# Si number density = 24.022088 Si / 1000 Ang^3
#
#
#
# Elastic Constant Matrix: (Units=GPa)
#
#
# Indices 1 2 3 4 5 6 
#
# 1 99.4430 41.2431 6.1734 0.0000 0.0000 0.0000
# 2 41.2431 116.1629 33.4754 0.0000 0.0000 0.0000
# 3 6.1734 33.4754 96.7472 0.0000 0.0000 0.0000
# 4 0.0000 0.0000 0.0000 33.3885 0.0000 0.0000
# 5 0.0000 0.0000 0.0000 0.0000 32.2946 0.0000
# 6 0.0000 0.0000 0.0000 0.0000 0.0000 30.4346
#
#
#
# Elastic Compliance Matrix: (Units=1/GPa)
#
#
# Indices 1 2 3 4 5 6 
#
# 1 0.011845 -0.004429 0.000777 0.000000 0.000000 0.000000
# 2 -0.004429 0.011218 -0.003599 0.000000 0.000000 0.000000
# 3 0.000777 -0.003599 0.011532 0.000000 0.000000 0.000000
# 4 0.000000 0.000000 0.000000 0.029950 0.000000 0.000000
# 5 0.000000 0.000000 0.000000 0.000000 0.030965 0.000000
# 6 0.000000 0.000000 0.000000 0.000000 0.000000 0.032857
#
#
# Mechanical properties :
#
#
# Convention : Reuss Voigt Hill
#
# Bulk Modulus (GPa) = 49.77103 52.68188 51.22645
# Shear Modulus (GPa) = 33.42957 34.65430 34.04193
#
# Velocity S-wave (km/s) = 3.73449 3.80228 3.76854
# Velocity P-wave (km/s) = 6.27368 6.42298 6.34877
#
# Compressibility (1/GPa) = 0.02009201
#
# Stress axis : x y z
#
# Youngs Moduli (GPa) = 84.42527 89.13969 86.71561
#
# Poissons Ratio (x) = 0.39482 -0.06736
# Poissons Ratio (y) = 0.37394 0.31209
# Poissons Ratio (z) = -0.06558 0.32082
#
# Static dielectric constant tensor:
#      x y z
#    x 1.844460 0.000000 0.000000 
#    y 0.000000 1.884120 0.000000 
#    z 0.000000 0.000000 1.967640 
# 
# From -- ./inp_files/9488.got.cif
#   From: 2010.05.17/outbox.cif.g08.bks.cpg/sg45_5_cif.got.tgz:9488.got - 2010.06.03 19:51:22.
