data_PCOD9377490
_publ_section_title
;
Structure prediction by ZEFSAII (Michael W. Deem and Ramdas Pophale) SiO2 
 PCOD9377490
Probable space group: I B A 2
;
_chemical_formula_sum "Si O2"
_cell_formula_units_Z 64
_cell_length_a 13.978358
_cell_length_b 8.067234
_cell_length_c 26.133711
_cell_angle_alpha 90.000000
_cell_angle_beta 90.000000
_cell_angle_gamma 90.000000
_cell_volume 2947.011954
_symmetry_space_group_name_H-M "I B A 2"
_symmetry_group_IT_number 45
_symmetry_cell_setting 'orthorhombic'
loop_
_space_group_symop_operation_xyz
x,y,z
-x,-y,z
-x,y,1/2+z
x,-y,1/2+z
1/2+x,1/2+y,1/2+z
1/2-x,1/2-y,1/2+z
1/2-x,1/2+y,z
1/2+x,1/2-y,z
loop_
_atom_site_type_symbol
_atom_site_label
_atom_site_fract_x
_atom_site_fract_y
_atom_site_fract_z
Si Si1 0.676139 0.893935 0.915610
Si Si2 0.952092 0.271314 0.993905
Si Si3 0.650286 0.412680 0.993590
Si Si4 0.794148 0.878384 0.762900
Si Si5 0.323861 0.106065 0.189128
Si Si6 0.547908 0.771314 0.110834
Si Si7 0.849714 0.912680 0.111149
Si Si8 0.205852 0.121616 0.341838
O O1 0.590329 0.906408 0.955464
O O2 0.769197 0.875694 0.951969
O O3 0.650642 0.729555 0.883088
O O4 0.710257 0.029446 0.874135
O O5 0.058734 0.204270 0.984471
O O6 0.886697 0.102960 0.990415
O O7 0.945662 0.328979 0.052369
O O8 0.683653 0.385824 0.052369
O O9 0.849358 0.770445 0.721650
O O10 0.250000 0.750000 0.802369
O O11 0.710258 0.970554 0.730603
O O12 0.847603 0.999999 0.802369
O O13 0.409671 0.093592 0.149274
O O14 0.230803 0.124306 0.152769
O O15 0.613303 0.602960 0.114323
O O16 0.441266 0.704270 0.120268
#
# Coordination Sequence:
#
# PCOD9377490 Si02
#       8
#     8   8   8   8   8   8   8   8
#     4  11  17  34  59  80 105 153 187 219 288 344
#     4   9  18  32  52  83 117 146 182 225 269 339
#     4   9  18  32  52  83 117 146 182 223 270 342
#     4   9  20  34  54  80 106 137 187 241 284 324
#     4  11  17  34  59  80 105 153 187 219 288 344
#     4   9  18  32  52  83 117 146 182 225 269 339
#     4   9  18  32  52  83 117 146 182 223 270 342
#     4   9  20  34  54  80 106 137 187 241 284 324
#
# _framework density 21.716911
#
# number of rings (size 3 to 8) (size 9 to 14) (size 15 to 20)
#    0.000    2.500    2.500    2.250    0.000    0.000 
#    0.000    1.250    0.000   25.500    0.000    0.000 
#    0.000    0.000    0.000    0.000    0.000    0.000 
#
# Total GULP energy -178393.440616 kJ/mol
# GULP energy per Si atom -5574.795019 kJ/mol
# Density = 2.166748 g / cm^3
# Si number density = 21.716911 Si / 1000 Ang^3
#
#
#
# Elastic Constant Matrix: (Units=GPa)
#
#
# Indices 1 2 3 4 5 6 
#
# 1 74.6389 17.0730 63.7974 0.0000 0.0000 0.0000
# 2 17.0730 57.5855 43.8772 0.0000 0.0000 0.0000
# 3 63.7974 43.8772 166.4502 0.0000 0.0000 0.0000
# 4 0.0000 0.0000 0.0000 38.7514 0.0000 0.0000
# 5 0.0000 0.0000 0.0000 0.0000 -29.6312 0.0000
# 6 0.0000 0.0000 0.0000 0.0000 0.0000 18.0990
#
#
#
# Elastic Compliance Matrix: (Units=1/GPa)
#
#
# Indices 1 2 3 4 5 6 
#
# 1 0.019926 -0.000111 -0.007608 0.000000 0.000000 0.000000
# 2 -0.000111 0.021731 -0.005686 0.000000 0.000000 0.000000
# 3 -0.007608 -0.005686 0.010423 0.000000 0.000000 0.000000
# 4 0.000000 0.000000 0.000000 0.025806 0.000000 0.000000
# 5 0.000000 0.000000 0.000000 0.000000 -0.033748 0.000000
# 6 0.000000 0.000000 0.000000 0.000000 0.000000 0.055252
#
#
# Mechanical properties :
#
#
# Convention : Reuss Voigt Hill
#
# Bulk Modulus (GPa) = 39.57254 60.90777 50.24015
# Shear Modulus (GPa) = 37.14114 17.03897 27.09005
#
# Velocity S-wave (km/s) = 4.13999 2.80410 3.53571
# Velocity P-wave (km/s) = 6.41204 6.21217 6.31290
#
# Compressibility (1/GPa) = 0.02527005
#
# Stress axis : x y z
#
# Youngs Moduli (GPa) = 50.18511 46.01788 95.94427
#
# Poissons Ratio (x) = 0.00509 0.72996
# Poissons Ratio (y) = 0.00556 0.54553
# Poissons Ratio (z) = 0.38182 0.26165
#
# Static dielectric constant tensor:
#      x y z
#    x 1.747610 0.000000 0.000000 
#    y 0.000000 1.914260 0.000000 
#    z 0.000000 0.000000 1.805190 
# 
# From -- ./inp_files/9772.got.cif
#   From: 2010.05.17/outbox.cif.g08.bks.cpg/sg45_5_cif.got.tgz:9772.got - 2010.06.03 19:51:22.
