data_PCOD9377427
_publ_section_title
;
Structure prediction by ZEFSAII (Michael W. Deem and Ramdas Pophale) SiO2 
 PCOD9377427
Probable space group: I B A 2
;
_chemical_formula_sum "Si O2"
_cell_formula_units_Z 40
_cell_length_a 10.550396
_cell_length_b 8.772662
_cell_length_c 17.255639
_cell_angle_alpha 90.000000
_cell_angle_beta 90.000000
_cell_angle_gamma 90.000000
_cell_volume 1597.096670
_symmetry_space_group_name_H-M "I B A 2"
_symmetry_group_IT_number 45
_symmetry_cell_setting 'orthorhombic'
loop_
_space_group_symop_operation_xyz
x,y,z
-x,-y,z
-x,y,1/2+z
x,-y,1/2+z
1/2+x,1/2+y,1/2+z
1/2-x,1/2-y,1/2+z
1/2-x,1/2+y,z
1/2+x,1/2-y,z
loop_
_atom_site_type_symbol
_atom_site_label
_atom_site_fract_x
_atom_site_fract_y
_atom_site_fract_z
Si Si1 0.892246 0.798838 0.182300
Si Si2 0.741996 0.953008 0.773531
Si Si3 0.433531 0.779791 0.806426
Si Si4 0.091196 0.221048 0.447613
Si Si5 0.162143 0.881086 0.506609
O O1 0.815331 0.646082 0.203330
O O2 0.866936 0.865789 0.098063
O O3 0.030188 0.754205 0.216259
O O4 0.839628 0.928782 0.237869
O O5 0.826084 0.843532 0.827191
O O6 0.633071 0.056848 0.811644
O O7 0.559187 0.752556 0.857359
O O8 0.196325 0.329124 0.485068
O O9 0.946569 0.235392 0.477062
O O10 0.133985 0.049445 0.471710
#
# Coordination Sequence:
#
# PCOD9377427 Si02
#       5
#     8   8   8   8   8
#     4  11  24  45  78 109 154 207 266 335 396 490
#     4  10  25  44  77 113 153 199 279 329 400 476
#     4  11  26  46  77 115 160 209 273 340 405 485
#     4  11  29  51  75 114 164 207 266 333 413 485
#     4  11  28  50  77 115 159 213 264 327 416 484
#
# _framework density 25.045449999999999
#
# number of rings (size 3 to 8) (size 9 to 14) (size 15 to 20)
#    0.000    1.200    0.000    2.400   22.400    0.800 
#    7.200    0.000    0.000    0.000    0.000    0.000 
#    0.000    0.000    0.000    0.000    0.000    0.000 
#
# Total GULP energy -111834.999892 kJ/mol
# GULP energy per Si atom -5591.749995 kJ/mol
# Density = 2.498845 g / cm^3
# Si number density = 25.045450 Si / 1000 Ang^3
#
#
#
# Elastic Constant Matrix: (Units=GPa)
#
#
# Indices 1 2 3 4 5 6 
#
# 1 154.0891 51.6759 45.1313 0.0000 0.0000 0.0000
# 2 51.6759 157.2066 52.1472 0.0000 0.0000 0.0000
# 3 45.1313 52.1472 120.8515 0.0000 0.0000 0.0000
# 4 0.0000 0.0000 0.0000 23.9473 0.0000 0.0000
# 5 0.0000 0.0000 0.0000 0.0000 29.0660 0.0000
# 6 0.0000 0.0000 0.0000 0.0000 0.0000 57.2993
#
#
#
# Elastic Compliance Matrix: (Units=1/GPa)
#
#
# Indices 1 2 3 4 5 6 
#
# 1 0.007720 -0.001845 -0.002087 0.000000 0.000000 0.000000
# 2 -0.001845 0.007865 -0.002704 0.000000 0.000000 0.000000
# 3 -0.002087 -0.002704 0.010221 0.000000 0.000000 0.000000
# 4 0.000000 0.000000 0.000000 0.041758 0.000000 0.000000
# 5 0.000000 0.000000 0.000000 0.000000 0.034404 0.000000
# 6 0.000000 0.000000 0.000000 0.000000 0.000000 0.017452
#
#
# Mechanical properties :
#
#
# Convention : Reuss Voigt Hill
#
# Bulk Modulus (GPa) = 79.79345 81.11732 80.45538
# Shear Modulus (GPa) = 36.53075 40.94204 38.73639
#
# Velocity S-wave (km/s) = 3.82328 4.04754 3.93701
# Velocity P-wave (km/s) = 7.17067 7.36898 7.27050
#
# Compressibility (1/GPa) = 0.01253236
#
# Stress axis : x y z
#
# Youngs Moduli (GPa) = 129.53711 127.14916 97.83952
#
# Poissons Ratio (x) = 0.23465 0.20415
# Poissons Ratio (y) = 0.23905 0.26460
# Poissons Ratio (z) = 0.27029 0.34387
#
# Static dielectric constant tensor:
#      x y z
#    x 2.039510 0.000000 0.000000 
#    y 0.000000 1.965040 0.000000 
#    z 0.000000 0.000000 2.155120 
# 
# From -- ./inp_files/7841.got.cif
#   From: 2010.05.17/outbox.cif.g08.bks.cpg/sg45_4_cif.got.tgz:7841.got - 2010.06.03 19:51:22.
