data_PCOD9377152
_publ_section_title
;
Structure prediction by ZEFSAII (Michael W. Deem and Ramdas Pophale) SiO2 
 PCOD9377152
Probable space group: I B A 2
;
_chemical_formula_sum "Si O2"
_cell_formula_units_Z 56
_cell_length_a 15.890888
_cell_length_b 13.635467
_cell_length_c 9.237701
_cell_angle_alpha 90.000000
_cell_angle_beta 90.000000
_cell_angle_gamma 90.000000
_cell_volume 2001.622087
_symmetry_space_group_name_H-M "I B A 2"
_symmetry_group_IT_number 45
_symmetry_cell_setting 'orthorhombic'
loop_
_space_group_symop_operation_xyz
x,y,z
-x,-y,z
-x,y,1/2+z
x,-y,1/2+z
1/2+x,1/2+y,1/2+z
1/2-x,1/2-y,1/2+z
1/2-x,1/2+y,z
1/2+x,1/2-y,z
loop_
_atom_site_type_symbol
_atom_site_label
_atom_site_fract_x
_atom_site_fract_y
_atom_site_fract_z
Si Si1 0.067512 0.906802 0.381230
Si Si2 0.160990 0.972559 0.649148
Si Si3 0.385790 0.871319 0.147903
Si Si4 0.670229 0.223889 0.873823
Si Si5 0.104470 0.178597 0.346036
Si Si6 0.710687 0.912244 0.906186
Si Si7 0.077265 0.665868 0.089612
O O1 0.083548 0.953168 0.538071
O O2 0.090338 0.793629 0.407136
O O3 0.971259 0.900898 0.332768
O O4 0.132926 0.938109 0.252866
O O5 0.177741 0.888267 0.772269
O O6 0.228999 0.965789 0.519926
O O7 0.395818 0.768853 0.236926
O O8 0.323275 0.937911 0.246491
O O9 0.485798 0.880765 0.119530
O O10 0.333447 0.852579 0.002683
O O11 0.640256 0.178783 0.723915
O O12 0.747532 0.301140 0.890392
O O13 0.088043 0.229241 0.502371
O O14 0.621581 0.909577 0.984445
#
# Coordination Sequence:
#
# PCOD9377152 Si02
#       7
#     8   8   8   8   8   8   8
#     4  11  23  37  57  82 136 180 233 274 331 423
#     4  11  25  41  56  92 132 193 238 279 343 426
#     4  11  19  38  61  89 128 170 225 297 344 419
#     4  11  20  36  56  91 121 171 223 277 354 406
#     4  11  20  37  57  88 136 176 233 273 335 422
#     4  10  23  39  57  88 132 170 223 289 357 423
#     4  11  21  34  64  92 124 169 222 296 355 416
#
# _framework density 27.977309999999999
#
# number of rings (size 3 to 8) (size 9 to 14) (size 15 to 20)
#    0.000    1.143    5.714    2.143    4.000    1.143 
#    0.000    0.000    0.000    0.000    0.000   12.000 
#    0.000    0.000    0.000    0.000    0.000    0.000 
#
# Total GULP energy -156128.319944 kJ/mol
# GULP energy per Si atom -5576.011427 kJ/mol
# Density = 2.791363 g / cm^3
# Si number density = 27.977310 Si / 1000 Ang^3
#
#
#
# Elastic Constant Matrix: (Units=GPa)
#
#
# Indices 1 2 3 4 5 6 
#
# 1 134.6785 11.9531 62.2782 0.0000 0.0000 0.0000
# 2 11.9531 84.3856 58.9977 0.0000 0.0000 0.0000
# 3 62.2782 58.9977 231.3763 0.0000 0.0000 0.0000
# 4 0.0000 0.0000 0.0000 42.3385 0.0000 0.0000
# 5 0.0000 0.0000 0.0000 0.0000 53.0107 0.0000
# 6 0.0000 0.0000 0.0000 0.0000 0.0000 21.0828
#
#
#
# Elastic Compliance Matrix: (Units=1/GPa)
#
#
# Indices 1 2 3 4 5 6 
#
# 1 0.008497 0.000481 -0.002410 0.000000 0.000000 0.000000
# 2 0.000481 0.014449 -0.003814 0.000000 0.000000 0.000000
# 3 -0.002410 -0.003814 0.005943 0.000000 0.000000 0.000000
# 4 0.000000 0.000000 0.000000 0.023619 0.000000 0.000000
# 5 0.000000 0.000000 0.000000 0.000000 0.018864 0.000000
# 6 0.000000 0.000000 0.000000 0.000000 0.000000 0.047432
#
#
# Mechanical properties :
#
#
# Convention : Reuss Voigt Hill
#
# Bulk Modulus (GPa) = 57.45870 79.65541 68.55705
# Shear Modulus (GPa) = 36.74058 44.43381 40.58720
#
# Velocity S-wave (km/s) = 3.62778 3.98956 3.81296
# Velocity P-wave (km/s) = 6.17494 7.05375 6.62892
#
# Compressibility (1/GPa) = 0.01740380
#
# Stress axis : x y z
#
# Youngs Moduli (GPa) = 117.69306 69.21118 168.26502
#
# Poissons Ratio (x) = -0.03330 0.40547
# Poissons Ratio (y) = -0.05663 0.64171
# Poissons Ratio (z) = 0.28360 0.26395
#
# Static dielectric constant tensor:
#      x y z
#    x 2.565290 0.000000 0.000000 
#    y 0.000000 2.232440 0.000000 
#    z 0.000000 0.000000 2.247270 
# 
# From -- ./inp_files/1822.got.cif
#   From: 2010.05.17/outbox.cif.g08.bks.cpg/sg45_1_cif.got.tgz:1822.got - 2010.06.03 19:51:22.
