data_PCOD9377294
_publ_section_title
;
Structure prediction by ZEFSAII (Michael W. Deem and Ramdas Pophale) SiO2 
 PCOD9377294
Probable space group: I B A 2
;
_chemical_formula_sum "Si O2"
_cell_formula_units_Z 56
_cell_length_a 28.670719
_cell_length_b 5.627044
_cell_length_c 14.432732
_cell_angle_alpha 90.000000
_cell_angle_beta 90.000000
_cell_angle_gamma 90.000000
_cell_volume 2328.452821
_symmetry_space_group_name_H-M "I B A 2"
_symmetry_group_IT_number 45
_symmetry_cell_setting 'orthorhombic'
loop_
_space_group_symop_operation_xyz
x,y,z
-x,-y,z
-x,y,1/2+z
x,-y,1/2+z
1/2+x,1/2+y,1/2+z
1/2-x,1/2-y,1/2+z
1/2-x,1/2+y,z
1/2+x,1/2-y,z
loop_
_atom_site_type_symbol
_atom_site_label
_atom_site_fract_x
_atom_site_fract_y
_atom_site_fract_z
Si Si1 0.079027 0.547191 0.451190
Si Si2 0.136330 0.068628 0.881311
Si Si3 0.728916 0.138882 0.640082
Si Si4 0.457810 0.690368 0.315971
Si Si5 0.048135 0.139678 0.115996
Si Si6 0.868265 0.171377 0.074115
Si Si7 0.263471 0.424095 0.848726
O O1 0.120059 0.659187 0.387902
O O2 0.043955 0.402793 0.388199
O O3 0.055081 0.741435 0.516424
O O4 0.102770 0.377036 0.525126
O O5 0.090607 0.940352 0.842397
O O6 0.182566 0.985688 0.830554
O O7 0.146942 0.994757 0.988047
O O8 0.758250 0.371763 0.605086
O O9 0.675789 0.215632 0.623635
O O10 0.738577 0.112329 0.749932
O O11 0.500000 0.500000 0.323879
O O12 0.456031 0.787476 0.210785
O O13 0.093813 0.976161 0.131608
O O14 0.000000 0.000000 0.110236
O O15 0.242300 0.663357 0.895380
#
# Coordination Sequence:
#
# PCOD9377294 Si02
#       7
#     8   8   8   8   8   8   8
#     4  10  24  46  74 105 148 200 251 321 403 474
#     4  10  24  42  67 103 147 192 251 320 392 473
#     4  10  24  43  68 101 140 194 255 318 389 461
#     4  10  24  45  74 112 148 196 256 320 397 484
#     4  10  24  45  74 111 151 195 258 322 396 483
#     4  10  24  42  68 104 144 195 248 318 391 471
#     4  10  24  42  67 100 140 194 253 315 387 460
#
# _framework density 24.050307
#
# number of rings (size 3 to 8) (size 9 to 14) (size 15 to 20)
#    0.000    2.000    0.000    0.000   12.000   10.857 
#    0.000    2.857    0.000    0.857    0.000    0.000 
#    0.000    0.000    0.000    0.000    0.000    0.000 
#
# Total GULP energy -156449.941589 kJ/mol
# GULP energy per Si atom -5587.497914 kJ/mol
# Density = 2.399557 g / cm^3
# Si number density = 24.050307 Si / 1000 Ang^3
#
#
#
# Elastic Constant Matrix: (Units=GPa)
#
#
# Indices 1 2 3 4 5 6 
#
# 1 124.8586 34.8172 31.5028 0.0000 0.0000 0.0000
# 2 34.8172 125.2611 29.8988 0.0000 0.0000 0.0000
# 3 31.5028 29.8988 70.2944 0.0000 0.0000 0.0000
# 4 0.0000 0.0000 0.0000 5.0782 0.0000 0.0000
# 5 0.0000 0.0000 0.0000 0.0000 26.2630 0.0000
# 6 0.0000 0.0000 0.0000 0.0000 0.0000 30.4430
#
#
#
# Elastic Compliance Matrix: (Units=1/GPa)
#
#
# Indices 1 2 3 4 5 6 
#
# 1 0.009375 -0.001784 -0.003443 0.000000 0.000000 0.000000
# 2 -0.001784 0.009225 -0.003124 0.000000 0.000000 0.000000
# 3 -0.003443 -0.003124 0.017098 0.000000 0.000000 0.000000
# 4 0.000000 0.000000 0.000000 0.196919 0.000000 0.000000
# 5 0.000000 0.000000 0.000000 0.000000 0.038076 0.000000
# 6 0.000000 0.000000 0.000000 0.000000 0.000000 0.032848
#
#
# Mechanical properties :
#
#
# Convention : Reuss Voigt Hill
#
# Bulk Modulus (GPa) = 52.64337 56.98356 54.81346
# Shear Modulus (GPa) = 15.31042 27.30318 21.30680
#
# Velocity S-wave (km/s) = 2.52583 3.37301 2.97968
# Velocity P-wave (km/s) = 5.51750 6.23815 5.88886
#
# Compressibility (1/GPa) = 0.01899575
#
# Stress axis : x y z
#
# Youngs Moduli (GPa) = 106.66449 108.40167 58.48793
#
# Poissons Ratio (x) = 0.19341 0.20135
# Poissons Ratio (y) = 0.19031 0.18272
# Poissons Ratio (z) = 0.36721 0.33866
#
# Static dielectric constant tensor:
#      x y z
#    x 1.885230 0.000000 0.000000 
#    y 0.000000 2.021400 0.000000 
#    z 0.000000 0.000000 1.925740 
# 
# From -- ./inp_files/7167.got.cif
#   From: 2010.05.17/outbox.cif.g08.bks.cpg/sg45_4_cif.got.tgz:7167.got - 2010.06.03 19:51:22.
