data_PCOD9377455
_publ_section_title
;
Structure prediction by ZEFSAII (Michael W. Deem and Ramdas Pophale) SiO2 
 PCOD9377455
Probable space group: I B A 2
;
_chemical_formula_sum "Si O2"
_cell_formula_units_Z 56
_cell_length_a 10.002501
_cell_length_b 21.836389
_cell_length_c 10.347271
_cell_angle_alpha 90.000000
_cell_angle_beta 90.000000
_cell_angle_gamma 90.000000
_cell_volume 2260.035440
_symmetry_space_group_name_H-M "I B A 2"
_symmetry_group_IT_number 45
_symmetry_cell_setting 'orthorhombic'
loop_
_space_group_symop_operation_xyz
x,y,z
-x,-y,z
-x,y,1/2+z
x,-y,1/2+z
1/2+x,1/2+y,1/2+z
1/2-x,1/2-y,1/2+z
1/2-x,1/2+y,z
1/2+x,1/2-y,z
loop_
_atom_site_type_symbol
_atom_site_label
_atom_site_fract_x
_atom_site_fract_y
_atom_site_fract_z
Si Si1 0.500000 0.000000 0.533670
Si Si2 0.718724 0.424877 0.267868
Si Si3 0.675538 0.350963 0.675978
Si Si4 0.637547 0.051876 0.276737
Si Si5 0.431052 0.607993 0.040856
Si Si6 0.696736 0.815403 0.424112
Si Si7 0.000000 0.000000 0.399561
Si Si8 0.509050 0.719200 0.854998
O O1 0.418344 0.960942 0.422015
O O2 0.549226 0.948772 0.642115
O O3 0.786124 0.488955 0.244147
O O4 0.683164 0.383375 0.146184
O O5 0.798629 0.384025 0.368606
O O6 0.576312 0.447408 0.322574
O O7 0.766852 0.389173 0.773596
O O8 0.580396 0.399537 0.601660
O O9 0.771779 0.318040 0.575078
O O10 0.564681 0.303139 0.725463
O O11 0.400088 0.541440 0.981612
O O12 0.453265 0.666102 0.950739
O O13 0.559714 0.782289 0.392768
O O14 0.830493 0.783126 0.362532
#
# Coordination Sequence:
#
# PCOD9377455 Si02
#       8
#     4   8   8   8   8   8   4   8
#     4  10  26  46  60  96 154 190 234 282 360 474
#     4  12  23  38  71 103 138 178 231 303 370 440
#     4  11  22  45  73 100 140 181 240 302 367 432
#     4  11  24  45  72  99 146 188 240 306 377 449
#     4  11  22  39  68 110 137 175 229 302 373 423
#     4  11  26  46  69 105 147 187 253 297 368 441
#     4  12  20  38  68 112 144 168 224 306 384 426
#     4  11  25  46  69 101 143 192 244 305 355 435
#
# _framework density 24.778371
#
# number of rings (size 3 to 8) (size 9 to 14) (size 15 to 20)
#    0.000    0.857    4.286    3.857    6.000    0.000 
#    7.714    0.000    0.000    0.000    0.000    0.000 
#    0.000    0.000    0.000    0.000    0.000    0.000 
#
# Total GULP energy -156233.409669 kJ/mol
# GULP energy per Si atom -5579.764631 kJ/mol
# Density = 2.472197 g / cm^3
# Si number density = 24.778371 Si / 1000 Ang^3
#
#
#
# Elastic Constant Matrix: (Units=GPa)
#
#
# Indices 1 2 3 4 5 6 
#
# 1 44.5224 -0.4670 -3.8358 0.0000 0.0000 0.0000
# 2 -0.4670 48.6845 -15.8517 0.0002 0.0001 0.0000
# 3 -3.8358 -15.8517 66.2702 -0.0002 -0.0006 0.0000
# 4 0.0000 0.0002 -0.0002 28.7132 -0.0001 0.0000
# 5 0.0000 0.0001 -0.0006 -0.0001 -5.3501 0.0001
# 6 0.0000 0.0000 0.0000 0.0000 0.0001 44.5225
#
#
#
# Elastic Compliance Matrix: (Units=1/GPa)
#
#
# Indices 1 2 3 4 5 6 
#
# 1 0.022595 0.000697 0.001475 0.000000 0.000000 0.000000
# 2 0.000697 0.022297 0.005374 0.000000 0.000000 0.000000
# 3 0.001475 0.005374 0.016460 0.000000 -0.000002 0.000000
# 4 0.000000 0.000000 0.000000 0.034827 -0.000001 0.000000
# 5 0.000000 0.000000 -0.000002 -0.000001 -0.186912 0.000000
# 6 0.000000 0.000000 0.000000 0.000000 0.000000 0.022461
#
#
# Mechanical properties :
#
#
# Convention : Reuss Voigt Hill
#
# Bulk Modulus (GPa) = 13.08177 13.24089 13.16133
# Shear Modulus (GPa) = -86.38407 25.55256 -30.41575
#
# Velocity S-wave (km/s) = -5.91087 3.21478 -3.50739
# Velocity P-wave (km/s) = 6.42600 4.37437 3.32854
#
# Compressibility (1/GPa) = 0.07644227
#
# Stress axis : x y z
#
# Youngs Moduli (GPa) = 44.25771 44.84952 60.75162
#
# Poissons Ratio (x) = -0.03125 -0.08958
# Poissons Ratio (y) = -0.03084 -0.32646
# Poissons Ratio (z) = -0.06526 -0.24101
#
# Static dielectric constant tensor:
#      x y z
#    x 2.344580 0.000000 0.000000 
#    y 0.000000 1.913800 0.000000 
#    z 0.000000 0.000000 2.169920 
# 
# From -- ./inp_files/3810.got.cif
#   From: 2010.05.17/outbox.cif.g08.bks.cpg/sg45_2_cif.got.tgz:3810.got - 2010.06.03 19:51:22.
