data_PCOD9377658
_publ_section_title
;
Structure prediction by ZEFSAII (Michael W. Deem and Ramdas Pophale) SiO2 
 PCOD9377658
Probable space group: I B A 2
;
_chemical_formula_sum "Si O2"
_cell_formula_units_Z 56
_cell_length_a 16.924391
_cell_length_b 13.633214
_cell_length_c 11.244293
_cell_angle_alpha 90.000000
_cell_angle_beta 90.000000
_cell_angle_gamma 90.000000
_cell_volume 2594.438951
_symmetry_space_group_name_H-M "I B A 2"
_symmetry_group_IT_number 45
_symmetry_cell_setting 'orthorhombic'
loop_
_space_group_symop_operation_xyz
x,y,z
-x,-y,z
-x,y,1/2+z
x,-y,1/2+z
1/2+x,1/2+y,1/2+z
1/2-x,1/2-y,1/2+z
1/2-x,1/2+y,z
1/2+x,1/2-y,z
loop_
_atom_site_type_symbol
_atom_site_label
_atom_site_fract_x
_atom_site_fract_y
_atom_site_fract_z
Si Si1 0.807906 0.290022 0.777890
Si Si2 0.846461 0.909880 0.831757
Si Si3 0.347221 0.934845 0.997069
Si Si4 0.466390 0.609936 0.630062
Si Si5 0.091472 0.471869 0.252423
Si Si6 0.173395 0.890091 0.941642
Si Si7 0.621133 0.716245 0.557765
O O1 0.733673 0.362425 0.782011
O O2 0.885829 0.357863 0.773440
O O3 0.807398 0.214897 0.885594
O O4 0.812279 0.226105 0.658648
O O5 0.919949 0.876975 0.752710
O O6 0.843902 0.027266 0.841939
O O7 0.857219 0.865629 0.962414
O O8 0.377986 0.990043 0.116363
O O9 0.381957 0.824486 0.001022
O O10 0.252580 0.927469 0.005881
O O11 0.368232 0.977213 0.867303
O O12 0.500000 0.500000 0.625718
O O13 0.401309 0.618666 0.526825
O O14 0.537909 0.684617 0.613268
O O15 0.000000 0.500000 0.255869
#
# Coordination Sequence:
#
# PCOD9377658 Si02
#       7
#     8   8   8   8   8   8   8
#     4  11  26  50  74 105 144 196 247 297 363 441
#     4  12  26  48  73 106 147 195 243 300 367 436
#     4  11  25  48  74 107 147 198 246 301 369 444
#     4  12  27  44  73 108 152 190 239 304 369 430
#     4  11  25  47  74 108 152 191 245 306 370 437
#     4  12  26  47  78 104 148 192 248 296 368 444
#     4  11  26  46  70 109 148 185 248 295 367 436
#
# _framework density 21.584627999999999
#
# number of rings (size 3 to 8) (size 9 to 14) (size 15 to 20)
#    0.000    0.571    4.286    3.000    6.000    1.143 
#    2.571    0.000    0.000    0.000    0.000    0.000 
#    0.000    0.000    0.000    0.000    0.000    0.000 
#
# Total GULP energy -156579.845348 kJ/mol
# GULP energy per Si atom -5592.137334 kJ/mol
# Density = 2.153550 g / cm^3
# Si number density = 21.584628 Si / 1000 Ang^3
#
#
#
# Elastic Constant Matrix: (Units=GPa)
#
#
# Indices 1 2 3 4 5 6 
#
# 1 42.2716 -27.5037 -36.9897 0.0000 0.0000 0.0000
# 2 -27.5037 38.2231 -29.5827 0.0000 0.0000 0.0000
# 3 -36.9897 -29.5827 -5.0728 0.0000 0.0000 0.0000
# 4 0.0000 0.0000 0.0000 40.5382 0.0000 0.0000
# 5 0.0000 0.0000 0.0000 0.0000 68.1898 0.0000
# 6 0.0000 0.0000 0.0000 0.0000 0.0000 44.3094
#
#
#
# Elastic Compliance Matrix: (Units=1/GPa)
#
#
# Indices 1 2 3 4 5 6 
#
# 1 0.006949 -0.006206 -0.014479 0.000000 0.000000 0.000000
# 2 -0.006206 0.010288 -0.014741 0.000000 0.000000 0.000000
# 3 -0.014479 -0.014741 -0.005586 0.000000 0.000000 0.000000
# 4 0.000000 0.000000 0.000000 0.024668 0.000000 0.000000
# 5 0.000000 0.000000 0.000000 0.000000 0.014665 0.000000
# 6 0.000000 0.000000 0.000000 0.000000 0.000000 0.022569
#
#
# Mechanical properties :
#
#
# Convention : Reuss Voigt Hill
#
# Bulk Modulus (GPa) = -16.89137 -12.52558 -14.70848
# Shear Modulus (GPa) = 40.10546 41.90735 41.00640
#
# Velocity S-wave (km/s) = 4.31519 4.41107 4.36339
# Velocity P-wave (km/s) = 4.12131 4.48640 4.30772
#
# Compressibility (1/GPa) = -0.05920183
#
# Stress axis : x y z
#
# Youngs Moduli (GPa) = 143.90850 97.20435 -179.03315
#
# Poissons Ratio (x) = 0.60324 -2.59223
# Poissons Ratio (y) = 0.89308 -2.63921
# Poissons Ratio (z) = 2.08366 1.43293
#
# Static dielectric constant tensor:
#      x y z
#    x 1.753660 0.000000 0.000000 
#    y 0.000000 1.787530 0.000000 
#    z 0.000000 0.000000 1.828900 
# 
# From -- ./inp_files/4129.got.cif
#   From: 2010.05.17/outbox.cif.g08.bks.cpg/sg45_3_cif.got.tgz:4129.got - 2010.06.03 19:51:22.
