data_PCOD9377476
_publ_section_title
;
Structure prediction by ZEFSAII (Michael W. Deem and Ramdas Pophale) SiO2 
 PCOD9377476
Probable space group: I B A 2
;
_chemical_formula_sum "Si O2"
_cell_formula_units_Z 32
_cell_length_a 10.094300
_cell_length_b 7.650301
_cell_length_c 14.434625
_cell_angle_alpha 90.000000
_cell_angle_beta 90.000000
_cell_angle_gamma 90.000000
_cell_volume 1114.705737
_symmetry_space_group_name_H-M "I B A 2"
_symmetry_group_IT_number 45
_symmetry_cell_setting 'orthorhombic'
loop_
_space_group_symop_operation_xyz
x,y,z
-x,-y,z
-x,y,1/2+z
x,-y,1/2+z
1/2+x,1/2+y,1/2+z
1/2-x,1/2-y,1/2+z
1/2-x,1/2+y,z
1/2+x,1/2-y,z
loop_
_atom_site_type_symbol
_atom_site_label
_atom_site_fract_x
_atom_site_fract_y
_atom_site_fract_z
Si Si1 0.338598 0.333948 0.287060
Si Si2 0.305969 0.952936 0.647868
Si Si3 0.932341 0.692361 0.400627
Si Si4 0.060410 0.814517 0.587102
O O1 0.288483 0.505580 0.235929
O O2 0.215098 0.299465 0.358364
O O3 0.471717 0.318867 0.343332
O O4 0.373794 0.212596 0.196105
O O5 0.387250 0.128697 0.630615
O O6 0.210134 0.893536 0.565162
O O7 0.000000 0.500000 0.388136
O O8 0.964166 0.749171 0.505347
O O9 0.000000 0.000000 0.620187
#
# Coordination Sequence:
#
# PCOD9377476 Si02
#       4
#     8   8   8   8
#     4  11  26  51  82 114 163 217 280 339 418 498
#     4  10  26  51  79 116 157 217 281 339 412 502
#     4  12  29  50  80 121 168 219 274 349 422 506
#     4  11  29  49  81 116 165 215 279 347 427 491
#
# _framework density 28.707128000000001
#
# number of rings (size 3 to 8) (size 9 to 14) (size 15 to 20)
#    0.000    1.000    2.500    0.000   17.500    2.000 
#    0.000    0.000    0.000    0.000    0.000    0.000 
#    0.000    0.000    0.000    0.000    0.000    0.000 
#
# Total GULP energy -89286.453797 kJ/mol
# GULP energy per Si atom -5580.403362 kJ/mol
# Density = 2.864179 g / cm^3
# Si number density = 28.707128 Si / 1000 Ang^3
#
#
#
# Elastic Constant Matrix: (Units=GPa)
#
#
# Indices 1 2 3 4 5 6 
#
# 1 158.4449 26.1047 29.8965 0.0000 0.0000 0.0000
# 2 26.1047 233.8756 11.4114 0.0000 0.0000 0.0000
# 3 29.8965 11.4114 96.2624 0.0000 0.0000 0.0000
# 4 0.0000 0.0000 0.0000 48.6905 0.0000 0.0000
# 5 0.0000 0.0000 0.0000 0.0000 60.0218 0.0000
# 6 0.0000 0.0000 0.0000 0.0000 0.0000 -4.6290
#
#
#
# Elastic Compliance Matrix: (Units=1/GPa)
#
#
# Indices 1 2 3 4 5 6 
#
# 1 0.006804 -0.000660 -0.002035 0.000000 0.000000 0.000000
# 2 -0.000660 0.004365 -0.000312 0.000000 0.000000 0.000000
# 3 -0.002035 -0.000312 0.011057 0.000000 0.000000 0.000000
# 4 0.000000 0.000000 0.000000 0.020538 0.000000 0.000000
# 5 0.000000 0.000000 0.000000 0.000000 0.016661 0.000000
# 6 0.000000 0.000000 0.000000 0.000000 0.000000 -0.216032
#
#
# Mechanical properties :
#
#
# Convention : Reuss Voigt Hill
#
# Bulk Modulus (GPa) = 61.68589 69.26756 65.47673
# Shear Modulus (GPa) = -34.43799 48.89468 7.22835
#
# Velocity S-wave (km/s) = -3.46733 4.13149 1.58853
# Velocity P-wave (km/s) = 2.34624 6.85131 5.12080
#
# Compressibility (1/GPa) = 0.01621116
#
# Stress axis : x y z
#
# Youngs Moduli (GPa) = 146.97084 229.11055 90.43806
#
# Poissons Ratio (x) = 0.15125 0.18403
# Poissons Ratio (y) = 0.09703 0.02825
# Poissons Ratio (z) = 0.29907 0.07157
#
# Static dielectric constant tensor:
#      x y z
#    x 2.344320 0.000000 0.000000 
#    y 0.000000 2.263220 0.000000 
#    z 0.000000 0.000000 2.326850 
# 
# From -- ./inp_files/5364.got.cif
#   From: 2010.05.17/outbox.cif.g08.bks.cpg/sg45_3_cif.got.tgz:5364.got - 2010.06.03 19:51:22.
