data_PCOD9377992
_publ_section_title
;
Structure prediction by ZEFSAII (Michael W. Deem and Ramdas Pophale) SiO2 
 PCOD9377992
Probable space group: I M A 2
;
_chemical_formula_sum "Si O2"
_cell_formula_units_Z 64
_cell_length_a 9.094729
_cell_length_b 18.814130
_cell_length_c 22.006510
_cell_angle_alpha 90.000000
_cell_angle_beta 90.000000
_cell_angle_gamma 90.000000
_cell_volume 3765.521024
_symmetry_space_group_name_H-M "I M A 2"
_symmetry_group_IT_number 46
_symmetry_cell_setting 'orthorhombic'
loop_
_space_group_symop_operation_xyz
x,y,z
-x,-y,z
1/2-x,y,z
1/2+x,-y,z
1/2+x,1/2+y,1/2+z
1/2-x,1/2-y,1/2+z
-x,1/2+y,1/2+z
x,1/2-y,1/2+z
loop_
_atom_site_type_symbol
_atom_site_label
_atom_site_fract_x
_atom_site_fract_y
_atom_site_fract_z
Si Si1 0.925620 0.215470 0.104550
Si Si2 0.086636 0.438108 0.105297
Si Si3 0.426596 0.075906 0.796676
Si Si4 0.075399 0.074215 0.058727
Si Si5 0.427779 0.073190 0.465886
Si Si6 0.923852 0.860212 0.927859
Si Si7 0.425719 0.780438 0.472169
Si Si8 0.418015 0.189783 0.697816
O O1 0.750000 0.208512 0.105503
O O2 0.003028 0.140052 0.093865
O O3 0.983436 0.249969 0.167042
O O4 0.962240 0.262289 0.043526
O O5 0.250000 0.465968 0.097265
O O6 0.089234 0.368115 0.144054
O O7 0.000000 0.500000 0.138050
O O8 0.029303 0.426136 0.037673
O O9 0.250000 0.069121 0.787609
O O10 0.456384 0.097961 0.866187
O O11 0.473332 0.142744 0.754484
O O12 0.500000 0.000000 0.783425
O O13 0.250000 0.071864 0.069176
O O14 0.050615 0.091655 0.987290
O O15 0.000000 0.000000 0.074239
O O16 0.250000 0.072124 0.459733
O O17 0.494641 0.148990 0.446650
O O18 0.500000 0.000000 0.441048
O O19 0.750000 0.841144 0.927410
O O20 0.018115 0.788913 0.936258
O O21 0.250000 0.788627 0.468246
O O22 0.250000 0.214345 0.710254
#
# Coordination Sequence:
#
# PCOD9377992 Si02
#       8
#     8   8   8   8   8   8   8   8
#     4  10  20  32  48  71  98 128 166 207 250 302
#     4   9  17  26  39  59  87 124 161 194 232 276
#     4  10  21  35  52  74 102 137 177 214 248 291
#     4  10  19  32  52  75 102 131 162 204 255 305
#     4  10  18  28  43  65  95 128 161 199 243 295
#     4   9  19  34  51  72  99 134 171 210 254 297
#     4  10  19  31  48  71  96 127 167 211 256 302
#     4  10  19  32  47  67  97 133 169 205 246 290
#
# _framework density 16.996319
#
# number of rings (size 3 to 8) (size 9 to 14) (size 15 to 20)
#    0.000    2.250    1.250    2.250    0.000    3.500 
#    0.000    0.000    0.000    0.000    0.000    0.875 
#    0.000    0.000    0.000    0.000    0.000    0.000 
#
# Total GULP energy -178252.139003 kJ/mol
# GULP energy per Si atom -5570.379344 kJ/mol
# Density = 1.695763 g / cm^3
# Si number density = 16.996319 Si / 1000 Ang^3
#
#
#
# Elastic Constant Matrix: (Units=GPa)
#
#
# Indices 1 2 3 4 5 6 
#
# 1 54.4695 65.5323 21.2424 0.0000 0.0000 0.0000
# 2 65.5323 130.0226 27.9316 0.0000 0.0000 0.0000
# 3 21.2424 27.9316 57.2401 0.0000 0.0000 0.0000
# 4 0.0000 0.0000 0.0000 15.5098 0.0000 0.0000
# 5 0.0000 0.0000 0.0000 0.0000 19.5470 0.0000
# 6 0.0000 0.0000 0.0000 0.0000 0.0000 34.4956
#
#
#
# Elastic Compliance Matrix: (Units=1/GPa)
#
#
# Indices 1 2 3 4 5 6 
#
# 1 0.048926 -0.023189 -0.006841 0.000000 0.000000 0.000000
# 2 -0.023189 0.019583 -0.000950 0.000000 0.000000 0.000000
# 3 -0.006841 -0.000950 0.020473 0.000000 0.000000 0.000000
# 4 0.000000 0.000000 0.000000 0.064475 0.000000 0.000000
# 5 0.000000 0.000000 0.000000 0.000000 0.051159 0.000000
# 6 0.000000 0.000000 0.000000 0.000000 0.000000 0.028989
#
#
# Mechanical properties :
#
#
# Convention : Reuss Voigt Hill
#
# Bulk Modulus (GPa) = 37.00924 52.34940 44.67932
# Shear Modulus (GPa) = 16.41642 22.37886 19.39764
#
# Velocity S-wave (km/s) = 3.11123 3.63256 3.38196
# Velocity P-wave (km/s) = 5.89309 6.96141 6.44941
#
# Compressibility (1/GPa) = 0.02702028
#
# Stress axis : x y z
#
# Youngs Moduli (GPa) = 20.43895 51.06549 48.84569
#
# Poissons Ratio (x) = 1.18418 0.33416
# Poissons Ratio (y) = 0.47397 0.04640
# Poissons Ratio (z) = 0.13983 0.04851
#
# Static dielectric constant tensor:
#      x y z
#    x 1.576810 0.000000 0.000000 
#    y 0.000000 1.598590 0.000000 
#    z 0.000000 0.000000 1.577560 
# 
# From -- ./inp_files/21341.got.cif
#   From: 2010.05.17/outbox.cif.g08.bks.cpg/sg46_11_cif.got.tgz:21341.got - 2010.06.03 19:58:25.
