data_PCOD9377594
_publ_section_title
;
Structure prediction by ZEFSAII (Michael W. Deem and Ramdas Pophale) SiO2 
 PCOD9377594
Probable space group: I B A 2
;
_chemical_formula_sum "Si O2"
_cell_formula_units_Z 48
_cell_length_a 17.743370
_cell_length_b 14.440456
_cell_length_c 8.440089
_cell_angle_alpha 90.000000
_cell_angle_beta 90.000000
_cell_angle_gamma 90.000000
_cell_volume 2162.539470
_symmetry_space_group_name_H-M "I B A 2"
_symmetry_group_IT_number 45
_symmetry_cell_setting 'orthorhombic'
loop_
_space_group_symop_operation_xyz
x,y,z
-x,-y,z
-x,y,1/2+z
x,-y,1/2+z
1/2+x,1/2+y,1/2+z
1/2-x,1/2-y,1/2+z
1/2-x,1/2+y,z
1/2+x,1/2-y,z
loop_
_atom_site_type_symbol
_atom_site_label
_atom_site_fract_x
_atom_site_fract_y
_atom_site_fract_z
Si Si1 0.413188 0.528073 0.304800
Si Si2 0.583304 0.964791 0.386273
Si Si3 0.158630 0.114023 0.003749
Si Si4 0.071797 0.716785 0.584497
Si Si5 0.830916 0.384613 0.084023
Si Si6 0.087643 0.777053 0.947170
O O1 0.500000 0.500000 0.319062
O O2 0.359015 0.442409 0.345270
O O3 0.397399 0.567466 0.131144
O O4 0.397654 0.614901 0.420883
O O5 0.574548 0.888206 0.524984
O O6 0.628805 0.916097 0.245149
O O7 0.500000 0.000000 0.339340
O O8 0.630077 0.050979 0.451827
O O9 0.134974 0.221059 0.997294
O O10 0.241944 0.102213 0.071410
O O11 0.081932 0.732024 0.771416
O O12 0.991432 0.758623 0.533294
O O13 0.850195 0.278566 0.044344
#
# Coordination Sequence:
#
# PCOD9377594 Si02
#       6
#     8   8   8   8   8   8
#     4  11  23  44  73 100 137 181 234 279 338 415
#     4  12  25  44  72  98 136 184 232 281 337 417
#     4  11  26  43  69 104 140 180 224 289 348 399
#     4  11  24  43  68 100 133 181 232 277 342 404
#     4  12  26  44  67 104 142 176 229 286 348 405
#     4  11  24  42  69 100 134 180 229 280 337 410
#
# _framework density 22.196128000000002
#
# number of rings (size 3 to 8) (size 9 to 14) (size 15 to 20)
#    0.000    0.667    3.333    4.000    2.333    5.333 
#    0.000    0.000    0.000    0.000    0.000    0.000 
#    0.000    0.000    0.000    0.000    0.000    0.000 
#
# Total GULP energy -134406.170344 kJ/mol
# GULP energy per Si atom -5600.257098 kJ/mol
# Density = 2.214561 g / cm^3
# Si number density = 22.196128 Si / 1000 Ang^3
#
#
#
# Elastic Constant Matrix: (Units=GPa)
#
#
# Indices 1 2 3 4 5 6 
#
# 1 106.5678 28.0013 10.0648 0.0000 0.0000 0.0000
# 2 28.0013 93.5767 12.7977 0.0000 0.0000 0.0000
# 3 10.0648 12.7977 46.9568 0.0000 0.0000 0.0000
# 4 0.0000 0.0000 0.0000 36.0746 0.0000 0.0000
# 5 0.0000 0.0000 0.0000 0.0000 10.0185 0.0000
# 6 0.0000 0.0000 0.0000 0.0000 0.0000 29.6366
#
#
#
# Elastic Compliance Matrix: (Units=1/GPa)
#
#
# Indices 1 2 3 4 5 6 
#
# 1 0.010274 -0.002881 -0.001417 0.000000 0.000000 0.000000
# 2 -0.002881 0.011908 -0.002628 0.000000 0.000000 0.000000
# 3 -0.001417 -0.002628 0.022316 0.000000 0.000000 0.000000
# 4 0.000000 0.000000 0.000000 0.027720 0.000000 0.000000
# 5 0.000000 0.000000 0.000000 0.000000 0.099816 0.000000
# 6 0.000000 0.000000 0.000000 0.000000 0.000000 0.033742
#
#
# Mechanical properties :
#
#
# Convention : Reuss Voigt Hill
#
# Bulk Modulus (GPa) = 32.62966 38.75877 35.69422
# Shear Modulus (GPa) = 21.75391 28.22843 24.99117
#
# Velocity S-wave (km/s) = 3.13401 3.57006 3.35912
# Velocity P-wave (km/s) = 5.27528 5.87313 5.58221
#
# Compressibility (1/GPa) = 0.03064696
#
# Stress axis : x y z
#
# Youngs Moduli (GPa) = 97.32885 83.97855 44.81057
#
# Poissons Ratio (x) = 0.24191 0.06350
# Poissons Ratio (y) = 0.28037 0.11776
# Poissons Ratio (z) = 0.13793 0.22069
#
# Static dielectric constant tensor:
#      x y z
#    x 1.763220 0.000000 0.000000 
#    y 0.000000 1.835360 0.000000 
#    z 0.000000 0.000000 1.832670 
# 
# From -- ./inp_files/1723.got.cif
#   From: 2010.05.17/outbox.cif.g08.bks.cpg/sg45_1_cif.got.tgz:1723.got - 2010.06.03 19:51:22.
