data_PCOD9377317
_publ_section_title
;
Structure prediction by ZEFSAII (Michael W. Deem and Ramdas Pophale) SiO2 
 PCOD9377317
Probable space group: I B A 2
;
_chemical_formula_sum "Si O2"
_cell_formula_units_Z 52
_cell_length_a 11.637726
_cell_length_b 9.202680
_cell_length_c 22.742158
_cell_angle_alpha 90.000000
_cell_angle_beta 90.000000
_cell_angle_gamma 90.000000
_cell_volume 2435.645739
_symmetry_space_group_name_H-M "I B A 2"
_symmetry_group_IT_number 45
_symmetry_cell_setting 'orthorhombic'
loop_
_space_group_symop_operation_xyz
x,y,z
-x,-y,z
-x,y,1/2+z
x,-y,1/2+z
1/2+x,1/2+y,1/2+z
1/2-x,1/2-y,1/2+z
1/2-x,1/2+y,z
1/2+x,1/2-y,z
loop_
_atom_site_type_symbol
_atom_site_label
_atom_site_fract_x
_atom_site_fract_y
_atom_site_fract_z
Si Si1 0.500000 0.000000 0.513541
Si Si2 0.134543 0.528833 0.213579
Si Si3 0.672544 0.460793 0.933616
Si Si4 0.771914 0.213180 0.141083
Si Si5 0.472994 0.264335 0.920458
Si Si6 0.130568 0.552862 0.844475
Si Si7 0.743805 0.529936 0.561222
O O1 0.491242 0.860923 0.469320
O O2 0.617330 0.999560 0.552954
O O3 0.156270 0.690735 0.187997
O O4 0.197412 0.405227 0.175502
O O5 0.171205 0.498037 0.280883
O O6 0.000000 0.500000 0.211254
O O7 0.594795 0.336447 0.903826
O O8 0.598870 0.603323 0.946447
O O9 0.780821 0.498020 0.893580
O O10 0.710703 0.411686 0.997547
O O11 0.711372 0.343583 0.106538
O O12 0.818456 0.113903 0.087003
O O13 0.396471 0.218095 0.863844
O O14 0.000000 0.500000 0.851338
#
# Coordination Sequence:
#
# PCOD9377317 Si02
#       7
#     4   8   8   8   8   8   8
#     4  12  22  38  72  98 136 180 216 274 348 432
#     4  10  25  48  70  96 132 179 239 282 336 396
#     4  11  25  42  64 108 139 169 226 283 342 430
#     4  10  24  43  67  97 124 184 227 280 331 399
#     4  11  24  40  63 104 140 176 217 273 352 403
#     4  11  24  41  73  96 136 183 219 279 346 403
#     4  11  22  41  68  98 138 171 226 278 347 405
#
# _framework density 21.349572999999999
#
# number of rings (size 3 to 8) (size 9 to 14) (size 15 to 20)
#    0.000    1.231    2.308    1.846   10.769    1.231 
#    5.538    2.308    0.000    0.000    0.000    0.000 
#    0.000    0.000    0.000    0.000    0.000    0.000 
#
# Total GULP energy -144791.278712 kJ/mol
# GULP energy per Si atom -5568.895335 kJ/mol
# Density = 2.130098 g / cm^3
# Si number density = 21.349573 Si / 1000 Ang^3
#
#
#
# Elastic Constant Matrix: (Units=GPa)
#
#
# Indices 1 2 3 4 5 6 
#
# 1 57.0244 17.2262 19.9496 0.0000 0.0000 0.0000
# 2 17.2262 108.8318 17.2381 0.0000 0.0000 0.0000
# 3 19.9496 17.2381 117.6860 0.0000 0.0000 0.0000
# 4 0.0000 0.0000 0.0000 16.9734 0.0000 0.0000
# 5 0.0000 0.0000 0.0000 0.0000 -10.7656 0.0000
# 6 0.0000 0.0000 0.0000 0.0000 0.0000 24.5360
#
#
#
# Elastic Compliance Matrix: (Units=1/GPa)
#
#
# Indices 1 2 3 4 5 6 
#
# 1 0.019336 -0.002602 -0.002897 0.000000 0.000000 0.000000
# 2 -0.002602 0.009757 -0.000988 0.000000 0.000000 0.000000
# 3 -0.002897 -0.000988 0.009133 0.000000 0.000000 0.000000
# 4 0.000000 0.000000 0.000000 0.058916 0.000000 0.000000
# 5 0.000000 0.000000 0.000000 0.000000 -0.092888 0.000000
# 6 0.000000 0.000000 0.000000 0.000000 0.000000 0.040757
#
#
# Mechanical properties :
#
#
# Convention : Reuss Voigt Hill
#
# Bulk Modulus (GPa) = 39.59993 43.59667 41.59830
# Shear Modulus (GPa) = 75.30156 21.42397 48.36276
#
# Velocity S-wave (km/s) = 5.94536 3.17122 4.76466
# Velocity P-wave (km/s) = 8.10669 5.82010 7.05663
#
# Compressibility (1/GPa) = 0.02525257
#
# Stress axis : x y z
#
# Youngs Moduli (GPa) = 51.71797 102.49259 109.49378
#
# Poissons Ratio (x) = 0.26665 0.31716
# Poissons Ratio (y) = 0.13455 0.10819
# Poissons Ratio (z) = 0.14981 0.10127
#
# Static dielectric constant tensor:
#      x y z
#    x 1.849940 0.000000 0.000000 
#    y 0.000000 2.002150 0.000000 
#    z 0.000000 0.000000 1.827700 
# 
# From -- ./inp_files/10011.got.cif
#   From: 2010.05.17/outbox.cif.g08.bks.cpg/sg45_6_cif.got.tgz:10011.got - 2010.06.03 19:51:22.
