data_PCOD9377506
_publ_section_title
;
Structure prediction by ZEFSAII (Michael W. Deem and Ramdas Pophale) SiO2 
 PCOD9377506
Probable space group: I B A 2
;
_chemical_formula_sum "Si O2"
_cell_formula_units_Z 48
_cell_length_a 15.002786
_cell_length_b 9.410416
_cell_length_c 14.046136
_cell_angle_alpha 90.000000
_cell_angle_beta 90.000000
_cell_angle_gamma 90.000000
_cell_volume 1983.067998
_symmetry_space_group_name_H-M "I B A 2"
_symmetry_group_IT_number 45
_symmetry_cell_setting 'orthorhombic'
loop_
_space_group_symop_operation_xyz
x,y,z
-x,-y,z
-x,y,1/2+z
x,-y,1/2+z
1/2+x,1/2+y,1/2+z
1/2-x,1/2-y,1/2+z
1/2-x,1/2+y,z
1/2+x,1/2-y,z
loop_
_atom_site_type_symbol
_atom_site_label
_atom_site_fract_x
_atom_site_fract_y
_atom_site_fract_z
Si Si1 0.067200 0.784996 0.424090
Si Si2 0.067365 0.636257 0.809275
Si Si3 0.198764 0.009705 0.475769
Si Si4 0.512982 0.833690 0.609766
Si Si5 0.193692 0.718497 0.089612
Si Si6 0.703292 0.109193 0.799025
O O1 0.133069 0.722829 0.343440
O O2 0.967835 0.747427 0.387417
O O3 0.075228 0.694653 0.520750
O O4 0.102793 0.937349 0.457308
O O5 0.158649 0.548872 0.800650
O O6 0.000000 0.500000 0.823021
O O7 0.052478 0.715186 0.709360
O O8 0.212884 0.120834 0.560653
O O9 0.221560 0.090664 0.377973
O O10 0.265747 0.882506 0.507287
O O11 0.413474 0.781085 0.594169
O O12 0.500000 0.000000 0.620748
O O13 0.225069 0.661040 0.192893
#
# Coordination Sequence:
#
# PCOD9377506 Si02
#       6
#     8   8   8   8   8   8
#     4  11  22  43  68 104 146 186 245 306 370 437
#     4   9  18  38  73 107 127 186 246 302 354 444
#     4  12  28  44  71 111 152 196 237 318 379 451
#     4  11  20  40  73 106 134 185 251 294 360 445
#     4  12  26  45  73 107 146 193 252 305 378 449
#     4  11  23  46  73 105 147 196 248 298 377 457
#
# _framework density 24.204917999999999
#
# number of rings (size 3 to 8) (size 9 to 14) (size 15 to 20)
#    0.000    1.000    6.667    3.500    2.333    0.667 
#    0.000    0.000    3.667    0.000    0.000    0.000 
#    0.000    0.000    0.000    0.000    0.000    0.000 
#
# Total GULP energy -134043.111794 kJ/mol
# GULP energy per Si atom -5585.129658 kJ/mol
# Density = 2.414983 g / cm^3
# Si number density = 24.204918 Si / 1000 Ang^3
#
#
#
# Elastic Constant Matrix: (Units=GPa)
#
#
# Indices 1 2 3 4 5 6 
#
# 1 65.4042 30.8678 18.2608 0.0000 0.0000 0.0000
# 2 30.8678 104.8376 44.5111 0.0000 0.0000 0.0000
# 3 18.2608 44.5111 174.9106 0.0000 0.0000 0.0000
# 4 0.0000 0.0000 0.0000 12.8041 0.0000 0.0000
# 5 0.0000 0.0000 0.0000 0.0000 32.8211 0.0000
# 6 0.0000 0.0000 0.0000 0.0000 0.0000 31.3598
#
#
#
# Elastic Compliance Matrix: (Units=1/GPa)
#
#
# Indices 1 2 3 4 5 6 
#
# 1 0.017811 -0.004994 -0.000589 0.000000 0.000000 0.000000
# 2 -0.004994 0.012094 -0.002556 0.000000 0.000000 0.000000
# 3 -0.000589 -0.002556 0.006429 0.000000 0.000000 0.000000
# 4 0.000000 0.000000 0.000000 0.078100 0.000000 0.000000
# 5 0.000000 0.000000 0.000000 0.000000 0.030468 0.000000
# 6 0.000000 0.000000 0.000000 0.000000 0.000000 0.031888
#
#
# Mechanical properties :
#
#
# Convention : Reuss Voigt Hill
#
# Bulk Modulus (GPa) = 49.85995 59.15908 54.50952
# Shear Modulus (GPa) = 25.03075 32.16451 28.59763
#
# Velocity S-wave (km/s) = 3.21926 3.64928 3.44100
# Velocity P-wave (km/s) = 5.87043 6.50003 6.19324
#
# Compressibility (1/GPa) = 0.02005618
#
# Stress axis : x y z
#
# Youngs Moduli (GPa) = 56.14526 82.68282 155.54051
#
# Poissons Ratio (x) = 0.41294 0.09154
# Poissons Ratio (y) = 0.28041 0.39762
# Poissons Ratio (z) = 0.03304 0.21137
#
# Static dielectric constant tensor:
#      x y z
#    x 1.930230 0.000000 0.000000 
#    y 0.000000 1.877710 0.000000 
#    z 0.000000 0.000000 1.916610 
# 
# From -- ./inp_files/6740.got.cif
#   From: 2010.05.17/outbox.cif.g08.bks.cpg/sg45_4_cif.got.tgz:6740.got - 2010.06.03 19:51:22.
