data_PCOD9377446
_publ_section_title
;
Structure prediction by ZEFSAII (Michael W. Deem and Ramdas Pophale) SiO2 
 PCOD9377446
Probable space group: I B A 2
;
_chemical_formula_sum "Si O2"
_cell_formula_units_Z 52
_cell_length_a 9.826327
_cell_length_b 8.441309
_cell_length_c 24.649559
_cell_angle_alpha 90.000000
_cell_angle_beta 90.000000
_cell_angle_gamma 90.000000
_cell_volume 2044.608512
_symmetry_space_group_name_H-M "I B A 2"
_symmetry_group_IT_number 45
_symmetry_cell_setting 'orthorhombic'
loop_
_space_group_symop_operation_xyz
x,y,z
-x,-y,z
-x,y,1/2+z
x,-y,1/2+z
1/2+x,1/2+y,1/2+z
1/2-x,1/2-y,1/2+z
1/2-x,1/2+y,z
1/2+x,1/2-y,z
loop_
_atom_site_type_symbol
_atom_site_label
_atom_site_fract_x
_atom_site_fract_y
_atom_site_fract_z
Si Si1 0.000000 0.500000 0.126660
Si Si2 0.147132 0.671234 0.338010
Si Si3 0.108080 0.764592 0.766979
Si Si4 0.869552 0.113368 0.982213
Si Si5 0.703151 0.108079 0.411404
Si Si6 0.577074 0.668069 0.099116
Si Si7 0.233379 0.026728 0.696031
O O1 0.988121 0.671316 0.098194
O O2 0.135804 0.526095 0.161580
O O3 0.960776 0.280196 0.291110
O O4 0.300702 0.665754 0.314670
O O5 0.166379 0.808307 0.383060
O O6 0.133728 0.501169 0.366315
O O7 0.192239 0.613725 0.745792
O O8 0.130077 0.892922 0.718548
O O9 0.884862 0.256644 0.939839
O O10 0.748388 0.008256 0.958994
O O11 0.839651 0.173378 0.042945
O O12 0.000000 0.000000 0.983033
O O13 0.500000 0.500000 0.096451
O O14 0.658163 0.645618 0.155202
#
# Coordination Sequence:
#
# PCOD9377446 Si02
#       7
#     4   8   8   8   8   8   8
#     4  12  26  50  78 116 164 216 270 338 422 488
#     4  11  27  49  75 115 156 212 276 342 410 495
#     4  12  27  47  77 114 156 214 269 337 416 492
#     4  10  25  51  79 118 158 212 275 345 435 507
#     4  10  25  50  80 112 162 211 275 355 416 498
#     4  11  27  49  82 121 166 213 274 343 421 512
#     4  12  26  48  78 115 163 206 271 338 409 514
#
# _framework density 25.432741
#
# number of rings (size 3 to 8) (size 9 to 14) (size 15 to 20)
#    0.000    0.923    1.538    2.769    8.615    4.308 
#    8.308    0.000    0.000    0.000    0.000    0.000 
#    0.000    0.000    0.000    0.000    0.000    0.000 
#
# Total GULP energy -145390.879166 kJ/mol
# GULP energy per Si atom -5591.956891 kJ/mol
# Density = 2.537485 g / cm^3
# Si number density = 25.432741 Si / 1000 Ang^3
#
#
#
# Elastic Constant Matrix: (Units=GPa)
#
#
# Indices 1 2 3 4 5 6 
#
# 1 102.8468 51.4765 38.9768 0.0000 0.0000 0.0000
# 2 51.4765 188.0494 62.8496 0.0000 0.0000 0.0000
# 3 38.9768 62.8496 128.3051 0.0000 0.0000 0.0000
# 4 0.0000 0.0000 0.0000 -98.4340 0.0000 0.0000
# 5 0.0000 0.0000 0.0000 0.0000 -154.3416 0.0000
# 6 0.0000 0.0000 0.0000 0.0000 0.0000 21.3073
#
#
#
# Elastic Compliance Matrix: (Units=1/GPa)
#
#
# Indices 1 2 3 4 5 6 
#
# 1 0.011857 -0.002442 -0.002406 0.000000 0.000000 0.000000
# 2 -0.002442 0.006862 -0.002619 0.000000 0.000000 0.000000
# 3 -0.002406 -0.002619 0.009808 0.000000 0.000000 0.000000
# 4 0.000000 0.000000 0.000000 -0.010159 0.000000 0.000000
# 5 0.000000 0.000000 0.000000 0.000000 -0.006479 0.000000
# 6 0.000000 0.000000 0.000000 0.000000 0.000000 0.046932
#
#
# Mechanical properties :
#
#
# Convention : Reuss Voigt Hill
#
# Bulk Modulus (GPa) = 73.56930 80.64522 77.10726
# Shear Modulus (GPa) = 63.86883 -28.56712 17.65085
#
# Velocity S-wave (km/s) = 5.01671 -3.35512 2.63729
# Velocity P-wave (km/s) = 7.90862 4.09499 6.29743
#
# Compressibility (1/GPa) = 0.01359263
#
# Stress axis : x y z
#
# Youngs Moduli (GPa) = 84.33775 145.73920 101.95866
#
# Poissons Ratio (x) = 0.35584 0.24531
# Poissons Ratio (y) = 0.20592 0.26707
# Poissons Ratio (z) = 0.20291 0.38175
#
# Static dielectric constant tensor:
#      x y z
#    x 5.410320 0.000000 0.000000 
#    y 0.000000 2.098680 0.000000 
#    z 0.000000 0.000000 2.064630 
# 
# From -- ./inp_files/10012.got.cif
#   From: 2010.05.17/outbox.cif.g08.bks.cpg/sg45_6_cif.got.tgz:10012.got - 2010.06.03 19:51:22.
