data_PCOD9377868
_publ_section_title
;
Structure prediction by ZEFSAII (Michael W. Deem and Ramdas Pophale) SiO2 
 PCOD9377868
Probable space group: I M A 2
;
_chemical_formula_sum "Si O2"
_cell_formula_units_Z 64
_cell_length_a 16.391698
_cell_length_b 21.970305
_cell_length_c 7.005716
_cell_angle_alpha 90.000000
_cell_angle_beta 90.000000
_cell_angle_gamma 90.000000
_cell_volume 2522.972738
_symmetry_space_group_name_H-M "I M A 2"
_symmetry_group_IT_number 46
_symmetry_cell_setting 'orthorhombic'
loop_
_space_group_symop_operation_xyz
x,y,z
-x,-y,z
1/2-x,y,z
1/2+x,-y,z
1/2+x,1/2+y,1/2+z
1/2-x,1/2-y,1/2+z
-x,1/2+y,1/2+z
x,1/2-y,1/2+z
loop_
_atom_site_type_symbol
_atom_site_label
_atom_site_fract_x
_atom_site_fract_y
_atom_site_fract_z
Si Si1 0.847075 0.174225 0.348120
Si Si2 0.912163 0.304522 0.428406
Si Si3 0.150731 0.952990 0.267082
Si Si4 0.842475 0.791394 0.127903
Si Si5 0.416636 0.038943 0.770952
Si Si6 0.150247 0.419861 0.684815
Si Si7 0.155756 0.578215 0.334050
Si Si8 0.086325 0.172421 0.761447
O O1 0.750000 0.180905 0.387941
O O2 0.895425 0.232971 0.416957
O O3 0.875351 0.105182 0.389710
O O4 0.864709 0.179051 0.121465
O O5 0.877016 0.354983 0.280771
O O6 0.006815 0.317173 0.394133
O O7 0.250000 0.950713 0.267185
O O8 0.125989 0.021935 0.312548
O O9 0.122876 0.940001 0.046911
O O10 0.750000 0.777124 0.185657
O O11 0.871647 0.851223 0.244482
O O12 0.841716 0.818735 0.914970
O O13 0.898080 0.731501 0.131822
O O14 0.391859 0.063208 0.983118
O O15 0.418264 0.105200 0.671123
O O16 0.500000 0.000000 -0.231814
O O17 0.355012 0.984509 0.718301
O O18 0.250000 0.421064 0.665904
O O19 0.250000 0.588180 0.353775
#
# Coordination Sequence:
#
# PCOD9377868 Si02
#       8
#     8   8   8   8   8   8   8   8
#     4  10  19  31  50  75 105 143 183 219 267 331
#     4  11  20  33  50  75 110 142 177 225 278 329
#     4   7  12  24  44  70  95 124 166 217 261 303
#     4  10  21  37  58  82 110 145 189 230 277 337
#     4  10  17  29  48  77 107 139 176 227 277 326
#     4   8  15  29  50  75 103 135 175 226 272 318
#     4   9  16  28  47  71 100 134 175 221 269 320
#     4  11  22  36  55  83 114 146 180 233 288 334
#
# _framework density 25.366900999999999
#
# number of rings (size 3 to 8) (size 9 to 14) (size 15 to 20)
#    0.000    2.500    1.250    4.125    0.000    1.500 
#    0.000    0.000    0.000    1.500    0.000    1.750 
#    0.000    0.000    0.000    0.000    0.000    0.000 
#
# Total GULP energy -178232.587164 kJ/mol
# GULP energy per Si atom -5569.768349 kJ/mol
# Density = 2.530916 g / cm^3
# Si number density = 25.366901 Si / 1000 Ang^3
#
#
#
# Elastic Constant Matrix: (Units=GPa)
#
#
# Indices 1 2 3 4 5 6 
#
# 1 62.1520 47.5374 -11.6155 0.0000 0.0000 0.0000
# 2 47.5374 292.1050 23.8188 0.0000 0.0000 0.0000
# 3 -11.6155 23.8188 40.1326 0.0000 0.0000 0.0000
# 4 0.0000 0.0000 0.0000 39.2451 0.0000 0.0000
# 5 0.0000 0.0000 0.0000 0.0000 2.8036 0.0000
# 6 0.0000 0.0000 0.0000 0.0000 0.0000 45.5457
#
#
#
# Elastic Compliance Matrix: (Units=1/GPa)
#
#
# Indices 1 2 3 4 5 6 
#
# 1 0.020776 -0.004068 0.008428 0.000000 0.000000 0.000000
# 2 -0.004068 0.004394 -0.003785 0.000000 0.000000 0.000000
# 3 0.008428 -0.003785 0.029603 0.000000 0.000000 0.000000
# 4 0.000000 0.000000 0.000000 0.025481 0.000000 0.000000
# 5 0.000000 0.000000 0.000000 0.000000 0.356683 0.000000
# 6 0.000000 0.000000 0.000000 0.000000 0.000000 0.021956
#
#
# Mechanical properties :
#
#
# Convention : Reuss Voigt Hill
#
# Bulk Modulus (GPa) = 17.88206 57.09678 37.48942
# Shear Modulus (GPa) = 10.49568 39.82881 25.16225
#
# Velocity S-wave (km/s) = 2.03630 3.96676 3.15291
# Velocity P-wave (km/s) = 3.54872 6.59829 5.29768
#
# Compressibility (1/GPa) = 0.05592196
#
# Stress axis : x y z
#
# Youngs Moduli (GPa) = 48.13153 227.57300 33.77998
#
# Poissons Ratio (x) = 0.92586 -0.28469
# Poissons Ratio (y) = 0.19582 0.12787
# Poissons Ratio (z) = -0.40565 0.86147
#
# Static dielectric constant tensor:
#      x y z
#    x 2.004250 0.000000 0.000000 
#    y 0.000000 2.210810 0.000000 
#    z 0.000000 0.000000 2.188820 
# 
# From -- ./inp_files/6919.got.cif
#   From: 2010.05.17/outbox.cif.g08.bks.cpg/sg46_4_cif.got.tgz:6919.got - 2010.06.03 19:58:25.
