data_PCOD9377829
_publ_section_title
;
Structure prediction by ZEFSAII (Michael W. Deem and Ramdas Pophale) SiO2 
 PCOD9377829
Probable space group: I M A 2
;
_chemical_formula_sum "Si O2"
_cell_formula_units_Z 64
_cell_length_a 7.655888
_cell_length_b 31.372423
_cell_length_c 15.251472
_cell_angle_alpha 90.000000
_cell_angle_beta 90.000000
_cell_angle_gamma 90.000000
_cell_volume 3663.155841
_symmetry_space_group_name_H-M "I M A 2"
_symmetry_group_IT_number 46
_symmetry_cell_setting 'orthorhombic'
loop_
_space_group_symop_operation_xyz
x,y,z
-x,-y,z
1/2-x,y,z
1/2+x,-y,z
1/2+x,1/2+y,1/2+z
1/2-x,1/2-y,1/2+z
-x,1/2+y,1/2+z
x,1/2-y,1/2+z
loop_
_atom_site_type_symbol
_atom_site_label
_atom_site_fract_x
_atom_site_fract_y
_atom_site_fract_z
Si Si1 0.957830 0.633590 0.153970
Si Si2 0.036065 0.207516 0.169226
Si Si3 0.463935 0.292484 0.279891
Si Si4 0.962511 0.726885 0.474559
Si Si5 0.043202 0.548903 0.875656
Si Si6 0.042170 0.133590 0.295147
Si Si7 0.036702 0.174067 0.474559
Si Si8 0.956798 0.451097 0.073462
O O1 0.750000 0.639982 0.153878
O O2 0.022770 0.664356 0.231051
O O3 0.986090 0.583178 0.145680
O O4 0.028272 0.651868 0.062219
O O5 0.250000 0.208569 0.168171
O O6 0.984417 0.250000 0.224558
O O7 0.977230 0.164356 0.218066
O O8 0.977840 0.208750 0.068103
O O9 0.250000 0.291431 0.280946
O O10 0.522160 0.291250 0.381014
O O11 0.750000 0.724038 0.474558
O O12 0.008747 0.776615 0.474559
O O13 0.250000 0.552401 0.881719
O O14 0.000000 0.500000 0.854861
O O15 0.986090 0.583178 0.803438
O O16 0.969283 0.557926 0.974559
O O17 0.250000 0.139982 0.295240
O O18 0.971729 0.151868 0.386898
O O19 0.250000 0.171637 0.474559
O O20 0.750000 0.447599 0.067399
O O21 0.000000 0.500000 0.094256
#
# Coordination Sequence:
#
# PCOD9377829 Si02
#       8
#     8   8   8   8   8   8   8   8
#     4  10  17  26  42  65  90 120 153 183 219 259
#     4   9  15  22  36  61  91 121 153 187 221 255
#     4   9  15  22  36  61  91 121 153 187 221 255
#     4   9  14  22  34  58  93 122 153 192 221 246
#     4  10  20  32  46  65  89 116 145 179 221 269
#     4  10  17  26  42  65  90 120 153 183 219 259
#     4   9  14  20  36  60  89 118 147 184 216 246
#     4  10  20  32  46  65  89 116 145 179 221 269
#
# _framework density 17.471273
#
# number of rings (size 3 to 8) (size 9 to 14) (size 15 to 20)
#    0.000    2.500    3.750    0.750    0.000    1.000 
#    0.000    0.000    0.000    0.750    0.000    1.750 
#    0.000    0.000    0.000    0.000    0.000    0.000 
#
# Total GULP energy -178319.322118 kJ/mol
# GULP energy per Si atom -5572.478816 kJ/mol
# Density = 1.743151 g / cm^3
# Si number density = 17.471273 Si / 1000 Ang^3
#
#
#
# Elastic Constant Matrix: (Units=GPa)
#
#
# Indices 1 2 3 4 5 6 
#
# 1 31.1382 -3.3463 5.3316 0.0000 0.0000 0.0000
# 2 -3.3463 132.0444 79.8768 0.0000 0.0000 0.0000
# 3 5.3316 79.8768 134.3518 0.0000 0.0000 0.0000
# 4 0.0000 0.0000 0.0000 26.9503 0.0000 0.0000
# 5 0.0000 0.0000 0.0000 0.0000 0.9557 0.0000
# 6 0.0000 0.0000 0.0000 0.0000 0.0000 6.2978
#
#
#
# Elastic Compliance Matrix: (Units=1/GPa)
#
#
# Indices 1 2 3 4 5 6 
#
# 1 0.032868 0.002533 -0.002810 0.000000 0.000000 0.000000
# 2 0.002533 0.012022 -0.007248 0.000000 0.000000 0.000000
# 3 -0.002810 -0.007248 0.011864 0.000000 0.000000 0.000000
# 4 0.000000 0.000000 0.000000 0.037105 0.000000 0.000000
# 5 0.000000 0.000000 0.000000 0.000000 1.046336 0.000000
# 6 0.000000 0.000000 0.000000 0.000000 0.000000 0.158784
#
#
# Mechanical properties :
#
#
# Convention : Reuss Voigt Hill
#
# Bulk Modulus (GPa) = 23.97880 51.25096 37.61488
# Shear Modulus (GPa) = 3.76525 21.21892 12.49209
#
# Velocity S-wave (km/s) = 1.46962 3.48875 2.67686
# Velocity P-wave (km/s) = 4.07851 6.75475 5.57946
#
# Compressibility (1/GPa) = 0.04170350
#
# Stress axis : x y z
#
# Youngs Moduli (GPa) = 30.42442 83.18197 84.29000
#
# Poissons Ratio (x) = -0.21070 0.23688
# Poissons Ratio (y) = -0.07706 0.61093
# Poissons Ratio (z) = 0.08550 0.60290
#
# Static dielectric constant tensor:
#      x y z
#    x 1.653730 0.000000 0.000000 
#    y 0.000000 1.617770 0.000000 
#    z 0.000000 0.000000 1.606100 
# 
# From -- ./inp_files/14725.got.cif
#   From: 2010.05.17/outbox.cif.g08.bks.cpg/sg46_8_cif.got.tgz:14725.got - 2010.06.03 19:58:25.
