data_PCOD9377514
_publ_section_title
;
Structure prediction by ZEFSAII (Michael W. Deem and Ramdas Pophale) SiO2 
 PCOD9377514
Probable space group: I B A 2
;
_chemical_formula_sum "Si O2"
_cell_formula_units_Z 56
_cell_length_a 14.523528
_cell_length_b 13.233060
_cell_length_c 14.678029
_cell_angle_alpha 90.000000
_cell_angle_beta 90.000000
_cell_angle_gamma 90.000000
_cell_volume 2820.980924
_symmetry_space_group_name_H-M "I B A 2"
_symmetry_group_IT_number 45
_symmetry_cell_setting 'orthorhombic'
loop_
_space_group_symop_operation_xyz
x,y,z
-x,-y,z
-x,y,1/2+z
x,-y,1/2+z
1/2+x,1/2+y,1/2+z
1/2-x,1/2-y,1/2+z
1/2-x,1/2+y,z
1/2+x,1/2-y,z
loop_
_atom_site_type_symbol
_atom_site_label
_atom_site_fract_x
_atom_site_fract_y
_atom_site_fract_z
Si Si1 0.953474 0.396864 0.992980
Si Si2 0.757525 0.647633 0.840814
Si Si3 0.046534 0.603124 0.688676
Si Si4 0.950170 0.769685 0.340830
Si Si5 0.748484 0.477691 0.989843
Si Si6 0.748472 0.522294 0.191762
Si Si7 0.362882 0.356779 0.340799
O O1 0.965219 0.302516 0.927493
O O2 0.845107 0.419368 0.001742
O O3 0.000000 0.500000 0.955897
O O4 0.999991 0.379592 0.090835
O O5 0.653201 0.688980 0.840841
O O6 0.769206 0.577634 0.930019
O O7 0.769169 0.577649 0.751595
O O8 0.826328 0.741677 0.840801
O O9 0.034819 0.697468 0.754171
O O10 0.154893 0.580598 0.679877
O O11 0.000000 0.500000 0.725774
O O12 0.027387 0.855354 0.340807
O O13 0.679760 0.412169 0.928491
O O14 0.712546 0.499995 0.090800
O O15 0.679751 0.587835 0.253100
#
# Coordination Sequence:
#
# PCOD9377514 Si02
#       7
#     8   8   8   8   8   8   8
#     4  11  21  39  66  97 123 160 220 278 326 363
#     4  11  24  43  68  93 136 175 211 272 320 387
#     4  11  21  39  66  97 123 160 220 278 326 363
#     4  12  24  42  64  97 131 168 218 261 325 390
#     4  11  23  43  65  96 132 170 216 266 322 385
#     4  11  23  43  65  96 132 170 216 266 322 385
#     4  11  25  42  66  98 130 176 213 265 327 387
#
# _framework density 19.851251999999999
#
# number of rings (size 3 to 8) (size 9 to 14) (size 15 to 20)
#    0.000    0.857    5.714    3.000    0.000    5.714 
#    0.000    1.429    0.000    0.000    0.000    0.000 
#    0.000    0.000    0.000    0.000    0.000    0.000 
#
# Total GULP energy -156627.401843 kJ/mol
# GULP energy per Si atom -5593.835780 kJ/mol
# Density = 1.980607 g / cm^3
# Si number density = 19.851252 Si / 1000 Ang^3
#
#
#
# Elastic Constant Matrix: (Units=GPa)
#
#
# Indices 1 2 3 4 5 6 
#
# 1 98.5524 -4.9120 21.6669 0.0000 0.0000 0.0000
# 2 -4.9120 54.0448 40.7635 0.0000 0.0000 0.0000
# 3 21.6669 40.7635 160.4093 0.0000 0.0000 0.0000
# 4 0.0000 0.0000 0.0000 5.4432 0.0000 0.0000
# 5 0.0000 0.0000 0.0000 0.0000 284.6126 0.0000
# 6 0.0000 0.0000 0.0000 0.0000 0.0000 41.8293
#
#
#
# Elastic Compliance Matrix: (Units=1/GPa)
#
#
# Indices 1 2 3 4 5 6 
#
# 1 0.010736 0.002560 -0.002101 0.000000 0.000000 0.000000
# 2 0.002560 0.023501 -0.006318 0.000000 0.000000 0.000000
# 3 -0.002101 -0.006318 0.008123 0.000000 0.000000 0.000000
# 4 0.000000 0.000000 0.000000 0.183717 0.000000 0.000000
# 5 0.000000 0.000000 0.000000 0.000000 0.003514 0.000000
# 6 0.000000 0.000000 0.000000 0.000000 0.000000 0.023907
#
#
# Mechanical properties :
#
#
# Convention : Reuss Voigt Hill
#
# Bulk Modulus (GPa) = 32.63279 47.56036 40.09658
# Shear Modulus (GPa) = 18.15347 83.40953 50.78150
#
# Velocity S-wave (km/s) = 3.02731 6.48910 5.06325
# Velocity P-wave (km/s) = 5.35666 8.95293 7.37729
#
# Compressibility (1/GPa) = 0.03064402
#
# Stress axis : x y z
#
# Youngs Moduli (GPa) = 93.14131 42.55091 123.10172
#
# Poissons Ratio (x) = -0.10895 0.25862
# Poissons Ratio (y) = -0.23848 0.77776
# Poissons Ratio (z) = 0.19567 0.26884
#
# Static dielectric constant tensor:
#      x y z
#    x 1.689410 0.000000 0.000000 
#    y 0.000000 1.695550 0.000000 
#    z 0.000000 0.000000 1.690430 
# 
# From -- ./inp_files/6522.got.cif
#   From: 2010.05.17/outbox.cif.g08.bks.cpg/sg45_4_cif.got.tgz:6522.got - 2010.06.03 19:51:22.
