data_PCOD9377528
_publ_section_title
;
Structure prediction by ZEFSAII (Michael W. Deem and Ramdas Pophale) SiO2 
 PCOD9377528
Probable space group: I B A 2
;
_chemical_formula_sum "Si O2"
_cell_formula_units_Z 56
_cell_length_a 12.009418
_cell_length_b 19.627859
_cell_length_c 10.956531
_cell_angle_alpha 90.000000
_cell_angle_beta 90.000000
_cell_angle_gamma 90.000000
_cell_volume 2582.664319
_symmetry_space_group_name_H-M "I B A 2"
_symmetry_group_IT_number 45
_symmetry_cell_setting 'orthorhombic'
loop_
_space_group_symop_operation_xyz
x,y,z
-x,-y,z
-x,y,1/2+z
x,-y,1/2+z
1/2+x,1/2+y,1/2+z
1/2-x,1/2-y,1/2+z
1/2-x,1/2+y,z
1/2+x,1/2-y,z
loop_
_atom_site_type_symbol
_atom_site_label
_atom_site_fract_x
_atom_site_fract_y
_atom_site_fract_z
Si Si1 0.571698 0.326217 0.123990
Si Si2 0.896077 0.802449 0.410804
Si Si3 0.385747 0.044057 0.477579
Si Si4 0.441283 0.928045 0.729250
Si Si5 0.847543 0.347087 0.825921
Si Si6 0.683454 0.818883 0.563974
Si Si7 0.238818 0.577661 0.049255
O O1 0.561182 0.322423 0.273218
O O2 0.634040 0.256692 0.078672
O O3 0.648492 0.391886 0.099387
O O4 0.470769 0.325914 0.026289
O O5 0.881437 0.721097 0.396849
O O6 0.772934 0.824178 0.455949
O O7 0.355655 0.053599 0.336838
O O8 0.400035 0.118435 0.535135
O O9 0.500000 0.000000 0.467359
O O10 0.290000 0.002481 0.547314
O O11 0.536693 0.881244 0.785132
O O12 0.365600 0.894092 0.627253
O O13 0.500000 0.000000 0.695731
O O14 0.777941 0.332443 0.703059
O O15 0.779511 0.396124 0.913053
#
# Coordination Sequence:
#
# PCOD9377528 Si02
#       7
#     8   8   8   8   8   8   8
#     4  11  27  44  71 100 137 185 231 281 332 406
#     4  11  26  45  68  97 133 184 233 282 335 399
#     4  11  22  39  68 101 137 172 214 282 344 409
#     4  11  22  36  63 103 140 171 215 275 355 402
#     4  11  23  38  67  98 132 182 215 280 332 416
#     4  11  24  43  67 100 136 174 222 280 348 403
#     4  12  23  41  63  99 137 178 226 270 343 407
#
# _framework density 21.683035
#
# number of rings (size 3 to 8) (size 9 to 14) (size 15 to 20)
#    0.000    0.857    4.286    3.857    6.000    0.000 
#    0.000    0.714    0.000    1.714    0.000    0.000 
#    0.000    0.000    0.000    0.000    0.000    0.000 
#
# Total GULP energy -156032.108061 kJ/mol
# GULP energy per Si atom -5572.575288 kJ/mol
# Density = 2.163368 g / cm^3
# Si number density = 21.683035 Si / 1000 Ang^3
#
#
#
# Elastic Constant Matrix: (Units=GPa)
#
#
# Indices 1 2 3 4 5 6 
#
# 1 57.4061 26.5502 28.5551 0.0000 0.0000 0.0000
# 2 26.5502 67.6832 13.3579 0.0000 0.0000 0.0000
# 3 28.5551 13.3579 113.4188 0.0000 0.0000 0.0000
# 4 0.0000 0.0000 0.0000 7.8024 0.0000 0.0000
# 5 0.0000 0.0000 0.0000 0.0000 34.9733 0.0000
# 6 0.0000 0.0000 0.0000 0.0000 0.0000 20.9356
#
#
#
# Elastic Compliance Matrix: (Units=1/GPa)
#
#
# Indices 1 2 3 4 5 6 
#
# 1 0.023762 -0.008334 -0.005001 0.000000 0.000000 0.000000
# 2 -0.008334 0.018049 -0.000028 0.000000 0.000000 0.000000
# 3 -0.005001 -0.000028 0.010079 0.000000 0.000000 0.000000
# 4 0.000000 0.000000 0.000000 0.128166 0.000000 0.000000
# 5 0.000000 0.000000 0.000000 0.000000 0.028593 0.000000
# 6 0.000000 0.000000 0.000000 0.000000 0.000000 0.047766
#
#
# Mechanical properties :
#
#
# Convention : Reuss Voigt Hill
#
# Bulk Modulus (GPa) = 39.73718 41.71494 40.72606
# Shear Modulus (GPa) = 17.15095 24.07859 20.61477
#
# Velocity S-wave (km/s) = 2.81550 3.33600 3.08674
# Velocity P-wave (km/s) = 5.37918 5.84113 5.61491
#
# Compressibility (1/GPa) = 0.02516535
#
# Stress axis : x y z
#
# Youngs Moduli (GPa) = 42.08439 55.40359 99.21447
#
# Poissons Ratio (x) = 0.46174 0.49616
# Poissons Ratio (y) = 0.35074 0.00273
# Poissons Ratio (z) = 0.21046 0.00152
#
# Static dielectric constant tensor:
#      x y z
#    x 1.860210 0.000000 0.000000 
#    y 0.000000 1.818610 0.000000 
#    z 0.000000 0.000000 1.925710 
# 
# From -- ./inp_files/3772.got.cif
#   From: 2010.05.17/outbox.cif.g08.bks.cpg/sg45_2_cif.got.tgz:3772.got - 2010.06.03 19:51:22.
