data_PCOD9377978
_publ_section_title
;
Structure prediction by ZEFSAII (Michael W. Deem and Ramdas Pophale) SiO2 
 PCOD9377978
Probable space group: I M A 2
;
_chemical_formula_sum "Si O2"
_cell_formula_units_Z 64
_cell_length_a 8.706942
_cell_length_b 18.885138
_cell_length_c 27.055103
_cell_angle_alpha 90.000000
_cell_angle_beta 90.000000
_cell_angle_gamma 90.000000
_cell_volume 4448.719319
_symmetry_space_group_name_H-M "I M A 2"
_symmetry_group_IT_number 46
_symmetry_cell_setting 'orthorhombic'
loop_
_space_group_symop_operation_xyz
x,y,z
-x,-y,z
1/2-x,y,z
1/2+x,-y,z
1/2+x,1/2+y,1/2+z
1/2-x,1/2-y,1/2+z
-x,1/2+y,1/2+z
x,1/2-y,1/2+z
loop_
_atom_site_type_symbol
_atom_site_label
_atom_site_fract_x
_atom_site_fract_y
_atom_site_fract_z
Si Si1 0.565836 0.578901 0.939110
Si Si2 0.935963 0.921600 0.626278
Si Si3 0.073259 0.291228 0.185927
Si Si4 0.066209 0.661110 0.734820
Si Si5 0.933531 0.338873 0.031324
Si Si6 0.065495 0.578431 0.635834
Si Si7 0.435728 0.578469 0.831875
Si Si8 0.927875 0.707044 0.581298
O O1 0.500000 0.500000 0.949238
O O2 0.750000 0.576038 0.939142
O O3 0.503630 0.599539 0.884961
O O4 0.504507 0.631371 0.980955
O O5 0.750000 0.921098 0.623579
O O6 0.983419 0.869232 0.671154
O O7 0.001393 0.887651 0.575859
O O8 0.000000 0.000000 0.632291
O O9 0.250000 0.296065 0.201572
O O10 0.068428 0.249699 0.133438
O O11 0.985228 0.240975 0.223616
O O12 0.250000 0.659033 0.734172
O O13 0.014022 0.611606 0.688870
O O14 0.015870 0.629417 0.787097
O O15 0.750000 0.343619 0.030479
O O16 0.986028 0.258767 0.043467
O O17 0.250000 0.576946 0.635181
O O18 0.000000 0.500000 0.630270
O O19 0.005578 0.632368 0.593942
O O20 0.500000 0.500000 0.821312
O O21 0.250000 0.575908 0.834720
O O22 0.750000 0.698324 0.567309
#
# Coordination Sequence:
#
# PCOD9377978 Si02
#       8
#     8   8   8   8   8   8   8   8
#     4  11  21  33  46  62  84 112 144 180 216 252
#     4  10  19  30  43  63  87 114 145 178 212 252
#     4   8  16  28  42  59  82 109 140 174 210 249
#     4   9  18  29  43  61  84 113 146 178 213 253
#     4  11  20  31  46  63  84 113 144 177 214 256
#     4  10  18  28  42  63  88 117 148 179 214 254
#     4  10  19  31  44  62  85 111 143 180 215 250
#     4   9  17  30  44  61  84 111 142 178 213 252
#
# _framework density 14.386163
#
# number of rings (size 3 to 8) (size 9 to 14) (size 15 to 20)
#    0.000    2.250    0.000    6.000    0.000    5.000 
#    0.000    0.000    0.000    0.000    0.000    0.000 
#    0.000    1.000    0.000    7.000    0.000    6.125 
#
# Total GULP energy -178397.215800 kJ/mol
# GULP energy per Si atom -5574.912994 kJ/mol
# Density = 1.435342 g / cm^3
# Si number density = 14.386163 Si / 1000 Ang^3
#
#
#
# Elastic Constant Matrix: (Units=GPa)
#
#
# Indices 1 2 3 4 5 6 
#
# 1 85.6265 43.9081 40.6833 0.0000 0.0000 0.0000
# 2 43.9081 122.5636 63.4513 0.0000 0.0000 0.0000
# 3 40.6833 63.4513 93.3657 0.0000 0.0000 0.0000
# 4 0.0000 0.0000 0.0000 26.9370 0.0000 0.0000
# 5 0.0000 0.0000 0.0000 0.0000 20.4690 0.0000
# 6 0.0000 0.0000 0.0000 0.0000 0.0000 26.1223
#
#
#
# Elastic Compliance Matrix: (Units=1/GPa)
#
#
# Indices 1 2 3 4 5 6 
#
# 1 0.015487 -0.003170 -0.004594 0.000000 0.000000 0.000000
# 2 -0.003170 0.013237 -0.007614 0.000000 0.000000 0.000000
# 3 -0.004594 -0.007614 0.017887 0.000000 0.000000 0.000000
# 4 0.000000 0.000000 0.000000 0.037124 0.000000 0.000000
# 5 0.000000 0.000000 0.000000 0.000000 0.048854 0.000000
# 6 0.000000 0.000000 0.000000 0.000000 0.000000 0.038281
#
#
# Mechanical properties :
#
#
# Convention : Reuss Voigt Hill
#
# Bulk Modulus (GPa) = 63.07525 66.40460 64.73992
# Shear Modulus (GPa) = 24.16496 24.93985 24.55240
#
# Velocity S-wave (km/s) = 4.10290 4.16817 4.13567
# Velocity P-wave (km/s) = 8.14768 8.33209 8.24040
#
# Compressibility (1/GPa) = 0.01585408
#
# Stress axis : x y z
#
# Youngs Moduli (GPa) = 64.57115 75.54839 55.90608
#
# Poissons Ratio (x) = 0.23947 0.25684
# Poissons Ratio (y) = 0.20467 0.42569
# Poissons Ratio (z) = 0.29665 0.57525
#
# Static dielectric constant tensor:
#      x y z
#    x 1.484810 0.000000 0.000000 
#    y 0.000000 1.472190 0.000000 
#    z 0.000000 0.000000 1.462630 
# 
# From -- ./inp_files/23298.got.cif
#   From: 2010.05.17/outbox.cif.g08.bks.cpg/sg46_12_cif.got.tgz:23298.got - 2010.06.03 19:58:25.
