data_PCOD9377292
_publ_section_title
;
Structure prediction by ZEFSAII (Michael W. Deem and Ramdas Pophale) SiO2 
 PCOD9377292
Probable space group: I B A 2
;
_chemical_formula_sum "Si O2"
_cell_formula_units_Z 60
_cell_length_a 19.380932
_cell_length_b 11.293831
_cell_length_c 11.859272
_cell_angle_alpha 90.000000
_cell_angle_beta 90.000000
_cell_angle_gamma 90.000000
_cell_volume 2595.816403
_symmetry_space_group_name_H-M "I B A 2"
_symmetry_group_IT_number 45
_symmetry_cell_setting 'orthorhombic'
loop_
_space_group_symop_operation_xyz
x,y,z
-x,-y,z
-x,y,1/2+z
x,-y,1/2+z
1/2+x,1/2+y,1/2+z
1/2-x,1/2-y,1/2+z
1/2-x,1/2+y,z
1/2+x,1/2-y,z
loop_
_atom_site_type_symbol
_atom_site_label
_atom_site_fract_x
_atom_site_fract_y
_atom_site_fract_z
Si Si1 0.809856 0.174055 0.560770
Si Si2 0.950785 0.234876 0.939408
Si Si3 0.100253 0.680880 0.403180
Si Si4 0.746615 0.362599 0.705350
Si Si5 0.595182 0.321976 0.685187
Si Si6 0.724313 0.005200 0.913268
Si Si7 0.000000 0.000000 0.821204
Si Si8 0.322790 0.676375 0.313802
O O1 0.869305 0.204350 0.471565
O O2 0.781696 0.304600 0.597101
O O3 0.838244 0.136040 0.684913
O O4 0.749190 0.092789 0.506566
O O5 0.965481 0.099890 0.898541
O O6 0.883365 0.259078 0.862295
O O7 0.017920 0.317796 0.927080
O O8 0.931281 0.227497 0.068631
O O9 0.103016 0.714298 0.272303
O O10 0.150739 0.570538 0.430938
O O11 0.669176 0.380998 0.673153
O O12 0.779770 0.463390 0.780945
O O13 0.754125 0.254484 0.794619
O O14 0.547533 0.420512 0.741564
O O15 0.796186 0.079990 0.900870
#
# Coordination Sequence:
#
# PCOD9377292 Si02
#       8
#     8   8   8   8   8   8   4   8
#     4  10  25  43  70 105 150 182 252 317 364 451
#     4  11  26  42  71 102 157 190 250 310 387 454
#     4  11  25  46  68 111 149 201 239 315 377 463
#     4  10  24  43  70 104 142 183 245 321 360 441
#     4  11  22  44  68 104 153 189 250 316 382 446
#     4  12  22  46  74 110 146 192 256 299 398 440
#     4  10  24  42  66 110 138 198 240 312 390 456
#     4  10  25  42  71 106 140 197 238 319 364 447
#
# _framework density 23.114115999999999
#
# number of rings (size 3 to 8) (size 9 to 14) (size 15 to 20)
#    0.800    0.533    2.667    1.200   11.200    1.067 
#    0.000    0.667    0.000    0.000    0.000    0.000 
#    0.000    0.000    0.000    0.000    0.000    0.000 
#
# Total GULP energy -167103.766471 kJ/mol
# GULP energy per Si atom -5570.125549 kJ/mol
# Density = 2.306151 g / cm^3
# Si number density = 23.114116 Si / 1000 Ang^3
#
#
#
# Elastic Constant Matrix: (Units=GPa)
#
#
# Indices 1 2 3 4 5 6 
#
# 1 143.0711 35.2406 65.4364 0.0000 0.0000 0.0000
# 2 35.2406 39.5919 27.2261 0.0000 0.0000 0.0000
# 3 65.4364 27.2261 167.3675 0.0000 0.0000 0.0000
# 4 0.0000 0.0000 0.0000 34.8745 0.0000 0.0000
# 5 0.0000 0.0000 0.0000 0.0000 29.2626 0.0000
# 6 0.0000 0.0000 0.0000 0.0000 0.0000 64.8895
#
#
#
# Elastic Compliance Matrix: (Units=1/GPa)
#
#
# Indices 1 2 3 4 5 6 
#
# 1 0.009972 -0.006975 -0.002764 0.000000 0.000000 0.000000
# 2 -0.006975 0.033318 -0.002693 0.000000 0.000000 0.000000
# 3 -0.002764 -0.002693 0.007494 0.000000 0.000000 0.000000
# 4 0.000000 0.000000 0.000000 0.028674 0.000000 0.000000
# 5 0.000000 0.000000 0.000000 0.000000 0.034173 0.000000
# 6 0.000000 0.000000 0.000000 0.000000 0.000000 0.015411
#
#
# Mechanical properties :
#
#
# Convention : Reuss Voigt Hill
#
# Bulk Modulus (GPa) = 38.58112 67.31516 52.94814
# Shear Modulus (GPa) = 30.76059 40.61382 35.68720
#
# Velocity S-wave (km/s) = 3.65199 4.19633 3.93358
# Velocity P-wave (km/s) = 5.87457 7.25707 6.60211
#
# Compressibility (1/GPa) = 0.02591941
#
# Stress axis : x y z
#
# Youngs Moduli (GPa) = 100.28273 30.01379 133.44719
#
# Poissons Ratio (x) = 0.20935 0.36886
# Poissons Ratio (y) = 0.69948 0.35935
# Poissons Ratio (z) = 0.27719 0.08082
#
# Static dielectric constant tensor:
#      x y z
#    x 1.920330 0.000000 0.000000 
#    y 0.000000 2.179870 0.000000 
#    z 0.000000 0.000000 1.896270 
# 
# From -- ./inp_files/4664.got.cif
#   From: 2010.05.17/outbox.cif.g08.bks.cpg/sg45_3_cif.got.tgz:4664.got - 2010.06.03 19:51:22.
