data_PCOD9377513
_publ_section_title
;
Structure prediction by ZEFSAII (Michael W. Deem and Ramdas Pophale) SiO2 
 PCOD9377513
Probable space group: I B A 2
;
_chemical_formula_sum "Si O2"
_cell_formula_units_Z 48
_cell_length_a 4.931837
_cell_length_b 28.379381
_cell_length_c 16.506352
_cell_angle_alpha 90.000000
_cell_angle_beta 90.000000
_cell_angle_gamma 90.000000
_cell_volume 2310.269982
_symmetry_space_group_name_H-M "I B A 2"
_symmetry_group_IT_number 45
_symmetry_cell_setting 'orthorhombic'
loop_
_space_group_symop_operation_xyz
x,y,z
-x,-y,z
-x,y,1/2+z
x,-y,1/2+z
1/2+x,1/2+y,1/2+z
1/2-x,1/2-y,1/2+z
1/2-x,1/2+y,z
1/2+x,1/2-y,z
loop_
_atom_site_type_symbol
_atom_site_label
_atom_site_fract_x
_atom_site_fract_y
_atom_site_fract_z
Si Si1 0.628465 0.862673 0.101340
Si Si2 0.000000 0.500000 0.311484
Si Si3 0.635620 0.640903 0.836184
Si Si4 0.370597 0.718781 0.201216
Si Si5 0.000000 0.000000 0.431540
Si Si6 0.887498 0.897174 0.505388
Si Si7 0.378680 0.901820 0.263224
O O1 0.762824 0.812349 0.125667
O O2 0.400370 0.876205 0.035075
O O3 0.473994 0.875640 0.183486
O O4 0.892238 0.891916 0.076013
O O5 0.750211 0.508541 0.371632
O O6 0.979969 0.545249 0.255470
O O7 0.653221 0.689286 0.785492
O O8 0.432084 0.608039 0.783726
O O9 0.936102 0.619204 0.835110
O O10 0.534798 0.635623 0.927947
O O11 0.680547 0.735294 0.199069
O O12 0.088232 0.047794 0.478705
#
# Coordination Sequence:
#
# PCOD9377513 Si02
#       7
#     8   4   8   8   4   8   8
#     4  11  25  41  64  95 134 174 211 277 348 398
#     4  12  20  38  62  94 122 176 234 272 300 394
#     4  11  22  41  66  93 126 168 221 271 333 401
#     4  11  23  45  70  94 124 170 224 278 336 410
#     4  12  24  38  64  96 134 178 222 266 328 390
#     4  12  23  42  63  98 137 175 214 270 336 399
#     4  11  21  39  62  91 125 174 224 265 321 392
#
# _framework density 20.776790999999999
#
# number of rings (size 3 to 8) (size 9 to 14) (size 15 to 20)
#    0.000    0.667    3.333    7.000    0.000    1.333 
#    0.000    5.000    0.000    0.000    0.000    0.000 
#    0.000    0.000    0.000    0.000    0.000    0.000 
#
# Total GULP energy -133735.516203 kJ/mol
# GULP energy per Si atom -5572.313175 kJ/mol
# Density = 2.072950 g / cm^3
# Si number density = 20.776791 Si / 1000 Ang^3
#
#
#
# Elastic Constant Matrix: (Units=GPa)
#
#
# Indices 1 2 3 4 5 6 
#
# 1 83.6006 -1.2307 7.7201 0.0000 0.0000 0.0000
# 2 -1.2307 79.0038 12.8920 0.0000 0.0000 0.0000
# 3 7.7201 12.8920 41.0968 0.0000 0.0000 0.0000
# 4 0.0000 0.0000 0.0000 22.2973 0.0000 0.0000
# 5 0.0000 0.0000 0.0000 0.0000 -13.4801 0.0000
# 6 0.0000 0.0000 0.0000 0.0000 0.0000 36.6148
#
#
#
# Elastic Compliance Matrix: (Units=1/GPa)
#
#
# Indices 1 2 3 4 5 6 
#
# 1 0.012199 0.000594 -0.002478 0.000000 0.000000 0.000000
# 2 0.000594 0.013369 -0.004306 0.000000 0.000000 0.000000
# 3 -0.002478 -0.004306 0.026149 0.000000 0.000000 0.000000
# 4 0.000000 0.000000 0.000000 0.044848 0.000000 0.000000
# 5 0.000000 0.000000 0.000000 0.000000 -0.074184 0.000000
# 6 0.000000 0.000000 0.000000 0.000000 0.000000 0.027311
#
#
# Mechanical properties :
#
#
# Convention : Reuss Voigt Hill
#
# Bulk Modulus (GPa) = 25.42007 26.94046 26.18026
# Shear Modulus (GPa) = 66.50204 21.37440 43.93822
#
# Velocity S-wave (km/s) = 5.66369 3.21091 4.60366
# Velocity P-wave (km/s) = 7.41830 5.17121 6.39424
#
# Compressibility (1/GPa) = 0.03933900
#
# Stress axis : x y z
#
# Youngs Moduli (GPa) = 81.97242 74.79719 38.24236
#
# Poissons Ratio (x) = -0.04446 0.09477
# Poissons Ratio (y) = -0.04873 0.16466
# Poissons Ratio (z) = 0.20314 0.32205
#
# Static dielectric constant tensor:
#      x y z
#    x 1.792400 0.000000 0.000000 
#    y 0.000000 1.793600 0.000000 
#    z 0.000000 0.000000 1.769110 
# 
# From -- ./inp_files/5193.got.cif
#   From: 2010.05.17/outbox.cif.g08.bks.cpg/sg45_3_cif.got.tgz:5193.got - 2010.06.03 19:51:22.
