data_PCOD9377979
_publ_section_title
;
Structure prediction by ZEFSAII (Michael W. Deem and Ramdas Pophale) SiO2 
 PCOD9377979
Probable space group: I M A 2
;
_chemical_formula_sum "Si O2"
_cell_formula_units_Z 64
_cell_length_a 8.635841
_cell_length_b 18.926529
_cell_length_c 27.203802
_cell_angle_alpha 90.000000
_cell_angle_beta 90.000000
_cell_angle_gamma 90.000000
_cell_volume 4446.366091
_symmetry_space_group_name_H-M "I M A 2"
_symmetry_group_IT_number 46
_symmetry_cell_setting 'orthorhombic'
loop_
_space_group_symop_operation_xyz
x,y,z
-x,-y,z
1/2-x,y,z
1/2+x,-y,z
1/2+x,1/2+y,1/2+z
1/2-x,1/2-y,1/2+z
-x,1/2+y,1/2+z
x,1/2-y,1/2+z
loop_
_atom_site_type_symbol
_atom_site_label
_atom_site_fract_x
_atom_site_fract_y
_atom_site_fract_z
Si Si1 0.934747 0.707809 0.350610
Si Si2 0.564349 0.578386 0.107700
Si Si3 0.064904 0.788847 0.255145
Si Si4 0.562979 0.169219 0.406986
Si Si5 0.064306 0.921425 0.501300
Si Si6 0.563724 0.078387 0.311084
Si Si7 0.435172 0.921031 0.800293
Si Si8 0.435094 0.161159 0.705274
O O1 0.750000 0.709198 0.345342
O O2 0.015066 0.748501 0.304988
O O3 0.987193 0.754660 0.396880
O O4 0.995948 0.628431 0.343574
O O5 0.500000 0.500000 0.118080
O O6 0.750000 0.574695 0.104649
O O7 0.521459 0.629484 0.152528
O O8 0.498285 0.600134 0.054757
O O9 0.250000 0.785753 0.250151
O O10 0.017307 0.869410 0.266349
O O11 0.987492 0.742049 0.212990
O O12 0.750000 0.176593 0.404895
O O13 0.519912 0.132235 0.458034
O O14 0.516377 0.116614 0.362200
O O15 0.250000 0.925629 0.502975
O O16 0.000000 0.000000 0.490881
O O17 0.750000 0.075739 0.311544
O O18 0.500000 0.000000 0.307543
O O19 0.250000 0.920640 0.802310
O O20 0.489002 0.885472 0.748736
O O21 0.500000 0.000000 0.802819
O O22 0.250000 0.156484 0.711122
#
# Coordination Sequence:
#
# PCOD9377979 Si02
#       8
#     8   8   8   8   8   8   8   8
#     4  10  18  28  43  62  82 108 140 172 207 248
#     4  10  20  31  43  60  84 110 141 178 213 248
#     4   9  17  29  42  58  82 110 138 172 209 247
#     4   9  18  31  43  59  83 112 143 174 208 246
#     4  10  19  30  45  62  84 112 144 179 214 249
#     4   9  17  27  40  59  83 109 138 169 204 242
#     4  11  20  30  44  62  86 113 141 175 209 248
#     4  10  19  30  44  62  82 110 145 177 211 252
#
# _framework density 14.393776000000001
#
# number of rings (size 3 to 8) (size 9 to 14) (size 15 to 20)
#    0.000    2.250    0.000    7.500    0.000    6.500 
#    0.000    0.000    0.000    0.000    0.000    0.000 
#    0.000    1.000    0.000    9.000    0.000    6.750 
#
# Total GULP energy -178348.148327 kJ/mol
# GULP energy per Si atom -5573.379635 kJ/mol
# Density = 1.436102 g / cm^3
# Si number density = 14.393776 Si / 1000 Ang^3
#
#
#
# Elastic Constant Matrix: (Units=GPa)
#
#
# Indices 1 2 3 4 5 6 
#
# 1 28.8061 23.5948 28.8024 0.0000 0.0000 0.0000
# 2 23.5948 110.1472 59.0823 0.0000 0.0000 0.0000
# 3 28.8024 59.0823 92.1296 0.0000 0.0000 0.0000
# 4 0.0000 0.0000 0.0000 28.0325 0.0000 0.0000
# 5 0.0000 0.0000 0.0000 0.0000 21.5064 0.0000
# 6 0.0000 0.0000 0.0000 0.0000 0.0000 25.6781
#
#
#
# Elastic Compliance Matrix: (Units=1/GPa)
#
#
# Indices 1 2 3 4 5 6 
#
# 1 0.051445 -0.003648 -0.013744 0.000000 0.000000 0.000000
# 2 -0.003648 0.014098 -0.007900 0.000000 0.000000 0.000000
# 3 -0.013744 -0.007900 0.020217 0.000000 0.000000 0.000000
# 4 0.000000 0.000000 0.000000 0.035673 0.000000 0.000000
# 5 0.000000 0.000000 0.000000 0.000000 0.046498 0.000000
# 6 0.000000 0.000000 0.000000 0.000000 0.000000 0.038944
#
#
# Mechanical properties :
#
#
# Convention : Reuss Voigt Hill
#
# Bulk Modulus (GPa) = 28.42856 50.44911 39.43883
# Shear Modulus (GPa) = 18.57464 23.01697 20.79581
#
# Velocity S-wave (km/s) = 3.59620 4.00320 3.80515
# Velocity P-wave (km/s) = 6.08580 7.51617 6.83849
#
# Compressibility (1/GPa) = 0.03517589
#
# Stress axis : x y z
#
# Youngs Moduli (GPa) = 19.43831 70.93210 49.46219
#
# Poissons Ratio (x) = 0.25877 0.67979
# Poissons Ratio (y) = 0.07091 0.39078
# Poissons Ratio (z) = 0.26715 0.56040
#
# Static dielectric constant tensor:
#      x y z
#    x 1.480200 0.000000 0.000000 
#    y 0.000000 1.488630 0.000000 
#    z 0.000000 0.000000 1.475130 
# 
# From -- ./inp_files/24419.got.cif
#   From: 2010.05.17/outbox.cif.g08.bks.cpg/sg46_13_cif.got.tgz:24419.got - 2010.06.03 19:58:25.
