data_PCOD9377198
_publ_section_title
;
Structure prediction by ZEFSAII (Michael W. Deem and Ramdas Pophale) SiO2 
 PCOD9377198
Probable space group: I B A 2
;
_chemical_formula_sum "Si O2"
_cell_formula_units_Z 40
_cell_length_a 9.347731
_cell_length_b 9.286864
_cell_length_c 21.054046
_cell_angle_alpha 90.000000
_cell_angle_beta 90.000000
_cell_angle_gamma 90.000000
_cell_volume 1827.725030
_symmetry_space_group_name_H-M "I B A 2"
_symmetry_group_IT_number 45
_symmetry_cell_setting 'orthorhombic'
loop_
_space_group_symop_operation_xyz
x,y,z
-x,-y,z
-x,y,1/2+z
x,-y,1/2+z
1/2+x,1/2+y,1/2+z
1/2-x,1/2-y,1/2+z
1/2-x,1/2+y,z
1/2+x,1/2-y,z
loop_
_atom_site_type_symbol
_atom_site_label
_atom_site_fract_x
_atom_site_fract_y
_atom_site_fract_z
Si Si1 0.108574 0.123265 0.942580
Si Si2 0.692564 0.542422 0.713497
Si Si3 0.872683 0.248929 0.140476
Si Si4 0.080413 0.354071 0.504298
Si Si5 0.500000 0.000000 0.712320
Si Si6 0.500000 0.500000 0.320374
O O1 0.267388 0.116326 0.970578
O O2 0.000000 0.000000 0.968845
O O3 0.099479 0.092153 0.867167
O O4 0.030541 0.271680 0.959000
O O5 0.731739 0.661570 0.661642
O O6 0.366394 0.596053 0.675239
O O7 0.594722 0.591087 0.771496
O O8 0.653724 0.000833 0.744838
O O9 0.888586 0.253683 0.065339
O O10 0.990911 0.357387 0.169134
O O11 0.000000 0.500000 0.524982
#
# Coordination Sequence:
#
# PCOD9377198 Si02
#       6
#     8   8   8   8   4   4
#     4  10  27  46  69 102 137 199 244 286 355 416
#     4  10  23  42  69  96 147 172 233 289 353 423
#     4  10  24  40  71 109 134 181 227 300 372 421
#     4  12  24  47  73 103 148 181 249 305 357 435
#     4   8  22  42  60 108 130 172 230 262 386 396
#     4  10  26  48  64 104 140 186 252 268 350 436
#
# _framework density 21.885131000000001
#
# number of rings (size 3 to 8) (size 9 to 14) (size 15 to 20)
#    1.800    0.000    1.000    1.200   11.200    1.600 
#    1.800    0.000    0.000    0.000    0.000    0.000 
#    0.000    0.000    0.000    0.000    0.000    0.000 
#
# Total GULP energy -111400.934389 kJ/mol
# GULP energy per Si atom -5570.046719 kJ/mol
# Density = 2.183532 g / cm^3
# Si number density = 21.885131 Si / 1000 Ang^3
#
#
#
# Elastic Constant Matrix: (Units=GPa)
#
#
# Indices 1 2 3 4 5 6 
#
# 1 131.9280 16.9869 40.8220 0.0000 0.0000 0.0000
# 2 16.9869 91.2151 18.6948 0.0000 0.0000 0.0000
# 3 40.8220 18.6948 112.0506 0.0000 0.0000 0.0000
# 4 0.0000 0.0000 0.0000 18.7373 0.0000 0.0000
# 5 0.0000 0.0000 0.0000 0.0000 10.6332 0.0000
# 6 0.0000 0.0000 0.0000 0.0000 0.0000 40.7487
#
#
#
# Elastic Compliance Matrix: (Units=1/GPa)
#
#
# Indices 1 2 3 4 5 6 
#
# 1 0.008630 -0.000997 -0.002978 0.000000 0.000000 0.000000
# 2 -0.000997 0.011466 -0.001550 0.000000 0.000000 0.000000
# 3 -0.002978 -0.001550 0.010268 0.000000 0.000000 0.000000
# 4 0.000000 0.000000 0.000000 0.053369 0.000000 0.000000
# 5 0.000000 0.000000 0.000000 0.000000 0.094045 0.000000
# 6 0.000000 0.000000 0.000000 0.000000 0.000000 0.024541
#
#
# Mechanical properties :
#
#
# Convention : Reuss Voigt Hill
#
# Bulk Modulus (GPa) = 51.77263 54.24458 53.00860
# Shear Modulus (GPa) = 22.74735 31.26985 27.00860
#
# Velocity S-wave (km/s) = 3.22747 3.78407 3.51680
# Velocity P-wave (km/s) = 6.13161 6.62813 6.38470
#
# Compressibility (1/GPa) = 0.01931523
#
# Stress axis : x y z
#
# Youngs Moduli (GPa) = 115.88037 87.21139 97.39062
#
# Poissons Ratio (x) = 0.08693 0.28999
# Poissons Ratio (y) = 0.11551 0.15095
# Poissons Ratio (z) = 0.34505 0.13517
#
# Static dielectric constant tensor:
#      x y z
#    x 1.924050 0.000000 0.000000 
#    y 0.000000 1.814560 0.000000 
#    z 0.000000 0.000000 1.735230 
# 
# From -- ./inp_files/9508.got.cif
#   From: 2010.05.17/outbox.cif.g08.bks.cpg/sg45_5_cif.got.tgz:9508.got - 2010.06.03 19:51:22.
