data_PCOD9377424
_publ_section_title
;
Structure prediction by ZEFSAII (Michael W. Deem and Ramdas Pophale) SiO2 
 PCOD9377424
Probable space group: I B A 2
;
_chemical_formula_sum "Si O2"
_cell_formula_units_Z 32
_cell_length_a 14.148948
_cell_length_b 9.486310
_cell_length_c 10.041243
_cell_angle_alpha 90.000000
_cell_angle_beta 90.000000
_cell_angle_gamma 90.000000
_cell_volume 1347.748758
_symmetry_space_group_name_H-M "I B A 2"
_symmetry_group_IT_number 45
_symmetry_cell_setting 'orthorhombic'
loop_
_space_group_symop_operation_xyz
x,y,z
-x,-y,z
-x,y,1/2+z
x,-y,1/2+z
1/2+x,1/2+y,1/2+z
1/2-x,1/2-y,1/2+z
1/2-x,1/2+y,z
1/2+x,1/2-y,z
loop_
_atom_site_type_symbol
_atom_site_label
_atom_site_fract_x
_atom_site_fract_y
_atom_site_fract_z
Si Si1 0.135038 0.577541 0.581800
Si Si2 0.609192 0.644329 0.481690
Si Si3 0.329079 0.448712 0.214151
Si Si4 0.943510 0.289214 0.069909
O O1 0.161731 0.703631 0.480690
O O2 0.218389 0.557240 0.684758
O O3 0.111375 0.426236 0.518018
O O4 0.036954 0.641883 0.639678
O O5 0.647657 0.544269 0.368329
O O6 0.627266 0.571637 0.623506
O O7 0.498782 0.686116 0.468425
O O8 0.378067 0.304524 0.162291
#
# Coordination Sequence:
#
# PCOD9377424 Si02
#       4
#     8   8   8   8
#     4   9  22  47  67 104 145 191 237 301 362 444
#     4  10  25  44  70 108 146 191 238 305 361 443
#     4  12  23  45  74 108 143 193 242 299 369 440
#     4   9  22  47  66 101 147 191 237 295 369 433
#
# _framework density 23.743297999999999
#
# number of rings (size 3 to 8) (size 9 to 14) (size 15 to 20)
#    1.500    0.500    0.000    2.250    0.000    8.000 
#   18.000    0.000    0.000    0.000    0.000    0.000 
#    0.000    0.000    0.000    0.000    0.000    0.000 
#
# Total GULP energy -89215.498771 kJ/mol
# GULP energy per Si atom -5575.968673 kJ/mol
# Density = 2.368926 g / cm^3
# Si number density = 23.743298 Si / 1000 Ang^3
#
#
#
# Elastic Constant Matrix: (Units=GPa)
#
#
# Indices 1 2 3 4 5 6 
#
# 1 98.7023 39.0328 23.0419 0.0000 0.0000 0.0000
# 2 39.0328 113.5446 23.6159 0.0000 0.0000 0.0000
# 3 23.0419 23.6159 75.2356 0.0000 0.0000 0.0000
# 4 0.0000 0.0000 0.0000 12.5671 0.0000 0.0000
# 5 0.0000 0.0000 0.0000 0.0000 11.7023 0.0000
# 6 0.0000 0.0000 0.0000 0.0000 0.0000 19.0066
#
#
#
# Elastic Compliance Matrix: (Units=1/GPa)
#
#
# Indices 1 2 3 4 5 6 
#
# 1 0.012178 -0.003649 -0.002584 0.000000 0.000000 0.000000
# 2 -0.003649 0.010516 -0.002183 0.000000 0.000000 0.000000
# 3 -0.002584 -0.002183 0.014768 0.000000 0.000000 0.000000
# 4 0.000000 0.000000 0.000000 0.079573 0.000000 0.000000
# 5 0.000000 0.000000 0.000000 0.000000 0.085453 0.000000
# 6 0.000000 0.000000 0.000000 0.000000 0.000000 0.052613
#
#
# Mechanical properties :
#
#
# Convention : Reuss Voigt Hill
#
# Bulk Modulus (GPa) = 48.47548 50.98486 49.73017
# Shear Modulus (GPa) = 17.93336 22.10799 20.02068
#
# Velocity S-wave (km/s) = 2.75126 3.05475 2.90696
# Velocity P-wave (km/s) = 5.52751 5.82769 5.67958
#
# Compressibility (1/GPa) = 0.02062899
#
# Stress axis : x y z
#
# Youngs Moduli (GPa) = 82.11717 95.09737 67.71234
#
# Poissons Ratio (x) = 0.34699 0.17499
# Poissons Ratio (y) = 0.29963 0.14783
# Poissons Ratio (z) = 0.21221 0.20762
#
# Static dielectric constant tensor:
#      x y z
#    x 1.942100 0.000000 0.000000 
#    y 0.000000 1.988020 0.000000 
#    z 0.000000 0.000000 1.895280 
# 
# From -- ./inp_files/3965.got.cif
#   From: 2010.05.17/outbox.cif.g08.bks.cpg/sg45_2_cif.got.tgz:3965.got - 2010.06.03 19:51:22.
