data_PCOD9377758
_publ_section_title
;
Structure prediction by ZEFSAII (Michael W. Deem and Ramdas Pophale) SiO2 
 PCOD9377758
Probable space group: I M A 2
;
_chemical_formula_sum "Si O2"
_cell_formula_units_Z 32
_cell_length_a 11.259218
_cell_length_b 6.937901
_cell_length_c 17.321778
_cell_angle_alpha 90.000000
_cell_angle_beta 90.000000
_cell_angle_gamma 90.000000
_cell_volume 1353.096575
_symmetry_space_group_name_H-M "I M A 2"
_symmetry_group_IT_number 46
_symmetry_cell_setting 'orthorhombic'
loop_
_space_group_symop_operation_xyz
x,y,z
-x,-y,z
1/2-x,y,z
1/2+x,-y,z
1/2+x,1/2+y,1/2+z
1/2-x,1/2-y,1/2+z
-x,1/2+y,1/2+z
x,1/2-y,1/2+z
loop_
_atom_site_type_symbol
_atom_site_label
_atom_site_fract_x
_atom_site_fract_y
_atom_site_fract_z
Si Si1 0.750000 0.764611 0.016940
Si Si2 0.493555 0.731492 0.531562
Si Si3 0.250000 0.675121 0.591794
Si Si4 0.250000 0.997575 0.261356
Si Si5 0.250000 0.379930 0.344374
Si Si6 0.621912 0.247861 0.374941
O O1 0.875127 0.693547 0.050348
O O2 0.750000 0.994714 0.032639
O O3 0.750000 0.758138 0.923730
O O4 0.500000 0.500000 0.538951
O O5 0.375202 0.782202 0.578731
O O6 0.473273 0.775486 0.440816
O O7 0.250000 0.573417 0.674781
O O8 0.364000 0.899547 0.304542
O O9 0.250000 0.224806 0.276667
O O10 0.359799 0.532010 0.345510
O O11 0.750000 0.211482 0.416832
#
# Coordination Sequence:
#
# PCOD9377758 Si02
#       6
#     4   8   4   4   4   8
#     4  10  19  30  61  79 110 158 195 229 289 336
#     4  10  15  33  60  86 105 155 201 231 278 352
#     4  10  16  32  57  83 120 151 191 236 291 349
#     4   9  20  31  59  95 117 146 187 244 300 338
#     4   9  15  35  55  85 119 143 187 247 276 345
#     4   8  16  33  58  85 110 153 190 237 289 337
#
# _framework density 23.649457000000002
#
# number of rings (size 3 to 8) (size 9 to 14) (size 15 to 20)
#    1.500    1.000    6.250    0.000    0.000    0.000 
#    0.000    8.750   11.000    0.000    0.000    0.000 
#    0.000    0.000    0.000    0.000    0.000    0.000 
#
# Total GULP energy -89082.162830 kJ/mol
# GULP energy per Si atom -5567.635177 kJ/mol
# Density = 2.359563 g / cm^3
# Si number density = 23.649457 Si / 1000 Ang^3
#
#
#
# Elastic Constant Matrix: (Units=GPa)
#
#
# Indices 1 2 3 4 5 6 
#
# 1 209.1963 25.5547 35.0202 0.0000 0.0000 0.0000
# 2 25.5547 134.5826 17.2762 0.0000 0.0000 0.0000
# 3 35.0202 17.2762 63.5626 0.0000 0.0000 0.0000
# 4 0.0000 0.0000 0.0000 5.2578 0.0000 0.0000
# 5 0.0000 0.0000 0.0000 0.0000 5.1526 0.0000
# 6 0.0000 0.0000 0.0000 0.0000 0.0000 -17.8826
#
#
#
# Elastic Compliance Matrix: (Units=1/GPa)
#
#
# Indices 1 2 3 4 5 6 
#
# 1 0.005321 -0.000657 -0.002753 0.000000 0.000000 0.000000
# 2 -0.000657 0.007780 -0.001753 0.000000 0.000000 0.000000
# 3 -0.002753 -0.001753 0.017726 0.000000 0.000000 0.000000
# 4 0.000000 0.000000 0.000000 0.190193 0.000000 0.000000
# 5 0.000000 0.000000 0.000000 0.000000 0.194077 0.000000
# 6 0.000000 0.000000 0.000000 0.000000 0.000000 -0.055920
#
#
# Mechanical properties :
#
#
# Convention : Reuss Voigt Hill
#
# Bulk Modulus (GPa) = 48.77697 62.56041 55.66869
# Shear Modulus (GPa) = 13.28597 20.47158 16.87878
#
# Velocity S-wave (km/s) = 2.37278 2.94534 2.67443
# Velocity P-wave (km/s) = 5.30816 6.17069 5.75560
#
# Compressibility (1/GPa) = 0.02050148
#
# Stress axis : x y z
#
# Youngs Moduli (GPa) = 187.92180 128.53274 56.41492
#
# Poissons Ratio (x) = 0.08445 0.15533
# Poissons Ratio (y) = 0.12346 0.09888
# Poissons Ratio (z) = 0.51740 0.22527
#
# Static dielectric constant tensor:
#      x y z
#    x 2.011380 0.000000 0.000000 
#    y 0.000000 1.922220 0.000000 
#    z 0.000000 0.000000 1.852970 
# 
# From -- ./inp_files/14893.got.cif
#   From: 2010.05.17/outbox.cif.g08.bks.cpg/sg46_8_cif.got.tgz:14893.got - 2010.06.03 19:58:25.
