data_PCOD9377310
_publ_section_title
;
Structure prediction by ZEFSAII (Michael W. Deem and Ramdas Pophale) SiO2 
 PCOD9377310
Probable space group: I B A 2
;
_chemical_formula_sum "Si O2"
_cell_formula_units_Z 40
_cell_length_a 8.787318
_cell_length_b 10.906583
_cell_length_c 17.281296
_cell_angle_alpha 90.000000
_cell_angle_beta 90.000000
_cell_angle_gamma 90.000000
_cell_volume 1656.232723
_symmetry_space_group_name_H-M "I B A 2"
_symmetry_group_IT_number 45
_symmetry_cell_setting 'orthorhombic'
loop_
_space_group_symop_operation_xyz
x,y,z
-x,-y,z
-x,y,1/2+z
x,-y,1/2+z
1/2+x,1/2+y,1/2+z
1/2-x,1/2-y,1/2+z
1/2-x,1/2+y,z
1/2+x,1/2-y,z
loop_
_atom_site_type_symbol
_atom_site_label
_atom_site_fract_x
_atom_site_fract_y
_atom_site_fract_z
Si Si1 0.164692 0.621360 0.547020
Si Si2 0.670676 0.858011 0.102717
Si Si3 0.187079 0.697308 0.375085
Si Si4 0.098781 0.378704 0.322560
Si Si5 0.825092 0.966930 0.248987
O O1 0.281473 0.726218 0.571412
O O2 0.219732 0.481439 0.555944
O O3 0.130268 0.650502 0.457420
O O4 0.011982 0.636159 0.597918
O O5 0.753001 0.879639 0.184355
O O6 0.284502 0.820556 0.383105
O O7 0.295363 0.599694 0.331368
O O8 0.041204 0.715925 0.319015
O O9 0.209323 0.416551 0.252664
O O10 0.000000 0.500000 0.339854
O O11 0.000000 0.000000 0.235981
#
# Coordination Sequence:
#
# PCOD9377310 Si02
#       5
#     8   8   8   8   8
#     4  11  28  49  78 114 157 209 260 325 404 474
#     4  11  29  49  76 113 162 207 260 326 405 479
#     4  11  24  45  80 109 153 205 266 326 398 473
#     4  10  24  42  75 110 153 193 260 330 391 466
#     4  11  27  46  76 112 154 206 270 325 398 480
#
# _framework density 24.151195000000001
#
# number of rings (size 3 to 8) (size 9 to 14) (size 15 to 20)
#    0.000    1.200    0.000    2.400   28.000    0.000 
#    0.000    0.000    0.000    0.000    0.000    0.000 
#    0.000    0.000    0.000    0.000    0.000    0.000 
#
# Total GULP energy -111629.874075 kJ/mol
# GULP energy per Si atom -5581.493704 kJ/mol
# Density = 2.409623 g / cm^3
# Si number density = 24.151195 Si / 1000 Ang^3
#
#
#
# Elastic Constant Matrix: (Units=GPa)
#
#
# Indices 1 2 3 4 5 6 
#
# 1 140.0765 37.5256 30.4167 0.0000 0.0000 0.0000
# 2 37.5256 108.1555 5.9121 0.0000 0.0000 0.0000
# 3 30.4167 5.9121 58.8767 0.0000 0.0000 0.0000
# 4 0.0000 0.0000 0.0000 44.0412 0.0000 0.0000
# 5 0.0000 0.0000 0.0000 0.0000 21.4688 0.0000
# 6 0.0000 0.0000 0.0000 0.0000 0.0000 52.6238
#
#
#
# Elastic Compliance Matrix: (Units=1/GPa)
#
#
# Indices 1 2 3 4 5 6 
#
# 1 0.008825 -0.002828 -0.004275 0.000000 0.000000 0.000000
# 2 -0.002828 0.010203 0.000437 0.000000 0.000000 0.000000
# 3 -0.004275 0.000437 0.019149 0.000000 0.000000 0.000000
# 4 0.000000 0.000000 0.000000 0.022706 0.000000 0.000000
# 5 0.000000 0.000000 0.000000 0.000000 0.046579 0.000000
# 6 0.000000 0.000000 0.000000 0.000000 0.000000 0.019003
#
#
# Mechanical properties :
#
#
# Convention : Reuss Voigt Hill
#
# Bulk Modulus (GPa) = 40.25100 50.53529 45.39315
# Shear Modulus (GPa) = 33.76539 39.17705 36.47122
#
# Velocity S-wave (km/s) = 3.74315 4.03197 3.89024
# Velocity P-wave (km/s) = 5.94845 6.53037 6.24619
#
# Compressibility (1/GPa) = 0.02484410
#
# Stress axis : x y z
#
# Youngs Moduli (GPa) = 113.31535 98.00697 52.22096
#
# Poissons Ratio (x) = 0.27718 0.22325
# Poissons Ratio (y) = 0.32048 -0.02280
# Poissons Ratio (z) = 0.48444 -0.04278
#
# Static dielectric constant tensor:
#      x y z
#    x 1.919100 0.000000 0.000000 
#    y 0.000000 2.071490 0.000000 
#    z 0.000000 0.000000 1.966010 
# 
# From -- ./inp_files/7439.got.cif
#   From: 2010.05.17/outbox.cif.g08.bks.cpg/sg45_4_cif.got.tgz:7439.got - 2010.06.03 19:51:22.
