data_PCOD9377142
_publ_section_title
;
Structure prediction by ZEFSAII (Michael W. Deem and Ramdas Pophale) SiO2 
 PCOD9377142
Probable space group: I B A 2
;
_chemical_formula_sum "Si O2"
_cell_formula_units_Z 32
_cell_length_a 5.590058
_cell_length_b 22.487797
_cell_length_c 9.056523
_cell_angle_alpha 90.000000
_cell_angle_beta 90.000000
_cell_angle_gamma 90.000000
_cell_volume 1138.478204
_symmetry_space_group_name_H-M "I B A 2"
_symmetry_group_IT_number 45
_symmetry_cell_setting 'orthorhombic'
loop_
_space_group_symop_operation_xyz
x,y,z
-x,-y,z
-x,y,1/2+z
x,-y,1/2+z
1/2+x,1/2+y,1/2+z
1/2-x,1/2-y,1/2+z
1/2-x,1/2+y,z
1/2+x,1/2-y,z
loop_
_atom_site_type_symbol
_atom_site_label
_atom_site_fract_x
_atom_site_fract_y
_atom_site_fract_z
Si Si1 0.982066 0.931272 0.375000
Si Si2 0.007194 0.761443 0.746911
Si Si3 0.206426 0.345455 0.087767
Si Si4 0.843240 0.440156 0.096001
O O1 0.809040 0.882674 0.450941
O O2 0.872106 0.942909 0.213920
O O3 0.241292 0.913839 0.441869
O O4 0.000000 0.000000 0.435842
O O5 0.762733 0.740621 0.825645
O O6 0.937898 0.825296 0.682925
O O7 0.052847 0.715298 0.611588
O O8 0.032320 0.393359 0.158425
O O9 0.000000 0.500000 0.077184
#
# Coordination Sequence:
#
# PCOD9377142 Si02
#       4
#     8   8   8   8
#     4  12  27  49  77 116 163 211 271 338 420 495
#     4   8  18  40  74 107 149 205 269 329 406 474
#     4  10  22  46  77 109 157 206 271 337 403 488
#     4  12  28  50  77 118 163 214 270 344 417 503
#
# _framework density 28.107697000000002
#
# number of rings (size 3 to 8) (size 9 to 14) (size 15 to 20)
#    1.500    0.000    2.500    2.250    3.500    0.000 
#    0.000    2.500    0.000    0.000    0.000    0.000 
#    0.000    0.000    0.000    0.000    0.000    0.000 
#
# Total GULP energy -89140.951383 kJ/mol
# GULP energy per Si atom -5571.309461 kJ/mol
# Density = 2.804372 g / cm^3
# Si number density = 28.107697 Si / 1000 Ang^3
#
#
#
# Elastic Constant Matrix: (Units=GPa)
#
#
# Indices 1 2 3 4 5 6 
#
# 1 210.1372 64.0953 101.2734 0.0002 0.0000 0.0000
# 2 64.0953 124.7780 31.9415 0.0012 0.0000 0.0000
# 3 101.2734 31.9415 157.2219 0.0049 0.0000 0.0002
# 4 0.0002 0.0012 0.0049 -54.5561 -0.0004 0.0007
# 5 0.0000 0.0000 0.0000 -0.0004 44.8078 0.0000
# 6 0.0000 0.0000 0.0002 0.0007 0.0000 65.6459
#
#
#
# Elastic Compliance Matrix: (Units=1/GPa)
#
#
# Indices 1 2 3 4 5 6 
#
# 1 0.007759 -0.002854 -0.004418 0.000000 0.000000 0.000000
# 2 -0.002854 0.009504 -0.000092 0.000000 0.000000 0.000000
# 3 -0.004418 -0.000092 0.009225 0.000001 0.000000 0.000000
# 4 0.000000 0.000000 0.000001 -0.018330 0.000000 0.000000
# 5 0.000000 0.000000 0.000000 0.000000 0.022318 0.000000
# 6 0.000000 0.000000 0.000000 0.000000 0.000000 0.015233
#
#
# Mechanical properties :
#
#
# Convention : Reuss Voigt Hill
#
# Bulk Modulus (GPa) = 85.04318 98.52862 91.78590
# Shear Modulus (GPa) = 77.69206 30.83465 54.26335
#
# Velocity S-wave (km/s) = 5.26316 3.31572 4.39857
# Velocity P-wave (km/s) = 8.20100 7.05611 7.65000
#
# Compressibility (1/GPa) = 0.01175873
#
# Stress axis : x y z
#
# Youngs Moduli (GPa) = 128.89076 105.21766 108.40375
#
# Poissons Ratio (x) = 0.30034 0.47889
# Poissons Ratio (y) = 0.36792 0.00999
# Poissons Ratio (z) = 0.56940 0.00970
#
# Static dielectric constant tensor:
#      x y z
#    x 2.294190 0.000000 0.000000 
#    y 0.000000 2.488380 0.000000 
#    z 0.000000 0.000000 2.162960 
# 
# From -- ./inp_files/2864.got.cif
#   From: 2010.05.17/outbox.cif.g08.bks.cpg/sg45_2_cif.got.tgz:2864.got - 2010.06.03 19:51:22.
