data_PCOD9377945
_publ_section_title
;
Structure prediction by ZEFSAII (Michael W. Deem and Ramdas Pophale) SiO2 
 PCOD9377945
Probable space group: I M A 2
;
_chemical_formula_sum "Si O2"
_cell_formula_units_Z 64
_cell_length_a 8.614163
_cell_length_b 19.269090
_cell_length_c 22.028841
_cell_angle_alpha 90.000000
_cell_angle_beta 90.000000
_cell_angle_gamma 90.000000
_cell_volume 3656.503040
_symmetry_space_group_name_H-M "I M A 2"
_symmetry_group_IT_number 46
_symmetry_cell_setting 'orthorhombic'
loop_
_space_group_symop_operation_xyz
x,y,z
-x,-y,z
1/2-x,y,z
1/2+x,-y,z
1/2+x,1/2+y,1/2+z
1/2-x,1/2-y,1/2+z
-x,1/2+y,1/2+z
x,1/2-y,1/2+z
loop_
_atom_site_type_symbol
_atom_site_label
_atom_site_fract_x
_atom_site_fract_y
_atom_site_fract_z
Si Si1 0.067745 0.426438 0.800610
Si Si2 0.935367 0.575400 0.130136
Si Si3 0.928229 0.318824 0.035038
Si Si4 0.438295 0.372517 0.260376
Si Si5 0.436508 0.425930 0.391708
Si Si6 0.062765 0.717081 0.437443
Si Si7 0.572736 0.066183 0.432186
Si Si8 0.061536 0.274759 0.810186
O O1 0.250000 0.428733 0.789362
O O2 0.009518 0.349098 0.783046
O O3 0.000000 0.500000 0.777844
O O4 0.031056 0.424759 0.872702
O O5 0.750000 0.570496 0.130509
O O6 0.993781 0.593690 0.198113
O O7 0.000000 0.500000 0.111915
O O8 0.983066 0.639184 0.086780
O O9 0.750000 0.307814 0.055033
O O10 0.990170 0.249740 0.001847
O O11 0.926442 0.370642 0.977536
O O12 0.250000 0.373557 0.258760
O O13 0.485778 0.412616 0.321442
O O14 0.484047 0.292058 0.270187
O O15 0.500000 0.500000 0.411862
O O16 0.250000 0.424203 0.394165
O O17 0.503994 0.360987 0.428475
O O18 0.250000 0.720371 0.436300
O O19 0.001448 0.759182 0.378120
O O20 0.750000 0.053307 0.412513
O O21 0.500000 0.000000 0.465309
O O22 0.250000 0.276010 0.814407
#
# Coordination Sequence:
#
# PCOD9377945 Si02
#       8
#     8   8   8   8   8   8   8   8
#     4  10  18  26  41  64  92 124 155 192 235 285
#     4  11  22  35  52  71  97 132 171 210 245 288
#     4  10  21  34  47  66  96 130 165 205 243 284
#     4   8  17  33  51  72  97 127 166 209 249 291
#     4  10  19  33  53  77 104 131 161 200 248 300
#     4  10  19  32  49  71  98 127 160 202 249 296
#     4  10  18  28  40  58  86 122 158 193 229 272
#     4   9  17  31  49  69  95 127 163 203 249 299
#
# _framework density 17.503062
#
# number of rings (size 3 to 8) (size 9 to 14) (size 15 to 20)
#    0.000    2.250    1.250    4.125    0.000    3.500 
#    0.000    5.625    0.000    0.000    0.000    0.875 
#    0.000    4.000    0.000    0.000    0.000    0.000 
#
# Total GULP energy -178257.181273 kJ/mol
# GULP energy per Si atom -5570.536915 kJ/mol
# Density = 1.746322 g / cm^3
# Si number density = 17.503062 Si / 1000 Ang^3
#
#
#
# Elastic Constant Matrix: (Units=GPa)
#
#
# Indices 1 2 3 4 5 6 
#
# 1 32.5658 25.7390 12.7460 0.0000 0.0000 0.0000
# 2 25.7390 138.2870 29.2006 0.0000 0.0000 0.0000
# 3 12.7460 29.2006 56.0191 0.0000 0.0000 0.0000
# 4 0.0000 0.0000 0.0000 18.8740 0.0000 0.0000
# 5 0.0000 0.0000 0.0000 0.0000 10.2728 0.0000
# 6 0.0000 0.0000 0.0000 0.0000 0.0000 22.6315
#
#
#
# Elastic Compliance Matrix: (Units=1/GPa)
#
#
# Indices 1 2 3 4 5 6 
#
# 1 0.037449 -0.005811 -0.005492 0.000000 0.000000 0.000000
# 2 -0.005811 0.009027 -0.003383 0.000000 0.000000 0.000000
# 3 -0.005492 -0.003383 0.020864 0.000000 0.000000 0.000000
# 4 0.000000 0.000000 0.000000 0.052983 0.000000 0.000000
# 5 0.000000 0.000000 0.000000 0.000000 0.097344 0.000000
# 6 0.000000 0.000000 0.000000 0.000000 0.000000 0.044186
#
#
# Mechanical properties :
#
#
# Convention : Reuss Voigt Hill
#
# Bulk Modulus (GPa) = 26.33753 40.24922 33.29338
# Shear Modulus (GPa) = 16.45371 20.96807 18.71089
#
# Velocity S-wave (km/s) = 3.06935 3.46492 3.27311
# Velocity P-wave (km/s) = 5.25749 6.24924 5.77470
#
# Compressibility (1/GPa) = 0.03796863
#
# Stress axis : x y z
#
# Youngs Moduli (GPa) = 26.70288 110.77497 47.92868
#
# Poissons Ratio (x) = 0.64367 0.26322
# Poissons Ratio (y) = 0.15516 0.16217
# Poissons Ratio (z) = 0.14665 0.37481
#
# Static dielectric constant tensor:
#      x y z
#    x 1.599130 0.000000 0.000000 
#    y 0.000000 1.676110 0.000000 
#    z 0.000000 0.000000 1.583960 
# 
# From -- ./inp_files/21444.got.cif
#   From: 2010.05.17/outbox.cif.g08.bks.cpg/sg46_11_cif.got.tgz:21444.got - 2010.06.03 19:58:25.
