data_PCOD9377962
_publ_section_title
;
Structure prediction by ZEFSAII (Michael W. Deem and Ramdas Pophale) SiO2 
 PCOD9377962
Probable space group: I M A 2
;
_chemical_formula_sum "Si O2"
_cell_formula_units_Z 64
_cell_length_a 8.413112
_cell_length_b 19.391704
_cell_length_c 22.074942
_cell_angle_alpha 90.000000
_cell_angle_beta 90.000000
_cell_angle_gamma 90.000000
_cell_volume 3601.407089
_symmetry_space_group_name_H-M "I M A 2"
_symmetry_group_IT_number 46
_symmetry_cell_setting 'orthorhombic'
loop_
_space_group_symop_operation_xyz
x,y,z
-x,-y,z
1/2-x,y,z
1/2+x,-y,z
1/2+x,1/2+y,1/2+z
1/2-x,1/2-y,1/2+z
-x,1/2+y,1/2+z
x,1/2-y,1/2+z
loop_
_atom_site_type_symbol
_atom_site_label
_atom_site_fract_x
_atom_site_fract_y
_atom_site_fract_z
Si Si1 0.940116 0.074891 0.700000
Si Si2 0.557334 0.275356 0.619394
Si Si3 0.559274 0.783632 0.747453
Si Si4 0.558305 0.370773 0.068217
Si Si5 0.934001 0.073427 0.257012
Si Si6 0.432789 0.925857 0.110852
Si Si7 0.560747 0.576605 0.940797
Si Si8 0.934015 0.682108 0.842119
O O1 0.750000 0.078112 0.702403
O O2 0.988022 0.090252 0.630118
O O3 0.009309 0.137527 0.738830
O O4 0.000000 0.000000 0.718221
O O5 0.750000 0.278636 0.620837
O O6 0.505150 0.256708 0.687969
O O7 0.512413 0.209444 0.578601
O O8 0.496599 0.349961 0.596538
O O9 0.750000 0.777845 0.746658
O O10 0.498061 0.750801 0.810673
O O11 0.750000 0.374034 0.062758
O O12 0.482683 0.404524 0.009470
O O13 0.750000 0.084288 0.275174
O O14 0.938365 0.074271 0.184299
O O15 0.048050 0.129375 0.286180
O O16 0.000000 0.000000 0.277343
O O17 0.250000 0.925102 0.091341
O O18 0.500000 0.000000 0.090862
O O19 0.500000 0.500000 0.925968
O O20 0.750000 0.575151 0.933111
O O21 0.495190 0.638134 0.897662
O O22 0.750000 0.695713 0.857201
#
# Coordination Sequence:
#
# PCOD9377962 Si02
#       8
#     8   8   8   8   8   8   8   8
#     4  10  20  34  53  77 104 130 160 200 250 301
#     4   9  17  32  49  69  97 128 163 204 251 298
#     4  10  19  31  49  72  98 127 162 201 247 298
#     4   9  19  34  53  73  96 128 167 209 249 292
#     4  10  18  27  42  62  89 125 162 196 233 279
#     4   9  17  27  41  64  94 125 156 192 236 285
#     4  11  23  37  51  70  99 133 173 211 245 285
#     4  10  21  34  47  67  96 130 166 205 242 284
#
# _framework density 17.770831999999999
#
# number of rings (size 3 to 8) (size 9 to 14) (size 15 to 20)
#    0.000    2.250    1.250    3.000    0.000    7.000 
#    0.000    0.000    0.000    0.000    0.000    0.875 
#    0.000    4.000    0.000    0.000    0.000    0.125 
#
# Total GULP energy -178287.374322 kJ/mol
# GULP energy per Si atom -5571.480448 kJ/mol
# Density = 1.773038 g / cm^3
# Si number density = 17.770832 Si / 1000 Ang^3
#
#
#
# Elastic Constant Matrix: (Units=GPa)
#
#
# Indices 1 2 3 4 5 6 
#
# 1 17.4482 12.0234 7.7298 0.0000 0.0000 0.0000
# 2 12.0234 140.7260 32.4867 0.0000 0.0000 0.0000
# 3 7.7298 32.4867 58.0841 0.0000 0.0000 0.0000
# 4 0.0000 0.0000 0.0000 19.3620 0.0000 0.0000
# 5 0.0000 0.0000 0.0000 0.0000 9.7774 0.0000
# 6 0.0000 0.0000 0.0000 0.0000 0.0000 23.7363
#
#
#
# Elastic Compliance Matrix: (Units=1/GPa)
#
#
# Indices 1 2 3 4 5 6 
#
# 1 0.062752 -0.003943 -0.006146 0.000000 0.000000 0.000000
# 2 -0.003943 0.008407 -0.004178 0.000000 0.000000 0.000000
# 3 -0.006146 -0.004178 0.020371 0.000000 0.000000 0.000000
# 4 0.000000 0.000000 0.000000 0.051648 0.000000 0.000000
# 5 0.000000 0.000000 0.000000 0.000000 0.102276 0.000000
# 6 0.000000 0.000000 0.000000 0.000000 0.000000 0.042130
#
#
# Mechanical properties :
#
#
# Convention : Reuss Voigt Hill
#
# Bulk Modulus (GPa) = 15.87348 35.63754 25.75551
# Shear Modulus (GPa) = 14.83173 21.50970 18.17072
#
# Velocity S-wave (km/s) = 2.89210 3.48285 3.20113
# Velocity P-wave (km/s) = 4.48375 6.02255 5.30920
#
# Compressibility (1/GPa) = 0.06299817
#
# Stress axis : x y z
#
# Youngs Moduli (GPa) = 15.93569 118.94497 49.08981
#
# Poissons Ratio (x) = 0.46896 0.30170
# Poissons Ratio (y) = 0.06283 0.20507
# Poissons Ratio (z) = 0.09794 0.49690
#
# Static dielectric constant tensor:
#      x y z
#    x 1.624520 0.000000 0.000000 
#    y 0.000000 1.663280 0.000000 
#    z 0.000000 0.000000 1.597530 
# 
# From -- ./inp_files/21342.got.cif
#   From: 2010.05.17/outbox.cif.g08.bks.cpg/sg46_11_cif.got.tgz:21342.got - 2010.06.03 19:58:25.
