data_PCOD9377442
_publ_section_title
;
Structure prediction by ZEFSAII (Michael W. Deem and Ramdas Pophale) SiO2 
 PCOD9377442
Probable space group: I B A 2
;
_chemical_formula_sum "Si O2"
_cell_formula_units_Z 64
_cell_length_a 23.140131
_cell_length_b 11.392965
_cell_length_c 10.530014
_cell_angle_alpha 90.000000
_cell_angle_beta 90.000000
_cell_angle_gamma 90.000000
_cell_volume 2776.077109
_symmetry_space_group_name_H-M "I B A 2"
_symmetry_group_IT_number 45
_symmetry_cell_setting 'orthorhombic'
loop_
_space_group_symop_operation_xyz
x,y,z
-x,-y,z
-x,y,1/2+z
x,-y,1/2+z
1/2+x,1/2+y,1/2+z
1/2-x,1/2-y,1/2+z
1/2-x,1/2+y,z
1/2+x,1/2-y,z
loop_
_atom_site_type_symbol
_atom_site_label
_atom_site_fract_x
_atom_site_fract_y
_atom_site_fract_z
Si Si1 0.143217 0.152777 0.048900
Si Si2 0.274770 0.443819 0.965665
Si Si3 0.376933 0.116799 0.816743
Si Si4 0.935875 0.137175 0.792368
Si Si5 0.275443 0.736601 0.261972
Si Si6 0.071799 0.125928 0.822514
Si Si7 0.145583 0.504739 0.058310
Si Si8 0.839374 0.229756 0.148098
O O1 0.095512 0.120825 0.156161
O O2 0.190315 0.226621 0.128850
O O3 0.103444 0.198670 0.934007
O O4 0.184238 0.053072 0.991377
O O5 0.276409 0.393611 0.822753
O O6 0.210884 0.464673 0.022417
O O7 0.306457 0.337777 0.037875
O O8 0.410519 0.238977 0.840683
O O9 0.310169 0.159081 0.829771
O O10 0.382810 0.070149 0.672527
O O11 0.387518 0.019353 0.923891
O O12 0.004705 0.148552 0.797312
O O13 0.922710 0.012400 0.858968
O O14 0.209120 0.768857 0.256950
O O15 0.105884 0.158579 0.695461
O O16 0.147987 0.637177 0.112156
#
# Coordination Sequence:
#
# PCOD9377442 Si02
#       8
#     8   8   8   8   8   8   8   8
#     4  11  23  42  70 101 145 182 230 299 366 430
#     4  12  24  41  66 103 148 184 235 292 361 446
#     4  11  25  46  72 103 148 194 246 303 360 437
#     4  10  25  49  71 108 138 191 244 309 361 430
#     4  11  24  41  66 103 142 186 232 291 368 432
#     4  11  26  44  77 107 143 187 245 303 369 434
#     4  12  26  42  70 108 149 196 242 296 373 445
#     4  12  25  42  68 107 143 190 236 291 365 440
#
# _framework density 23.054116
#
# number of rings (size 3 to 8) (size 9 to 14) (size 15 to 20)
#    0.000    0.750    5.000    2.250    3.500    5.000 
#    0.000    0.625    0.000    3.000    0.000    0.000 
#    0.000    0.000    0.000    0.000    0.000    0.000 
#
# Total GULP energy -178719.732580 kJ/mol
# GULP energy per Si atom -5584.991643 kJ/mol
# Density = 2.300164 g / cm^3
# Si number density = 23.054116 Si / 1000 Ang^3
#
#
#
# Elastic Constant Matrix: (Units=GPa)
#
#
# Indices 1 2 3 4 5 6 
#
# 1 113.5786 29.7772 37.8101 0.0000 0.0000 0.0000
# 2 29.7772 103.8812 28.9432 0.0000 0.0000 0.0000
# 3 37.8101 28.9432 82.4261 0.0000 0.0000 0.0000
# 4 0.0000 0.0000 0.0000 35.6425 0.0000 0.0000
# 5 0.0000 0.0000 0.0000 0.0000 16.8518 0.0000
# 6 0.0000 0.0000 0.0000 0.0000 0.0000 26.1208
#
#
#
# Elastic Compliance Matrix: (Units=1/GPa)
#
#
# Indices 1 2 3 4 5 6 
#
# 1 0.010715 -0.001886 -0.004253 0.000000 0.000000 0.000000
# 2 -0.001886 0.011002 -0.002998 0.000000 0.000000 0.000000
# 3 -0.004253 -0.002998 0.015136 0.000000 0.000000 0.000000
# 4 0.000000 0.000000 0.000000 0.028056 0.000000 0.000000
# 5 0.000000 0.000000 0.000000 0.000000 0.059341 0.000000
# 6 0.000000 0.000000 0.000000 0.000000 0.000000 0.038284
#
#
# Mechanical properties :
#
#
# Convention : Reuss Voigt Hill
#
# Bulk Modulus (GPa) = 53.82577 54.77189 54.29883
# Shear Modulus (GPa) = 26.73788 29.28006 28.00897
#
# Velocity S-wave (km/s) = 3.40926 3.56765 3.48936
# Velocity P-wave (km/s) = 6.23664 6.38595 6.31174
#
# Compressibility (1/GPa) = 0.01857846
#
# Stress axis : x y z
#
# Youngs Moduli (GPa) = 93.32933 90.88888 66.06964
#
# Poissons Ratio (x) = 0.17146 0.28097
# Poissons Ratio (y) = 0.17606 0.19808
# Poissons Ratio (z) = 0.39689 0.27249
#
# Static dielectric constant tensor:
#      x y z
#    x 1.811990 0.000000 0.000000 
#    y 0.000000 1.875780 0.000000 
#    z 0.000000 0.000000 1.968690 
# 
# From -- ./inp_files/4811.got.cif
#   From: 2010.05.17/outbox.cif.g08.bks.cpg/sg45_3_cif.got.tgz:4811.got - 2010.06.03 19:51:22.
