data_PCOD9377721
_publ_section_title
;
Structure prediction by ZEFSAII (Michael W. Deem and Ramdas Pophale) SiO2 
 PCOD9377721
Probable space group: I B A 2
;
_chemical_formula_sum "Si O2"
_cell_formula_units_Z 64
_cell_length_a 12.741727
_cell_length_b 16.391817
_cell_length_c 12.085850
_cell_angle_alpha 90.000000
_cell_angle_beta 90.000000
_cell_angle_gamma 90.000000
_cell_volume 2524.251323
_symmetry_space_group_name_H-M "I B A 2"
_symmetry_group_IT_number 45
_symmetry_cell_setting 'orthorhombic'
loop_
_space_group_symop_operation_xyz
x,y,z
-x,-y,z
-x,y,1/2+z
x,-y,1/2+z
1/2+x,1/2+y,1/2+z
1/2-x,1/2-y,1/2+z
1/2-x,1/2+y,z
1/2+x,1/2-y,z
loop_
_atom_site_type_symbol
_atom_site_label
_atom_site_fract_x
_atom_site_fract_y
_atom_site_fract_z
Si Si1 0.322912 0.356033 0.857030
Si Si2 0.525041 0.094960 0.230698
Si Si3 0.346482 0.900940 0.435446
Si Si4 0.699631 0.932790 0.552853
Si Si5 0.114671 0.035628 0.151696
Si Si6 0.709816 0.305558 0.801717
Si Si7 0.394614 0.777250 0.614729
Si Si8 0.039878 0.169435 0.979099
O O1 0.332181 0.415033 0.751892
O O2 0.296942 0.264732 0.816735
O O3 0.434894 0.360602 0.917619
O O4 0.236171 0.380149 0.947835
O O5 0.553934 0.111546 0.357591
O O6 0.618945 0.106380 0.140496
O O7 0.429705 0.152588 0.198402
O O8 0.500000 0.000000 0.223146
O O9 0.254372 0.891758 0.344829
O O10 0.333984 0.826079 0.519888
O O11 0.350950 0.984911 0.500104
O O12 0.804690 0.967224 0.611207
O O13 0.093601 0.097546 0.049419
O O14 0.000000 0.000000 0.183286
O O15 0.669228 0.291865 0.678260
O O16 0.613788 0.293319 0.885627
O O17 0.497571 0.736200 0.564569
#
# Coordination Sequence:
#
# PCOD9377721 Si02
#       8
#     8   8   8   8   8   8   8   8
#     4  12  28  45  76 110 147 203 250 317 388 456
#     4  12  29  47  77 113 154 204 252 319 387 466
#     4  12  27  47  77 111 153 204 258 316 390 463
#     4  12  26  50  74 110 151 201 255 319 386 460
#     4  12  27  47  76 111 151 198 259 319 388 461
#     4  12  28  49  77 110 154 197 255 317 385 460
#     4  12  27  49  74 110 152 203 254 317 385 466
#     4  12  26  48  75 109 148 197 254 321 382 456
#
# _framework density 25.354053
#
# number of rings (size 3 to 8) (size 9 to 14) (size 15 to 20)
#    0.000    0.000    5.000    3.750    8.750    2.000 
#    0.000    0.000    0.000    0.000    0.000    0.000 
#    0.000    0.000    0.000    0.000    0.000    0.000 
#
# Total GULP energy -179464.275718 kJ/mol
# GULP energy per Si atom -5608.258616 kJ/mol
# Density = 2.529635 g / cm^3
# Si number density = 25.354053 Si / 1000 Ang^3
#
#
#
# Elastic Constant Matrix: (Units=GPa)
#
#
# Indices 1 2 3 4 5 6 
#
# 1 53.4002 4.2180 27.6073 0.0000 0.0000 0.0000
# 2 4.2180 76.8539 28.9513 0.0000 0.0000 0.0000
# 3 27.6073 28.9513 127.3357 0.0000 0.0000 0.0000
# 4 0.0000 0.0000 0.0000 51.3776 0.0000 0.0000
# 5 0.0000 0.0000 0.0000 0.0000 40.6494 0.0000
# 6 0.0000 0.0000 0.0000 0.0000 0.0000 45.1756
#
#
#
# Elastic Compliance Matrix: (Units=1/GPa)
#
#
# Indices 1 2 3 4 5 6 
#
# 1 0.021117 0.000619 -0.004719 0.000000 0.000000 0.000000
# 2 0.000619 0.014249 -0.003374 0.000000 0.000000 0.000000
# 3 -0.004719 -0.003374 0.009643 0.000000 0.000000 0.000000
# 4 0.000000 0.000000 0.000000 0.019464 0.000000 0.000000
# 5 0.000000 0.000000 0.000000 0.000000 0.024601 0.000000
# 6 0.000000 0.000000 0.000000 0.000000 0.000000 0.022136
#
#
# Mechanical properties :
#
#
# Convention : Reuss Voigt Hill
#
# Bulk Modulus (GPa) = 33.26540 42.12698 37.69619
# Shear Modulus (GPa) = 36.71658 40.56140 38.63899
#
# Velocity S-wave (km/s) = 3.80959 4.00409 3.90805
# Velocity P-wave (km/s) = 5.70083 6.16673 5.93835
#
# Compressibility (1/GPa) = 0.03006126
#
# Stress axis : x y z
#
# Youngs Moduli (GPa) = 47.35445 70.18203 103.69737
#
# Poissons Ratio (x) = -0.04342 0.48935
# Poissons Ratio (y) = -0.02930 0.34985
# Poissons Ratio (z) = 0.22347 0.23678
#
# Static dielectric constant tensor:
#      x y z
#    x 2.015490 0.000000 0.000000 
#    y 0.000000 1.958080 0.000000 
#    z 0.000000 0.000000 1.996270 
# 
# From -- ./inp_files/4264.got.cif
#   From: 2010.05.17/outbox.cif.g08.bks.cpg/sg45_3_cif.got.tgz:4264.got - 2010.06.03 19:51:22.
