data_PCOD9377666
_publ_section_title
;
Structure prediction by ZEFSAII (Michael W. Deem and Ramdas Pophale) SiO2 
 PCOD9377666
Probable space group: I B A 2
;
_chemical_formula_sum "Si O2"
_cell_formula_units_Z 60
_cell_length_a 24.728770
_cell_length_b 9.477000
_cell_length_c 11.912754
_cell_angle_alpha 90.000000
_cell_angle_beta 90.000000
_cell_angle_gamma 90.000000
_cell_volume 2791.808142
_symmetry_space_group_name_H-M "I B A 2"
_symmetry_group_IT_number 45
_symmetry_cell_setting 'orthorhombic'
loop_
_space_group_symop_operation_xyz
x,y,z
-x,-y,z
-x,y,1/2+z
x,-y,1/2+z
1/2+x,1/2+y,1/2+z
1/2-x,1/2-y,1/2+z
1/2-x,1/2+y,z
1/2+x,1/2-y,z
loop_
_atom_site_type_symbol
_atom_site_label
_atom_site_fract_x
_atom_site_fract_y
_atom_site_fract_z
Si Si1 0.096625 0.602850 0.704940
Si Si2 0.604349 0.255372 0.445190
Si Si3 0.000000 0.000000 0.231704
Si Si4 0.007201 0.251423 0.067067
Si Si5 0.851963 0.322878 0.297526
Si Si6 0.414426 0.565137 0.905693
Si Si7 0.193547 0.631373 0.534532
Si Si8 0.710801 0.169883 0.580538
O O1 0.101133 0.696463 0.817888
O O2 0.041881 0.632532 0.634658
O O3 0.107917 0.439720 0.741169
O O4 0.143621 0.651799 0.619123
O O5 0.547298 0.207682 0.501624
O O6 0.610632 0.426107 0.462908
O O7 0.656928 0.192301 0.506084
O O8 0.949812 0.985471 0.312861
O O9 0.990023 0.136510 0.158493
O O10 0.046942 0.160788 0.984813
O O11 0.877760 0.178160 0.342057
O O12 0.827871 0.392221 0.409341
O O13 0.806574 0.288690 0.205906
O O14 0.236982 0.753583 0.534860
O O15 0.223338 0.494520 0.580165
#
# Coordination Sequence:
#
# PCOD9377666 Si02
#       8
#     8   8   4   8   8   8   8   8
#     4  11  25  49  73 103 154 194 242 311 378 448
#     4  12  24  44  74 110 147 190 250 306 366 457
#     4  12  20  40  62 104 148 182 238 290 340 434
#     4  12  22  42  73 104 145 195 244 299 371 441
#     4  11  26  48  72 107 148 186 246 305 369 453
#     4  12  23  40  70 104 142 191 239 299 353 433
#     4  11  26  49  74 104 147 190 246 310 370 449
#     4  11  28  46  74 107 142 189 246 304 376 442
#
# _framework density 21.49145
#
# number of rings (size 3 to 8) (size 9 to 14) (size 15 to 20)
#    0.000    0.533    6.667    0.800    3.733    1.067 
#    0.000   14.667    0.000    0.000    0.000    0.000 
#    0.000    0.000    0.000    0.000    0.000    0.000 
#
# Total GULP energy -167596.547509 kJ/mol
# GULP energy per Si atom -5586.551584 kJ/mol
# Density = 2.144253 g / cm^3
# Si number density = 21.491450 Si / 1000 Ang^3
#
#
#
# Elastic Constant Matrix: (Units=GPa)
#
#
# Indices 1 2 3 4 5 6 
#
# 1 60.6095 32.4180 27.1829 0.0000 0.0000 0.0000
# 2 32.4180 52.4938 6.0048 0.0000 0.0000 0.0000
# 3 27.1829 6.0048 115.1561 0.0000 0.0000 0.0000
# 4 0.0000 0.0000 0.0000 44.8028 0.0000 0.0000
# 5 0.0000 0.0000 0.0000 0.0000 12.0823 0.0000
# 6 0.0000 0.0000 0.0000 0.0000 0.0000 20.9761
#
#
#
# Elastic Compliance Matrix: (Units=1/GPa)
#
#
# Indices 1 2 3 4 5 6 
#
# 1 0.027952 -0.016606 -0.005732 0.000000 0.000000 0.000000
# 2 -0.016606 0.029030 0.002406 0.000000 0.000000 0.000000
# 3 -0.005732 0.002406 0.009912 0.000000 0.000000 0.000000
# 4 0.000000 0.000000 0.000000 0.022320 0.000000 0.000000
# 5 0.000000 0.000000 0.000000 0.000000 0.082766 0.000000
# 6 0.000000 0.000000 0.000000 0.000000 0.000000 0.047673
#
#
# Mechanical properties :
#
#
# Convention : Reuss Voigt Hill
#
# Bulk Modulus (GPa) = 36.99748 39.94120 38.46934
# Shear Modulus (GPa) = 18.62008 26.41582 22.51795
#
# Velocity S-wave (km/s) = 2.94665 3.50970 3.24043
# Velocity P-wave (km/s) = 5.36930 5.92022 5.65148
#
# Compressibility (1/GPa) = 0.02702887
#
# Stress axis : x y z
#
# Youngs Moduli (GPa) = 35.77546 34.44709 100.89287
#
# Poissons Ratio (x) = 0.57204 0.57834
# Poissons Ratio (y) = 0.59410 -0.24277
# Poissons Ratio (z) = 0.20507 -0.08289
#
# Static dielectric constant tensor:
#      x y z
#    x 1.842230 0.000000 0.000000 
#    y 0.000000 1.787340 0.000000 
#    z 0.000000 0.000000 1.784140 
# 
# From -- ./inp_files/4896.got.cif
#   From: 2010.05.17/outbox.cif.g08.bks.cpg/sg45_3_cif.got.tgz:4896.got - 2010.06.03 19:51:22.
