data_PCOD9377688
_publ_section_title
;
Structure prediction by ZEFSAII (Michael W. Deem and Ramdas Pophale) SiO2 
 PCOD9377688
Probable space group: I B A 2
;
_chemical_formula_sum "Si O2"
_cell_formula_units_Z 48
_cell_length_a 8.621716
_cell_length_b 17.015118
_cell_length_c 14.178694
_cell_angle_alpha 90.000000
_cell_angle_beta 90.000000
_cell_angle_gamma 90.000000
_cell_volume 2080.007535
_symmetry_space_group_name_H-M "I B A 2"
_symmetry_group_IT_number 45
_symmetry_cell_setting 'orthorhombic'
loop_
_space_group_symop_operation_xyz
x,y,z
-x,-y,z
-x,y,1/2+z
x,-y,1/2+z
1/2+x,1/2+y,1/2+z
1/2-x,1/2-y,1/2+z
1/2-x,1/2+y,z
1/2+x,1/2-y,z
loop_
_atom_site_type_symbol
_atom_site_label
_atom_site_fract_x
_atom_site_fract_y
_atom_site_fract_z
Si Si1 0.611679 0.305005 0.271610
Si Si2 0.572812 0.846877 0.210576
Si Si3 0.906802 0.926406 0.886457
Si Si4 0.118727 0.652235 0.533146
Si Si5 0.207061 0.286768 0.458138
Si Si6 0.353122 0.960167 0.880078
O O1 0.498437 0.238883 0.231600
O O2 0.742092 0.334823 0.198885
O O3 0.516048 0.378055 0.314907
O O4 0.699815 0.260752 0.358790
O O5 0.459326 0.877994 0.128841
O O6 0.577300 0.905469 0.298880
O O7 0.824897 0.859717 0.949385
O O8 0.763513 0.974746 0.841179
O O9 0.000000 0.000000 0.930904
O O10 0.234469 0.725810 0.536672
O O11 0.208775 0.591447 0.466539
O O12 0.966125 0.684252 0.478234
O O13 0.500000 0.000000 0.927607
#
# Coordination Sequence:
#
# PCOD9377688 Si02
#       6
#     8   8   8   8   8   8
#     4  12  21  44  73 103 137 191 247 297 357 429
#     4  12  25  43  72 101 137 188 245 300 351 431
#     4  12  22  39  75  98 139 191 234 298 369 429
#     4  12  25  43  72 101 138 188 248 294 358 433
#     4  12  21  44  71  98 135 187 244 294 350 427
#     4  12  24  43  69 100 142 185 228 297 375 435
#
# _framework density 23.076841000000002
#
# number of rings (size 3 to 8) (size 9 to 14) (size 15 to 20)
#    0.000    0.000   10.000    1.000    0.000    0.667 
#    0.000    0.000    7.333    0.000    0.000    0.000 
#    0.000    0.000    0.000    0.000    0.000    0.000 
#
# Total GULP energy -133942.163534 kJ/mol
# GULP energy per Si atom -5580.923481 kJ/mol
# Density = 2.302432 g / cm^3
# Si number density = 23.076841 Si / 1000 Ang^3
#
#
#
# Elastic Constant Matrix: (Units=GPa)
#
#
# Indices 1 2 3 4 5 6 
#
# 1 94.5275 30.0200 7.2800 0.0000 0.0000 0.0000
# 2 30.0200 117.9579 25.1184 0.0000 0.0000 0.0000
# 3 7.2800 25.1184 79.9123 0.0000 0.0000 0.0000
# 4 0.0000 0.0000 0.0000 8.1438 0.0000 0.0000
# 5 0.0000 0.0000 0.0000 0.0000 23.2533 0.0000
# 6 0.0000 0.0000 0.0000 0.0000 0.0000 55.4157
#
#
#
# Elastic Compliance Matrix: (Units=1/GPa)
#
#
# Indices 1 2 3 4 5 6 
#
# 1 0.011511 -0.002900 -0.000137 0.000000 0.000000 0.000000
# 2 -0.002900 0.009816 -0.002821 0.000000 0.000000 0.000000
# 3 -0.000137 -0.002821 0.013413 0.000000 0.000000 0.000000
# 4 0.000000 0.000000 0.000000 0.122792 0.000000 0.000000
# 5 0.000000 0.000000 0.000000 0.000000 0.043005 0.000000
# 6 0.000000 0.000000 0.000000 0.000000 0.000000 0.018045
#
#
# Mechanical properties :
#
#
# Convention : Reuss Voigt Hill
#
# Bulk Modulus (GPa) = 43.43502 46.35938 44.89720
# Shear Modulus (GPa) = 21.01072 32.69453 26.85263
#
# Velocity S-wave (km/s) = 3.02067 3.76808 3.41489
# Velocity P-wave (km/s) = 5.57034 6.25012 5.92000
#
# Compressibility (1/GPa) = 0.02302289
#
# Stress axis : x y z
#
# Youngs Moduli (GPa) = 86.87697 101.86945 74.55443
#
# Poissons Ratio (x) = 0.29544 0.01021
# Poissons Ratio (y) = 0.25196 0.21034
# Poissons Ratio (z) = 0.01190 0.28741
#
# Static dielectric constant tensor:
#      x y z
#    x 1.891810 0.000000 0.000000 
#    y 0.000000 1.912520 0.000000 
#    z 0.000000 0.000000 1.899780 
# 
# From -- ./inp_files/5608.got.cif
#   From: 2010.05.17/outbox.cif.g08.bks.cpg/sg45_3_cif.got.tgz:5608.got - 2010.06.03 19:51:22.
