data_PCOD9377098
_publ_section_title
;
Structure prediction by ZEFSAII (Michael W. Deem and Ramdas Pophale) SiO2 
 PCOD9377098
Probable space group: I B A 2
;
_chemical_formula_sum "Si O2"
_cell_formula_units_Z 60
_cell_length_a 9.446124
_cell_length_b 14.498301
_cell_length_c 20.644644
_cell_angle_alpha 90.000000
_cell_angle_beta 90.000000
_cell_angle_gamma 90.000000
_cell_volume 2827.340749
_symmetry_space_group_name_H-M "I B A 2"
_symmetry_group_IT_number 45
_symmetry_cell_setting 'orthorhombic'
loop_
_space_group_symop_operation_xyz
x,y,z
-x,-y,z
-x,y,1/2+z
x,-y,1/2+z
1/2+x,1/2+y,1/2+z
1/2-x,1/2-y,1/2+z
1/2-x,1/2+y,z
1/2+x,1/2-y,z
loop_
_atom_site_type_symbol
_atom_site_label
_atom_site_fract_x
_atom_site_fract_y
_atom_site_fract_z
Si Si1 0.212553 0.761316 0.219890
Si Si2 0.773612 0.648567 0.995237
Si Si3 0.163642 0.400482 0.129787
Si Si4 0.831795 0.608020 0.610736
Si Si5 0.955627 0.724359 0.430844
Si Si6 0.000000 0.000000 0.880063
Si Si7 0.242358 0.563646 0.967431
Si Si8 0.049741 0.180680 0.301215
O O1 0.310833 0.843868 0.194124
O O2 0.201212 0.688466 0.161011
O O3 0.296756 0.711094 0.276887
O O4 0.064627 0.804010 0.244142
O O5 0.641924 0.693992 0.959078
O O6 0.908809 0.708262 0.975407
O O7 0.745080 0.643156 0.071665
O O8 0.806418 0.542444 0.976331
O O9 0.202223 0.506961 0.139059
O O10 0.002629 0.392645 0.104163
O O11 0.757464 0.608053 0.540102
O O12 0.863614 0.630886 0.430092
O O13 0.998402 0.752320 0.359109
O O14 0.056738 0.920528 0.832377
O O15 0.885954 0.950335 0.927041
#
# Coordination Sequence:
#
# PCOD9377098 Si02
#       8
#     8   8   8   8   8   4   8   8
#     4  12  25  48  66 101 136 194 235 282 346 423
#     4  11  23  41  71 105 136 175 228 296 363 415
#     4  10  22  43  70 101 134 178 233 291 348 420
#     4  10  22  46  71  99 138 177 233 291 351 424
#     4  12  23  44  69 101 140 183 229 288 354 428
#     4  12  26  48  68 108 144 180 236 308 350 420
#     4  11  23  45  73 104 141 177 233 302 367 418
#     4  12  28  45  69  97 144 189 238 279 344 431
#
# _framework density 21.221354999999999
#
# number of rings (size 3 to 8) (size 9 to 14) (size 15 to 20)
#    0.000    0.800    4.000    3.600    1.867    0.000 
#    4.800    0.000    0.000    0.000    0.000    0.000 
#    0.000    0.000    0.000    0.000    0.000    0.000 
#
# Total GULP energy -167654.526528 kJ/mol
# GULP energy per Si atom -5588.484218 kJ/mol
# Density = 2.117305 g / cm^3
# Si number density = 21.221355 Si / 1000 Ang^3
#
#
#
# Elastic Constant Matrix: (Units=GPa)
#
#
# Indices 1 2 3 4 5 6 
#
# 1 62.4993 17.1566 11.2033 0.0000 0.0000 0.0000
# 2 17.1566 92.9364 49.5346 0.0000 0.0000 0.0000
# 3 11.2033 49.5346 61.4594 0.0000 0.0000 0.0000
# 4 0.0000 0.0000 0.0000 40.1436 0.0000 0.0000
# 5 0.0000 0.0000 0.0000 0.0000 37.1982 0.0000
# 6 0.0000 0.0000 0.0000 0.0000 0.0000 34.6149
#
#
#
# Elastic Compliance Matrix: (Units=1/GPa)
#
#
# Indices 1 2 3 4 5 6 
#
# 1 0.016889 -0.002589 -0.000992 0.000000 0.000000 0.000000
# 2 -0.002589 0.019260 -0.015051 0.000000 0.000000 0.000000
# 3 -0.000992 -0.015051 0.028583 0.000000 0.000000 0.000000
# 4 0.000000 0.000000 0.000000 0.024911 0.000000 0.000000
# 5 0.000000 0.000000 0.000000 0.000000 0.026883 0.000000
# 6 0.000000 0.000000 0.000000 0.000000 0.000000 0.028889
#
#
# Mechanical properties :
#
#
# Convention : Reuss Voigt Hill
#
# Bulk Modulus (GPa) = 36.40717 41.40935 38.90826
# Shear Modulus (GPa) = 26.06409 31.65804 28.86106
#
# Velocity S-wave (km/s) = 3.50837 3.86657 3.69182
# Velocity P-wave (km/s) = 5.79696 6.28405 6.04541
#
# Compressibility (1/GPa) = 0.02746711
#
# Stress axis : x y z
#
# Youngs Moduli (GPa) = 59.21117 51.92029 34.98627
#
# Poissons Ratio (x) = 0.13443 0.03470
# Poissons Ratio (y) = 0.15330 0.52659
# Poissons Ratio (z) = 0.05873 0.78147
#
# Static dielectric constant tensor:
#      x y z
#    x 1.752130 0.000000 0.000000 
#    y 0.000000 1.780910 0.000000 
#    z 0.000000 0.000000 1.779860 
# 
# From -- ./inp_files/9585.got.cif
#   From: 2010.05.17/outbox.cif.g08.bks.cpg/sg45_5_cif.got.tgz:9585.got - 2010.06.03 19:51:22.
