data_PCOD9377465
_publ_section_title
;
Structure prediction by ZEFSAII (Michael W. Deem and Ramdas Pophale) SiO2 
 PCOD9377465
Probable space group: I B A 2
;
_chemical_formula_sum "Si O2"
_cell_formula_units_Z 60
_cell_length_a 23.598785
_cell_length_b 11.666391
_cell_length_c 9.217356
_cell_angle_alpha 90.000000
_cell_angle_beta 90.000000
_cell_angle_gamma 90.000000
_cell_volume 2537.654733
_symmetry_space_group_name_H-M "I B A 2"
_symmetry_group_IT_number 45
_symmetry_cell_setting 'orthorhombic'
loop_
_space_group_symop_operation_xyz
x,y,z
-x,-y,z
-x,y,1/2+z
x,-y,1/2+z
1/2+x,1/2+y,1/2+z
1/2-x,1/2-y,1/2+z
1/2-x,1/2+y,z
1/2+x,1/2-y,z
loop_
_atom_site_type_symbol
_atom_site_label
_atom_site_fract_x
_atom_site_fract_y
_atom_site_fract_z
Si Si1 0.725814 0.386709 0.060780
Si Si2 0.500000 0.000000 0.018221
Si Si3 0.400947 0.146254 0.099983
Si Si4 0.232261 0.203331 0.354277
Si Si5 0.086152 0.311837 0.926107
Si Si6 0.398452 0.638605 0.408491
Si Si7 0.408004 0.585510 0.074365
Si Si8 0.685549 0.052178 0.030537
O O1 0.732654 0.289251 0.182129
O O2 0.659897 0.409635 0.045529
O O3 0.759701 0.499443 0.112990
O O4 0.752058 0.326104 0.920467
O O5 0.455674 0.068166 0.113882
O O6 0.537221 0.093237 0.932631
O O7 0.415081 0.242456 0.982406
O O8 0.388943 0.192590 0.262109
O O9 0.352332 0.063990 0.034071
O O10 0.170640 0.154292 0.400085
O O11 0.279582 0.111533 0.400955
O O12 0.066263 0.188118 0.979351
O O13 0.134632 0.354635 0.041871
O O14 0.417308 0.610133 0.244388
O O15 0.421783 0.539361 0.513675
#
# Coordination Sequence:
#
# PCOD9377465 Si02
#       8
#     8   4   8   8   8   8   8   8
#     4  11  23  37  56  88 132 181 225 264 312 379
#     4  10  26  48  74 102 130 160 208 274 346 402
#     4  11  24  44  70  99 130 170 220 276 333 392
#     4  11  23  37  56  88 132 181 225 264 312 379
#     4  11  24  44  70  99 130 170 220 276 333 392
#     4  11  24  41  63  94 135 179 221 267 320 386
#     4  11  24  41  63  94 135 179 221 267 320 386
#     4  11  22  37  60  96 136 179 220 267 318 384
#
# _framework density 23.643878999999998
#
# number of rings (size 3 to 8) (size 9 to 14) (size 15 to 20)
#    0.000    1.067    4.000    2.000    0.000    9.600 
#    0.000    0.667    0.000    3.200    0.000    0.000 
#    0.000    0.000    0.000    0.000    0.000    0.000 
#
# Total GULP energy -167239.994159 kJ/mol
# GULP energy per Si atom -5574.666472 kJ/mol
# Density = 2.359006 g / cm^3
# Si number density = 23.643879 Si / 1000 Ang^3
#
#
#
# Elastic Constant Matrix: (Units=GPa)
#
#
# Indices 1 2 3 4 5 6 
#
# 1 53.0392 6.7689 15.7096 0.0000 0.0000 0.0000
# 2 6.7689 97.2972 22.8671 0.0000 0.0000 0.0000
# 3 15.7096 22.8671 59.2761 0.0000 0.0000 0.0000
# 4 0.0000 0.0000 0.0000 22.8002 0.0000 0.0000
# 5 0.0000 0.0000 0.0000 0.0000 6.7632 0.0000
# 6 0.0000 0.0000 0.0000 0.0000 0.0000 31.3378
#
#
#
# Elastic Compliance Matrix: (Units=1/GPa)
#
#
# Indices 1 2 3 4 5 6 
#
# 1 0.020462 -0.000164 -0.005360 0.000000 0.000000 0.000000
# 2 -0.000164 0.011304 -0.004317 0.000000 0.000000 0.000000
# 3 -0.005360 -0.004317 0.019956 0.000000 0.000000 0.000000
# 4 0.000000 0.000000 0.000000 0.043859 0.000000 0.000000
# 5 0.000000 0.000000 0.000000 0.000000 0.147860 0.000000
# 6 0.000000 0.000000 0.000000 0.000000 0.000000 0.031910
#
#
# Mechanical properties :
#
#
# Convention : Reuss Voigt Hill
#
# Bulk Modulus (GPa) = 31.21051 33.36708 32.28880
# Shear Modulus (GPa) = 16.35517 23.13138 19.74327
#
# Velocity S-wave (km/s) = 2.63293 3.13121 2.89282
# Velocity P-wave (km/s) = 4.74046 5.21686 4.98436
#
# Compressibility (1/GPa) = 0.03204049
#
# Stress axis : x y z
#
# Youngs Moduli (GPa) = 48.87015 88.46545 50.10982
#
# Poissons Ratio (x) = 0.01450 0.26858
# Poissons Ratio (y) = 0.00801 0.21634
# Poissons Ratio (z) = 0.26193 0.38193
#
# Static dielectric constant tensor:
#      x y z
#    x 1.925920 0.000000 0.000000 
#    y 0.000000 1.910420 0.000000 
#    z 0.000000 0.000000 1.910950 
# 
# From -- ./inp_files/2628.got.cif
#   From: 2010.05.17/outbox.cif.g08.bks.cpg/sg45_2_cif.got.tgz:2628.got - 2010.06.03 19:51:22.
