data_PCOD9377766
_publ_section_title
;
Structure prediction by ZEFSAII (Michael W. Deem and Ramdas Pophale) SiO2 
 PCOD9377766
Probable space group: I M A 2
;
_chemical_formula_sum "Si O2"
_cell_formula_units_Z 48
_cell_length_a 9.001986
_cell_length_b 32.607865
_cell_length_c 7.122792
_cell_angle_alpha 90.000000
_cell_angle_beta 90.000000
_cell_angle_gamma 90.000000
_cell_volume 2090.792626
_symmetry_space_group_name_H-M "I M A 2"
_symmetry_group_IT_number 46
_symmetry_cell_setting 'orthorhombic'
loop_
_space_group_symop_operation_xyz
x,y,z
-x,-y,z
1/2-x,y,z
1/2+x,-y,z
1/2+x,1/2+y,1/2+z
1/2-x,1/2-y,1/2+z
-x,1/2+y,1/2+z
x,1/2-y,1/2+z
loop_
_atom_site_type_symbol
_atom_site_label
_atom_site_fract_x
_atom_site_fract_y
_atom_site_fract_z
Si Si1 0.925421 0.039291 0.689710
Si Si2 0.419949 0.366817 0.798527
Si Si3 0.917255 0.287175 0.883229
Si Si4 0.429904 0.457881 0.774991
Si Si5 0.081575 0.118234 0.753305
Si Si6 0.579634 0.197131 0.825572
O O1 0.750000 0.034423 0.668548
O O2 0.006268 0.041874 0.487551
O O3 0.968911 0.081311 0.788139
O O4 0.000000 0.000000 0.783426
O O5 0.250000 0.360241 0.742898
O O6 0.509467 0.324674 0.772477
O O7 0.469095 0.410985 0.713769
O O8 0.419929 0.373293 0.027228
O O9 0.750000 0.281153 0.810679
O O10 0.983983 0.241479 0.883013
O O11 0.910179 0.300143 0.099352
O O12 0.500000 0.500000 0.693257
O O13 0.250000 0.460829 0.773628
O O14 0.250000 0.106604 0.801615
O O15 0.026122 0.158627 0.858709
O O16 0.750000 0.191245 0.893633
#
# Coordination Sequence:
#
# PCOD9377766 Si02
#       6
#     8   8   8   8   8   8
#     4  10  16  22  33  50  74 104 135 167 201 243
#     4   8  15  25  36  52  76 103 133 165 201 241
#     4   9  17  28  43  60  81 107 138 170 204 243
#     4   9  15  22  32  49  73 102 134 167 201 244
#     4   9  16  26  38  54  76 104 135 168 204 246
#     4   9  17  29  43  61  82 108 138 171 206 245
#
# _framework density 22.957799999999999
#
# number of rings (size 3 to 8) (size 9 to 14) (size 15 to 20)
#    0.000    3.000    0.000    4.500    0.000    5.333 
#    0.000    0.000    0.000    0.000    0.000    0.000 
#    0.000    1.333    0.000    5.667    0.000    6.500 
#
# Total GULP energy -133870.120596 kJ/mol
# GULP energy per Si atom -5577.921692 kJ/mol
# Density = 2.290555 g / cm^3
# Si number density = 22.957800 Si / 1000 Ang^3
#
#
#
# Elastic Constant Matrix: (Units=GPa)
#
#
# Indices 1 2 3 4 5 6 
#
# 1 75.6517 56.1640 -10.4159 0.0140 0.0038 0.0003
# 2 56.1640 177.7232 -36.1076 0.0219 0.0066 0.0008
# 3 -10.4159 -36.1076 55.1638 0.0252 0.0080 0.0027
# 4 0.0140 0.0219 0.0252 4.4539 0.0138 0.0046
# 5 0.0038 0.0066 0.0080 0.0138 -1.6091 0.0064
# 6 0.0003 0.0008 0.0027 0.0046 0.0064 47.2585
#
#
#
# Elastic Compliance Matrix: (Units=1/GPa)
#
#
# Indices 1 2 3 4 5 6 
#
# 1 0.017276 -0.005533 -0.000359 -0.000025 0.000016 0.000000
# 2 -0.005533 0.008262 0.004363 -0.000048 0.000042 0.000000
# 3 -0.000359 0.004363 0.020916 -0.000139 0.000119 -0.000001
# 4 -0.000025 -0.000048 -0.000139 0.224517 0.001922 -0.000022
# 5 0.000016 0.000042 0.000119 0.001922 -0.621454 0.000083
# 6 0.000000 0.000000 -0.000001 -0.000022 0.000083 0.021160
#
#
# Mechanical properties :
#
#
# Convention : Reuss Voigt Hill
#
# Bulk Modulus (GPa) = 23.04371 36.42441 29.73406
# Shear Modulus (GPa) = -16.03595 29.94722 6.95564
#
# Velocity S-wave (km/s) = -2.64578 3.61563 1.74251
# Velocity P-wave (km/s) = 0.85188 5.77327 4.12652
#
# Compressibility (1/GPa) = 0.04339580
#
# Stress axis : x y z
#
# Youngs Moduli (GPa) = 57.88210 121.04205 47.81072
#
# Poissons Ratio (x) = 0.66969 0.01718
# Poissons Ratio (y) = 0.32024 -0.20860
# Poissons Ratio (z) = 0.02080 -0.52810
#
# Static dielectric constant tensor:
#      x y z
#    x 1.788920 -0.000010 0.000000 
#    y -0.000010 1.961630 -0.000010 
#    z 0.000000 -0.000010 1.960590 
# 
# From -- ./inp_files/9400.got.cif
#   From: 2010.05.17/outbox.cif.g08.bks.cpg/sg46_5_cif.got.tgz:9400.got - 2010.06.03 19:58:25.
