data_PCOD9377955
_publ_section_title
;
Structure prediction by ZEFSAII (Michael W. Deem and Ramdas Pophale) SiO2 
 PCOD9377955
Probable space group: I M A 2
;
_chemical_formula_sum "Si O2"
_cell_formula_units_Z 64
_cell_length_a 9.028389
_cell_length_b 18.843267
_cell_length_c 27.125648
_cell_angle_alpha 90.000000
_cell_angle_beta 90.000000
_cell_angle_gamma 90.000000
_cell_volume 4614.733085
_symmetry_space_group_name_H-M "I M A 2"
_symmetry_group_IT_number 46
_symmetry_cell_setting 'orthorhombic'
loop_
_space_group_symop_operation_xyz
x,y,z
-x,-y,z
1/2-x,y,z
1/2+x,-y,z
1/2+x,1/2+y,1/2+z
1/2-x,1/2-y,1/2+z
-x,1/2+y,1/2+z
x,1/2-y,1/2+z
loop_
_atom_site_type_symbol
_atom_site_label
_atom_site_fract_x
_atom_site_fract_y
_atom_site_fract_z
Si Si1 0.572231 0.075462 0.225020
Si Si2 0.074655 0.700795 0.374088
Si Si3 0.575002 0.713678 0.961224
Si Si4 0.928592 0.335832 0.818816
Si Si5 0.425302 0.075743 0.407791
Si Si6 0.573710 0.576797 0.426507
Si Si7 0.575227 0.837150 0.027875
Si Si8 0.926774 0.424203 0.611691
O O1 0.750000 0.067499 0.226591
O O2 0.530776 0.134219 0.265275
O O3 0.531362 0.092404 0.168473
O O4 0.500000 0.000000 0.238106
O O5 0.250000 0.687788 0.373431
O O6 0.033974 0.753326 0.329092
O O7 0.028531 0.748738 0.421051
O O8 0.989455 0.627742 0.383612
O O9 0.750000 0.728146 0.948956
O O10 0.552957 0.630130 0.953633
O O11 0.547497 0.755567 0.011798
O O12 0.750000 0.342052 0.824936
O O13 0.005908 0.384659 0.860160
O O14 0.250000 0.067012 0.400214
O O15 0.500000 0.000000 0.414879
O O16 0.500000 0.500000 0.425758
O O17 0.750000 0.571130 0.422239
O O18 0.541855 0.615644 0.478989
O O19 0.750000 0.845371 0.038209
O O20 0.483519 0.866076 0.073459
O O21 0.750000 0.430920 0.608827
O O22 0.000000 0.500000 0.599054
#
# Coordination Sequence:
#
# PCOD9377955 Si02
#       8
#     8   8   8   8   8   8   8   8
#     4   9  18  30  41  56  79 105 134 166 197 228
#     4   9  16  26  41  59  78 101 130 163 197 232
#     4   8  16  29  41  54  76 105 132 160 195 233
#     4   9  17  29  43  58  78 106 137 165 195 232
#     4  10  18  27  40  59  82 106 133 163 195 232
#     4  10  19  29  41  58  81 107 134 163 195 233
#     4   9  17  29  43  57  75 102 134 164 195 231
#     4  10  19  29  41  57  78 104 133 166 199 229
#
# _framework density 13.868622999999999
#
# number of rings (size 3 to 8) (size 9 to 14) (size 15 to 20)
#    0.000    2.750    0.000    3.000    0.000    6.500 
#    0.000    0.000    0.000    0.000    0.000    0.000 
#    0.000    1.000    0.000    7.500    0.000    2.500 
#
# Total GULP energy -178152.745036 kJ/mol
# GULP energy per Si atom -5567.273282 kJ/mol
# Density = 1.383706 g / cm^3
# Si number density = 13.868623 Si / 1000 Ang^3
#
#
#
# Elastic Constant Matrix: (Units=GPa)
#
#
# Indices 1 2 3 4 5 6 
#
# 1 34.3023 37.6186 26.8460 0.0000 0.0000 0.0000
# 2 37.6186 92.3695 38.4697 0.0000 0.0000 0.0000
# 3 26.8460 38.4697 61.6905 0.0000 0.0000 0.0000
# 4 0.0000 0.0000 0.0000 23.9524 0.0000 0.0000
# 5 0.0000 0.0000 0.0000 0.0000 14.9816 0.0000
# 6 0.0000 0.0000 0.0000 0.0000 0.0000 21.8243
#
#
#
# Elastic Compliance Matrix: (Units=1/GPa)
#
#
# Indices 1 2 3 4 5 6 
#
# 1 0.061556 -0.018794 -0.015068 0.000000 0.000000 0.000000
# 2 -0.018794 0.020362 -0.004519 0.000000 0.000000 0.000000
# 3 -0.015068 -0.004519 0.025585 0.000000 0.000000 0.000000
# 4 0.000000 0.000000 0.000000 0.041749 0.000000 0.000000
# 5 0.000000 0.000000 0.000000 0.000000 0.066749 0.000000
# 6 0.000000 0.000000 0.000000 0.000000 0.000000 0.045820
#
#
# Mechanical properties :
#
#
# Convention : Reuss Voigt Hill
#
# Bulk Modulus (GPa) = 32.52904 43.80342 38.16623
# Shear Modulus (GPa) = 14.33358 17.84687 16.09022
#
# Velocity S-wave (km/s) = 3.21834 3.59116 3.40985
# Velocity P-wave (km/s) = 6.10871 6.98916 6.56371
#
# Compressibility (1/GPa) = 0.03074176
#
# Stress axis : x y z
#
# Youngs Moduli (GPa) = 16.24530 49.11023 39.08536
#
# Poissons Ratio (x) = 0.92299 0.58892
# Poissons Ratio (y) = 0.30532 0.17663
# Poissons Ratio (z) = 0.24478 0.22193
#
# Static dielectric constant tensor:
#      x y z
#    x 1.463320 0.000000 0.000000 
#    y 0.000000 1.464690 0.000000 
#    z 0.000000 0.000000 1.452120 
# 
# From -- ./inp_files/23289.got.cif
#   From: 2010.05.17/outbox.cif.g08.bks.cpg/sg46_12_cif.got.tgz:23289.got - 2010.06.03 19:58:25.
