data_PCOD9377617
_publ_section_title
;
Structure prediction by ZEFSAII (Michael W. Deem and Ramdas Pophale) SiO2 
 PCOD9377617
Probable space group: I B A 2
;
_chemical_formula_sum "Si O2"
_cell_formula_units_Z 64
_cell_length_a 32.087413
_cell_length_b 9.391699
_cell_length_c 10.131998
_cell_angle_alpha 90.000000
_cell_angle_beta 90.000000
_cell_angle_gamma 90.000000
_cell_volume 3053.331546
_symmetry_space_group_name_H-M "I B A 2"
_symmetry_group_IT_number 45
_symmetry_cell_setting 'orthorhombic'
loop_
_space_group_symop_operation_xyz
x,y,z
-x,-y,z
-x,y,1/2+z
x,-y,1/2+z
1/2+x,1/2+y,1/2+z
1/2-x,1/2-y,1/2+z
1/2-x,1/2+y,z
1/2+x,1/2-y,z
loop_
_atom_site_type_symbol
_atom_site_label
_atom_site_fract_x
_atom_site_fract_y
_atom_site_fract_z
Si Si1 0.788847 0.606411 0.849700
Si Si2 0.384625 0.775637 0.231192
Si Si3 0.008012 0.171420 0.453605
Si Si4 0.162589 0.512807 0.097517
Si Si5 0.351005 0.501816 0.654760
Si Si6 0.477510 0.154551 0.693494
Si Si7 0.602516 0.246410 0.527003
Si Si8 0.704032 0.439714 0.904218
O O1 0.806956 0.593611 0.700384
O O2 0.744453 0.531528 0.867827
O O3 0.786663 0.771867 0.889787
O O4 0.818242 0.524443 0.955532
O O5 0.383679 0.627695 0.154019
O O6 0.428597 0.856334 0.225967
O O7 0.377122 0.742189 0.383168
O O8 0.347974 0.866813 0.170173
O O9 0.003765 0.244285 0.309412
O O10 0.054484 0.213226 0.505304
O O11 0.980070 0.258379 0.557112
O O12 0.000000 0.000000 0.451392
O O13 0.118713 0.594922 0.078601
O O14 0.376421 0.641336 0.621590
O O15 0.330517 0.520727 0.796413
O O16 0.314912 0.474607 0.547372
O O17 0.500000 0.000000 0.687864
#
# Coordination Sequence:
#
# PCOD9377617 Si02
#       8
#     8   8   8   8   8   8   8   8
#     4  12  28  44  69 100 135 181 225 283 344 408
#     4  11  24  43  70 100 136 178 223 287 333 404
#     4  11  24  45  70 105 143 183 232 287 353 422
#     4  12  24  45  68  99 137 175 232 275 342 405
#     4  12  24  45  68  99 137 175 232 275 342 405
#     4  11  24  45  70 105 143 183 232 287 353 422
#     4  11  24  43  70 100 136 178 223 287 333 404
#     4  12  28  44  69 100 135 181 225 283 344 408
#
# _framework density 20.960712000000001
#
# number of rings (size 3 to 8) (size 9 to 14) (size 15 to 20)
#    0.000    0.500    5.000    3.000    3.500    4.000 
#    4.500    0.000    0.000    0.000    0.000    0.000 
#    0.000    0.000    0.000    0.000    0.000    0.000 
#
# Total GULP energy -178758.101568 kJ/mol
# GULP energy per Si atom -5586.190674 kJ/mol
# Density = 2.091300 g / cm^3
# Si number density = 20.960712 Si / 1000 Ang^3
#
#
#
# Elastic Constant Matrix: (Units=GPa)
#
#
# Indices 1 2 3 4 5 6 
#
# 1 27.9330 7.6765 -12.5089 0.0000 0.0000 0.0000
# 2 7.6765 65.7821 -10.8770 0.0000 0.0000 0.0000
# 3 -12.5089 -10.8770 60.4486 0.0000 0.0000 0.0000
# 4 0.0000 0.0000 0.0000 -245.2900 0.0000 0.0000
# 5 0.0000 0.0000 0.0000 0.0000 30.8768 0.0000
# 6 0.0000 0.0000 0.0000 0.0000 0.0000 40.2054
#
#
#
# Elastic Compliance Matrix: (Units=1/GPa)
#
#
# Indices 1 2 3 4 5 6 
#
# 1 0.040188 -0.003416 0.007701 0.000000 0.000000 0.000000
# 2 -0.003416 0.015958 0.002165 0.000000 0.000000 0.000000
# 3 0.007701 0.002165 0.018526 0.000000 0.000000 0.000000
# 4 0.000000 0.000000 0.000000 -0.004077 0.000000 0.000000
# 5 0.000000 0.000000 0.000000 0.000000 0.032387 0.000000
# 6 0.000000 0.000000 0.000000 0.000000 0.000000 0.024872
#
#
# Mechanical properties :
#
#
# Convention : Reuss Voigt Hill
#
# Bulk Modulus (GPa) = 11.41923 13.63832 12.52877
# Shear Modulus (GPa) = 34.68722 -23.51667 5.58528
#
# Velocity S-wave (km/s) = 4.07242 -3.35317 1.63414
# Velocity P-wave (km/s) = 5.25096 2.91049 3.09044
#
# Compressibility (1/GPa) = 0.08757160
#
# Stress axis : x y z
#
# Youngs Moduli (GPa) = 24.88327 62.66344 53.97769
#
# Poissons Ratio (x) = 0.21408 -0.41571
# Poissons Ratio (y) = 0.08501 -0.11684
# Poissons Ratio (z) = -0.19164 -0.13564
#
# Static dielectric constant tensor:
#      x y z
#    x 1.771290 0.000000 0.000000 
#    y 0.000000 1.746140 0.000000 
#    z 0.000000 0.000000 1.748630 
# 
# From -- ./inp_files/4966.got.cif
#   From: 2010.05.17/outbox.cif.g08.bks.cpg/sg45_3_cif.got.tgz:4966.got - 2010.06.03 19:51:22.
