data_PCOD9377379
_publ_section_title
;
Structure prediction by ZEFSAII (Michael W. Deem and Ramdas Pophale) SiO2 
 PCOD9377379
Probable space group: I B A 2
;
_chemical_formula_sum "Si O2"
_cell_formula_units_Z 40
_cell_length_a 7.471139
_cell_length_b 23.386787
_cell_length_c 9.202499
_cell_angle_alpha 90.000000
_cell_angle_beta 90.000000
_cell_angle_gamma 90.000000
_cell_volume 1607.915255
_symmetry_space_group_name_H-M "I B A 2"
_symmetry_group_IT_number 45
_symmetry_cell_setting 'orthorhombic'
loop_
_space_group_symop_operation_xyz
x,y,z
-x,-y,z
-x,y,1/2+z
x,-y,1/2+z
1/2+x,1/2+y,1/2+z
1/2-x,1/2-y,1/2+z
1/2-x,1/2+y,z
1/2+x,1/2-y,z
loop_
_atom_site_type_symbol
_atom_site_label
_atom_site_fract_x
_atom_site_fract_y
_atom_site_fract_z
Si Si1 0.488988 0.114668 0.055420
Si Si2 0.283515 0.546630 0.904545
Si Si3 0.500000 0.500000 0.170876
Si Si4 0.192767 0.803339 0.666246
Si Si5 0.000000 0.500000 0.733066
Si Si6 0.668817 0.689938 0.003874
O O1 0.364927 0.155739 0.152467
O O2 0.524304 0.055252 0.135864
O O3 0.354051 0.098407 0.923179
O O4 0.676029 0.142730 0.014812
O O5 0.432661 0.549770 0.780316
O O6 0.168170 0.494484 0.839161
O O7 0.361383 0.528500 0.058835
O O8 0.253936 0.744522 0.590429
O O9 0.142127 0.795310 0.834437
O O10 0.020157 0.826048 0.577381
#
# Coordination Sequence:
#
# PCOD9377379 Si02
#       6
#     8   8   4   8   4   8
#     4  12  28  51  83 122 168 222 274 343 424 513
#     4  11  24  48  75 114 162 217 269 336 402 496
#     4  10  24  46  80 110 160 216 282 334 392 492
#     4  12  28  52  86 119 162 212 285 355 428 502
#     4  12  26  50  76 116 174 220 270 328 426 514
#     4  12  28  53  88 120 162 217 281 359 427 507
#
# _framework density 24.876933000000001
#
# number of rings (size 3 to 8) (size 9 to 14) (size 15 to 20)
#    0.000    0.400    4.000    3.000    0.000    8.000 
#    3.600    0.000    0.000    0.000    0.000    0.000 
#    0.000    0.000    0.000    0.000    0.000    0.000 
#
# Total GULP energy -112083.170419 kJ/mol
# GULP energy per Si atom -5604.158521 kJ/mol
# Density = 2.482031 g / cm^3
# Si number density = 24.876933 Si / 1000 Ang^3
#
#
#
# Elastic Constant Matrix: (Units=GPa)
#
#
# Indices 1 2 3 4 5 6 
#
# 1 115.9311 8.0258 45.0245 0.0000 0.0000 0.0000
# 2 8.0258 87.9968 29.1588 0.0001 0.0000 0.0000
# 3 45.0245 29.1588 195.9883 -0.0004 -0.0004 -0.0002
# 4 0.0000 0.0001 -0.0004 22.0756 -0.0001 0.0000
# 5 0.0000 0.0000 -0.0004 -0.0001 52.3594 0.0000
# 6 0.0000 0.0000 -0.0002 0.0000 0.0000 51.0368
#
#
#
# Elastic Compliance Matrix: (Units=1/GPa)
#
#
# Indices 1 2 3 4 5 6 
#
# 1 0.009473 -0.000150 -0.002154 0.000000 0.000000 0.000000
# 2 -0.000150 0.011956 -0.001744 0.000000 0.000000 0.000000
# 3 -0.002154 -0.001744 0.005857 0.000000 0.000000 0.000000
# 4 0.000000 0.000000 0.000000 0.045299 0.000000 0.000000
# 5 0.000000 0.000000 0.000000 0.000000 0.019099 0.000000
# 6 0.000000 0.000000 0.000000 0.000000 0.000000 0.019594
#
#
# Mechanical properties :
#
#
# Convention : Reuss Voigt Hill
#
# Bulk Modulus (GPa) = 52.11472 62.70383 57.40927
# Shear Modulus (GPa) = 39.75533 46.27482 43.01508
#
# Velocity S-wave (km/s) = 4.00194 4.31762 4.16277
# Velocity P-wave (km/s) = 6.50757 7.07928 6.79944
#
# Compressibility (1/GPa) = 0.01918844
#
# Stress axis : x y z
#
# Youngs Moduli (GPa) = 105.56658 83.64191 170.74620
#
# Poissons Ratio (x) = 0.01257 0.36775
# Poissons Ratio (y) = 0.01586 0.29782
# Poissons Ratio (z) = 0.22737 0.14589
#
# Static dielectric constant tensor:
#      x y z
#    x 2.123840 0.000000 0.000000 
#    y 0.000000 1.968050 0.000000 
#    z 0.000000 0.000000 1.987470 
# 
# From -- ./inp_files/983.got.cif
#   From: 2010.05.17/outbox.cif.g08.bks.cpg/sg45_1_cif.got.tgz:983.got - 2010.06.03 19:51:22.
