data_PCOD9377612
_publ_section_title
;
Structure prediction by ZEFSAII (Michael W. Deem and Ramdas Pophale) SiO2 
 PCOD9377612
Probable space group: I B A 2
;
_chemical_formula_sum "Si O2"
_cell_formula_units_Z 60
_cell_length_a 11.950798
_cell_length_b 8.200654
_cell_length_c 27.764903
_cell_angle_alpha 90.000000
_cell_angle_beta 90.000000
_cell_angle_gamma 90.000000
_cell_volume 2721.081533
_symmetry_space_group_name_H-M "I B A 2"
_symmetry_group_IT_number 45
_symmetry_cell_setting 'orthorhombic'
loop_
_space_group_symop_operation_xyz
x,y,z
-x,-y,z
-x,y,1/2+z
x,-y,1/2+z
1/2+x,1/2+y,1/2+z
1/2-x,1/2-y,1/2+z
1/2-x,1/2+y,z
1/2+x,1/2-y,z
loop_
_atom_site_type_symbol
_atom_site_label
_atom_site_fract_x
_atom_site_fract_y
_atom_site_fract_z
Si Si1 0.422913 0.660470 0.548220
Si Si2 0.921681 0.837363 0.279465
Si Si3 0.578294 0.341159 0.389294
Si Si4 0.879460 0.923476 0.652036
Si Si5 0.500000 0.000000 0.736988
Si Si6 0.068653 0.311854 0.969110
Si Si7 0.224784 0.010290 0.469016
Si Si8 0.724356 0.869249 0.201072
O O1 0.500000 0.500000 0.550315
O O2 0.496335 0.786531 0.517594
O O3 0.318692 0.608710 0.515581
O O4 0.388664 0.681773 0.603328
O O5 0.888034 0.803574 0.334985
O O6 0.813644 0.863021 0.244922
O O7 0.987081 0.672047 0.264625
O O8 0.000000 0.000000 0.277218
O O9 0.500000 0.500000 0.386423
O O10 0.504725 0.216541 0.421099
O O11 0.682151 0.394291 0.421888
O O12 0.793448 0.073657 0.653881
O O13 0.830342 0.806169 0.692523
O O14 0.000000 0.000000 0.662877
O O15 0.616739 0.015773 0.708583
O O16 0.142454 0.474297 0.969003
O O17 0.158515 0.160291 0.969313
#
# Coordination Sequence:
#
# PCOD9377612 Si02
#       8
#     8   8   8   8   4   8   8   8
#     4   8  18  36  58  84 120 162 211 251 321 393
#     4  11  24  46  71  98 138 183 225 282 347 398
#     4   8  18  38  60  86 122 165 209 251 322 395
#     4  11  24  42  68  94 129 177 220 281 345 402
#     4  12  26  44  66 102 130 172 236 280 336 426
#     4   9  17  35  60  86 126 162 206 260 317 395
#     4   9  17  34  57  86 119 160 197 252 315 380
#     4  12  24  45  67  94 131 170 226 285 341 408
#
# _framework density 22.050055
#
# number of rings (size 3 to 8) (size 9 to 14) (size 15 to 20)
#    0.000    2.133    1.333    3.600    0.000    4.267 
#    7.200    2.000    0.000    0.000    0.000    0.000 
#    0.000    0.000    0.000    0.000    0.000    0.000 
#
# Total GULP energy -167371.724634 kJ/mol
# GULP energy per Si atom -5579.057488 kJ/mol
# Density = 2.199987 g / cm^3
# Si number density = 22.050055 Si / 1000 Ang^3
#
#
#
# Elastic Constant Matrix: (Units=GPa)
#
#
# Indices 1 2 3 4 5 6 
#
# 1 109.2199 57.9544 78.4375 0.0000 0.0000 0.0000
# 2 57.9544 90.0625 22.1016 0.0000 0.0000 0.0000
# 3 78.4375 22.1016 127.5255 0.0000 0.0000 0.0000
# 4 0.0000 0.0000 0.0000 20.3392 0.0000 0.0000
# 5 0.0000 0.0000 0.0000 0.0000 13.4662 0.0000
# 6 0.0000 0.0000 0.0000 0.0000 0.0000 51.4583
#
#
#
# Elastic Compliance Matrix: (Units=1/GPa)
#
#
# Indices 1 2 3 4 5 6 
#
# 1 0.026209 -0.013483 -0.013784 0.000000 0.000000 0.000000
# 2 -0.013483 0.018532 0.005081 0.000000 0.000000 0.000000
# 3 -0.013784 0.005081 0.015439 0.000000 0.000000 0.000000
# 4 0.000000 0.000000 0.000000 0.049166 0.000000 0.000000
# 5 0.000000 0.000000 0.000000 0.000000 0.074260 0.000000
# 6 0.000000 0.000000 0.000000 0.000000 0.000000 0.019433
#
#
# Mechanical properties :
#
#
# Convention : Reuss Voigt Hill
#
# Bulk Modulus (GPa) = 63.25299 71.53277 67.39288
# Shear Modulus (GPa) = 19.78784 28.27371 24.03077
#
# Velocity S-wave (km/s) = 2.99892 3.58474 3.30484
# Velocity P-wave (km/s) = 6.38277 7.04594 6.72254
#
# Compressibility (1/GPa) = 0.01580953
#
# Stress axis : x y z
#
# Youngs Moduli (GPa) = 38.15489 53.95927 64.77110
#
# Poissons Ratio (x) = 0.72751 0.89279
# Poissons Ratio (y) = 0.51443 -0.32910
# Poissons Ratio (z) = 0.52592 -0.27416
#
# Static dielectric constant tensor:
#      x y z
#    x 1.814870 0.000000 0.000000 
#    y 0.000000 1.912290 0.000000 
#    z 0.000000 0.000000 1.834660 
# 
# From -- ./inp_files/10031.got.cif
#   From: 2010.05.17/outbox.cif.g08.bks.cpg/sg45_6_cif.got.tgz:10031.got - 2010.06.03 19:51:22.
