data_PCOD9377632
_publ_section_title
;
Structure prediction by ZEFSAII (Michael W. Deem and Ramdas Pophale) SiO2 
 PCOD9377632
Probable space group: I B A 2
;
_chemical_formula_sum "Si O2"
_cell_formula_units_Z 48
_cell_length_a 15.976030
_cell_length_b 9.672492
_cell_length_c 13.557488
_cell_angle_alpha 90.000000
_cell_angle_beta 90.000000
_cell_angle_gamma 90.000000
_cell_volume 2095.011809
_symmetry_space_group_name_H-M "I B A 2"
_symmetry_group_IT_number 45
_symmetry_cell_setting 'orthorhombic'
loop_
_space_group_symop_operation_xyz
x,y,z
-x,-y,z
-x,y,1/2+z
x,-y,1/2+z
1/2+x,1/2+y,1/2+z
1/2-x,1/2-y,1/2+z
1/2-x,1/2+y,z
1/2+x,1/2-y,z
loop_
_atom_site_type_symbol
_atom_site_label
_atom_site_fract_x
_atom_site_fract_y
_atom_site_fract_z
Si Si1 0.000000 0.500000 0.448501
Si Si2 0.741542 0.302286 0.313737
Si Si3 0.671395 0.622023 0.026631
Si Si4 0.432336 0.243666 0.331461
Si Si5 0.301929 0.944963 0.186004
Si Si6 0.500000 0.500000 0.456070
Si Si7 0.927027 0.347820 0.125766
O O1 0.940290 0.408915 0.380042
O O2 0.969447 0.619081 0.522845
O O3 0.697808 0.329906 0.417869
O O4 0.832646 0.231754 0.329332
O O5 0.692518 0.200593 0.240873
O O6 0.758388 0.447085 0.260037
O O7 0.584452 0.536254 0.017457
O O8 0.748431 0.553983 0.084888
O O9 0.651028 0.753296 0.094906
O O10 0.477650 0.366504 0.389298
O O11 0.465809 0.229160 0.219414
O O12 0.392813 0.005408 0.162611
#
# Coordination Sequence:
#
# PCOD9377632 Si02
#       7
#     4   8   8   8   8   4   8
#     4  12  24  46  70 102 144 192 230 296 354 446
#     4  11  26  44  75 102 140 192 242 299 350 425
#     4  12  26  47  70 109 144 185 240 295 369 423
#     4  11  25  48  69 108 144 187 244 291 367 424
#     4  11  24  47  72 105 138 186 244 298 346 430
#     4  12  28  46  76 108 152 192 226 316 362 434
#     4  11  26  44  71 102 140 190 241 287 361 426
#
# _framework density 22.911565
#
# number of rings (size 3 to 8) (size 9 to 14) (size 15 to 20)
#    0.000    0.667    5.000    2.500    9.333    3.333 
#    0.000    0.000    0.000    0.000    0.000    0.000 
#    0.000    0.000    0.000    0.000    0.000    0.000 
#
# Total GULP energy -134100.971615 kJ/mol
# GULP energy per Si atom -5587.540484 kJ/mol
# Density = 2.285942 g / cm^3
# Si number density = 22.911565 Si / 1000 Ang^3
#
#
#
# Elastic Constant Matrix: (Units=GPa)
#
#
# Indices 1 2 3 4 5 6 
#
# 1 47.0755 5.8238 22.7163 0.0000 0.0000 0.0000
# 2 5.8238 65.0601 18.0869 0.0000 0.0000 0.0000
# 3 22.7163 18.0869 124.2292 0.0000 0.0000 0.0000
# 4 0.0000 0.0000 0.0000 30.4668 0.0000 0.0000
# 5 0.0000 0.0000 0.0000 0.0000 272.9595 0.0000
# 6 0.0000 0.0000 0.0000 0.0000 0.0000 36.4556
#
#
#
# Elastic Compliance Matrix: (Units=1/GPa)
#
#
# Indices 1 2 3 4 5 6 
#
# 1 0.023353 -0.000941 -0.004133 0.000000 0.000000 0.000000
# 2 -0.000941 0.016057 -0.002166 0.000000 0.000000 0.000000
# 3 -0.004133 -0.002166 0.009121 0.000000 0.000000 0.000000
# 4 0.000000 0.000000 0.000000 0.032823 0.000000 0.000000
# 5 0.000000 0.000000 0.000000 0.000000 0.003664 0.000000
# 6 0.000000 0.000000 0.000000 0.000000 0.000000 0.027431
#
#
# Mechanical properties :
#
#
# Convention : Reuss Voigt Hill
#
# Bulk Modulus (GPa) = 29.36830 36.62431 32.99631
# Shear Modulus (GPa) = 36.15895 80.62557 58.39226
#
# Velocity S-wave (km/s) = 3.97696 5.93854 5.05384
# Velocity P-wave (km/s) = 5.82531 7.93987 6.96332
#
# Compressibility (1/GPa) = 0.03405032
#
# Stress axis : x y z
#
# Youngs Moduli (GPa) = 42.82022 62.27919 109.64017
#
# Poissons Ratio (x) = 0.05863 0.45318
# Poissons Ratio (y) = 0.04031 0.23744
# Poissons Ratio (z) = 0.17699 0.13487
#
# Static dielectric constant tensor:
#      x y z
#    x 1.891740 0.000000 0.000000 
#    y 0.000000 1.836780 0.000000 
#    z 0.000000 0.000000 1.854390 
# 
# From -- ./inp_files/6763.got.cif
#   From: 2010.05.17/outbox.cif.g08.bks.cpg/sg45_4_cif.got.tgz:6763.got - 2010.06.03 19:51:22.
