data_PCOD9377454
_publ_section_title
;
Structure prediction by ZEFSAII (Michael W. Deem and Ramdas Pophale) SiO2 
 PCOD9377454
Probable space group: I B A 2
;
_chemical_formula_sum "Si O2"
_cell_formula_units_Z 32
_cell_length_a 8.542276
_cell_length_b 11.777470
_cell_length_c 12.581524
_cell_angle_alpha 90.000000
_cell_angle_beta 90.000000
_cell_angle_gamma 90.000000
_cell_volume 1265.781828
_symmetry_space_group_name_H-M "I B A 2"
_symmetry_group_IT_number 45
_symmetry_cell_setting 'orthorhombic'
loop_
_space_group_symop_operation_xyz
x,y,z
-x,-y,z
-x,y,1/2+z
x,-y,1/2+z
1/2+x,1/2+y,1/2+z
1/2-x,1/2-y,1/2+z
1/2-x,1/2+y,z
1/2+x,1/2-y,z
loop_
_atom_site_type_symbol
_atom_site_label
_atom_site_fract_x
_atom_site_fract_y
_atom_site_fract_z
Si Si1 0.981675 0.182384 0.288760
Si Si2 0.208275 0.661239 0.647666
Si Si3 0.753715 0.833072 0.968496
Si Si4 0.500000 0.000000 0.502425
Si Si5 0.500000 0.500000 0.942571
O O1 0.858262 0.118621 0.212396
O O2 0.854511 0.228024 0.376310
O O3 0.075490 0.092903 0.362186
O O4 0.087957 0.268836 0.223661
O O5 0.281536 0.749162 0.562845
O O6 0.112182 0.570615 0.580844
O O7 0.603644 0.908503 0.937712
O O8 0.877324 0.928192 0.007219
#
# Coordination Sequence:
#
# PCOD9377454 Si02
#       5
#     8   8   8   4   4
#     4  10  26  45  73 107 144 192 248 306 371 434
#     4  12  26  47  74 109 150 197 252 310 368 448
#     4  10  26  47  74 104 150 195 248 304 370 443
#     4  12  28  44  74 112 148 202 246 312 368 444
#     4   8  24  46  76  96 144 200 240 308 366 440
#
# _framework density 25.280819000000001
#
# number of rings (size 3 to 8) (size 9 to 14) (size 15 to 20)
#    1.500    0.000    2.500    0.000   10.500    3.000 
#    0.000    0.000    0.000    0.000    0.000    0.000 
#    0.000    0.000    0.000    0.000    0.000    0.000 
#
# Total GULP energy -89265.276362 kJ/mol
# GULP energy per Si atom -5579.079773 kJ/mol
# Density = 2.522328 g / cm^3
# Si number density = 25.280819 Si / 1000 Ang^3
#
#
#
# Elastic Constant Matrix: (Units=GPa)
#
#
# Indices 1 2 3 4 5 6 
#
# 1 78.7743 33.8669 6.9832 0.0000 0.0000 0.0000
# 2 33.8669 71.0939 20.7604 0.0000 0.0000 0.0000
# 3 6.9832 20.7604 59.7408 0.0000 0.0000 0.0000
# 4 0.0000 0.0000 0.0000 34.2967 0.0000 0.0000
# 5 0.0000 0.0000 0.0000 0.0000 45.0850 0.0000
# 6 0.0000 0.0000 0.0000 0.0000 0.0000 34.5689
#
#
#
# Elastic Compliance Matrix: (Units=1/GPa)
#
#
# Indices 1 2 3 4 5 6 
#
# 1 0.016004 -0.007877 0.000867 0.000000 0.000000 0.000000
# 2 -0.007877 0.019531 -0.005867 0.000000 0.000000 0.000000
# 3 0.000867 -0.005867 0.018676 0.000000 0.000000 0.000000
# 4 0.000000 0.000000 0.000000 0.029157 0.000000 0.000000
# 5 0.000000 0.000000 0.000000 0.000000 0.022180 0.000000
# 6 0.000000 0.000000 0.000000 0.000000 0.000000 0.028928
#
#
# Mechanical properties :
#
#
# Convention : Reuss Voigt Hill
#
# Bulk Modulus (GPa) = 35.13951 36.98112 36.06032
# Shear Modulus (GPa) = 29.46079 32.65667 31.05873
#
# Velocity S-wave (km/s) = 3.41741 3.59800 3.50887
# Velocity P-wave (km/s) = 5.43153 5.64984 5.54176
#
# Compressibility (1/GPa) = 0.02845799
#
# Stress axis : x y z
#
# Youngs Moduli (GPa) = 62.48383 51.19984 53.54362
#
# Poissons Ratio (x) = 0.40330 -0.04640
# Poissons Ratio (y) = 0.49218 0.31412
# Poissons Ratio (z) = -0.05414 0.30037
#
# Static dielectric constant tensor:
#      x y z
#    x 2.034000 0.000000 0.000000 
#    y 0.000000 1.994700 0.000000 
#    z 0.000000 0.000000 1.985510 
# 
# From -- ./inp_files/3078.got.cif
#   From: 2010.05.17/outbox.cif.g08.bks.cpg/sg45_2_cif.got.tgz:3078.got - 2010.06.03 19:51:22.
