data_PCOD9377703
_publ_section_title
;
Structure prediction by ZEFSAII (Michael W. Deem and Ramdas Pophale) SiO2 
 PCOD9377703
Probable space group: I B A 2
;
_chemical_formula_sum "Si O2"
_cell_formula_units_Z 48
_cell_length_a 9.444077
_cell_length_b 14.378121
_cell_length_c 17.123400
_cell_angle_alpha 90.000000
_cell_angle_beta 90.000000
_cell_angle_gamma 90.000000
_cell_volume 2325.153641
_symmetry_space_group_name_H-M "I B A 2"
_symmetry_group_IT_number 45
_symmetry_cell_setting 'orthorhombic'
loop_
_space_group_symop_operation_xyz
x,y,z
-x,-y,z
-x,y,1/2+z
x,-y,1/2+z
1/2+x,1/2+y,1/2+z
1/2-x,1/2-y,1/2+z
1/2-x,1/2+y,z
1/2+x,1/2-y,z
loop_
_atom_site_type_symbol
_atom_site_label
_atom_site_fract_x
_atom_site_fract_y
_atom_site_fract_z
Si Si1 0.287068 0.647352 0.996780
Si Si2 0.970913 0.307432 0.745715
Si Si3 0.834470 0.165573 0.316756
Si Si4 0.289460 0.523130 0.602834
Si Si5 0.500000 0.500000 0.732427
Si Si6 0.000000 0.500000 0.686253
Si Si7 0.060621 0.222004 0.579764
O O1 0.279802 0.650200 0.903885
O O2 0.297155 0.541750 0.027496
O O3 0.159094 0.699897 0.040488
O O4 0.428784 0.699275 0.024688
O O5 0.804093 0.314293 0.763968
O O6 0.032279 0.410941 0.738512
O O7 0.056670 0.250769 0.810445
O O8 0.004062 0.256883 0.663559
O O9 0.924378 0.078342 0.283923
O O10 0.377482 0.470130 0.671308
O O11 0.354062 0.625241 0.591179
O O12 0.130389 0.529041 0.632576
#
# Coordination Sequence:
#
# PCOD9377703 Si02
#       7
#     8   8   8   8   4   4   8
#     4  12  26  46  69 106 147 185 233 299 362 422
#     4  12  24  47  72 104 137 188 243 288 347 432
#     4  12  28  44  70 107 145 182 230 301 366 411
#     4  12  24  45  73 105 133 192 245 288 347 425
#     4  12  24  44  72 102 134 186 242 280 348 420
#     4  12  24  42  72 100 134 180 246 292 328 424
#     4  12  24  45  76 101 140 191 242 285 348 436
#
# _framework density 20.643798
#
# number of rings (size 3 to 8) (size 9 to 14) (size 15 to 20)
#    0.000    0.000    6.667    3.000    4.667    0.000 
#    3.000    0.000    0.000    0.000    0.000    0.000 
#    0.000    0.000    0.000    0.000    0.000    0.000 
#
# Total GULP energy -134301.645883 kJ/mol
# GULP energy per Si atom -5595.901912 kJ/mol
# Density = 2.059681 g / cm^3
# Si number density = 20.643798 Si / 1000 Ang^3
#
#
#
# Elastic Constant Matrix: (Units=GPa)
#
#
# Indices 1 2 3 4 5 6 
#
# 1 99.1680 24.4901 44.4424 0.0000 0.0000 0.0000
# 2 24.4901 132.2479 52.7243 0.0000 0.0000 0.0000
# 3 44.4424 52.7243 128.2697 0.0000 0.0000 0.0000
# 4 0.0000 0.0000 0.0000 13.8655 0.0000 0.0000
# 5 0.0000 0.0000 0.0000 0.0000 14.6771 0.0000
# 6 0.0000 0.0000 0.0000 0.0000 0.0000 32.1691
#
#
#
# Elastic Compliance Matrix: (Units=1/GPa)
#
#
# Indices 1 2 3 4 5 6 
#
# 1 0.011988 -0.000675 -0.003876 0.000000 0.000000 0.000000
# 2 -0.000675 0.009082 -0.003499 0.000000 0.000000 0.000000
# 3 -0.003876 -0.003499 0.010577 0.000000 0.000000 0.000000
# 4 0.000000 0.000000 0.000000 0.072122 0.000000 0.000000
# 5 0.000000 0.000000 0.000000 0.000000 0.068133 0.000000
# 6 0.000000 0.000000 0.000000 0.000000 0.000000 0.031086
#
#
# Mechanical properties :
#
#
# Convention : Reuss Voigt Hill
#
# Bulk Modulus (GPa) = 64.32223 66.99991 65.66107
# Shear Modulus (GPa) = 22.29463 28.01092 25.15278
#
# Velocity S-wave (km/s) = 3.28985 3.68757 3.49437
# Velocity P-wave (km/s) = 6.75697 7.11734 6.93949
#
# Compressibility (1/GPa) = 0.01554673
#
# Stress axis : x y z
#
# Youngs Moduli (GPa) = 83.41955 110.11381 94.54142
#
# Poissons Ratio (x) = 0.07428 0.36646
# Poissons Ratio (y) = 0.05627 0.33082
# Poissons Ratio (z) = 0.32335 0.38531
#
# Static dielectric constant tensor:
#      x y z
#    x 1.746940 0.000000 0.000000 
#    y 0.000000 1.754550 0.000000 
#    z 0.000000 0.000000 1.724850 
# 
# From -- ./inp_files/7584.got.cif
#   From: 2010.05.17/outbox.cif.g08.bks.cpg/sg45_4_cif.got.tgz:7584.got - 2010.06.03 19:51:22.
