data_PCOD9377358
_publ_section_title
;
Structure prediction by ZEFSAII (Michael W. Deem and Ramdas Pophale) SiO2 
 PCOD9377358
Probable space group: I B A 2
;
_chemical_formula_sum "Si O2"
_cell_formula_units_Z 28
_cell_length_a 10.137584
_cell_length_b 8.555589
_cell_length_c 14.283238
_cell_angle_alpha 90.000000
_cell_angle_beta 90.000000
_cell_angle_gamma 90.000000
_cell_volume 1238.828112
_symmetry_space_group_name_H-M "I B A 2"
_symmetry_group_IT_number 45
_symmetry_cell_setting 'orthorhombic'
loop_
_space_group_symop_operation_xyz
x,y,z
-x,-y,z
-x,y,1/2+z
x,-y,1/2+z
1/2+x,1/2+y,1/2+z
1/2-x,1/2-y,1/2+z
1/2-x,1/2+y,z
1/2+x,1/2-y,z
loop_
_atom_site_type_symbol
_atom_site_label
_atom_site_fract_x
_atom_site_fract_y
_atom_site_fract_z
Si Si1 0.674156 0.692006 0.349120
Si Si2 0.939623 0.327772 0.959833
Si Si3 0.937400 0.673081 0.670394
Si Si4 0.000000 0.000000 0.234909
O O1 0.818903 0.690026 0.389414
O O2 0.563959 0.723354 0.428807
O O3 0.652103 0.810749 0.262474
O O4 0.625546 0.533433 0.300019
O O5 0.000000 0.500000 0.954017
O O6 0.884695 0.307687 0.065013
O O7 0.000000 0.500000 0.674253
O O8 0.021332 0.835709 0.681264
#
# Coordination Sequence:
#
# PCOD9377358 Si02
#       4
#     8   8   8   4
#     4  10  24  45  72 109 152 193 250 313 372 453
#     4  11  25  45  76 112 150 200 252 311 384 445
#     4   9  21  47  76 111 152 197 254 317 370 451
#     4   8  22  46  76 104 150 200 250 306 376 448
#
# _framework density 22.602008000000001
#
# number of rings (size 3 to 8) (size 9 to 14) (size 15 to 20)
#    1.714    0.571    0.000    0.857    4.000    3.429 
#    0.000    0.000    6.286    1.714    0.000    0.000 
#    0.000    0.000    0.000    0.000    0.000    0.000 
#
# Total GULP energy -77948.838992 kJ/mol
# GULP energy per Si atom -5567.774214 kJ/mol
# Density = 2.255056 g / cm^3
# Si number density = 22.602008 Si / 1000 Ang^3
#
#
#
# Elastic Constant Matrix: (Units=GPa)
#
#
# Indices 1 2 3 4 5 6 
#
# 1 97.5068 21.3815 41.8043 0.0000 0.0000 0.0000
# 2 21.3815 141.4857 36.7279 0.0000 0.0000 0.0000
# 3 41.8043 36.7279 153.2899 0.0000 0.0000 0.0000
# 4 0.0000 0.0000 0.0000 14.6123 0.0000 0.0000
# 5 0.0000 0.0000 0.0000 0.0000 19.2788 0.0000
# 6 0.0000 0.0000 0.0000 0.0000 0.0000 20.3918
#
#
#
# Elastic Compliance Matrix: (Units=1/GPa)
#
#
# Indices 1 2 3 4 5 6 
#
# 1 0.011746 -0.001006 -0.002962 0.000000 0.000000 0.000000
# 2 -0.001006 0.007623 -0.001552 0.000000 0.000000 0.000000
# 3 -0.002962 -0.001552 0.007703 0.000000 0.000000 0.000000
# 4 0.000000 0.000000 0.000000 0.068435 0.000000 0.000000
# 5 0.000000 0.000000 0.000000 0.000000 0.051870 0.000000
# 6 0.000000 0.000000 0.000000 0.000000 0.000000 0.049039
#
#
# Mechanical properties :
#
#
# Convention : Reuss Voigt Hill
#
# Bulk Modulus (GPa) = 62.37720 65.78997 64.08359
# Shear Modulus (GPa) = 23.49596 30.34782 26.92189
#
# Velocity S-wave (km/s) = 3.22771 3.66827 3.45502
# Velocity P-wave (km/s) = 6.44583 6.86388 6.65814
#
# Compressibility (1/GPa) = 0.01603150
#
# Stress axis : x y z
#
# Youngs Moduli (GPa) = 85.13269 131.18559 129.81424
#
# Poissons Ratio (x) = 0.13199 0.38455
# Poissons Ratio (y) = 0.08566 0.20147
# Poissons Ratio (z) = 0.25219 0.20360
#
# Static dielectric constant tensor:
#      x y z
#    x 1.861260 0.000000 0.000000 
#    y 0.000000 1.896400 0.000000 
#    z 0.000000 0.000000 1.840680 
# 
# From -- ./inp_files/5338.got.cif
#   From: 2010.05.17/outbox.cif.g08.bks.cpg/sg45_3_cif.got.tgz:5338.got - 2010.06.03 19:51:22.
