data_PCOD9377282
_publ_section_title
;
Structure prediction by ZEFSAII (Michael W. Deem and Ramdas Pophale) SiO2 
 PCOD9377282
Probable space group: I B A 2
;
_chemical_formula_sum "Si O2"
_cell_formula_units_Z 48
_cell_length_a 11.707545
_cell_length_b 8.801436
_cell_length_c 19.218382
_cell_angle_alpha 90.000000
_cell_angle_beta 90.000000
_cell_angle_gamma 90.000000
_cell_volume 1980.323735
_symmetry_space_group_name_H-M "I B A 2"
_symmetry_group_IT_number 45
_symmetry_cell_setting 'orthorhombic'
loop_
_space_group_symop_operation_xyz
x,y,z
-x,-y,z
-x,y,1/2+z
x,-y,1/2+z
1/2+x,1/2+y,1/2+z
1/2-x,1/2-y,1/2+z
1/2-x,1/2+y,z
1/2+x,1/2-y,z
loop_
_atom_site_type_symbol
_atom_site_label
_atom_site_fract_x
_atom_site_fract_y
_atom_site_fract_z
Si Si1 0.806251 0.721226 0.621020
Si Si2 0.098937 0.781971 0.983113
Si Si3 0.776666 0.491178 0.912585
Si Si4 0.910663 0.771441 0.870131
Si Si5 0.896899 0.401066 0.619619
Si Si6 0.973893 0.825008 0.721075
O O1 0.901278 0.783757 0.566271
O O2 0.810818 0.541450 0.632351
O O3 0.686748 0.774872 0.588188
O O4 0.844954 0.790829 0.694491
O O5 0.150706 0.618625 0.961804
O O6 0.981786 0.799688 0.940919
O O7 0.189445 0.904569 0.955727
O O8 0.861373 0.601919 0.872036
O O9 0.696749 0.384050 0.866580
O O10 0.987218 0.802235 0.803308
O O11 0.000000 0.500000 0.586195
O O12 0.952499 0.307564 0.683341
O O13 0.000000 0.000000 0.703477
#
# Coordination Sequence:
#
# PCOD9377282 Si02
#       6
#     8   8   8   8   8   8
#     4  11  24  42  68 101 141 184 232 290 355 422
#     4  11  23  42  68  99 137 181 230 287 347 410
#     4  10  24  41  67  98 133 182 237 284 337 413
#     4  11  25  45  67  99 139 184 233 286 347 410
#     4  10  24  43  68 101 140 182 231 288 351 421
#     4  11  25  43  68 100 138 185 235 289 350 424
#
# _framework density 24.23846
#
# number of rings (size 3 to 8) (size 9 to 14) (size 15 to 20)
#    0.000    1.333    0.000    4.000    0.000   21.333 
#    0.000    0.000    0.000    0.000    0.000    0.000 
#    0.000    0.000    0.000    0.000    0.000    0.000 
#
# Total GULP energy -134056.758073 kJ/mol
# GULP energy per Si atom -5585.698253 kJ/mol
# Density = 2.418329 g / cm^3
# Si number density = 24.238460 Si / 1000 Ang^3
#
#
#
# Elastic Constant Matrix: (Units=GPa)
#
#
# Indices 1 2 3 4 5 6 
#
# 1 89.3191 38.1543 13.8981 0.0000 0.0000 0.0000
# 2 38.1543 147.6960 10.6999 0.0000 0.0000 0.0000
# 3 13.8981 10.6999 82.5698 0.0000 0.0000 0.0000
# 4 0.0000 0.0000 0.0000 13.2762 0.0000 0.0000
# 5 0.0000 0.0000 0.0000 0.0000 29.1598 0.0000
# 6 0.0000 0.0000 0.0000 0.0000 0.0000 52.6448
#
#
#
# Elastic Compliance Matrix: (Units=1/GPa)
#
#
# Indices 1 2 3 4 5 6 
#
# 1 0.012829 -0.003188 -0.001746 0.000000 0.000000 0.000000
# 2 -0.003188 0.007627 -0.000452 0.000000 0.000000 0.000000
# 3 -0.001746 -0.000452 0.012463 0.000000 0.000000 0.000000
# 4 0.000000 0.000000 0.000000 0.075323 0.000000 0.000000
# 5 0.000000 0.000000 0.000000 0.000000 0.034294 0.000000
# 6 0.000000 0.000000 0.000000 0.000000 0.000000 0.018995
#
#
# Mechanical properties :
#
#
# Convention : Reuss Voigt Hill
#
# Bulk Modulus (GPa) = 45.15085 49.45439 47.30262
# Shear Modulus (GPa) = 27.82642 36.13834 31.98238
#
# Velocity S-wave (km/s) = 3.39193 3.86547 3.63642
# Velocity P-wave (km/s) = 5.83168 6.35374 6.09830
#
# Compressibility (1/GPa) = 0.02214798
#
# Stress axis : x y z
#
# Youngs Moduli (GPa) = 77.94711 131.11549 80.23460
#
# Poissons Ratio (x) = 0.41795 0.14012
# Poissons Ratio (y) = 0.24847 0.03625
# Poissons Ratio (z) = 0.13612 0.05924
#
# Static dielectric constant tensor:
#      x y z
#    x 2.034590 0.000000 0.000000 
#    y 0.000000 1.908040 0.000000 
#    z 0.000000 0.000000 1.925260 
# 
# From -- ./inp_files/9133.got.cif
#   From: 2010.05.17/outbox.cif.g08.bks.cpg/sg45_5_cif.got.tgz:9133.got - 2010.06.03 19:51:22.
