data_PCOD9377674
_publ_section_title
;
Structure prediction by ZEFSAII (Michael W. Deem and Ramdas Pophale) SiO2 
 PCOD9377674
Probable space group: I B A 2
;
_chemical_formula_sum "Si O2"
_cell_formula_units_Z 64
_cell_length_a 11.413551
_cell_length_b 23.404832
_cell_length_c 12.062329
_cell_angle_alpha 90.000000
_cell_angle_beta 90.000000
_cell_angle_gamma 90.000000
_cell_volume 3222.237010
_symmetry_space_group_name_H-M "I B A 2"
_symmetry_group_IT_number 45
_symmetry_cell_setting 'orthorhombic'
loop_
_space_group_symop_operation_xyz
x,y,z
-x,-y,z
-x,y,1/2+z
x,-y,1/2+z
1/2+x,1/2+y,1/2+z
1/2-x,1/2-y,1/2+z
1/2-x,1/2+y,z
1/2+x,1/2-y,z
loop_
_atom_site_type_symbol
_atom_site_label
_atom_site_fract_x
_atom_site_fract_y
_atom_site_fract_z
Si Si1 0.214555 0.120939 0.020550
Si Si2 0.459201 0.715222 0.966005
Si Si3 0.351489 0.436864 0.287550
Si Si4 0.802073 0.161570 0.923927
Si Si5 0.683607 0.141004 0.152043
Si Si6 0.876852 0.929717 0.246679
Si Si7 0.312739 0.253693 0.268479
Si Si8 0.557714 0.175772 0.590744
O O1 0.174866 0.084661 0.126462
O O2 0.352191 0.135936 0.024050
O O3 0.146433 0.181812 0.024721
O O4 0.174828 0.088843 0.908998
O O5 0.572887 0.676092 0.977095
O O6 0.420869 0.720114 0.837890
O O7 0.492645 0.776554 0.015677
O O8 0.252506 0.410953 0.207800
O O9 0.482785 0.419409 0.249659
O O10 0.352607 0.505287 0.282060
O O11 0.817796 0.112330 0.834549
O O12 0.759005 0.217887 0.859531
O O13 0.717936 0.144558 0.023252
O O14 0.734543 0.197363 0.213394
O O15 0.543382 0.141649 0.155452
O O16 0.364107 0.211234 0.177500
#
# Coordination Sequence:
#
# PCOD9377674 Si02
#       8
#     8   8   8   8   8   8   8   8
#     4  12  25  47  69 101 139 184 232 280 353 418
#     4  12  23  40  65 101 138 177 222 279 342 414
#     4  11  27  45  76  99 131 178 236 299 348 402
#     4  12  23  40  66  96 138 173 225 284 342 403
#     4  12  25  42  65 101 140 182 227 280 343 415
#     4  11  26  47  71 101 129 176 233 302 345 398
#     4  12  23  40  63 100 138 182 222 276 345 414
#     4  12  26  40  65  97 149 184 220 273 345 424
#
# _framework density 19.861977
#
# number of rings (size 3 to 8) (size 9 to 14) (size 15 to 20)
#    0.000    0.250    6.250    3.000    5.250    1.000 
#    0.000    0.625    0.000    0.000    0.000    0.000 
#    0.000    0.000    0.000    0.000    0.000    0.000 
#
# Total GULP energy -179035.735055 kJ/mol
# GULP energy per Si atom -5594.866720 kJ/mol
# Density = 1.981677 g / cm^3
# Si number density = 19.861977 Si / 1000 Ang^3
#
#
#
# Elastic Constant Matrix: (Units=GPa)
#
#
# Indices 1 2 3 4 5 6 
#
# 1 111.7053 38.8487 24.7914 0.0000 0.0000 0.0000
# 2 38.8487 81.7578 25.1481 0.0001 0.0000 0.0000
# 3 24.7914 25.1481 73.8088 0.0001 -0.0001 0.0000
# 4 0.0000 0.0001 0.0001 28.0249 0.0000 0.0000
# 5 0.0000 0.0000 -0.0001 0.0000 34.1785 0.0000
# 6 0.0000 0.0000 0.0000 0.0000 0.0000 27.1472
#
#
#
# Elastic Compliance Matrix: (Units=1/GPa)
#
#
# Indices 1 2 3 4 5 6 
#
# 1 0.011019 -0.004577 -0.002142 0.000000 0.000000 0.000000
# 2 -0.004577 0.015565 -0.003766 0.000000 0.000000 0.000000
# 3 -0.002142 -0.003766 0.015551 0.000000 0.000000 0.000000
# 4 0.000000 0.000000 0.000000 0.035683 0.000000 0.000000
# 5 0.000000 0.000000 0.000000 0.000000 0.029258 0.000000
# 6 0.000000 0.000000 0.000000 0.000000 0.000000 0.036836
#
#
# Mechanical properties :
#
#
# Convention : Reuss Voigt Hill
#
# Bulk Modulus (GPa) = 47.24672 49.42758 48.33715
# Shear Modulus (GPa) = 29.08056 29.76903 29.42479
#
# Velocity S-wave (km/s) = 3.83055 3.87563 3.85315
# Velocity P-wave (km/s) = 6.58812 6.70573 6.64719
#
# Compressibility (1/GPa) = 0.02116549
#
# Stress axis : x y z
#
# Youngs Moduli (GPa) = 90.74969 64.24870 64.30490
#
# Poissons Ratio (x) = 0.29408 0.13772
# Poissons Ratio (y) = 0.41539 0.24215
# Poissons Ratio (z) = 0.19436 0.24194
#
# Static dielectric constant tensor:
#      x y z
#    x 1.719290 0.000000 0.000000 
#    y 0.000000 1.691660 0.000000 
#    z 0.000000 0.000000 1.695640 
# 
# From -- ./inp_files/3886.got.cif
#   From: 2010.05.17/outbox.cif.g08.bks.cpg/sg45_2_cif.got.tgz:3886.got - 2010.06.03 19:51:22.
