data_PCOD9377637
_publ_section_title
;
Structure prediction by ZEFSAII (Michael W. Deem and Ramdas Pophale) SiO2 
 PCOD9377637
Probable space group: I B A 2
;
_chemical_formula_sum "Si O2"
_cell_formula_units_Z 32
_cell_length_a 6.765918
_cell_length_b 15.108363
_cell_length_c 13.065111
_cell_angle_alpha 90.000000
_cell_angle_beta 90.000000
_cell_angle_gamma 90.000000
_cell_volume 1335.541060
_symmetry_space_group_name_H-M "I B A 2"
_symmetry_group_IT_number 45
_symmetry_cell_setting 'orthorhombic'
loop_
_space_group_symop_operation_xyz
x,y,z
-x,-y,z
-x,y,1/2+z
x,-y,1/2+z
1/2+x,1/2+y,1/2+z
1/2-x,1/2-y,1/2+z
1/2-x,1/2+y,z
1/2+x,1/2-y,z
loop_
_atom_site_type_symbol
_atom_site_label
_atom_site_fract_x
_atom_site_fract_y
_atom_site_fract_z
Si Si1 0.493209 0.894776 0.941710
Si Si2 0.248296 0.185178 0.262078
Si Si3 0.381991 0.872463 0.166849
Si Si4 0.875201 0.083811 0.343892
O O1 0.385110 0.829194 0.862743
O O2 0.727777 0.874588 0.928037
O O3 0.500000 0.000000 0.915755
O O4 0.372598 0.888155 0.046881
O O5 0.382260 0.128542 0.184766
O O6 0.197959 0.276737 0.204929
O O7 0.541551 0.352927 0.298627
O O8 0.264163 0.936061 0.244455
O O9 0.000000 0.000000 0.382067
#
# Coordination Sequence:
#
# PCOD9377637 Si02
#       4
#     8   8   8   8
#     4  11  26  46  76 113 146 193 263 314 373 466
#     4  11  24  49  70 105 155 199 240 320 385 451
#     4  11  26  45  73 111 149 195 255 312 380 470
#     4  11  24  48  74 102 154 196 241 321 385 444
#
# _framework density 23.960328000000001
#
# number of rings (size 3 to 8) (size 9 to 14) (size 15 to 20)
#    0.000    1.000    5.000    0.000    3.500    6.000 
#    0.000    0.000    0.000    0.000    0.000    0.000 
#    0.000    0.000    0.000    0.000    0.000    0.000 
#
# Total GULP energy -89178.192646 kJ/mol
# GULP energy per Si atom -5573.637040 kJ/mol
# Density = 2.390579 g / cm^3
# Si number density = 23.960328 Si / 1000 Ang^3
#
#
#
# Elastic Constant Matrix: (Units=GPa)
#
#
# Indices 1 2 3 4 5 6 
#
# 1 155.1380 36.9249 17.5889 0.0000 0.0000 0.0000
# 2 36.9249 102.9809 14.8593 0.0000 0.0000 0.0000
# 3 17.5889 14.8593 114.2513 0.0000 0.0000 0.0000
# 4 0.0000 0.0000 0.0000 13.0504 0.0000 0.0000
# 5 0.0000 0.0000 0.0000 0.0000 25.4518 0.0000
# 6 0.0000 0.0000 0.0000 0.0000 0.0000 42.7413
#
#
#
# Elastic Compliance Matrix: (Units=1/GPa)
#
#
# Indices 1 2 3 4 5 6 
#
# 1 0.007115 -0.002439 -0.000778 0.000000 0.000000 0.000000
# 2 -0.002439 0.010732 -0.001020 0.000000 0.000000 0.000000
# 3 -0.000778 -0.001020 0.009005 0.000000 0.000000 0.000000
# 4 0.000000 0.000000 0.000000 0.076626 0.000000 0.000000
# 5 0.000000 0.000000 0.000000 0.000000 0.039290 0.000000
# 6 0.000000 0.000000 0.000000 0.000000 0.000000 0.023397
#
#
# Mechanical properties :
#
#
# Convention : Reuss Voigt Hill
#
# Bulk Modulus (GPa) = 54.41443 56.79072 55.60258
# Shear Modulus (GPa) = 27.66025 36.44849 32.05437
#
# Velocity S-wave (km/s) = 3.40136 3.90449 3.66158
# Velocity P-wave (km/s) = 6.17942 6.63929 6.41348
#
# Compressibility (1/GPa) = 0.01837748
#
# Stress axis : x y z
#
# Youngs Moduli (GPa) = 140.55724 93.17755 111.04782
#
# Poissons Ratio (x) = 0.22723 0.08641
# Poissons Ratio (y) = 0.34278 0.11331
# Poissons Ratio (z) = 0.10937 0.09508
#
# Static dielectric constant tensor:
#      x y z
#    x 1.986430 0.000000 0.000000 
#    y 0.000000 2.051980 0.000000 
#    z 0.000000 0.000000 1.920050 
# 
# From -- ./inp_files/3091.got.cif
#   From: 2010.05.17/outbox.cif.g08.bks.cpg/sg45_2_cif.got.tgz:3091.got - 2010.06.03 19:51:22.
