data_PCOD9377038
_publ_section_title
;
Structure prediction by ZEFSAII (Michael W. Deem and Ramdas Pophale) SiO2 
 PCOD9377038
Probable space group: I B A 2
;
_chemical_formula_sum "Si O2"
_cell_formula_units_Z 60
_cell_length_a 17.502003
_cell_length_b 18.032526
_cell_length_c 8.877144
_cell_angle_alpha 90.000000
_cell_angle_beta 90.000000
_cell_angle_gamma 90.000000
_cell_volume 2801.673910
_symmetry_space_group_name_H-M "I B A 2"
_symmetry_group_IT_number 45
_symmetry_cell_setting 'orthorhombic'
loop_
_space_group_symop_operation_xyz
x,y,z
-x,-y,z
-x,y,1/2+z
x,-y,1/2+z
1/2+x,1/2+y,1/2+z
1/2-x,1/2-y,1/2+z
1/2-x,1/2+y,z
1/2+x,1/2-y,z
loop_
_atom_site_type_symbol
_atom_site_label
_atom_site_fract_x
_atom_site_fract_y
_atom_site_fract_z
Si Si1 0.493156 0.335089 0.841140
Si Si2 0.765255 0.351496 0.856203
Si Si3 0.746099 0.726055 0.057453
Si Si4 0.578411 0.092006 0.221923
Si Si5 0.150082 0.901745 0.970421
Si Si6 0.426659 0.753223 0.072423
Si Si7 0.000000 0.500000 0.977892
Si Si8 0.869227 0.948130 0.808453
O O1 0.424293 0.350944 0.955393
O O2 0.453834 0.311809 0.685132
O O3 0.550688 0.405216 0.832799
O O4 0.538831 0.266166 0.911076
O O5 0.729019 0.296648 0.729198
O O6 0.793865 0.298475 0.989315
O O7 0.834693 0.394223 0.776093
O O8 0.697383 0.406146 0.900941
O O9 0.721504 0.653932 0.960643
O O10 0.835627 0.743127 0.056032
O O11 0.550630 0.169445 0.150129
O O12 0.532179 0.063195 0.366799
O O13 0.565148 0.032151 0.089130
O O14 0.135954 0.966481 0.851783
O O15 0.151419 0.938608 0.133897
#
# Coordination Sequence:
#
# PCOD9377038 Si02
#       8
#     8   8   8   8   8   8   4   8
#     4  12  23  42  67 101 135 179 227 290 345 412
#     4  10  22  42  65  95 129 176 229 280 344 411
#     4  10  22  43  64  94 131 175 228 284 336 408
#     4  10  22  41  67  96 132 176 224 277 348 406
#     4  11  25  41  65  96 139 180 230 278 345 416
#     4  11  23  41  69  99 135 175 227 284 342 409
#     4  10  22  44  64  98 138 174 224 286 336 420
#     4  11  25  41  62  96 136 178 230 278 346 418
#
# _framework density 21.415768
#
# number of rings (size 3 to 8) (size 9 to 14) (size 15 to 20)
#    0.000    1.333    2.667    2.800    1.867    5.333 
#    0.000    2.667    0.000    0.000    0.000    0.000 
#    0.000    0.000    0.000    0.000    0.000    0.000 
#
# Total GULP energy -167488.524985 kJ/mol
# GULP energy per Si atom -5582.950833 kJ/mol
# Density = 2.136703 g / cm^3
# Si number density = 21.415768 Si / 1000 Ang^3
#
#
#
# Elastic Constant Matrix: (Units=GPa)
#
#
# Indices 1 2 3 4 5 6 
#
# 1 86.7048 39.8480 25.6317 0.0000 0.0000 0.0000
# 2 39.8480 58.7920 9.8954 0.0000 0.0000 0.0000
# 3 25.6317 9.8954 47.9685 0.0000 0.0000 0.0000
# 4 0.0000 0.0000 0.0000 37.4090 0.0000 0.0000
# 5 0.0000 0.0000 0.0000 0.0000 27.3831 0.0000
# 6 0.0000 0.0000 0.0000 0.0000 0.0000 34.5169
#
#
#
# Elastic Compliance Matrix: (Units=1/GPa)
#
#
# Indices 1 2 3 4 5 6 
#
# 1 0.019245 -0.011720 -0.007866 0.000000 0.000000 0.000000
# 2 -0.011720 0.024758 0.001155 0.000000 0.000000 0.000000
# 3 -0.007866 0.001155 0.024812 0.000000 0.000000 0.000000
# 4 0.000000 0.000000 0.000000 0.026732 0.000000 0.000000
# 5 0.000000 0.000000 0.000000 0.000000 0.036519 0.000000
# 6 0.000000 0.000000 0.000000 0.000000 0.000000 0.028971
#
#
# Mechanical properties :
#
#
# Convention : Reuss Voigt Hill
#
# Bulk Modulus (GPa) = 31.29513 38.24616 34.77064
# Shear Modulus (GPa) = 23.97517 27.73447 25.85482
#
# Velocity S-wave (km/s) = 3.34954 3.60258 3.47836
# Velocity P-wave (km/s) = 5.44096 5.93317 5.69239
#
# Compressibility (1/GPa) = 0.03195386
#
# Stress axis : x y z
#
# Youngs Moduli (GPa) = 51.96167 40.39055 40.30346
#
# Poissons Ratio (x) = 0.47338 0.31702
# Poissons Ratio (y) = 0.60899 -0.04656
# Poissons Ratio (z) = 0.40872 -0.04666
#
# Static dielectric constant tensor:
#      x y z
#    x 1.771380 0.000000 0.000000 
#    y 0.000000 1.803180 0.000000 
#    z 0.000000 0.000000 1.789690 
# 
# From -- ./inp_files/2148.got.cif
#   From: 2010.05.17/outbox.cif.g08.bks.cpg/sg45_2_cif.got.tgz:2148.got - 2010.06.03 19:51:22.
