data_PCOD9377599
_publ_section_title
;
Structure prediction by ZEFSAII (Michael W. Deem and Ramdas Pophale) SiO2 
 PCOD9377599
Probable space group: I B A 2
;
_chemical_formula_sum "Si O2"
_cell_formula_units_Z 48
_cell_length_a 15.119095
_cell_length_b 16.152528
_cell_length_c 8.593324
_cell_angle_alpha 90.000000
_cell_angle_beta 90.000000
_cell_angle_gamma 90.000000
_cell_volume 2098.589449
_symmetry_space_group_name_H-M "I B A 2"
_symmetry_group_IT_number 45
_symmetry_cell_setting 'orthorhombic'
loop_
_space_group_symop_operation_xyz
x,y,z
-x,-y,z
-x,y,1/2+z
x,-y,1/2+z
1/2+x,1/2+y,1/2+z
1/2-x,1/2-y,1/2+z
1/2-x,1/2+y,z
1/2+x,1/2-y,z
loop_
_atom_site_type_symbol
_atom_site_label
_atom_site_fract_x
_atom_site_fract_y
_atom_site_fract_z
Si Si1 0.089794 0.051695 0.069000
Si Si2 0.027527 0.594789 0.145384
Si Si3 0.712658 0.489180 0.819725
Si Si4 0.327639 0.279354 0.632664
Si Si5 0.812433 0.346576 0.340932
Si Si6 0.869861 0.643635 0.337352
O O1 0.098572 0.148760 0.112084
O O2 0.177051 0.013178 0.150532
O O3 0.121075 0.042959 0.892656
O O4 0.000000 0.000000 0.094874
O O5 0.094462 0.613905 0.287044
O O6 0.000000 0.500000 0.131214
O O7 0.935278 0.634950 0.190120
O O8 0.074193 0.625134 0.989597
O O9 0.751845 0.574929 0.887796
O O10 0.787852 0.419444 0.825998
O O11 0.230778 0.315983 0.675888
O O12 0.322059 0.221263 0.478841
O O13 0.341141 0.236188 0.801362
#
# Coordination Sequence:
#
# PCOD9377599 Si02
#       6
#     8   8   8   8   8   8
#     4  11  25  48  71 103 139 192 251 301 364 437
#     4  12  25  44  73 108 152 193 244 308 377 464
#     4  11  23  44  77  95 142 191 239 302 371 447
#     4  11  25  46  71 108 147 192 253 315 373 448
#     4  11  23  46  72 108 146 195 249 308 383 444
#     4  12  25  45  70 111 145 194 244 306 380 448
#
# _framework density 22.872506000000001
#
# number of rings (size 3 to 8) (size 9 to 14) (size 15 to 20)
#    0.000    0.667    1.667    7.000    2.333    0.000 
#   24.000    0.000    0.000    0.000    0.000    0.000 
#    0.000    0.000    0.000    0.000    0.000    0.000 
#
# Total GULP energy -133815.068742 kJ/mol
# GULP energy per Si atom -5575.627864 kJ/mol
# Density = 2.282045 g / cm^3
# Si number density = 22.872506 Si / 1000 Ang^3
#
#
#
# Elastic Constant Matrix: (Units=GPa)
#
#
# Indices 1 2 3 4 5 6 
#
# 1 130.9938 54.0097 47.9522 0.0000 0.0000 0.0000
# 2 54.0097 120.4978 57.3562 0.0000 0.0000 0.0000
# 3 47.9522 57.3562 99.2258 0.0000 0.0000 0.0000
# 4 0.0000 0.0000 0.0000 34.9605 0.0000 0.0000
# 5 0.0000 0.0000 0.0000 0.0000 52.1687 0.0000
# 6 0.0000 0.0000 0.0000 0.0000 0.0000 -17.6694
#
#
#
# Elastic Compliance Matrix: (Units=1/GPa)
#
#
# Indices 1 2 3 4 5 6 
#
# 1 0.010009 -0.003013 -0.003096 0.000000 0.000000 0.000000
# 2 -0.003013 0.012356 -0.005686 0.000000 0.000000 0.000000
# 3 -0.003096 -0.005686 0.014861 0.000000 0.000000 0.000000
# 4 0.000000 0.000000 0.000000 0.028604 0.000000 0.000000
# 5 0.000000 0.000000 0.000000 0.000000 0.019169 0.000000
# 6 0.000000 0.000000 0.000000 0.000000 0.000000 -0.056595
#
#
# Mechanical properties :
#
#
# Convention : Reuss Voigt Hill
#
# Bulk Modulus (GPa) = 73.33101 74.37264 73.85182
# Shear Modulus (GPa) = 88.43563 26.65192 57.54377
#
# Velocity S-wave (km/s) = 6.22483 3.41726 5.02127
# Velocity P-wave (km/s) = 9.15397 6.93952 8.12256
#
# Compressibility (1/GPa) = 0.01363680
#
# Stress axis : x y z
#
# Youngs Moduli (GPa) = 99.90623 80.93261 67.29112
#
# Poissons Ratio (x) = 0.24385 0.20830
# Poissons Ratio (y) = 0.30101 0.38263
# Poissons Ratio (z) = 0.30927 0.46020
#
# Static dielectric constant tensor:
#      x y z
#    x 1.834440 0.000000 0.000000 
#    y 0.000000 1.540140 0.000000 
#    z 0.000000 0.000000 2.071060 
# 
# From -- ./inp_files/1721.got.cif
#   From: 2010.05.17/outbox.cif.g08.bks.cpg/sg45_1_cif.got.tgz:1721.got - 2010.06.03 19:51:22.
