data_PCOD9377952
_publ_section_title
;
Structure prediction by ZEFSAII (Michael W. Deem and Ramdas Pophale) SiO2 
 PCOD9377952
Probable space group: I M A 2
;
_chemical_formula_sum "Si O2"
_cell_formula_units_Z 64
_cell_length_a 8.749115
_cell_length_b 27.097188
_cell_length_c 19.080446
_cell_angle_alpha 90.000000
_cell_angle_beta 90.000000
_cell_angle_gamma 90.000000
_cell_volume 4523.523715
_symmetry_space_group_name_H-M "I M A 2"
_symmetry_group_IT_number 46
_symmetry_cell_setting 'orthorhombic'
loop_
_space_group_symop_operation_xyz
x,y,z
-x,-y,z
1/2-x,y,z
1/2+x,-y,z
1/2+x,1/2+y,1/2+z
1/2-x,1/2-y,1/2+z
-x,1/2+y,1/2+z
x,1/2-y,1/2+z
loop_
_atom_site_type_symbol
_atom_site_label
_atom_site_fract_x
_atom_site_fract_y
_atom_site_fract_z
Si Si1 0.565329 0.252077 0.727450
Si Si2 0.567263 0.144680 0.304514
Si Si3 0.065610 0.704731 0.932696
Si Si4 0.931305 0.700125 0.354485
Si Si5 0.066408 0.053650 0.060904
Si Si6 0.566368 0.146577 0.980677
Si Si7 0.432054 0.053102 0.223546
Si Si8 0.565171 0.255771 0.567963
O O1 0.750000 0.248050 0.729963
O O2 0.527051 0.305923 0.760154
O O3 0.495884 0.209737 0.776850
O O4 0.510575 0.250167 0.647241
O O5 0.750000 0.138484 0.299086
O O6 0.529278 0.157173 0.385697
O O7 0.488645 0.097134 0.272389
O O8 0.250000 0.712508 0.925963
O O9 0.982375 0.750039 0.894807
O O10 0.026507 0.711359 0.014306
O O11 0.750000 0.695160 0.353327
O O12 0.005027 0.657809 0.402719
O O13 0.250000 0.052972 0.056400
O O14 0.022180 0.063094 0.142433
O O15 0.998988 0.096728 0.013171
O O16 0.000000 0.000000 0.042214
O O17 0.750000 0.145696 0.979593
O O18 0.518147 0.192808 0.030798
O O19 0.250000 0.050080 0.225590
O O20 0.500000 0.000000 0.243459
O O21 0.750000 0.257680 0.571898
#
# Coordination Sequence:
#
# PCOD9377952 Si02
#       8
#     8   8   8   8   8   8   8   8
#     4   9  16  27  42  60  82 110 140 169 201 243
#     4   9  16  26  41  59  82 110 141 173 207 244
#     4   8  15  28  42  58  80 108 139 170 204 245
#     4  10  18  27  39  58  83 109 137 171 205 241
#     4  10  20  32  44  61  83 108 138 174 210 245
#     4  10  18  30  46  61  80 110 143 174 208 246
#     4  10  20  31  43  59  82 109 140 175 210 245
#     4   8  14  25  43  62  80 106 141 172 200 239
#
# _framework density 14.148262000000001
#
# number of rings (size 3 to 8) (size 9 to 14) (size 15 to 20)
#    0.000    2.750    0.000    4.500    0.000    4.500 
#    0.000    3.125    0.000    0.000    0.000    0.000 
#    0.000    1.000    0.000    5.000    0.000    3.750 
#
# Total GULP energy -178180.356831 kJ/mol
# GULP energy per Si atom -5568.136151 kJ/mol
# Density = 1.411606 g / cm^3
# Si number density = 14.148262 Si / 1000 Ang^3
#
#
#
# Elastic Constant Matrix: (Units=GPa)
#
#
# Indices 1 2 3 4 5 6 
#
# 1 36.0462 34.9114 32.2644 0.0000 0.0000 0.0000
# 2 34.9114 93.9269 63.5298 0.0000 0.0000 0.0000
# 3 32.2644 63.5298 119.7058 0.0000 0.0000 0.0000
# 4 0.0000 0.0000 0.0000 24.7552 0.0000 0.0000
# 5 0.0000 0.0000 0.0000 0.0000 14.7495 0.0000
# 6 0.0000 0.0000 0.0000 0.0000 0.0000 22.3443
#
#
#
# Elastic Compliance Matrix: (Units=1/GPa)
#
#
# Indices 1 2 3 4 5 6 
#
# 1 0.045260 -0.013371 -0.005103 0.000000 0.000000 0.000000
# 2 -0.013371 0.020559 -0.007307 0.000000 0.000000 0.000000
# 3 -0.005103 -0.007307 0.013607 0.000000 0.000000 0.000000
# 4 0.000000 0.000000 0.000000 0.040396 0.000000 0.000000
# 5 0.000000 0.000000 0.000000 0.000000 0.067799 0.000000
# 6 0.000000 0.000000 0.000000 0.000000 0.000000 0.044754
#
#
# Mechanical properties :
#
#
# Convention : Reuss Voigt Hill
#
# Bulk Modulus (GPa) = 35.88853 56.78779 46.33816
# Shear Modulus (GPa) = 17.05187 20.30135 18.67661
#
# Velocity S-wave (km/s) = 3.47540 3.79212 3.63721
# Velocity P-wave (km/s) = 6.44404 7.70703 7.10366
#
# Compressibility (1/GPa) = 0.02786406
#
# Stress axis : x y z
#
# Youngs Moduli (GPa) = 22.09478 48.64136 73.49163
#
# Poissons Ratio (x) = 0.65039 0.37500
# Poissons Ratio (y) = 0.29543 0.53699
# Poissons Ratio (z) = 0.11274 0.35542
#
# Static dielectric constant tensor:
#      x y z
#    x 1.471920 0.000000 0.000000 
#    y 0.000000 1.443230 0.000000 
#    z 0.000000 0.000000 1.494210 
# 
# From -- ./inp_files/18632.got.cif
#   From: 2010.05.17/outbox.cif.g08.bks.cpg/sg46_10_cif.got.tgz:18632.got - 2010.06.03 19:58:25.
