data_PCOD9377045
_publ_section_title
;
Structure prediction by ZEFSAII (Michael W. Deem and Ramdas Pophale) SiO2 
 PCOD9377045
Probable space group: I B A 2
;
_chemical_formula_sum "Si O2"
_cell_formula_units_Z 48
_cell_length_a 12.938084
_cell_length_b 9.607181
_cell_length_c 17.106714
_cell_angle_alpha 90.000000
_cell_angle_beta 90.000000
_cell_angle_gamma 90.000000
_cell_volume 2126.339143
_symmetry_space_group_name_H-M "I B A 2"
_symmetry_group_IT_number 45
_symmetry_cell_setting 'orthorhombic'
loop_
_space_group_symop_operation_xyz
x,y,z
-x,-y,z
-x,y,1/2+z
x,-y,1/2+z
1/2+x,1/2+y,1/2+z
1/2-x,1/2-y,1/2+z
1/2-x,1/2+y,z
1/2+x,1/2-y,z
loop_
_atom_site_type_symbol
_atom_site_label
_atom_site_fract_x
_atom_site_fract_y
_atom_site_fract_z
Si Si1 0.441998 0.795681 0.587240
Si Si2 0.778922 0.590873 0.871452
Si Si3 0.000000 0.500000 0.447200
Si Si4 0.664565 0.723485 0.613830
Si Si5 0.500000 0.000000 0.217649
Si Si6 0.309612 0.157368 0.778244
Si Si7 0.281126 0.437928 0.038050
O O1 0.542152 0.709533 0.615519
O O2 0.359773 0.676397 0.570461
O O3 0.456041 0.880324 0.505727
O O4 0.430093 0.907823 0.657891
O O5 0.734418 0.740066 0.844970
O O6 0.758419 0.489481 0.798468
O O7 0.900178 0.563859 0.898195
O O8 0.712772 0.543300 0.945944
O O9 0.711374 0.770821 0.695864
O O10 0.711845 0.584010 0.580033
O O11 0.676581 0.855197 0.556257
O O12 0.570079 0.108456 0.266635
#
# Coordination Sequence:
#
# PCOD9377045 Si02
#       7
#     8   8   4   8   4   8   8
#     4  10  22  41  74 107 140 190 255 312 360 434
#     4  12  25  43  72 107 150 196 242 308 384 451
#     4  11  21  42  70 106 146 194 246 306 374 450
#     4  11  24  44  69 104 139 189 249 308 362 447
#     4   9  23  46  74 106 146 196 250 310 384 442
#     4  11  25  45  69 106 146 194 241 302 382 449
#     4  12  24  42  73 103 139 191 251 304 366 445
#
# _framework density 22.574012
#
# number of rings (size 3 to 8) (size 9 to 14) (size 15 to 20)
#    0.000    1.000    1.667    5.000    7.000    0.000 
#    0.000    0.000    0.000    0.000    0.000    0.000 
#    0.000    0.000    0.000    0.000    0.000    0.000 
#
# Total GULP energy -133808.550102 kJ/mol
# GULP energy per Si atom -5575.356254 kJ/mol
# Density = 2.252263 g / cm^3
# Si number density = 22.574012 Si / 1000 Ang^3
#
#
#
# Elastic Constant Matrix: (Units=GPa)
#
#
# Indices 1 2 3 4 5 6 
#
# 1 89.8009 44.3492 36.9651 0.0000 0.0000 0.0000
# 2 44.3492 153.9879 49.4091 0.0000 0.0000 0.0000
# 3 36.9651 49.4091 111.1514 0.0000 0.0000 0.0000
# 4 0.0000 0.0000 0.0000 46.2594 0.0000 0.0000
# 5 0.0000 0.0000 0.0000 0.0000 30.9938 0.0000
# 6 0.0000 0.0000 0.0000 0.0000 0.0000 46.1153
#
#
#
# Elastic Compliance Matrix: (Units=1/GPa)
#
#
# Indices 1 2 3 4 5 6 
#
# 1 0.013966 -0.002953 -0.003332 0.000000 0.000000 0.000000
# 2 -0.002953 0.008199 -0.002662 0.000000 0.000000 0.000000
# 3 -0.003332 -0.002662 0.011288 0.000000 0.000000 0.000000
# 4 0.000000 0.000000 0.000000 0.021617 0.000000 0.000000
# 5 0.000000 0.000000 0.000000 0.000000 0.032265 0.000000
# 6 0.000000 0.000000 0.000000 0.000000 0.000000 0.021685
#
#
# Mechanical properties :
#
#
# Convention : Reuss Voigt Hill
#
# Bulk Modulus (GPa) = 64.27525 68.48743 66.38134
# Shear Modulus (GPa) = 37.85012 39.62148 38.73580
#
# Velocity S-wave (km/s) = 4.09921 4.19403 4.14689
# Velocity P-wave (km/s) = 7.13720 7.33881 7.23871
#
# Compressibility (1/GPa) = 0.01555809
#
# Stress axis : x y z
#
# Youngs Moduli (GPa) = 71.60424 121.96901 88.58746
#
# Poissons Ratio (x) = 0.36019 0.29515
# Poissons Ratio (y) = 0.21146 0.23586
# Poissons Ratio (z) = 0.23857 0.32473
#
# Static dielectric constant tensor:
#      x y z
#    x 1.961980 0.000000 0.000000 
#    y 0.000000 1.800950 0.000000 
#    z 0.000000 0.000000 1.907040 
# 
# From -- ./inp_files/7595.got.cif
#   From: 2010.05.17/outbox.cif.g08.bks.cpg/sg45_4_cif.got.tgz:7595.got - 2010.06.03 19:51:22.
