data_PCOD9377332
_publ_section_title
;
Structure prediction by ZEFSAII (Michael W. Deem and Ramdas Pophale) SiO2 
 PCOD9377332
Probable space group: I B A 2
;
_chemical_formula_sum "Si O2"
_cell_formula_units_Z 40
_cell_length_a 4.829252
_cell_length_b 18.620609
_cell_length_c 17.154754
_cell_angle_alpha 90.000000
_cell_angle_beta 90.000000
_cell_angle_gamma 90.000000
_cell_volume 1542.617464
_symmetry_space_group_name_H-M "I B A 2"
_symmetry_group_IT_number 45
_symmetry_cell_setting 'orthorhombic'
loop_
_space_group_symop_operation_xyz
x,y,z
-x,-y,z
-x,y,1/2+z
x,-y,1/2+z
1/2+x,1/2+y,1/2+z
1/2-x,1/2-y,1/2+z
1/2-x,1/2+y,z
1/2+x,1/2-y,z
loop_
_atom_site_type_symbol
_atom_site_label
_atom_site_fract_x
_atom_site_fract_y
_atom_site_fract_z
Si Si1 0.203236 0.606124 0.680500
Si Si2 0.724063 0.109072 0.435851
Si Si3 0.500000 0.500000 0.059191
Si Si4 0.479699 0.301938 0.805409
Si Si5 0.613803 0.206009 0.565588
Si Si6 0.500000 0.000000 0.811476
O O1 0.324282 0.550468 0.617195
O O2 0.431405 0.650192 0.730761
O O3 0.038522 0.560910 0.744039
O O4 0.001446 0.659174 0.635203
O O5 0.946668 0.149866 0.381030
O O6 0.555351 0.167900 0.483928
O O7 0.845894 0.055452 0.501456
O O8 0.546887 0.060911 0.378593
O O9 0.175034 0.269005 0.804961
O O10 0.438991 0.279074 0.568684
#
# Coordination Sequence:
#
# PCOD9377332 Si02
#       6
#     8   8   4   8   8   4
#     4  11  25  44  73 106 148 193 248 306 373 445
#     4  11  25  44  73 106 148 193 248 306 373 445
#     4  12  26  48  76 110 150 200 252 312 376 448
#     4  11  26  48  74 106 145 192 244 306 372 444
#     4  12  25  45  74 109 149 196 248 310 376 448
#     4  10  24  44  68 104 146 196 248 308 372 444
#
# _framework density 25.929952
#
# number of rings (size 3 to 8) (size 9 to 14) (size 15 to 20)
#    0.000    0.800    0.000    6.000    0.000   12.800 
#    0.000    0.000    0.000    0.000    0.000    0.000 
#    0.000    0.000    0.000    0.000    0.000    0.000 
#
# Total GULP energy -111780.336479 kJ/mol
# GULP energy per Si atom -5589.016824 kJ/mol
# Density = 2.587093 g / cm^3
# Si number density = 25.929952 Si / 1000 Ang^3
#
#
#
# Elastic Constant Matrix: (Units=GPa)
#
#
# Indices 1 2 3 4 5 6 
#
# 1 55.8807 20.5127 33.5515 0.0000 0.0000 0.0000
# 2 20.5127 130.9479 72.2294 0.0000 0.0000 0.0000
# 3 33.5515 72.2294 233.2611 -0.0001 0.0000 0.0000
# 4 0.0000 0.0000 -0.0001 17.3148 0.0000 0.0000
# 5 0.0000 0.0000 0.0000 0.0000 11.2694 0.0000
# 6 0.0000 0.0000 0.0000 0.0000 0.0000 -1.5392
#
#
#
# Elastic Compliance Matrix: (Units=1/GPa)
#
#
# Indices 1 2 3 4 5 6 
#
# 1 0.019956 -0.001861 -0.002294 0.000000 0.000000 0.000000
# 2 -0.001861 0.009383 -0.002638 0.000000 0.000000 0.000000
# 3 -0.002294 -0.002638 0.005434 0.000000 0.000000 0.000000
# 4 0.000000 0.000000 0.000000 0.057754 0.000000 0.000000
# 5 0.000000 0.000000 0.000000 0.000000 0.088736 0.000000
# 6 0.000000 0.000000 0.000000 0.000000 0.000000 -0.649702
#
#
# Mechanical properties :
#
#
# Convention : Reuss Voigt Hill
#
# Bulk Modulus (GPa) = 47.19789 74.74186 60.96987
# Shear Modulus (GPa) = -11.16591 24.99541 6.91475
#
# Velocity S-wave (km/s) = -2.07739 3.10814 1.63478
# Velocity P-wave (km/s) = 3.53377 6.46280 5.20842
#
# Compressibility (1/GPa) = 0.02118739
#
# Stress axis : x y z
#
# Youngs Moduli (GPa) = 50.11089 106.57465 184.03138
#
# Poissons Ratio (x) = 0.19829 0.42221
# Poissons Ratio (y) = 0.09323 0.48545
# Poissons Ratio (z) = 0.11497 0.28113
#
# Static dielectric constant tensor:
#      x y z
#    x 2.076220 0.000000 0.000000 
#    y 0.000000 2.019970 0.000000 
#    z 0.000000 0.000000 1.963780 
# 
# From -- ./inp_files/7266.got.cif
#   From: 2010.05.17/outbox.cif.g08.bks.cpg/sg45_4_cif.got.tgz:7266.got - 2010.06.03 19:51:22.
