data_PCOD9377324
_publ_section_title
;
Structure prediction by ZEFSAII (Michael W. Deem and Ramdas Pophale) SiO2 
 PCOD9377324
Probable space group: I B A 2
;
_chemical_formula_sum "Si O2"
_cell_formula_units_Z 56
_cell_length_a 8.617353
_cell_length_b 21.932021
_cell_length_c 14.095996
_cell_angle_alpha 90.000000
_cell_angle_beta 90.000000
_cell_angle_gamma 90.000000
_cell_volume 2664.086394
_symmetry_space_group_name_H-M "I B A 2"
_symmetry_group_IT_number 45
_symmetry_cell_setting 'orthorhombic'
loop_
_space_group_symop_operation_xyz
x,y,z
-x,-y,z
-x,y,1/2+z
x,-y,1/2+z
1/2+x,1/2+y,1/2+z
1/2-x,1/2-y,1/2+z
1/2-x,1/2+y,z
1/2+x,1/2-y,z
loop_
_atom_site_type_symbol
_atom_site_label
_atom_site_fract_x
_atom_site_fract_y
_atom_site_fract_z
Si Si1 0.419140 0.063634 0.708870
Si Si2 0.463940 0.163795 0.081154
Si Si3 0.987078 0.164473 0.246966
Si Si4 0.916417 0.064027 0.109865
Si Si5 0.041030 0.065837 0.911019
Si Si6 0.278847 0.752801 0.163011
Si Si7 0.601305 0.060955 0.434826
O O1 0.524635 0.117421 0.669318
O O2 0.253514 0.065189 0.656292
O O3 0.402940 0.068835 0.821492
O O4 0.500000 0.000000 0.687136
O O5 0.611116 0.207537 0.095142
O O6 0.317970 0.207167 0.096896
O O7 0.461356 0.119885 0.990432
O O8 0.011362 0.117090 0.161172
O O9 0.968953 0.122198 0.339219
O O10 0.832629 0.201927 0.220737
O O11 0.122957 0.213737 0.238830
O O12 0.000000 0.000000 0.126874
O O13 0.921882 0.074880 0.997463
O O14 0.213784 0.057607 0.955118
O O15 0.000000 0.000000 0.864589
O O16 0.500000 0.000000 0.457602
#
# Coordination Sequence:
#
# PCOD9377324 Si02
#       7
#     8   8   8   8   8   8   8
#     4  11  25  44  71 104 139 179 220 288 358 414
#     4  11  23  46  68  98 136 179 230 290 323 418
#     4  11  22  47  66  97 139 177 230 290 321 420
#     4  11  24  42  71 103 137 177 219 285 353 416
#     4  11  25  41  68 107 136 177 224 281 358 413
#     4  10  24  43  73  94 135 190 239 266 347 388
#     4  11  25  43  70 106 141 174 227 285 356 419
#
# _framework density 21.020337999999999
#
# number of rings (size 3 to 8) (size 9 to 14) (size 15 to 20)
#    0.000    1.143    2.857    1.714   10.000    1.143 
#    0.000   15.714    0.000    0.000    0.000    0.000 
#    0.000    0.000    0.000    0.000    0.000    0.000 
#
# Total GULP energy -156529.525651 kJ/mol
# GULP energy per Si atom -5590.340202 kJ/mol
# Density = 2.097249 g / cm^3
# Si number density = 21.020338 Si / 1000 Ang^3
#
#
#
# Elastic Constant Matrix: (Units=GPa)
#
#
# Indices 1 2 3 4 5 6 
#
# 1 92.1677 82.0054 54.6471 0.0000 0.0000 0.0000
# 2 82.0054 177.3389 66.1772 0.0000 0.0000 0.0000
# 3 54.6471 66.1772 122.0773 0.0001 0.0000 0.0000
# 4 0.0000 0.0000 0.0001 20.9867 0.0000 0.0000
# 5 0.0000 0.0000 0.0000 0.0000 19.4944 0.0000
# 6 0.0000 0.0000 0.0000 0.0000 0.0000 37.8991
#
#
#
# Elastic Compliance Matrix: (Units=1/GPa)
#
#
# Indices 1 2 3 4 5 6 
#
# 1 0.020700 -0.007665 -0.005111 0.000000 0.000000 0.000000
# 2 -0.007665 0.009907 -0.001939 0.000000 0.000000 0.000000
# 3 -0.005111 -0.001939 0.011531 0.000000 0.000000 0.000000
# 4 0.000000 0.000000 0.000000 0.047649 0.000000 0.000000
# 5 0.000000 0.000000 0.000000 0.000000 0.051297 0.000000
# 6 0.000000 0.000000 0.000000 0.000000 0.000000 0.026386
#
#
# Mechanical properties :
#
#
# Convention : Reuss Voigt Hill
#
# Bulk Modulus (GPa) = 78.69644 88.58258 83.63951
# Shear Modulus (GPa) = 24.85881 28.25966 26.55924
#
# Velocity S-wave (km/s) = 3.44264 3.67058 3.55843
# Velocity P-wave (km/s) = 7.30218 7.75868 7.53389
#
# Compressibility (1/GPa) = 0.01270705
#
# Stress axis : x y z
#
# Youngs Moduli (GPa) = 48.30941 100.93858 86.72381
#
# Poissons Ratio (x) = 0.77367 0.44326
# Poissons Ratio (y) = 0.37028 0.16820
# Poissons Ratio (z) = 0.24692 0.19576
#
# Static dielectric constant tensor:
#      x y z
#    x 1.799150 0.000000 0.000000 
#    y 0.000000 1.764550 0.000000 
#    z 0.000000 0.000000 1.747290 
# 
# From -- ./inp_files/5732.got.cif
#   From: 2010.05.17/outbox.cif.g08.bks.cpg/sg45_3_cif.got.tgz:5732.got - 2010.06.03 19:51:22.
