data_PCOD9377989
_publ_section_title
;
Structure prediction by ZEFSAII (Michael W. Deem and Ramdas Pophale) SiO2 
 PCOD9377989
Probable space group: I M A 2
;
_chemical_formula_sum "Si O2"
_cell_formula_units_Z 56
_cell_length_a 8.617933
_cell_length_b 22.615061
_cell_length_c 18.261864
_cell_angle_alpha 90.000000
_cell_angle_beta 90.000000
_cell_angle_gamma 90.000000
_cell_volume 3559.147454
_symmetry_space_group_name_H-M "I M A 2"
_symmetry_group_IT_number 46
_symmetry_cell_setting 'orthorhombic'
loop_
_space_group_symop_operation_xyz
x,y,z
-x,-y,z
1/2-x,y,z
1/2+x,-y,z
1/2+x,1/2+y,1/2+z
1/2-x,1/2-y,1/2+z
-x,1/2+y,1/2+z
x,1/2-y,1/2+z
loop_
_atom_site_type_symbol
_atom_site_label
_atom_site_fract_x
_atom_site_fract_y
_atom_site_fract_z
Si Si1 0.935458 0.315208 0.737300
Si Si2 0.435458 0.282884 0.589067
Si Si3 0.564468 0.282406 0.430935
Si Si4 0.564502 0.685970 0.283006
Si Si5 0.935778 0.434064 0.005785
Si Si6 0.564258 0.345403 0.136613
Si Si7 0.935172 0.653417 0.885089
O O1 0.750000 0.316139 0.737459
O O2 0.000118 0.322812 0.655553
O O3 0.995817 0.249899 0.759871
O O4 0.001865 0.355242 0.802557
O O5 0.250000 0.283145 0.589532
O O6 0.500830 0.300352 0.510074
O O7 0.493793 0.215792 0.605161
O O8 0.750000 0.282155 0.429963
O O9 0.499376 0.322457 0.364718
O O10 0.505471 0.215326 0.415236
O O11 0.750000 0.688517 0.283422
O O12 0.504680 0.644571 0.217570
O O13 0.750000 0.434480 0.996631
O O14 0.970976 0.397339 0.079711
O O15 0.000000 0.500000 0.009723
O O16 0.011183 0.398185 0.938864
O O17 0.750000 0.337896 0.141644
O O18 0.750000 0.659046 0.883889
#
# Coordination Sequence:
#
# PCOD9377989 Si02
#       7
#     8   8   8   8   8   8   8
#     4  10  18  29  44  63  89 120 153 187 228 277
#     4  11  19  28  44  67  93 122 156 190 228 275
#     4  11  19  29  44  65  93 124 156 188 229 278
#     4  10  18  28  43  64  88 117 153 189 227 274
#     4  11  23  36  51  69  92 122 162 202 240 279
#     4  10  19  32  47  63  88 121 154 191 235 278
#     4  11  20  32  48  65  89 120 156 195 236 277
#
# _framework density 15.734106000000001
#
# number of rings (size 3 to 8) (size 9 to 14) (size 15 to 20)
#    0.000    1.429    1.429   10.714    0.000    1.714 
#    0.000    0.000    0.000    0.000    0.000    0.000 
#    0.000    1.143    0.000    9.714    0.000    6.571 
#
# Total GULP energy -156249.751121 kJ/mol
# GULP energy per Si atom -5580.348254 kJ/mol
# Density = 1.569829 g / cm^3
# Si number density = 15.734106 Si / 1000 Ang^3
#
#
#
# Elastic Constant Matrix: (Units=GPa)
#
#
# Indices 1 2 3 4 5 6 
#
# 1 156.1026 33.0399 78.6461 0.0000 0.0000 0.0000
# 2 33.0399 43.2361 41.4897 0.0000 0.0000 0.0000
# 3 78.6461 41.4897 182.7572 0.0000 0.0000 0.0000
# 4 0.0000 0.0000 0.0000 11.8012 0.0000 0.0000
# 5 0.0000 0.0000 0.0000 0.0000 32.9134 0.0000
# 6 0.0000 0.0000 0.0000 0.0000 0.0000 15.9398
#
#
#
# Elastic Compliance Matrix: (Units=1/GPa)
#
#
# Indices 1 2 3 4 5 6 
#
# 1 0.008663 -0.003890 -0.002845 0.000000 0.000000 0.000000
# 2 -0.003890 0.031318 -0.005436 0.000000 0.000000 0.000000
# 3 -0.002845 -0.005436 0.007930 0.000000 0.000000 0.000000
# 4 0.000000 0.000000 0.000000 0.084737 0.000000 0.000000
# 5 0.000000 0.000000 0.000000 0.000000 0.030383 0.000000
# 6 0.000000 0.000000 0.000000 0.000000 0.000000 0.062736
#
#
# Mechanical properties :
#
#
# Convention : Reuss Voigt Hill
#
# Bulk Modulus (GPa) = 42.42803 76.49413 59.46108
# Shear Modulus (GPa) = 19.38263 27.39223 23.38743
#
# Velocity S-wave (km/s) = 3.51363 4.17699 3.85959
# Velocity P-wave (km/s) = 6.59431 8.48442 7.59837
#
# Compressibility (1/GPa) = 0.02356932
#
# Stress axis : x y z
#
# Youngs Moduli (GPa) = 115.43962 31.93087 126.10451
#
# Poissons Ratio (x) = 0.12421 0.35872
# Poissons Ratio (y) = 0.44905 0.68548
# Poissons Ratio (z) = 0.32839 0.17357
#
# Static dielectric constant tensor:
#      x y z
#    x 1.521660 0.000000 0.000000 
#    y 0.000000 1.489870 0.000000 
#    z 0.000000 0.000000 1.590100 
# 
# From -- ./inp_files/18604.got.cif
#   From: 2010.05.17/outbox.cif.g08.bks.cpg/sg46_10_cif.got.tgz:18604.got - 2010.06.03 19:58:25.
