data_PCOD9377555
_publ_section_title
;
Structure prediction by ZEFSAII (Michael W. Deem and Ramdas Pophale) SiO2 
 PCOD9377555
Probable space group: I B A 2
;
_chemical_formula_sum "Si O2"
_cell_formula_units_Z 32
_cell_length_a 8.063479
_cell_length_b 9.416928
_cell_length_c 16.062462
_cell_angle_alpha 90.000000
_cell_angle_beta 90.000000
_cell_angle_gamma 90.000000
_cell_volume 1219.674158
_symmetry_space_group_name_H-M "I B A 2"
_symmetry_group_IT_number 45
_symmetry_cell_setting 'orthorhombic'
loop_
_space_group_symop_operation_xyz
x,y,z
-x,-y,z
-x,y,1/2+z
x,-y,1/2+z
1/2+x,1/2+y,1/2+z
1/2-x,1/2-y,1/2+z
1/2-x,1/2+y,z
1/2+x,1/2-y,z
loop_
_atom_site_type_symbol
_atom_site_label
_atom_site_fract_x
_atom_site_fract_y
_atom_site_fract_z
Si Si1 0.238838 0.540715 0.783750
Si Si2 0.261163 0.040713 0.096062
Si Si3 0.957732 0.796002 0.345033
Si Si4 0.457731 0.296002 0.034780
O O1 0.198813 0.500001 0.689906
O O2 0.098480 0.638088 0.824007
O O3 0.301435 0.402590 0.833365
O O4 0.401412 0.642933 0.784880
O O5 0.401520 0.138088 0.055806
O O6 0.098586 0.142928 0.094932
O O7 0.198569 0.902587 0.046446
O O8 0.017549 0.808181 0.439906
#
# Coordination Sequence:
#
# PCOD9377555 Si02
#       4
#     8   8   8   8
#     4  11  24  42  65  97 135 176 221 277 337 400
#     4  11  24  42  65  97 135 176 221 277 337 400
#     4  11  22  42  67  97 133 176 223 277 335 400
#     4  11  22  42  67  97 133 176 223 277 335 400
#
# _framework density 26.236512999999999
#
# number of rings (size 3 to 8) (size 9 to 14) (size 15 to 20)
#    0.000    1.000    0.000   10.500    0.000    2.000 
#    0.000   10.000    0.000    0.000    0.000    0.000 
#    0.000    0.000    0.000    0.000    0.000    0.000 
#
# Total GULP energy -89857.205982 kJ/mol
# GULP energy per Si atom -5616.075374 kJ/mol
# Density = 2.617680 g / cm^3
# Si number density = 26.236513 Si / 1000 Ang^3
#
#
#
# Elastic Constant Matrix: (Units=GPa)
#
#
# Indices 1 2 3 4 5 6 
#
# 1 84.6215 36.6853 10.4447 0.0000 0.0000 0.0000
# 2 36.6853 171.8074 19.0336 0.0000 0.0000 0.0000
# 3 10.4447 19.0336 114.6859 0.0000 0.0000 0.0000
# 4 0.0000 0.0000 0.0000 35.6253 0.0000 0.0000
# 5 0.0000 0.0000 0.0000 0.0000 66.4824 0.0000
# 6 0.0000 0.0000 0.0000 0.0000 0.0000 60.6908
#
#
#
# Elastic Compliance Matrix: (Units=1/GPa)
#
#
# Indices 1 2 3 4 5 6 
#
# 1 0.013084 -0.002712 -0.000742 0.000000 0.000000 0.000000
# 2 -0.002712 0.006491 -0.000830 0.000000 0.000000 0.000000
# 3 -0.000742 -0.000830 0.008925 0.000000 0.000000 0.000000
# 4 0.000000 0.000000 0.000000 0.028070 0.000000 0.000000
# 5 0.000000 0.000000 0.000000 0.000000 0.015042 0.000000
# 6 0.000000 0.000000 0.000000 0.000000 0.000000 0.016477
#
#
# Mechanical properties :
#
#
# Convention : Reuss Voigt Hill
#
# Bulk Modulus (GPa) = 50.16710 55.93802 53.05256
# Shear Modulus (GPa) = 48.40221 52.88978 50.64600
#
# Velocity S-wave (km/s) = 4.29982 4.49473 4.39836
# Velocity P-wave (km/s) = 6.61921 6.95009 6.78667
#
# Compressibility (1/GPa) = 0.01993338
#
# Stress axis : x y z
#
# Youngs Moduli (GPa) = 76.42657 154.04793 112.04712
#
# Poissons Ratio (x) = 0.41773 0.08309
# Poissons Ratio (y) = 0.20725 0.09304
# Poissons Ratio (z) = 0.05668 0.12792
#
# Static dielectric constant tensor:
#      x y z
#    x 2.169980 0.000000 0.000000 
#    y 0.000000 2.050980 0.000000 
#    z 0.000000 0.000000 1.886910 
# 
# From -- ./inp_files/5388.got.cif
#   From: 2010.05.17/outbox.cif.g08.bks.cpg/sg45_3_cif.got.tgz:5388.got - 2010.06.03 19:51:22.
