data_PCOD9377256
_publ_section_title
;
Structure prediction by ZEFSAII (Michael W. Deem and Ramdas Pophale) SiO2 
 PCOD9377256
Probable space group: I B A 2
;
_chemical_formula_sum "Si O2"
_cell_formula_units_Z 32
_cell_length_a 9.559757
_cell_length_b 12.372690
_cell_length_c 11.951219
_cell_angle_alpha 90.000000
_cell_angle_beta 90.000000
_cell_angle_gamma 90.000000
_cell_volume 1413.589106
_symmetry_space_group_name_H-M "I B A 2"
_symmetry_group_IT_number 45
_symmetry_cell_setting 'orthorhombic'
loop_
_space_group_symop_operation_xyz
x,y,z
-x,-y,z
-x,y,1/2+z
x,-y,1/2+z
1/2+x,1/2+y,1/2+z
1/2-x,1/2-y,1/2+z
1/2-x,1/2+y,z
1/2+x,1/2-y,z
loop_
_atom_site_type_symbol
_atom_site_label
_atom_site_fract_x
_atom_site_fract_y
_atom_site_fract_z
Si Si1 0.149312 0.530964 0.648270
Si Si2 0.255963 0.837407 0.948153
Si Si3 0.112643 0.909661 0.744079
Si Si4 0.057842 0.312390 0.335803
O O1 0.225785 0.618044 0.571078
O O2 0.251644 0.430462 0.668552
O O3 0.112207 0.586095 0.766681
O O4 0.000000 0.500000 0.595897
O O5 0.169711 0.727415 0.928106
O O6 0.407263 0.826111 0.890678
O O7 0.166408 0.920979 0.872370
O O8 0.945791 0.211859 0.747046
O O9 0.000000 0.000000 0.716903
#
# Coordination Sequence:
#
# PCOD9377256 Si02
#       4
#     8   8   8   8
#     4  12  24  44  75 102 139 190 237 289 364 415
#     4  10  25  42  70 100 139 181 233 293 348 414
#     4  10  24  45  70  97 143 180 238 296 345 422
#     4  10  23  47  64 103 141 183 232 296 340 432
#
# _framework density 22.637412000000001
#
# number of rings (size 3 to 8) (size 9 to 14) (size 15 to 20)
#    1.500    0.000    2.500    1.500    3.500    7.000 
#    4.500    0.000    0.000    0.000    0.000    0.000 
#    0.000    0.000    0.000    0.000    0.000    0.000 
#
# Total GULP energy -89295.407904 kJ/mol
# GULP energy per Si atom -5580.962994 kJ/mol
# Density = 2.258589 g / cm^3
# Si number density = 22.637412 Si / 1000 Ang^3
#
#
#
# Elastic Constant Matrix: (Units=GPa)
#
#
# Indices 1 2 3 4 5 6 
#
# 1 81.9700 1.1737 17.4996 0.0000 0.0000 0.0000
# 2 1.1737 59.1749 3.2773 0.0000 0.0000 0.0000
# 3 17.4996 3.2773 31.7123 0.0000 0.0000 0.0000
# 4 0.0000 0.0000 0.0000 38.1348 0.0000 0.0000
# 5 0.0000 0.0000 0.0000 0.0000 19.3684 0.0000
# 6 0.0000 0.0000 0.0000 0.0000 0.0000 37.4665
#
#
#
# Elastic Compliance Matrix: (Units=1/GPa)
#
#
# Indices 1 2 3 4 5 6 
#
# 1 0.013830 0.000149 -0.007647 0.000000 0.000000 0.000000
# 2 0.000149 0.016998 -0.001839 0.000000 0.000000 0.000000
# 3 -0.007647 -0.001839 0.035943 0.000000 0.000000 0.000000
# 4 0.000000 0.000000 0.000000 0.026223 0.000000 0.000000
# 5 0.000000 0.000000 0.000000 0.000000 0.051630 0.000000
# 6 0.000000 0.000000 0.000000 0.000000 0.000000 0.026690
#
#
# Mechanical properties :
#
#
# Convention : Reuss Voigt Hill
#
# Bulk Modulus (GPa) = 20.79106 24.08426 22.43766
# Shear Modulus (GPa) = 24.26930 29.05438 26.66184
#
# Velocity S-wave (km/s) = 3.27783 3.58644 3.43560
# Velocity P-wave (km/s) = 4.85076 5.27374 5.06666
#
# Compressibility (1/GPa) = 0.04809760
#
# Stress axis : x y z
#
# Youngs Moduli (GPa) = 72.30644 58.83064 27.82144
#
# Poissons Ratio (x) = -0.00878 0.21276
# Poissons Ratio (y) = -0.01079 0.05116
# Poissons Ratio (z) = 0.55294 0.10819
#
# Static dielectric constant tensor:
#      x y z
#    x 1.832560 0.000000 0.000000 
#    y 0.000000 1.825750 0.000000 
#    z 0.000000 0.000000 1.805610 
# 
# From -- ./inp_files/3039.got.cif
#   From: 2010.05.17/outbox.cif.g08.bks.cpg/sg45_2_cif.got.tgz:3039.got - 2010.06.03 19:51:22.
