data_PCOD9377335
_publ_section_title
;
Structure prediction by ZEFSAII (Michael W. Deem and Ramdas Pophale) SiO2 
 PCOD9377335
Probable space group: I B A 2
;
_chemical_formula_sum "Si O2"
_cell_formula_units_Z 60
_cell_length_a 16.826158
_cell_length_b 18.009553
_cell_length_c 9.145290
_cell_angle_alpha 90.000000
_cell_angle_beta 90.000000
_cell_angle_gamma 90.000000
_cell_volume 2771.311717
_symmetry_space_group_name_H-M "I B A 2"
_symmetry_group_IT_number 45
_symmetry_cell_setting 'orthorhombic'
loop_
_space_group_symop_operation_xyz
x,y,z
-x,-y,z
-x,y,1/2+z
x,-y,1/2+z
1/2+x,1/2+y,1/2+z
1/2-x,1/2-y,1/2+z
1/2-x,1/2+y,z
1/2+x,1/2-y,z
loop_
_atom_site_type_symbol
_atom_site_label
_atom_site_fract_x
_atom_site_fract_y
_atom_site_fract_z
Si Si1 0.000000 0.000000 0.969200
Si Si2 0.914362 0.907870 0.725103
Si Si3 0.258644 0.670586 0.606196
Si Si4 0.794015 0.822018 0.259267
Si Si5 0.033263 0.330835 0.539981
Si Si6 0.533872 0.722375 0.772379
Si Si7 0.834485 0.575547 0.677926
Si Si8 0.383999 0.072869 0.513690
O O1 0.933975 0.964289 0.859027
O O2 0.043764 0.941627 0.078420
O O3 0.824740 0.881939 0.684607
O O4 0.960827 0.833835 0.775073
O O5 0.246609 0.748461 0.690021
O O6 0.282290 0.679782 0.435101
O O7 0.172223 0.632340 0.595444
O O8 0.887240 0.821163 0.230554
O O9 0.755189 0.895082 0.187216
O O10 0.047695 0.270564 0.415999
O O11 0.114920 0.359367 0.604403
O O12 0.985833 0.284857 0.657745
O O13 0.975323 0.400402 0.508084
O O14 0.860419 0.502933 0.592182
O O15 0.859310 0.567257 0.845586
#
# Coordination Sequence:
#
# PCOD9377335 Si02
#       8
#     4   8   8   8   8   8   8   8
#     4  10  24  44  68  98 140 182 236 286 350 426
#     4  11  24  44  69 101 135 186 228 289 350 427
#     4  11  25  43  67  99 136 177 238 287 354 415
#     4  11  24  44  66 102 136 179 232 296 352 423
#     4  12  24  44  68 103 134 184 233 293 349 424
#     4  12  24  42  73 101 136 176 234 290 355 412
#     4  11  26  44  68  97 144 183 235 288 358 423
#     4  11  26  44  66 101 139 186 233 289 350 432
#
# _framework density 21.650397000000002
#
# number of rings (size 3 to 8) (size 9 to 14) (size 15 to 20)
#    0.000    0.800    2.667    4.400    3.733    7.467 
#    0.000    0.000    0.000    0.000    0.000    0.000 
#    0.000    0.000    0.000    0.000    0.000    0.000 
#
# Total GULP energy -167660.757311 kJ/mol
# GULP energy per Si atom -5588.691910 kJ/mol
# Density = 2.160112 g / cm^3
# Si number density = 21.650397 Si / 1000 Ang^3
#
#
#
# Elastic Constant Matrix: (Units=GPa)
#
#
# Indices 1 2 3 4 5 6 
#
# 1 135.0727 6.4243 53.4081 0.0000 0.0000 0.0000
# 2 6.4243 75.7936 37.0685 0.0000 0.0000 0.0000
# 3 53.4081 37.0685 90.3949 0.0000 0.0000 0.0000
# 4 0.0000 0.0000 0.0000 50.7904 0.0000 0.0000
# 5 0.0000 0.0000 0.0000 0.0000 18.4133 0.0000
# 6 0.0000 0.0000 0.0000 0.0000 0.0000 36.7074
#
#
#
# Elastic Compliance Matrix: (Units=1/GPa)
#
#
# Indices 1 2 3 4 5 6 
#
# 1 0.010044 0.002565 -0.006986 0.000000 0.000000 0.000000
# 2 0.002565 0.017159 -0.008552 0.000000 0.000000 0.000000
# 3 -0.006986 -0.008552 0.018697 0.000000 0.000000 0.000000
# 4 0.000000 0.000000 0.000000 0.019689 0.000000 0.000000
# 5 0.000000 0.000000 0.000000 0.000000 0.054309 0.000000
# 6 0.000000 0.000000 0.000000 0.000000 0.000000 0.027242
#
#
# Mechanical properties :
#
#
# Convention : Reuss Voigt Hill
#
# Bulk Modulus (GPa) = 50.11502 55.00701 52.56101
# Shear Modulus (GPa) = 27.81844 34.80623 31.31233
#
# Velocity S-wave (km/s) = 3.58843 4.01390 3.80711
# Velocity P-wave (km/s) = 6.35348 6.85156 6.60722
#
# Compressibility (1/GPa) = 0.01995410
#
# Stress axis : x y z
#
# Youngs Moduli (GPa) = 99.56443 58.27883 53.48392
#
# Poissons Ratio (x) = -0.14951 0.37365
# Poissons Ratio (y) = -0.25542 0.45740
# Poissons Ratio (z) = 0.69557 0.49841
#
# Static dielectric constant tensor:
#      x y z
#    x 1.806370 0.000000 0.000000 
#    y 0.000000 1.793300 0.000000 
#    z 0.000000 0.000000 1.740460 
# 
# From -- ./inp_files/2144.got.cif
#   From: 2010.05.17/outbox.cif.g08.bks.cpg/sg45_2_cif.got.tgz:2144.got - 2010.06.03 19:51:22.
