data_PCOD9377619
_publ_section_title
;
Structure prediction by ZEFSAII (Michael W. Deem and Ramdas Pophale) SiO2 
 PCOD9377619
Probable space group: I B A 2
;
_chemical_formula_sum "Si O2"
_cell_formula_units_Z 32
_cell_length_a 8.943194
_cell_length_b 15.159707
_cell_length_c 9.261133
_cell_angle_alpha 90.000000
_cell_angle_beta 90.000000
_cell_angle_gamma 90.000000
_cell_volume 1255.589226
_symmetry_space_group_name_H-M "I B A 2"
_symmetry_group_IT_number 45
_symmetry_cell_setting 'orthorhombic'
loop_
_space_group_symop_operation_xyz
x,y,z
-x,-y,z
-x,y,1/2+z
x,-y,1/2+z
1/2+x,1/2+y,1/2+z
1/2-x,1/2-y,1/2+z
1/2-x,1/2+y,z
1/2+x,1/2-y,z
loop_
_atom_site_type_symbol
_atom_site_label
_atom_site_fract_x
_atom_site_fract_y
_atom_site_fract_z
Si Si1 0.179698 0.339525 0.857520
Si Si2 0.384051 0.578100 0.594682
Si Si3 0.630572 0.721332 0.598471
Si Si4 0.088667 0.584019 0.725025
O O1 0.244225 0.324172 0.697325
O O2 0.900980 0.320746 0.649267
O O3 0.019426 0.388096 0.856337
O O4 0.173625 0.242756 0.933346
O O5 0.500000 0.500000 0.576417
O O6 0.517228 0.335283 0.619153
O O7 0.291739 0.599994 0.449759
O O8 0.763182 0.941682 0.720184
O O9 0.000000 0.500000 0.660911
#
# Coordination Sequence:
#
# PCOD9377619 Si02
#       4
#     8   8   8   8
#     4  11  25  45  74 108 152 200 249 310 380 449
#     4  11  26  46  75 112 152 199 253 312 379 454
#     4  11  25  48  75 107 149 199 253 312 375 451
#     4  11  24  43  70 107 151 196 243 306 376 446
#
# _framework density 25.486042000000001
#
# number of rings (size 3 to 8) (size 9 to 14) (size 15 to 20)
#    0.000    1.000    0.000    6.000    0.000   11.000 
#    0.000    0.000    0.000    0.000    0.000    0.000 
#    0.000    0.000    0.000    0.000    0.000    0.000 
#
# Total GULP energy -89414.263584 kJ/mol
# GULP energy per Si atom -5588.391474 kJ/mol
# Density = 2.542803 g / cm^3
# Si number density = 25.486042 Si / 1000 Ang^3
#
#
#
# Elastic Constant Matrix: (Units=GPa)
#
#
# Indices 1 2 3 4 5 6 
#
# 1 190.4170 58.9099 58.1989 -0.0001 0.0000 0.0000
# 2 58.9099 146.7697 20.3840 -0.0001 -0.0001 -0.0002
# 3 58.1989 20.3840 81.7720 -0.0001 -0.0002 -0.0002
# 4 -0.0001 -0.0001 -0.0001 42.6978 -0.0001 -0.0002
# 5 0.0000 -0.0001 -0.0002 -0.0001 51.9038 0.0000
# 6 0.0000 -0.0002 -0.0002 -0.0002 0.0000 60.9196
#
#
#
# Elastic Compliance Matrix: (Units=1/GPa)
#
#
# Indices 1 2 3 4 5 6 
#
# 1 0.007403 -0.002320 -0.004691 0.000000 0.000000 0.000000
# 2 -0.002320 0.007785 -0.000289 0.000000 0.000000 0.000000
# 3 -0.004691 -0.000289 0.015640 0.000000 0.000000 0.000000
# 4 0.000000 0.000000 0.000000 0.023420 0.000000 0.000000
# 5 0.000000 0.000000 0.000000 0.000000 0.019266 0.000000
# 6 0.000000 0.000000 0.000000 0.000000 0.000000 0.016415
#
#
# Mechanical properties :
#
#
# Convention : Reuss Voigt Hill
#
# Bulk Modulus (GPa) = 61.62358 77.10494 69.36426
# Shear Modulus (GPa) = 45.48007 49.86863 47.67435
#
# Velocity S-wave (km/s) = 4.22893 4.42826 4.32974
# Velocity P-wave (km/s) = 6.93375 7.51435 7.22988
#
# Compressibility (1/GPa) = 0.01622755
#
# Stress axis : x y z
#
# Youngs Moduli (GPa) = 135.08077 128.45607 63.94011
#
# Poissons Ratio (x) = 0.29801 0.29991
# Poissons Ratio (y) = 0.31338 0.01851
# Poissons Ratio (z) = 0.63360 0.03718
#
# Static dielectric constant tensor:
#      x y z
#    x 2.050180 0.000000 0.000000 
#    y 0.000000 1.981190 0.000000 
#    z 0.000000 0.000000 2.198740 
# 
# From -- ./inp_files/3483.got.cif
#   From: 2010.05.17/outbox.cif.g08.bks.cpg/sg45_2_cif.got.tgz:3483.got - 2010.06.03 19:51:22.
