data_PCOD9377790
_publ_section_title
;
Structure prediction by ZEFSAII (Michael W. Deem and Ramdas Pophale) SiO2 
 PCOD9377790
Probable space group: I M A 2
;
_chemical_formula_sum "Si O2"
_cell_formula_units_Z 44
_cell_length_a 17.831734
_cell_length_b 7.424119
_cell_length_c 12.909379
_cell_angle_alpha 90.000000
_cell_angle_beta 90.000000
_cell_angle_gamma 90.000000
_cell_volume 1709.007044
_symmetry_space_group_name_H-M "I M A 2"
_symmetry_group_IT_number 46
_symmetry_cell_setting 'orthorhombic'
loop_
_space_group_symop_operation_xyz
x,y,z
-x,-y,z
1/2-x,y,z
1/2+x,-y,z
1/2+x,1/2+y,1/2+z
1/2-x,1/2-y,1/2+z
-x,1/2+y,1/2+z
x,1/2-y,1/2+z
loop_
_atom_site_type_symbol
_atom_site_label
_atom_site_fract_x
_atom_site_fract_y
_atom_site_fract_z
Si Si1 0.621790 0.860398 0.063460
Si Si2 0.500000 0.000000 0.351166
Si Si3 0.164979 0.055866 0.843146
Si Si4 0.520344 0.305583 0.049888
Si Si5 0.667710 0.974224 0.274482
Si Si6 0.162947 0.548620 0.115230
O O1 0.535742 0.833861 0.099390
O O2 0.666783 0.964223 0.150517
O O3 0.652455 0.652231 0.064991
O O4 0.623171 0.951451 0.951733
O O5 0.493718 0.168059 0.431561
O O6 0.417186 0.965242 0.303710
O O7 0.250000 0.997170 0.864074
O O8 0.167902 0.266810 0.812328
O O9 0.140698 0.959383 0.737141
O O10 0.500000 0.500000 0.100003
O O11 0.608698 0.310971 0.059405
O O12 0.750000 0.051764 0.308571
O O13 0.250000 0.592353 0.108638
#
# Coordination Sequence:
#
# PCOD9377790 Si02
#       6
#     8   4   8   8   8   8
#     4  10  16  28  46  69  97 125 158 199 243 286
#     4  10  18  32  46  68 102 126 160 200 244 294
#     4   9  15  25  44  71  96 120 153 200 246 283
#     4   8  16  28  43  65  95 129 153 196 241 284
#     4  10  19  29  49  74  97 127 159 204 247 285
#     4   9  16  25  43  71  98 122 158 201 241 286
#
# _framework density 25.745944999999999
#
# number of rings (size 3 to 8) (size 9 to 14) (size 15 to 20)
#    0.545    2.182    1.818    2.727    0.000    2.182 
#    0.000    0.000   10.000    1.091    0.000    0.000 
#    0.000    1.455    0.000    0.000    0.000    0.000 
#
# Total GULP energy -122662.737261 kJ/mol
# GULP energy per Si atom -5575.578966 kJ/mol
# Density = 2.568735 g / cm^3
# Si number density = 25.745945 Si / 1000 Ang^3
#
#
#
# Elastic Constant Matrix: (Units=GPa)
#
#
# Indices 1 2 3 4 5 6 
#
# 1 219.9556 36.9475 58.0061 0.0000 0.0000 0.0000
# 2 36.9475 53.6317 12.4523 0.0000 0.0000 0.0000
# 3 58.0061 12.4523 103.7793 0.0000 0.0000 0.0000
# 4 0.0000 0.0000 0.0000 9.3237 0.0000 0.0000
# 5 0.0000 0.0000 0.0000 0.0000 30.5370 0.0000
# 6 0.0000 0.0000 0.0000 0.0000 0.0000 9.4028
#
#
#
# Elastic Compliance Matrix: (Units=1/GPa)
#
#
# Indices 1 2 3 4 5 6 
#
# 1 0.005872 -0.003378 -0.002877 0.000000 0.000000 0.000000
# 2 -0.003378 0.021123 -0.000647 0.000000 0.000000 0.000000
# 3 -0.002877 -0.000647 0.011322 0.000000 0.000000 0.000000
# 4 0.000000 0.000000 0.000000 0.107254 0.000000 0.000000
# 5 0.000000 0.000000 0.000000 0.000000 0.032747 0.000000
# 6 0.000000 0.000000 0.000000 0.000000 0.000000 0.106351
#
#
# Mechanical properties :
#
#
# Convention : Reuss Voigt Hill
#
# Bulk Modulus (GPa) = 40.79279 65.79760 53.29519
# Shear Modulus (GPa) = 16.30560 27.85008 22.07784
#
# Velocity S-wave (km/s) = 2.51933 3.29253 2.93153
# Velocity P-wave (km/s) = 4.93370 6.32979 5.67485
#
# Compressibility (1/GPa) = 0.02451414
#
# Stress axis : x y z
#
# Youngs Moduli (GPa) = 170.28618 47.34241 88.32740
#
# Poissons Ratio (x) = 0.15990 0.25412
# Poissons Ratio (y) = 0.57516 0.05711
# Poissons Ratio (z) = 0.48992 0.03061
#
# Static dielectric constant tensor:
#      x y z
#    x 2.077860 0.000000 0.000000 
#    y 0.000000 2.058830 0.000000 
#    z 0.000000 0.000000 2.060010 
# 
# From -- ./inp_files/11711.got.cif
#   From: 2010.05.17/outbox.cif.g08.bks.cpg/sg46_6_cif.got.tgz:11711.got - 2010.06.03 19:58:25.
