data_PCOD9377484
_publ_section_title
;
Structure prediction by ZEFSAII (Michael W. Deem and Ramdas Pophale) SiO2 
 PCOD9377484
Probable space group: I B A 2
;
_chemical_formula_sum "Si O2"
_cell_formula_units_Z 64
_cell_length_a 14.983613
_cell_length_b 8.948800
_cell_length_c 21.374426
_cell_angle_alpha 90.000000
_cell_angle_beta 90.000000
_cell_angle_gamma 90.000000
_cell_volume 2865.997520
_symmetry_space_group_name_H-M "I B A 2"
_symmetry_group_IT_number 45
_symmetry_cell_setting 'orthorhombic'
loop_
_space_group_symop_operation_xyz
x,y,z
-x,-y,z
-x,y,1/2+z
x,-y,1/2+z
1/2+x,1/2+y,1/2+z
1/2-x,1/2-y,1/2+z
1/2-x,1/2+y,z
1/2+x,1/2-y,z
loop_
_atom_site_type_symbol
_atom_site_label
_atom_site_fract_x
_atom_site_fract_y
_atom_site_fract_z
Si Si1 0.397150 0.982028 0.973300
Si Si2 0.137281 0.741448 0.892769
Si Si3 0.371909 0.331818 0.601886
Si Si4 0.602015 0.514762 0.974571
Si Si5 0.489165 0.327110 0.292445
Si Si6 0.033803 0.329847 0.661438
Si Si7 0.804561 0.513974 0.602242
Si Si8 0.837012 0.781984 0.891908
O O1 0.385437 0.071966 0.909048
O O2 0.500000 0.000000 0.996139
O O3 0.377828 0.816111 0.948495
O O4 0.327475 0.026861 0.027651
O O5 0.071924 0.794894 0.838639
O O6 0.238694 0.764383 0.873910
O O7 0.121843 0.812481 0.962584
O O8 0.388058 0.423826 0.537687
O O9 0.471656 0.290506 0.625325
O O10 0.294014 0.442695 0.627069
O O11 0.328262 0.163863 0.608559
O O12 0.500000 0.500000 0.952961
O O13 0.667068 0.443996 0.923360
O O14 0.500000 0.500000 0.272773
O O15 0.478592 0.222424 0.232477
O O16 0.403074 0.296085 0.334688
O O17 0.132332 0.360259 0.634703
O O18 0.000000 0.500000 0.654717
#
# Coordination Sequence:
#
# PCOD9377484 Si02
#       8
#     8   8   8   8   8   8   8   8
#     4  12  23  39  69 103 140 182 224 280 359 423
#     4  12  25  41  67 103 140 182 229 291 353 430
#     4  11  25  45  71 106 139 182 232 292 356 423
#     4  12  23  43  67 102 149 182 224 287 357 428
#     4  12  26  48  68  98 136 186 239 290 352 430
#     4  10  27  50  71  95 136 188 242 292 350 420
#     4  11  25  45  71 105 142 178 234 291 352 426
#     4  12  23  43  66 102 139 178 228 288 355 423
#
# _framework density 22.330794000000001
#
# number of rings (size 3 to 8) (size 9 to 14) (size 15 to 20)
#    0.000    0.500    5.000    3.375    5.250    2.500 
#    0.000    2.500    0.000    0.000    0.000    0.000 
#    0.000    0.000    0.000    0.000    0.000    0.000 
#
# Total GULP energy -178304.366818 kJ/mol
# GULP energy per Si atom -5572.011463 kJ/mol
# Density = 2.227997 g / cm^3
# Si number density = 22.330794 Si / 1000 Ang^3
#
#
#
# Elastic Constant Matrix: (Units=GPa)
#
#
# Indices 1 2 3 4 5 6 
#
# 1 93.9048 9.9567 14.8210 0.0000 0.0000 0.0000
# 2 9.9567 38.9821 4.9344 0.0000 0.0000 0.0000
# 3 14.8210 4.9344 49.9321 0.0000 0.0000 0.0000
# 4 0.0000 0.0000 0.0000 28.2618 0.0000 0.0000
# 5 0.0000 0.0000 0.0000 0.0000 5.4070 0.0000
# 6 0.0000 0.0000 0.0000 0.0000 0.0000 27.1820
#
#
#
# Elastic Compliance Matrix: (Units=1/GPa)
#
#
# Indices 1 2 3 4 5 6 
#
# 1 0.011411 -0.002517 -0.003138 0.000000 0.000000 0.000000
# 2 -0.002517 0.026533 -0.001875 0.000000 0.000000 0.000000
# 3 -0.003138 -0.001875 0.021144 0.000000 0.000000 0.000000
# 4 0.000000 0.000000 0.000000 0.035383 0.000000 0.000000
# 5 0.000000 0.000000 0.000000 0.000000 0.184946 0.000000
# 6 0.000000 0.000000 0.000000 0.000000 0.000000 0.036789
#
#
# Mechanical properties :
#
#
# Convention : Reuss Voigt Hill
#
# Bulk Modulus (GPa) = 22.71321 26.91591 24.81456
# Shear Modulus (GPa) = 14.45321 22.37727 18.41524
#
# Velocity S-wave (km/s) = 2.54684 3.16900 2.87480
# Velocity P-wave (km/s) = 4.34072 5.04673 4.70698
#
# Compressibility (1/GPa) = 0.04402724
#
# Stress axis : x y z
#
# Youngs Moduli (GPa) = 87.63218 37.68875 47.29472
#
# Poissons Ratio (x) = 0.09488 0.14843
# Poissons Ratio (y) = 0.22060 0.08867
# Poissons Ratio (z) = 0.27502 0.07066
#
# Static dielectric constant tensor:
#      x y z
#    x 1.892640 0.000000 0.000000 
#    y 0.000000 1.844240 0.000000 
#    z 0.000000 0.000000 1.789060 
# 
# From -- ./inp_files/9773.got.cif
#   From: 2010.05.17/outbox.cif.g08.bks.cpg/sg45_5_cif.got.tgz:9773.got - 2010.06.03 19:51:22.
