data_PCOD9377990
_publ_section_title
;
Structure prediction by ZEFSAII (Michael W. Deem and Ramdas Pophale) SiO2 
 PCOD9377990
Probable space group: I M A 2
;
_chemical_formula_sum "Si O2"
_cell_formula_units_Z 56
_cell_length_a 8.683724
_cell_length_b 14.033401
_cell_length_c 30.361955
_cell_angle_alpha 90.000000
_cell_angle_beta 90.000000
_cell_angle_gamma 90.000000
_cell_volume 3699.974058
_symmetry_space_group_name_H-M "I M A 2"
_symmetry_group_IT_number 46
_symmetry_cell_setting 'orthorhombic'
loop_
_space_group_symop_operation_xyz
x,y,z
-x,-y,z
1/2-x,y,z
1/2+x,-y,z
1/2+x,1/2+y,1/2+z
1/2-x,1/2-y,1/2+z
-x,1/2+y,1/2+z
x,1/2-y,1/2+z
loop_
_atom_site_type_symbol
_atom_site_label
_atom_site_fract_x
_atom_site_fract_y
_atom_site_fract_z
Si Si1 0.935317 0.392232 0.980070
Si Si2 0.433987 0.104710 0.653179
Si Si3 0.935309 0.107034 0.383330
Si Si4 0.436425 0.607406 0.787114
Si Si5 0.565549 0.105080 0.110794
Si Si6 0.565364 0.785848 0.564110
Si Si7 0.435653 0.715411 0.699739
O O1 0.750000 0.396290 0.982722
O O2 0.980818 0.353555 0.931263
O O3 0.000000 0.500000 0.984288
O O4 0.999894 0.328167 0.019163
O O5 0.250000 0.101863 0.654760
O O6 0.480162 0.144948 0.604872
O O7 0.495207 0.182273 0.687803
O O8 0.500000 0.000000 0.660087
O O9 0.750000 0.103806 0.383354
O O10 0.982245 0.147199 0.335540
O O11 0.000000 0.000000 0.383128
O O12 0.500000 0.500000 0.782723
O O13 0.250000 0.602190 0.785686
O O14 0.487331 0.671399 0.746082
O O15 0.750000 0.103626 0.108020
O O16 0.499489 0.182261 0.076659
O O17 0.522089 0.144709 0.159456
O O18 0.500000 0.000000 0.104247
O O19 0.750000 0.782511 0.562404
O O20 0.250000 0.723051 0.700099
#
# Coordination Sequence:
#
# PCOD9377990 Si02
#       7
#     8   8   8   8   8   8   8
#     4  10  18  28  43  64  90 119 148 180 217 259
#     4  10  20  32  46  63  86 114 145 181 218 256
#     4   8  15  26  40  60  87 116 145 175 212 255
#     4   9  16  27  43  64  90 119 147 177 212 252
#     4  10  19  31  46  65  90 118 147 181 216 254
#     4  10  20  32  46  65  87 115 149 182 217 259
#     4   9  18  30  45  65  89 117 148 178 212 253
#
# _framework density 15.135241000000001
#
# number of rings (size 3 to 8) (size 9 to 14) (size 15 to 20)
#    0.000    2.571    0.000    2.571    0.000    4.571 
#    0.000    0.000    0.000    0.000    0.000    1.000 
#    0.000    4.571    0.000    0.000    0.000    0.000 
#
# Total GULP energy -156001.617036 kJ/mol
# GULP energy per Si atom -5571.486323 kJ/mol
# Density = 1.510079 g / cm^3
# Si number density = 15.135241 Si / 1000 Ang^3
#
#
#
# Elastic Constant Matrix: (Units=GPa)
#
#
# Indices 1 2 3 4 5 6 
#
# 1 27.0546 30.5234 35.1574 0.0000 0.0000 0.0000
# 2 30.5234 112.2488 75.6385 0.0000 0.0000 0.0000
# 3 35.1574 75.6385 160.1814 0.0000 0.0000 0.0000
# 4 0.0000 0.0000 0.0000 24.3175 0.0000 0.0000
# 5 0.0000 0.0000 0.0000 0.0000 17.0991 0.0000
# 6 0.0000 0.0000 0.0000 0.0000 0.0000 23.8741
#
#
#
# Elastic Compliance Matrix: (Units=1/GPa)
#
#
# Indices 1 2 3 4 5 6 
#
# 1 0.059504 -0.010824 -0.007949 0.000000 0.000000 0.000000
# 2 -0.010824 0.015036 -0.004724 0.000000 0.000000 0.000000
# 3 -0.007949 -0.004724 0.010218 0.000000 0.000000 0.000000
# 4 0.000000 0.000000 0.000000 0.041123 0.000000 0.000000
# 5 0.000000 0.000000 0.000000 0.000000 0.058483 0.000000
# 6 0.000000 0.000000 0.000000 0.000000 0.000000 0.041886
#
#
# Mechanical properties :
#
#
# Convention : Reuss Voigt Hill
#
# Bulk Modulus (GPa) = 26.48081 64.68039 45.58060
# Shear Modulus (GPa) = 17.49279 23.60250 20.54764
#
# Velocity S-wave (km/s) = 3.40334 3.95326 3.68856
# Velocity P-wave (km/s) = 5.74263 7.97906 6.95137
#
# Compressibility (1/GPa) = 0.03776319
#
# Stress axis : x y z
#
# Youngs Moduli (GPa) = 16.80556 66.50916 97.86346
#
# Poissons Ratio (x) = 0.71992 0.77791
# Poissons Ratio (y) = 0.18191 0.46231
# Poissons Ratio (z) = 0.13359 0.31419
#
# Static dielectric constant tensor:
#      x y z
#    x 1.506220 0.000000 0.000000 
#    y 0.000000 1.458880 0.000000 
#    z 0.000000 0.000000 1.536350 
# 
# From -- ./inp_files/25241.got.cif
#   From: 2010.05.17/outbox.cif.g08.bks.cpg/sg46_13_cif.got.tgz:25241.got - 2010.06.03 19:58:25.
