data_PCOD9377908
_publ_section_title
;
Structure prediction by ZEFSAII (Michael W. Deem and Ramdas Pophale) SiO2 
 PCOD9377908
Probable space group: I M A 2
;
_chemical_formula_sum "Si O2"
_cell_formula_units_Z 48
_cell_length_a 17.710187
_cell_length_b 12.443110
_cell_length_c 11.561159
_cell_angle_alpha 90.000000
_cell_angle_beta 90.000000
_cell_angle_gamma 90.000000
_cell_volume 2547.730354
_symmetry_space_group_name_H-M "I M A 2"
_symmetry_group_IT_number 46
_symmetry_cell_setting 'orthorhombic'
loop_
_space_group_symop_operation_xyz
x,y,z
-x,-y,z
1/2-x,y,z
1/2+x,-y,z
1/2+x,1/2+y,1/2+z
1/2-x,1/2-y,1/2+z
-x,1/2+y,1/2+z
x,1/2-y,1/2+z
loop_
_atom_site_type_symbol
_atom_site_label
_atom_site_fract_x
_atom_site_fract_y
_atom_site_fract_z
Si Si1 0.832745 0.891097 0.432060
Si Si2 0.088570 0.534925 0.367271
Si Si3 0.391314 0.327883 0.506148
Si Si4 0.447753 0.762965 0.423271
Si Si5 0.538795 0.890534 0.242944
Si Si6 0.414242 0.545245 0.095007
O O1 0.750000 0.916599 0.384774
O O2 0.835558 0.767578 0.472807
O O3 0.901233 0.913311 0.344081
O O4 0.854234 0.964715 0.539911
O O5 0.127258 0.438680 0.439224
O O6 0.100772 0.654601 0.415702
O O7 0.103250 0.548114 0.230856
O O8 0.000000 0.500000 0.375577
O O9 0.471253 0.281140 0.462941
O O10 0.410097 0.342382 0.641101
O O11 0.471698 0.818731 0.300609
O O12 0.416372 0.847188 0.516735
O O13 0.500000 0.000000 0.200155
O O14 0.500000 0.500000 0.083743
#
# Coordination Sequence:
#
# PCOD9377908 Si02
#       6
#     8   8   8   8   8   8
#     4  11  24  38  56  83 118 162 197 237 300 364
#     4   9  20  31  54  87 117 144 182 242 296 344
#     4  10  21  34  53  87 120 146 192 239 297 351
#     4  10  17  32  55  90 109 144 185 250 295 337
#     4  11  19  35  58  87 117 149 200 252 296 348
#     4  11  18  37  58  82 115 149 197 243 292 349
#
# _framework density 18.840297
#
# number of rings (size 3 to 8) (size 9 to 14) (size 15 to 20)
#    0.000    1.667    5.000    2.500    7.000    0.667 
#    0.000    0.000    0.000    2.000    0.000    0.000 
#    0.000    0.000    0.000    0.000    0.000    0.000 
#
# Total GULP energy -133641.989713 kJ/mol
# GULP energy per Si atom -5568.416238 kJ/mol
# Density = 1.879742 g / cm^3
# Si number density = 18.840297 Si / 1000 Ang^3
#
#
#
# Elastic Constant Matrix: (Units=GPa)
#
#
# Indices 1 2 3 4 5 6 
#
# 1 29.3543 8.4718 -15.9448 0.0000 0.0000 0.0000
# 2 8.4718 112.2535 34.8815 0.0000 0.0000 0.0000
# 3 -15.9448 34.8815 63.8647 0.0000 0.0000 0.0000
# 4 0.0000 0.0000 0.0000 8.8948 0.0000 0.0000
# 5 0.0000 0.0000 0.0000 0.0000 0.9702 0.0000
# 6 0.0000 0.0000 0.0000 0.0000 0.0000 5.7595
#
#
#
# Elastic Compliance Matrix: (Units=1/GPa)
#
#
# Indices 1 2 3 4 5 6 
#
# 1 0.045032 -0.008301 0.015777 0.000000 0.000000 0.000000
# 2 -0.008301 0.012260 -0.008768 0.000000 0.000000 0.000000
# 3 0.015777 -0.008768 0.024386 0.000000 0.000000 0.000000
# 4 0.000000 0.000000 0.000000 0.112425 0.000000 0.000000
# 5 0.000000 0.000000 0.000000 0.000000 1.030733 0.000000
# 6 0.000000 0.000000 0.000000 0.000000 0.000000 0.173626
#
#
# Mechanical properties :
#
#
# Convention : Reuss Voigt Hill
#
# Bulk Modulus (GPa) = 12.64343 28.92105 20.78224
# Shear Modulus (GPa) = 3.50285 14.99583 9.24934
#
# Velocity S-wave (km/s) = 1.36502 2.82431 2.21811
# Velocity P-wave (km/s) = 3.03476 5.10094 4.19698
#
# Compressibility (1/GPa) = 0.07909244
#
# Stress axis : x y z
#
# Youngs Moduli (GPa) = 22.20641 81.56889 41.00691
#
# Poissons Ratio (x) = 0.67711 -0.64696
# Poissons Ratio (y) = 0.18434 0.35956
# Poissons Ratio (z) = -0.35035 0.71523
#
# Static dielectric constant tensor:
#      x y z
#    x 1.639960 0.000000 0.000000 
#    y 0.000000 1.716440 0.000000 
#    z 0.000000 0.000000 1.758610 
# 
# From -- ./inp_files/11781.got.cif
#   From: 2010.05.17/outbox.cif.g08.bks.cpg/sg46_6_cif.got.tgz:11781.got - 2010.06.03 19:58:25.
