data_PCOD9377353
_publ_section_title
;
Structure prediction by ZEFSAII (Michael W. Deem and Ramdas Pophale) SiO2 
 PCOD9377353
Probable space group: I B A 2
;
_chemical_formula_sum "Si O2"
_cell_formula_units_Z 44
_cell_length_a 9.051933
_cell_length_b 11.639880
_cell_length_c 18.071890
_cell_angle_alpha 90.000000
_cell_angle_beta 90.000000
_cell_angle_gamma 90.000000
_cell_volume 1904.116026
_symmetry_space_group_name_H-M "I B A 2"
_symmetry_group_IT_number 45
_symmetry_cell_setting 'orthorhombic'
loop_
_space_group_symop_operation_xyz
x,y,z
-x,-y,z
-x,y,1/2+z
x,-y,1/2+z
1/2+x,1/2+y,1/2+z
1/2-x,1/2-y,1/2+z
1/2-x,1/2+y,z
1/2+x,1/2-y,z
loop_
_atom_site_type_symbol
_atom_site_label
_atom_site_fract_x
_atom_site_fract_y
_atom_site_fract_z
Si Si1 0.266222 0.151383 0.248030
Si Si2 0.318209 0.709594 0.603530
Si Si3 0.235384 0.843283 0.367993
Si Si4 0.500000 0.000000 0.339616
Si Si5 0.500000 0.500000 0.284707
Si Si6 0.921804 0.777535 0.010812
Si Si7 0.500000 0.500000 0.586374
O O1 0.320599 0.202197 0.170421
O O2 0.226014 0.256639 0.301964
O O3 0.393553 0.077315 0.287692
O O4 0.114693 0.080343 0.240858
O O5 0.154496 0.700632 0.573344
O O6 0.407288 0.744371 0.528620
O O7 0.390019 0.588911 0.625492
O O8 0.382797 0.919093 0.383860
O O9 0.153212 0.770761 0.431951
O O10 0.107658 0.925963 0.336696
O O11 0.905645 0.911940 0.035616
#
# Coordination Sequence:
#
# PCOD9377353 Si02
#       7
#     8   8   8   4   4   8   4
#     4  11  25  45  72 104 144 188 245 302 371 437
#     4  10  25  45  70 100 141 188 237 301 366 436
#     4  11  24  43  73 102 148 189 245 301 367 439
#     4  10  26  42  68 108 138 184 246 292 368 436
#     4  10  25  43  72 104 144 192 238 310 364 434
#     4  10  24  45  68 102 141 189 239 300 362 434
#     4   8  23  45  66  94 146 172 236 294 372 412
#
# _framework density 23.107835000000001
#
# number of rings (size 3 to 8) (size 9 to 14) (size 15 to 20)
#    1.091    0.727    0.000    1.636   10.182    5.818 
#    0.000    0.000    0.000    0.000    0.000    0.000 
#    0.000    0.000    0.000    0.000    0.000    0.000 
#
# Total GULP energy -122715.998198 kJ/mol
# GULP energy per Si atom -5577.999918 kJ/mol
# Density = 2.305524 g / cm^3
# Si number density = 23.107835 Si / 1000 Ang^3
#
#
#
# Elastic Constant Matrix: (Units=GPa)
#
#
# Indices 1 2 3 4 5 6 
#
# 1 110.3453 41.1518 18.3602 0.0000 0.0000 0.0000
# 2 41.1518 64.6366 28.1465 0.0000 0.0000 0.0000
# 3 18.3602 28.1465 85.9171 0.0000 0.0000 0.0000
# 4 0.0000 0.0000 0.0000 61.3184 0.0000 0.0000
# 5 0.0000 0.0000 0.0000 0.0000 23.9827 0.0000
# 6 0.0000 0.0000 0.0000 0.0000 0.0000 51.0053
#
#
#
# Elastic Compliance Matrix: (Units=1/GPa)
#
#
# Indices 1 2 3 4 5 6 
#
# 1 0.011885 -0.007536 -0.000071 0.000000 0.000000 0.000000
# 2 -0.007536 0.022823 -0.005867 0.000000 0.000000 0.000000
# 3 -0.000071 -0.005867 0.013576 0.000000 0.000000 0.000000
# 4 0.000000 0.000000 0.000000 0.016308 0.000000 0.000000
# 5 0.000000 0.000000 0.000000 0.000000 0.041697 0.000000
# 6 0.000000 0.000000 0.000000 0.000000 0.000000 0.019606
#
#
# Mechanical properties :
#
#
# Convention : Reuss Voigt Hill
#
# Bulk Modulus (GPa) = 46.86532 48.46843 47.66687
# Shear Modulus (GPa) = 31.25900 38.81065 35.03482
#
# Velocity S-wave (km/s) = 3.68196 4.10267 3.89799
# Velocity P-wave (km/s) = 6.19685 6.59265 6.39781
#
# Compressibility (1/GPa) = 0.02133774
#
# Stress axis : x y z
#
# Youngs Moduli (GPa) = 84.14289 43.81480 73.65827
#
# Poissons Ratio (x) = 0.33017 0.00523
# Poissons Ratio (y) = 0.63406 0.43212
# Poissons Ratio (z) = 0.00598 0.25704
#
# Static dielectric constant tensor:
#      x y z
#    x 1.848370 0.000000 0.000000 
#    y 0.000000 1.861120 0.000000 
#    z 0.000000 0.000000 1.877510 
# 
# From -- ./inp_files/7525.got.cif
#   From: 2010.05.17/outbox.cif.g08.bks.cpg/sg45_4_cif.got.tgz:7525.got - 2010.06.03 19:51:22.
