data_PCOD9377305
_publ_section_title
;
Structure prediction by ZEFSAII (Michael W. Deem and Ramdas Pophale) SiO2 
 PCOD9377305
Probable space group: I B A 2
;
_chemical_formula_sum "Si O2"
_cell_formula_units_Z 60
_cell_length_a 11.336726
_cell_length_b 24.988409
_cell_length_c 9.278960
_cell_angle_alpha 90.000000
_cell_angle_beta 90.000000
_cell_angle_gamma 90.000000
_cell_volume 2628.606385
_symmetry_space_group_name_H-M "I B A 2"
_symmetry_group_IT_number 45
_symmetry_cell_setting 'orthorhombic'
loop_
_space_group_symop_operation_xyz
x,y,z
-x,-y,z
-x,y,1/2+z
x,-y,1/2+z
1/2+x,1/2+y,1/2+z
1/2-x,1/2-y,1/2+z
1/2-x,1/2+y,z
1/2+x,1/2-y,z
loop_
_atom_site_type_symbol
_atom_site_label
_atom_site_fract_x
_atom_site_fract_y
_atom_site_fract_z
Si Si1 0.727038 0.839695 0.723030
Si Si2 0.163549 0.483145 0.049783
Si Si3 0.126682 0.905787 0.017514
Si Si4 0.500000 0.000000 0.797275
Si Si5 0.922395 0.234410 0.286926
Si Si6 0.585115 0.367538 0.202552
Si Si7 0.302199 0.108394 0.006611
Si Si8 0.997922 0.692766 0.553015
O O1 0.799108 0.856092 0.581381
O O2 0.795918 0.792997 0.806094
O O3 0.600815 0.823300 0.664256
O O4 0.736389 0.886990 0.840016
O O5 0.290120 0.456051 0.048203
O O6 0.083592 0.467849 0.187218
O O7 0.178769 0.547173 0.050742
O O8 0.088211 0.469391 0.905911
O O9 0.004542 0.900977 0.102138
O O10 0.108179 0.899064 0.849107
O O11 0.954911 0.272262 0.420054
O O12 0.020021 0.187866 0.251882
O O13 0.913185 0.269185 0.143806
O O14 0.705269 0.364260 0.110785
O O15 0.424079 0.141027 0.009681
#
# Coordination Sequence:
#
# PCOD9377305 Si02
#       8
#     8   8   8   4   8   8   8   8
#     4  11  26  45  71 107 150 189 261 306 380 458
#     4  11  25  45  73 105 150 198 248 311 386 447
#     4  11  25  48  77 110 144 203 245 320 383 457
#     4  10  24  42  70 102 144 194 242 314 376 450
#     4  11  25  47  70 100 143 196 239 317 374 450
#     4  11  25  49  76 106 153 193 260 313 385 463
#     4  12  27  44  71 110 149 199 249 313 370 464
#     4  12  27  42  71 106 145 197 247 306 383 449
#
# _framework density 22.825783999999999
#
# number of rings (size 3 to 8) (size 9 to 14) (size 15 to 20)
#    0.000    0.800    1.333    5.600   11.200    0.533 
#    0.000    2.667    0.000    0.000    0.000    0.000 
#    0.000    0.000    0.000    0.000    0.000    0.000 
#
# Total GULP energy -167803.329092 kJ/mol
# GULP energy per Si atom -5593.444303 kJ/mol
# Density = 2.277383 g / cm^3
# Si number density = 22.825784 Si / 1000 Ang^3
#
#
#
# Elastic Constant Matrix: (Units=GPa)
#
#
# Indices 1 2 3 4 5 6 
#
# 1 113.7915 42.3039 49.2542 0.0001 -0.0001 0.0000
# 2 42.3039 80.4185 22.3058 -0.0001 0.0001 0.0000
# 3 49.2542 22.3058 152.0022 -0.0002 -0.0004 0.0001
# 4 0.0001 -0.0001 -0.0002 20.2461 -0.0001 0.0000
# 5 -0.0001 0.0001 -0.0004 -0.0001 32.3142 0.0000
# 6 0.0000 0.0000 0.0001 0.0000 0.0000 43.1912
#
#
#
# Elastic Compliance Matrix: (Units=1/GPa)
#
#
# Indices 1 2 3 4 5 6 
#
# 1 0.012213 -0.005553 -0.003142 0.000000 0.000000 0.000000
# 2 -0.005553 0.015487 -0.000473 0.000000 0.000000 0.000000
# 3 -0.003142 -0.000473 0.007667 0.000000 0.000000 0.000000
# 4 0.000000 0.000000 0.000000 0.049392 0.000000 0.000000
# 5 0.000000 0.000000 0.000000 0.000000 0.030946 0.000000
# 6 0.000000 0.000000 0.000000 0.000000 0.000000 0.023153
#
#
# Mechanical properties :
#
#
# Convention : Reuss Voigt Hill
#
# Bulk Modulus (GPa) = 58.72279 63.77113 61.24696
# Shear Modulus (GPa) = 30.69908 34.64017 32.66962
#
# Velocity S-wave (km/s) = 3.67131 3.89985 3.78730
# Velocity P-wave (km/s) = 6.61466 6.94819 6.78347
#
# Compressibility (1/GPa) = 0.01702916
#
# Stress axis : x y z
#
# Youngs Moduli (GPa) = 81.88309 64.56917 130.43601
#
# Poissons Ratio (x) = 0.35854 0.40989
# Poissons Ratio (y) = 0.45468 0.06175
# Poissons Ratio (z) = 0.25731 0.03057
#
# Static dielectric constant tensor:
#      x y z
#    x 1.893790 0.000000 0.000000 
#    y 0.000000 2.014730 0.000000 
#    z 0.000000 0.000000 1.845700 
# 
# From -- ./inp_files/1439.got.cif
#   From: 2010.05.17/outbox.cif.g08.bks.cpg/sg45_1_cif.got.tgz:1439.got - 2010.06.03 19:51:22.
