data_PCOD9377316
_publ_section_title
;
Structure prediction by ZEFSAII (Michael W. Deem and Ramdas Pophale) SiO2 
 PCOD9377316
Probable space group: I B A 2
;
_chemical_formula_sum "Si O2"
_cell_formula_units_Z 40
_cell_length_a 14.146695
_cell_length_b 9.145821
_cell_length_c 12.931337
_cell_angle_alpha 90.000000
_cell_angle_beta 90.000000
_cell_angle_gamma 90.000000
_cell_volume 1673.096988
_symmetry_space_group_name_H-M "I B A 2"
_symmetry_group_IT_number 45
_symmetry_cell_setting 'orthorhombic'
loop_
_space_group_symop_operation_xyz
x,y,z
-x,-y,z
-x,y,1/2+z
x,-y,1/2+z
1/2+x,1/2+y,1/2+z
1/2-x,1/2-y,1/2+z
1/2-x,1/2+y,z
1/2+x,1/2-y,z
loop_
_atom_site_type_symbol
_atom_site_label
_atom_site_fract_x
_atom_site_fract_y
_atom_site_fract_z
Si Si1 0.322844 0.831627 0.590830
Si Si2 0.540141 0.192233 0.903130
Si Si3 0.819741 0.026988 0.195531
Si Si4 0.000000 0.500000 0.096754
Si Si5 0.500000 0.500000 0.829278
Si Si6 0.655952 0.066293 0.355430
O O1 0.340242 0.664276 0.620554
O O2 0.322072 0.866191 0.468732
O O3 0.225743 0.892870 0.634874
O O4 0.404964 0.933816 0.642971
O O5 0.534287 0.363708 0.896286
O O6 0.448332 0.136579 0.837025
O O7 0.633465 0.107431 0.866514
O O8 0.528639 0.131318 0.018821
O O9 0.741464 0.085460 0.277566
O O10 0.910947 0.971461 0.255851
#
# Coordination Sequence:
#
# PCOD9377316 Si02
#       6
#     8   8   8   4   4   8
#     4  10  24  43  66  95 127 168 217 269 330 397
#     4   8  18  39  66  92 124 164 206 264 330 390
#     4  12  25  40  65  95 129 173 217 270 326 391
#     4   8  20  44  68  90 122 170 214 262 330 396
#     4  12  24  36  58 100 132 162 216 268 322 386
#     4   9  21  45  68  90 125 172 217 263 330 398
#
# _framework density 23.90776
#
# number of rings (size 3 to 8) (size 9 to 14) (size 15 to 20)
#    0.000    2.800    0.000    2.400    0.000   12.800 
#    0.000    7.000    0.000    0.000    0.000    0.000 
#    0.000    0.000    0.000    0.000    0.000    0.000 
#
# Total GULP energy -111762.156553 kJ/mol
# GULP energy per Si atom -5588.107828 kJ/mol
# Density = 2.385334 g / cm^3
# Si number density = 23.907760 Si / 1000 Ang^3
#
#
#
# Elastic Constant Matrix: (Units=GPa)
#
#
# Indices 1 2 3 4 5 6 
#
# 1 73.1147 -8.2728 11.8983 0.0000 0.0000 0.0000
# 2 -8.2728 130.3379 11.7176 0.0000 0.0000 0.0000
# 3 11.8983 11.7176 74.2674 0.0000 0.0000 0.0000
# 4 0.0000 0.0000 0.0000 15.0655 0.0000 0.0000
# 5 0.0000 0.0000 0.0000 0.0000 3.8171 0.0000
# 6 0.0000 0.0000 0.0000 0.0000 0.0000 31.2518
#
#
#
# Elastic Compliance Matrix: (Units=1/GPa)
#
#
# Indices 1 2 3 4 5 6 
#
# 1 0.014203 0.001122 -0.002452 0.000000 0.000000 0.000000
# 2 0.001122 0.007871 -0.001422 0.000000 0.000000 0.000000
# 3 -0.002452 -0.001422 0.014082 0.000000 0.000000 0.000000
# 4 0.000000 0.000000 0.000000 0.066377 0.000000 0.000000
# 5 0.000000 0.000000 0.000000 0.000000 0.261978 0.000000
# 6 0.000000 0.000000 0.000000 0.000000 0.000000 0.031998
#
#
# Mechanical properties :
#
#
# Convention : Reuss Voigt Hill
#
# Bulk Modulus (GPa) = 32.62397 34.26736 33.44566
# Shear Modulus (GPa) = 12.12910 27.51867 19.82389
#
# Velocity S-wave (km/s) = 2.25484 3.39637 2.88268
# Velocity P-wave (km/s) = 4.52266 5.45387 5.00995
#
# Compressibility (1/GPa) = 0.03065231
#
# Stress axis : x y z
#
# Youngs Moduli (GPa) = 70.40665 127.04240 71.01225
#
# Poissons Ratio (x) = -0.14254 0.17416
# Poissons Ratio (y) = -0.07900 0.10096
# Poissons Ratio (z) = 0.17267 0.18061
#
# Static dielectric constant tensor:
#      x y z
#    x 2.136990 0.000000 0.000000 
#    y 0.000000 1.902250 0.000000 
#    z 0.000000 0.000000 1.954840 
# 
# From -- ./inp_files/6413.got.cif
#   From: 2010.05.17/outbox.cif.g08.bks.cpg/sg45_4_cif.got.tgz:6413.got - 2010.06.03 19:51:22.
