data_PCOD9377941
_publ_section_title
;
Structure prediction by ZEFSAII (Michael W. Deem and Ramdas Pophale) SiO2 
 PCOD9377941
Probable space group: I M A 2
;
_chemical_formula_sum "Si O2"
_cell_formula_units_Z 64
_cell_length_a 9.258940
_cell_length_b 27.015228
_cell_length_c 18.687066
_cell_angle_alpha 90.000000
_cell_angle_beta 90.000000
_cell_angle_gamma 90.000000
_cell_volume 4674.240203
_symmetry_space_group_name_H-M "I M A 2"
_symmetry_group_IT_number 46
_symmetry_cell_setting 'orthorhombic'
loop_
_space_group_symop_operation_xyz
x,y,z
-x,-y,z
1/2-x,y,z
1/2+x,-y,z
1/2+x,1/2+y,1/2+z
1/2-x,1/2-y,1/2+z
-x,1/2+y,1/2+z
x,1/2-y,1/2+z
loop_
_atom_site_type_symbol
_atom_site_label
_atom_site_fract_x
_atom_site_fract_y
_atom_site_fract_z
Si Si1 0.416037 0.200592 0.090100
Si Si2 0.575789 0.744892 0.816009
Si Si3 0.422941 0.648228 0.055755
Si Si4 0.922573 0.448801 0.970768
Si Si5 0.923804 0.855970 0.229864
Si Si6 0.077647 0.748048 0.967827
Si Si7 0.584019 0.696631 0.180052
Si Si8 0.422637 0.551939 0.801986
O O1 0.250000 0.191906 0.067650
O O2 0.459484 0.159340 0.148119
O O3 0.416435 0.251555 0.136057
O O4 0.516471 0.210798 0.022445
O O5 0.750000 0.747049 0.823726
O O6 0.542159 0.691571 0.780036
O O7 0.498083 0.750726 0.891268
O O8 0.532982 0.787311 0.758786
O O9 0.250000 0.647074 0.062568
O O10 0.492133 0.659178 0.132672
O O11 0.471116 0.597475 0.018586
O O12 0.457734 0.694735 0.004014
O O13 0.750000 0.454397 0.978820
O O14 0.949881 0.438393 0.886666
O O15 0.000000 0.500000 0.989455
O O16 0.750000 0.863320 0.233494
O O17 0.008442 0.903486 0.257386
O O18 0.250000 0.751581 0.961428
O O19 0.750000 0.679944 0.184408
O O20 0.500000 0.500000 0.784618
O O21 0.250000 0.548603 0.791710
#
# Coordination Sequence:
#
# PCOD9377941 Si02
#       8
#     8   8   8   8   8   8   8   8
#     4   8  15  28  42  56  78 106 134 166 202 239
#     4   9  17  28  41  58  82 109 136 167 200 237
#     4   9  17  28  40  56  80 106 132 166 204 236
#     4   9  18  30  41  56  79 106 136 169 203 236
#     4   9  17  29  44  60  79 107 141 171 203 243
#     4  10  18  26  39  60  83 107 137 168 199 239
#     4   8  15  27  41  57  76 102 136 166 194 235
#     4  10  19  30  43  59  82 109 138 173 207 239
#
# _framework density 13.692066000000001
#
# number of rings (size 3 to 8) (size 9 to 14) (size 15 to 20)
#    0.000    3.000    0.000    3.000    0.000    4.000 
#    0.000    2.500    0.000    0.000    0.000    0.000 
#    0.000    1.000    0.000    7.000    0.000    5.125 
#
# Total GULP energy -178191.946544 kJ/mol
# GULP energy per Si atom -5568.498329 kJ/mol
# Density = 1.366090 g / cm^3
# Si number density = 13.692066 Si / 1000 Ang^3
#
#
#
# Elastic Constant Matrix: (Units=GPa)
#
#
# Indices 1 2 3 4 5 6 
#
# 1 40.7519 44.8568 53.7976 0.0000 0.0000 0.0000
# 2 44.8568 92.8702 60.9965 0.0000 0.0000 0.0000
# 3 53.7976 60.9965 111.4344 0.0000 0.0000 0.0000
# 4 0.0000 0.0000 0.0000 26.1777 0.0000 0.0000
# 5 0.0000 0.0000 0.0000 0.0000 23.5365 0.0000
# 6 0.0000 0.0000 0.0000 0.0000 0.0000 22.1830
#
#
#
# Elastic Compliance Matrix: (Units=1/GPa)
#
#
# Indices 1 2 3 4 5 6 
#
# 1 0.092697 -0.024014 -0.031607 0.000000 0.000000 0.000000
# 2 -0.024014 0.023033 -0.001014 0.000000 0.000000 0.000000
# 3 -0.031607 -0.001014 0.024788 0.000000 0.000000 0.000000
# 4 0.000000 0.000000 0.000000 0.038201 0.000000 0.000000
# 5 0.000000 0.000000 0.000000 0.000000 0.042487 0.000000
# 6 0.000000 0.000000 0.000000 0.000000 0.000000 0.045079
#
#
# Mechanical properties :
#
#
# Convention : Reuss Voigt Hill
#
# Bulk Modulus (GPa) = 36.70082 62.70649 49.70365
# Shear Modulus (GPa) = 12.86547 20.07313 16.46930
#
# Velocity S-wave (km/s) = 3.06866 3.83305 3.47195
# Velocity P-wave (km/s) = 6.27839 8.09239 7.24241
#
# Compressibility (1/GPa) = 0.02724735
#
# Stress axis : x y z
#
# Youngs Moduli (GPa) = 10.78788 43.41654 40.34186
#
# Poissons Ratio (x) = 1.04259 1.27508
# Poissons Ratio (y) = 0.25906 0.04092
# Poissons Ratio (z) = 0.34097 0.04404
#
# Static dielectric constant tensor:
#      x y z
#    x 1.454850 0.000000 0.000000 
#    y 0.000000 1.432250 0.000000 
#    z 0.000000 0.000000 1.443340 
# 
# From -- ./inp_files/18643.got.cif
#   From: 2010.05.17/outbox.cif.g08.bks.cpg/sg46_10_cif.got.tgz:18643.got - 2010.06.03 19:58:25.
