data_PCOD9377739
_publ_section_title
;
Structure prediction by ZEFSAII (Michael W. Deem and Ramdas Pophale) SiO2 
 PCOD9377739
Probable space group: I B A 2
;
_chemical_formula_sum "Si O2"
_cell_formula_units_Z 30
_cell_length_a 12.000000
_cell_length_b 27.000000
_cell_length_c 9.000000
_cell_angle_alpha 90.000000
_cell_angle_beta 90.000000
_cell_angle_gamma 90.000000
_cell_volume 2916.000000
_symmetry_space_group_name_H-M "I B A 2"
_symmetry_group_IT_number 45
_symmetry_cell_setting 'orthorhombic'
loop_
_space_group_symop_operation_xyz
x,y,z
-x,-y,z
-x,y,1/2+z
x,-y,1/2+z
1/2+x,1/2+y,1/2+z
1/2-x,1/2-y,1/2+z
1/2-x,1/2+y,z
1/2+x,1/2-y,z
loop_
_atom_site_type_symbol
_atom_site_label
_atom_site_fract_x
_atom_site_fract_y
_atom_site_fract_z
Si Si1 0.290864 0.187345 0.679520
Si Si2 0.077221 0.838023 0.987658
Si Si3 0.814341 0.363125 0.987454
Si Si4 0.641551 0.302552 0.160303
Si Si5 0.201197 0.934724 0.913807
Si Si6 0.500000 0.000000 0.624000
Si Si7 0.931263 0.392296 0.499905
Si Si8 0.241152 0.530042 0.113732
O O1 0.173789 0.183857 0.593532
O O2 0.271690 0.167907 0.846137
O O3 0.337540 0.243145 0.659342
O O4 0.376547 0.145953 0.616194
O O5 0.956245 0.822430 0.049942
O O6 0.098982 0.816652 0.823981
O O7 0.108028 0.896694 0.973912
O O8 0.756827 0.331841 0.121273
O O9 0.776715 0.420697 0.012027
O O10 0.949007 0.367045 0.965186
O O11 0.179137 0.954650 0.748593
O O12 0.319881 0.904207 0.902688
O O13 0.219603 0.982167 0.020952
O O14 0.531094 0.948165 0.544336
O O15 0.378803 0.985652 0.690028
#
# Coordination Sequence:
#
# PCOD9377739 Si02
#       8
#     8   8   8   8   8   4   8   8
#     4  11  26  41  71 102 136 183 232 290 345 424
#     4  11  26  50  69 100 136 181 240 290 354 420
#     4  11  24  43  68 104 139 181 231 285 353 418
#     4  12  26  47  72  93 140 185 238 296 350 412
#     4  10  22  43  68 102 141 183 230 288 353 429
#     4   8  18  34  56  96 136 174 204 262 342 410
#     4   9  22  38  64 101 141 175 223 274 350 423
#     4  10  21  37  69 100 142 181 224 285 352 421
#
# _framework density 10.288066000000001
#
# number of rings (size 3 to 8) (size 9 to 14) (size 15 to 20)
#    0.000    1.600    1.333    1.600   13.067    2.133 
#    0.000    0.667    0.000    0.000    0.000    0.000 
#    0.000    0.000    0.000    0.000    0.000    0.000 
#
# Total GULP energy -167218.252605 kJ/mol
# GULP energy per Si atom -5573.941753 kJ/mol
# Density = 1.026465 g / cm^3
# Si number density = 10.288066 Si / 1000 Ang^3
#
#
#
# Elastic Constant Matrix: (Units=GPa)
#
#
# Indices 1 2 3 4 5 6 
#
# 1 63.4942 33.6978 23.4827 0.0003 -0.0001 0.0001
# 2 33.6978 151.2111 41.2804 0.0008 -0.0001 -0.0001
# 3 23.4827 41.2804 88.6850 0.0026 -0.0009 -0.0002
# 4 0.0003 0.0008 0.0026 34.9266 -0.0004 -0.0001
# 5 -0.0001 -0.0001 -0.0009 -0.0004 28.0265 0.0001
# 6 0.0001 -0.0001 -0.0002 -0.0001 0.0001 26.2829
#
#
#
# Elastic Compliance Matrix: (Units=1/GPa)
#
#
# Indices 1 2 3 4 5 6 
#
# 1 0.018744 -0.003233 -0.003458 0.000000 0.000000 0.000000
# 2 -0.003233 0.008134 -0.002930 0.000000 0.000000 0.000000
# 3 -0.003458 -0.002930 0.013555 -0.000001 0.000000 0.000000
# 4 0.000000 0.000000 -0.000001 0.028632 0.000000 0.000000
# 5 0.000000 0.000000 0.000000 0.000000 0.035681 0.000000
# 6 0.000000 0.000000 0.000000 0.000000 0.000000 0.038048
#
#
# Mechanical properties :
#
#
# Convention : Reuss Voigt Hill
#
# Bulk Modulus (GPa) = 47.19057 55.59023 51.39040
# Shear Modulus (GPa) = 29.56843 31.50915 30.53879
#
# Velocity S-wave (km/s) = 3.79492 3.91749 3.85669
# Velocity P-wave (km/s) = 6.49510 6.89476 6.69791
#
# Compressibility (1/GPa) = 0.02119067
#
# Stress axis : x y z
#
# Youngs Moduli (GPa) = 53.34932 122.94633 73.77146
#
# Poissons Ratio (x) = 0.39750 0.25513
# Poissons Ratio (y) = 0.17248 0.21614
# Poissons Ratio (z) = 0.18450 0.36022
#
# Static dielectric constant tensor:
#      x y z
#    x 1.739060 0.000000 0.000000 
#    y 0.000000 1.713820 0.000000 
#    z 0.000000 0.000000 1.794510 
# 
# From -- ./inp_files/1445.got.cif
#   From: 2010.05.17/outbox.ucp.g08.bks.cvg/sg45_1_cif.got.tgz:1445.got - 2010.06.11 16:34:12.
