data_PCOD9377963
_publ_section_title
;
Structure prediction by ZEFSAII (Michael W. Deem and Ramdas Pophale) SiO2 
 PCOD9377963
Probable space group: I M A 2
;
_chemical_formula_sum "Si O2"
_cell_formula_units_Z 56
_cell_length_a 8.668277
_cell_length_b 14.003538
_cell_length_c 30.463386
_cell_angle_alpha 90.000000
_cell_angle_beta 90.000000
_cell_angle_gamma 90.000000
_cell_volume 3697.845217
_symmetry_space_group_name_H-M "I M A 2"
_symmetry_group_IT_number 46
_symmetry_cell_setting 'orthorhombic'
loop_
_space_group_symop_operation_xyz
x,y,z
-x,-y,z
1/2-x,y,z
1/2+x,-y,z
1/2+x,1/2+y,1/2+z
1/2-x,1/2-y,1/2+z
-x,1/2+y,1/2+z
x,1/2-y,1/2+z
loop_
_atom_site_type_symbol
_atom_site_label
_atom_site_fract_x
_atom_site_fract_y
_atom_site_fract_z
Si Si1 0.564781 0.603701 0.522200
Si Si2 0.564093 0.107527 0.290961
Si Si3 0.935535 0.210316 0.106395
Si Si4 0.436508 0.892318 0.195112
Si Si5 0.435099 0.104586 0.562103
Si Si6 0.564755 0.707062 0.971966
Si Si7 0.434825 0.607660 0.887018
O O1 0.500000 0.500000 0.511308
O O2 0.750000 0.601075 0.525254
O O3 0.498190 0.639396 0.568768
O O4 0.522099 0.686002 0.487190
O O5 0.750000 0.105246 0.290982
O O6 0.516314 0.147361 0.243313
O O7 0.516889 0.146925 0.338686
O O8 0.500000 0.000000 0.290852
O O9 0.750000 0.211875 0.104459
O O10 0.985006 0.171713 0.153979
O O11 0.999942 0.314485 0.094441
O O12 0.250000 0.897803 0.194230
O O13 0.500000 0.000000 0.190473
O O14 0.250000 0.104711 0.564300
O O15 0.480067 0.138686 0.512810
O O16 0.500000 0.000000 0.570951
O O17 0.750000 0.702926 0.968158
O O18 0.492374 0.671406 0.927037
O O19 0.500000 0.500000 0.891662
O O20 0.250000 0.601930 0.888279
#
# Coordination Sequence:
#
# PCOD9377963 Si02
#       7
#     8   8   8   8   8   8   8
#     4  10  20  33  47  64  88 117 146 181 219 257
#     4   8  15  27  40  59  86 114 143 174 210 253
#     4  10  19  30  46  67  89 117 149 180 215 256
#     4   9  17  28  43  63  89 118 146 176 212 253
#     4  10  20  33  47  64  88 117 147 182 219 257
#     4   9  19  32  45  63  87 114 144 176 213 255
#     4  10  18  27  43  64  88 117 146 177 213 253
#
# _framework density 15.143954000000001
#
# number of rings (size 3 to 8) (size 9 to 14) (size 15 to 20)
#    0.000    2.571    0.000    3.429    0.000    7.429 
#    0.000    0.000    0.000    0.000    0.000    1.000 
#    0.000    2.286    0.000    0.000    0.000    0.000 
#
# Total GULP energy -155985.424157 kJ/mol
# GULP energy per Si atom -5570.908006 kJ/mol
# Density = 1.510949 g / cm^3
# Si number density = 15.143954 Si / 1000 Ang^3
#
#
#
# Elastic Constant Matrix: (Units=GPa)
#
#
# Indices 1 2 3 4 5 6 
#
# 1 29.9845 26.9532 36.0768 0.0000 0.0000 0.0000
# 2 26.9532 94.1766 69.5656 0.0000 0.0000 0.0000
# 3 36.0768 69.5656 168.5995 0.0000 0.0000 0.0000
# 4 0.0000 0.0000 0.0000 21.3430 0.0000 0.0000
# 5 0.0000 0.0000 0.0000 0.0000 17.6174 0.0000
# 6 0.0000 0.0000 0.0000 0.0000 0.0000 24.0469
#
#
#
# Elastic Compliance Matrix: (Units=1/GPa)
#
#
# Indices 1 2 3 4 5 6 
#
# 1 0.049899 -0.009197 -0.006883 0.000000 0.000000 0.000000
# 2 -0.009197 0.016969 -0.005033 0.000000 0.000000 0.000000
# 3 -0.006883 -0.005033 0.009481 0.000000 0.000000 0.000000
# 4 0.000000 0.000000 0.000000 0.046854 0.000000 0.000000
# 5 0.000000 0.000000 0.000000 0.000000 0.056762 0.000000
# 6 0.000000 0.000000 0.000000 0.000000 0.000000 0.041585
#
#
# Mechanical properties :
#
#
# Convention : Reuss Voigt Hill
#
# Bulk Modulus (GPa) = 29.30650 61.99467 45.65058
# Shear Modulus (GPa) = 18.17196 23.27912 20.72554
#
# Velocity S-wave (km/s) = 3.46778 3.92495 3.70343
# Velocity P-wave (km/s) = 5.95214 7.84641 6.96398
#
# Compressibility (1/GPa) = 0.03412213
#
# Stress axis : x y z
#
# Youngs Moduli (GPa) = 20.04060 58.93252 105.47672
#
# Poissons Ratio (x) = 0.54200 0.72595
# Poissons Ratio (y) = 0.18431 0.53091
# Poissons Ratio (z) = 0.13793 0.29663
#
# Static dielectric constant tensor:
#      x y z
#    x 1.509810 0.000000 0.000000 
#    y 0.000000 1.469660 0.000000 
#    z 0.000000 0.000000 1.534250 
# 
# From -- ./inp_files/25234.got.cif
#   From: 2010.05.17/outbox.cif.g08.bks.cpg/sg46_13_cif.got.tgz:25234.got - 2010.06.03 19:58:25.
