data_PCOD9377926
_publ_section_title
;
Structure prediction by ZEFSAII (Michael W. Deem and Ramdas Pophale) SiO2 
 PCOD9377926
Probable space group: I M A 2
;
_chemical_formula_sum "Si O2"
_cell_formula_units_Z 64
_cell_length_a 17.401793
_cell_length_b 10.761874
_cell_length_c 18.710625
_cell_angle_alpha 90.000000
_cell_angle_beta 90.000000
_cell_angle_gamma 90.000000
_cell_volume 3504.049205
_symmetry_space_group_name_H-M "I M A 2"
_symmetry_group_IT_number 46
_symmetry_cell_setting 'orthorhombic'
loop_
_space_group_symop_operation_xyz
x,y,z
-x,-y,z
1/2-x,y,z
1/2+x,-y,z
1/2+x,1/2+y,1/2+z
1/2-x,1/2-y,1/2+z
-x,1/2+y,1/2+z
x,1/2-y,1/2+z
loop_
_atom_site_type_symbol
_atom_site_label
_atom_site_fract_x
_atom_site_fract_y
_atom_site_fract_z
Si Si1 0.550244 0.802881 0.892570
Si Si2 0.027097 0.137075 0.254676
Si Si3 0.336846 0.946819 0.036974
Si Si4 0.612885 0.069792 0.882718
Si Si5 0.408496 0.969842 0.727283
Si Si6 0.837771 0.731912 0.182513
Si Si7 0.071986 0.747423 0.629925
Si Si8 0.085942 0.213323 0.045422
O O1 0.540623 0.713580 0.826272
O O2 0.467011 0.864832 0.904525
O O3 0.603890 0.920824 0.877399
O O4 0.582159 0.741798 0.964261
O O5 0.105902 0.158873 0.210513
O O6 0.960379 0.189702 0.203590
O O7 0.000000 0.000000 0.271484
O O8 0.250000 0.984555 0.056345
O O9 0.366776 0.837857 0.088888
O O10 0.394734 0.065053 0.042953
O O11 0.336828 0.906626 0.953144
O O12 0.625143 0.098251 0.798437
O O13 0.402399 0.883098 0.657140
O O14 0.500000 0.000000 0.740103
O O15 0.368105 0.101405 0.713482
O O16 0.750000 0.752870 0.201543
O O17 0.851082 0.728513 0.097431
O O18 0.996391 0.745236 0.579934
#
# Coordination Sequence:
#
# PCOD9377926 Si02
#       8
#     8   8   8   8   8   8   8   8
#     4  10  17  34  58  87 111 147 204 255 286 346
#     4  11  21  36  60  90 117 157 202 248 297 357
#     4  11  23  36  55  88 125 156 194 250 308 358
#     4  10  17  34  60  81 118 150 195 252 297 344
#     4  12  19  37  64  91 115 154 202 251 301 364
#     4  11  23  40  61  90 126 157 195 251 307 359
#     4  11  20  35  61  84 115 148 203 246 296 355
#     4  10  20  36  59  83 113 158 196 242 291 357
#
# _framework density 18.264582000000001
#
# number of rings (size 3 to 8) (size 9 to 14) (size 15 to 20)
#    0.000    1.250    7.500    2.250    0.000    1.000 
#    2.250    0.625    0.000    0.750    0.000    0.000 
#    0.000    0.000    0.000    0.000    0.000    0.000 
#
# Total GULP energy -178263.263280 kJ/mol
# GULP energy per Si atom -5570.726977 kJ/mol
# Density = 1.822301 g / cm^3
# Si number density = 18.264582 Si / 1000 Ang^3
#
#
#
# Elastic Constant Matrix: (Units=GPa)
#
#
# Indices 1 2 3 4 5 6 
#
# 1 67.1291 27.8978 31.0527 0.0000 0.0000 0.0000
# 2 27.8978 54.0462 37.6263 0.0000 0.0000 0.0000
# 3 31.0527 37.6263 131.1743 0.0000 0.0000 0.0000
# 4 0.0000 0.0000 0.0000 34.7245 0.0000 0.0000
# 5 0.0000 0.0000 0.0000 0.0000 5.6415 0.0000
# 6 0.0000 0.0000 0.0000 0.0000 0.0000 13.3312
#
#
#
# Elastic Compliance Matrix: (Units=1/GPa)
#
#
# Indices 1 2 3 4 5 6 
#
# 1 0.019440 -0.008535 -0.002154 0.000000 0.000000 0.000000
# 2 -0.008535 0.026867 -0.005686 0.000000 0.000000 0.000000
# 3 -0.002154 -0.005686 0.009764 0.000000 0.000000 0.000000
# 4 0.000000 0.000000 0.000000 0.028798 0.000000 0.000000
# 5 0.000000 0.000000 0.000000 0.000000 0.177259 0.000000
# 6 0.000000 0.000000 0.000000 0.000000 0.000000 0.075012
#
#
# Mechanical properties :
#
#
# Convention : Reuss Voigt Hill
#
# Bulk Modulus (GPa) = 42.87928 49.50034 46.18981
# Shear Modulus (GPa) = 13.23925 21.12427 17.18176
#
# Velocity S-wave (km/s) = 2.69524 3.40453 3.07043
# Velocity P-wave (km/s) = 5.76311 6.52802 6.15746
#
# Compressibility (1/GPa) = 0.02332129
#
# Stress axis : x y z
#
# Youngs Moduli (GPa) = 51.44020 37.22038 102.41395
#
# Poissons Ratio (x) = 0.31768 0.22057
# Poissons Ratio (y) = 0.43905 0.58233
# Poissons Ratio (z) = 0.11079 0.21164
#
# Static dielectric constant tensor:
#      x y z
#    x 1.627670 0.000000 0.000000 
#    y 0.000000 1.647200 0.000000 
#    z 0.000000 0.000000 1.685750 
# 
# From -- ./inp_files/20059.got.cif
#   From: 2010.05.17/outbox.cif.g08.bks.cpg/sg46_11_cif.got.tgz:20059.got - 2010.06.03 19:58:25.
