data_PCOD9377762
_publ_section_title
;
Structure prediction by ZEFSAII (Michael W. Deem and Ramdas Pophale) SiO2 
 PCOD9377762
Probable space group: I M A 2
;
_chemical_formula_sum "Si O2"
_cell_formula_units_Z 48
_cell_length_a 8.525932
_cell_length_b 33.597174
_cell_length_c 7.366471
_cell_angle_alpha 90.000000
_cell_angle_beta 90.000000
_cell_angle_gamma 90.000000
_cell_volume 2110.105146
_symmetry_space_group_name_H-M "I M A 2"
_symmetry_group_IT_number 46
_symmetry_cell_setting 'orthorhombic'
loop_
_space_group_symop_operation_xyz
x,y,z
-x,-y,z
1/2-x,y,z
1/2+x,-y,z
1/2+x,1/2+y,1/2+z
1/2-x,1/2-y,1/2+z
-x,1/2+y,1/2+z
x,1/2-y,1/2+z
loop_
_atom_site_type_symbol
_atom_site_label
_atom_site_fract_x
_atom_site_fract_y
_atom_site_fract_z
Si Si1 0.929035 0.710272 0.811200
Si Si2 0.429367 0.203561 0.744674
Si Si3 0.560241 0.625026 0.808018
Si Si4 0.935572 0.959928 0.697367
Si Si5 0.434572 0.621012 0.221815
Si Si6 0.064128 0.542084 0.784044
O O1 0.750000 0.715075 0.741737
O O2 0.004829 0.753590 0.788430
O O3 0.990281 0.668439 0.732328
O O4 0.921638 0.703415 0.026395
O O5 0.250000 0.202172 0.814378
O O6 0.514561 0.163320 0.802831
O O7 0.750000 0.625426 0.822883
O O8 0.507723 0.583887 0.716003
O O9 0.485789 0.623410 0.009705
O O10 0.750000 0.962497 0.671177
O O11 0.979182 0.918496 0.791556
O O12 0.018044 0.958722 0.498883
O O13 0.000000 0.000000 0.787612
O O14 0.250000 0.615421 0.235870
O O15 0.250000 0.543203 0.764527
O O16 0.000000 0.500000 0.711049
#
# Coordination Sequence:
#
# PCOD9377762 Si02
#       6
#     8   8   8   8   8   8
#     4   8  15  26  44  62  81 106 139 172 205 243
#     4   9  16  29  44  61  81 109 140 172 206 246
#     4   9  15  25  38  54  75 104 135 168 204 246
#     4  10  16  23  34  50  73 103 134 167 201 244
#     4  10  17  25  36  54  77 105 135 168 204 245
#     4  10  16  22  32  49  73 103 134 167 201 244
#
# _framework density 22.747681
#
# number of rings (size 3 to 8) (size 9 to 14) (size 15 to 20)
#    0.000    2.667    0.000    9.000    0.000    0.000 
#    0.000    4.167    0.000    0.000    0.000    0.000 
#    0.000    1.333    0.000    7.333    0.000    4.833 
#
# Total GULP energy -133821.415954 kJ/mol
# GULP energy per Si atom -5575.892331 kJ/mol
# Density = 2.269591 g / cm^3
# Si number density = 22.747681 Si / 1000 Ang^3
#
#
#
# Elastic Constant Matrix: (Units=GPa)
#
#
# Indices 1 2 3 4 5 6 
#
# 1 87.3600 37.5538 -15.1423 0.0023 0.0000 0.0002
# 2 37.5538 257.5255 -16.9711 0.0052 -0.0003 0.0002
# 3 -15.1423 -16.9711 53.1020 0.0063 -0.0004 -0.0007
# 4 0.0023 0.0052 0.0063 2.2455 0.0001 -0.0001
# 5 0.0000 -0.0003 -0.0004 0.0001 -8.9108 0.0007
# 6 0.0002 0.0002 -0.0007 -0.0001 0.0007 37.5074
#
#
#
# Elastic Compliance Matrix: (Units=1/GPa)
#
#
# Indices 1 2 3 4 5 6 
#
# 1 0.012691 -0.001647 0.003093 -0.000018 0.000000 0.000000
# 2 -0.001647 0.004180 0.000866 -0.000010 0.000000 0.000000
# 3 0.003093 0.000866 0.019990 -0.000061 -0.000001 0.000000
# 4 -0.000018 -0.000010 -0.000061 0.445337 0.000006 0.000001
# 5 0.000000 0.000000 -0.000001 0.000006 -0.112223 0.000002
# 6 0.000000 0.000000 0.000000 0.000001 0.000002 0.026661
#
#
# Mechanical properties :
#
#
# Convention : Reuss Voigt Hill
#
# Bulk Modulus (GPa) = 24.10461 45.42983 34.76722
# Shear Modulus (GPa) = 12.32009 32.33821 22.32915
#
# Velocity S-wave (km/s) = 2.32975 3.77451 3.13645
# Velocity P-wave (km/s) = 4.22569 6.24583 5.33230
#
# Compressibility (1/GPa) = 0.04148585
#
# Stress axis : x y z
#
# Youngs Moduli (GPa) = 78.79687 239.21376 50.02392
#
# Poissons Ratio (x) = 0.39395 -0.15470
# Poissons Ratio (y) = 0.12977 -0.04334
# Poissons Ratio (z) = -0.24368 -0.20726
#
# Static dielectric constant tensor:
#      x y z
#    x 1.755800 0.000000 0.000000 
#    y 0.000000 1.979590 -0.000010 
#    z 0.000000 -0.000010 2.008420 
# 
# From -- ./inp_files/9565.got.cif
#   From: 2010.05.17/outbox.cif.g08.bks.cpg/sg46_5_cif.got.tgz:9565.got - 2010.06.03 19:58:25.
