data_PCOD9377189
_publ_section_title
;
Structure prediction by ZEFSAII (Michael W. Deem and Ramdas Pophale) SiO2 
 PCOD9377189
Probable space group: I B A 2
;
_chemical_formula_sum "Si O2"
_cell_formula_units_Z 44
_cell_length_a 5.107463
_cell_length_b 27.703493
_cell_length_c 13.145806
_cell_angle_alpha 90.000000
_cell_angle_beta 90.000000
_cell_angle_gamma 90.000000
_cell_volume 1860.060108
_symmetry_space_group_name_H-M "I B A 2"
_symmetry_group_IT_number 45
_symmetry_cell_setting 'orthorhombic'
loop_
_space_group_symop_operation_xyz
x,y,z
-x,-y,z
-x,y,1/2+z
x,-y,1/2+z
1/2+x,1/2+y,1/2+z
1/2-x,1/2-y,1/2+z
1/2-x,1/2+y,z
1/2+x,1/2-y,z
loop_
_atom_site_type_symbol
_atom_site_label
_atom_site_fract_x
_atom_site_fract_y
_atom_site_fract_z
Si Si1 0.000000 0.500000 0.707090
Si Si2 0.685232 0.719326 0.311957
Si Si3 0.370669 0.643727 0.981421
Si Si4 0.229929 0.784004 0.075456
Si Si5 0.294841 0.580558 0.804359
Si Si6 0.811148 0.599292 0.678454
O O1 0.215615 0.525486 0.779119
O O2 0.117387 0.455523 0.644111
O O3 0.387271 0.736821 0.324391
O O4 0.740494 0.680065 0.397172
O O5 0.719036 0.703941 0.195254
O O6 0.373757 0.593920 0.918642
O O7 0.644705 0.668133 0.014904
O O8 0.209500 0.635504 0.084732
O O9 0.496920 0.755190 0.056283
O O10 0.533593 0.596728 0.733656
O O11 0.033202 0.607647 0.763064
#
# Coordination Sequence:
#
# PCOD9377189 Si02
#       6
#     4   8   8   8   8   8
#     4   8  22  50  66  88 144 168 210 278 354 400
#     4  10  23  42  64  92 137 178 213 267 323 385
#     4  12  24  41  71 104 130 176 234 273 329 394
#     4  10  23  42  64  92 137 178 213 267 323 385
#     4  10  24  43  68  96 134 171 219 279 331 407
#     4  10  24  43  68  96 134 171 219 279 331 407
#
# _framework density 23.655148000000001
#
# number of rings (size 3 to 8) (size 9 to 14) (size 15 to 20)
#    1.091    0.727    0.000    2.727    0.000   12.364 
#    0.000    1.818    0.000    0.000    0.000    0.000 
#    0.000    0.000    0.000    0.000    0.000    0.000 
#
# Total GULP energy -122884.691977 kJ/mol
# GULP energy per Si atom -5585.667817 kJ/mol
# Density = 2.360131 g / cm^3
# Si number density = 23.655148 Si / 1000 Ang^3
#
#
#
# Elastic Constant Matrix: (Units=GPa)
#
#
# Indices 1 2 3 4 5 6 
#
# 1 120.6519 26.5579 26.6149 0.0000 0.0000 0.0000
# 2 26.5579 71.9493 27.4829 0.0000 0.0000 0.0000
# 3 26.6149 27.4829 113.2412 0.0000 0.0000 0.0000
# 4 0.0000 0.0000 0.0000 37.7063 0.0000 0.0000
# 5 0.0000 0.0000 0.0000 0.0000 32.0883 0.0000
# 6 0.0000 0.0000 0.0000 0.0000 0.0000 26.5554
#
#
#
# Elastic Compliance Matrix: (Units=1/GPa)
#
#
# Indices 1 2 3 4 5 6 
#
# 1 0.009241 -0.002845 -0.001481 0.000000 0.000000 0.000000
# 2 -0.002845 0.016195 -0.003262 0.000000 0.000000 0.000000
# 3 -0.001481 -0.003262 0.009970 0.000000 0.000000 0.000000
# 4 0.000000 0.000000 0.000000 0.026521 0.000000 0.000000
# 5 0.000000 0.000000 0.000000 0.000000 0.031164 0.000000
# 6 0.000000 0.000000 0.000000 0.000000 0.000000 0.037657
#
#
# Mechanical properties :
#
#
# Convention : Reuss Voigt Hill
#
# Bulk Modulus (GPa) = 49.43185 51.90598 50.66892
# Shear Modulus (GPa) = 32.75064 34.28244 33.51654
#
# Velocity S-wave (km/s) = 3.72493 3.81104 3.76823
# Velocity P-wave (km/s) = 6.28032 6.43085 6.35603
#
# Compressibility (1/GPa) = 0.02022987
#
# Stress axis : x y z
#
# Youngs Moduli (GPa) = 108.20850 61.74813 100.29613
#
# Poissons Ratio (x) = 0.17569 0.14858
# Poissons Ratio (y) = 0.30789 0.32713
# Poissons Ratio (z) = 0.16031 0.20140
#
# Static dielectric constant tensor:
#      x y z
#    x 1.891020 0.000000 0.000000 
#    y 0.000000 1.974490 0.000000 
#    z 0.000000 0.000000 1.874300 
# 
# From -- ./inp_files/5215.got.cif
#   From: 2010.05.17/outbox.cif.g08.bks.cpg/sg45_3_cif.got.tgz:5215.got - 2010.06.03 19:51:22.
