data_PCOD9377350
_publ_section_title
;
Structure prediction by ZEFSAII (Michael W. Deem and Ramdas Pophale) SiO2 
 PCOD9377350
Probable space group: I B A 2
;
_chemical_formula_sum "Si O2"
_cell_formula_units_Z 28
_cell_length_a 12.719796
_cell_length_b 7.737006
_cell_length_c 12.856766
_cell_angle_alpha 90.000000
_cell_angle_beta 90.000000
_cell_angle_gamma 90.000000
_cell_volume 1265.274686
_symmetry_space_group_name_H-M "I B A 2"
_symmetry_group_IT_number 45
_symmetry_cell_setting 'orthorhombic'
loop_
_space_group_symop_operation_xyz
x,y,z
-x,-y,z
-x,y,1/2+z
x,-y,1/2+z
1/2+x,1/2+y,1/2+z
1/2-x,1/2-y,1/2+z
1/2-x,1/2+y,z
1/2+x,1/2-y,z
loop_
_atom_site_type_symbol
_atom_site_label
_atom_site_fract_x
_atom_site_fract_y
_atom_site_fract_z
Si Si1 0.687704 0.694665 0.264760
Si Si2 0.880680 0.476496 0.856643
Si Si3 0.928407 0.664466 0.579570
Si Si4 0.000000 0.000000 0.177945
O O1 0.803000 0.624648 0.281342
O O2 0.667028 0.803601 0.159612
O O3 0.601230 0.541417 0.250602
O O4 0.660976 0.826202 0.358601
O O5 0.000000 0.500000 0.820946
O O6 0.886610 0.372519 0.964395
O O7 0.000000 0.500000 0.602020
O O8 0.000084 0.832946 0.602947
#
# Coordination Sequence:
#
# PCOD9377350 Si02
#       4
#     8   8   8   4
#     4  10  24  44  77 110 157 200 260 325 397 455
#     4  11  25  45  73 119 148 201 266 322 382 475
#     4   9  21  47  79 110 153 206 259 318 393 484
#     4   8  22  48  82 104 156 216 252 312 414 460
#
# _framework density 22.129583
#
# number of rings (size 3 to 8) (size 9 to 14) (size 15 to 20)
#    1.714    0.571    0.000    0.857    4.000    2.286 
#   10.286    0.000    0.000    1.714   14.857    0.000 
#    0.000    0.000    0.000    0.000    0.000    0.000 
#
# Total GULP energy -77977.048832 kJ/mol
# GULP energy per Si atom -5569.789202 kJ/mol
# Density = 2.207922 g / cm^3
# Si number density = 22.129583 Si / 1000 Ang^3
#
#
#
# Elastic Constant Matrix: (Units=GPa)
#
#
# Indices 1 2 3 4 5 6 
#
# 1 172.9681 69.9456 63.0378 0.0000 0.0000 0.0000
# 2 69.9456 175.3646 52.4260 0.0000 0.0000 0.0000
# 3 63.0378 52.4260 92.8464 0.0000 0.0000 0.0000
# 4 0.0000 0.0000 0.0000 27.2546 0.0000 0.0000
# 5 0.0000 0.0000 0.0000 0.0000 30.3783 0.0000
# 6 0.0000 0.0000 0.0000 0.0000 0.0000 54.9083
#
#
#
# Elastic Compliance Matrix: (Units=1/GPa)
#
#
# Indices 1 2 3 4 5 6 
#
# 1 0.008192 -0.001931 -0.004472 0.000000 0.000000 0.000000
# 2 -0.001931 0.007315 -0.002820 0.000000 0.000000 0.000000
# 3 -0.004472 -0.002820 0.015399 0.000000 0.000000 0.000000
# 4 0.000000 0.000000 0.000000 0.036691 0.000000 0.000000
# 5 0.000000 0.000000 0.000000 0.000000 0.032918 0.000000
# 6 0.000000 0.000000 0.000000 0.000000 0.000000 0.018212
#
#
# Mechanical properties :
#
#
# Convention : Reuss Voigt Hill
#
# Bulk Modulus (GPa) = 80.24610 90.22198 85.23404
# Shear Modulus (GPa) = 35.37922 39.55954 37.46938
#
# Velocity S-wave (km/s) = 4.00275 4.23263 4.11929
# Velocity P-wave (km/s) = 7.59627 8.04644 7.82459
#
# Compressibility (1/GPa) = 0.01246166
#
# Stress axis : x y z
#
# Youngs Moduli (GPa) = 122.07347 136.69696 64.93999
#
# Poissons Ratio (x) = 0.26390 0.29039
# Poissons Ratio (y) = 0.23567 0.18313
# Poissons Ratio (z) = 0.54588 0.38548
#
# Static dielectric constant tensor:
#      x y z
#    x 1.710180 0.000000 0.000000 
#    y 0.000000 1.879220 0.000000 
#    z 0.000000 0.000000 1.870800 
# 
# From -- ./inp_files/5917.got.cif
#   From: 2010.05.17/outbox.cif.g08.bks.cpg/sg45_3_cif.got.tgz:5917.got - 2010.06.03 19:51:22.
