data_PCOD9377191
_publ_section_title
;
Structure prediction by ZEFSAII (Michael W. Deem and Ramdas Pophale) SiO2 
 PCOD9377191
Probable space group: I B A 2
;
_chemical_formula_sum "Si O2"
_cell_formula_units_Z 40
_cell_length_a 12.868723
_cell_length_b 5.250389
_cell_length_c 25.258075
_cell_angle_alpha 90.000000
_cell_angle_beta 90.000000
_cell_angle_gamma 90.000000
_cell_volume 1706.582086
_symmetry_space_group_name_H-M "I B A 2"
_symmetry_group_IT_number 45
_symmetry_cell_setting 'orthorhombic'
loop_
_space_group_symop_operation_xyz
x,y,z
-x,-y,z
-x,y,1/2+z
x,-y,1/2+z
1/2+x,1/2+y,1/2+z
1/2-x,1/2-y,1/2+z
1/2-x,1/2+y,z
1/2+x,1/2-y,z
loop_
_atom_site_type_symbol
_atom_site_label
_atom_site_fract_x
_atom_site_fract_y
_atom_site_fract_z
Si Si1 0.354710 0.125608 0.302930
Si Si2 0.000000 0.000000 0.444773
Si Si3 0.073303 0.747949 0.191623
Si Si4 0.684319 0.226666 0.578846
Si Si5 0.500000 0.000000 0.007503
Si Si6 0.623799 0.620411 0.848053
O O1 0.352582 0.225207 0.243154
O O2 0.416201 0.340483 0.334119
O O3 0.246252 0.092212 0.334046
O O4 0.402873 0.849002 0.308585
O O5 0.958080 0.250199 0.475619
O O6 0.090289 0.134957 0.408822
O O7 0.142121 0.732950 0.139018
O O8 0.000000 0.500000 0.192459
O O9 0.000000 0.000000 0.192878
O O10 0.727728 0.510997 0.569970
O O11 0.589157 0.132120 0.542826
#
# Coordination Sequence:
#
# PCOD9377191 Si02
#       6
#     8   4   8   8   4   8
#     4  10  23  42  65 104 152 183 242 300 377 463
#     4  12  26  48  80 100 148 208 264 332 398 436
#     4  12  26  44  76 111 158 211 246 311 395 473
#     4  12  28  51  82 117 156 204 265 331 402 477
#     4  12  28  56  74 114 154 200 270 348 396 474
#     4  10  23  43  66 102 139 195 246 308 362 462
#
# _framework density 23.438661
#
# number of rings (size 3 to 8) (size 9 to 14) (size 15 to 20)
#    0.000    0.800    1.000    4.800   11.200    0.000 
#   21.600    0.000    0.000    0.000    0.000    0.000 
#    0.000    0.000    0.000    0.000    0.000    0.000 
#
# Total GULP energy -111592.419254 kJ/mol
# GULP energy per Si atom -5579.620963 kJ/mol
# Density = 2.338531 g / cm^3
# Si number density = 23.438661 Si / 1000 Ang^3
#
#
#
# Elastic Constant Matrix: (Units=GPa)
#
#
# Indices 1 2 3 4 5 6 
#
# 1 82.0044 13.2957 25.7519 0.0000 0.0000 0.0000
# 2 13.2957 151.2364 16.1488 0.0000 0.0000 0.0000
# 3 25.7519 16.1488 101.0484 0.0000 0.0000 0.0000
# 4 0.0000 0.0000 0.0000 34.4938 0.0000 0.0000
# 5 0.0000 0.0000 0.0000 0.0000 26.9820 0.0000
# 6 0.0000 0.0000 0.0000 0.0000 0.0000 40.5636
#
#
#
# Elastic Compliance Matrix: (Units=1/GPa)
#
#
# Indices 1 2 3 4 5 6 
#
# 1 0.013356 -0.000825 -0.003272 0.000000 0.000000 0.000000
# 2 -0.000825 0.006778 -0.000873 0.000000 0.000000 0.000000
# 3 -0.003272 -0.000873 0.010870 0.000000 0.000000 0.000000
# 4 0.000000 0.000000 0.000000 0.028991 0.000000 0.000000
# 5 0.000000 0.000000 0.000000 0.000000 0.037062 0.000000
# 6 0.000000 0.000000 0.000000 0.000000 0.000000 0.024653
#
#
# Mechanical properties :
#
#
# Convention : Reuss Voigt Hill
#
# Bulk Modulus (GPa) = 47.47462 49.40912 48.44187
# Shear Modulus (GPa) = 36.05716 39.01408 37.53562
#
# Velocity S-wave (km/s) = 3.92645 4.08428 4.00614
# Velocity P-wave (km/s) = 6.39178 6.58542 6.48932
#
# Compressibility (1/GPa) = 0.02106388
#
# Stress axis : x y z
#
# Youngs Moduli (GPa) = 74.87468 147.53851 91.99985
#
# Poissons Ratio (x) = 0.12169 0.30101
# Poissons Ratio (y) = 0.06176 0.08032
# Poissons Ratio (z) = 0.24498 0.12880
#
# Static dielectric constant tensor:
#      x y z
#    x 1.819200 0.000000 0.000000 
#    y 0.000000 1.913920 0.000000 
#    z 0.000000 0.000000 1.905230 
# 
# From -- ./inp_files/9733.got.cif
#   From: 2010.05.17/outbox.cif.g08.bks.cpg/sg45_5_cif.got.tgz:9733.got - 2010.06.03 19:51:22.
