data_PCOD9377722
_publ_section_title
;
Structure prediction by ZEFSAII (Michael W. Deem and Ramdas Pophale) SiO2 
 PCOD9377722
Probable space group: I B A 2
;
_chemical_formula_sum "Si O2"
_cell_formula_units_Z 40
_cell_length_a 9.781263
_cell_length_b 13.479984
_cell_length_c 11.676916
_cell_angle_alpha 90.000000
_cell_angle_beta 90.000000
_cell_angle_gamma 90.000000
_cell_volume 1539.616190
_symmetry_space_group_name_H-M "I B A 2"
_symmetry_group_IT_number 45
_symmetry_cell_setting 'orthorhombic'
loop_
_space_group_symop_operation_xyz
x,y,z
-x,-y,z
-x,y,1/2+z
x,-y,1/2+z
1/2+x,1/2+y,1/2+z
1/2-x,1/2-y,1/2+z
1/2-x,1/2+y,z
1/2+x,1/2-y,z
loop_
_atom_site_type_symbol
_atom_site_label
_atom_site_fract_x
_atom_site_fract_y
_atom_site_fract_z
Si Si1 0.362919 0.962619 0.260260
Si Si2 0.762182 0.221257 0.576769
Si Si3 0.358627 0.500876 0.593224
Si Si4 0.495524 0.768923 0.234689
Si Si5 0.175529 0.870967 0.885514
O O1 0.432349 0.861969 0.308267
O O2 0.500000 0.000000 0.197170
O O3 0.248660 0.939408 0.168514
O O4 0.289148 0.051563 0.332635
O O5 0.790850 0.103906 0.563288
O O6 0.648653 0.228071 0.681401
O O7 0.904558 0.265348 0.620702
O O8 0.733982 0.277946 0.458267
O O9 0.500000 0.500000 0.660475
O O10 0.392464 0.564275 0.483088
O O11 0.440117 0.673201 0.302570
#
# Coordination Sequence:
#
# PCOD9377722 Si02
#       5
#     8   8   8   8   8
#     4  12  26  50  81 118 166 215 276 341 412 503
#     4  12  27  50  81 121 165 212 278 345 409 500
#     4  12  27  51  79 117 164 215 273 342 416 499
#     4  12  26  50  79 117 167 209 276 343 416 490
#     4  12  28  48  86 117 162 221 278 339 426 486
#
# _framework density 25.980499999999999
#
# number of rings (size 3 to 8) (size 9 to 14) (size 15 to 20)
#    0.000    0.000    6.000    2.400    0.000   11.200 
#    0.000    0.000    0.000    0.000    0.000    0.000 
#    0.000    0.000    0.000    0.000    0.000    0.000 
#
# Total GULP energy -111563.310647 kJ/mol
# GULP energy per Si atom -5578.165532 kJ/mol
# Density = 2.592137 g / cm^3
# Si number density = 25.980500 Si / 1000 Ang^3
#
#
#
# Elastic Constant Matrix: (Units=GPa)
#
#
# Indices 1 2 3 4 5 6 
#
# 1 131.0052 35.9080 10.7017 0.0000 0.0000 0.0000
# 2 35.9080 183.9984 35.4322 0.0000 0.0000 0.0000
# 3 10.7017 35.4322 68.8612 0.0001 0.0000 0.0000
# 4 0.0000 0.0000 0.0001 8.5424 0.0000 0.0000
# 5 0.0000 0.0000 0.0000 0.0000 -3.3921 0.0000
# 6 0.0000 0.0000 0.0000 0.0000 0.0000 30.2791
#
#
#
# Elastic Compliance Matrix: (Units=1/GPa)
#
#
# Indices 1 2 3 4 5 6 
#
# 1 0.008080 -0.001482 -0.000493 0.000000 0.000000 0.000000
# 2 -0.001482 0.006304 -0.003014 0.000000 0.000000 0.000000
# 3 -0.000493 -0.003014 0.016149 0.000000 0.000000 0.000000
# 4 0.000000 0.000000 0.000000 0.117063 0.000001 0.000000
# 5 0.000000 0.000000 0.000000 0.000001 -0.294804 0.000000
# 6 0.000000 0.000000 0.000000 0.000000 0.000000 0.033026
#
#
# Mechanical properties :
#
#
# Convention : Reuss Voigt Hill
#
# Bulk Modulus (GPa) = 48.64733 60.88317 54.76525
# Shear Modulus (GPa) = -51.36008 27.20740 -12.07634
#
# Velocity S-wave (km/s) = -4.45102 3.23959 -2.15831
# Velocity P-wave (km/s) = 2.76592 6.12196 3.86187
#
# Compressibility (1/GPa) = 0.02055611
#
# Stress axis : x y z
#
# Youngs Moduli (GPa) = 123.76639 158.62117 61.92241
#
# Poissons Ratio (x) = 0.23505 0.03054
# Poissons Ratio (y) = 0.18340 0.18661
# Poissons Ratio (z) = 0.06104 0.47802
#
# Static dielectric constant tensor:
#      x y z
#    x 2.106310 0.000000 0.000000 
#    y 0.000000 2.245770 0.000000 
#    z 0.000000 0.000000 2.061090 
# 
# From -- ./inp_files/5458.got.cif
#   From: 2010.05.17/outbox.cif.g08.bks.cpg/sg45_3_cif.got.tgz:5458.got - 2010.06.03 19:51:22.
