data_PCOD9377810
_publ_section_title
;
Structure prediction by ZEFSAII (Michael W. Deem and Ramdas Pophale) SiO2 
 PCOD9377810
Probable space group: I M A 2
;
_chemical_formula_sum "Si O2"
_cell_formula_units_Z 28
_cell_length_a 10.683169
_cell_length_b 10.146833
_cell_length_c 10.853489
_cell_angle_alpha 90.000000
_cell_angle_beta 90.000000
_cell_angle_gamma 90.000000
_cell_volume 1176.521808
_symmetry_space_group_name_H-M "I M A 2"
_symmetry_group_IT_number 46
_symmetry_cell_setting 'orthorhombic'
loop_
_space_group_symop_operation_xyz
x,y,z
-x,-y,z
1/2-x,y,z
1/2+x,-y,z
1/2+x,1/2+y,1/2+z
1/2-x,1/2-y,1/2+z
-x,1/2+y,1/2+z
x,1/2-y,1/2+z
loop_
_atom_site_type_symbol
_atom_site_label
_atom_site_fract_x
_atom_site_fract_y
_atom_site_fract_z
Si Si1 0.000000 0.500000 0.664240
Si Si2 0.750000 0.895770 0.035238
Si Si3 0.604288 0.225258 0.694259
Si Si4 0.000000 0.000000 0.516413
Si Si5 0.250000 0.088812 0.519803
Si Si6 0.250000 0.530884 0.295917
O O1 0.124663 0.461685 0.587995
O O2 0.037541 0.639468 0.725651
O O3 0.750000 0.740503 0.052074
O O4 0.750000 0.915385 0.889204
O O5 0.750000 0.251798 0.652488
O O6 0.530842 0.131672 0.597923
O O7 0.630602 0.127369 0.809017
O O8 0.127376 0.038614 0.450112
O O9 0.250000 0.020154 0.655360
#
# Coordination Sequence:
#
# PCOD9377810 Si02
#       6
#     4   4   8   4   4   4
#     4  12  22  37  64 101 132 174 230 287 328 399
#     4  12  23  37  65 102 132 178 241 272 331 420
#     4   9  19  36  60  90 128 174 214 272 338 395
#     4  10  16  33  60  89 116 172 212 253 336 397
#     4  10  20  34  64  90 126 171 225 270 327 397
#     4   8  21  41  61  96 134 185 216 274 348 413
#
# _framework density 23.798963000000001
#
# number of rings (size 3 to 8) (size 9 to 14) (size 15 to 20)
#    0.857    1.143    5.714    0.000    0.000    4.571 
#    0.000    0.000    0.000   17.143    0.000    0.000 
#    0.000    0.000    0.000    0.000    0.000    0.000 
#
# Total GULP energy -78016.028801 kJ/mol
# GULP energy per Si atom -5572.573486 kJ/mol
# Density = 2.374480 g / cm^3
# Si number density = 23.798963 Si / 1000 Ang^3
#
#
#
# Elastic Constant Matrix: (Units=GPa)
#
#
# Indices 1 2 3 4 5 6 
#
# 1 179.5892 48.7578 13.8717 0.0000 0.0000 0.0000
# 2 48.7578 175.8823 24.7533 0.0000 0.0000 0.0000
# 3 13.8717 24.7533 25.7531 0.0000 0.0000 0.0000
# 4 0.0000 0.0000 0.0000 10.3560 0.0000 0.0000
# 5 0.0000 0.0000 0.0000 0.0000 9.0553 0.0000
# 6 0.0000 0.0000 0.0000 0.0000 0.0000 32.1637
#
#
#
# Elastic Compliance Matrix: (Units=1/GPa)
#
#
# Indices 1 2 3 4 5 6 
#
# 1 0.006103 -0.001421 -0.001921 0.000000 0.000000 0.000000
# 2 -0.001421 0.006906 -0.005872 0.000000 0.000000 0.000000
# 3 -0.001921 -0.005872 0.045509 0.000000 0.000000 0.000000
# 4 0.000000 0.000000 0.000000 0.096562 0.000000 0.000000
# 5 0.000000 0.000000 0.000000 0.000000 0.110433 0.000000
# 6 0.000000 0.000000 0.000000 0.000000 0.000000 0.031091
#
#
# Mechanical properties :
#
#
# Convention : Reuss Voigt Hill
#
# Bulk Modulus (GPa) = 24.94466 61.77669 43.36068
# Shear Modulus (GPa) = 15.22553 29.90446 22.56499
#
# Velocity S-wave (km/s) = 2.53208 3.54862 3.08255
# Velocity P-wave (km/s) = 4.36495 6.54251 5.56135
#
# Compressibility (1/GPa) = 0.04008874
#
# Stress axis : x y z
#
# Youngs Moduli (GPa) = 163.86623 144.79899 21.97348
#
# Poissons Ratio (x) = 0.20582 0.04221
# Poissons Ratio (y) = 0.23292 0.12904
# Poissons Ratio (z) = 0.31477 0.85032
#
# Static dielectric constant tensor:
#      x y z
#    x 2.007910 0.000000 0.000000 
#    y 0.000000 1.862080 0.000000 
#    z 0.000000 0.000000 1.873890 
# 
# From -- ./inp_files/14851.got.cif
#   From: 2010.05.17/outbox.cif.g08.bks.cpg/sg46_8_cif.got.tgz:14851.got - 2010.06.03 19:58:25.
