data_PCOD9377077
_publ_section_title
;
Structure prediction by ZEFSAII (Michael W. Deem and Ramdas Pophale) SiO2 
 PCOD9377077
Probable space group: I B A 2
;
_chemical_formula_sum "Si O2"
_cell_formula_units_Z 40
_cell_length_a 9.271471
_cell_length_b 21.839961
_cell_length_c 8.780744
_cell_angle_alpha 90.000000
_cell_angle_beta 90.000000
_cell_angle_gamma 90.000000
_cell_volume 1778.000253
_symmetry_space_group_name_H-M "I B A 2"
_symmetry_group_IT_number 45
_symmetry_cell_setting 'orthorhombic'
loop_
_space_group_symop_operation_xyz
x,y,z
-x,-y,z
-x,y,1/2+z
x,-y,1/2+z
1/2+x,1/2+y,1/2+z
1/2-x,1/2-y,1/2+z
1/2-x,1/2+y,z
1/2+x,1/2-y,z
loop_
_atom_site_type_symbol
_atom_site_label
_atom_site_fract_x
_atom_site_fract_y
_atom_site_fract_z
Si Si1 0.208981 0.450677 0.473350
Si Si2 0.000000 0.000000 0.327220
Si Si3 0.946695 0.761255 0.625392
Si Si4 0.399354 0.376286 0.664663
Si Si5 0.192143 0.242080 0.317386
Si Si6 0.500000 0.000000 0.732346
O O1 0.350689 0.489113 0.420231
O O2 0.283992 0.389377 0.532703
O O3 0.124149 0.474218 0.622505
O O4 0.087614 0.453205 0.342090
O O5 0.034461 0.061225 0.230061
O O6 0.866828 0.737009 0.478453
O O7 0.853875 0.758010 0.779058
O O8 0.978252 0.832590 0.597614
O O9 0.096764 0.731122 0.676724
O O10 0.328215 0.331143 0.789942
#
# Coordination Sequence:
#
# PCOD9377077 Si02
#       6
#     8   4   8   8   8   4
#     4  11  22  44  67 103 145 193 238 289 358 439
#     4  12  22  42  74 108 150 194 242 300 354 462
#     4  10  22  43  71  96 140 177 247 294 369 426
#     4  10  24  41  71 106 141 189 243 291 366 441
#     4  10  22  42  69  99 133 182 235 307 353 433
#     4  10  24  42  68  96 152 190 236 292 356 428
#
# _framework density 22.497185999999999
#
# number of rings (size 3 to 8) (size 9 to 14) (size 15 to 20)
#    1.200    0.400    2.000    3.000    0.000    0.000 
#    0.000    6.000    0.000    0.000    0.000    0.000 
#    0.000    0.000    0.000    0.000    0.000    0.000 
#
# Total GULP energy -111398.562213 kJ/mol
# GULP energy per Si atom -5569.928111 kJ/mol
# Density = 2.244598 g / cm^3
# Si number density = 22.497186 Si / 1000 Ang^3
#
#
#
# Elastic Constant Matrix: (Units=GPa)
#
#
# Indices 1 2 3 4 5 6 
#
# 1 115.9732 23.4137 36.9829 0.0000 0.0001 0.0000
# 2 23.4137 71.3732 19.8351 0.0001 0.0000 0.0000
# 3 36.9829 19.8351 94.1613 0.0003 0.0003 0.0000
# 4 0.0000 0.0001 0.0003 18.8730 -0.0001 0.0000
# 5 0.0001 0.0000 0.0003 -0.0001 59.7499 -0.0001
# 6 0.0000 0.0000 0.0000 0.0000 -0.0001 39.2661
#
#
#
# Elastic Compliance Matrix: (Units=1/GPa)
#
#
# Indices 1 2 3 4 5 6 
#
# 1 0.010223 -0.002377 -0.003515 0.000000 0.000000 0.000000
# 2 -0.002377 0.015435 -0.002318 0.000000 0.000000 0.000000
# 3 -0.003515 -0.002318 0.012489 0.000000 0.000000 0.000000
# 4 0.000000 0.000000 0.000000 0.052986 0.000000 0.000000
# 5 0.000000 0.000000 0.000000 0.000000 0.016736 0.000000
# 6 0.000000 0.000000 0.000000 0.000000 0.000000 0.025467
#
#
# Mechanical properties :
#
#
# Convention : Reuss Voigt Hill
#
# Bulk Modulus (GPa) = 46.02336 49.10790 47.56563
# Shear Modulus (GPa) = 31.84762 36.99620 34.42191
#
# Velocity S-wave (km/s) = 3.76656 4.05962 3.91583
# Velocity P-wave (km/s) = 6.27836 6.62192 6.45243
#
# Compressibility (1/GPa) = 0.02172810
#
# Stress axis : x y z
#
# Youngs Moduli (GPa) = 97.81523 64.78890 80.07235
#
# Poissons Ratio (x) = 0.15400 0.28142
# Poissons Ratio (y) = 0.23251 0.18559
# Poissons Ratio (z) = 0.34378 0.15016
#
# Static dielectric constant tensor:
#      x y z
#    x 1.836310 0.000000 0.000000 
#    y 0.000000 1.826240 0.000000 
#    z 0.000000 0.000000 1.878640 
# 
# From -- ./inp_files/989.got.cif
#   From: 2010.05.17/outbox.cif.g08.bks.cpg/sg45_1_cif.got.tgz:989.got - 2010.06.03 19:51:22.
