data_PCOD9377039
_publ_section_title
;
Structure prediction by ZEFSAII (Michael W. Deem and Ramdas Pophale) SiO2 
 PCOD9377039
Probable space group: I B A 2
;
_chemical_formula_sum "Si O2"
_cell_formula_units_Z 64
_cell_length_a 18.698258
_cell_length_b 8.985272
_cell_length_c 16.357515
_cell_angle_alpha 90.000000
_cell_angle_beta 90.000000
_cell_angle_gamma 90.000000
_cell_volume 2748.208659
_symmetry_space_group_name_H-M "I B A 2"
_symmetry_group_IT_number 45
_symmetry_cell_setting 'orthorhombic'
loop_
_space_group_symop_operation_xyz
x,y,z
-x,-y,z
-x,y,1/2+z
x,-y,1/2+z
1/2+x,1/2+y,1/2+z
1/2-x,1/2-y,1/2+z
1/2-x,1/2+y,z
1/2+x,1/2-y,z
loop_
_atom_site_type_symbol
_atom_site_label
_atom_site_fract_x
_atom_site_fract_y
_atom_site_fract_z
Si Si1 0.222080 0.506847 0.312670
Si Si2 0.913417 0.666713 0.596384
Si Si3 0.187150 0.270387 0.954217
Si Si4 0.701243 0.303167 0.709746
Si Si5 0.145840 0.358073 0.133791
Si Si6 0.544757 0.375204 0.123806
Si Si7 0.418372 0.519226 0.942263
Si Si8 0.842543 0.704593 0.429452
O O1 0.166379 0.374859 0.340656
O O2 0.294176 0.423873 0.283197
O O3 0.207271 0.639208 0.248726
O O4 0.214832 0.601845 0.395023
O O5 0.860511 0.784228 0.642687
O O6 0.899503 0.509271 0.641208
O O7 0.893674 0.643281 0.501145
O O8 0.990845 0.741230 0.600334
O O9 0.124586 0.167269 0.918143
O O10 0.262693 0.188162 0.968402
O O11 0.156091 0.330753 0.037804
O O12 0.774368 0.356526 0.667367
O O13 0.107809 0.210416 0.168203
O O14 0.500000 0.500000 0.170915
O O15 0.573182 0.456191 0.041296
O O16 0.500000 0.500000 0.912097
O O17 0.372022 0.373097 0.922998
#
# Coordination Sequence:
#
# PCOD9377039 Si02
#       8
#     8   8   8   8   8   8   8   8
#     4  12  26  42  64 104 148 186 225 308 365 435
#     4  12  23  42  71 105 142 186 247 298 367 441
#     4  11  23  39  72 105 138 183 244 303 364 423
#     4  12  27  43  69 104 142 188 238 298 374 434
#     4  11  24  41  70 103 137 186 245 300 359 434
#     4  10  22  41  68 105 143 180 236 317 363 424
#     4  10  22  42  71 109 143 186 236 309 372 430
#     4  12  22  40  71 106 141 185 244 305 357 435
#
# _framework density 23.287897000000001
#
# number of rings (size 3 to 8) (size 9 to 14) (size 15 to 20)
#    0.000    0.750    7.500    1.125    1.750    0.000 
#    0.000    0.625    5.500    0.000    0.000    0.000 
#    0.000    0.000    0.000    0.000    0.000    0.000 
#
# Total GULP energy -178301.923442 kJ/mol
# GULP energy per Si atom -5571.935108 kJ/mol
# Density = 2.323489 g / cm^3
# Si number density = 23.287897 Si / 1000 Ang^3
#
#
#
# Elastic Constant Matrix: (Units=GPa)
#
#
# Indices 1 2 3 4 5 6 
#
# 1 87.4327 32.0477 3.8465 0.0000 0.0000 0.0000
# 2 32.0477 117.5878 27.1475 0.0000 0.0000 0.0000
# 3 3.8465 27.1475 57.7979 0.0000 0.0000 0.0000
# 4 0.0000 0.0000 0.0000 42.2472 0.0000 0.0000
# 5 0.0000 0.0000 0.0000 0.0000 6.6062 0.0000
# 6 0.0000 0.0000 0.0000 0.0000 0.0000 63.3476
#
#
#
# Elastic Compliance Matrix: (Units=1/GPa)
#
#
# Indices 1 2 3 4 5 6 
#
# 1 0.012746 -0.003677 0.000879 0.000000 0.000000 0.000000
# 2 -0.003677 0.010599 -0.004734 0.000000 0.000000 0.000000
# 3 0.000879 -0.004734 0.019467 0.000000 0.000000 0.000000
# 4 0.000000 0.000000 0.000000 0.023670 0.000000 0.000000
# 5 0.000000 0.000000 0.000000 0.000000 0.151374 0.000000
# 6 0.000000 0.000000 0.000000 0.000000 0.000000 0.015786
#
#
# Mechanical properties :
#
#
# Convention : Reuss Voigt Hill
#
# Bulk Modulus (GPa) = 36.03786 43.21131 39.62458
# Shear Modulus (GPa) = 19.38320 35.75865 27.57093
#
# Velocity S-wave (km/s) = 2.88814 3.92280 3.44454
# Velocity P-wave (km/s) = 5.16046 6.25407 5.73340
#
# Compressibility (1/GPa) = 0.02774860
#
# Stress axis : x y z
#
# Youngs Moduli (GPa) = 78.45339 94.34628 51.36999
#
# Poissons Ratio (x) = 0.34689 -0.04514
# Poissons Ratio (y) = 0.28846 0.24317
# Poissons Ratio (z) = -0.06894 0.44661
#
# Static dielectric constant tensor:
#      x y z
#    x 1.882220 0.000000 0.000000 
#    y 0.000000 1.998780 0.000000 
#    z 0.000000 0.000000 1.985920 
# 
# From -- ./inp_files/8452.got.cif
#   From: 2010.05.17/outbox.cif.g08.bks.cpg/sg45_5_cif.got.tgz:8452.got - 2010.06.03 19:51:22.
