data_PCOD9377086
_publ_section_title
;
Structure prediction by ZEFSAII (Michael W. Deem and Ramdas Pophale) SiO2 
 PCOD9377086
Probable space group: I B A 2
;
_chemical_formula_sum "Si O2"
_cell_formula_units_Z 48
_cell_length_a 5.285608
_cell_length_b 26.823389
_cell_length_c 13.768097
_cell_angle_alpha 90.000000
_cell_angle_beta 90.000000
_cell_angle_gamma 90.000000
_cell_volume 1952.012148
_symmetry_space_group_name_H-M "I B A 2"
_symmetry_group_IT_number 45
_symmetry_cell_setting 'orthorhombic'
loop_
_space_group_symop_operation_xyz
x,y,z
-x,-y,z
-x,y,1/2+z
x,-y,1/2+z
1/2+x,1/2+y,1/2+z
1/2-x,1/2-y,1/2+z
1/2-x,1/2+y,z
1/2+x,1/2-y,z
loop_
_atom_site_type_symbol
_atom_site_label
_atom_site_fract_x
_atom_site_fract_y
_atom_site_fract_z
Si Si1 0.211131 0.147945 0.123980
Si Si2 0.249293 0.970762 0.844709
Si Si3 0.854969 0.140442 0.854572
Si Si4 0.204289 0.773501 0.374964
Si Si5 0.251108 0.968402 0.609861
Si Si6 0.300115 0.195661 0.534557
O O1 0.196795 0.145157 0.240765
O O2 0.235825 0.090612 0.083394
O O3 0.463641 0.178683 0.098199
O O4 0.951095 0.173723 0.086504
O O5 0.192803 0.916062 0.882440
O O6 0.261517 0.967162 0.727581
O O7 0.500000 0.000000 0.874666
O O8 0.000000 0.000000 0.870186
O O9 0.124113 0.168771 0.871709
O O10 0.676460 0.168268 0.930495
O O11 0.958799 0.746690 0.326949
O O12 0.222178 0.750977 0.485641
O O13 0.500000 0.000000 0.580454
O O14 0.000000 0.000000 0.584622
#
# Coordination Sequence:
#
# PCOD9377086 Si02
#       6
#     8   8   8   8   8   8
#     4  11  24  42  70 100 135 190 234 284 365 432
#     4   9  19  35  61  97 133 176 227 282 345 420
#     4  10  24  46  72  98 142 188 232 290 363 429
#     4  10  22  43  66  91 130 175 221 287 350 402
#     4   9  17  34  59  91 133 176 227 286 343 415
#     4  11  24  44  66 101 140 173 237 303 346 418
#
# _framework density 24.590012999999999
#
# number of rings (size 3 to 8) (size 9 to 14) (size 15 to 20)
#    0.000    2.000    0.000    3.000    0.000   12.000 
#    0.000   25.000    0.000    0.000    0.000    0.000 
#    0.000    0.000    0.000    0.000    0.000    0.000 
#
# Total GULP energy -133900.339346 kJ/mol
# GULP energy per Si atom -5579.180806 kJ/mol
# Density = 2.453404 g / cm^3
# Si number density = 24.590013 Si / 1000 Ang^3
#
#
#
# Elastic Constant Matrix: (Units=GPa)
#
#
# Indices 1 2 3 4 5 6 
#
# 1 155.7828 22.7658 14.3147 0.0000 0.0000 0.0000
# 2 22.7658 142.8578 30.7875 0.0001 0.0000 0.0000
# 3 14.3147 30.7875 96.7858 -0.0006 0.0000 0.0000
# 4 0.0000 0.0001 -0.0006 -222.1550 0.0000 0.0000
# 5 0.0000 0.0000 0.0000 0.0000 10.2387 0.0000
# 6 0.0000 0.0000 0.0000 0.0000 0.0000 23.2646
#
#
#
# Elastic Compliance Matrix: (Units=1/GPa)
#
#
# Indices 1 2 3 4 5 6 
#
# 1 0.006615 -0.000905 -0.000690 0.000000 0.000000 0.000000
# 2 -0.000905 0.007639 -0.002296 0.000000 0.000000 0.000000
# 3 -0.000690 -0.002296 0.011165 0.000000 0.000000 0.000000
# 4 0.000000 0.000000 0.000000 -0.004501 0.000000 0.000000
# 5 0.000000 0.000000 0.000000 0.000000 0.097668 0.000000
# 6 0.000000 0.000000 0.000000 0.000000 0.000000 0.042984
#
#
# Mechanical properties :
#
#
# Convention : Reuss Voigt Hill
#
# Bulk Modulus (GPa) = 56.70547 59.01802 57.86175
# Shear Modulus (GPa) = 28.53372 -15.89311 6.32031
#
# Velocity S-wave (km/s) = 3.41013 -2.54505 1.60495
# Velocity P-wave (km/s) = 6.21416 3.92639 5.19771
#
# Compressibility (1/GPa) = 0.01763498
#
# Stress axis : x y z
#
# Youngs Moduli (GPa) = 151.17293 130.90581 89.56894
#
# Poissons Ratio (x) = 0.11852 0.06183
# Poissons Ratio (y) = 0.13687 0.20566
# Poissons Ratio (z) = 0.10436 0.30057
#
# Static dielectric constant tensor:
#      x y z
#    x 2.071910 0.000000 0.000000 
#    y 0.000000 2.222410 0.000000 
#    z 0.000000 0.000000 1.965100 
# 
# From -- ./inp_files/5226.got.cif
#   From: 2010.05.17/outbox.cif.g08.bks.cpg/sg45_3_cif.got.tgz:5226.got - 2010.06.03 19:51:22.
