data_PCOD9377411
_publ_section_title
;
Structure prediction by ZEFSAII (Michael W. Deem and Ramdas Pophale) SiO2 
 PCOD9377411
Probable space group: I B A 2
;
_chemical_formula_sum "Si O2"
_cell_formula_units_Z 40
_cell_length_a 11.524039
_cell_length_b 18.463828
_cell_length_c 7.497260
_cell_angle_alpha 90.000000
_cell_angle_beta 90.000000
_cell_angle_gamma 90.000000
_cell_volume 1595.251043
_symmetry_space_group_name_H-M "I B A 2"
_symmetry_group_IT_number 45
_symmetry_cell_setting 'orthorhombic'
loop_
_space_group_symop_operation_xyz
x,y,z
-x,-y,z
-x,y,1/2+z
x,-y,1/2+z
1/2+x,1/2+y,1/2+z
1/2-x,1/2-y,1/2+z
1/2-x,1/2+y,z
1/2+x,1/2-y,z
loop_
_atom_site_type_symbol
_atom_site_label
_atom_site_fract_x
_atom_site_fract_y
_atom_site_fract_z
Si Si1 0.068303 0.900453 0.566000
Si Si2 0.838863 0.957647 0.437471
Si Si3 0.187214 0.768711 0.659078
Si Si4 0.642242 0.882519 0.608028
Si Si5 0.392695 0.830563 0.471177
O O1 0.130531 0.920890 0.751034
O O2 0.098490 0.816800 0.542234
O O3 0.933055 0.918465 0.565955
O O4 0.124292 0.958802 0.434066
O O5 0.709703 0.944851 0.506223
O O6 0.213979 0.691054 0.572130
O O7 0.306194 0.813925 0.635325
O O8 0.122381 0.740270 0.838940
O O9 0.514350 0.858889 0.545195
O O10 0.643011 0.890422 0.822268
#
# Coordination Sequence:
#
# PCOD9377411 Si02
#       5
#     8   8   8   8   8
#     4  11  25  41  73  97 141 184 247 290 373 425
#     4  11  25  45  68 105 139 187 241 309 356 446
#     4  10  25  39  72  98 141 184 239 292 363 434
#     4  10  26  42  71 103 148 180 242 299 371 428
#     4  10  25  41  69 102 144 184 237 291 370 430
#
# _framework density 25.074422999999999
#
# number of rings (size 3 to 8) (size 9 to 14) (size 15 to 20)
#    1.200    0.400    0.000    3.600   16.800    0.000 
#    0.000    1.000    0.000    0.000    0.000    0.000 
#    0.000    0.000    0.000    0.000    0.000    0.000 
#
# Total GULP energy -111453.015062 kJ/mol
# GULP energy per Si atom -5572.650753 kJ/mol
# Density = 2.501735 g / cm^3
# Si number density = 25.074423 Si / 1000 Ang^3
#
#
#
# Elastic Constant Matrix: (Units=GPa)
#
#
# Indices 1 2 3 4 5 6 
#
# 1 154.6192 23.5523 43.2687 0.0000 0.0000 -0.0007
# 2 23.5523 76.7862 21.4795 0.0000 0.0000 -0.0001
# 3 43.2687 21.4795 60.3864 0.0001 -0.0004 0.0026
# 4 0.0000 0.0000 0.0001 25.9763 -0.0001 0.0004
# 5 0.0000 0.0000 -0.0004 -0.0001 38.7719 -0.0009
# 6 -0.0007 -0.0001 0.0026 0.0004 -0.0009 17.8790
#
#
#
# Elastic Compliance Matrix: (Units=1/GPa)
#
#
# Indices 1 2 3 4 5 6 
#
# 1 0.008153 -0.000962 -0.005500 0.000000 0.000000 0.000001
# 2 -0.000962 0.014576 -0.004495 0.000000 0.000000 0.000001
# 3 -0.005500 -0.004495 0.022100 0.000000 0.000000 -0.000003
# 4 0.000000 0.000000 0.000000 0.038497 0.000000 -0.000001
# 5 0.000000 0.000000 0.000000 0.000000 0.025792 0.000001
# 6 0.000001 0.000001 -0.000003 -0.000001 0.000001 0.055932
#
#
# Mechanical properties :
#
#
# Convention : Reuss Voigt Hill
#
# Bulk Modulus (GPa) = 43.64074 52.04361 47.84218
# Shear Modulus (GPa) = 25.69364 30.09154 27.89259
#
# Velocity S-wave (km/s) = 3.20456 3.46799 3.33887
# Velocity P-wave (km/s) = 5.57983 6.06932 5.82972
#
# Compressibility (1/GPa) = 0.02291437
#
# Stress axis : x y z
#
# Youngs Moduli (GPa) = 122.65248 68.60707 45.24969
#
# Poissons Ratio (x) = 0.06602 0.24886
# Poissons Ratio (y) = 0.11803 0.20340
# Poissons Ratio (z) = 0.67455 0.30839
#
# Static dielectric constant tensor:
#      x y z
#    x 1.980540 0.000000 0.000000 
#    y 0.000000 2.016030 0.000000 
#    z 0.000000 0.000000 2.056120 
# 
# From -- ./inp_files/1320.got.cif
#   From: 2010.05.17/outbox.cif.g08.bks.cpg/sg45_1_cif.got.tgz:1320.got - 2010.06.03 19:51:22.
