data_PCOD9377754
_publ_section_title
;
Structure prediction by ZEFSAII (Michael W. Deem and Ramdas Pophale) SiO2 
 PCOD9377754
Probable space group: I M A 2
;
_chemical_formula_sum "Si O2"
_cell_formula_units_Z 44
_cell_length_a 13.466957
_cell_length_b 16.016469
_cell_length_c 9.074320
_cell_angle_alpha 90.000000
_cell_angle_beta 90.000000
_cell_angle_gamma 90.000000
_cell_volume 1957.268205
_symmetry_space_group_name_H-M "I M A 2"
_symmetry_group_IT_number 46
_symmetry_cell_setting 'orthorhombic'
loop_
_space_group_symop_operation_xyz
x,y,z
-x,-y,z
1/2-x,y,z
1/2+x,-y,z
1/2+x,1/2+y,1/2+z
1/2-x,1/2-y,1/2+z
-x,1/2+y,1/2+z
x,1/2-y,1/2+z
loop_
_atom_site_type_symbol
_atom_site_label
_atom_site_fract_x
_atom_site_fract_y
_atom_site_fract_z
Si Si1 0.359060 0.919880 0.988400
Si Si2 0.999299 0.200681 0.332461
Si Si3 0.365174 0.137231 0.818385
Si Si4 0.364337 0.426224 0.659153
Si Si5 0.637253 0.230402 0.584790
Si Si6 0.500000 0.000000 0.758192
O O1 0.250000 0.947898 0.940264
O O2 0.356730 0.822878 0.016183
O O3 0.433938 0.940543 0.860838
O O4 0.381177 0.974548 0.134605
O O5 0.081865 0.273511 0.330787
O O6 0.056020 0.123358 0.255990
O O7 0.943655 0.181285 0.486547
O O8 0.911298 0.243888 0.238519
O O9 0.250000 0.145912 0.777579
O O10 0.419160 0.069892 0.708927
O O11 0.371079 0.104637 0.988561
O O12 0.250000 0.412914 0.709286
O O13 0.750000 0.195817 0.592972
#
# Coordination Sequence:
#
# PCOD9377754 Si02
#       6
#     8   8   8   8   8   4
#     4   9  17  32  54  84 113 149 200 245 286 347
#     4  12  20  38  55  88 123 158 197 252 318 358
#     4  10  20  33  54  85 118 152 195 242 299 365
#     4   9  18  33  58  89 118 152 196 248 301 357
#     4  11  23  37  58  87 120 158 204 254 307 368
#     4  10  14  30  50  80 110 148 188 240 296 336
#
# _framework density 22.480312999999999
#
# number of rings (size 3 to 8) (size 9 to 14) (size 15 to 20)
#    0.000    1.818    3.636    3.818    0.000    0.000 
#    0.000    0.000    0.000    2.182    0.000    2.545 
#    0.000    0.000    0.000    0.000    0.000    0.000 
#
# Total GULP energy -122601.448601 kJ/mol
# GULP energy per Si atom -5572.793118 kJ/mol
# Density = 2.242915 g / cm^3
# Si number density = 22.480313 Si / 1000 Ang^3
#
#
#
# Elastic Constant Matrix: (Units=GPa)
#
#
# Indices 1 2 3 4 5 6 
#
# 1 145.4692 33.0928 6.2934 0.0000 0.0000 0.0000
# 2 33.0928 30.3070 -8.1565 0.0000 0.0000 0.0000
# 3 6.2934 -8.1565 30.5539 0.0000 0.0000 0.0000
# 4 0.0000 0.0000 0.0000 17.5978 0.0000 0.0000
# 5 0.0000 0.0000 0.0000 0.0000 -9.6988 0.0000
# 6 0.0000 0.0000 0.0000 0.0000 0.0000 38.8743
#
#
#
# Elastic Compliance Matrix: (Units=1/GPa)
#
#
# Indices 1 2 3 4 5 6 
#
# 1 0.009883 -0.012217 -0.005297 0.000000 0.000000 0.000000
# 2 -0.012217 0.050651 0.016038 0.000000 0.000000 0.000000
# 3 -0.005297 0.016038 0.038101 0.000000 0.000000 0.000000
# 4 0.000000 0.000000 0.000000 0.056825 0.000000 0.000000
# 5 0.000000 0.000000 0.000000 0.000000 -0.103105 0.000000
# 6 0.000000 0.000000 0.000000 0.000000 0.000000 0.025724
#
#
# Mechanical properties :
#
#
# Convention : Reuss Voigt Hill
#
# Bulk Modulus (GPa) = 10.45102 29.86549 20.15825
# Shear Modulus (GPa) = 44.27714 21.02802 32.65258
#
# Velocity S-wave (km/s) = 4.44283 3.06174 3.81530
# Velocity P-wave (km/s) = 5.56573 5.08065 5.32871
#
# Compressibility (1/GPa) = 0.09568446
#
# Stress axis : x y z
#
# Youngs Moduli (GPa) = 101.18808 19.74280 26.24576
#
# Poissons Ratio (x) = 0.24119 0.13902
# Poissons Ratio (y) = 1.23616 -0.42093
# Poissons Ratio (z) = 0.53597 -0.31663
#
# Static dielectric constant tensor:
#      x y z
#    x 2.090790 0.000000 0.000000 
#    y 0.000000 1.890700 0.000000 
#    z 0.000000 0.000000 1.861840 
# 
# From -- ./inp_files/5643.got.cif
#   From: 2010.05.17/outbox.cif.g08.bks.cpg/sg46_3_cif.got.tgz:5643.got - 2010.06.03 19:58:25.
