data_PCOD9377280
_publ_section_title
;
Structure prediction by ZEFSAII (Michael W. Deem and Ramdas Pophale) SiO2 
 PCOD9377280
Probable space group: I B A 2
;
_chemical_formula_sum "Si O2"
_cell_formula_units_Z 64
_cell_length_a 29.160987
_cell_length_b 8.709429
_cell_length_c 11.902839
_cell_angle_alpha 90.000000
_cell_angle_beta 90.000000
_cell_angle_gamma 90.000000
_cell_volume 3023.030032
_symmetry_space_group_name_H-M "I B A 2"
_symmetry_group_IT_number 45
_symmetry_cell_setting 'orthorhombic'
loop_
_space_group_symop_operation_xyz
x,y,z
-x,-y,z
-x,y,1/2+z
x,-y,1/2+z
1/2+x,1/2+y,1/2+z
1/2-x,1/2-y,1/2+z
1/2-x,1/2+y,z
1/2+x,1/2-y,z
loop_
_atom_site_type_symbol
_atom_site_label
_atom_site_fract_x
_atom_site_fract_y
_atom_site_fract_z
Si Si1 0.251122 0.028938 0.242350
Si Si2 0.691874 0.781371 0.622355
Si Si3 0.083457 0.678336 0.007379
Si Si4 0.011108 0.821418 0.421263
Si Si5 0.043523 0.384990 0.107599
Si Si6 0.188829 0.787163 0.360792
Si Si7 0.905627 0.743577 0.760655
Si Si8 0.389149 0.881062 0.282498
O O1 0.273907 0.921968 0.147837
O O2 0.225150 0.921449 0.332294
O O3 0.214515 0.135541 0.181535
O O4 0.289598 0.136970 0.299263
O O5 0.684384 0.749396 0.491990
O O6 0.647210 0.825027 0.692810
O O7 0.119574 0.684920 0.906297
O O8 0.036487 0.733047 0.948145
O O9 0.077905 0.500439 0.043064
O O10 0.091584 0.762746 0.125431
O O11 0.037880 0.764016 0.532078
O O12 0.045399 0.779561 0.318627
O O13 0.000000 0.000000 0.416547
O O14 0.062280 0.335773 0.227214
O O15 0.000000 0.500000 0.121454
O O16 0.138646 0.828793 0.311185
O O17 0.893938 0.565103 0.785850
#
# Coordination Sequence:
#
# PCOD9377280 Si02
#       8
#     8   8   8   8   8   8   8   8
#     4  10  24  44  68 107 138 181 229 285 357 420
#     4  11  23  43  71 101 132 186 225 285 350 414
#     4  10  24  41  65  94 132 175 226 290 326 402
#     4  11  24  43  65  92 133 176 224 279 349 403
#     4   9  20  38  65  92 123 168 222 270 325 394
#     4  11  23  46  72 102 146 180 234 289 349 421
#     4  11  24  43  67 101 133 183 232 281 336 413
#     4  11  22  39  68  98 128 171 234 274 332 404
#
# _framework density 21.170812000000002
#
# number of rings (size 3 to 8) (size 9 to 14) (size 15 to 20)
#    0.000    1.500    2.500    1.500    7.000    1.500 
#   15.750    0.000    0.000    0.000    0.000    0.000 
#    0.000    0.000    0.000    0.000    0.000    0.000 
#
# Total GULP energy -178549.802981 kJ/mol
# GULP energy per Si atom -5579.681343 kJ/mol
# Density = 2.112263 g / cm^3
# Si number density = 21.170812 Si / 1000 Ang^3
#
#
#
# Elastic Constant Matrix: (Units=GPa)
#
#
# Indices 1 2 3 4 5 6 
#
# 1 87.9040 34.8607 55.9401 0.0000 0.0000 0.0000
# 2 34.8607 74.2479 53.1221 0.0000 0.0000 0.0000
# 3 55.9401 53.1221 152.9588 0.0000 0.0000 0.0000
# 4 0.0000 0.0000 0.0000 6.4267 0.0000 0.0000
# 5 0.0000 0.0000 0.0000 0.0000 36.9835 0.0000
# 6 0.0000 0.0000 0.0000 0.0000 0.0000 79.3644
#
#
#
# Elastic Compliance Matrix: (Units=1/GPa)
#
#
# Indices 1 2 3 4 5 6 
#
# 1 0.015829 -0.004378 -0.004268 0.000000 0.000000 0.000000
# 2 -0.004378 0.019132 -0.005044 0.000000 0.000000 0.000000
# 3 -0.004268 -0.005044 0.009850 0.000000 0.000000 0.000000
# 4 0.000000 0.000000 0.000000 0.155600 0.000000 0.000000
# 5 0.000000 0.000000 0.000000 0.000000 0.027039 0.000000
# 6 0.000000 0.000000 0.000000 0.000000 0.000000 0.012600
#
#
# Mechanical properties :
#
#
# Convention : Reuss Voigt Hill
#
# Bulk Modulus (GPa) = 57.36693 66.99518 62.18105
# Shear Modulus (GPa) = 18.29890 35.96745 27.13317
#
# Velocity S-wave (km/s) = 2.94316 4.12626 3.58387
# Velocity P-wave (km/s) = 6.22138 7.37666 6.82352
#
# Compressibility (1/GPa) = 0.01743165
#
# Stress axis : x y z
#
# Youngs Moduli (GPa) = 63.17710 52.26743 101.51931
#
# Poissons Ratio (x) = 0.22882 0.43332
# Poissons Ratio (y) = 0.27658 0.51202
# Poissons Ratio (z) = 0.26966 0.26361
#
# Static dielectric constant tensor:
#      x y z
#    x 1.848720 0.000000 0.000000 
#    y 0.000000 1.754900 0.000000 
#    z 0.000000 0.000000 1.773150 
# 
# From -- ./inp_files/4963.got.cif
#   From: 2010.05.17/outbox.cif.g08.bks.cpg/sg45_3_cif.got.tgz:4963.got - 2010.06.03 19:51:22.
