data_PCOD9377645
_publ_section_title
;
Structure prediction by ZEFSAII (Michael W. Deem and Ramdas Pophale) SiO2 
 PCOD9377645
Probable space group: I B A 2
;
_chemical_formula_sum "Si O2"
_cell_formula_units_Z 28
_cell_length_a 10.804119
_cell_length_b 4.642744
_cell_length_c 21.474815
_cell_angle_alpha 90.000000
_cell_angle_beta 90.000000
_cell_angle_gamma 90.000000
_cell_volume 1077.193013
_symmetry_space_group_name_H-M "I B A 2"
_symmetry_group_IT_number 45
_symmetry_cell_setting 'orthorhombic'
loop_
_space_group_symop_operation_xyz
x,y,z
-x,-y,z
-x,y,1/2+z
x,-y,1/2+z
1/2+x,1/2+y,1/2+z
1/2-x,1/2-y,1/2+z
1/2-x,1/2+y,z
1/2+x,1/2-y,z
loop_
_atom_site_type_symbol
_atom_site_label
_atom_site_fract_x
_atom_site_fract_y
_atom_site_fract_z
Si Si1 0.500000 0.500000 0.992700
Si Si2 0.167961 0.220686 0.803885
Si Si3 0.334969 0.188834 0.594029
Si Si4 0.500000 0.000000 0.907870
Si Si5 0.500000 0.000000 0.700409
O O1 0.560816 0.748120 0.949780
O O2 0.590735 0.314201 0.036043
O O3 0.299816 0.385751 0.803011
O O4 0.096057 0.329238 0.864518
O O5 0.090041 0.316584 0.744398
O O6 0.205331 0.356800 0.593745
O O7 0.417901 0.203304 0.655601
#
# Coordination Sequence:
#
# PCOD9377645 Si02
#       5
#     4   8   8   4   4
#     4  12  26  46  68 102 142 184 236 292 342 418
#     4  11  25  44  71 102 136 182 231 289 354 415
#     4  12  26  44  70 101 139 187 231 284 350 413
#     4  11  25  44  70 100 139 181 234 292 348 415
#     4  11  25  46  70 104 143 179 234 294 350 423
#
# _framework density 25.993483000000001
#
# number of rings (size 3 to 8) (size 9 to 14) (size 15 to 20)
#    0.000    0.571    0.000    7.714    0.000   14.857 
#    0.000    0.000    0.000    0.000    0.000    0.000 
#    0.000    0.000    0.000    0.000    0.000    0.000 
#
# Total GULP energy -78558.150979 kJ/mol
# GULP energy per Si atom -5611.296498 kJ/mol
# Density = 2.593432 g / cm^3
# Si number density = 25.993483 Si / 1000 Ang^3
#
#
#
# Elastic Constant Matrix: (Units=GPa)
#
#
# Indices 1 2 3 4 5 6 
#
# 1 74.5689 10.0097 40.2303 0.0000 0.0000 0.0000
# 2 10.0097 108.3236 40.8677 0.0000 0.0000 0.0000
# 3 40.2303 40.8677 152.7401 0.0000 0.0000 0.0000
# 4 0.0000 0.0000 0.0000 41.8082 0.0000 0.0000
# 5 0.0000 0.0000 0.0000 0.0000 1.3648 0.0000
# 6 0.0000 0.0000 0.0000 0.0000 0.0000 56.6637
#
#
#
# Elastic Compliance Matrix: (Units=1/GPa)
#
#
# Indices 1 2 3 4 5 6 
#
# 1 0.015633 0.000121 -0.004150 0.000000 0.000000 0.000000
# 2 0.000121 0.010269 -0.002780 0.000000 0.000000 0.000000
# 3 -0.004150 -0.002780 0.008384 0.000000 0.000000 0.000000
# 4 0.000000 0.000000 0.000000 0.023919 0.000000 0.000000
# 5 0.000000 0.000000 0.000000 0.000000 0.732709 0.000000
# 6 0.000000 0.000000 0.000000 0.000000 0.000000 0.017648
#
#
# Mechanical properties :
#
#
# Convention : Reuss Voigt Hill
#
# Bulk Modulus (GPa) = 48.38129 57.53866 52.95997
# Shear Modulus (GPa) = 6.03087 36.26899 21.14993
#
# Velocity S-wave (km/s) = 1.52485 3.73944 2.85557
# Velocity P-wave (km/s) = 4.66407 6.38971 5.59383
#
# Compressibility (1/GPa) = 0.02066915
#
# Stress axis : x y z
#
# Youngs Moduli (GPa) = 63.96676 97.37996 119.27699
#
# Poissons Ratio (x) = -0.01179 0.49500
# Poissons Ratio (y) = -0.00775 0.33153
# Poissons Ratio (z) = 0.26546 0.27067
#
# Static dielectric constant tensor:
#      x y z
#    x 2.019840 0.000000 0.000000 
#    y 0.000000 1.971330 0.000000 
#    z 0.000000 0.000000 2.023870 
# 
# From -- ./inp_files/8580.got.cif
#   From: 2010.05.17/outbox.cif.g08.bks.cpg/sg45_5_cif.got.tgz:8580.got - 2010.06.03 19:51:22.
