data_PCOD9377055
_publ_section_title
;
Structure prediction by ZEFSAII (Michael W. Deem and Ramdas Pophale) SiO2 
 PCOD9377055
Probable space group: I B A 2
;
_chemical_formula_sum "Si O2"
_cell_formula_units_Z 60
_cell_length_a 18.344445
_cell_length_b 11.652006
_cell_length_c 12.173622
_cell_angle_alpha 90.000000
_cell_angle_beta 90.000000
_cell_angle_gamma 90.000000
_cell_volume 2602.106629
_symmetry_space_group_name_H-M "I B A 2"
_symmetry_group_IT_number 45
_symmetry_cell_setting 'orthorhombic'
loop_
_space_group_symop_operation_xyz
x,y,z
-x,-y,z
-x,y,1/2+z
x,-y,1/2+z
1/2+x,1/2+y,1/2+z
1/2-x,1/2-y,1/2+z
1/2-x,1/2+y,z
1/2+x,1/2-y,z
loop_
_atom_site_type_symbol
_atom_site_label
_atom_site_fract_x
_atom_site_fract_y
_atom_site_fract_z
Si Si1 0.819183 0.298800 0.762040
Si Si2 0.985768 0.797253 0.975885
Si Si3 0.136930 0.633656 0.526353
Si Si4 0.614618 0.887401 0.976749
Si Si5 0.668114 0.715794 0.137749
Si Si6 0.699722 0.586770 0.925216
Si Si7 0.000000 0.000000 0.644854
Si Si8 0.403404 0.587778 0.810901
O O1 0.866620 0.330298 0.655099
O O2 0.841664 0.381686 0.862063
O O3 0.741941 0.310923 0.701984
O O4 0.815356 0.177144 0.826544
O O5 0.977263 0.881274 0.873984
O O6 0.046928 0.700040 0.969263
O O7 0.906378 0.737913 0.973145
O O8 0.997404 0.883299 0.075697
O O9 0.094404 0.515575 0.507025
O O10 0.216173 0.606620 0.468734
O O11 0.664920 0.837121 0.075619
O O12 0.613354 0.699792 0.237153
O O13 0.658677 0.627781 0.036014
O O14 0.662064 0.468184 0.883476
O O15 0.926765 0.001059 0.716980
#
# Coordination Sequence:
#
# PCOD9377055 Si02
#       8
#     8   8   8   8   8   8   4   8
#     4  10  23  42  72  98 144 190 241 302 371 437
#     4  12  27  45  70 110 145 193 252 301 377 454
#     4  11  25  46  72 104 150 193 239 311 370 452
#     4  11  25  46  68 104 148 190 251 304 366 464
#     4  10  22  42  65 102 140 188 243 304 365 438
#     4  10  23  43  71 109 141 185 249 310 369 446
#     4  12  26  44  72 108 144 196 244 308 372 448
#     4  12  24  40  74  99 142 190 240 310 368 434
#
# _framework density 23.058240000000001
#
# number of rings (size 3 to 8) (size 9 to 14) (size 15 to 20)
#    0.000    1.067    1.333    4.000    7.467    6.400 
#    0.000    1.333    0.000    0.000    0.000    0.000 
#    0.000    0.000    0.000    0.000    0.000    0.000 
#
# Total GULP energy -167124.693472 kJ/mol
# GULP energy per Si atom -5570.823116 kJ/mol
# Density = 2.300576 g / cm^3
# Si number density = 23.058240 Si / 1000 Ang^3
#
#
#
# Elastic Constant Matrix: (Units=GPa)
#
#
# Indices 1 2 3 4 5 6 
#
# 1 63.6947 19.6508 26.2953 0.0000 0.0000 0.0000
# 2 19.6508 97.6834 46.5673 0.0000 0.0000 0.0000
# 3 26.2953 46.5673 145.3103 0.0000 0.0000 0.0000
# 4 0.0000 0.0000 0.0000 45.2374 0.0000 0.0000
# 5 0.0000 0.0000 0.0000 0.0000 23.7763 0.0000
# 6 0.0000 0.0000 0.0000 0.0000 0.0000 29.4306
#
#
#
# Elastic Compliance Matrix: (Units=1/GPa)
#
#
# Indices 1 2 3 4 5 6 
#
# 1 0.017417 -0.002362 -0.002395 0.000000 0.000000 0.000000
# 2 -0.002362 0.012403 -0.003547 0.000000 0.000000 0.000000
# 3 -0.002395 -0.003547 0.008452 0.000000 0.000000 0.000000
# 4 0.000000 0.000000 0.000000 0.022106 0.000000 0.000000
# 5 0.000000 0.000000 0.000000 0.000000 0.042059 0.000000
# 6 0.000000 0.000000 0.000000 0.000000 0.000000 0.033978
#
#
# Mechanical properties :
#
#
# Convention : Reuss Voigt Hill
#
# Bulk Modulus (GPa) = 46.15967 54.63501 50.39734
# Shear Modulus (GPa) = 31.20211 33.96720 32.58465
#
# Velocity S-wave (km/s) = 3.68256 3.84227 3.76326
# Velocity P-wave (km/s) = 6.17607 6.59013 6.38646
#
# Compressibility (1/GPa) = 0.02166393
#
# Stress axis : x y z
#
# Youngs Moduli (GPa) = 57.41410 80.62252 118.31461
#
# Poissons Ratio (x) = 0.19044 0.28334
# Poissons Ratio (y) = 0.13562 0.41972
# Poissons Ratio (z) = 0.13750 0.28601
#
# Static dielectric constant tensor:
#      x y z
#    x 2.015120 0.000000 0.000000 
#    y 0.000000 1.845590 0.000000 
#    z 0.000000 0.000000 1.906030 
# 
# From -- ./inp_files/4665.got.cif
#   From: 2010.05.17/outbox.cif.g08.bks.cpg/sg45_3_cif.got.tgz:4665.got - 2010.06.03 19:51:22.
