data_PCOD9377290
_publ_section_title
;
Structure prediction by ZEFSAII (Michael W. Deem and Ramdas Pophale) SiO2 
 PCOD9377290
Probable space group: I B A 2
;
_chemical_formula_sum "Si O2"
_cell_formula_units_Z 52
_cell_length_a 23.073883
_cell_length_b 8.835053
_cell_length_c 11.452447
_cell_angle_alpha 90.000000
_cell_angle_beta 90.000000
_cell_angle_gamma 90.000000
_cell_volume 2334.684155
_symmetry_space_group_name_H-M "I B A 2"
_symmetry_group_IT_number 45
_symmetry_cell_setting 'orthorhombic'
loop_
_space_group_symop_operation_xyz
x,y,z
-x,-y,z
-x,y,1/2+z
x,-y,1/2+z
1/2+x,1/2+y,1/2+z
1/2-x,1/2-y,1/2+z
1/2-x,1/2+y,z
1/2+x,1/2-y,z
loop_
_atom_site_type_symbol
_atom_site_label
_atom_site_fract_x
_atom_site_fract_y
_atom_site_fract_z
Si Si1 0.000000 0.000000 0.052940
Si Si2 0.697280 0.991613 0.763662
Si Si3 0.274993 0.264385 0.113912
Si Si4 0.038683 0.716659 0.189226
Si Si5 0.404012 0.700486 0.927508
Si Si6 0.086693 0.591612 0.649269
Si Si7 0.708733 0.525484 0.457765
O O1 0.036508 0.880780 0.130292
O O2 0.954494 0.907630 0.976036
O O3 0.691344 0.152317 0.699076
O O4 0.738485 0.881389 0.689710
O O5 0.635018 0.914290 0.750596
O O6 0.734304 0.012790 0.880705
O O7 0.308881 0.370944 0.023530
O O8 0.231832 0.153483 0.045456
O O9 0.069950 0.721511 0.313538
O O10 0.068386 0.580254 0.117447
O O11 0.971136 0.670287 0.197434
O O12 0.347055 0.601314 0.898644
O O13 0.392518 0.819238 0.033453
#
# Coordination Sequence:
#
# PCOD9377290 Si02
#       7
#     4   8   8   8   8   8   8
#     4  10  24  46  68 106 140 182 232 286 350 410
#     4  11  23  43  70  98 141 178 231 287 343 419
#     4  10  24  42  63 100 135 180 231 277 345 414
#     4  10  24  43  73 104 136 183 240 285 344 416
#     4  11  24  47  70 102 142 183 233 287 350 423
#     4  10  24  45  72 100 140 187 231 290 346 416
#     4  11  24  43  68 103 133 187 227 283 354 418
#
# _framework density 22.272822000000001
#
# number of rings (size 3 to 8) (size 9 to 14) (size 15 to 20)
#    0.000    1.538    1.538    1.385    6.462    6.154 
#   11.077    0.000    0.000    0.000    0.000    0.000 
#    0.000    0.000    0.000    0.000    0.000    0.000 
#
# Total GULP energy -145246.561941 kJ/mol
# GULP energy per Si atom -5586.406229 kJ/mol
# Density = 2.222213 g / cm^3
# Si number density = 22.272822 Si / 1000 Ang^3
#
#
#
# Elastic Constant Matrix: (Units=GPa)
#
#
# Indices 1 2 3 4 5 6 
#
# 1 89.1260 20.8541 16.2235 0.0000 0.0000 0.0000
# 2 20.8541 121.7266 38.2793 0.0000 0.0000 0.0000
# 3 16.2235 38.2793 49.0673 0.0000 0.0000 0.0000
# 4 0.0000 0.0000 0.0000 29.9572 0.0000 0.0000
# 5 0.0000 0.0000 0.0000 0.0000 -26.7606 0.0000
# 6 0.0000 0.0000 0.0000 0.0000 0.0000 -2.2923
#
#
#
# Elastic Compliance Matrix: (Units=1/GPa)
#
#
# Indices 1 2 3 4 5 6 
#
# 1 0.012044 -0.001075 -0.003144 0.000000 0.000000 0.000000
# 2 -0.001075 0.010982 -0.008212 0.000000 0.000000 0.000000
# 3 -0.003144 -0.008212 0.027826 0.000000 0.000000 0.000000
# 4 0.000000 0.000000 0.000000 0.033381 0.000000 0.000000
# 5 0.000000 0.000000 0.000000 0.000000 -0.037368 0.000000
# 6 0.000000 0.000000 0.000000 0.000000 0.000000 -0.436251
#
#
# Mechanical properties :
#
#
# Convention : Reuss Voigt Hill
#
# Bulk Modulus (GPa) = 38.47508 45.62596 42.05052
# Shear Modulus (GPa) = -14.05035 12.48506 -0.78265
#
# Velocity S-wave (km/s) = -2.51436 2.37017 -0.59343
# Velocity P-wave (km/s) = 2.98037 5.29337 4.29549
#
# Compressibility (1/GPa) = 0.02599085
#
# Stress axis : x y z
#
# Youngs Moduli (GPa) = 83.03040 91.06112 35.93767
#
# Poissons Ratio (x) = 0.09787 0.11298
# Poissons Ratio (y) = 0.08924 0.29511
# Poissons Ratio (z) = 0.26102 0.74778
#
# Static dielectric constant tensor:
#      x y z
#    x 1.817300 0.000000 0.000000 
#    y 0.000000 1.823010 0.000000 
#    z 0.000000 0.000000 1.826350 
# 
# From -- ./inp_files/3321.got.cif
#   From: 2010.05.17/outbox.cif.g08.bks.cpg/sg45_2_cif.got.tgz:3321.got - 2010.06.03 19:51:22.
