data_PCOD9377168
_publ_section_title
;
Structure prediction by ZEFSAII (Michael W. Deem and Ramdas Pophale) SiO2 
 PCOD9377168
Probable space group: I B A 2
;
_chemical_formula_sum "Si O2"
_cell_formula_units_Z 56
_cell_length_a 15.143381
_cell_length_b 8.836935
_cell_length_c 20.439941
_cell_angle_alpha 90.000000
_cell_angle_beta 90.000000
_cell_angle_gamma 90.000000
_cell_volume 2735.294848
_symmetry_space_group_name_H-M "I B A 2"
_symmetry_group_IT_number 45
_symmetry_cell_setting 'orthorhombic'
loop_
_space_group_symop_operation_xyz
x,y,z
-x,-y,z
-x,y,1/2+z
x,-y,1/2+z
1/2+x,1/2+y,1/2+z
1/2-x,1/2-y,1/2+z
1/2-x,1/2+y,z
1/2+x,1/2-y,z
loop_
_atom_site_type_symbol
_atom_site_label
_atom_site_fract_x
_atom_site_fract_y
_atom_site_fract_z
Si Si1 0.674873 0.182471 0.272750
Si Si2 0.257868 0.546004 0.362677
Si Si3 0.565696 0.361898 0.895996
Si Si4 0.753051 0.455619 0.076222
Si Si5 0.823696 0.194345 0.165263
Si Si6 0.991295 0.183456 0.254123
Si Si7 0.169693 0.696401 0.488661
O O1 0.703732 0.331056 0.312901
O O2 0.748457 0.152926 0.218056
O O3 0.581063 0.225292 0.241759
O O4 0.681497 0.046303 0.324926
O O5 0.338368 0.433691 0.379863
O O6 0.225073 0.628562 0.427858
O O7 0.500000 0.500000 0.910643
O O8 0.534781 0.282786 0.829311
O O9 0.578246 0.248885 0.956331
O O10 0.795677 0.347475 0.129768
O O11 0.679725 0.561115 0.111191
O O12 0.824160 0.567698 0.043555
O O13 0.712508 0.344942 0.021557
O O14 0.914201 0.216944 0.203460
O O15 0.000000 0.000000 0.252486
#
# Coordination Sequence:
#
# PCOD9377168 Si02
#       7
#     8   8   8   8   8   8   8
#     4  12  22  38  70 101 129 165 208 269 345 391
#     4  12  20  38  71  97 125 165 205 270 339 394
#     4  11  21  37  66  97 128 160 211 264 332 391
#     4  10  23  40  68  87 124 183 227 254 315 376
#     4  11  22  42  65  93 130 174 220 267 313 396
#     4  11  21  39  66  98 128 163 211 266 330 399
#     4  11  21  42  67  93 123 173 223 263 311 391
#
# _framework density 20.473113000000001
#
# number of rings (size 3 to 8) (size 9 to 14) (size 15 to 20)
#    0.000    0.857    7.143    1.714    0.000    0.000 
#    0.000   10.000    3.143    0.000    0.000    0.000 
#    0.000    0.000    0.000    0.000    0.000    0.000 
#
# Total GULP energy -156457.043324 kJ/mol
# GULP energy per Si atom -5587.751547 kJ/mol
# Density = 2.042652 g / cm^3
# Si number density = 20.473113 Si / 1000 Ang^3
#
#
#
# Elastic Constant Matrix: (Units=GPa)
#
#
# Indices 1 2 3 4 5 6 
#
# 1 88.5634 13.1380 22.6999 0.0000 0.0000 0.0000
# 2 13.1380 72.2633 24.0517 0.0000 0.0000 0.0000
# 3 22.6999 24.0517 76.4225 0.0000 0.0000 0.0000
# 4 0.0000 0.0000 0.0000 31.1120 0.0000 0.0000
# 5 0.0000 0.0000 0.0000 0.0000 21.5651 0.0000
# 6 0.0000 0.0000 0.0000 0.0000 0.0000 18.5449
#
#
#
# Elastic Compliance Matrix: (Units=1/GPa)
#
#
# Indices 1 2 3 4 5 6 
#
# 1 0.012305 -0.001140 -0.003296 0.000000 0.000000 0.000000
# 2 -0.001140 0.015563 -0.004559 0.000000 0.000000 0.000000
# 3 -0.003296 -0.004559 0.015499 0.000000 0.000000 0.000000
# 4 0.000000 0.000000 0.000000 0.032142 0.000000 0.000000
# 5 0.000000 0.000000 0.000000 0.000000 0.046371 0.000000
# 6 0.000000 0.000000 0.000000 0.000000 0.000000 0.053923
#
#
# Mechanical properties :
#
#
# Convention : Reuss Voigt Hill
#
# Bulk Modulus (GPa) = 39.40707 39.66980 39.53844
# Shear Modulus (GPa) = 24.72138 26.06838 25.39488
#
# Velocity S-wave (km/s) = 3.47869 3.57220 3.52575
# Velocity P-wave (km/s) = 5.95189 6.03596 5.99407
#
# Compressibility (1/GPa) = 0.02537615
#
# Stress axis : x y z
#
# Youngs Moduli (GPa) = 81.26551 64.25465 64.51963
#
# Poissons Ratio (x) = 0.07326 0.21267
# Poissons Ratio (y) = 0.09265 0.29417
# Poissons Ratio (z) = 0.26787 0.29296
#
# Static dielectric constant tensor:
#      x y z
#    x 1.724750 0.000000 0.000000 
#    y 0.000000 1.758320 0.000000 
#    z 0.000000 0.000000 1.747780 
# 
# From -- ./inp_files/8866.got.cif
#   From: 2010.05.17/outbox.cif.g08.bks.cpg/sg45_5_cif.got.tgz:8866.got - 2010.06.03 19:51:22.
