data_PCOD9377192
_publ_section_title
;
Structure prediction by ZEFSAII (Michael W. Deem and Ramdas Pophale) SiO2 
 PCOD9377192
Probable space group: I B A 2
;
_chemical_formula_sum "Si O2"
_cell_formula_units_Z 48
_cell_length_a 5.476677
_cell_length_b 25.928784
_cell_length_c 13.814167
_cell_angle_alpha 90.000000
_cell_angle_beta 90.000000
_cell_angle_gamma 90.000000
_cell_volume 1961.661099
_symmetry_space_group_name_H-M "I B A 2"
_symmetry_group_IT_number 45
_symmetry_cell_setting 'orthorhombic'
loop_
_space_group_symop_operation_xyz
x,y,z
-x,-y,z
-x,y,1/2+z
x,-y,1/2+z
1/2+x,1/2+y,1/2+z
1/2-x,1/2-y,1/2+z
1/2-x,1/2+y,z
1/2+x,1/2-y,z
loop_
_atom_site_type_symbol
_atom_site_label
_atom_site_fract_x
_atom_site_fract_y
_atom_site_fract_z
Si Si1 0.532633 0.270021 0.520110
Si Si2 0.854749 0.553829 0.930372
Si Si3 0.377549 0.726291 0.289889
Si Si4 0.256329 0.125014 0.997314
Si Si5 0.529851 0.609889 0.797271
Si Si6 0.540960 0.555146 0.122084
O O1 0.818615 0.270301 0.554259
O O2 0.585392 0.262677 0.404887
O O3 0.368888 0.321918 0.531288
O O4 0.689700 0.544806 0.024694
O O5 0.000000 0.500000 0.919310
O O6 0.975320 0.609128 0.962697
O O7 0.725846 0.567106 0.829193
O O8 0.636846 0.746021 0.250586
O O9 0.355522 0.665366 0.275754
O O10 0.197534 0.083793 0.080674
O O11 0.119225 0.115244 0.895985
O O12 0.367066 0.592064 0.707118
O O13 0.500000 0.500000 0.167551
#
# Coordination Sequence:
#
# PCOD9377192 Si02
#       6
#     8   8   8   8   8   8
#     4   9  19  34  64  96 129 174 225 274 340 414
#     4  11  24  44  67  94 134 177 221 286 345 408
#     4   9  19  38  63  98 137 175 225 289 345 409
#     4  10  23  42  65  95 133 172 219 279 337 401
#     4  10  25  40  70  97 130 179 230 274 344 421
#     4  11  24  44  62  95 136 175 221 285 341 408
#
# _framework density 24.469059000000001
#
# number of rings (size 3 to 8) (size 9 to 14) (size 15 to 20)
#    0.000    2.000    1.667    0.000   16.333    1.333 
#    0.000    1.667    0.000    0.000    0.000    0.000 
#    0.000    0.000    0.000    0.000    0.000    0.000 
#
# Total GULP energy -133659.550370 kJ/mol
# GULP energy per Si atom -5569.147932 kJ/mol
# Density = 2.441337 g / cm^3
# Si number density = 24.469059 Si / 1000 Ang^3
#
#
#
# Elastic Constant Matrix: (Units=GPa)
#
#
# Indices 1 2 3 4 5 6 
#
# 1 104.5996 40.7392 4.8950 0.0000 0.0000 0.0000
# 2 40.7392 104.8878 22.8287 0.0000 0.0000 0.0000
# 3 4.8950 22.8287 75.6101 0.0000 0.0000 0.0000
# 4 0.0000 0.0000 0.0000 -2.4625 0.0000 0.0000
# 5 0.0000 0.0000 0.0000 0.0000 -3.0615 0.0000
# 6 0.0000 0.0000 0.0000 0.0000 0.0000 26.6301
#
#
#
# Elastic Compliance Matrix: (Units=1/GPa)
#
#
# Indices 1 2 3 4 5 6 
#
# 1 0.011293 -0.004524 0.000635 0.000000 0.000000 0.000000
# 2 -0.004524 0.012017 -0.003335 0.000000 0.000000 0.000000
# 3 0.000635 -0.003335 0.014192 0.000000 0.000000 0.000000
# 4 0.000000 0.000000 0.000000 -0.406094 0.000000 0.000000
# 5 0.000000 0.000000 0.000000 0.000000 -0.326633 0.000000
# 6 0.000000 0.000000 0.000000 0.000000 0.000000 0.037551
#
#
# Mechanical properties :
#
#
# Convention : Reuss Voigt Hill
#
# Bulk Modulus (GPa) = 43.38028 46.89146 45.13587
# Shear Modulus (GPa) = -7.86732 18.66352 5.39810
#
# Velocity S-wave (km/s) = -1.79505 2.76477 1.48690
# Velocity P-wave (km/s) = 3.67027 5.42191 4.62969
#
# Compressibility (1/GPa) = 0.02305195
#
# Stress axis : x y z
#
# Youngs Moduli (GPa) = 88.55284 83.21376 70.46375
#
# Poissons Ratio (x) = 0.37649 -0.04474
# Poissons Ratio (y) = 0.40065 0.23503
# Poissons Ratio (z) = -0.05623 0.27755
#
# Static dielectric constant tensor:
#      x y z
#    x 2.036280 0.000000 0.000000 
#    y 0.000000 2.035500 0.000000 
#    z 0.000000 0.000000 1.962990 
# 
# From -- ./inp_files/5188.got.cif
#   From: 2010.05.17/outbox.cif.g08.bks.cpg/sg45_3_cif.got.tgz:5188.got - 2010.06.03 19:51:22.
