data_PCOD9377541
_publ_section_title
;
Structure prediction by ZEFSAII (Michael W. Deem and Ramdas Pophale) SiO2 
 PCOD9377541
Probable space group: I B A 2
;
_chemical_formula_sum "Si O2"
_cell_formula_units_Z 32
_cell_length_a 28.970110
_cell_length_b 4.609665
_cell_length_c 8.450549
_cell_angle_alpha 90.000000
_cell_angle_beta 90.000000
_cell_angle_gamma 90.000000
_cell_volume 1128.507458
_symmetry_space_group_name_H-M "I B A 2"
_symmetry_group_IT_number 45
_symmetry_cell_setting 'orthorhombic'
loop_
_space_group_symop_operation_xyz
x,y,z
-x,-y,z
-x,y,1/2+z
x,-y,1/2+z
1/2+x,1/2+y,1/2+z
1/2-x,1/2-y,1/2+z
1/2-x,1/2+y,z
1/2+x,1/2-y,z
loop_
_atom_site_type_symbol
_atom_site_label
_atom_site_fract_x
_atom_site_fract_y
_atom_site_fract_z
Si Si1 0.033614 0.746788 0.101980
Si Si2 0.405313 0.145002 0.836404
Si Si3 0.663507 0.874814 0.587703
Si Si4 0.281460 0.677644 0.795474
O O1 0.064090 0.578107 0.232627
O O2 0.000000 0.500000 0.035267
O O3 0.064165 0.844735 0.951723
O O4 0.000000 0.000000 0.160993
O O5 0.367952 0.290034 0.718619
O O6 0.374401 0.975204 0.961077
O O7 0.686107 0.158330 0.670594
O O8 0.699826 0.722970 0.471801
O O9 0.232008 0.843152 0.780171
#
# Coordination Sequence:
#
# PCOD9377541 Si02
#       4
#     8   8   8   8
#     4  11  24  44  68  97 130 172 226 284 343 414
#     4   9  21  44  67  96 134 178 224 280 347 414
#     4   9  20  42  65  95 134 176 222 276 340 408
#     4  11  22  40  65  96 131 174 223 276 331 398
#
# _framework density 28.356034000000001
#
# number of rings (size 3 to 8) (size 9 to 14) (size 15 to 20)
#    0.000    2.000    0.000    2.250    0.000    4.000 
#    0.000   53.750    0.000    0.000    0.000    0.000 
#    0.000    0.000    0.000    0.000    0.000    0.000 
#
# Total GULP energy -89704.977449 kJ/mol
# GULP energy per Si atom -5606.561091 kJ/mol
# Density = 2.829149 g / cm^3
# Si number density = 28.356034 Si / 1000 Ang^3
#
#
#
# Elastic Constant Matrix: (Units=GPa)
#
#
# Indices 1 2 3 4 5 6 
#
# 1 127.7713 31.1079 66.7833 0.0000 0.0000 0.0000
# 2 31.1079 109.4330 22.9570 0.0000 0.0000 0.0000
# 3 66.7833 22.9570 183.6337 0.0000 0.0000 0.0000
# 4 0.0000 0.0000 0.0000 31.0933 0.0000 0.0000
# 5 0.0000 0.0000 0.0000 0.0000 85.1470 0.0000
# 6 0.0000 0.0000 0.0000 0.0000 0.0000 28.9686
#
#
#
# Elastic Compliance Matrix: (Units=1/GPa)
#
#
# Indices 1 2 3 4 5 6 
#
# 1 0.010140 -0.002166 -0.003417 0.000000 0.000000 0.000000
# 2 -0.002166 0.009847 -0.000443 0.000000 0.000000 0.000000
# 3 -0.003417 -0.000443 0.006744 0.000000 0.000000 0.000000
# 4 0.000000 0.000000 0.000000 0.032161 0.000000 0.000000
# 5 0.000000 0.000000 0.000000 0.000000 0.011744 0.000000
# 6 0.000000 0.000000 0.000000 0.000000 0.000000 0.034520
#
#
# Mechanical properties :
#
#
# Convention : Reuss Voigt Hill
#
# Bulk Modulus (GPa) = 68.12756 73.61493 70.87125
# Shear Modulus (GPa) = 40.95002 49.04110 44.99556
#
# Velocity S-wave (km/s) = 3.80430 4.16321 3.98780
# Velocity P-wave (km/s) = 6.58596 7.00907 6.80081
#
# Compressibility (1/GPa) = 0.01467835
#
# Stress axis : x y z
#
# Youngs Moduli (GPa) = 98.62309 101.55775 148.28706
#
# Poissons Ratio (x) = 0.21993 0.50667
# Poissons Ratio (y) = 0.21357 0.06575
# Poissons Ratio (z) = 0.33698 0.04503
#
# Static dielectric constant tensor:
#      x y z
#    x 2.268190 0.000000 0.000000 
#    y 0.000000 2.134620 0.000000 
#    z 0.000000 0.000000 2.144480 
# 
# From -- ./inp_files/758.got.cif
#   From: 2010.05.17/outbox.cif.g08.bks.cpg/sg45_1_cif.got.tgz:758.got - 2010.06.03 19:51:22.
