data_PCOD9377660
_publ_section_title
;
Structure prediction by ZEFSAII (Michael W. Deem and Ramdas Pophale) SiO2 
 PCOD9377660
Probable space group: I B A 2
;
_chemical_formula_sum "Si O2"
_cell_formula_units_Z 60
_cell_length_a 15.847124
_cell_length_b 15.966936
_cell_length_c 8.972544
_cell_angle_alpha 90.000000
_cell_angle_beta 90.000000
_cell_angle_gamma 90.000000
_cell_volume 2270.322940
_symmetry_space_group_name_H-M "I B A 2"
_symmetry_group_IT_number 45
_symmetry_cell_setting 'orthorhombic'
loop_
_space_group_symop_operation_xyz
x,y,z
-x,-y,z
-x,y,1/2+z
x,-y,1/2+z
1/2+x,1/2+y,1/2+z
1/2-x,1/2-y,1/2+z
1/2-x,1/2+y,z
1/2+x,1/2-y,z
loop_
_atom_site_type_symbol
_atom_site_label
_atom_site_fract_x
_atom_site_fract_y
_atom_site_fract_z
Si Si1 0.337990 0.912126 0.135380
Si Si2 0.084402 0.413799 0.586954
Si Si3 0.148151 0.088822 0.770354
Si Si4 0.976875 0.330672 0.825120
Si Si5 0.248510 0.836332 0.878620
Si Si6 0.000000 0.000000 0.363609
Si Si7 0.760675 0.843344 0.026958
Si Si8 0.065790 0.837911 0.004017
O O1 0.243022 0.920320 0.203866
O O2 0.394293 0.840881 0.216642
O O3 0.393360 0.995815 0.150637
O O4 0.316150 0.894452 0.962203
O O5 0.020233 0.403211 0.450593
O O6 0.169607 0.384243 0.505665
O O7 0.053945 0.349810 0.714417
O O8 0.094364 0.159405 0.678637
O O9 0.168766 0.104143 0.943724
O O10 0.084460 0.011228 0.765422
O O11 0.969018 0.245823 0.923687
O O12 0.240535 0.834842 0.703014
O O13 0.265884 0.745134 0.945691
O O14 0.155739 0.858417 0.932474
O O15 0.990814 0.916611 0.461139
#
# Coordination Sequence:
#
# PCOD9377660 Si02
#       8
#     8   8   8   8   8   4   8   8
#     4  11  27  51  83 120 170 223 291 360 437 532
#     4  12  30  50  83 123 171 230 290 369 442 530
#     4  11  27  53  84 122 170 222 292 357 443 537
#     4  12  28  54  81 122 172 228 294 358 446 530
#     4  11  25  47  81 122 160 218 286 353 427 519
#     4  12  30  48  84 124 170 214 284 366 444 532
#     4  12  26  48  84 119 162 225 287 359 434 526
#     4  11  26  51  78 121 169 223 279 356 441 523
#
# _framework density 26.427959000000001
#
# number of rings (size 3 to 8) (size 9 to 14) (size 15 to 20)
#    0.000    0.533    2.667    3.200   11.200    2.133 
#    0.000    0.000    0.000    0.000    0.000    0.000 
#    0.000    0.000    0.000    0.000    0.000    0.000 
#
# Total GULP energy -167872.064594 kJ/mol
# GULP energy per Si atom -5595.735486 kJ/mol
# Density = 2.636781 g / cm^3
# Si number density = 26.427959 Si / 1000 Ang^3
#
#
#
# Elastic Constant Matrix: (Units=GPa)
#
#
# Indices 1 2 3 4 5 6 
#
# 1 120.6494 40.1645 23.2939 0.0000 0.0000 0.0000
# 2 40.1645 128.8230 39.8798 0.0000 0.0000 0.0000
# 3 23.2939 39.8798 171.7007 0.0000 0.0000 0.0000
# 4 0.0000 0.0000 0.0000 -13.2531 0.0000 0.0000
# 5 0.0000 0.0000 0.0000 0.0000 51.5214 0.0000
# 6 0.0000 0.0000 0.0000 0.0000 0.0000 33.3294
#
#
#
# Elastic Compliance Matrix: (Units=1/GPa)
#
#
# Indices 1 2 3 4 5 6 
#
# 1 0.009312 -0.002707 -0.000635 0.000000 0.000000 0.000000
# 2 -0.002707 0.009151 -0.001758 0.000000 0.000000 0.000000
# 3 -0.000635 -0.001758 0.006319 0.000000 0.000000 0.000000
# 4 0.000000 0.000000 0.000000 -0.075454 0.000000 0.000000
# 5 0.000000 0.000000 0.000000 0.000000 0.019409 0.000000
# 6 0.000000 0.000000 0.000000 0.000000 0.000000 0.030004
#
#
# Mechanical properties :
#
#
# Convention : Reuss Voigt Hill
#
# Bulk Modulus (GPa) = 68.57706 69.76107 69.16906
# Shear Modulus (GPa) = 362.29941 35.50852 198.90397
#
# Velocity S-wave (km/s) = 11.72122 3.66949 8.68482
# Velocity P-wave (km/s) = 14.46332 6.66390 11.26045
#
# Compressibility (1/GPa) = 0.01458214
#
# Stress axis : x y z
#
# Youngs Moduli (GPa) = 107.38673 109.27986 158.26429
#
# Poissons Ratio (x) = 0.29581 0.10044
# Poissons Ratio (y) = 0.29068 0.27826
# Poissons Ratio (z) = 0.06815 0.19213
#
# Static dielectric constant tensor:
#      x y z
#    x 2.112560 0.000000 0.000000 
#    y 0.000000 2.136410 0.000000 
#    z 0.000000 0.000000 2.147060 
# 
# From -- ./inp_files/2138.got.cif
#   From: 2010.05.17/outbox.cif.g08.bks.cpg/sg45_2_cif.got.tgz:2138.got - 2010.06.03 19:51:22.
