data_PCOD9377414
_publ_section_title
;
Structure prediction by ZEFSAII (Michael W. Deem and Ramdas Pophale) SiO2 
 PCOD9377414
Probable space group: I B A 2
;
_chemical_formula_sum "Si O2"
_cell_formula_units_Z 64
_cell_length_a 11.803785
_cell_length_b 14.170181
_cell_length_c 16.890327
_cell_angle_alpha 90.000000
_cell_angle_beta 90.000000
_cell_angle_gamma 90.000000
_cell_volume 2825.105989
_symmetry_space_group_name_H-M "I B A 2"
_symmetry_group_IT_number 45
_symmetry_cell_setting 'orthorhombic'
loop_
_space_group_symop_operation_xyz
x,y,z
-x,-y,z
-x,y,1/2+z
x,-y,1/2+z
1/2+x,1/2+y,1/2+z
1/2-x,1/2-y,1/2+z
1/2-x,1/2+y,z
1/2+x,1/2-y,z
loop_
_atom_site_type_symbol
_atom_site_label
_atom_site_fract_x
_atom_site_fract_y
_atom_site_fract_z
Si Si1 0.562790 0.899550 0.144500
Si Si2 0.794253 0.138550 0.235319
Si Si3 0.625730 0.953035 0.982338
Si Si4 0.719045 0.065407 0.781694
Si Si5 0.055779 0.843762 0.735543
Si Si6 0.222605 0.360766 0.950323
Si Si7 0.146434 0.282860 0.362150
Si Si8 0.854372 0.731335 0.104746
O O1 0.643675 0.882737 0.217319
O O2 0.464026 0.826999 0.131008
O O3 0.500000 0.000000 0.154348
O O4 0.634713 0.897621 0.064320
O O5 0.761042 0.204145 0.310107
O O6 0.749369 0.185635 0.154335
O O7 0.927828 0.122372 0.230572
O O8 0.722451 0.044167 0.255771
O O9 0.629494 0.878961 0.910674
O O10 0.500000 0.000000 0.981890
O O11 0.719043 0.036299 0.990738
O O12 0.851687 0.091193 0.778460
O O13 0.672868 0.099274 0.866698
O O14 0.060151 0.751179 0.793938
O O15 0.112147 0.828055 0.648712
O O16 0.332534 0.301557 0.924662
O O17 0.160741 0.289523 0.011572
#
# Coordination Sequence:
#
# PCOD9377414 Si02
#       8
#     8   8   8   8   8   8   8   8
#     4  11  22  41  67  99 131 166 233 282 338 407
#     4  11  22  45  68  92 140 178 234 277 349 423
#     4  11  22  41  68 100 133 179 224 291 345 403
#     4  11  23  43  71  97 134 184 229 287 345 419
#     4  10  26  41  67  99 135 188 226 276 351 417
#     4  11  23  42  65  99 139 171 229 284 350 408
#     4  10  25  41  66 105 133 182 226 287 348 414
#     4  11  24  43  64 103 135 176 225 293 343 410
#
# _framework density 22.654019000000002
#
# number of rings (size 3 to 8) (size 9 to 14) (size 15 to 20)
#    0.000    1.250    5.000    0.375    8.750    1.500 
#    0.000    0.000    0.000    3.000    0.000    0.000 
#    0.000    0.000    0.000    0.000    0.000    0.000 
#
# Total GULP energy -178330.578747 kJ/mol
# GULP energy per Si atom -5572.830586 kJ/mol
# Density = 2.260246 g / cm^3
# Si number density = 22.654019 Si / 1000 Ang^3
#
#
#
# Elastic Constant Matrix: (Units=GPa)
#
#
# Indices 1 2 3 4 5 6 
#
# 1 79.6247 -6.2038 39.6295 0.0000 0.0000 0.0000
# 2 -6.2038 52.4007 6.0244 0.0000 0.0000 0.0000
# 3 39.6295 6.0244 121.7187 0.0000 0.0000 0.0000
# 4 0.0000 0.0000 0.0000 28.6133 0.0000 0.0000
# 5 0.0000 0.0000 0.0000 0.0000 18.0650 0.0000
# 6 0.0000 0.0000 0.0000 0.0000 0.0000 30.5676
#
#
#
# Elastic Compliance Matrix: (Units=1/GPa)
#
#
# Indices 1 2 3 4 5 6 
#
# 1 0.015281 0.002395 -0.005094 0.000000 0.000000 0.000000
# 2 0.002395 0.019568 -0.001748 0.000000 0.000000 0.000000
# 3 -0.005094 -0.001748 0.009961 0.000000 0.000000 0.000000
# 4 0.000000 0.000000 0.000000 0.034949 0.000000 0.000000
# 5 0.000000 0.000000 0.000000 0.000000 0.055356 0.000000
# 6 0.000000 0.000000 0.000000 0.000000 0.000000 0.032714
#
#
# Mechanical properties :
#
#
# Convention : Reuss Voigt Hill
#
# Bulk Modulus (GPa) = 27.84340 36.96047 32.40194
# Shear Modulus (GPa) = 26.49791 29.73545 28.11668
#
# Velocity S-wave (km/s) = 3.42377 3.62690 3.52680
# Velocity P-wave (km/s) = 5.28649 5.82150 5.56043
#
# Compressibility (1/GPa) = 0.03591516
#
# Stress axis : x y z
#
# Youngs Moduli (GPa) = 65.44243 51.10332 100.39570
#
# Poissons Ratio (x) = -0.12238 0.51138
# Poissons Ratio (y) = -0.15671 0.17551
# Poissons Ratio (z) = 0.33334 0.08934
#
# Static dielectric constant tensor:
#      x y z
#    x 1.810650 0.000000 0.000000 
#    y 0.000000 2.048030 0.000000 
#    z 0.000000 0.000000 1.884800 
# 
# From -- ./inp_files/8003.got.cif
#   From: 2010.05.17/outbox.cif.g08.bks.cpg/sg45_5_cif.got.tgz:8003.got - 2010.06.03 19:51:22.
