data_PCOD9377869
_publ_section_title
;
Structure prediction by ZEFSAII (Michael W. Deem and Ramdas Pophale) SiO2 
 PCOD9377869
Probable space group: I M A 2
;
_chemical_formula_sum "Si O2"
_cell_formula_units_Z 64
_cell_length_a 8.653911
_cell_length_b 31.249748
_cell_length_c 14.922766
_cell_angle_alpha 90.000000
_cell_angle_beta 90.000000
_cell_angle_gamma 90.000000
_cell_volume 4035.601483
_symmetry_space_group_name_H-M "I M A 2"
_symmetry_group_IT_number 46
_symmetry_cell_setting 'orthorhombic'
loop_
_space_group_symop_operation_xyz
x,y,z
-x,-y,z
1/2-x,y,z
1/2+x,-y,z
1/2+x,1/2+y,1/2+z
1/2-x,1/2-y,1/2+z
-x,1/2+y,1/2+z
x,1/2-y,1/2+z
loop_
_atom_site_type_symbol
_atom_site_label
_atom_site_fract_x
_atom_site_fract_y
_atom_site_fract_z
Si Si1 0.071248 0.826561 0.843960
Si Si2 0.934788 0.711329 0.629176
Si Si3 0.563331 0.453450 0.234224
Si Si4 0.430269 0.724677 0.823921
Si Si5 0.931357 0.868693 0.014571
Si Si6 0.561945 0.293814 0.021731
Si Si7 0.434183 0.546693 0.442244
Si Si8 0.936680 0.132559 0.652543
O O1 0.250000 0.839493 0.863585
O O2 0.064345 0.775636 0.839859
O O3 0.031159 0.844075 0.746452
O O4 0.963726 0.845377 0.920119
O O5 0.750000 0.713538 0.619244
O O6 0.988594 0.665987 0.587282
O O7 0.980533 0.714290 0.733134
O O8 0.005476 0.751358 0.573986
O O9 0.500000 0.500000 0.211141
O O10 0.750000 0.454217 0.232714
O O11 0.517931 0.444110 0.338152
O O12 0.508445 0.415881 0.168018
O O13 0.250000 0.712917 0.810905
O O14 0.487218 0.705405 0.917987
O O15 0.750000 0.875286 0.028318
O O16 0.010112 0.914851 0.005182
O O17 0.750000 0.292145 0.022946
O O18 0.508099 0.336298 0.074089
O O19 0.500000 0.500000 0.465581
O O20 0.250000 0.544739 0.443487
O O21 0.750000 0.130656 0.643467
#
# Coordination Sequence:
#
# PCOD9377869 Si02
#       8
#     8   8   8   8   8   8   8   8
#     4  10  17  29  49  70  95 129 165 203 246 289
#     4  11  23  34  47  70 102 135 165 203 250 296
#     4   9  17  29  45  67  96 126 156 191 236 287
#     4  10  20  33  51  71  94 128 171 213 247 290
#     4  11  22  33  46  70 101 135 170 202 241 295
#     4  10  19  33  53  73  94 126 170 212 247 292
#     4  10  19  32  50  72  98 130 164 202 248 297
#     4   9  16  29  47  69  95 125 160 198 241 286
#
# _framework density 15.85885
#
# number of rings (size 3 to 8) (size 9 to 14) (size 15 to 20)
#    0.000    2.000    3.750    1.125    0.000    3.000 
#    0.000    0.625    0.000    0.000    0.000    0.875 
#    0.000    4.000    0.000    0.000    0.000    0.000 
#
# Total GULP energy -178410.552810 kJ/mol
# GULP energy per Si atom -5575.329775 kJ/mol
# Density = 1.582275 g / cm^3
# Si number density = 15.858850 Si / 1000 Ang^3
#
#
#
# Elastic Constant Matrix: (Units=GPa)
#
#
# Indices 1 2 3 4 5 6 
#
# 1 16.2689 19.7309 13.2306 0.0000 0.0000 0.0000
# 2 19.7309 107.9524 48.3446 0.0000 0.0000 0.0000
# 3 13.2306 48.3446 74.8718 0.0000 -0.0001 0.0000
# 4 0.0000 0.0000 0.0000 24.3355 0.0000 0.0000
# 5 0.0000 0.0000 -0.0001 0.0000 10.5811 0.0000
# 6 0.0000 0.0000 0.0000 0.0000 0.0000 24.2481
#
#
#
# Elastic Compliance Matrix: (Units=1/GPa)
#
#
# Indices 1 2 3 4 5 6 
#
# 1 0.081302 -0.011854 -0.006713 0.000000 0.000000 0.000000
# 2 -0.011854 0.014760 -0.007436 0.000000 0.000000 0.000000
# 3 -0.006713 -0.007436 0.019344 0.000000 0.000000 0.000000
# 4 0.000000 0.000000 0.000000 0.041092 0.000000 0.000000
# 5 0.000000 0.000000 0.000000 0.000000 0.094508 0.000000
# 6 0.000000 0.000000 0.000000 0.000000 0.000000 0.041240
#
#
# Mechanical properties :
#
#
# Convention : Reuss Voigt Hill
#
# Bulk Modulus (GPa) = 15.77265 40.18947 27.98106
# Shear Modulus (GPa) = 13.68419 19.68541 16.68480
#
# Velocity S-wave (km/s) = 2.94066 3.52702 3.24710
# Velocity P-wave (km/s) = 4.63651 6.47946 5.63386
#
# Compressibility (1/GPa) = 0.06340090
#
# Stress axis : x y z
#
# Youngs Moduli (GPa) = 12.29980 67.75142 51.69644
#
# Poissons Ratio (x) = 0.80310 0.34704
# Poissons Ratio (y) = 0.14580 0.38440
# Poissons Ratio (z) = 0.08257 0.50378
#
# Static dielectric constant tensor:
#      x y z
#    x 1.547320 0.000000 0.000000 
#    y 0.000000 1.544640 0.000000 
#    z 0.000000 0.000000 1.520730 
# 
# From -- ./inp_files/14767.got.cif
#   From: 2010.05.17/outbox.cif.g08.bks.cpg/sg46_8_cif.got.tgz:14767.got - 2010.06.03 19:58:25.
