data_PCOD9377147
_publ_section_title
;
Structure prediction by ZEFSAII (Michael W. Deem and Ramdas Pophale) SiO2 
 PCOD9377147
Probable space group: I B A 2
;
_chemical_formula_sum "Si O2"
_cell_formula_units_Z 40
_cell_length_a 9.720624
_cell_length_b 10.350479
_cell_length_c 16.186947
_cell_angle_alpha 90.000000
_cell_angle_beta 90.000000
_cell_angle_gamma 90.000000
_cell_volume 1628.619153
_symmetry_space_group_name_H-M "I B A 2"
_symmetry_group_IT_number 45
_symmetry_cell_setting 'orthorhombic'
loop_
_space_group_symop_operation_xyz
x,y,z
-x,-y,z
-x,y,1/2+z
x,-y,1/2+z
1/2+x,1/2+y,1/2+z
1/2-x,1/2-y,1/2+z
1/2-x,1/2+y,z
1/2+x,1/2-y,z
loop_
_atom_site_type_symbol
_atom_site_label
_atom_site_fract_x
_atom_site_fract_y
_atom_site_fract_z
Si Si1 0.343723 0.019518 0.810050
Si Si2 0.037462 0.140280 0.449553
Si Si3 0.641495 0.872762 0.458295
Si Si4 0.940792 0.245402 0.611999
Si Si5 0.698657 0.238348 0.726098
O O1 0.260512 0.136947 0.772227
O O2 0.500000 0.000000 0.778654
O O3 0.355068 0.007767 0.909316
O O4 0.275688 0.885723 0.782420
O O5 0.198873 0.167649 0.455863
O O6 0.950704 0.261073 0.412710
O O7 0.986250 0.141696 0.544372
O O8 0.000000 0.000000 0.412430
O O9 0.582289 0.869443 0.551359
O O10 0.791946 0.215594 0.646181
O O11 0.046126 0.249845 0.688127
#
# Coordination Sequence:
#
# PCOD9377147 Si02
#       5
#     8   8   8   8   8
#     4  12  30  50  76 116 168 209 260 339 423 488
#     4  10  23  43  78 109 154 199 276 330 405 473
#     4  10  25  46  74 114 151 206 269 322 402 492
#     4  10  22  48  77 115 148 211 267 336 391 501
#     4  12  26  49  80 114 158 210 267 331 417 487
#
# _framework density 24.560683999999998
#
# number of rings (size 3 to 8) (size 9 to 14) (size 15 to 20)
#    1.200    0.000    4.000    0.000    8.400    0.000 
#    3.600    0.000    0.000    0.000    0.000    0.000 
#    0.000    0.000    0.000    0.000    0.000    0.000 
#
# Total GULP energy -111626.584721 kJ/mol
# GULP energy per Si atom -5581.329236 kJ/mol
# Density = 2.450478 g / cm^3
# Si number density = 24.560684 Si / 1000 Ang^3
#
#
#
# Elastic Constant Matrix: (Units=GPa)
#
#
# Indices 1 2 3 4 5 6 
#
# 1 87.2838 48.0877 -13.1560 0.0000 0.0000 0.0000
# 2 48.0877 148.6701 30.1846 0.0000 0.0000 0.0000
# 3 -13.1560 30.1846 75.3244 0.0000 0.0000 0.0000
# 4 0.0000 0.0000 0.0000 8.4005 0.0000 0.0000
# 5 0.0000 0.0000 0.0000 0.0000 25.5833 0.0000
# 6 0.0000 0.0000 0.0000 0.0000 0.0000 29.0173
#
#
#
# Elastic Compliance Matrix: (Units=1/GPa)
#
#
# Indices 1 2 3 4 5 6 
#
# 1 0.015591 -0.006092 0.005164 0.000000 0.000000 0.000000
# 2 -0.006092 0.009702 -0.004952 0.000000 0.000000 0.000000
# 3 0.005164 -0.004952 0.016162 0.000000 0.000000 0.000000
# 4 0.000000 0.000000 0.000000 0.119040 0.000000 0.000000
# 5 0.000000 0.000000 0.000000 0.000000 0.039088 0.000000
# 6 0.000000 0.000000 0.000000 0.000000 0.000000 0.034462
#
#
# Mechanical properties :
#
#
# Convention : Reuss Voigt Hill
#
# Bulk Modulus (GPa) = 33.67321 49.05677 41.36499
# Shear Modulus (GPa) = 19.55391 29.01101 24.28246
#
# Velocity S-wave (km/s) = 2.82467 3.44058 3.14773
# Velocity P-wave (km/s) = 4.93744 5.98336 5.48538
#
# Compressibility (1/GPa) = 0.02969720
#
# Stress axis : x y z
#
# Youngs Moduli (GPa) = 64.13839 103.07176 61.87283
#
# Poissons Ratio (x) = 0.62786 -0.31952
# Poissons Ratio (y) = 0.39070 0.30638
# Poissons Ratio (z) = -0.33122 0.51039
#
# Static dielectric constant tensor:
#      x y z
#    x 1.961470 0.000000 0.000000 
#    y 0.000000 1.950180 0.000000 
#    z 0.000000 0.000000 2.028590 
# 
# From -- ./inp_files/7438.got.cif
#   From: 2010.05.17/outbox.cif.g08.bks.cpg/sg45_4_cif.got.tgz:7438.got - 2010.06.03 19:51:22.
