data_PCOD9377665
_publ_section_title
;
Structure prediction by ZEFSAII (Michael W. Deem and Ramdas Pophale) SiO2 
 PCOD9377665
Probable space group: I B A 2
;
_chemical_formula_sum "Si O2"
_cell_formula_units_Z 64
_cell_length_a 28.804752
_cell_length_b 9.111895
_cell_length_c 10.740158
_cell_angle_alpha 90.000000
_cell_angle_beta 90.000000
_cell_angle_gamma 90.000000
_cell_volume 2818.924975
_symmetry_space_group_name_H-M "I B A 2"
_symmetry_group_IT_number 45
_symmetry_cell_setting 'orthorhombic'
loop_
_space_group_symop_operation_xyz
x,y,z
-x,-y,z
-x,y,1/2+z
x,-y,1/2+z
1/2+x,1/2+y,1/2+z
1/2-x,1/2-y,1/2+z
1/2-x,1/2+y,z
1/2+x,1/2-y,z
loop_
_atom_site_type_symbol
_atom_site_label
_atom_site_fract_x
_atom_site_fract_y
_atom_site_fract_z
Si Si1 0.919559 0.685501 0.155170
Si Si2 0.896922 0.998693 0.057119
Si Si3 0.467733 0.129948 0.427688
Si Si4 0.218974 0.416672 0.947551
Si Si5 0.810426 0.913423 0.941134
Si Si6 0.834342 0.519059 0.690753
Si Si7 0.889485 0.217140 0.259055
Si Si8 0.532848 0.367851 0.367077
O O1 0.872013 0.611086 0.197297
O O2 0.949910 0.753369 0.264435
O O3 0.908369 0.829067 0.073953
O O4 0.945127 0.579505 0.057822
O O5 0.912213 0.091770 0.175902
O O6 0.923752 0.066013 0.940562
O O7 0.841362 0.994568 0.045090
O O8 0.427252 0.186883 0.335114
O O9 0.500558 0.268983 0.455935
O O10 0.500000 0.000000 0.377291
O O11 0.214123 0.242001 0.970550
O O12 0.269950 0.472796 0.910904
O O13 0.188300 0.460325 0.826990
O O14 0.200218 0.489272 0.075738
O O15 0.850025 0.863309 0.842333
O O16 0.862679 0.669129 0.670148
O O17 0.500000 0.500000 0.322219
#
# Coordination Sequence:
#
# PCOD9377665 Si02
#       8
#     8   8   8   8   8   8   8   8
#     4  12  25  46  73 100 149 195 243 309 380 447
#     4  12  25  46  74 101 152 193 243 309 377 443
#     4  12  27  48  71 108 150 195 254 316 376 449
#     4  11  27  46  77 110 149 187 253 302 372 460
#     4  11  25  49  70 112 149 190 240 313 372 453
#     4  11  26  49  74 110 150 194 249 312 377 461
#     4  11  26  48  74 108 149 195 249 309 388 445
#     4  12  27  44  70 107 141 195 255 304 366 454
#
# _framework density 22.703690000000002
#
# number of rings (size 3 to 8) (size 9 to 14) (size 15 to 20)
#    0.000    0.500    3.750    3.000   10.500    2.500 
#    0.000    0.000    0.000    0.000    0.000    0.000 
#    0.000    0.000    0.000    0.000    0.000    0.000 
#
# Total GULP energy -178829.290004 kJ/mol
# GULP energy per Si atom -5588.415313 kJ/mol
# Density = 2.265202 g / cm^3
# Si number density = 22.703690 Si / 1000 Ang^3
#
#
#
# Elastic Constant Matrix: (Units=GPa)
#
#
# Indices 1 2 3 4 5 6 
#
# 1 125.4695 53.0385 32.3344 0.0000 0.0000 0.0000
# 2 53.0385 83.2621 25.3869 0.0000 0.0000 0.0000
# 3 32.3344 25.3869 86.2177 0.0000 0.0000 0.0000
# 4 0.0000 0.0000 0.0000 15.9697 0.0000 0.0000
# 5 0.0000 0.0000 0.0000 0.0000 26.0057 0.0000
# 6 0.0000 0.0000 0.0000 0.0000 0.0000 55.3833
#
#
#
# Elastic Compliance Matrix: (Units=1/GPa)
#
#
# Indices 1 2 3 4 5 6 
#
# 1 0.011318 -0.006499 -0.002331 0.000000 0.000000 0.000000
# 2 -0.006499 0.016927 -0.002547 0.000000 0.000000 0.000000
# 3 -0.002331 -0.002547 0.013223 0.000000 0.000000 0.000000
# 4 0.000000 0.000000 0.000000 0.062619 0.000000 0.000000
# 5 0.000000 0.000000 0.000000 0.000000 0.038453 0.000000
# 6 0.000000 0.000000 0.000000 0.000000 0.000000 0.018056
#
#
# Mechanical properties :
#
#
# Convention : Reuss Voigt Hill
#
# Bulk Modulus (GPa) = 53.43616 57.38544 55.41080
# Shear Modulus (GPa) = 26.37320 31.75103 29.06211
#
# Velocity S-wave (km/s) = 3.41196 3.74370 3.58168
# Velocity P-wave (km/s) = 6.25375 6.63459 6.44698
#
# Compressibility (1/GPa) = 0.01871392
#
# Stress axis : x y z
#
# Youngs Moduli (GPa) = 88.35475 59.07841 75.62784
#
# Poissons Ratio (x) = 0.38395 0.17629
# Poissons Ratio (y) = 0.57421 0.19261
# Poissons Ratio (z) = 0.20595 0.15046
#
# Static dielectric constant tensor:
#      x y z
#    x 1.986540 0.000000 0.000000 
#    y 0.000000 1.840460 0.000000 
#    z 0.000000 0.000000 1.871250 
# 
# From -- ./inp_files/4948.got.cif
#   From: 2010.05.17/outbox.cif.g08.bks.cpg/sg45_3_cif.got.tgz:4948.got - 2010.06.03 19:51:22.
