data_PCOD9377190
_publ_section_title
;
Structure prediction by ZEFSAII (Michael W. Deem and Ramdas Pophale) SiO2 
 PCOD9377190
Probable space group: I B A 2
;
_chemical_formula_sum "Si O2"
_cell_formula_units_Z 40
_cell_length_a 13.024800
_cell_length_b 5.249063
_cell_length_c 25.373986
_cell_angle_alpha 90.000000
_cell_angle_beta 90.000000
_cell_angle_gamma 90.000000
_cell_volume 1734.768567
_symmetry_space_group_name_H-M "I B A 2"
_symmetry_group_IT_number 45
_symmetry_cell_setting 'orthorhombic'
loop_
_space_group_symop_operation_xyz
x,y,z
-x,-y,z
-x,y,1/2+z
x,-y,1/2+z
1/2+x,1/2+y,1/2+z
1/2-x,1/2-y,1/2+z
1/2-x,1/2+y,z
1/2+x,1/2-y,z
loop_
_atom_site_type_symbol
_atom_site_label
_atom_site_fract_x
_atom_site_fract_y
_atom_site_fract_z
Si Si1 0.000000 0.000000 0.083030
Si Si2 0.000000 0.500000 0.152442
Si Si3 0.500000 0.500000 0.392000
Si Si4 0.289377 0.305815 0.046711
Si Si5 0.178061 0.427546 0.737515
Si Si6 0.710623 0.305815 0.928319
Si Si7 0.500000 0.000000 0.822589
O O1 0.022154 0.247056 0.118477
O O2 0.903047 0.085909 0.048851
O O3 0.900549 0.440571 0.188325
O O4 0.403047 0.414092 0.426179
O O5 0.477846 0.747056 0.356553
O O6 0.221224 0.528403 0.072353
O O7 0.250000 0.250000 0.987515
O O8 0.245554 0.170218 0.737515
O O9 0.099451 0.440571 0.786706
O O10 0.778776 0.528403 0.902677
#
# Coordination Sequence:
#
# PCOD9377190 Si02
#       7
#     4   4   4   8   8   8   4
#     4  12  24  42  68 100 140 174 228 295 328 403
#     4  11  26  42  66 105 134 176 232 275 346 413
#     4  12  24  42  68 100 140 174 228 295 328 403
#     4  10  23  42  64  93 128 174 225 273 341 397
#     4  11  24  45  70  96 140 183 218 279 348 416
#     4  10  23  42  64  93 128 174 225 273 341 397
#     4  11  26  42  66 105 134 176 232 275 346 413
#
# _framework density 23.057829000000002
#
# number of rings (size 3 to 8) (size 9 to 14) (size 15 to 20)
#    0.000    1.200    0.000    4.800    0.000   16.000 
#    0.000    8.000    0.000    0.000    0.000    0.000 
#    0.000    0.000    0.000    0.000    0.000    0.000 
#
# Total GULP energy -111838.411141 kJ/mol
# GULP energy per Si atom -5591.920557 kJ/mol
# Density = 2.300535 g / cm^3
# Si number density = 23.057829 Si / 1000 Ang^3
#
#
#
# Elastic Constant Matrix: (Units=GPa)
#
#
# Indices 1 2 3 4 5 6 
#
# 1 195.9150 80.6773 63.2152 0.0000 0.0000 0.0000
# 2 80.6773 241.2294 43.2244 0.0000 0.0000 0.0000
# 3 63.2152 43.2244 84.2618 0.0000 0.0000 0.0000
# 4 0.0000 0.0000 0.0000 17.1645 0.0000 0.0000
# 5 0.0000 0.0000 0.0000 0.0000 39.6615 0.0000
# 6 0.0000 0.0000 0.0000 0.0000 0.0000 54.1063
#
#
#
# Elastic Compliance Matrix: (Units=1/GPa)
#
#
# Indices 1 2 3 4 5 6 
#
# 1 0.007254 -0.001598 -0.004622 0.000000 0.000000 0.000000
# 2 -0.001598 0.004917 -0.001324 0.000000 0.000000 0.000000
# 3 -0.004622 -0.001324 0.016015 0.000000 0.000000 0.000000
# 4 0.000000 0.000000 0.000000 0.058260 0.000000 0.000000
# 5 0.000000 0.000000 0.000000 0.000000 0.025213 0.000000
# 6 0.000000 0.000000 0.000000 0.000000 0.000000 0.018482
#
#
# Mechanical properties :
#
#
# Convention : Reuss Voigt Hill
#
# Bulk Modulus (GPa) = 76.34830 99.51553 87.93191
# Shear Modulus (GPa) = 33.42389 44.47242 38.94815
#
# Velocity S-wave (km/s) = 3.81145 4.39650 4.11439
# Velocity P-wave (km/s) = 7.24935 8.30813 7.79674
#
# Compressibility (1/GPa) = 0.01309787
#
# Stress axis : x y z
#
# Youngs Moduli (GPa) = 137.86209 203.37837 62.44332
#
# Poissons Ratio (x) = 0.32493 0.28863
# Poissons Ratio (y) = 0.22026 0.08265
# Poissons Ratio (z) = 0.63724 0.26920
#
# Static dielectric constant tensor:
#      x y z
#    x 1.871580 0.000000 0.000000 
#    y 0.000000 2.093400 0.000000 
#    z 0.000000 0.000000 2.018040 
# 
# From -- ./inp_files/9997.got.cif
#   From: 2010.05.17/outbox.cif.g08.bks.cpg/sg45_5_cif.got.tgz:9997.got - 2010.06.03 19:51:22.
