data_PCOD9377213
_publ_section_title
;
Structure prediction by ZEFSAII (Michael W. Deem and Ramdas Pophale) SiO2 
 PCOD9377213
Probable space group: I B A 2
;
_chemical_formula_sum "Si O2"
_cell_formula_units_Z 24
_cell_length_a 12.315337
_cell_length_b 14.558582
_cell_length_c 5.366945
_cell_angle_alpha 90.000000
_cell_angle_beta 90.000000
_cell_angle_gamma 90.000000
_cell_volume 962.260197
_symmetry_space_group_name_H-M "I B A 2"
_symmetry_group_IT_number 45
_symmetry_cell_setting 'orthorhombic'
loop_
_space_group_symop_operation_xyz
x,y,z
-x,-y,z
-x,y,1/2+z
x,-y,1/2+z
1/2+x,1/2+y,1/2+z
1/2-x,1/2-y,1/2+z
1/2-x,1/2+y,z
1/2+x,1/2-y,z
loop_
_atom_site_type_symbol
_atom_site_label
_atom_site_fract_x
_atom_site_fract_y
_atom_site_fract_z
Si Si1 0.542765 0.104973 0.398780
Si Si2 0.877804 0.965036 0.935394
Si Si3 0.738024 0.305350 0.773554
O O1 0.525546 0.147534 0.671262
O O2 0.665752 0.119975 0.315829
O O3 0.500000 0.000000 0.425535
O O4 0.870166 0.862036 0.835179
O O5 0.827763 0.025712 0.710914
O O6 0.000000 0.000000 0.972909
O O7 0.744188 0.267541 0.494981
#
# Coordination Sequence:
#
# PCOD9377213 Si02
#       3
#     8   8   8
#     4  10  23  43  70 100 139 187 229 272 344 431
#     4  10  23  45  72  98 135 187 233 274 344 431
#     4  12  26  46  72 108 142 176 232 302 350 394
#
# _framework density 24.941279000000002
#
# number of rings (size 3 to 8) (size 9 to 14) (size 15 to 20)
#    0.000    1.333    0.000    4.000    9.333    0.000 
#   36.000    0.000    0.000    0.000    0.000    0.000 
#    0.000    0.000    0.000    0.000    0.000    0.000 
#
# Total GULP energy -67014.769004 kJ/mol
# GULP energy per Si atom -5584.564084 kJ/mol
# Density = 2.488451 g / cm^3
# Si number density = 24.941279 Si / 1000 Ang^3
#
#
#
# Elastic Constant Matrix: (Units=GPa)
#
#
# Indices 1 2 3 4 5 6 
#
# 1 61.1561 30.1595 -11.6899 0.0000 0.0000 0.0000
# 2 30.1595 74.4359 4.4987 0.0000 0.0000 0.0000
# 3 -11.6899 4.4987 160.9773 0.0000 0.0000 0.0000
# 4 0.0000 0.0000 0.0000 37.0942 0.0000 0.0000
# 5 0.0000 0.0000 0.0000 0.0000 35.9230 0.0000
# 6 0.0000 0.0000 0.0000 0.0000 0.0000 43.7690
#
#
#
# Elastic Compliance Matrix: (Units=1/GPa)
#
#
# Indices 1 2 3 4 5 6 
#
# 1 0.020921 -0.008583 0.001759 0.000000 0.000000 0.000000
# 2 -0.008583 0.016978 -0.001098 0.000000 0.000000 0.000000
# 3 0.001759 -0.001098 0.006370 0.000000 0.000000 0.000000
# 4 0.000000 0.000000 0.000000 0.026958 0.000000 0.000000
# 5 0.000000 0.000000 0.000000 0.000000 0.027837 0.000000
# 6 0.000000 0.000000 0.000000 0.000000 0.000000 0.022847
#
#
# Mechanical properties :
#
#
# Convention : Reuss Voigt Hill
#
# Bulk Modulus (GPa) = 35.17865 38.05621 36.61743
# Shear Modulus (GPa) = 33.96035 41.59729 37.77882
#
# Velocity S-wave (km/s) = 3.69401 4.08831 3.89615
# Velocity P-wave (km/s) = 5.68590 6.13002 5.91213
#
# Compressibility (1/GPa) = 0.02842633
#
# Stress axis : x y z
#
# Youngs Moduli (GPa) = 47.79998 58.89886 156.97413
#
# Poissons Ratio (x) = 0.50552 -0.27613
# Poissons Ratio (y) = 0.41026 0.17232
# Poissons Ratio (z) = -0.08408 0.06466
#
# Static dielectric constant tensor:
#      x y z
#    x 1.942950 0.000000 0.000000 
#    y 0.000000 2.451720 0.000000 
#    z 0.000000 0.000000 2.069420 
# 
# From -- ./inp_files/33.got.cif
#   From: 2010.05.17/outbox.cif.g08.bks.cpg/sg45_1_cif.got.tgz:33.got - 2010.06.03 19:51:22.
