data_PCOD9377205
_publ_section_title
;
Structure prediction by ZEFSAII (Michael W. Deem and Ramdas Pophale) SiO2 
 PCOD9377205
Probable space group: I B A 2
;
_chemical_formula_sum "Si O2"
_cell_formula_units_Z 44
_cell_length_a 15.224632
_cell_length_b 8.814231
_cell_length_c 13.921543
_cell_angle_alpha 90.000000
_cell_angle_beta 90.000000
_cell_angle_gamma 90.000000
_cell_volume 1868.179513
_symmetry_space_group_name_H-M "I B A 2"
_symmetry_group_IT_number 45
_symmetry_cell_setting 'orthorhombic'
loop_
_space_group_symop_operation_xyz
x,y,z
-x,-y,z
-x,y,1/2+z
x,-y,1/2+z
1/2+x,1/2+y,1/2+z
1/2-x,1/2-y,1/2+z
1/2-x,1/2+y,z
1/2+x,1/2-y,z
loop_
_atom_site_type_symbol
_atom_site_label
_atom_site_fract_x
_atom_site_fract_y
_atom_site_fract_z
Si Si1 0.963165 0.762883 0.453690
Si Si2 0.266610 0.277705 0.301543
Si Si3 0.176862 0.030828 0.190681
Si Si4 0.572309 0.208471 0.252135
Si Si5 0.358895 0.433915 0.479117
Si Si6 0.500000 0.000000 0.087920
O O1 0.988157 0.709923 0.345533
O O2 0.049020 0.847458 0.493808
O O3 0.946601 0.616164 0.519588
O O4 0.887289 0.893336 0.449252
O O5 0.248036 0.109447 0.261696
O O6 0.325042 0.357524 0.219562
O O7 0.166546 0.336234 0.295629
O O8 0.307610 0.333723 0.400760
O O9 0.087816 0.119726 0.216309
O O10 0.193014 0.055778 0.078928
O O11 0.553306 0.104568 0.161925
#
# Coordination Sequence:
#
# PCOD9377205 Si02
#       6
#     8   8   8   8   8   4
#     4  11  24  44  73 101 136 185 230 292 347 419
#     4  10  23  43  66  96 138 180 229 289 333 415
#     4  10  23  44  64 102 135 180 230 275 351 404
#     4  10  24  45  65 101 138 176 231 281 349 408
#     4  11  23  45  71 102 140 184 233 283 353 422
#     4  12  24  46  70 104 138 182 228 292 354 424
#
# _framework density 23.552340000000001
#
# number of rings (size 3 to 8) (size 9 to 14) (size 15 to 20)
#    1.091    0.364    3.636    0.545    0.000   10.182 
#    0.000    0.000    0.000    0.000    0.000    0.000 
#    0.000    0.000    0.000    0.000    0.000    0.000 
#
# Total GULP energy -122609.557647 kJ/mol
# GULP energy per Si atom -5573.161711 kJ/mol
# Density = 2.349873 g / cm^3
# Si number density = 23.552340 Si / 1000 Ang^3
#
#
#
# Elastic Constant Matrix: (Units=GPa)
#
#
# Indices 1 2 3 4 5 6 
#
# 1 26.8123 7.7728 7.3477 0.0000 0.0000 0.0000
# 2 7.7728 84.4720 24.1253 0.0000 0.0000 0.0000
# 3 7.3477 24.1253 150.4096 0.0000 0.0000 0.0000
# 4 0.0000 0.0000 0.0000 -31.3937 0.0000 0.0000
# 5 0.0000 0.0000 0.0000 0.0000 5.4075 0.0000
# 6 0.0000 0.0000 0.0000 0.0000 0.0000 27.0445
#
#
#
# Elastic Compliance Matrix: (Units=1/GPa)
#
#
# Indices 1 2 3 4 5 6 
#
# 1 0.038589 -0.003157 -0.001379 0.000000 0.000000 0.000000
# 2 -0.003157 0.012665 -0.001877 0.000000 0.000000 0.000000
# 3 -0.001379 -0.001877 0.007017 0.000000 0.000000 0.000000
# 4 0.000000 0.000000 0.000000 -0.031853 0.000000 0.000000
# 5 0.000000 0.000000 0.000000 0.000000 0.184928 0.000000
# 6 0.000000 0.000000 0.000000 0.000000 0.000000 0.036976
#
#
# Mechanical properties :
#
#
# Convention : Reuss Voigt Hill
#
# Bulk Modulus (GPa) = 22.00452 37.79836 29.90144
# Shear Modulus (GPa) = 18.09653 15.04153 16.56903
#
# Velocity S-wave (km/s) = 2.77493 2.52988 2.65523
# Velocity P-wave (km/s) = 4.43058 4.96158 4.70358
#
# Compressibility (1/GPa) = 0.04544521
#
# Stress axis : x y z
#
# Youngs Moduli (GPa) = 25.91387 78.95854 142.51185
#
# Poissons Ratio (x) = 0.24928 0.19649
# Poissons Ratio (y) = 0.08181 0.26752
# Poissons Ratio (z) = 0.03573 0.14822
#
# Static dielectric constant tensor:
#      x y z
#    x 1.957260 0.000000 0.000000 
#    y 0.000000 1.927120 0.000000 
#    z 0.000000 0.000000 1.914930 
# 
# From -- ./inp_files/6722.got.cif
#   From: 2010.05.17/outbox.cif.g08.bks.cpg/sg45_4_cif.got.tgz:6722.got - 2010.06.03 19:51:22.
