data_PCOD9377559
_publ_section_title
;
Structure prediction by ZEFSAII (Michael W. Deem and Ramdas Pophale) SiO2 
 PCOD9377559
Probable space group: I B A 2
;
_chemical_formula_sum "Si O2"
_cell_formula_units_Z 48
_cell_length_a 17.046819
_cell_length_b 8.659935
_cell_length_c 13.590172
_cell_angle_alpha 90.000000
_cell_angle_beta 90.000000
_cell_angle_gamma 90.000000
_cell_volume 2006.240233
_symmetry_space_group_name_H-M "I B A 2"
_symmetry_group_IT_number 45
_symmetry_cell_setting 'orthorhombic'
loop_
_space_group_symop_operation_xyz
x,y,z
-x,-y,z
-x,y,1/2+z
x,-y,1/2+z
1/2+x,1/2+y,1/2+z
1/2-x,1/2-y,1/2+z
1/2-x,1/2+y,z
1/2+x,1/2-y,z
loop_
_atom_site_type_symbol
_atom_site_label
_atom_site_fract_x
_atom_site_fract_y
_atom_site_fract_z
Si Si1 0.920361 0.423137 0.531660
Si Si2 0.377199 0.613099 0.365865
Si Si3 0.476237 0.833082 0.814231
Si Si4 0.388449 0.594387 0.036298
Si Si5 0.209052 0.687660 0.033708
Si Si6 0.857264 0.879860 0.700317
O O1 0.933314 0.376202 0.417343
O O2 0.914968 0.256451 0.579418
O O3 0.850056 0.542987 0.543254
O O4 0.000000 0.500000 0.562503
O O5 0.446029 0.728825 0.331670
O O6 0.414684 0.477535 0.433321
O O7 0.320576 0.710120 0.440092
O O8 0.335792 0.516387 0.277621
O O9 0.412580 0.743458 0.751255
O O10 0.500000 0.000000 0.773521
O O11 0.295628 0.623510 0.019870
O O12 0.405872 0.465623 0.115875
O O13 0.206590 0.789621 0.134058
#
# Coordination Sequence:
#
# PCOD9377559 Si02
#       6
#     8   8   8   8   8   8
#     4  11  22  43  74 101 143 197 248 311 371 444
#     4  11  23  46  74 105 145 195 245 310 379 443
#     4  11  23  46  70 109 147 184 252 309 380 445
#     4  11  26  48  72 106 152 199 253 311 379 461
#     4  11  25  49  73 108 151 202 253 307 387 449
#     4  11  26  44  71 109 149 190 248 308 370 457
#
# _framework density 23.925352
#
# number of rings (size 3 to 8) (size 9 to 14) (size 15 to 20)
#    0.000    1.000    5.000    2.500    0.000    6.000 
#    3.000    0.000    0.000    0.000    0.000    0.000 
#    0.000    0.000    0.000    0.000    0.000    0.000 
#
# Total GULP energy -134216.883856 kJ/mol
# GULP energy per Si atom -5592.370161 kJ/mol
# Density = 2.387090 g / cm^3
# Si number density = 23.925352 Si / 1000 Ang^3
#
#
#
# Elastic Constant Matrix: (Units=GPa)
#
#
# Indices 1 2 3 4 5 6 
#
# 1 110.6054 40.4910 6.8154 0.0000 0.0000 0.0000
# 2 40.4910 156.4522 23.7644 0.0000 0.0000 0.0000
# 3 6.8154 23.7644 113.7371 0.0000 0.0000 0.0000
# 4 0.0000 0.0000 0.0000 50.4008 0.0000 0.0000
# 5 0.0000 0.0000 0.0000 0.0000 7.0238 0.0000
# 6 0.0000 0.0000 0.0000 0.0000 0.0000 42.7891
#
#
#
# Elastic Compliance Matrix: (Units=1/GPa)
#
#
# Indices 1 2 3 4 5 6 
#
# 1 0.009988 -0.002576 -0.000060 0.000000 0.000000 0.000000
# 2 -0.002576 0.007265 -0.001364 0.000000 0.000000 0.000000
# 3 -0.000060 -0.001364 0.009081 0.000000 0.000000 0.000000
# 4 0.000000 0.000000 0.000000 0.019841 0.000000 0.000000
# 5 0.000000 0.000000 0.000000 0.000000 0.142374 0.000000
# 6 0.000000 0.000000 0.000000 0.000000 0.000000 0.023370
#
#
# Mechanical properties :
#
#
# Convention : Reuss Voigt Hill
#
# Bulk Modulus (GPa) = 54.54202 58.10405 56.32304
# Shear Modulus (GPa) = 22.12092 40.69100 31.40596
#
# Velocity S-wave (km/s) = 3.04399 4.12849 3.62700
# Velocity P-wave (km/s) = 5.93302 6.86033 6.41346
#
# Compressibility (1/GPa) = 0.01833449
#
# Stress axis : x y z
#
# Youngs Moduli (GPa) = 100.12198 137.63681 110.12297
#
# Poissons Ratio (x) = 0.35452 0.00664
# Poissons Ratio (y) = 0.25789 0.15018
# Poissons Ratio (z) = 0.00604 0.18770
#
# Static dielectric constant tensor:
#      x y z
#    x 1.861890 0.000000 0.000000 
#    y 0.000000 1.905310 0.000000 
#    z 0.000000 0.000000 1.979350 
# 
# From -- ./inp_files/6746.got.cif
#   From: 2010.05.17/outbox.cif.g08.bks.cpg/sg45_4_cif.got.tgz:6746.got - 2010.06.03 19:51:22.
