data_PCOD9377388
_publ_section_title
;
Structure prediction by ZEFSAII (Michael W. Deem and Ramdas Pophale) SiO2 
 PCOD9377388
Probable space group: I B A 2
;
_chemical_formula_sum "Si O2"
_cell_formula_units_Z 60
_cell_length_a 11.168077
_cell_length_b 22.157246
_cell_length_c 10.640942
_cell_angle_alpha 90.000000
_cell_angle_beta 90.000000
_cell_angle_gamma 90.000000
_cell_volume 2633.141847
_symmetry_space_group_name_H-M "I B A 2"
_symmetry_group_IT_number 45
_symmetry_cell_setting 'orthorhombic'
loop_
_space_group_symop_operation_xyz
x,y,z
-x,-y,z
-x,y,1/2+z
x,-y,1/2+z
1/2+x,1/2+y,1/2+z
1/2-x,1/2-y,1/2+z
1/2-x,1/2+y,z
1/2+x,1/2-y,z
loop_
_atom_site_type_symbol
_atom_site_label
_atom_site_fract_x
_atom_site_fract_y
_atom_site_fract_z
Si Si1 0.253676 0.313681 0.096830
Si Si2 0.802668 0.865324 0.869072
Si Si3 0.957592 0.892542 0.471550
Si Si4 0.703642 0.828151 0.117426
Si Si5 0.883527 0.073572 0.701008
Si Si6 0.793476 0.478183 0.765210
Si Si7 0.500000 0.000000 0.938176
Si Si8 0.031772 0.388832 0.111488
O O1 0.278449 0.332993 0.240006
O O2 0.273877 0.242518 0.102653
O O3 0.122250 0.337946 0.058851
O O4 0.347893 0.351142 0.014091
O O5 0.796021 0.936739 0.844451
O O6 0.932613 0.851190 0.923643
O O7 0.706020 0.849905 0.972982
O O8 0.923012 0.930330 0.346824
O O9 0.011493 0.925593 0.596300
O O10 0.812051 0.863289 0.184956
O O11 0.578331 0.852423 0.172483
O O12 0.785025 0.021435 0.678412
O O13 0.881852 0.430913 0.696865
O O14 0.883267 0.513910 0.854935
O O15 0.479801 0.059772 0.019648
#
# Coordination Sequence:
#
# PCOD9377388 Si02
#       8
#     8   8   8   8   8   8   4   8
#     4  11  26  46  72 107 148 198 254 310 381 459
#     4  10  24  48  66 108 144 194 248 306 377 452
#     4  11  24  49  70 106 151 195 254 303 384 453
#     4  11  25  47  75 106 150 196 254 311 380 453
#     4  11  25  47  76 110 147 204 248 318 383 455
#     4  11  24  44  71 107 146 185 247 313 380 460
#     4  12  20  42  72 104 148 182 246 314 364 460
#     4  11  25  44  72 109 141 194 243 310 380 441
#
# _framework density 22.786466000000001
#
# number of rings (size 3 to 8) (size 9 to 14) (size 15 to 20)
#    0.000    1.067    2.667    2.800    7.467    0.533 
#    7.200    0.000    0.000    0.000    0.000    0.000 
#    0.000    0.000    0.000    0.000    0.000    0.000 
#
# Total GULP energy -167574.608788 kJ/mol
# GULP energy per Si atom -5585.820293 kJ/mol
# Density = 2.273460 g / cm^3
# Si number density = 22.786466 Si / 1000 Ang^3
#
#
#
# Elastic Constant Matrix: (Units=GPa)
#
#
# Indices 1 2 3 4 5 6 
#
# 1 103.3629 33.7542 22.4784 0.0000 0.0000 0.0000
# 2 33.7542 120.5602 30.4100 -0.0001 0.0000 0.0000
# 3 22.4784 30.4100 96.8062 -0.0001 -0.0001 0.0000
# 4 0.0000 -0.0001 -0.0001 13.6536 0.0000 0.0000
# 5 0.0000 0.0000 -0.0001 0.0000 12.3881 0.0000
# 6 0.0000 0.0000 0.0000 0.0000 0.0000 29.1047
#
#
#
# Elastic Compliance Matrix: (Units=1/GPa)
#
#
# Indices 1 2 3 4 5 6 
#
# 1 0.010902 -0.002622 -0.001708 0.000000 0.000000 0.000000
# 2 -0.002622 0.009639 -0.002419 0.000000 0.000000 0.000000
# 3 -0.001708 -0.002419 0.011486 0.000000 0.000000 0.000000
# 4 0.000000 0.000000 0.000000 0.073241 0.000000 0.000000
# 5 0.000000 0.000000 0.000000 0.000000 0.080722 0.000000
# 6 0.000000 0.000000 0.000000 0.000000 0.000000 0.034359
#
#
# Mechanical properties :
#
#
# Convention : Reuss Voigt Hill
#
# Bulk Modulus (GPa) = 53.96631 54.89052 54.42841
# Shear Modulus (GPa) = 20.83133 26.63507 23.73320
#
# Velocity S-wave (km/s) = 3.02685 3.42263 3.23080
# Velocity P-wave (km/s) = 5.99589 6.30560 6.15269
#
# Compressibility (1/GPa) = 0.01853008
#
# Stress axis : x y z
#
# Youngs Moduli (GPa) = 91.72479 103.74744 87.05919
#
# Poissons Ratio (x) = 0.27198 0.14869
# Poissons Ratio (y) = 0.24046 0.21061
# Poissons Ratio (z) = 0.15666 0.25098
#
# Static dielectric constant tensor:
#      x y z
#    x 1.949490 0.000000 0.000000 
#    y 0.000000 1.864130 0.000000 
#    z 0.000000 0.000000 1.897440 
# 
# From -- ./inp_files/3838.got.cif
#   From: 2010.05.17/outbox.cif.g08.bks.cpg/sg45_2_cif.got.tgz:3838.got - 2010.06.03 19:51:22.
