data_PCOD9377398
_publ_section_title
;
Structure prediction by ZEFSAII (Michael W. Deem and Ramdas Pophale) SiO2 
 PCOD9377398
Probable space group: I B A 2
;
_chemical_formula_sum "Si O2"
_cell_formula_units_Z 52
_cell_length_a 27.094666
_cell_length_b 9.931674
_cell_length_c 8.942440
_cell_angle_alpha 90.000000
_cell_angle_beta 90.000000
_cell_angle_gamma 90.000000
_cell_volume 2406.369378
_symmetry_space_group_name_H-M "I B A 2"
_symmetry_group_IT_number 45
_symmetry_cell_setting 'orthorhombic'
loop_
_space_group_symop_operation_xyz
x,y,z
-x,-y,z
-x,y,1/2+z
x,-y,1/2+z
1/2+x,1/2+y,1/2+z
1/2-x,1/2-y,1/2+z
1/2-x,1/2+y,z
1/2+x,1/2-y,z
loop_
_atom_site_type_symbol
_atom_site_label
_atom_site_fract_x
_atom_site_fract_y
_atom_site_fract_z
Si Si1 0.241402 0.107757 0.584690
Si Si2 0.349544 0.039655 0.468831
Si Si3 0.000000 0.500000 0.910746
Si Si4 0.117721 0.177810 0.824874
Si Si5 0.655083 0.565518 0.622029
Si Si6 0.564156 0.114181 0.650675
Si Si7 0.301371 0.210035 0.829136
O O1 0.297685 0.075018 0.545750
O O2 0.250129 0.169626 0.748183
O O3 0.214631 0.214263 0.479236
O O4 0.209644 0.973196 0.564019
O O5 0.361591 0.176305 0.378626
O O6 0.334418 0.081804 0.861908
O O7 0.391730 0.975803 0.576954
O O8 0.021658 0.611836 0.023429
O O9 0.043170 0.457613 0.798806
O O10 0.076445 0.237095 0.711015
O O11 0.142702 0.066641 0.718669
O O12 0.117947 0.101796 0.987074
O O13 0.665181 0.689750 0.730895
#
# Coordination Sequence:
#
# PCOD9377398 Si02
#       7
#     8   8   4   8   8   8   8
#     4  12  24  42  65  97 148 204 262 305 364 417
#     4  12  25  43  72 106 141 195 263 313 369 432
#     4  10  24  48  82 124 142 172 234 320 406 460
#     4  12  26  48  70 106 148 201 250 304 374 442
#     4  12  26  47  62 102 156 212 247 303 363 432
#     4  11  24  48  81 116 144 178 235 320 384 464
#     4  12  25  43  65  98 144 208 262 319 353 425
#
# _framework density 21.609318999999999
#
# number of rings (size 3 to 8) (size 9 to 14) (size 15 to 20)
#    0.000    0.308    4.615    4.615    0.000    0.000 
#    0.000    0.000    0.000    2.769    0.000    0.000 
#    0.000    0.000    0.000    0.000    0.000    0.000 
#
# Total GULP energy -144952.876524 kJ/mol
# GULP energy per Si atom -5575.110636 kJ/mol
# Density = 2.156014 g / cm^3
# Si number density = 21.609319 Si / 1000 Ang^3
#
#
#
# Elastic Constant Matrix: (Units=GPa)
#
#
# Indices 1 2 3 4 5 6 
#
# 1 36.3869 30.9161 37.6042 0.0000 0.0000 0.0000
# 2 30.9161 115.6744 62.9112 0.0000 0.0000 0.0000
# 3 37.6042 62.9112 146.6630 0.0000 0.0000 0.0000
# 4 0.0000 0.0000 0.0000 48.4611 0.0000 0.0000
# 5 0.0000 0.0000 0.0000 0.0000 105.9355 0.0000
# 6 0.0000 0.0000 0.0000 0.0000 0.0000 23.6812
#
#
#
# Elastic Compliance Matrix: (Units=1/GPa)
#
#
# Indices 1 2 3 4 5 6 
#
# 1 0.041186 -0.006866 -0.007615 0.000000 0.000000 0.000000
# 2 -0.006866 0.012420 -0.003567 0.000000 0.000000 0.000000
# 3 -0.007615 -0.003567 0.010301 0.000000 0.000000 0.000000
# 4 0.000000 0.000000 0.000000 0.020635 0.000000 0.000000
# 5 0.000000 0.000000 0.000000 0.000000 0.009440 0.000000
# 6 0.000000 0.000000 0.000000 0.000000 0.000000 0.042228
#
#
# Mechanical properties :
#
#
# Convention : Reuss Voigt Hill
#
# Bulk Modulus (GPa) = 35.95757 62.39861 49.17809
# Shear Modulus (GPa) = 27.53675 46.76841 37.15258
#
# Velocity S-wave (km/s) = 3.57361 4.65722 4.15092
# Velocity P-wave (km/s) = 5.80547 7.60645 6.76615
#
# Compressibility (1/GPa) = 0.02781056
#
# Stress axis : x y z
#
# Youngs Moduli (GPa) = 24.28025 80.51451 97.07926
#
# Poissons Ratio (x) = 0.55284 0.73923
# Poissons Ratio (y) = 0.16672 0.34629
# Poissons Ratio (z) = 0.18489 0.28720
#
# Static dielectric constant tensor:
#      x y z
#    x 1.802610 0.000000 0.000000 
#    y 0.000000 1.804410 0.000000 
#    z 0.000000 0.000000 1.934480 
# 
# From -- ./inp_files/2759.got.cif
#   From: 2010.05.17/outbox.cif.g08.bks.cpg/sg45_2_cif.got.tgz:2759.got - 2010.06.03 19:51:22.
