data_PCOD9377601
_publ_section_title
;
Structure prediction by ZEFSAII (Michael W. Deem and Ramdas Pophale) SiO2 
 PCOD9377601
Probable space group: I B A 2
;
_chemical_formula_sum "Si O2"
_cell_formula_units_Z 44
_cell_length_a 13.206560
_cell_length_b 9.676932
_cell_length_c 15.161431
_cell_angle_alpha 90.000000
_cell_angle_beta 90.000000
_cell_angle_gamma 90.000000
_cell_volume 1937.615464
_symmetry_space_group_name_H-M "I B A 2"
_symmetry_group_IT_number 45
_symmetry_cell_setting 'orthorhombic'
loop_
_space_group_symop_operation_xyz
x,y,z
-x,-y,z
-x,y,1/2+z
x,-y,1/2+z
1/2+x,1/2+y,1/2+z
1/2-x,1/2-y,1/2+z
1/2-x,1/2+y,z
1/2+x,1/2-y,z
loop_
_atom_site_type_symbol
_atom_site_label
_atom_site_fract_x
_atom_site_fract_y
_atom_site_fract_z
Si Si1 0.210341 0.639094 0.688260
Si Si2 0.000000 0.000000 0.192334
Si Si3 0.316029 0.749218 0.940111
Si Si4 0.810827 0.017477 0.830194
Si Si5 0.479378 0.781472 0.088736
Si Si6 0.805237 0.376618 0.099159
O O1 0.221124 0.559088 0.777773
O O2 0.097161 0.674712 0.665131
O O3 0.241760 0.525931 0.614900
O O4 0.276136 0.776424 0.680429
O O5 0.013513 0.870368 0.124754
O O6 0.096653 0.034561 0.257911
O O7 0.349334 0.609243 0.890373
O O8 0.247171 0.858504 0.883093
O O9 0.415404 0.793082 0.997516
O O10 0.241550 0.695166 0.015522
O O11 0.576280 0.877537 0.087334
#
# Coordination Sequence:
#
# PCOD9377601 Si02
#       6
#     8   4   8   8   8   8
#     4  11  23  45  71 100 142 184 242 290 359 424
#     4  12  26  42  78 100 138 194 250 276 362 438
#     4  11  26  42  71 101 149 175 232 302 372 404
#     4  12  25  45  67 106 142 180 229 310 356 418
#     4  11  25  44  74 102 135 196 240 287 348 458
#     4  11  23  45  71 100 137 192 239 289 348 456
#
# _framework density 22.708323
#
# number of rings (size 3 to 8) (size 9 to 14) (size 15 to 20)
#    0.000    0.727    1.818    7.091    5.091    0.000 
#    0.000    0.000    0.000    0.000    0.000    0.000 
#    0.000    0.000    0.000    0.000    0.000    0.000 
#
# Total GULP energy -122619.071346 kJ/mol
# GULP energy per Si atom -5573.594152 kJ/mol
# Density = 2.265664 g / cm^3
# Si number density = 22.708323 Si / 1000 Ang^3
#
#
#
# Elastic Constant Matrix: (Units=GPa)
#
#
# Indices 1 2 3 4 5 6 
#
# 1 100.3339 17.8623 7.4111 0.0000 0.0000 0.0000
# 2 17.8623 112.2960 20.4402 0.0000 0.0000 0.0000
# 3 7.4111 20.4402 63.1182 0.0000 0.0000 0.0000
# 4 0.0000 0.0000 0.0000 46.7306 0.0000 0.0000
# 5 0.0000 0.0000 0.0000 0.0000 13.3245 0.0000
# 6 0.0000 0.0000 0.0000 0.0000 0.0000 28.1446
#
#
#
# Elastic Compliance Matrix: (Units=1/GPa)
#
#
# Indices 1 2 3 4 5 6 
#
# 1 0.010288 -0.001505 -0.000720 0.000000 0.000000 0.000000
# 2 -0.001505 0.009683 -0.002959 0.000000 0.000000 0.000000
# 3 -0.000720 -0.002959 0.016886 0.000000 0.000000 0.000000
# 4 0.000000 0.000000 0.000000 0.021399 0.000000 0.000000
# 5 0.000000 0.000000 0.000000 0.000000 0.075050 0.000000
# 6 0.000000 0.000000 0.000000 0.000000 0.000000 0.035531
#
#
# Mechanical properties :
#
#
# Convention : Reuss Voigt Hill
#
# Bulk Modulus (GPa) = 37.75363 40.79725 39.27544
# Shear Modulus (GPa) = 26.59069 32.97557 29.78313
#
# Velocity S-wave (km/s) = 3.42565 3.81482 3.62546
# Velocity P-wave (km/s) = 5.68404 6.11626 5.90411
#
# Compressibility (1/GPa) = 0.02648752
#
# Stress axis : x y z
#
# Youngs Moduli (GPa) = 97.20132 103.27294 59.22021
#
# Poissons Ratio (x) = 0.15546 0.04267
# Poissons Ratio (y) = 0.14632 0.17523
# Poissons Ratio (z) = 0.07003 0.30559
#
# Static dielectric constant tensor:
#      x y z
#    x 1.852690 0.000000 0.000000 
#    y 0.000000 2.274380 0.000000 
#    z 0.000000 0.000000 1.965640 
# 
# From -- ./inp_files/7521.got.cif
#   From: 2010.05.17/outbox.cif.g08.bks.cpg/sg45_4_cif.got.tgz:7521.got - 2010.06.03 19:51:22.
