data_PCOD9377034
_publ_section_title
;
Structure prediction by ZEFSAII (Michael W. Deem and Ramdas Pophale) SiO2 
 PCOD9377034
Probable space group: I B A 2
;
_chemical_formula_sum "Si O2"
_cell_formula_units_Z 48
_cell_length_a 19.268323
_cell_length_b 9.338630
_cell_length_c 12.430201
_cell_angle_alpha 90.000000
_cell_angle_beta 90.000000
_cell_angle_gamma 90.000000
_cell_volume 2236.687126
_symmetry_space_group_name_H-M "I B A 2"
_symmetry_group_IT_number 45
_symmetry_cell_setting 'orthorhombic'
loop_
_space_group_symop_operation_xyz
x,y,z
-x,-y,z
-x,y,1/2+z
x,-y,1/2+z
1/2+x,1/2+y,1/2+z
1/2-x,1/2-y,1/2+z
1/2-x,1/2+y,z
1/2+x,1/2-y,z
loop_
_atom_site_type_symbol
_atom_site_label
_atom_site_fract_x
_atom_site_fract_y
_atom_site_fract_z
Si Si1 0.951221 0.276397 0.582660
Si Si2 0.412845 0.898757 0.518205
Si Si3 0.687681 0.353343 0.016543
Si Si4 0.124016 0.313254 0.290522
Si Si5 0.707036 0.943424 0.178043
Si Si6 0.262910 0.621272 0.393745
O O1 0.933882 0.441683 0.554160
O O2 0.894296 0.176145 0.524817
O O3 0.935725 0.261063 0.709885
O O4 0.031445 0.275860 0.548574
O O5 0.404220 0.906021 0.389872
O O6 0.343698 0.876109 0.588827
O O7 0.717163 0.426172 0.125342
O O8 0.716632 0.460645 0.925551
O O9 0.725077 0.202360 0.991011
O O10 0.176981 0.402459 0.214367
O O11 0.166907 0.195165 0.354705
O O12 0.711157 0.867023 0.293024
#
# Coordination Sequence:
#
# PCOD9377034 Si02
#       6
#     8   8   8   8   8   8
#     4  10  23  40  66  96 138 176 219 281 335 408
#     4  10  22  41  66  98 134 178 226 276 330 413
#     4  12  24  40  66 103 136 175 227 283 345 398
#     4  11  21  41  63  97 130 174 224 275 345 394
#     4  11  21  39  66  99 133 173 225 283 337 401
#     4  12  23  38  64  98 135 173 220 284 339 406
#
# _framework density 21.46031
#
# number of rings (size 3 to 8) (size 9 to 14) (size 15 to 20)
#    0.000    1.000    5.000    3.000    0.000    6.667 
#    0.000    0.833    0.000    2.000    0.000    0.000 
#    0.000    0.000    0.000    0.000    0.000    0.000 
#
# Total GULP energy -133817.271469 kJ/mol
# GULP energy per Si atom -5575.719645 kJ/mol
# Density = 2.141146 g / cm^3
# Si number density = 21.460310 Si / 1000 Ang^3
#
#
#
# Elastic Constant Matrix: (Units=GPa)
#
#
# Indices 1 2 3 4 5 6 
#
# 1 83.8134 20.9380 17.7238 0.0000 0.0000 0.0000
# 2 20.9380 38.3070 2.5597 0.0000 0.0000 0.0000
# 3 17.7238 2.5597 109.2933 0.0000 0.0000 0.0000
# 4 0.0000 0.0000 0.0000 23.3300 0.0000 0.0000
# 5 0.0000 0.0000 0.0000 0.0000 24.8514 0.0000
# 6 0.0000 0.0000 0.0000 0.0000 0.0000 28.7145
#
#
#
# Elastic Compliance Matrix: (Units=1/GPa)
#
#
# Indices 1 2 3 4 5 6 
#
# 1 0.014301 -0.007674 -0.002139 0.000000 0.000000 0.000000
# 2 -0.007674 0.030263 0.000536 0.000000 0.000000 0.000000
# 3 -0.002139 0.000536 0.009484 0.000000 0.000000 0.000000
# 4 0.000000 0.000000 0.000000 0.042863 0.000000 0.000000
# 5 0.000000 0.000000 0.000000 0.000000 0.040239 0.000000
# 6 0.000000 0.000000 0.000000 0.000000 0.000000 0.034826
#
#
# Mechanical properties :
#
#
# Convention : Reuss Voigt Hill
#
# Bulk Modulus (GPa) = 28.17420 34.87296 31.52358
# Shear Modulus (GPa) = 24.70820 28.05866 26.38343
#
# Velocity S-wave (km/s) = 3.39683 3.61982 3.51009
# Velocity P-wave (km/s) = 5.34243 5.80999 5.58111
#
# Compressibility (1/GPa) = 0.03549347
#
# Stress axis : x y z
#
# Youngs Moduli (GPa) = 69.92685 33.04323 105.43984
#
# Poissons Ratio (x) = 0.25356 0.22558
# Poissons Ratio (y) = 0.53659 -0.05648
# Poissons Ratio (z) = 0.14960 -0.01770
#
# Static dielectric constant tensor:
#      x y z
#    x 1.873660 0.000000 0.000000 
#    y 0.000000 1.797050 0.000000 
#    z 0.000000 0.000000 1.808110 
# 
# From -- ./inp_files/4433.got.cif
#   From: 2010.05.17/outbox.cif.g08.bks.cpg/sg45_3_cif.got.tgz:4433.got - 2010.06.03 19:51:22.
