data_PCOD9377101
_publ_section_title
;
Structure prediction by ZEFSAII (Michael W. Deem and Ramdas Pophale) SiO2 
 PCOD9377101
Probable space group: I B A 2
;
_chemical_formula_sum "Si O2"
_cell_formula_units_Z 64
_cell_length_a 27.698995
_cell_length_b 18.047453
_cell_length_c 5.273752
_cell_angle_alpha 90.000000
_cell_angle_beta 90.000000
_cell_angle_gamma 90.000000
_cell_volume 2636.329167
_symmetry_space_group_name_H-M "I B A 2"
_symmetry_group_IT_number 45
_symmetry_cell_setting 'orthorhombic'
loop_
_space_group_symop_operation_xyz
x,y,z
-x,-y,z
-x,y,1/2+z
x,-y,1/2+z
1/2+x,1/2+y,1/2+z
1/2-x,1/2-y,1/2+z
1/2-x,1/2+y,z
1/2+x,1/2-y,z
loop_
_atom_site_type_symbol
_atom_site_label
_atom_site_fract_x
_atom_site_fract_y
_atom_site_fract_z
Si Si1 0.161554 0.352019 0.690600
Si Si2 0.074645 0.549014 0.395458
Si Si3 0.856102 0.180507 0.072580
Si Si4 0.819933 0.951650 0.857772
Si Si5 0.256995 0.701144 0.346104
Si Si6 0.060309 0.246294 0.298516
Si Si7 0.793534 0.451406 0.839110
Si Si8 0.956021 0.304627 0.296465
O O1 0.121605 0.399857 0.835510
O O2 0.153509 0.263888 0.671232
O O3 0.214278 0.357899 0.821586
O O4 0.171400 0.383205 0.406470
O O5 0.073007 0.508197 0.662997
O O6 0.033223 0.612331 0.384719
O O7 0.852017 0.119805 0.291350
O O8 0.809683 0.167066 0.891853
O O9 0.906720 0.182508 0.919261
O O10 0.763078 0.929851 0.844308
O O11 0.828516 0.008982 0.625676
O O12 0.243895 0.751705 0.588099
O O13 0.065915 0.309019 0.515379
O O14 0.002132 0.250138 0.266272
O O15 0.075743 0.267851 0.017846
O O16 0.802684 0.496325 0.584325
#
# Coordination Sequence:
#
# PCOD9377101 Si02
#       8
#     8   8   8   8   8   8   8   8
#     4  11  25  41  67  96 142 178 256 288 343 411
#     4  12  26  44  68 100 144 200 241 291 349 412
#     4  11  25  43  74  99 133 183 233 304 357 418
#     4  10  25  45  64  95 136 176 225 279 360 435
#     4  10  26  39  58  97 133 170 225 294 349 393
#     4  10  22  43  72  99 131 172 228 293 360 410
#     4  10  23  42  61  85 132 189 226 277 338 402
#     4  10  22  45  69 101 139 170 232 293 350 421
#
# _framework density 24.27618
#
# number of rings (size 3 to 8) (size 9 to 14) (size 15 to 20)
#    0.000    1.500    1.250    1.500   14.000    2.000 
#    0.000    7.500    0.000    0.000    0.000   10.500 
#    0.000    0.000    0.000    0.000    0.000    0.000 
#
# Total GULP energy -178865.147268 kJ/mol
# GULP energy per Si atom -5589.535852 kJ/mol
# Density = 2.422093 g / cm^3
# Si number density = 24.276180 Si / 1000 Ang^3
#
#
#
# Elastic Constant Matrix: (Units=GPa)
#
#
# Indices 1 2 3 4 5 6 
#
# 1 106.9082 34.2428 23.7671 0.0000 0.0000 0.0000
# 2 34.2428 108.0746 43.8299 0.0000 0.0000 0.0000
# 3 23.7671 43.8299 153.4893 0.0000 0.0000 0.0000
# 4 0.0000 0.0000 0.0000 45.0225 0.0000 0.0000
# 5 0.0000 0.0000 0.0000 0.0000 39.1472 0.0000
# 6 0.0000 0.0000 0.0000 0.0000 0.0000 23.8996
#
#
#
# Elastic Compliance Matrix: (Units=1/GPa)
#
#
# Indices 1 2 3 4 5 6 
#
# 1 0.010489 -0.003014 -0.000764 0.000000 0.000000 0.000000
# 2 -0.003014 0.011331 -0.002769 0.000000 0.000000 0.000000
# 3 -0.000764 -0.002769 0.007424 0.000000 0.000000 0.000000
# 4 0.000000 0.000000 0.000000 0.022211 0.000000 0.000000
# 5 0.000000 0.000000 0.000000 0.000000 0.025545 0.000000
# 6 0.000000 0.000000 0.000000 0.000000 0.000000 0.041842
#
#
# Mechanical properties :
#
#
# Convention : Reuss Voigt Hill
#
# Bulk Modulus (GPa) = 61.91467 63.57244 62.74355
# Shear Modulus (GPa) = 36.41209 39.38933 37.90071
#
# Velocity S-wave (km/s) = 3.87707 4.03246 3.95553
# Velocity P-wave (km/s) = 6.75292 6.92279 6.83838
#
# Compressibility (1/GPa) = 0.01615126
#
# Stress axis : x y z
#
# Youngs Moduli (GPa) = 95.33931 88.25607 134.69776
#
# Poissons Ratio (x) = 0.26597 0.10285
# Poissons Ratio (y) = 0.28732 0.37296
# Poissons Ratio (z) = 0.07280 0.24437
#
# Static dielectric constant tensor:
#      x y z
#    x 2.224650 0.000000 0.000000 
#    y 0.000000 1.963160 0.000000 
#    z 0.000000 0.000000 2.028880 
# 
# From -- ./inp_files/710.got.cif
#   From: 2010.05.17/outbox.cif.g08.bks.cpg/sg45_1_cif.got.tgz:710.got - 2010.06.03 19:51:22.
