data_PCOD9377516
_publ_section_title
;
Structure prediction by ZEFSAII (Michael W. Deem and Ramdas Pophale) SiO2 
 PCOD9377516
Probable space group: I B A 2
;
_chemical_formula_sum "Si O2"
_cell_formula_units_Z 48
_cell_length_a 8.504724
_cell_length_b 17.244081
_cell_length_c 13.630661
_cell_angle_alpha 90.000000
_cell_angle_beta 90.000000
_cell_angle_gamma 90.000000
_cell_volume 1999.020258
_symmetry_space_group_name_H-M "I B A 2"
_symmetry_group_IT_number 45
_symmetry_cell_setting 'orthorhombic'
loop_
_space_group_symop_operation_xyz
x,y,z
-x,-y,z
-x,y,1/2+z
x,-y,1/2+z
1/2+x,1/2+y,1/2+z
1/2-x,1/2-y,1/2+z
1/2-x,1/2+y,z
1/2+x,1/2-y,z
loop_
_atom_site_type_symbol
_atom_site_label
_atom_site_fract_x
_atom_site_fract_y
_atom_site_fract_z
Si Si1 0.122498 0.086070 0.144880
Si Si2 0.662600 0.855944 0.764059
Si Si3 0.955379 0.914855 0.852174
Si Si4 0.652949 0.953672 0.576478
Si Si5 0.631070 0.780916 0.178628
Si Si6 0.880574 0.171748 0.007055
O O1 0.257391 0.145895 0.173940
O O2 0.017496 0.076920 0.241225
O O3 0.012329 0.125109 0.066055
O O4 0.205635 0.013000 0.095558
O O5 0.767587 0.895563 0.849868
O O6 0.618965 0.922162 0.685749
O O7 0.506303 0.803822 0.754787
O O8 0.787790 0.795695 0.719610
O O9 0.000000 0.000000 0.895892
O O10 0.055627 0.844176 0.898615
O O11 0.717869 0.877172 0.519748
O O12 0.500000 0.000000 0.537981
O O13 0.609159 0.754536 0.063014
#
# Coordination Sequence:
#
# PCOD9377516 Si02
#       6
#     8   8   8   8   8   8
#     4  12  21  42  68  97 137 189 237 290 365 433
#     4  11  21  41  67  98 136 183 241 287 362 433
#     4  12  23  43  74 103 140 187 240 300 370 429
#     4  11  21  39  71  98 136 190 237 301 357 429
#     4  11  22  42  68  95 139 191 236 289 360 436
#     4  11  25  44  67 101 146 186 241 302 365 437
#
# _framework density 24.011762999999998
#
# number of rings (size 3 to 8) (size 9 to 14) (size 15 to 20)
#    0.000    0.667    8.333    1.500    0.000    0.000 
#    6.000    4.167    0.000    0.000    0.000    0.000 
#    0.000    0.000    0.000    0.000    0.000    0.000 
#
# Total GULP energy -133770.515961 kJ/mol
# GULP energy per Si atom -5573.771498 kJ/mol
# Density = 2.395711 g / cm^3
# Si number density = 24.011763 Si / 1000 Ang^3
#
#
#
# Elastic Constant Matrix: (Units=GPa)
#
#
# Indices 1 2 3 4 5 6 
#
# 1 117.6922 36.6706 2.1220 0.0000 0.0000 0.0000
# 2 36.6706 74.7466 -8.6447 0.0000 0.0000 0.0000
# 3 2.1220 -8.6447 30.2210 0.0000 0.0000 0.0000
# 4 0.0000 0.0000 0.0000 23.1587 0.0000 0.0000
# 5 0.0000 0.0000 0.0000 0.0000 20.8626 0.0000
# 6 0.0000 0.0000 0.0000 0.0000 0.0000 53.4386
#
#
#
# Elastic Compliance Matrix: (Units=1/GPa)
#
#
# Indices 1 2 3 4 5 6 
#
# 1 0.010171 -0.005246 -0.002215 0.000000 0.000000 0.000000
# 2 -0.005246 0.016542 0.005100 0.000000 0.000000 0.000000
# 3 -0.002215 0.005100 0.034704 0.000000 0.000000 0.000000
# 4 0.000000 0.000000 0.000000 0.043180 0.000000 0.000000
# 5 0.000000 0.000000 0.000000 0.000000 0.047933 0.000000
# 6 0.000000 0.000000 0.000000 0.000000 0.000000 0.018713
#
#
# Mechanical properties :
#
#
# Convention : Reuss Voigt Hill
#
# Bulk Modulus (GPa) = 17.63797 31.43952 24.53875
# Shear Modulus (GPa) = 25.65894 32.32608 28.99251
#
# Velocity S-wave (km/s) = 3.27249 3.67312 3.47858
# Velocity P-wave (km/s) = 4.65193 5.57772 5.13572
#
# Compressibility (1/GPa) = 0.05669586
#
# Stress axis : x y z
#
# Youngs Moduli (GPa) = 98.31605 60.45157 28.81511
#
# Poissons Ratio (x) = 0.31714 0.06382
# Poissons Ratio (y) = 0.51578 -0.14696
# Poissons Ratio (z) = 0.21776 -0.30832
#
# Static dielectric constant tensor:
#      x y z
#    x 1.943260 0.000000 0.000000 
#    y 0.000000 2.039130 0.000000 
#    z 0.000000 0.000000 2.053770 
# 
# From -- ./inp_files/5609.got.cif
#   From: 2010.05.17/outbox.cif.g08.bks.cpg/sg45_3_cif.got.tgz:5609.got - 2010.06.03 19:51:22.
