data_PCOD9377504
_publ_section_title
;
Structure prediction by ZEFSAII (Michael W. Deem and Ramdas Pophale) SiO2 
 PCOD9377504
Probable space group: I B A 2
;
_chemical_formula_sum "Si O2"
_cell_formula_units_Z 64
_cell_length_a 14.619728
_cell_length_b 18.051919
_cell_length_c 11.511194
_cell_angle_alpha 90.000000
_cell_angle_beta 90.000000
_cell_angle_gamma 90.000000
_cell_volume 3037.966930
_symmetry_space_group_name_H-M "I B A 2"
_symmetry_group_IT_number 45
_symmetry_cell_setting 'orthorhombic'
loop_
_space_group_symop_operation_xyz
x,y,z
-x,-y,z
-x,y,1/2+z
x,-y,1/2+z
1/2+x,1/2+y,1/2+z
1/2-x,1/2-y,1/2+z
1/2-x,1/2+y,z
1/2+x,1/2-y,z
loop_
_atom_site_type_symbol
_atom_site_label
_atom_site_fract_x
_atom_site_fract_y
_atom_site_fract_z
Si Si1 0.426922 0.183760 0.573650
Si Si2 0.662793 0.775511 0.330082
Si Si3 0.060134 0.154674 0.204218
Si Si4 0.850330 0.182781 0.937712
Si Si5 0.873956 0.673912 0.579775
Si Si6 0.797273 0.082184 0.531063
Si Si7 0.259254 0.074645 0.601728
Si Si8 0.877899 0.895066 0.789436
O O1 0.394936 0.205299 0.444199
O O2 0.437353 0.260898 0.649112
O O3 0.524382 0.142755 0.565166
O O4 0.348736 0.126356 0.616257
O O5 0.768035 0.783840 0.362098
O O6 0.644086 0.824643 0.217216
O O7 0.640827 0.692276 0.297099
O O8 0.075791 0.161806 0.342609
O O9 0.140129 0.110438 0.137960
O O10 0.968083 0.104632 0.207908
O O11 0.883443 0.243562 0.028271
O O12 0.806010 0.117361 0.010902
O O13 0.784731 0.641493 0.516854
O O14 0.866664 0.076675 0.421690
O O15 0.738904 0.008240 0.554164
O O16 0.205931 0.068862 0.722005
#
# Coordination Sequence:
#
# PCOD9377504 Si02
#       8
#     8   8   8   8   8   8   8   8
#     4  11  24  41  72 102 133 174 229 294 342 406
#     4  11  20  40  67 101 133 169 223 290 348 388
#     4  12  24  42  70 104 128 171 236 286 343 401
#     4  11  22  40  67  96 133 172 218 293 334 398
#     4  12  23  42  72 100 131 177 234 286 341 409
#     4  12  28  45  65 100 140 187 225 275 349 432
#     4  11  27  45  62  97 143 180 224 273 351 412
#     4  12  24  43  70  97 134 178 230 287 338 410
#
# _framework density 21.066721000000001
#
# number of rings (size 3 to 8) (size 9 to 14) (size 15 to 20)
#    0.000    0.500    6.250    2.250    3.500    1.000 
#    0.000    0.000    0.000    3.000    0.000    0.000 
#    0.000    0.000    0.000    0.000    0.000    0.000 
#
# Total GULP energy -178534.904339 kJ/mol
# GULP energy per Si atom -5579.215761 kJ/mol
# Density = 2.101877 g / cm^3
# Si number density = 21.066721 Si / 1000 Ang^3
#
#
#
# Elastic Constant Matrix: (Units=GPa)
#
#
# Indices 1 2 3 4 5 6 
#
# 1 74.6390 -0.4778 11.5754 0.0000 0.0000 0.0000
# 2 -0.4778 44.9601 -2.0391 0.0000 0.0000 0.0000
# 3 11.5754 -2.0391 57.3133 0.0000 0.0000 0.0000
# 4 0.0000 0.0000 0.0000 0.9740 0.0000 0.0000
# 5 0.0000 0.0000 0.0000 0.0000 44.4627 0.0000
# 6 0.0000 0.0000 0.0000 0.0000 0.0000 -0.1365
#
#
#
# Elastic Compliance Matrix: (Units=1/GPa)
#
#
# Indices 1 2 3 4 5 6 
#
# 1 0.013831 0.000020 -0.002793 0.000000 0.000000 0.000000
# 2 0.000020 0.022278 0.000789 0.000000 0.000000 0.000000
# 3 -0.002793 0.000789 0.018040 0.000000 0.000000 0.000000
# 4 0.000000 0.000000 0.000000 1.026684 0.000000 -0.000001
# 5 0.000000 0.000000 0.000000 0.000000 0.022491 0.000000
# 6 0.000000 0.000000 0.000000 -0.000001 0.000000 -7.326382
#
#
# Mechanical properties :
#
#
# Convention : Reuss Voigt Hill
#
# Bulk Modulus (GPa) = 19.92774 21.66993 20.79884
# Shear Modulus (GPa) = -0.80614 20.25030 9.72208
#
# Velocity S-wave (km/s) = -0.61927 3.10376 2.15056
# Velocity P-wave (km/s) = 2.99476 4.81177 4.00760
#
# Compressibility (1/GPa) = 0.05018130
#
# Stress axis : x y z
#
# Youngs Moduli (GPa) = 72.30107 44.88752 55.43221
#
# Poissons Ratio (x) = -0.00091 0.15481
# Poissons Ratio (y) = -0.00147 -0.04371
# Poissons Ratio (z) = 0.20192 -0.03539
#
# Static dielectric constant tensor:
#      x y z
#    x 1.824690 0.000000 0.000000 
#    y 0.000000 1.775360 0.000000 
#    z 0.000000 0.000000 1.816790 
# 
# From -- ./inp_files/4290.got.cif
#   From: 2010.05.17/outbox.cif.g08.bks.cpg/sg45_3_cif.got.tgz:4290.got - 2010.06.03 19:51:22.
