data_PCOD9377430
_publ_section_title
;
Structure prediction by ZEFSAII (Michael W. Deem and Ramdas Pophale) SiO2 
 PCOD9377430
Probable space group: I B A 2
;
_chemical_formula_sum "Si O2"
_cell_formula_units_Z 44
_cell_length_a 9.513497
_cell_length_b 15.781172
_cell_length_c 11.653927
_cell_angle_alpha 90.000000
_cell_angle_beta 90.000000
_cell_angle_gamma 90.000000
_cell_volume 1749.652220
_symmetry_space_group_name_H-M "I B A 2"
_symmetry_group_IT_number 45
_symmetry_cell_setting 'orthorhombic'
loop_
_space_group_symop_operation_xyz
x,y,z
-x,-y,z
-x,y,1/2+z
x,-y,1/2+z
1/2+x,1/2+y,1/2+z
1/2-x,1/2-y,1/2+z
1/2-x,1/2+y,z
1/2+x,1/2-y,z
loop_
_atom_site_type_symbol
_atom_site_label
_atom_site_fract_x
_atom_site_fract_y
_atom_site_fract_z
Si Si1 0.691804 0.096342 0.792670
Si Si2 0.303456 0.384490 0.018765
Si Si3 0.253125 0.585205 0.878641
Si Si4 0.594142 0.156229 0.192459
Si Si5 0.000000 0.000000 0.368843
Si Si6 0.893107 0.843801 0.107615
O O1 0.722103 0.152254 0.907037
O O2 0.565921 0.130187 0.713867
O O3 0.832427 0.101762 0.714785
O O4 0.666611 0.001221 0.843302
O O5 0.384042 0.461652 0.955294
O O6 0.184026 0.406728 0.110807
O O7 0.440624 0.343874 0.076408
O O8 0.161655 0.655984 0.817703
O O9 0.402819 0.570501 0.813134
O O10 0.300910 0.621563 0.001164
O O11 0.630134 0.245885 0.136556
#
# Coordination Sequence:
#
# PCOD9377430 Si02
#       6
#     8   8   8   8   4   8
#     4  11  27  50  76 115 164 213 271 347 425 501
#     4  10  25  45  77 110 153 208 274 329 406 502
#     4  10  25  47  77 114 160 214 274 337 407 504
#     4  12  27  45  79 117 163 211 265 347 432 494
#     4   8  20  46  74 108 146 198 266 328 380 488
#     4  11  27  50  78 113 166 213 283 337 417 510
#
# _framework density 25.147855
#
# number of rings (size 3 to 8) (size 9 to 14) (size 15 to 20)
#    0.000    1.455    0.000    1.636   20.364    1.455 
#    0.000    0.000    0.000    0.000    0.000    0.000 
#    0.000    0.000    0.000    0.000    0.000    0.000 
#
# Total GULP energy -122507.726498 kJ/mol
# GULP energy per Si atom -5568.533023 kJ/mol
# Density = 2.509062 g / cm^3
# Si number density = 25.147855 Si / 1000 Ang^3
#
#
#
# Elastic Constant Matrix: (Units=GPa)
#
#
# Indices 1 2 3 4 5 6 
#
# 1 144.4619 6.4350 44.0456 0.0000 0.0000 0.0000
# 2 6.4350 92.0291 17.2413 0.0000 0.0000 0.0000
# 3 44.0456 17.2413 113.4982 0.0000 0.0000 0.0000
# 4 0.0000 0.0000 0.0000 23.1425 0.0000 0.0000
# 5 0.0000 0.0000 0.0000 0.0000 58.5990 0.0000
# 6 0.0000 0.0000 0.0000 0.0000 0.0000 18.9998
#
#
#
# Elastic Compliance Matrix: (Units=1/GPa)
#
#
# Indices 1 2 3 4 5 6 
#
# 1 0.007851 0.000022 -0.003050 0.000000 0.000000 0.000000
# 2 0.000022 0.011184 -0.001708 0.000000 0.000000 0.000000
# 3 -0.003050 -0.001708 0.010254 0.000000 0.000000 0.000000
# 4 0.000000 0.000000 0.000000 0.043211 0.000000 0.000000
# 5 0.000000 0.000000 0.000000 0.000000 0.017065 0.000000
# 6 0.000000 0.000000 0.000000 0.000000 0.000000 0.052632
#
#
# Mechanical properties :
#
#
# Convention : Reuss Voigt Hill
#
# Bulk Modulus (GPa) = 50.45785 53.93701 52.19743
# Shear Modulus (GPa) = 31.59061 38.96606 35.27834
#
# Velocity S-wave (km/s) = 3.54813 3.94061 3.74951
# Velocity P-wave (km/s) = 6.07402 6.49608 6.28859
#
# Compressibility (1/GPa) = 0.01981852
#
# Stress axis : x y z
#
# Youngs Moduli (GPa) = 127.36819 89.40953 97.52420
#
# Poissons Ratio (x) = -0.00201 0.29748
# Poissons Ratio (y) = -0.00286 0.16655
# Poissons Ratio (z) = 0.38851 0.15269
#
# Static dielectric constant tensor:
#      x y z
#    x 2.269820 0.000000 0.000000 
#    y 0.000000 2.414730 0.000000 
#    z 0.000000 0.000000 2.078140 
# 
# From -- ./inp_files/3642.got.cif
#   From: 2010.05.17/outbox.cif.g08.bks.cpg/sg45_2_cif.got.tgz:3642.got - 2010.06.03 19:51:22.
