data_PCOD9377148
_publ_section_title
;
Structure prediction by ZEFSAII (Michael W. Deem and Ramdas Pophale) SiO2 
 PCOD9377148
Probable space group: I B A 2
;
_chemical_formula_sum "Si O2"
_cell_formula_units_Z 36
_cell_length_a 7.001806
_cell_length_b 24.615349
_cell_length_c 8.803651
_cell_angle_alpha 90.000000
_cell_angle_beta 90.000000
_cell_angle_gamma 90.000000
_cell_volume 1517.325962
_symmetry_space_group_name_H-M "I B A 2"
_symmetry_group_IT_number 45
_symmetry_cell_setting 'orthorhombic'
loop_
_space_group_symop_operation_xyz
x,y,z
-x,-y,z
-x,y,1/2+z
x,-y,1/2+z
1/2+x,1/2+y,1/2+z
1/2-x,1/2-y,1/2+z
1/2-x,1/2+y,z
1/2+x,1/2-y,z
loop_
_atom_site_type_symbol
_atom_site_label
_atom_site_fract_x
_atom_site_fract_y
_atom_site_fract_z
Si Si1 0.598224 0.279323 0.288900
Si Si2 0.297207 0.342743 0.488624
Si Si3 0.874056 0.317716 0.550951
Si Si4 0.000000 0.000000 0.320555
Si Si5 0.387111 0.423366 0.057183
O O1 0.666831 0.317907 0.154984
O O2 0.913059 0.190760 0.360290
O O3 0.742801 0.283731 0.431897
O O4 0.578615 0.223149 0.191734
O O5 0.405472 0.399741 0.506544
O O6 0.070536 0.337621 0.474144
O O7 0.751895 0.372135 0.578409
O O8 0.901566 0.043117 0.210066
O O9 0.150182 0.033134 0.424378
#
# Coordination Sequence:
#
# PCOD9377148 Si02
#       5
#     8   8   8   4   8
#     4  11  29  45  69 110 158 205 253 297 382 447
#     4  11  27  48  74 109 156 202 250 315 371 469
#     4  11  28  48  75 109 155 207 257 309 367 479
#     4  10  22  48  78 100 154 192 250 356 388 428
#     4  10  23  48  74 109 143 199 260 314 398 445
#
# _framework density 23.725947999999999
#
# number of rings (size 3 to 8) (size 9 to 14) (size 15 to 20)
#    0.000    1.333    0.000    2.667    9.333   10.667 
#    0.000    6.667    0.000    0.000    0.000    0.000 
#    0.000    0.000    0.000    0.000    0.000    0.000 
#
# Total GULP energy -100564.663510 kJ/mol
# GULP energy per Si atom -5586.925751 kJ/mol
# Density = 2.367195 g / cm^3
# Si number density = 23.725948 Si / 1000 Ang^3
#
#
#
# Elastic Constant Matrix: (Units=GPa)
#
#
# Indices 1 2 3 4 5 6 
#
# 1 150.3404 42.0700 40.8569 -0.0001 0.0000 0.0000
# 2 42.0700 160.5923 76.0950 -0.0001 0.0001 0.0000
# 3 40.8569 76.0950 163.3259 -0.0002 0.0006 -0.0001
# 4 -0.0001 -0.0001 -0.0002 61.4398 0.0001 0.0000
# 5 0.0000 0.0001 0.0006 0.0001 29.1326 0.0000
# 6 0.0000 0.0000 -0.0001 0.0000 0.0000 34.6812
#
#
#
# Elastic Compliance Matrix: (Units=1/GPa)
#
#
# Indices 1 2 3 4 5 6 
#
# 1 0.007359 -0.001355 -0.001210 0.000000 0.000000 0.000000
# 2 -0.001355 0.008240 -0.003500 0.000000 0.000000 0.000000
# 3 -0.001210 -0.003500 0.008056 0.000000 0.000000 0.000000
# 4 0.000000 0.000000 0.000000 0.016276 0.000000 0.000000
# 5 0.000000 0.000000 0.000000 0.000000 0.034326 0.000000
# 6 0.000000 0.000000 0.000000 0.000000 0.000000 0.028834
#
#
# Mechanical properties :
#
#
# Convention : Reuss Voigt Hill
#
# Bulk Modulus (GPa) = 86.75828 88.03359 87.39593
# Shear Modulus (GPa) = 41.99419 46.06652 44.03035
#
# Velocity S-wave (km/s) = 4.21166 4.41115 4.31256
# Velocity P-wave (km/s) = 7.76512 7.94539 7.85577
#
# Compressibility (1/GPa) = 0.01152628
#
# Stress axis : x y z
#
# Youngs Moduli (GPa) = 135.87984 121.35238 124.12705
#
# Poissons Ratio (x) = 0.16439 0.15018
# Poissons Ratio (y) = 0.18407 0.43450
# Poissons Ratio (z) = 0.16440 0.42479
#
# Static dielectric constant tensor:
#      x y z
#    x 2.062550 0.000000 0.000000 
#    y 0.000000 1.962470 0.000000 
#    z 0.000000 0.000000 1.915830 
# 
# From -- ./inp_files/936.got.cif
#   From: 2010.05.17/outbox.cif.g08.bks.cpg/sg45_1_cif.got.tgz:936.got - 2010.06.03 19:51:22.
