data_PCOD9377841
_publ_section_title
;
Structure prediction by ZEFSAII (Michael W. Deem and Ramdas Pophale) SiO2 
 PCOD9377841
Probable space group: I M A 2
;
_chemical_formula_sum "Si O2"
_cell_formula_units_Z 48
_cell_length_a 13.560072
_cell_length_b 13.011770
_cell_length_c 12.875940
_cell_angle_alpha 90.000000
_cell_angle_beta 90.000000
_cell_angle_gamma 90.000000
_cell_volume 2271.837781
_symmetry_space_group_name_H-M "I M A 2"
_symmetry_group_IT_number 46
_symmetry_cell_setting 'orthorhombic'
loop_
_space_group_symop_operation_xyz
x,y,z
-x,-y,z
1/2-x,y,z
1/2+x,-y,z
1/2+x,1/2+y,1/2+z
1/2-x,1/2-y,1/2+z
-x,1/2+y,1/2+z
x,1/2-y,1/2+z
loop_
_atom_site_type_symbol
_atom_site_label
_atom_site_fract_x
_atom_site_fract_y
_atom_site_fract_z
Si Si1 0.635050 0.522815 0.717170
Si Si2 0.132000 0.900320 0.019359
Si Si3 0.634393 0.328698 0.104215
Si Si4 0.135009 0.284392 0.842801
Si Si5 0.558353 0.129106 0.391407
Si Si6 0.037682 0.650972 0.314988
O O1 0.750000 0.498870 0.729440
O O2 0.607858 0.487676 0.602725
O O3 0.624563 0.643478 0.740552
O O4 0.583800 0.453127 0.804205
O O5 0.250000 0.898696 0.001680
O O6 0.106564 0.789767 0.073219
O O7 0.077549 0.914509 0.910342
O O8 0.750000 0.329576 0.130500
O O9 0.571874 0.373075 0.199582
O O10 0.614256 0.389628 0.997848
O O11 0.250000 0.278459 0.871395
O O12 0.057845 0.347361 0.916117
O O13 0.078473 0.177552 0.824411
O O14 0.588677 0.237787 0.340067
#
# Coordination Sequence:
#
# PCOD9377841 Si02
#       6
#     8   8   8   8   8   8
#     4  10  17  29  50  76 104 130 164 219 273 316
#     4   9  16  26  45  74 103 131 162 211 276 320
#     4  10  17  27  44  72 102 129 163 211 274 323
#     4   9  19  32  47  70 101 138 177 211 252 314
#     4   9  18  28  45  68  99 130 167 215 263 312
#     4   9  18  29  46  69 105 132 168 209 262 319
#
# _framework density 21.128267999999998
#
# number of rings (size 3 to 8) (size 9 to 14) (size 15 to 20)
#    1.000    1.667    1.667    1.500    0.000    1.333 
#    0.000    0.833    0.000    0.000    0.000   16.333 
#    0.000   10.667    0.000    0.000    0.000    0.000 
#
# Total GULP energy -133615.724263 kJ/mol
# GULP energy per Si atom -5567.321844 kJ/mol
# Density = 2.108018 g / cm^3
# Si number density = 21.128268 Si / 1000 Ang^3
#
#
#
# Elastic Constant Matrix: (Units=GPa)
#
#
# Indices 1 2 3 4 5 6 
#
# 1 120.4446 8.3000 20.5464 0.0000 0.0000 0.0000
# 2 8.3000 24.9676 13.5018 0.0000 0.0000 0.0000
# 3 20.5464 13.5018 97.3722 0.0000 0.0000 0.0000
# 4 0.0000 0.0000 0.0000 -24.4944 0.0000 0.0000
# 5 0.0000 0.0000 0.0000 0.0000 -23.9316 0.0000
# 6 0.0000 0.0000 0.0000 0.0000 0.0000 20.2152
#
#
#
# Elastic Compliance Matrix: (Units=1/GPa)
#
#
# Indices 1 2 3 4 5 6 
#
# 1 0.008709 -0.002056 -0.001553 0.000000 0.000000 0.000000
# 2 -0.002056 0.043784 -0.005637 0.000000 0.000000 0.000000
# 3 -0.001553 -0.005637 0.011379 0.000000 0.000000 0.000000
# 4 0.000000 0.000000 0.000000 -0.040826 0.000000 0.000000
# 5 0.000000 0.000000 0.000000 0.000000 -0.041786 0.000000
# 6 0.000000 0.000000 0.000000 0.000000 0.000000 0.049468
#
#
# Mechanical properties :
#
#
# Convention : Reuss Voigt Hill
#
# Bulk Modulus (GPa) = 22.03571 36.38677 29.21124
# Shear Modulus (GPa) = 77.70441 7.72027 42.71234
#
# Velocity S-wave (km/s) = 6.07102 1.91362 4.50107
# Velocity P-wave (km/s) = 7.71979 4.70551 6.39285
#
# Compressibility (1/GPa) = 0.04538088
#
# Stress axis : x y z
#
# Youngs Moduli (GPa) = 114.82257 22.83949 87.87975
#
# Poissons Ratio (x) = 0.04695 0.13645
# Poissons Ratio (y) = 0.23602 0.49541
# Poissons Ratio (z) = 0.17828 0.12876
#
# Static dielectric constant tensor:
#      x y z
#    x 1.814210 0.000000 0.000000 
#    y 0.000000 1.807620 0.000000 
#    z 0.000000 0.000000 1.745220 
# 
# From -- ./inp_files/11070.got.cif
#   From: 2010.05.17/outbox.cif.g08.bks.cpg/sg46_6_cif.got.tgz:11070.got - 2010.06.03 19:58:25.
