data_PCOD9377917
_publ_section_title
;
Structure prediction by ZEFSAII (Michael W. Deem and Ramdas Pophale) SiO2 
 PCOD9377917
Probable space group: I M A 2
;
_chemical_formula_sum "Si O2"
_cell_formula_units_Z 40
_cell_length_a 11.310066
_cell_length_b 19.906862
_cell_length_c 7.570991
_cell_angle_alpha 90.000000
_cell_angle_beta 90.000000
_cell_angle_gamma 90.000000
_cell_volume 1704.592899
_symmetry_space_group_name_H-M "I M A 2"
_symmetry_group_IT_number 46
_symmetry_cell_setting 'orthorhombic'
loop_
_space_group_symop_operation_xyz
x,y,z
-x,-y,z
1/2-x,y,z
1/2+x,-y,z
1/2+x,1/2+y,1/2+z
1/2-x,1/2-y,1/2+z
-x,1/2+y,1/2+z
x,1/2-y,1/2+z
loop_
_atom_site_type_symbol
_atom_site_label
_atom_site_fract_x
_atom_site_fract_y
_atom_site_fract_z
Si Si1 0.250000 0.545179 0.452510
Si Si2 0.250000 0.348833 0.605863
Si Si3 0.750000 0.146132 0.661471
Si Si4 0.500000 0.000000 0.792452
Si Si5 0.559080 0.934473 0.244326
Si Si6 0.250000 0.974227 0.374915
Si Si7 0.499496 0.139078 0.572853
Si Si8 0.250000 0.297576 0.008003
O O1 0.250000 0.618176 0.360567
O O2 0.131717 0.510165 0.377892
O O3 0.250000 0.548712 0.667326
O O4 0.133471 0.393997 0.601022
O O5 0.250000 0.282610 0.494090
O O6 0.250000 0.326131 0.810670
O O7 0.750000 0.081793 0.524095
O O8 0.620633 0.177623 0.625708
O O9 0.506378 0.929337 0.685457
O O10 0.487019 0.883689 0.366198
O O11 0.500000 0.000000 0.163845
O O12 0.642494 0.973519 0.384316
O O13 0.374605 0.177928 0.590783
#
# Coordination Sequence:
#
# PCOD9377917 Si02
#       8
#     4   4   4   4   8   4   8   4
#     4  10  22  30  46  79 122 159 200 245 329 395
#     4   9  22  37  59  87 128 162 219 254 308 403
#     4  10  19  35  55  84 119 158 199 266 321 372
#     4  10  18  34  48  86 120 156 212 266 324 370
#     4  10  17  33  59  90 118 160 207 267 327 374
#     4  11  20  31  53  82 131 154 195 258 329 386
#     4  10  18  33  63  83 119 162 218 264 315 387
#     4  10  21  41  59  90 122 179 209 247 319 396
#
# _framework density 23.466013
#
# number of rings (size 3 to 8) (size 9 to 14) (size 15 to 20)
#    0.000    2.000    3.000    2.400    1.400    0.000 
#    7.200    0.000    0.000    7.200    0.000    0.000 
#    0.000    0.000    0.000    0.000    0.000    0.000 
#
# Total GULP energy -111458.236018 kJ/mol
# GULP energy per Si atom -5572.911801 kJ/mol
# Density = 2.341260 g / cm^3
# Si number density = 23.466013 Si / 1000 Ang^3
#
#
#
# Elastic Constant Matrix: (Units=GPa)
#
#
# Indices 1 2 3 4 5 6 
#
# 1 184.7093 31.8475 32.4028 -0.0001 0.0001 0.0001
# 2 31.8475 84.9671 8.9587 -0.0006 0.0000 0.0001
# 3 32.4028 8.9587 71.8366 -0.0016 -0.0005 -0.0001
# 4 -0.0001 -0.0006 -0.0016 20.8850 -0.0001 0.0001
# 5 0.0001 0.0000 -0.0005 -0.0001 12.7289 0.0000
# 6 0.0001 0.0001 -0.0001 0.0001 0.0000 22.5977
#
#
#
# Elastic Compliance Matrix: (Units=1/GPa)
#
#
# Indices 1 2 3 4 5 6 
#
# 1 0.006216 -0.002061 -0.002547 0.000000 0.000000 0.000000
# 2 -0.002061 0.012610 -0.000643 0.000000 0.000000 0.000000
# 3 -0.002547 -0.000643 0.015149 0.000001 0.000001 0.000000
# 4 0.000000 0.000000 0.000001 0.047881 0.000000 0.000000
# 5 0.000000 0.000000 0.000001 0.000000 0.078561 0.000000
# 6 0.000000 0.000000 0.000000 0.000000 0.000000 0.044252
#
#
# Mechanical properties :
#
#
# Convention : Reuss Voigt Hill
#
# Bulk Modulus (GPa) = 42.60146 54.21455 48.40800
# Shear Modulus (GPa) = 22.42189 29.12927 25.77558
#
# Velocity S-wave (km/s) = 3.09448 3.52709 3.31784
# Velocity P-wave (km/s) = 5.56432 6.30402 5.94569
#
# Compressibility (1/GPa) = 0.02347337
#
# Stress axis : x y z
#
# Youngs Moduli (GPa) = 160.87233 79.30415 66.00926
#
# Poissons Ratio (x) = 0.16348 0.16811
# Poissons Ratio (y) = 0.33162 0.04243
# Poissons Ratio (z) = 0.40971 0.05097
#
# Static dielectric constant tensor:
#      x y z
#    x 2.168970 0.000000 0.000000 
#    y 0.000000 1.874770 0.000000 
#    z 0.000000 0.000000 1.949250 
# 
# From -- ./inp_files/4504.got.cif
#   From: 2010.05.17/outbox.cif.g08.bks.cpg/sg46_3_cif.got.tgz:4504.got - 2010.06.03 19:58:25.
