data_PCOD9377052
_publ_section_title
;
Structure prediction by ZEFSAII (Michael W. Deem and Ramdas Pophale) SiO2 
 PCOD9377052
Probable space group: I B A 2
;
_chemical_formula_sum "Si O2"
_cell_formula_units_Z 60
_cell_length_a 11.112339
_cell_length_b 9.010436
_cell_length_c 27.999189
_cell_angle_alpha 90.000000
_cell_angle_beta 90.000000
_cell_angle_gamma 90.000000
_cell_volume 2803.475339
_symmetry_space_group_name_H-M "I B A 2"
_symmetry_group_IT_number 45
_symmetry_cell_setting 'orthorhombic'
loop_
_space_group_symop_operation_xyz
x,y,z
-x,-y,z
-x,y,1/2+z
x,-y,1/2+z
1/2+x,1/2+y,1/2+z
1/2-x,1/2-y,1/2+z
1/2-x,1/2+y,z
1/2+x,1/2-y,z
loop_
_atom_site_type_symbol
_atom_site_label
_atom_site_fract_x
_atom_site_fract_y
_atom_site_fract_z
Si Si1 0.000000 0.500000 0.711120
Si Si2 0.788104 0.663043 0.069387
Si Si3 0.357016 0.680514 0.369020
Si Si4 0.639674 0.500795 0.709106
Si Si5 0.628492 0.354512 0.901495
Si Si6 0.373499 0.563812 0.012109
Si Si7 0.166431 0.411581 0.633695
Si Si8 0.808375 0.301872 0.763989
O O1 0.930787 0.611835 0.675245
O O2 0.903976 0.419349 0.743902
O O3 0.719919 0.552946 0.033524
O O4 0.858170 0.779298 0.037354
O O5 0.867999 0.551695 0.100757
O O6 0.704313 0.768139 0.103283
O O7 0.350700 0.500473 0.368190
O O8 0.494186 0.708532 0.388613
O O9 0.241045 0.741897 0.398068
O O10 0.334147 0.761623 0.318622
O O11 0.500000 0.500000 0.698405
O O12 0.717256 0.519442 0.661096
O O13 0.682498 0.368973 0.744671
O O14 0.670226 0.649700 0.737125
O O15 0.629239 0.416744 0.955304
O O16 0.500000 0.500000 0.026554
#
# Coordination Sequence:
#
# PCOD9377052 Si02
#       8
#     4   8   8   8   8   8   8   8
#     4  10  24  40  66  94 144 174 232 284 328 412
#     4  10  24  41  66 102 130 178 230 286 339 421
#     4  11  25  45  74 104 144 178 242 283 355 418
#     4  11  26  43  70  98 145 189 232 292 341 409
#     4  11  25  47  73 106 139 186 223 303 351 435
#     4  11  23  45  71  97 138 175 226 285 360 409
#     4  10  22  42  63 100 137 182 233 274 348 398
#     4  11  26  43  69 101 136 187 234 283 346 407
#
# _framework density 21.402007000000001
#
# number of rings (size 3 to 8) (size 9 to 14) (size 15 to 20)
#    0.000    1.333    1.333    3.200   11.200    3.733 
#    0.000    0.000    0.000    0.000    0.000    0.000 
#    0.000    0.000    0.000    0.000    0.000    0.000 
#
# Total GULP energy -167513.415138 kJ/mol
# GULP energy per Si atom -5583.780505 kJ/mol
# Density = 2.135330 g / cm^3
# Si number density = 21.402007 Si / 1000 Ang^3
#
#
#
# Elastic Constant Matrix: (Units=GPa)
#
#
# Indices 1 2 3 4 5 6 
#
# 1 132.5849 29.5025 27.7660 0.0000 0.0000 0.0000
# 2 29.5025 75.9665 23.8036 0.0000 0.0000 0.0000
# 3 27.7660 23.8036 98.9272 0.0000 0.0000 0.0000
# 4 0.0000 0.0000 0.0000 23.5572 0.0000 0.0000
# 5 0.0000 0.0000 0.0000 0.0000 10.4727 0.0000
# 6 0.0000 0.0000 0.0000 0.0000 0.0000 17.9558
#
#
#
# Elastic Compliance Matrix: (Units=1/GPa)
#
#
# Indices 1 2 3 4 5 6 
#
# 1 0.008520 -0.002768 -0.001725 0.000000 0.000000 0.000000
# 2 -0.002768 0.015137 -0.002865 0.000000 0.000000 0.000000
# 3 -0.001725 -0.002865 0.011282 0.000000 0.000000 0.000000
# 4 0.000000 0.000000 0.000000 0.042450 0.000000 0.000000
# 5 0.000000 0.000000 0.000000 0.000000 0.095486 0.000000
# 6 0.000000 0.000000 0.000000 0.000000 0.000000 0.055692
#
#
# Mechanical properties :
#
#
# Convention : Reuss Voigt Hill
#
# Bulk Modulus (GPa) = 49.45289 52.18032 50.81660
# Shear Modulus (GPa) = 19.99808 25.49090 22.74449
#
# Velocity S-wave (km/s) = 3.06012 3.45491 3.26349
# Velocity P-wave (km/s) = 5.97014 6.35210 6.16408
#
# Compressibility (1/GPa) = 0.02022127
#
# Stress axis : x y z
#
# Youngs Moduli (GPa) = 117.37681 66.06536 88.63634
#
# Poissons Ratio (x) = 0.18288 0.15291
# Poissons Ratio (y) = 0.32491 0.25396
# Poissons Ratio (z) = 0.20249 0.18929
#
# Static dielectric constant tensor:
#      x y z
#    x 1.811700 0.000000 0.000000 
#    y 0.000000 1.751970 0.000000 
#    z 0.000000 0.000000 1.854580 
# 
# From -- ./inp_files/10036.got.cif
#   From: 2010.05.17/outbox.cif.g08.bks.cpg/sg45_6_cif.got.tgz:10036.got - 2010.06.03 19:51:22.
