data_PCOD9377825
_publ_section_title
;
Structure prediction by ZEFSAII (Michael W. Deem and Ramdas Pophale) SiO2 
 PCOD9377825
Probable space group: I M A 2
;
_chemical_formula_sum "Si O2"
_cell_formula_units_Z 64
_cell_length_a 14.919325
_cell_length_b 9.948618
_cell_length_c 17.942127
_cell_angle_alpha 90.000000
_cell_angle_beta 90.000000
_cell_angle_gamma 90.000000
_cell_volume 2663.090078
_symmetry_space_group_name_H-M "I M A 2"
_symmetry_group_IT_number 46
_symmetry_cell_setting 'orthorhombic'
loop_
_space_group_symop_operation_xyz
x,y,z
-x,-y,z
1/2-x,y,z
1/2+x,-y,z
1/2+x,1/2+y,1/2+z
1/2-x,1/2-y,1/2+z
-x,1/2+y,1/2+z
x,1/2-y,1/2+z
loop_
_atom_site_type_symbol
_atom_site_label
_atom_site_fract_x
_atom_site_fract_y
_atom_site_fract_z
Si Si1 0.451219 0.317927 0.385990
Si Si2 0.400812 0.470737 0.854692
Si Si3 0.956182 0.689237 0.559410
Si Si4 0.645321 0.912476 0.754031
Si Si5 0.652438 0.238425 0.054169
Si Si6 0.845589 0.244382 0.883557
Si Si7 0.644667 0.894426 0.196564
Si Si8 0.854689 0.539482 0.095486
O O1 0.388053 0.183900 0.378196
O O2 0.452311 0.352880 0.473035
O O3 0.407961 0.424757 0.330278
O O4 0.552549 0.285868 0.357352
O O5 0.500000 0.500000 0.882913
O O6 0.343040 0.592961 0.883846
O O7 0.395524 0.477854 0.764824
O O8 0.898310 0.600042 0.615458
O O9 0.916304 0.841476 0.564662
O O10 0.058811 0.689758 0.586896
O O11 0.750000 0.928203 0.768854
O O12 0.631228 0.760736 0.722748
O O13 0.619964 0.997286 0.681189
O O14 0.750000 0.207816 0.089225
O O15 0.642784 0.400429 0.052271
O O16 0.655176 0.193021 0.968407
O O17 0.750000 0.200757 0.847762
O O18 0.750000 0.920695 0.193372
O O19 0.750000 0.586669 0.096837
#
# Coordination Sequence:
#
# PCOD9377825 Si02
#       8
#     8   8   8   8   8   8   8   8
#     4   9  17  26  39  62  88 111 139 173 215 261
#     4   9  16  27  44  64  87 113 141 175 216 259
#     4  10  17  26  41  62  89 116 139 173 216 258
#     4   8  15  26  39  56  82 112 140 172 210 251
#     4   9  17  27  41  63  90 117 144 172 208 256
#     4   9  16  26  41  63  89 115 140 170 210 257
#     4   9  17  28  41  61  88 117 146 176 212 255
#     4   9  16  26  40  59  83 113 144 173 210 257
#
# _framework density 24.032232
#
# number of rings (size 3 to 8) (size 9 to 14) (size 15 to 20)
#    0.000    3.000    0.000    2.625    0.000    3.500 
#    0.000    0.000    0.000   12.750    0.000    5.250 
#    0.000    0.000    0.000    0.000    0.000    0.000 
#
# Total GULP energy -178565.133560 kJ/mol
# GULP energy per Si atom -5580.160424 kJ/mol
# Density = 2.397753 g / cm^3
# Si number density = 24.032232 Si / 1000 Ang^3
#
#
#
# Elastic Constant Matrix: (Units=GPa)
#
#
# Indices 1 2 3 4 5 6 
#
# 1 113.9142 -10.0198 33.9265 0.0000 0.0000 0.0000
# 2 -10.0198 49.4853 10.8329 0.0000 0.0000 0.0000
# 3 33.9265 10.8329 114.6528 0.0000 0.0000 0.0000
# 4 0.0000 0.0000 0.0000 10.7507 0.0000 0.0000
# 5 0.0000 0.0000 0.0000 0.0000 19.4960 0.0000
# 6 0.0000 0.0000 0.0000 0.0000 0.0000 -0.4463
#
#
#
# Elastic Compliance Matrix: (Units=1/GPa)
#
#
# Indices 1 2 3 4 5 6 
#
# 1 0.009973 0.002722 -0.003208 0.000000 0.000000 0.000000
# 2 0.002722 0.021378 -0.002825 0.000000 0.000000 0.000000
# 3 -0.003208 -0.002825 0.009938 0.000000 0.000000 0.000000
# 4 0.000000 0.000000 0.000000 0.093017 0.000000 0.000000
# 5 0.000000 0.000000 0.000000 0.000000 0.051292 0.000000
# 6 0.000000 0.000000 0.000000 0.000000 0.000000 -2.240622
#
#
# Mechanical properties :
#
#
# Convention : Reuss Voigt Hill
#
# Bulk Modulus (GPa) = 28.84697 38.61462 33.73080
# Shear Modulus (GPa) = -2.45478 22.18093 9.86308
#
# Velocity S-wave (km/s) = -1.01177 3.04133 2.02806
# Velocity P-wave (km/s) = 3.26567 5.33251 4.42155
#
# Compressibility (1/GPa) = 0.03466568
#
# Stress axis : x y z
#
# Youngs Moduli (GPa) = 100.26596 46.77796 100.62073
#
# Poissons Ratio (x) = -0.12732 0.32283
# Poissons Ratio (y) = -0.27290 0.28428
# Poissons Ratio (z) = 0.32169 0.13216
#
# Static dielectric constant tensor:
#      x y z
#    x 1.991810 0.000000 0.000000 
#    y 0.000000 1.947650 0.000000 
#    z 0.000000 0.000000 1.943430 
# 
# From -- ./inp_files/19626.got.cif
#   From: 2010.05.17/outbox.cif.g08.bks.cpg/sg46_10_cif.got.tgz:19626.got - 2010.06.03 19:58:25.
