data_PCOD9377698
_publ_section_title
;
Structure prediction by ZEFSAII (Michael W. Deem and Ramdas Pophale) SiO2 
 PCOD9377698
Probable space group: I B A 2
;
_chemical_formula_sum "Si O2"
_cell_formula_units_Z 52
_cell_length_a 20.327701
_cell_length_b 7.205934
_cell_length_c 14.545809
_cell_angle_alpha 90.000000
_cell_angle_beta 90.000000
_cell_angle_gamma 90.000000
_cell_volume 2130.671146
_symmetry_space_group_name_H-M "I B A 2"
_symmetry_group_IT_number 45
_symmetry_cell_setting 'orthorhombic'
loop_
_space_group_symop_operation_xyz
x,y,z
-x,-y,z
-x,y,1/2+z
x,-y,1/2+z
1/2+x,1/2+y,1/2+z
1/2-x,1/2-y,1/2+z
1/2-x,1/2+y,z
1/2+x,1/2-y,z
loop_
_atom_site_type_symbol
_atom_site_label
_atom_site_fract_x
_atom_site_fract_y
_atom_site_fract_z
Si Si1 0.154888 0.103084 0.547380
Si Si2 0.591145 0.155872 0.826618
Si Si3 0.588985 0.763713 0.539097
Si Si4 0.836769 0.716569 0.355685
Si Si5 0.286331 0.419876 0.284302
Si Si6 0.000000 0.500000 0.678059
Si Si7 0.292015 0.010483 0.101439
O O1 0.155513 0.772996 0.297663
O O2 0.100029 0.950286 0.569053
O O3 0.171811 0.289853 0.604751
O O4 0.140988 0.183616 0.447724
O O5 0.537936 0.144242 0.745545
O O6 0.612489 0.940926 0.831729
O O7 0.570908 0.219800 0.930149
O O8 0.542826 0.874428 0.608904
O O9 0.657851 0.873017 0.552324
O O10 0.765515 0.619193 0.365604
O O11 0.822779 0.883443 0.285936
O O12 0.723172 0.509561 0.548435
O O13 0.234490 0.438213 0.199888
#
# Coordination Sequence:
#
# PCOD9377698 Si02
#       7
#     8   8   8   8   8   4   8
#     4  12  24  43  77 118 161 204 247 316 420 500
#     4  12  27  52  80 110 159 217 276 339 407 484
#     4  12  27  53  79 110 161 218 271 345 409 481
#     4  12  23  42  74 117 152 197 248 314 409 501
#     4  12  25  40  74 120 166 196 242 317 407 501
#     4  12  32  54  80 108 148 226 298 362 390 462
#     4  12  25  41  75 126 162 195 249 320 410 507
#
# _framework density 24.405455
#
# number of rings (size 3 to 8) (size 9 to 14) (size 15 to 20)
#    0.000    0.000    6.154    4.154    4.308    1.231 
#    0.000    3.077    0.000    0.000    0.000    0.000 
#    0.000    0.000    0.000    0.000    0.000    0.000 
#
# Total GULP energy -145326.125323 kJ/mol
# GULP energy per Si atom -5589.466359 kJ/mol
# Density = 2.434991 g / cm^3
# Si number density = 24.405455 Si / 1000 Ang^3
#
#
#
# Elastic Constant Matrix: (Units=GPa)
#
#
# Indices 1 2 3 4 5 6 
#
# 1 60.0744 29.6371 25.7172 0.0000 0.0000 0.0000
# 2 29.6371 154.4197 32.6222 0.0000 0.0000 0.0000
# 3 25.7172 32.6222 120.9879 0.0000 0.0000 0.0000
# 4 0.0000 0.0000 0.0000 8.4758 0.0000 0.0000
# 5 0.0000 0.0000 0.0000 0.0000 19.7384 0.0000
# 6 0.0000 0.0000 0.0000 0.0000 0.0000 9.7653
#
#
#
# Elastic Compliance Matrix: (Units=1/GPa)
#
#
# Indices 1 2 3 4 5 6 
#
# 1 0.019582 -0.003053 -0.003339 0.000000 0.000000 0.000000
# 2 -0.003053 0.007343 -0.001331 0.000000 0.000000 0.000000
# 3 -0.003339 -0.001331 0.009334 0.000000 0.000000 0.000000
# 4 0.000000 0.000000 0.000000 0.117984 0.000000 0.000000
# 5 0.000000 0.000000 0.000000 0.000000 0.050663 0.000000
# 6 0.000000 0.000000 0.000000 0.000000 0.000000 0.102404
#
#
# Mechanical properties :
#
#
# Convention : Reuss Voigt Hill
#
# Bulk Modulus (GPa) = 48.04782 56.82612 52.43697
# Shear Modulus (GPa) = 15.16568 24.09626 19.63097
#
# Velocity S-wave (km/s) = 2.49550 3.14559 2.83922
# Velocity P-wave (km/s) = 5.29466 6.04382 5.68160
#
# Compressibility (1/GPa) = 0.02081260
#
# Stress axis : x y z
#
# Youngs Moduli (GPa) = 51.06857 136.18517 107.13602
#
# Poissons Ratio (x) = 0.41574 0.35774
# Poissons Ratio (y) = 0.15590 0.14260
# Poissons Ratio (z) = 0.17052 0.18126
#
# Static dielectric constant tensor:
#      x y z
#    x 1.917440 0.000000 0.000000 
#    y 0.000000 1.970640 0.000000 
#    z 0.000000 0.000000 2.089800 
# 
# From -- ./inp_files/7024.got.cif
#   From: 2010.05.17/outbox.cif.g08.bks.cpg/sg45_4_cif.got.tgz:7024.got - 2010.06.03 19:51:22.
