data_PCOD9377137
_publ_section_title
;
Structure prediction by ZEFSAII (Michael W. Deem and Ramdas Pophale) SiO2 
 PCOD9377137
Probable space group: I B A 2
;
_chemical_formula_sum "Si O2"
_cell_formula_units_Z 40
_cell_length_a 15.061953
_cell_length_b 10.976010
_cell_length_c 9.846547
_cell_angle_alpha 90.000000
_cell_angle_beta 90.000000
_cell_angle_gamma 90.000000
_cell_volume 1627.832595
_symmetry_space_group_name_H-M "I B A 2"
_symmetry_group_IT_number 45
_symmetry_cell_setting 'orthorhombic'
loop_
_space_group_symop_operation_xyz
x,y,z
-x,-y,z
-x,y,1/2+z
x,-y,1/2+z
1/2+x,1/2+y,1/2+z
1/2-x,1/2-y,1/2+z
1/2-x,1/2+y,z
1/2+x,1/2-y,z
loop_
_atom_site_type_symbol
_atom_site_label
_atom_site_fract_x
_atom_site_fract_y
_atom_site_fract_z
Si Si1 0.500000 0.500000 0.057050
Si Si2 0.094564 0.679882 0.705423
Si Si3 0.706210 0.237520 0.951790
Si Si4 0.451246 0.339049 0.309097
Si Si5 0.500000 0.000000 0.048906
Si Si6 0.685287 0.976065 0.899651
O O1 0.450006 0.412909 0.166804
O O2 0.553861 0.421784 0.945436
O O3 0.154517 0.743575 0.594208
O O4 0.155640 0.566195 0.750222
O O5 0.047028 0.769908 0.811416
O O6 0.008049 0.620606 0.637223
O O7 0.634452 0.255681 0.830575
O O8 0.772190 0.350499 0.950493
O O9 0.740233 0.099206 0.925293
O O10 0.410934 0.000655 0.963914
#
# Coordination Sequence:
#
# PCOD9377137 Si02
#       6
#     4   8   8   8   4   8
#     4  10  24  40  72 110 158 194 250 310 394 446
#     4  11  22  44  75 107 148 203 265 311 392 459
#     4  11  26  47  72 115 148 206 258 328 392 447
#     4  11  22  47  71 112 148 205 254 316 380 479
#     4  10  22  46  72 108 140 204 262 312 380 474
#     4  11  26  47  74 109 157 197 260 319 390 462
#
# _framework density 24.572552999999999
#
# number of rings (size 3 to 8) (size 9 to 14) (size 15 to 20)
#    0.000    1.200    2.000    4.200    0.000    8.000 
#    7.200    0.000    0.000    0.000    0.000    0.000 
#    0.000    0.000    0.000    0.000    0.000    0.000 
#
# Total GULP energy -111574.306131 kJ/mol
# GULP energy per Si atom -5578.715307 kJ/mol
# Density = 2.451662 g / cm^3
# Si number density = 24.572553 Si / 1000 Ang^3
#
#
#
# Elastic Constant Matrix: (Units=GPa)
#
#
# Indices 1 2 3 4 5 6 
#
# 1 59.5666 45.8296 13.5308 0.0000 0.0000 0.0000
# 2 45.8296 159.2600 28.6229 0.0000 0.0000 0.0000
# 3 13.5308 28.6229 92.4155 0.0000 0.0000 0.0000
# 4 0.0000 0.0000 0.0000 52.9739 0.0000 0.0000
# 5 0.0000 0.0000 0.0000 0.0000 -2.4426 0.0000
# 6 0.0000 0.0000 0.0000 0.0000 0.0000 50.5776
#
#
#
# Elastic Compliance Matrix: (Units=1/GPa)
#
#
# Indices 1 2 3 4 5 6 
#
# 1 0.021712 -0.006011 -0.001317 0.000000 0.000000 0.000000
# 2 -0.006011 0.008313 -0.001695 0.000000 0.000000 0.000000
# 3 -0.001317 -0.001695 0.011538 0.000000 0.000000 0.000000
# 4 0.000000 0.000000 0.000000 0.018877 0.000000 0.000000
# 5 0.000000 0.000000 0.000000 0.000000 -0.409396 0.000000
# 6 0.000000 0.000000 0.000000 0.000000 0.000000 0.019772
#
#
# Mechanical properties :
#
#
# Convention : Reuss Voigt Hill
#
# Bulk Modulus (GPa) = 42.52105 54.13432 48.32769
# Shear Modulus (GPa) = -16.48547 35.10569 9.31011
#
# Velocity S-wave (km/s) = -2.59296 3.78386 1.94860
# Velocity P-wave (km/s) = 2.89435 6.41625 4.97723
#
# Compressibility (1/GPa) = 0.02351776
#
# Stress axis : x y z
#
# Youngs Moduli (GPa) = 46.05721 120.28674 86.66692
#
# Poissons Ratio (x) = 0.72308 0.11415
# Poissons Ratio (y) = 0.27686 0.14688
# Poissons Ratio (z) = 0.06066 0.20385
#
# Static dielectric constant tensor:
#      x y z
#    x 1.953970 0.000000 0.000000 
#    y 0.000000 2.109020 0.000000 
#    z 0.000000 0.000000 2.072980 
# 
# From -- ./inp_files/2039.got.cif
#   From: 2010.05.17/outbox.cif.g08.bks.cpg/sg45_2_cif.got.tgz:2039.got - 2010.06.03 19:51:22.
