data_PCOD9377857
_publ_section_title
;
Structure prediction by ZEFSAII (Michael W. Deem and Ramdas Pophale) SiO2 
 PCOD9377857
Probable space group: I M A 2
;
_chemical_formula_sum "Si O2"
_cell_formula_units_Z 56
_cell_length_a 17.474788
_cell_length_b 19.399392
_cell_length_c 7.221143
_cell_angle_alpha 90.000000
_cell_angle_beta 90.000000
_cell_angle_gamma 90.000000
_cell_volume 2447.969373
_symmetry_space_group_name_H-M "I M A 2"
_symmetry_group_IT_number 46
_symmetry_cell_setting 'orthorhombic'
loop_
_space_group_symop_operation_xyz
x,y,z
-x,-y,z
1/2-x,y,z
1/2+x,-y,z
1/2+x,1/2+y,1/2+z
1/2-x,1/2-y,1/2+z
-x,1/2+y,1/2+z
x,1/2-y,1/2+z
loop_
_atom_site_type_symbol
_atom_site_label
_atom_site_fract_x
_atom_site_fract_y
_atom_site_fract_z
Si Si1 0.893443 0.878343 0.125000
Si Si2 0.750000 0.804005 0.218421
Si Si3 0.067205 0.830338 0.538856
Si Si4 0.055009 0.829827 0.098388
Si Si5 0.411440 0.404715 0.073197
Si Si6 0.340169 0.957888 0.532032
Si Si7 0.090170 0.523934 0.629449
Si Si8 0.750000 0.651702 0.142070
O O1 0.822991 0.829083 0.109604
O O2 0.904276 0.892531 0.348318
O O3 0.966532 0.838897 0.048283
O O4 0.880379 0.953674 0.038796
O O5 0.750000 0.838128 0.419213
O O6 0.750000 0.723973 0.240438
O O7 0.059538 0.838527 0.318819
O O8 0.079948 0.748623 0.564668
O O9 0.136117 0.881209 0.593974
O O10 0.988317 0.862442 0.621877
O O11 0.091333 0.902147 0.027412
O O12 0.403288 0.486907 0.104211
O O13 0.333727 0.379768 0.170742
O O14 0.250000 0.973477 0.566580
O O15 0.357614 0.964327 0.311355
O O16 0.000000 0.500000 0.668625
#
# Coordination Sequence:
#
# PCOD9377857 Si02
#       8
#     8   4   8   8   8   8   8   4
#     4   8  15  26  45  68  91 120 152 195 226 271
#     4  10  18  26  42  68  97 118 152 180 233 280
#     4  10  19  31  50  69  99 122 157 192 240 276
#     4   9  17  31  47  70  93 124 153 195 233 279
#     4   9  16  29  47  69  94 121 155 194 235 271
#     4  10  17  28  47  72  93 120 160 203 234 265
#     4   8  15  28  47  69  92 118 157 198 236 265
#     4  10  18  28  44  70  95 124 148 186 231 286
#
# _framework density 22.876101999999999
#
# number of rings (size 3 to 8) (size 9 to 14) (size 15 to 20)
#    0.000    2.857    0.714    3.857    3.000    0.000 
#    0.000    2.857    0.000    6.857    0.000    0.000 
#    0.000    0.000    0.000    0.000    0.000    0.000 
#
# Total GULP energy -155905.991794 kJ/mol
# GULP energy per Si atom -5568.071135 kJ/mol
# Density = 2.282404 g / cm^3
# Si number density = 22.876102 Si / 1000 Ang^3
#
#
#
# Elastic Constant Matrix: (Units=GPa)
#
#
# Indices 1 2 3 4 5 6 
#
# 1 41.1779 22.1548 11.0195 0.0000 0.0000 0.0000
# 2 22.1548 148.6232 -2.2871 0.0000 0.0000 0.0000
# 3 11.0195 -2.2871 64.2865 0.0000 0.0000 0.0000
# 4 0.0000 0.0000 0.0000 38.8665 0.0000 0.0000
# 5 0.0000 0.0000 0.0000 0.0000 -114.7640 0.0000
# 6 0.0000 0.0000 0.0000 0.0000 0.0000 38.0523
#
#
#
# Elastic Compliance Matrix: (Units=1/GPa)
#
#
# Indices 1 2 3 4 5 6 
#
# 1 0.027881 -0.004232 -0.004930 0.000000 0.000000 0.000000
# 2 -0.004232 0.007374 0.000988 0.000000 0.000000 0.000000
# 3 -0.004930 0.000988 0.016436 0.000000 0.000000 0.000000
# 4 0.000000 0.000000 0.000000 0.025729 0.000000 0.000000
# 5 0.000000 0.000000 0.000000 0.000000 -0.008714 0.000000
# 6 0.000000 0.000000 0.000000 0.000000 0.000000 0.026280
#
#
# Mechanical properties :
#
#
# Convention : Reuss Voigt Hill
#
# Bulk Modulus (GPa) = 28.29402 35.09577 31.69490
# Shear Modulus (GPa) = 40.61236 7.31098 23.96167
#
# Velocity S-wave (km/s) = 4.21802 1.78965 3.23995
# Velocity P-wave (km/s) = 6.00979 4.43232 5.28029
#
# Compressibility (1/GPa) = 0.03534316
#
# Stress axis : x y z
#
# Youngs Moduli (GPa) = 35.86665 135.60276 60.84378
#
# Poissons Ratio (x) = 0.57387 0.29994
# Poissons Ratio (y) = 0.15179 -0.06010
# Poissons Ratio (z) = 0.17681 -0.13395
#
# Static dielectric constant tensor:
#      x y z
#    x 2.573070 0.000000 0.000000 
#    y 0.000000 1.923320 0.000000 
#    z 0.000000 0.000000 1.948710 
# 
# From -- ./inp_files/12028.got.cif
#   From: 2010.05.17/outbox.cif.g08.bks.cpg/sg46_7_cif.got.tgz:12028.got - 2010.06.03 19:58:25.
