data_PCOD9377757
_publ_section_title
;
Structure prediction by ZEFSAII (Michael W. Deem and Ramdas Pophale) SiO2 
 PCOD9377757
Probable space group: I M A 2
;
_chemical_formula_sum "Si O2"
_cell_formula_units_Z 48
_cell_length_a 16.877429
_cell_length_b 22.701759
_cell_length_c 5.383340
_cell_angle_alpha 90.000000
_cell_angle_beta 90.000000
_cell_angle_gamma 90.000000
_cell_volume 2062.612324
_symmetry_space_group_name_H-M "I M A 2"
_symmetry_group_IT_number 46
_symmetry_cell_setting 'orthorhombic'
loop_
_space_group_symop_operation_xyz
x,y,z
-x,-y,z
1/2-x,y,z
1/2+x,-y,z
1/2+x,1/2+y,1/2+z
1/2-x,1/2-y,1/2+z
-x,1/2+y,1/2+z
x,1/2-y,1/2+z
loop_
_atom_site_type_symbol
_atom_site_label
_atom_site_fract_x
_atom_site_fract_y
_atom_site_fract_z
Si Si1 0.406213 0.483659 0.851910
Si Si2 0.490830 0.665769 0.107530
Si Si3 0.368493 0.884198 0.291190
Si Si4 0.166051 0.287001 0.092043
Si Si5 0.666223 0.318040 0.285340
Si Si6 0.942592 0.943627 0.858525
O O1 0.500000 0.500000 0.879490
O O2 0.364985 0.545529 0.787660
O O3 0.397422 0.440385 0.618741
O O4 0.387489 0.456194 0.119660
O O5 0.579159 0.686357 0.070669
O O6 0.421762 0.708205 0.224072
O O7 0.500840 0.610753 0.294716
O O8 0.457148 0.638925 0.851939
O O9 0.338526 0.852743 0.044224
O O10 0.330223 0.861646 0.548685
O O11 0.250000 0.321385 0.065503
O O12 0.167651 0.259535 0.367098
O O13 0.750000 0.283351 0.285759
O O14 0.000000 0.000000 0.886640
#
# Coordination Sequence:
#
# PCOD9377757 Si02
#       6
#     8   8   8   8   8   8
#     4  10  15  27  43  76 111 147 196 241 285 340
#     4  10  22  35  65  89 115 164 211 244 315 385
#     4  10  19  31  52  84 112 163 208 240 292 355
#     4  10  24  45  69  96 124 153 200 271 334 384
#     4  10  20  33  52  83 119 155 200 243 282 345
#     4  10  17  27  49  82 115 150 196 241 292 361
#
# _framework density 23.271457999999999
#
# number of rings (size 3 to 8) (size 9 to 14) (size 15 to 20)
#    1.000    1.000    3.333    3.500    2.333    0.000 
#    0.000    0.000    0.000   12.000    0.000    0.000 
#    0.000    0.000    0.000    0.000    0.000    0.000 
#
# Total GULP energy -133603.263584 kJ/mol
# GULP energy per Si atom -5566.802649 kJ/mol
# Density = 2.321849 g / cm^3
# Si number density = 23.271458 Si / 1000 Ang^3
#
#
#
# Elastic Constant Matrix: (Units=GPa)
#
#
# Indices 1 2 3 4 5 6 
#
# 1 172.1561 24.9023 8.2999 0.0000 0.0000 0.0000
# 2 24.9023 22.0567 7.3439 0.0000 0.0000 0.0000
# 3 8.2999 7.3439 161.3637 0.0000 0.0000 0.0000
# 4 0.0000 0.0000 0.0000 9.9701 0.0000 0.0000
# 5 0.0000 0.0000 0.0000 0.0000 77.7203 0.0000
# 6 0.0000 0.0000 0.0000 0.0000 0.0000 7.9904
#
#
#
# Elastic Compliance Matrix: (Units=1/GPa)
#
#
# Indices 1 2 3 4 5 6 
#
# 1 0.006942 -0.007838 0.000000 0.000000 0.000000 0.000000
# 2 -0.007838 0.054884 -0.002095 0.000000 0.000000 0.000000
# 3 0.000000 -0.002095 0.006293 0.000000 0.000000 0.000000
# 4 0.000000 0.000000 0.000000 0.100300 0.000000 0.000000
# 5 0.000000 0.000000 0.000000 0.000000 0.012867 0.000000
# 6 0.000000 0.000000 0.000000 0.000000 0.000000 0.125149
#
#
# Mechanical properties :
#
#
# Convention : Reuss Voigt Hill
#
# Bulk Modulus (GPa) = 20.72406 48.51874 34.62140
# Shear Modulus (GPa) = 14.60340 40.13819 27.37079
#
# Velocity S-wave (km/s) = 2.50776 4.15755 3.43323
# Velocity P-wave (km/s) = 4.16051 6.62882 5.53404
#
# Compressibility (1/GPa) = 0.04825310
#
# Stress axis : x y z
#
# Youngs Moduli (GPa) = 144.04120 18.22016 158.91844
#
# Poissons Ratio (x) = 0.14281 0.00006
# Poissons Ratio (y) = 1.12899 0.33289
# Poissons Ratio (z) = 0.00005 0.03817
#
# Static dielectric constant tensor:
#      x y z
#    x 1.961960 0.000000 0.000000 
#    y 0.000000 1.911560 0.000000 
#    z 0.000000 0.000000 1.940240 
# 
# From -- ./inp_files/1705.got.cif
#   From: 2010.05.17/outbox.cif.g08.bks.cpg/sg46_1_cif.got.tgz:1705.got - 2010.06.03 19:58:25.
