data_PCOD9377177
_publ_section_title
;
Structure prediction by ZEFSAII (Michael W. Deem and Ramdas Pophale) SiO2 
 PCOD9377177
Probable space group: I B A 2
;
_chemical_formula_sum "Si O2"
_cell_formula_units_Z 56
_cell_length_a 8.881638
_cell_length_b 15.188013
_cell_length_c 19.213846
_cell_angle_alpha 90.000000
_cell_angle_beta 90.000000
_cell_angle_gamma 90.000000
_cell_volume 2591.840870
_symmetry_space_group_name_H-M "I B A 2"
_symmetry_group_IT_number 45
_symmetry_cell_setting 'orthorhombic'
loop_
_space_group_symop_operation_xyz
x,y,z
-x,-y,z
-x,y,1/2+z
x,-y,1/2+z
1/2+x,1/2+y,1/2+z
1/2-x,1/2-y,1/2+z
1/2-x,1/2+y,z
1/2+x,1/2-y,z
loop_
_atom_site_type_symbol
_atom_site_label
_atom_site_fract_x
_atom_site_fract_y
_atom_site_fract_z
Si Si1 0.302126 0.653734 0.012370
Si Si2 0.444253 0.251983 0.921788
Si Si3 0.330790 0.964993 0.028784
Si Si4 0.685354 0.126803 0.880474
Si Si5 0.329378 0.526455 0.264611
Si Si6 0.096964 0.807599 0.667829
Si Si7 0.754531 0.135780 0.168498
O O1 0.277157 0.549229 0.018366
O O2 0.333402 0.685616 0.090463
O O3 0.439022 0.685760 0.963398
O O4 0.154322 0.697552 0.977902
O O5 0.537631 0.185892 0.873143
O O6 0.330049 0.310043 0.877547
O O7 0.286542 0.905068 0.093784
O O8 0.500000 0.000000 0.039340
O O9 0.323939 0.908960 0.958754
O O10 0.718538 0.049462 0.827327
O O11 0.500000 0.500000 0.287340
O O12 0.342248 0.612624 0.215320
O O13 0.266892 0.445448 0.220726
O O14 0.140648 0.710825 0.693055
O O15 0.918883 0.820720 0.663402
#
# Coordination Sequence:
#
# PCOD9377177 Si02
#       7
#     8   8   8   8   8   8   8
#     4  11  21  41  68 101 137 174 226 287 343 405
#     4  10  23  41  67 101 131 180 229 280 346 409
#     4  12  25  41  69 105 140 174 231 292 344 400
#     4  11  24  44  67  99 138 178 229 284 342 409
#     4  10  25  46  66 102 140 182 236 282 345 417
#     4  11  23  43  72 101 139 183 227 288 349 408
#     4  11  25  46  73 103 140 181 234 285 345 412
#
# _framework density 21.606263999999999
#
# number of rings (size 3 to 8) (size 9 to 14) (size 15 to 20)
#    0.000    1.143    2.857    3.429    4.000    3.429 
#    2.571    2.143    0.000    0.000    0.000    0.000 
#    0.000    0.000    0.000    0.000    0.000    0.000 
#
# Total GULP energy -156776.958444 kJ/mol
# GULP energy per Si atom -5599.177087 kJ/mol
# Density = 2.155709 g / cm^3
# Si number density = 21.606264 Si / 1000 Ang^3
#
#
#
# Elastic Constant Matrix: (Units=GPa)
#
#
# Indices 1 2 3 4 5 6 
#
# 1 112.3162 65.1561 58.2952 0.0000 0.0000 0.0000
# 2 65.1561 141.3320 35.0899 0.0000 0.0000 0.0000
# 3 58.2952 35.0899 47.6711 0.0000 0.0000 0.0000
# 4 0.0000 0.0000 0.0000 0.4241 0.0000 0.0000
# 5 0.0000 0.0000 0.0000 0.0000 -731.9888 0.0000
# 6 0.0000 0.0000 0.0000 0.0000 0.0000 15.2033
#
#
#
# Elastic Compliance Matrix: (Units=1/GPa)
#
#
# Indices 1 2 3 4 5 6 
#
# 1 0.027215 -0.005242 -0.029422 0.000000 0.000000 0.000000
# 2 -0.005242 0.009667 -0.000706 0.000000 0.000000 0.000000
# 3 -0.029422 -0.000706 0.057476 0.000000 0.000000 0.000000
# 4 0.000000 0.000000 0.000000 2.357964 0.000000 0.000000
# 5 0.000000 0.000000 0.000000 0.000000 -0.001366 0.000000
# 6 0.000000 0.000000 0.000000 0.000000 0.000000 0.065775
#
#
# Mechanical properties :
#
#
# Convention : Reuss Voigt Hill
#
# Bulk Modulus (GPa) = 42.33922 68.71131 55.52527
# Shear Modulus (GPa) = 1.92653 -133.75375 -65.91361
#
# Velocity S-wave (km/s) = 0.94530 -7.87651 -5.52928
# Velocity P-wave (km/s) = 4.56397 7.13083 3.87420
#
# Compressibility (1/GPa) = 0.02361876
#
# Stress axis : x y z
#
# Youngs Moduli (GPa) = 36.74444 103.44115 17.39858
#
# Poissons Ratio (x) = 0.54220 0.51190
# Poissons Ratio (y) = 0.19260 0.01229
# Poissons Ratio (z) = 1.08109 0.07305
#
# Static dielectric constant tensor:
#      x y z
#    x 1.918160 0.000000 0.000000 
#    y 0.000000 1.800870 0.000000 
#    z 0.000000 0.000000 1.770270 
# 
# From -- ./inp_files/8871.got.cif
#   From: 2010.05.17/outbox.cif.g08.bks.cpg/sg45_5_cif.got.tgz:8871.got - 2010.06.03 19:51:22.
