data_PCOD9377093
_publ_section_title
;
Structure prediction by ZEFSAII (Michael W. Deem and Ramdas Pophale) SiO2 
 PCOD9377093
Probable space group: I B A 2
;
_chemical_formula_sum "Si O2"
_cell_formula_units_Z 40
_cell_length_a 9.045557
_cell_length_b 19.621664
_cell_length_c 8.994658
_cell_angle_alpha 90.000000
_cell_angle_beta 90.000000
_cell_angle_gamma 90.000000
_cell_volume 1596.451776
_symmetry_space_group_name_H-M "I B A 2"
_symmetry_group_IT_number 45
_symmetry_cell_setting 'orthorhombic'
loop_
_space_group_symop_operation_xyz
x,y,z
-x,-y,z
-x,y,1/2+z
x,-y,1/2+z
1/2+x,1/2+y,1/2+z
1/2-x,1/2-y,1/2+z
1/2-x,1/2+y,z
1/2+x,1/2-y,z
loop_
_atom_site_type_symbol
_atom_site_label
_atom_site_fract_x
_atom_site_fract_y
_atom_site_fract_z
Si Si1 0.500000 0.000000 0.096200
Si Si2 0.806839 0.266565 0.636906
Si Si3 0.285632 0.047764 0.837737
Si Si4 0.956148 0.255138 0.341631
Si Si5 0.570312 0.365138 0.016163
Si Si6 0.000000 0.000000 0.189297
O O1 0.593894 0.048825 0.206236
O O2 0.376397 0.028976 0.985455
O O3 0.860593 0.289793 0.473217
O O4 0.646191 0.269930 0.706341
O O5 0.839675 0.184830 0.625231
O O6 0.916157 0.296313 0.762007
O O7 0.152671 0.997247 0.782708
O O8 0.185902 0.109654 0.892593
O O9 0.026058 0.189606 0.425267
O O10 0.497779 0.430699 0.091482
#
# Coordination Sequence:
#
# PCOD9377093 Si02
#       6
#     4   8   8   8   8   4
#     4  10  24  42  66  88 152 178 224 296 356 428
#     4  10  22  43  68  98 134 179 230 297 358 427
#     4  11  22  45  62 100 134 186 229 294 352 443
#     4  10  22  44  67  98 136 177 232 297 357 425
#     4  10  24  39  73 101 134 181 237 296 355 428
#     4  12  22  44  72 106 138 186 250 284 366 446
#
# _framework density 25.055565000000001
#
# number of rings (size 3 to 8) (size 9 to 14) (size 15 to 20)
#    1.200    0.400    2.000    3.000    0.000    0.000 
#    3.600    0.000    0.000    0.000    0.000    0.000 
#    0.000    0.000    0.000    0.000    0.000    0.000 
#
# Total GULP energy -111459.746272 kJ/mol
# GULP energy per Si atom -5572.987314 kJ/mol
# Density = 2.499854 g / cm^3
# Si number density = 25.055565 Si / 1000 Ang^3
#
#
#
# Elastic Constant Matrix: (Units=GPa)
#
#
# Indices 1 2 3 4 5 6 
#
# 1 124.8581 -4.8762 53.5682 -0.0001 0.0000 0.0000
# 2 -4.8762 53.6956 27.1843 0.0003 0.0000 0.0000
# 3 53.5682 27.1843 164.1479 -0.0006 0.0007 0.0000
# 4 -0.0001 0.0003 -0.0006 14.5657 0.0000 0.0000
# 5 0.0000 0.0000 0.0007 0.0000 64.0826 0.0000
# 6 0.0000 0.0000 0.0000 0.0000 0.0000 18.9898
#
#
#
# Elastic Compliance Matrix: (Units=1/GPa)
#
#
# Indices 1 2 3 4 5 6 
#
# 1 0.009659 0.002699 -0.003599 0.000000 0.000000 0.000000
# 2 0.002699 0.021082 -0.004372 -0.000001 0.000000 0.000000
# 3 -0.003599 -0.004372 0.007991 0.000000 0.000000 0.000000
# 4 0.000000 -0.000001 0.000000 0.068655 0.000000 0.000000
# 5 0.000000 0.000000 0.000000 0.000000 0.015605 0.000000
# 6 0.000000 0.000000 0.000000 0.000000 0.000000 0.052660
#
#
# Mechanical properties :
#
#
# Convention : Reuss Voigt Hill
#
# Bulk Modulus (GPa) = 35.47706 54.93937 45.20822
# Shear Modulus (GPa) = 25.56361 37.31597 31.43979
#
# Velocity S-wave (km/s) = 3.19764 3.86337 3.54616
# Velocity P-wave (km/s) = 5.27478 6.47112 5.90334
#
# Compressibility (1/GPa) = 0.02818723
#
# Stress axis : x y z
#
# Youngs Moduli (GPa) = 103.53478 47.43357 125.14637
#
# Poissons Ratio (x) = -0.12803 0.45040
# Poissons Ratio (y) = -0.27946 0.54717
# Poissons Ratio (z) = 0.37262 0.20739
#
# Static dielectric constant tensor:
#      x y z
#    x 1.921770 0.000000 0.000000 
#    y 0.000000 2.042170 0.000000 
#    z 0.000000 0.000000 2.024860 
# 
# From -- ./inp_files/1019.got.cif
#   From: 2010.05.17/outbox.cif.g08.bks.cpg/sg45_1_cif.got.tgz:1019.got - 2010.06.03 19:51:22.
