data_PCOD9377709
_publ_section_title
;
Structure prediction by ZEFSAII (Michael W. Deem and Ramdas Pophale) SiO2 
 PCOD9377709
Probable space group: I B A 2
;
_chemical_formula_sum "Si O2"
_cell_formula_units_Z 48
_cell_length_a 16.740528
_cell_length_b 9.189912
_cell_length_c 13.468566
_cell_angle_alpha 90.000000
_cell_angle_beta 90.000000
_cell_angle_gamma 90.000000
_cell_volume 2072.057787
_symmetry_space_group_name_H-M "I B A 2"
_symmetry_group_IT_number 45
_symmetry_cell_setting 'orthorhombic'
loop_
_space_group_symop_operation_xyz
x,y,z
-x,-y,z
-x,y,1/2+z
x,-y,1/2+z
1/2+x,1/2+y,1/2+z
1/2-x,1/2-y,1/2+z
1/2-x,1/2+y,z
1/2+x,1/2-y,z
loop_
_atom_site_type_symbol
_atom_site_label
_atom_site_fract_x
_atom_site_fract_y
_atom_site_fract_z
Si Si1 0.622968 0.919758 0.973660
Si Si2 0.911185 0.489361 0.756948
Si Si3 0.810922 0.100982 0.442458
Si Si4 0.841347 0.198133 0.218633
Si Si5 0.426625 0.389703 0.033358
Si Si6 0.830696 0.678094 0.116533
O O1 0.588472 0.990698 0.875325
O O2 0.715526 0.885048 0.947096
O O3 0.570124 0.780338 0.003167
O O4 0.635346 0.036883 0.060023
O O5 0.859188 0.630056 0.727099
O O6 0.878258 0.333796 0.719404
O O7 0.000000 0.500000 0.717478
O O8 0.835797 0.142304 0.331091
O O9 0.841184 0.198202 0.535135
O O10 0.850204 0.947684 0.470778
O O11 0.906826 0.117441 0.150803
O O12 0.760176 0.175439 0.155369
O O13 0.500000 0.500000 0.013368
#
# Coordination Sequence:
#
# PCOD9377709 Si02
#       6
#     8   8   8   8   8   8
#     4  12  24  49  77 113 150 209 265 319 390 473
#     4  12  29  47  80 115 156 206 262 329 394 479
#     4  12  25  45  79 114 146 206 266 323 384 479
#     4  12  26  48  77 115 153 202 269 318 401 472
#     4  12  30  48  75 114 166 204 256 337 405 465
#     4  12  24  47  81 109 149 204 265 320 382 482
#
# _framework density 23.165376999999999
#
# number of rings (size 3 to 8) (size 9 to 14) (size 15 to 20)
#    0.000    0.000    8.333    0.000    4.667    2.667 
#    0.000    0.000    0.000    0.000    0.000    0.000 
#    0.000    0.000    0.000    0.000    0.000    0.000 
#
# Total GULP energy -134059.665443 kJ/mol
# GULP energy per Si atom -5585.819393 kJ/mol
# Density = 2.311265 g / cm^3
# Si number density = 23.165377 Si / 1000 Ang^3
#
#
#
# Elastic Constant Matrix: (Units=GPa)
#
#
# Indices 1 2 3 4 5 6 
#
# 1 88.4414 14.7575 -3.7127 0.0000 0.0000 0.0000
# 2 14.7575 56.8173 -0.8905 0.0000 0.0000 0.0000
# 3 -3.7127 -0.8905 94.1641 0.0000 0.0000 0.0000
# 4 0.0000 0.0000 0.0000 32.6678 0.0000 0.0000
# 5 0.0000 0.0000 0.0000 0.0000 12.0662 0.0000
# 6 0.0000 0.0000 0.0000 0.0000 0.0000 31.3042
#
#
#
# Elastic Compliance Matrix: (Units=1/GPa)
#
#
# Indices 1 2 3 4 5 6 
#
# 1 0.011837 -0.003068 0.000438 0.000000 0.000000 0.000000
# 2 -0.003068 0.018398 0.000053 0.000000 0.000000 0.000000
# 3 0.000438 0.000053 0.010638 0.000000 0.000000 0.000000
# 4 0.000000 0.000000 0.000000 0.030611 0.000000 0.000000
# 5 0.000000 0.000000 0.000000 0.000000 0.082876 0.000000
# 6 0.000000 0.000000 0.000000 0.000000 0.000000 0.031945
#
#
# Mechanical properties :
#
#
# Convention : Reuss Voigt Hill
#
# Bulk Modulus (GPa) = 27.99656 28.85906 28.42781
# Shear Modulus (GPa) = 24.58637 30.49221 27.53929
#
# Velocity S-wave (km/s) = 3.26136 3.63200 3.45166
# Velocity P-wave (km/s) = 5.12774 5.48393 5.30882
#
# Compressibility (1/GPa) = 0.03571868
#
# Stress axis : x y z
#
# Youngs Moduli (GPa) = 84.47958 54.35409 94.00691
#
# Poissons Ratio (x) = 0.16674 -0.04115
# Poissons Ratio (y) = 0.25916 -0.00499
# Poissons Ratio (z) = -0.03698 -0.00288
#
# Static dielectric constant tensor:
#      x y z
#    x 1.904840 0.000000 0.000000 
#    y 0.000000 1.900780 0.000000 
#    z 0.000000 0.000000 1.905520 
# 
# From -- ./inp_files/6752.got.cif
#   From: 2010.05.17/outbox.cif.g08.bks.cpg/sg45_4_cif.got.tgz:6752.got - 2010.06.03 19:51:22.
