data_PCOD9377987
_publ_section_title
;
Structure prediction by ZEFSAII (Michael W. Deem and Ramdas Pophale) SiO2 
 PCOD9377987
Probable space group: I M A 2
;
_chemical_formula_sum "Si O2"
_cell_formula_units_Z 48
_cell_length_a 14.772968
_cell_length_b 14.524321
_cell_length_c 7.991006
_cell_angle_alpha 90.000000
_cell_angle_beta 90.000000
_cell_angle_gamma 90.000000
_cell_volume 1714.608816
_symmetry_space_group_name_H-M "I M A 2"
_symmetry_group_IT_number 46
_symmetry_cell_setting 'orthorhombic'
loop_
_space_group_symop_operation_xyz
x,y,z
-x,-y,z
1/2-x,y,z
1/2+x,-y,z
1/2+x,1/2+y,1/2+z
1/2-x,1/2-y,1/2+z
-x,1/2+y,1/2+z
x,1/2-y,1/2+z
loop_
_atom_site_type_symbol
_atom_site_label
_atom_site_fract_x
_atom_site_fract_y
_atom_site_fract_z
Si Si1 0.639211 0.722200 0.521070
Si Si2 0.352550 0.066594 0.252590
Si Si3 0.359340 0.605541 0.943788
Si Si4 0.903843 0.458812 0.435907
Si Si5 0.358344 0.104848 0.694216
Si Si6 0.858989 0.281188 0.604855
O O1 0.750000 0.720457 0.528062
O O2 0.605590 0.659419 0.676364
O O3 0.611304 0.828438 0.543193
O O4 0.614882 0.667535 0.354731
O O5 0.250000 0.089754 0.306289
O O6 0.392561 0.996317 0.390331
O O7 0.343660 0.004402 0.082645
O O8 0.250000 0.593583 0.963060
O O9 0.375696 0.668415 0.779129
O O10 0.392624 0.676809 0.084184
O O11 0.884608 0.502427 0.253528
O O12 0.895901 0.350943 0.464053
O O13 0.000000 0.500000 0.482833
O O14 0.250000 0.101654 0.687883
O O15 0.750000 0.277944 0.582987
#
# Coordination Sequence:
#
# PCOD9377987 Si02
#       6
#     8   8   8   8   8   8
#     4   8  14  25  45  67  88 111 140 174 213 254
#     4   8  14  28  47  66  86 112 142 176 212 256
#     4   8  14  25  45  67  88 111 140 174 213 254
#     4  10  18  28  43  64  86 116 150 178 208 252
#     4   9  16  29  46  66  88 113 142 177 214 254
#     4   9  16  29  46  66  88 113 142 177 214 254
#
# _framework density 27.994721999999999
#
# number of rings (size 3 to 8) (size 9 to 14) (size 15 to 20)
#    0.000    3.333    0.000    3.500    0.000    0.000 
#    0.000    8.333    0.000    8.000    0.000    9.333 
#    0.000    0.000    0.000    0.000    0.000    0.000 
#
# Total GULP energy -134122.035678 kJ/mol
# GULP energy per Si atom -5588.418153 kJ/mol
# Density = 2.793100 g / cm^3
# Si number density = 27.994722 Si / 1000 Ang^3
#
#
#
# Elastic Constant Matrix: (Units=GPa)
#
#
# Indices 1 2 3 4 5 6 
#
# 1 76.6801 -15.7551 -2.6800 0.0000 0.0000 0.0000
# 2 -15.7551 241.8688 19.2524 0.0000 0.0000 0.0000
# 3 -2.6800 19.2524 96.5695 0.0000 0.0000 0.0000
# 4 0.0000 0.0000 0.0000 65.2517 0.0000 0.0000
# 5 0.0000 0.0000 0.0000 0.0000 -9.1819 0.0000
# 6 0.0000 0.0000 0.0000 0.0000 0.0000 -7.0976
#
#
#
# Elastic Compliance Matrix: (Units=1/GPa)
#
#
# Indices 1 2 3 4 5 6 
#
# 1 0.013222 0.000845 0.000198 0.000000 0.000000 0.000000
# 2 0.000845 0.004255 -0.000825 0.000000 0.000000 0.000000
# 3 0.000198 -0.000825 0.010525 0.000000 0.000000 0.000000
# 4 0.000000 0.000000 0.000000 0.015325 0.000000 0.000000
# 5 0.000000 0.000000 0.000000 0.000000 -0.108910 0.000000
# 6 0.000000 0.000000 0.000000 0.000000 0.000000 -0.140894
#
#
# Mechanical properties :
#
#
# Convention : Reuss Voigt Hill
#
# Bulk Modulus (GPa) = 35.16153 46.30590 40.73371
# Shear Modulus (GPa) = -25.32494 37.41451 6.04478
#
# Velocity S-wave (km/s) = -3.01097 3.65976 1.47104
# Velocity P-wave (km/s) = 0.70666 5.86816 4.17940
#
# Compressibility (1/GPa) = 0.02844018
#
# Stress axis : x y z
#
# Youngs Moduli (GPa) = 75.63248 235.00634 95.01012
#
# Poissons Ratio (x) = -0.19869 -0.01885
# Poissons Ratio (y) = -0.06394 0.07837
# Poissons Ratio (z) = -0.01500 0.19385
#
# Static dielectric constant tensor:
#      x y z
#    x 2.115100 0.000000 0.000000 
#    y 0.000000 2.179980 0.000000 
#    z 0.000000 0.000000 2.331660 
# 
# From -- ./inp_files/5707.got.cif
#   From: 2010.05.17/outbox.cif.g08.bks.cpg/sg46_3_cif.got.tgz:5707.got - 2010.06.03 19:58:25.
