data_PCOD9377471
_publ_section_title
;
Structure prediction by ZEFSAII (Michael W. Deem and Ramdas Pophale) SiO2 
 PCOD9377471
Probable space group: I B A 2
;
_chemical_formula_sum "Si O2"
_cell_formula_units_Z 36
_cell_length_a 8.900063
_cell_length_b 18.553598
_cell_length_c 8.396462
_cell_angle_alpha 90.000000
_cell_angle_beta 90.000000
_cell_angle_gamma 90.000000
_cell_volume 1386.492582
_symmetry_space_group_name_H-M "I B A 2"
_symmetry_group_IT_number 45
_symmetry_cell_setting 'orthorhombic'
loop_
_space_group_symop_operation_xyz
x,y,z
-x,-y,z
-x,y,1/2+z
x,-y,1/2+z
1/2+x,1/2+y,1/2+z
1/2-x,1/2-y,1/2+z
1/2-x,1/2+y,z
1/2+x,1/2-y,z
loop_
_atom_site_type_symbol
_atom_site_label
_atom_site_fract_x
_atom_site_fract_y
_atom_site_fract_z
Si Si1 0.340304 0.364447 0.814430
Si Si2 0.500000 0.500000 0.816178
Si Si3 0.083033 0.211316 0.619174
Si Si4 0.223308 0.405834 0.265180
Si Si5 0.573285 0.882802 0.105140
O O1 0.433380 0.429218 0.895349
O O2 0.428259 0.330199 0.663401
O O3 0.185350 0.395473 0.752481
O O4 0.343038 0.305112 0.949288
O O5 0.646436 0.464524 0.735430
O O6 0.197946 0.172576 0.741140
O O7 0.055616 0.295925 0.619416
O O8 0.150900 0.406739 0.441169
O O9 0.089034 0.415449 0.140078
#
# Coordination Sequence:
#
# PCOD9377471 Si02
#       5
#     8   4   8   8   8
#     4  11  24  41  71  96 139 186 229 293 347 429
#     4  10  26  50  66  98 138 192 240 274 366 430
#     4  11  22  41  67 105 142 183 229 290 368 426
#     4  11  26  43  70 101 147 190 237 301 352 432
#     4  12  23  42  69 106 137 181 241 301 358 412
#
# _framework density 25.964797000000001
#
# number of rings (size 3 to 8) (size 9 to 14) (size 15 to 20)
#    0.000    0.889    0.000    8.000    0.000    8.889 
#    0.000    2.222    0.000    1.333    0.000    0.000 
#    0.000    0.000    0.000    0.000    0.000    0.000 
#
# Total GULP energy -100691.217928 kJ/mol
# GULP energy per Si atom -5593.956552 kJ/mol
# Density = 2.590570 g / cm^3
# Si number density = 25.964797 Si / 1000 Ang^3
#
#
#
# Elastic Constant Matrix: (Units=GPa)
#
#
# Indices 1 2 3 4 5 6 
#
# 1 180.4598 39.4748 56.8921 0.0000 0.0000 0.0000
# 2 39.4748 108.2954 22.1651 0.0002 0.0000 0.0000
# 3 56.8921 22.1651 123.6824 0.0000 -0.0003 -0.0002
# 4 0.0000 0.0002 0.0000 -4.2298 0.0000 -0.0001
# 5 0.0000 0.0000 -0.0003 0.0000 38.2822 0.0000
# 6 0.0000 0.0000 -0.0002 -0.0001 0.0000 38.2584
#
#
#
# Elastic Compliance Matrix: (Units=1/GPa)
#
#
# Indices 1 2 3 4 5 6 
#
# 1 0.006846 -0.001921 -0.002805 0.000000 0.000000 0.000000
# 2 -0.001921 0.010125 -0.000931 0.000000 0.000000 0.000000
# 3 -0.002805 -0.000931 0.009542 0.000000 0.000000 0.000000
# 4 0.000000 0.000000 0.000000 -0.236418 0.000000 0.000000
# 5 0.000000 0.000000 0.000000 0.000000 0.026122 0.000000
# 6 0.000000 0.000000 0.000000 0.000000 0.000000 0.026138
#
#
# Mechanical properties :
#
#
# Convention : Reuss Voigt Hill
#
# Bulk Modulus (GPa) = 65.79195 72.16684 68.97939
# Shear Modulus (GPa) = -35.39428 34.05587 -0.66921
#
# Velocity S-wave (km/s) = -3.69611 3.62555 -0.50823
# Velocity P-wave (km/s) = 2.67935 6.73652 5.12638
#
# Compressibility (1/GPa) = 0.01519943
#
# Stress axis : x y z
#
# Youngs Moduli (GPa) = 146.07276 98.76703 104.79843
#
# Poissons Ratio (x) = 0.18977 0.29393
# Poissons Ratio (y) = 0.28066 0.09753
# Poissons Ratio (z) = 0.40969 0.09192
#
# Static dielectric constant tensor:
#      x y z
#    x 2.079270 0.000000 0.000000 
#    y 0.000000 2.060040 0.000000 
#    z 0.000000 0.000000 2.000530 
# 
# From -- ./inp_files/926.got.cif
#   From: 2010.05.17/outbox.cif.g08.bks.cpg/sg45_1_cif.got.tgz:926.got - 2010.06.03 19:51:22.
