data_PCOD9377673
_publ_section_title
;
Structure prediction by ZEFSAII (Michael W. Deem and Ramdas Pophale) SiO2 
 PCOD9377673
Probable space group: I B A 2
;
_chemical_formula_sum "Si O2"
_cell_formula_units_Z 64
_cell_length_a 22.132870
_cell_length_b 14.816339
_cell_length_c 9.014031
_cell_angle_alpha 90.000000
_cell_angle_beta 90.000000
_cell_angle_gamma 90.000000
_cell_volume 2955.954104
_symmetry_space_group_name_H-M "I B A 2"
_symmetry_group_IT_number 45
_symmetry_cell_setting 'orthorhombic'
loop_
_space_group_symop_operation_xyz
x,y,z
-x,-y,z
-x,y,1/2+z
x,-y,1/2+z
1/2+x,1/2+y,1/2+z
1/2-x,1/2-y,1/2+z
1/2-x,1/2+y,z
1/2+x,1/2-y,z
loop_
_atom_site_type_symbol
_atom_site_label
_atom_site_fract_x
_atom_site_fract_y
_atom_site_fract_z
Si Si1 0.891805 0.096521 0.235040
Si Si2 0.177562 0.483900 0.255737
Si Si3 0.494574 0.270732 0.347970
Si Si4 0.095002 0.501344 0.006690
Si Si5 0.232204 0.850654 0.734092
Si Si6 0.104411 0.095493 0.376741
Si Si7 0.996053 0.355433 0.097131
Si Si8 0.733106 0.662139 0.377284
O O1 0.937336 0.174417 0.288930
O O2 0.825953 0.119059 0.301060
O O3 0.911518 0.001729 0.307501
O O4 0.890519 0.090397 0.056062
O O5 0.113240 0.498647 0.335771
O O6 0.222506 0.567429 0.266812
O O7 0.209815 0.397381 0.324765
O O8 0.158087 0.476761 0.085473
O O9 0.553387 0.332409 0.334176
O O10 0.491071 0.239862 0.517870
O O11 0.498581 0.173825 0.267039
O O12 0.067361 0.598042 0.053583
O O13 0.046764 0.426427 0.051131
O O14 0.167611 0.874402 0.804779
O O15 0.257555 0.761490 0.812256
O O16 0.227696 0.838564 0.555739
#
# Coordination Sequence:
#
# PCOD9377673 Si02
#       8
#     8   8   8   8   8   8   8   8
#     4  12  28  48  74 107 149 195 249 313 374 442
#     4  12  26  47  76 109 146 194 244 304 370 444
#     4  12  27  45  78 104 148 188 254 299 373 440
#     4  11  26  46  76 104 154 187 240 298 374 437
#     4  12  29  47  75 110 150 197 251 309 376 447
#     4  12  28  48  74 107 149 195 249 313 374 442
#     4  11  26  48  71 114 142 194 239 306 362 453
#     4  12  29  47  75 110 150 197 251 309 376 447
#
# _framework density 21.651215000000001
#
# number of rings (size 3 to 8) (size 9 to 14) (size 15 to 20)
#    0.000    0.250    3.750    3.375   14.000    3.000 
#    0.000    0.000    0.000    0.000    0.000    0.000 
#    0.000    0.000    0.000    0.000    0.000    0.000 
#
# Total GULP energy -179100.412601 kJ/mol
# GULP energy per Si atom -5596.887894 kJ/mol
# Density = 2.160194 g / cm^3
# Si number density = 21.651215 Si / 1000 Ang^3
#
#
#
# Elastic Constant Matrix: (Units=GPa)
#
#
# Indices 1 2 3 4 5 6 
#
# 1 79.8487 14.6835 19.7026 0.0000 0.0000 0.0000
# 2 14.6835 77.8150 13.9468 0.0000 0.0000 0.0000
# 3 19.7026 13.9468 111.7648 0.0000 0.0000 0.0000
# 4 0.0000 0.0000 0.0000 38.8248 0.0000 0.0000
# 5 0.0000 0.0000 0.0000 0.0000 35.2390 0.0000
# 6 0.0000 0.0000 0.0000 0.0000 0.0000 10.8246
#
#
#
# Elastic Compliance Matrix: (Units=1/GPa)
#
#
# Indices 1 2 3 4 5 6 
#
# 1 0.013439 -0.002160 -0.002100 0.000000 0.000000 0.000000
# 2 -0.002160 0.013492 -0.001303 0.000000 0.000000 0.000000
# 3 -0.002100 -0.001303 0.009480 0.000000 0.000000 0.000000
# 4 0.000000 0.000000 0.000000 0.025757 0.000000 0.000000
# 5 0.000000 0.000000 0.000000 0.000000 0.028378 0.000000
# 6 0.000000 0.000000 0.000000 0.000000 0.000000 0.092382
#
#
# Mechanical properties :
#
#
# Convention : Reuss Voigt Hill
#
# Bulk Modulus (GPa) = 39.54636 40.67715 40.11176
# Shear Modulus (GPa) = 24.69368 31.71737 28.20552
#
# Velocity S-wave (km/s) = 3.38082 3.83158 3.61324
# Velocity P-wave (km/s) = 5.79179 6.19701 5.99782
#
# Compressibility (1/GPa) = 0.02528678
#
# Stress axis : x y z
#
# Youngs Moduli (GPa) = 74.41090 74.11789 105.48428
#
# Poissons Ratio (x) = 0.16006 0.22148
# Poissons Ratio (y) = 0.16070 0.13744
# Poissons Ratio (z) = 0.15623 0.09657
#
# Static dielectric constant tensor:
#      x y z
#    x 1.762230 0.000000 0.000000 
#    y 0.000000 1.758150 0.000000 
#    z 0.000000 0.000000 1.741630 
# 
# From -- ./inp_files/2554.got.cif
#   From: 2010.05.17/outbox.cif.g08.bks.cpg/sg45_2_cif.got.tgz:2554.got - 2010.06.03 19:51:22.
