data_PCOD9377737
_publ_section_title
;
Structure prediction by ZEFSAII (Michael W. Deem and Ramdas Pophale) SiO2 
 PCOD9377737
Probable space group: I B A 2
;
_chemical_formula_sum "Si O2"
_cell_formula_units_Z 32
_cell_length_a 15.000000
_cell_length_b 12.000000
_cell_length_c 18.000000
_cell_angle_alpha 90.000000
_cell_angle_beta 90.000000
_cell_angle_gamma 90.000000
_cell_volume 3240.000000
_symmetry_space_group_name_H-M "I B A 2"
_symmetry_group_IT_number 45
_symmetry_cell_setting 'orthorhombic'
loop_
_space_group_symop_operation_xyz
x,y,z
-x,-y,z
-x,y,1/2+z
x,-y,1/2+z
1/2+x,1/2+y,1/2+z
1/2-x,1/2-y,1/2+z
1/2-x,1/2+y,z
1/2+x,1/2-y,z
loop_
_atom_site_type_symbol
_atom_site_label
_atom_site_fract_x
_atom_site_fract_y
_atom_site_fract_z
Si Si1 0.164879 0.530573 0.330190
Si Si2 0.739801 0.892512 0.960366
Si Si3 0.904463 0.943323 0.489629
Si Si4 0.412187 0.794807 0.728875
Si Si5 0.381486 0.820656 0.226032
Si Si6 0.599038 0.553061 0.161833
Si Si7 0.737844 0.348050 0.135944
Si Si8 0.679462 0.691136 0.866819
O O1 0.166611 0.467666 0.412181
O O2 0.100544 0.635172 0.306662
O O3 0.149968 0.437340 0.265169
O O4 0.260786 0.590867 0.334755
O O5 0.742271 0.783230 0.907603
O O6 0.828851 0.966929 0.967046
O O7 0.734319 0.856256 0.048070
O O8 0.888152 0.846031 0.430939
O O9 0.895514 0.905318 0.575586
O O10 0.000000 0.000000 0.482337
O O11 0.513975 0.820484 0.703603
O O12 0.395501 0.659942 0.717908
O O13 0.331093 0.844513 0.679954
O O14 0.318663 0.763333 0.162255
O O15 0.371901 0.739393 0.296700
O O16 0.500000 0.500000 0.172114
O O17 0.674224 0.453864 0.160089
#
# Coordination Sequence:
#
# PCOD9377737 Si02
#       8
#     8   8   8   8   8   8   8   8
#     4  10  23  43  65  93 140 183 227 286 349 429
#     4   9  21  41  69  93 135 179 230 281 348 418
#     4   9  19  37  63  97 127 164 224 288 330 398
#     4  12  24  40  70  97 141 185 224 292 363 422
#     4  11  24  43  65  99 142 177 234 288 354 430
#     4  10  21  41  66  98 137 175 236 289 345 423
#     4  11  23  42  70 106 133 183 230 297 354 416
#     4  10  20  42  62  95 130 182 225 273 354 413
#
# _framework density 9.8765429999999999
#
# number of rings (size 3 to 8) (size 9 to 14) (size 15 to 20)
#    0.000    1.750    2.500    1.125    1.750    1.000 
#    4.500    0.000    0.000    0.000    0.000    0.000 
#    0.000    0.000    0.000    0.000    0.000    0.000 
#
# Total GULP energy -178171.965729 kJ/mol
# GULP energy per Si atom -5567.873929 kJ/mol
# Density = 0.985406 g / cm^3
# Si number density = 9.876543 Si / 1000 Ang^3
#
#
#
# Elastic Constant Matrix: (Units=GPa)
#
#
# Indices 1 2 3 4 5 6 
#
# 1 102.6974 23.1664 34.8157 0.0000 0.0000 0.0000
# 2 23.1664 104.5309 39.0384 0.0000 0.0000 0.0000
# 3 34.8157 39.0384 101.2367 0.0000 0.0000 0.0000
# 4 0.0000 0.0000 0.0000 41.6022 0.0000 0.0000
# 5 0.0000 0.0000 0.0000 0.0000 29.7462 0.0000
# 6 0.0000 0.0000 0.0000 0.0000 0.0000 29.5982
#
#
#
# Elastic Compliance Matrix: (Units=1/GPa)
#
#
# Indices 1 2 3 4 5 6 
#
# 1 0.011153 -0.001214 -0.003367 0.000000 0.000000 0.000000
# 2 -0.001214 0.011308 -0.003943 0.000000 0.000000 0.000000
# 3 -0.003367 -0.003943 0.012556 0.000000 0.000000 0.000000
# 4 0.000000 0.000000 0.000000 0.024037 0.000000 0.000000
# 5 0.000000 0.000000 0.000000 0.000000 0.033618 0.000000
# 6 0.000000 0.000000 0.000000 0.000000 0.000000 0.033786
#
#
# Mechanical properties :
#
#
# Convention : Reuss Voigt Hill
#
# Bulk Modulus (GPa) = 55.65338 55.83399 55.74369
# Shear Modulus (GPa) = 33.44558 34.28563 33.86560
#
# Velocity S-wave (km/s) = 4.11929 4.17071 4.14508
# Velocity P-wave (km/s) = 7.13165 7.17777 7.15475
#
# Compressibility (1/GPa) = 0.01796836
#
# Stress axis : x y z
#
# Youngs Moduli (GPa) = 89.66369 88.43125 79.64081
#
# Poissons Ratio (x) = 0.10737 0.26817
# Poissons Ratio (y) = 0.10886 0.31403
# Poissons Ratio (z) = 0.30192 0.34869
#
# Static dielectric constant tensor:
#      x y z
#    x 1.684910 0.000000 0.000000 
#    y 0.000000 1.780150 0.000000 
#    z 0.000000 0.000000 1.728940 
# 
# From -- ./inp_files/8253.got.cif
#   From: 2010.05.17/outbox.ucp.g08.bks.cvg/sg45_5_cif.got.tgz:8253.got - 2010.06.11 16:34:12.
