data_PCOD9377630
_publ_section_title
;
Structure prediction by ZEFSAII (Michael W. Deem and Ramdas Pophale) SiO2 
 PCOD9377630
Probable space group: I B A 2
;
_chemical_formula_sum "Si O2"
_cell_formula_units_Z 64
_cell_length_a 23.518694
_cell_length_b 14.802248
_cell_length_c 8.593564
_cell_angle_alpha 90.000000
_cell_angle_beta 90.000000
_cell_angle_gamma 90.000000
_cell_volume 2991.673493
_symmetry_space_group_name_H-M "I B A 2"
_symmetry_group_IT_number 45
_symmetry_cell_setting 'orthorhombic'
loop_
_space_group_symop_operation_xyz
x,y,z
-x,-y,z
-x,y,1/2+z
x,-y,1/2+z
1/2+x,1/2+y,1/2+z
1/2-x,1/2-y,1/2+z
1/2-x,1/2+y,z
1/2+x,1/2-y,z
loop_
_atom_site_type_symbol
_atom_site_label
_atom_site_fract_x
_atom_site_fract_y
_atom_site_fract_z
Si Si1 0.621629 0.102336 0.458490
Si Si2 0.897185 0.921487 0.100901
Si Si3 0.374627 0.387484 0.965762
Si Si4 0.100060 0.595210 0.324917
Si Si5 0.490828 0.327644 0.123237
Si Si6 0.491940 0.200120 0.882076
Si Si7 0.170045 0.248095 0.993414
Si Si8 0.791114 0.263353 0.852213
O O1 0.616590 0.102065 0.644369
O O2 0.572841 0.167233 0.384453
O O3 0.681777 0.144042 0.413204
O O4 0.612051 0.003279 0.391371
O O5 0.888379 0.906904 0.284928
O O6 0.965122 0.906763 0.084021
O O7 0.868209 0.841550 0.002594
O O8 0.869625 0.015233 0.047438
O O9 0.322438 0.317288 0.950173
O O10 0.427715 0.345216 0.061220
O O11 0.133523 0.668633 0.428681
O O12 0.033870 0.621529 0.332629
O O13 0.495670 0.297382 0.301750
O O14 0.508789 0.229239 0.056505
O O15 0.224492 0.239147 0.882782
O O16 0.192736 0.258008 0.170392
#
# Coordination Sequence:
#
# PCOD9377630 Si02
#       8
#     8   8   8   8   8   8   8   8
#     4  12  26  43  67 101 136 175 225 273 335 402
#     4  11  25  41  65  98 133 174 218 271 332 395
#     4  11  25  42  65  98 135 172 220 272 328 399
#     4  12  26  42  68 100 134 178 221 276 337 399
#     4  12  22  41  66  97 133 175 214 265 327 393
#     4  12  23  40  69  95 135 175 215 267 329 392
#     4  11  25  46  71  94 130 175 225 282 337 397
#     4  11  24  47  69  95 130 174 226 280 337 397
#
# _framework density 21.392707999999999
#
# number of rings (size 3 to 8) (size 9 to 14) (size 15 to 20)
#    0.000    0.500    5.000    3.000    3.500    5.000 
#    0.000    2.500    0.000    0.000    0.000    0.000 
#    0.000    0.000    0.000    0.000    0.000    0.000 
#
# Total GULP energy -178781.088140 kJ/mol
# GULP energy per Si atom -5586.909004 kJ/mol
# Density = 2.134402 g / cm^3
# Si number density = 21.392708 Si / 1000 Ang^3
#
#
#
# Elastic Constant Matrix: (Units=GPa)
#
#
# Indices 1 2 3 4 5 6 
#
# 1 82.1033 25.8146 13.0917 0.0000 0.0000 0.0000
# 2 25.8146 113.0535 24.7369 0.0000 0.0000 0.0000
# 3 13.0917 24.7369 59.7883 0.0000 0.0000 0.0000
# 4 0.0000 0.0000 0.0000 40.6126 0.0000 0.0000
# 5 0.0000 0.0000 0.0000 0.0000 32.2752 0.0000
# 6 0.0000 0.0000 0.0000 0.0000 0.0000 5.7707
#
#
#
# Elastic Compliance Matrix: (Units=1/GPa)
#
#
# Indices 1 2 3 4 5 6 
#
# 1 0.013300 -0.002638 -0.001821 0.000000 0.000000 0.000000
# 2 -0.002638 0.010249 -0.003663 0.000000 0.000000 0.000000
# 3 -0.001821 -0.003663 0.018640 0.000000 0.000000 0.000000
# 4 0.000000 0.000000 0.000000 0.024623 0.000000 0.000000
# 5 0.000000 0.000000 0.000000 0.000000 0.030984 0.000000
# 6 0.000000 0.000000 0.000000 0.000000 0.000000 0.173290
#
#
# Mechanical properties :
#
#
# Convention : Reuss Voigt Hill
#
# Bulk Modulus (GPa) = 38.54303 42.47017 40.50660
# Shear Modulus (GPa) = 16.89318 28.48517 22.68917
#
# Velocity S-wave (km/s) = 2.81316 3.65298 3.26022
# Velocity P-wave (km/s) = 5.34863 6.13906 5.75743
#
# Compressibility (1/GPa) = 0.02594503
#
# Stress axis : x y z
#
# Youngs Moduli (GPa) = 75.18991 97.56774 53.64873
#
# Poissons Ratio (x) = 0.25743 0.09767
# Poissons Ratio (y) = 0.19839 0.19651
# Poissons Ratio (z) = 0.13689 0.35737
#
# Static dielectric constant tensor:
#      x y z
#    x 1.742690 0.000000 0.000000 
#    y 0.000000 1.760890 0.000000 
#    z 0.000000 0.000000 1.777300 
# 
# From -- ./inp_files/2538.got.cif
#   From: 2010.05.17/outbox.cif.g08.bks.cpg/sg45_2_cif.got.tgz:2538.got - 2010.06.03 19:51:22.
