data_PCOD9377491
_publ_section_title
;
Structure prediction by ZEFSAII (Michael W. Deem and Ramdas Pophale) SiO2 
 PCOD9377491
Probable space group: I B A 2
;
_chemical_formula_sum "Si O2"
_cell_formula_units_Z 64
_cell_length_a 14.276079
_cell_length_b 18.122332
_cell_length_c 14.290161
_cell_angle_alpha 90.000000
_cell_angle_beta 90.000000
_cell_angle_gamma 90.000000
_cell_volume 3697.091054
_symmetry_space_group_name_H-M "I B A 2"
_symmetry_group_IT_number 45
_symmetry_cell_setting 'orthorhombic'
loop_
_space_group_symop_operation_xyz
x,y,z
-x,-y,z
-x,y,1/2+z
x,-y,1/2+z
1/2+x,1/2+y,1/2+z
1/2-x,1/2-y,1/2+z
1/2-x,1/2+y,z
1/2+x,1/2-y,z
loop_
_atom_site_type_symbol
_atom_site_label
_atom_site_fract_x
_atom_site_fract_y
_atom_site_fract_z
Si Si1 0.858399 0.033558 0.736430
Si Si2 0.605354 0.252761 0.652193
Si Si3 0.053873 0.111259 0.781604
Si Si4 0.553873 0.611259 0.489216
Si Si5 0.762358 0.817692 0.495307
Si Si6 0.141601 0.033558 0.534390
Si Si7 0.394646 0.747239 0.118627
Si Si8 0.262358 0.317692 0.775513
O O1 0.786269 0.095273 0.769316
O O2 0.957693 0.077071 0.741495
O O3 0.876796 0.957989 0.790787
O O4 0.837134 0.000001 0.635410
O O5 0.593773 0.327986 0.712218
O O6 0.657896 0.273515 0.555106
O O7 0.500000 0.225067 0.635410
O O8 0.669104 0.200574 0.716636
O O9 0.034626 0.141773 0.885410
O O10 0.457692 0.577071 0.529325
O O11 0.623204 0.542010 0.480032
O O12 0.593773 0.672013 0.558602
O O13 0.786268 0.904727 0.501505
O O14 0.669104 0.799426 0.554185
O O15 0.758208 0.796641 0.385410
O O16 0.342104 0.726484 0.215714
#
# Coordination Sequence:
#
# PCOD9377491 Si02
#       8
#     8   8   8   8   8   8   8   8
#     4  11  19  33  52  83 120 150 183 231 283 338
#     4  11  22  38  57  84 118 151 190 235 283 342
#     4  11  19  31  55  86 119 152 182 226 289 343
#     4  11  19  31  55  86 119 152 182 226 289 343
#     4  11  23  37  56  84 116 153 192 232 284 343
#     4  11  19  33  52  83 120 150 183 231 283 338
#     4  11  22  38  57  84 118 151 190 235 283 342
#     4  11  23  37  56  84 116 153 192 232 284 343
#
# _framework density 17.310908000000001
#
# number of rings (size 3 to 8) (size 9 to 14) (size 15 to 20)
#    0.000    1.000    5.000    5.250    0.000    1.000 
#    0.000    0.000    0.000    0.750    0.000    1.750 
#    0.000    0.000    0.000    0.000    0.000    0.000 
#
# Total GULP energy -178369.589941 kJ/mol
# GULP energy per Si atom -5574.049686 kJ/mol
# Density = 1.727151 g / cm^3
# Si number density = 17.310908 Si / 1000 Ang^3
#
#
#
# Elastic Constant Matrix: (Units=GPa)
#
#
# Indices 1 2 3 4 5 6 
#
# 1 107.4386 35.7162 39.9815 0.0000 0.0000 0.0000
# 2 35.7162 63.6981 22.1930 0.0000 0.0000 0.0000
# 3 39.9815 22.1930 126.0972 0.0000 0.0000 0.0000
# 4 0.0000 0.0000 0.0000 9.5611 0.0000 0.0000
# 5 0.0000 0.0000 0.0000 0.0000 24.9349 0.0000
# 6 0.0000 0.0000 0.0000 0.0000 0.0000 29.8993
#
#
#
# Elastic Compliance Matrix: (Units=1/GPa)
#
#
# Indices 1 2 3 4 5 6 
#
# 1 0.012345 -0.005921 -0.002872 0.000000 0.000000 0.000000
# 2 -0.005921 0.019565 -0.001566 0.000000 0.000000 0.000000
# 3 -0.002872 -0.001566 0.009117 0.000000 0.000000 0.000000
# 4 0.000000 0.000000 0.000000 0.104590 0.000000 0.000000
# 5 0.000000 0.000000 0.000000 0.000000 0.040104 0.000000
# 6 0.000000 0.000000 0.000000 0.000000 0.000000 0.033446
#
#
# Mechanical properties :
#
#
# Convention : Reuss Voigt Hill
#
# Bulk Modulus (GPa) = 49.24220 54.77949 52.01084
# Shear Modulus (GPa) = 20.27129 26.16861 23.21995
#
# Velocity S-wave (km/s) = 3.42572 3.89225 3.66641
# Velocity P-wave (km/s) = 6.64492 7.20505 6.93064
#
# Compressibility (1/GPa) = 0.02030779
#
# Stress axis : x y z
#
# Youngs Moduli (GPa) = 81.00553 51.11242 109.68972
#
# Poissons Ratio (x) = 0.30265 0.31503
# Poissons Ratio (y) = 0.47965 0.17177
# Poissons Ratio (z) = 0.23265 0.08004
#
# Static dielectric constant tensor:
#      x y z
#    x 1.606000 0.000000 0.000000 
#    y 0.000000 1.588770 0.000000 
#    z 0.000000 0.000000 1.690020 
# 
# From -- ./inp_files/6641.got.cif
#   From: 2010.05.17/outbox.cif.g08.bks.cpg/sg45_4_cif.got.tgz:6641.got - 2010.06.03 19:51:22.
