data_PCOD9377063
_publ_section_title
;
Structure prediction by ZEFSAII (Michael W. Deem and Ramdas Pophale) SiO2 
 PCOD9377063
Probable space group: I B A 2
;
_chemical_formula_sum "Si O2"
_cell_formula_units_Z 48
_cell_length_a 5.815181
_cell_length_b 16.896057
_cell_length_c 18.005314
_cell_angle_alpha 90.000000
_cell_angle_beta 90.000000
_cell_angle_gamma 90.000000
_cell_volume 1769.087453
_symmetry_space_group_name_H-M "I B A 2"
_symmetry_group_IT_number 45
_symmetry_cell_setting 'orthorhombic'
loop_
_space_group_symop_operation_xyz
x,y,z
-x,-y,z
-x,y,1/2+z
x,-y,1/2+z
1/2+x,1/2+y,1/2+z
1/2-x,1/2-y,1/2+z
1/2-x,1/2+y,z
1/2+x,1/2-y,z
loop_
_atom_site_type_symbol
_atom_site_label
_atom_site_fract_x
_atom_site_fract_y
_atom_site_fract_z
Si Si1 0.399289 0.919117 0.210640
Si Si2 0.500000 0.500000 0.303465
Si Si3 0.500000 0.500000 0.059169
Si Si4 0.698993 0.944071 0.427680
Si Si5 0.208534 0.772299 0.963587
Si Si6 0.949019 0.733135 0.773444
Si Si7 0.595476 0.329431 0.619418
O O1 0.552507 0.860955 0.259224
O O2 0.338989 0.867118 0.140794
O O3 0.173866 0.948277 0.254922
O O4 0.500000 0.000000 0.184537
O O5 0.619905 0.441976 0.361470
O O6 0.534584 0.413621 0.099764
O O7 0.291896 0.485538 0.002050
O O8 0.655783 0.854527 0.448490
O O9 0.500000 0.000000 0.397988
O O10 0.431940 0.717326 0.941579
O O11 0.152690 0.770513 0.052401
O O12 0.702123 0.753788 0.808701
O O13 0.971116 0.784414 0.696153
#
# Coordination Sequence:
#
# PCOD9377063 Si02
#       7
#     8   4   4   8   8   8   8
#     4  11  25  42  69  99 142 193 243 291 359 428
#     4  11  25  48  72 100 131 189 258 312 358 413
#     4   9  21  38  70 106 141 185 240 288 360 443
#     4  10  24  47  74 100 137 184 249 309 362 424
#     4  11  25  45  74 110 149 189 230 296 376 442
#     4  10  23  42  64  95 143 186 227 285 342 421
#     4  10  22  42  67 108 152 189 234 286 362 443
#
# _framework density 27.132631
#
# number of rings (size 3 to 8) (size 9 to 14) (size 15 to 20)
#    0.000    1.667    0.000    3.000   14.000    2.667 
#    3.000    3.333    0.000    0.000    0.000    0.000 
#    0.000    0.000    0.000    0.000    0.000    0.000 
#
# Total GULP energy -133825.992042 kJ/mol
# GULP energy per Si atom -5576.083002 kJ/mol
# Density = 2.707088 g / cm^3
# Si number density = 27.132631 Si / 1000 Ang^3
#
#
#
# Elastic Constant Matrix: (Units=GPa)
#
#
# Indices 1 2 3 4 5 6 
#
# 1 108.7692 9.8896 32.8356 0.0000 0.0000 0.0000
# 2 9.8896 108.7575 -2.7697 0.0000 0.0000 0.0000
# 3 32.8356 -2.7697 78.2089 0.0000 0.0000 0.0000
# 4 0.0000 0.0000 0.0000 34.6857 0.0000 0.0000
# 5 0.0000 0.0000 0.0000 0.0000 -26.9689 0.0000
# 6 0.0000 0.0000 0.0000 0.0000 0.0000 58.7998
#
#
#
# Elastic Compliance Matrix: (Units=1/GPa)
#
#
# Indices 1 2 3 4 5 6 
#
# 1 0.010654 -0.001084 -0.004512 0.000000 0.000000 0.000000
# 2 -0.001084 0.009313 0.000785 0.000000 0.000000 0.000000
# 3 -0.004512 0.000785 0.014708 0.000000 0.000000 0.000000
# 4 0.000000 0.000000 0.000000 0.028830 0.000000 0.000000
# 5 0.000000 0.000000 0.000000 0.000000 -0.037080 0.000000
# 6 0.000000 0.000000 0.000000 0.000000 0.000000 0.017007
#
#
# Mechanical properties :
#
#
# Convention : Reuss Voigt Hill
#
# Bulk Modulus (GPa) = 39.91229 41.73850 40.82540
# Shear Modulus (GPa) = 81.42580 30.35534 55.89057
#
# Velocity S-wave (km/s) = 5.48411 3.34844 4.54354
# Velocity P-wave (km/s) = 7.40558 5.51053 6.52719
#
# Compressibility (1/GPa) = 0.02505494
#
# Stress axis : x y z
#
# Youngs Moduli (GPa) = 93.85912 107.37330 67.98932
#
# Poissons Ratio (x) = 0.11636 0.30673
# Poissons Ratio (y) = 0.10172 -0.05336
# Poissons Ratio (z) = 0.42345 -0.08427
#
# Static dielectric constant tensor:
#      x y z
#    x 2.320380 0.000000 0.000000 
#    y 0.000000 2.120870 0.000000 
#    z 0.000000 0.000000 2.192440 
# 
# From -- ./inp_files/9434.got.cif
#   From: 2010.05.17/outbox.cif.g08.bks.cpg/sg45_5_cif.got.tgz:9434.got - 2010.06.03 19:51:22.
