data_PCOD9377566
_publ_section_title
;
Structure prediction by ZEFSAII (Michael W. Deem and Ramdas Pophale) SiO2 
 PCOD9377566
Probable space group: I B A 2
;
_chemical_formula_sum "Si O2"
_cell_formula_units_Z 48
_cell_length_a 7.338098
_cell_length_b 21.988133
_cell_length_c 12.149548
_cell_angle_alpha 90.000000
_cell_angle_beta 90.000000
_cell_angle_gamma 90.000000
_cell_volume 1960.342628
_symmetry_space_group_name_H-M "I B A 2"
_symmetry_group_IT_number 45
_symmetry_cell_setting 'orthorhombic'
loop_
_space_group_symop_operation_xyz
x,y,z
-x,-y,z
-x,y,1/2+z
x,-y,1/2+z
1/2+x,1/2+y,1/2+z
1/2-x,1/2-y,1/2+z
1/2-x,1/2+y,z
1/2+x,1/2-y,z
loop_
_atom_site_type_symbol
_atom_site_label
_atom_site_fract_x
_atom_site_fract_y
_atom_site_fract_z
Si Si1 0.127380 0.820435 0.018080
Si Si2 0.000000 0.500000 0.836384
Si Si3 0.000000 0.000000 0.098941
Si Si4 0.756711 0.079856 0.454844
Si Si5 0.129742 0.100250 0.719486
Si Si6 0.718392 0.878090 0.292200
Si Si7 0.299647 0.816493 0.575893
O O1 0.197224 0.852104 0.130002
O O2 0.150124 0.748057 0.027628
O O3 0.908305 0.826778 0.032605
O O4 0.223904 0.849989 0.911217
O O5 0.835945 0.481792 0.915406
O O6 0.924028 0.565038 0.787039
O O7 0.844145 0.032035 0.172932
O O8 0.072619 0.053518 0.021712
O O9 0.794994 0.112350 0.339307
O O10 0.619715 0.122141 0.523132
O O11 0.911401 0.100606 0.740312
O O12 0.668321 0.823804 0.206178
#
# Coordination Sequence:
#
# PCOD9377566 Si02
#       7
#     8   4   4   8   8   8   8
#     4  11  25  46  73 104 138 190 239 299 357 436
#     4  12  28  42  70 106 150 182 234 310 350 440
#     4  12  20  44  74  98 136 184 234 286 360 450
#     4  12  25  43  67 106 136 186 231 294 360 428
#     4  11  22  45  74  98 133 189 235 287 363 434
#     4  11  24  50  70 106 144 187 241 297 367 432
#     4  11  27  45  74 101 141 190 239 299 363 433
#
# _framework density 24.485516000000001
#
# number of rings (size 3 to 8) (size 9 to 14) (size 15 to 20)
#    0.000    0.667    5.000    3.500    4.667    2.000 
#    0.000    0.000    0.000    0.000    0.000    0.000 
#    0.000    0.000    0.000    0.000    0.000    0.000 
#
# Total GULP energy -133808.705282 kJ/mol
# GULP energy per Si atom -5575.362720 kJ/mol
# Density = 2.442979 g / cm^3
# Si number density = 24.485516 Si / 1000 Ang^3
#
#
#
# Elastic Constant Matrix: (Units=GPa)
#
#
# Indices 1 2 3 4 5 6 
#
# 1 51.2536 -1.0927 10.2677 0.0000 0.0000 0.0000
# 2 -1.0927 142.5615 49.9366 0.0000 0.0000 0.0000
# 3 10.2677 49.9366 181.7733 0.0001 0.0000 0.0000
# 4 0.0000 0.0000 0.0001 35.5619 0.0000 0.0000
# 5 0.0000 0.0000 0.0000 0.0000 7.8644 0.0000
# 6 0.0000 0.0000 0.0000 0.0000 0.0000 29.6333
#
#
#
# Elastic Compliance Matrix: (Units=1/GPa)
#
#
# Indices 1 2 3 4 5 6 
#
# 1 0.019781 0.000601 -0.001282 0.000000 0.000000 0.000000
# 2 0.000601 0.007780 -0.002171 0.000000 0.000000 0.000000
# 3 -0.001282 -0.002171 0.006170 0.000000 0.000000 0.000000
# 4 0.000000 0.000000 0.000000 0.028120 0.000000 0.000000
# 5 0.000000 0.000000 0.000000 0.000000 0.127156 0.000000
# 6 0.000000 0.000000 0.000000 0.000000 0.000000 0.033746
#
#
# Mechanical properties :
#
#
# Convention : Reuss Voigt Hill
#
# Bulk Modulus (GPa) = 35.68246 54.86795 45.27521
# Shear Modulus (GPa) = 21.02616 35.71036 28.36826
#
# Velocity S-wave (km/s) = 2.93357 3.82308 3.40747
# Velocity P-wave (km/s) = 5.10676 6.47649 5.83197
#
# Compressibility (1/GPa) = 0.02802497
#
# Stress axis : x y z
#
# Youngs Moduli (GPa) = 50.55476 128.54071 162.06787
#
# Poissons Ratio (x) = -0.07723 0.20783
# Poissons Ratio (y) = -0.03037 0.35187
# Poissons Ratio (z) = 0.06483 0.27908
#
# Static dielectric constant tensor:
#      x y z
#    x 2.075990 0.000000 0.000000 
#    y 0.000000 2.131160 0.000000 
#    z 0.000000 0.000000 1.968510 
# 
# From -- ./inp_files/3292.got.cif
#   From: 2010.05.17/outbox.cif.g08.bks.cpg/sg45_2_cif.got.tgz:3292.got - 2010.06.03 19:51:22.
