data_PCOD9377719
_publ_section_title
;
Structure prediction by ZEFSAII (Michael W. Deem and Ramdas Pophale) SiO2 
 PCOD9377719
Probable space group: I B A 2
;
_chemical_formula_sum "Si O2"
_cell_formula_units_Z 32
_cell_length_a 26.893410
_cell_length_b 4.615154
_cell_length_c 10.108128
_cell_angle_alpha 90.000000
_cell_angle_beta 90.000000
_cell_angle_gamma 90.000000
_cell_volume 1254.592835
_symmetry_space_group_name_H-M "I B A 2"
_symmetry_group_IT_number 45
_symmetry_cell_setting 'orthorhombic'
loop_
_space_group_symop_operation_xyz
x,y,z
-x,-y,z
-x,y,1/2+z
x,-y,1/2+z
1/2+x,1/2+y,1/2+z
1/2-x,1/2-y,1/2+z
1/2-x,1/2+y,z
1/2+x,1/2-y,z
loop_
_atom_site_type_symbol
_atom_site_label
_atom_site_fract_x
_atom_site_fract_y
_atom_site_fract_z
Si Si1 0.652241 0.056050 0.423880
Si Si2 0.500000 0.000000 0.807304
Si Si3 0.417987 0.574111 0.943524
Si Si4 0.500000 0.500000 0.629235
Si Si5 0.215163 0.557741 0.175097
O O1 0.617294 0.325669 0.383115
O O2 0.676991 0.907689 0.296006
O O3 0.620273 0.808849 0.498481
O O4 0.692388 0.142934 0.533781
O O5 0.542154 0.205407 0.873165
O O6 0.476425 0.242549 0.713152
O O7 0.454464 0.395358 0.039948
O O8 0.266960 0.727631 0.187395
#
# Coordination Sequence:
#
# PCOD9377719 Si02
#       5
#     8   4   8   4   8
#     4  12  27  45  81 109 156 200 263 327 385 493
#     4  12  26  46  76 102 160 208 254 328 394 470
#     4  12  27  47  69 118 146 205 265 315 396 459
#     4  12  26  46  74 102 160 206 254 328 392 466
#     4  12  26  50  75 112 152 201 254 327 412 471
#
# _framework density 25.506281000000001
#
# number of rings (size 3 to 8) (size 9 to 14) (size 15 to 20)
#    0.000    0.000    0.000   10.500   10.500    0.000 
#    0.000    0.000    0.000    0.000    0.000    0.000 
#    0.000    0.000    0.000    0.000    0.000    0.000 
#
# Total GULP energy -89323.928618 kJ/mol
# GULP energy per Si atom -5582.745539 kJ/mol
# Density = 2.544823 g / cm^3
# Si number density = 25.506281 Si / 1000 Ang^3
#
#
#
# Elastic Constant Matrix: (Units=GPa)
#
#
# Indices 1 2 3 4 5 6 
#
# 1 100.6418 32.5001 36.7477 0.0000 0.0000 0.0000
# 2 32.5001 117.1460 23.3269 0.0000 0.0000 0.0000
# 3 36.7477 23.3269 87.8652 0.0000 0.0000 0.0000
# 4 0.0000 0.0000 0.0000 22.7265 0.0000 0.0000
# 5 0.0000 0.0000 0.0000 0.0000 36.3973 0.0000
# 6 0.0000 0.0000 0.0000 0.0000 0.0000 61.5584
#
#
#
# Elastic Compliance Matrix: (Units=1/GPa)
#
#
# Indices 1 2 3 4 5 6 
#
# 1 0.012405 -0.002543 -0.004513 0.000000 0.000000 0.000000
# 2 -0.002543 0.009534 -0.001468 0.000000 0.000000 0.000000
# 3 -0.004513 -0.001468 0.013658 0.000000 0.000000 0.000000
# 4 0.000000 0.000000 0.000000 0.044001 0.000000 0.000000
# 5 0.000000 0.000000 0.000000 0.000000 0.027475 0.000000
# 6 0.000000 0.000000 0.000000 0.000000 0.000000 0.016245
#
#
# Mechanical properties :
#
#
# Convention : Reuss Voigt Hill
#
# Bulk Modulus (GPa) = 53.90778 54.53363 54.22070
# Shear Modulus (GPa) = 34.11822 38.34166 36.22994
#
# Velocity S-wave (km/s) = 3.66134 3.88135 3.77295
# Velocity P-wave (km/s) = 6.24939 6.44309 6.34698
#
# Compressibility (1/GPa) = 0.01855020
#
# Stress axis : x y z
#
# Youngs Moduli (GPa) = 80.61055 104.88673 73.21593
#
# Poissons Ratio (x) = 0.26672 0.33043
# Poissons Ratio (y) = 0.20499 0.10745
# Poissons Ratio (z) = 0.36381 0.15393
#
# Static dielectric constant tensor:
#      x y z
#    x 1.956820 0.000000 0.000000 
#    y 0.000000 1.991060 0.000000 
#    z 0.000000 0.000000 2.099360 
# 
# From -- ./inp_files/769.got.cif
#   From: 2010.05.17/outbox.cif.g08.bks.cpg/sg45_1_cif.got.tgz:769.got - 2010.06.03 19:51:22.
