data_PCOD9377511
_publ_section_title
;
Structure prediction by ZEFSAII (Michael W. Deem and Ramdas Pophale) SiO2 
 PCOD9377511
Probable space group: I B A 2
;
_chemical_formula_sum "Si O2"
_cell_formula_units_Z 64
_cell_length_a 19.063359
_cell_length_b 9.676793
_cell_length_c 18.142014
_cell_angle_alpha 90.000000
_cell_angle_beta 90.000000
_cell_angle_gamma 90.000000
_cell_volume 3346.696853
_symmetry_space_group_name_H-M "I B A 2"
_symmetry_group_IT_number 45
_symmetry_cell_setting 'orthorhombic'
loop_
_space_group_symop_operation_xyz
x,y,z
-x,-y,z
-x,y,1/2+z
x,-y,1/2+z
1/2+x,1/2+y,1/2+z
1/2-x,1/2-y,1/2+z
1/2-x,1/2+y,z
1/2+x,1/2-y,z
loop_
_atom_site_type_symbol
_atom_site_label
_atom_site_fract_x
_atom_site_fract_y
_atom_site_fract_z
Si Si1 0.444371 0.376729 0.801910
Si Si2 0.816195 0.240685 0.028354
Si Si3 0.206776 0.002905 0.777343
Si Si4 0.087688 0.395536 0.916867
Si Si5 0.451880 0.787627 0.452955
Si Si6 0.810586 0.706519 0.696397
Si Si7 0.237950 0.488237 0.943482
Si Si8 0.538870 0.857234 0.248475
O O1 0.500000 0.500000 0.808317
O O2 0.369406 0.430536 0.774963
O O3 0.435748 0.307527 0.882441
O O4 0.480916 0.262960 0.749793
O O5 0.792858 0.263505 0.111737
O O6 0.900565 0.246825 0.018516
O O7 0.785632 0.366965 0.979250
O O8 0.789974 0.096346 0.995502
O O9 0.263265 0.913425 0.731944
O O10 0.230679 0.010630 0.862410
O O11 0.200949 0.155206 0.743765
O O12 0.068228 0.555808 0.930082
O O13 0.169261 0.390484 0.934222
O O14 0.069697 0.362788 0.832169
O O15 0.035600 0.298428 0.963975
O O16 0.892804 0.667609 0.699900
O O17 0.500000 0.000000 0.232310
#
# Coordination Sequence:
#
# PCOD9377511 Si02
#       8
#     8   8   8   8   8   8   8   8
#     4  11  21  38  63  98 122 164 216 282 313 369
#     4  11  24  43  61  93 135 169 204 265 330 385
#     4  12  25  41  70  97 128 173 229 266 322 385
#     4   9  17  34  63  93 117 153 218 267 298 363
#     4   9  18  36  62  87 123 158 205 265 312 369
#     4  12  27  43  63  98 137 173 210 272 334 392
#     4  11  22  39  67  94 124 168 218 263 310 382
#     4  11  21  39  65  92 129 164 216 267 324 376
#
# _framework density 19.123335000000001
#
# number of rings (size 3 to 8) (size 9 to 14) (size 15 to 20)
#    0.000    1.250    6.250    1.500    3.500    0.000 
#    4.500    0.000    2.750    0.000    0.000    0.000 
#    0.000    0.000    0.000    0.000    0.000    0.000 
#
# Total GULP energy -178682.420315 kJ/mol
# GULP energy per Si atom -5583.825635 kJ/mol
# Density = 1.907981 g / cm^3
# Si number density = 19.123335 Si / 1000 Ang^3
#
#
#
# Elastic Constant Matrix: (Units=GPa)
#
#
# Indices 1 2 3 4 5 6 
#
# 1 100.4365 32.6876 24.2363 0.0000 0.0000 0.0000
# 2 32.6876 82.9327 15.7470 0.0000 0.0000 0.0000
# 3 24.2363 15.7470 75.0132 0.0000 0.0000 0.0000
# 4 0.0000 0.0000 0.0000 12.1104 0.0000 0.0000
# 5 0.0000 0.0000 0.0000 0.0000 10.1829 0.0000
# 6 0.0000 0.0000 0.0000 0.0000 0.0000 28.4564
#
#
#
# Elastic Compliance Matrix: (Units=1/GPa)
#
#
# Indices 1 2 3 4 5 6 
#
# 1 0.012042 -0.004174 -0.003015 0.000000 0.000000 0.000000
# 2 -0.004174 0.014005 -0.001591 0.000000 0.000000 0.000000
# 3 -0.003015 -0.001591 0.014639 0.000000 0.000000 0.000000
# 4 0.000000 0.000000 0.000000 0.082574 0.000000 0.000000
# 5 0.000000 0.000000 0.000000 0.000000 0.098204 0.000000
# 6 0.000000 0.000000 0.000000 0.000000 0.000000 0.035141
#
#
# Mechanical properties :
#
#
# Convention : Reuss Voigt Hill
#
# Bulk Modulus (GPa) = 43.24020 44.85826 44.04923
# Shear Modulus (GPa) = 17.73835 22.53069 20.13452
#
# Velocity S-wave (km/s) = 3.04892 3.43618 3.24833
# Velocity P-wave (km/s) = 5.92071 6.26509 6.09534
#
# Compressibility (1/GPa) = 0.02312663
#
# Stress axis : x y z
#
# Youngs Moduli (GPa) = 83.03940 71.40127 68.31039
#
# Poissons Ratio (x) = 0.29804 0.20593
# Poissons Ratio (y) = 0.34661 0.10871
# Poissons Ratio (z) = 0.25033 0.11363
#
# Static dielectric constant tensor:
#      x y z
#    x 1.706960 0.000000 0.000000 
#    y 0.000000 1.647540 0.000000 
#    z 0.000000 0.000000 1.645680 
# 
# From -- ./inp_files/8447.got.cif
#   From: 2010.05.17/outbox.cif.g08.bks.cpg/sg45_5_cif.got.tgz:8447.got - 2010.06.03 19:51:22.
