data_PCOD9377459
_publ_section_title
;
Structure prediction by ZEFSAII (Michael W. Deem and Ramdas Pophale) SiO2 
 PCOD9377459
Probable space group: I B A 2
;
_chemical_formula_sum "Si O2"
_cell_formula_units_Z 56
_cell_length_a 15.769793
_cell_length_b 10.869067
_cell_length_c 14.913684
_cell_angle_alpha 90.000000
_cell_angle_beta 90.000000
_cell_angle_gamma 90.000000
_cell_volume 2556.249235
_symmetry_space_group_name_H-M "I B A 2"
_symmetry_group_IT_number 45
_symmetry_cell_setting 'orthorhombic'
loop_
_space_group_symop_operation_xyz
x,y,z
-x,-y,z
-x,y,1/2+z
x,-y,1/2+z
1/2+x,1/2+y,1/2+z
1/2-x,1/2-y,1/2+z
1/2-x,1/2+y,z
1/2+x,1/2-y,z
loop_
_atom_site_type_symbol
_atom_site_label
_atom_site_fract_x
_atom_site_fract_y
_atom_site_fract_z
Si Si1 0.822183 0.911190 0.243160
Si Si2 0.924980 0.099059 0.921624
Si Si3 0.132313 0.674351 0.632300
Si Si4 0.140903 0.466927 0.782551
Si Si5 0.436772 0.165282 0.134757
Si Si6 0.687817 0.615429 0.089998
Si Si7 0.073681 0.601689 0.946135
O O1 0.885690 0.931212 0.324968
O O2 0.854299 0.796419 0.188445
O O3 0.727666 0.891048 0.281423
O O4 0.813712 0.016463 0.168908
O O5 0.942366 0.250246 0.928276
O O6 0.855231 0.073858 0.998109
O O7 0.000000 0.000000 0.937631
O O8 0.140391 0.566238 0.703786
O O9 0.216267 0.662006 0.571370
O O10 0.034196 0.678775 0.602703
O O11 0.067218 0.380789 0.738138
O O12 0.137004 0.546368 0.872625
O O13 0.376034 0.281427 0.128291
O O14 0.399379 0.086994 0.050314
O O15 0.000000 0.500000 0.933316
#
# Coordination Sequence:
#
# PCOD9377459 Si02
#       7
#     8   8   8   8   8   8   8
#     4  11  25  43  71 104 147 191 243 303 380 437
#     4  11  27  48  70 109 147 191 248 305 375 456
#     4  11  22  44  69 101 141 192 236 306 359 443
#     4  11  23  43  69 101 142 184 242 302 361 438
#     4  11  24  43  74 104 140 190 251 299 373 446
#     4  10  26  47  69 104 147 193 244 297 381 450
#     4  11  24  44  69 104 139 185 245 300 361 435
#
# _framework density 21.907097
#
# number of rings (size 3 to 8) (size 9 to 14) (size 15 to 20)
#    0.000    1.143    2.857    2.143    6.000    3.429 
#    0.000    0.000    0.000    0.000    0.000    0.000 
#    0.000    0.000    0.000    0.000    0.000    0.000 
#
# Total GULP energy -155932.114361 kJ/mol
# GULP energy per Si atom -5569.004084 kJ/mol
# Density = 2.185724 g / cm^3
# Si number density = 21.907097 Si / 1000 Ang^3
#
#
#
# Elastic Constant Matrix: (Units=GPa)
#
#
# Indices 1 2 3 4 5 6 
#
# 1 116.6725 30.9610 41.0401 0.0000 0.0000 0.0000
# 2 30.9610 47.7337 27.3383 0.0000 0.0000 0.0000
# 3 41.0401 27.3383 107.0299 0.0000 0.0000 0.0000
# 4 0.0000 0.0000 0.0000 7.6882 0.0000 0.0000
# 5 0.0000 0.0000 0.0000 0.0000 41.1916 0.0000
# 6 0.0000 0.0000 0.0000 0.0000 0.0000 37.8317
#
#
#
# Elastic Compliance Matrix: (Units=1/GPa)
#
#
# Indices 1 2 3 4 5 6 
#
# 1 0.011032 -0.005544 -0.002814 0.000000 0.000000 0.000000
# 2 -0.005544 0.027325 -0.004854 0.000000 0.000000 0.000000
# 3 -0.002814 -0.004854 0.011662 0.000000 0.000000 0.000000
# 4 0.000000 0.000000 0.000000 0.130069 0.000000 0.000000
# 5 0.000000 0.000000 0.000000 0.000000 0.024277 0.000000
# 6 0.000000 0.000000 0.000000 0.000000 0.000000 0.026433
#
#
# Mechanical properties :
#
#
# Convention : Reuss Voigt Hill
#
# Bulk Modulus (GPa) = 42.38058 52.23501 47.30779
# Shear Modulus (GPa) = 18.86174 28.81544 23.83859
#
# Velocity S-wave (km/s) = 2.93744 3.63071 3.30232
# Velocity P-wave (km/s) = 5.55809 6.43985 6.01515
#
# Compressibility (1/GPa) = 0.02359571
#
# Stress axis : x y z
#
# Youngs Moduli (GPa) = 90.64510 36.59607 85.74823
#
# Poissons Ratio (x) = 0.20288 0.24131
# Poissons Ratio (y) = 0.50252 0.41621
# Poissons Ratio (z) = 0.25509 0.17763
#
# Static dielectric constant tensor:
#      x y z
#    x 1.828060 0.000000 0.000000 
#    y 0.000000 1.924640 0.000000 
#    z 0.000000 0.000000 1.816690 
# 
# From -- ./inp_files/6520.got.cif
#   From: 2010.05.17/outbox.cif.g08.bks.cpg/sg45_4_cif.got.tgz:6520.got - 2010.06.03 19:51:22.
