data_PCOD9377396
_publ_section_title
;
Structure prediction by ZEFSAII (Michael W. Deem and Ramdas Pophale) SiO2 
 PCOD9377396
Probable space group: I B A 2
;
_chemical_formula_sum "Si O2"
_cell_formula_units_Z 32
_cell_length_a 26.960962
_cell_length_b 5.089090
_cell_length_c 9.010526
_cell_angle_alpha 90.000000
_cell_angle_beta 90.000000
_cell_angle_gamma 90.000000
_cell_volume 1236.305097
_symmetry_space_group_name_H-M "I B A 2"
_symmetry_group_IT_number 45
_symmetry_cell_setting 'orthorhombic'
loop_
_space_group_symop_operation_xyz
x,y,z
-x,-y,z
-x,y,1/2+z
x,-y,1/2+z
1/2+x,1/2+y,1/2+z
1/2-x,1/2-y,1/2+z
1/2-x,1/2+y,z
1/2+x,1/2-y,z
loop_
_atom_site_type_symbol
_atom_site_label
_atom_site_fract_x
_atom_site_fract_y
_atom_site_fract_z
Si Si1 0.500000 0.000000 0.203430
Si Si2 0.913284 0.295993 0.041083
Si Si3 0.000000 0.000000 0.910125
Si Si4 0.282369 0.735168 0.056730
Si Si5 0.653837 0.048209 0.791016
O O1 0.451730 0.986903 0.101570
O O2 0.493697 0.250473 0.305633
O O3 0.874593 0.263899 0.174796
O O4 0.884738 0.396575 0.896885
O O5 0.950262 0.060762 0.001935
O O6 0.264495 0.435659 0.062377
O O7 0.316299 0.837611 0.191653
O O8 0.310580 0.795441 0.903022
#
# Coordination Sequence:
#
# PCOD9377396 Si02
#       5
#     4   8   4   8   8
#     4  12  26  50  74 108 156 210 262 324 394 464
#     4  11  24  51  75 116 156 211 266 326 392 461
#     4  12  26  50  78 106 158 210 264 324 396 462
#     4  11  24  50  77 114 156 201 253 328 413 472
#     4  10  24  48  80 116 155 205 268 327 386 495
#
# _framework density 25.883576999999999
#
# number of rings (size 3 to 8) (size 9 to 14) (size 15 to 20)
#    0.000    1.000    2.500    3.000    0.000    0.000 
#   18.000    0.000    0.000    0.000    0.000    0.000 
#    0.000    0.000    0.000    0.000    0.000    0.000 
#
# Total GULP energy -89843.680424 kJ/mol
# GULP energy per Si atom -5615.230026 kJ/mol
# Density = 2.582466 g / cm^3
# Si number density = 25.883577 Si / 1000 Ang^3
#
#
#
# Elastic Constant Matrix: (Units=GPa)
#
#
# Indices 1 2 3 4 5 6 
#
# 1 145.9309 28.3136 81.5487 0.0000 0.0000 0.0000
# 2 28.3136 120.1632 46.7417 0.0000 0.0000 0.0000
# 3 81.5487 46.7417 193.0920 0.0000 0.0000 0.0000
# 4 0.0000 0.0000 0.0000 36.0327 0.0000 0.0000
# 5 0.0000 0.0000 0.0000 0.0000 65.9977 0.0000
# 6 0.0000 0.0000 0.0000 0.0000 0.0000 41.9718
#
#
#
# Elastic Compliance Matrix: (Units=1/GPa)
#
#
# Indices 1 2 3 4 5 6 
#
# 1 0.009024 -0.000711 -0.003639 0.000000 0.000000 0.000000
# 2 -0.000711 0.009243 -0.001937 0.000000 0.000000 0.000000
# 3 -0.003639 -0.001937 0.007185 0.000000 0.000000 0.000000
# 4 0.000000 0.000000 0.000000 0.027753 0.000000 0.000000
# 5 0.000000 0.000000 0.000000 0.000000 0.015152 0.000000
# 6 0.000000 0.000000 0.000000 0.000000 0.000000 0.023826
#
#
# Mechanical properties :
#
#
# Convention : Reuss Voigt Hill
#
# Bulk Modulus (GPa) = 77.65427 85.82156 81.73792
# Shear Modulus (GPa) = 45.85104 48.97257 47.41180
#
# Velocity S-wave (km/s) = 4.21341 4.35447 4.28452
# Velocity P-wave (km/s) = 7.33055 7.64922 7.49158
#
# Compressibility (1/GPa) = 0.01287759
#
# Stress axis : x y z
#
# Youngs Moduli (GPa) = 110.81511 108.18919 139.18399
#
# Poissons Ratio (x) = 0.07690 0.50650
# Poissons Ratio (y) = 0.07876 0.26964
# Poissons Ratio (z) = 0.40326 0.20959
#
# Static dielectric constant tensor:
#      x y z
#    x 2.061230 0.000000 0.000000 
#    y 0.000000 1.988580 0.000000 
#    z 0.000000 0.000000 2.029860 
# 
# From -- ./inp_files/766.got.cif
#   From: 2010.05.17/outbox.cif.g08.bks.cpg/sg45_1_cif.got.tgz:766.got - 2010.06.03 19:51:22.
