data_PCOD9377563
_publ_section_title
;
Structure prediction by ZEFSAII (Michael W. Deem and Ramdas Pophale) SiO2 
 PCOD9377563
Probable space group: I B A 2
;
_chemical_formula_sum "Si O2"
_cell_formula_units_Z 48
_cell_length_a 9.691909
_cell_length_b 19.096248
_cell_length_c 12.661164
_cell_angle_alpha 90.000000
_cell_angle_beta 90.000000
_cell_angle_gamma 90.000000
_cell_volume 2343.316811
_symmetry_space_group_name_H-M "I B A 2"
_symmetry_group_IT_number 45
_symmetry_cell_setting 'orthorhombic'
loop_
_space_group_symop_operation_xyz
x,y,z
-x,-y,z
-x,y,1/2+z
x,-y,1/2+z
1/2+x,1/2+y,1/2+z
1/2-x,1/2-y,1/2+z
1/2-x,1/2+y,z
1/2+x,1/2-y,z
loop_
_atom_site_type_symbol
_atom_site_label
_atom_site_fract_x
_atom_site_fract_y
_atom_site_fract_z
Si Si1 0.353833 0.370385 0.200290
Si Si2 0.127728 0.207536 0.923503
Si Si3 0.642680 0.479810 0.424054
Si Si4 0.664270 0.003167 0.738121
Si Si5 0.847497 0.096066 0.603352
Si Si6 0.170521 0.817617 0.981400
O O1 0.352109 0.336313 0.316172
O O2 0.246209 0.434849 0.194811
O O3 0.510792 0.392083 0.168397
O O4 0.312063 0.316482 0.107642
O O5 0.176775 0.161427 0.024899
O O6 0.205648 0.280663 0.922614
O O7 0.967408 0.220446 0.944200
O O8 0.500000 0.500000 0.363167
O O9 0.779054 0.494092 0.357345
O O10 0.636536 0.530876 0.523595
O O11 0.644891 0.398729 0.453459
O O12 0.726028 0.071967 0.680709
O O13 0.500000 0.000000 0.728872
#
# Coordination Sequence:
#
# PCOD9377563 Si02
#       6
#     8   8   8   8   8   8
#     4  11  22  45  71  97 130 191 245 277 353 435
#     4  11  25  43  67 101 139 183 231 292 362 433
#     4  12  20  44  74  98 126 186 250 290 340 429
#     4  12  25  37  65 106 140 173 226 308 367 408
#     4  11  22  44  74  96 131 188 250 293 339 438
#     4  11  25  42  68 101 139 184 229 301 353 428
#
# _framework density 20.483788000000001
#
# number of rings (size 3 to 8) (size 9 to 14) (size 15 to 20)
#    0.000    0.667    6.667    2.500    0.000    7.333 
#    0.000    0.000    0.000    0.000    0.000    0.000 
#    0.000    0.000    0.000    0.000    0.000    0.000 
#
# Total GULP energy -134064.722517 kJ/mol
# GULP energy per Si atom -5586.030105 kJ/mol
# Density = 2.043717 g / cm^3
# Si number density = 20.483788 Si / 1000 Ang^3
#
#
#
# Elastic Constant Matrix: (Units=GPa)
#
#
# Indices 1 2 3 4 5 6 
#
# 1 109.3767 33.3654 28.1878 0.0000 0.0000 0.0000
# 2 33.3654 71.8922 23.7355 0.0001 0.0000 0.0000
# 3 28.1878 23.7355 92.1261 0.0001 0.0000 0.0000
# 4 0.0000 0.0001 0.0001 25.8763 0.0000 0.0000
# 5 0.0000 0.0000 0.0000 0.0000 18.9405 0.0000
# 6 0.0000 0.0000 0.0000 0.0000 0.0000 25.2316
#
#
#
# Elastic Compliance Matrix: (Units=1/GPa)
#
#
# Indices 1 2 3 4 5 6 
#
# 1 0.011063 -0.004390 -0.002254 0.000000 0.000000 0.000000
# 2 -0.004390 0.016945 -0.003023 0.000000 0.000000 0.000000
# 3 -0.002254 -0.003023 0.012323 0.000000 0.000000 0.000000
# 4 0.000000 0.000000 0.000000 0.038645 0.000000 0.000000
# 5 0.000000 0.000000 0.000000 0.000000 0.052797 0.000000
# 6 0.000000 0.000000 0.000000 0.000000 0.000000 0.039633
#
#
# Mechanical properties :
#
#
# Convention : Reuss Voigt Hill
#
# Bulk Modulus (GPa) = 47.62367 49.33025 48.47696
# Shear Modulus (GPa) = 25.28597 26.55011 25.91804
#
# Velocity S-wave (km/s) = 3.51727 3.60412 3.56096
# Velocity P-wave (km/s) = 6.30831 6.43851 6.37374
#
# Compressibility (1/GPa) = 0.02099796
#
# Stress axis : x y z
#
# Youngs Moduli (GPa) = 90.39324 59.01408 81.14904
#
# Poissons Ratio (x) = 0.25908 0.18289
# Poissons Ratio (y) = 0.39684 0.24527
# Poissons Ratio (z) = 0.20373 0.17837
#
# Static dielectric constant tensor:
#      x y z
#    x 1.713060 0.000000 0.000000 
#    y 0.000000 1.734030 0.000000 
#    z 0.000000 0.000000 1.798310 
# 
# From -- ./inp_files/5589.got.cif
#   From: 2010.05.17/outbox.cif.g08.bks.cpg/sg45_3_cif.got.tgz:5589.got - 2010.06.03 19:51:22.
