data_PCOD9377648
_publ_section_title
;
Structure prediction by ZEFSAII (Michael W. Deem and Ramdas Pophale) SiO2 
 PCOD9377648
Probable space group: I B A 2
;
_chemical_formula_sum "Si O2"
_cell_formula_units_Z 40
_cell_length_a 20.682519
_cell_length_b 5.070345
_cell_length_c 13.916839
_cell_angle_alpha 90.000000
_cell_angle_beta 90.000000
_cell_angle_gamma 90.000000
_cell_volume 1459.424208
_symmetry_space_group_name_H-M "I B A 2"
_symmetry_group_IT_number 45
_symmetry_cell_setting 'orthorhombic'
loop_
_space_group_symop_operation_xyz
x,y,z
-x,-y,z
-x,y,1/2+z
x,-y,1/2+z
1/2+x,1/2+y,1/2+z
1/2-x,1/2-y,1/2+z
1/2-x,1/2+y,z
1/2+x,1/2-y,z
loop_
_atom_site_type_symbol
_atom_site_label
_atom_site_fract_x
_atom_site_fract_y
_atom_site_fract_z
Si Si1 0.933640 0.912119 0.779210
Si Si2 0.281395 0.279123 0.159120
Si Si3 0.421490 0.965536 0.940046
Si Si4 0.291350 0.725835 0.427786
Si Si5 0.092175 0.443573 0.165893
O O1 0.899413 0.761033 0.866273
O O2 0.953285 0.685265 0.701452
O O3 0.910455 0.169927 0.722522
O O4 0.000000 0.000000 0.827624
O O5 0.224193 0.081076 0.188851
O O6 0.342711 0.109358 0.187738
O O7 0.284097 0.289715 0.043638
O O8 0.367563 0.194088 0.917135
O O9 0.500000 0.000000 0.927276
O O10 0.412430 0.896098 0.052131
O O11 0.243623 0.959601 0.393188
#
# Coordination Sequence:
#
# PCOD9377648 Si02
#       5
#     8   8   8   8   8
#     4  12  26  45  66 100 140 175 229 295 348 405
#     4   9  17  35  63  94 129 174 226 278 335 403
#     4  11  25  46  75 105 139 186 238 286 347 417
#     4   9  20  39  64  96 137 180 223 280 345 406
#     4  11  25  45  70  99 139 185 227 283 352 415
#
# _framework density 27.408069000000001
#
# number of rings (size 3 to 8) (size 9 to 14) (size 15 to 20)
#    0.000    1.600    0.000    4.200    0.000   12.000 
#    0.000    6.000    0.000    0.000    0.000    0.000 
#    0.000    0.000    0.000    0.000    0.000    0.000 
#
# Total GULP energy -111713.114942 kJ/mol
# GULP energy per Si atom -5585.655747 kJ/mol
# Density = 2.734569 g / cm^3
# Si number density = 27.408069 Si / 1000 Ang^3
#
#
#
# Elastic Constant Matrix: (Units=GPa)
#
#
# Indices 1 2 3 4 5 6 
#
# 1 157.3584 15.9102 -20.3892 0.0000 0.0000 0.0000
# 2 15.9102 134.3391 6.9208 0.0000 0.0000 0.0000
# 3 -20.3892 6.9208 167.6405 0.0000 0.0000 0.0000
# 4 0.0000 0.0000 0.0000 23.1798 0.0000 0.0000
# 5 0.0000 0.0000 0.0000 0.0000 21.7752 0.0000
# 6 0.0000 0.0000 0.0000 0.0000 0.0000 38.0374
#
#
#
# Elastic Compliance Matrix: (Units=1/GPa)
#
#
# Indices 1 2 3 4 5 6 
#
# 1 0.006545 -0.000818 0.000830 0.000000 0.000000 0.000000
# 2 -0.000818 0.007562 -0.000412 0.000000 0.000000 0.000000
# 3 0.000830 -0.000412 0.006083 0.000000 0.000000 0.000000
# 4 0.000000 0.000000 0.000000 0.043141 0.000000 0.000000
# 5 0.000000 0.000000 0.000000 0.000000 0.045924 0.000000
# 6 0.000000 0.000000 0.000000 0.000000 0.000000 0.026290
#
#
# Mechanical properties :
#
#
# Convention : Reuss Voigt Hill
#
# Bulk Modulus (GPa) = 51.57133 51.58017 51.57575
# Shear Modulus (GPa) = 35.01204 47.05822 41.03513
#
# Velocity S-wave (km/s) = 3.57800 4.14810 3.87355
# Velocity P-wave (km/s) = 5.99386 6.46549 6.23414
#
# Compressibility (1/GPa) = 0.01939062
#
# Stress axis : x y z
#
# Youngs Moduli (GPa) = 152.78519 132.24145 164.39074
#
# Poissons Ratio (x) = 0.10816 -0.13641
# Poissons Ratio (y) = 0.12496 0.06767
# Poissons Ratio (z) = -0.12678 0.05444
#
# Static dielectric constant tensor:
#      x y z
#    x 2.617180 0.000000 0.000000 
#    y 0.000000 2.146670 0.000000 
#    z 0.000000 0.000000 2.071230 
# 
# From -- ./inp_files/7009.got.cif
#   From: 2010.05.17/outbox.cif.g08.bks.cpg/sg45_4_cif.got.tgz:7009.got - 2010.06.03 19:51:22.
