data_PCOD9377374
_publ_section_title
;
Structure prediction by ZEFSAII (Michael W. Deem and Ramdas Pophale) SiO2 
 PCOD9377374
Probable space group: I B A 2
;
_chemical_formula_sum "Si O2"
_cell_formula_units_Z 40
_cell_length_a 5.583086
_cell_length_b 21.020899
_cell_length_c 13.136625
_cell_angle_alpha 90.000000
_cell_angle_beta 90.000000
_cell_angle_gamma 90.000000
_cell_volume 1541.733843
_symmetry_space_group_name_H-M "I B A 2"
_symmetry_group_IT_number 45
_symmetry_cell_setting 'orthorhombic'
loop_
_space_group_symop_operation_xyz
x,y,z
-x,-y,z
-x,y,1/2+z
x,-y,1/2+z
1/2+x,1/2+y,1/2+z
1/2-x,1/2-y,1/2+z
1/2-x,1/2+y,z
1/2+x,1/2-y,z
loop_
_atom_site_type_symbol
_atom_site_label
_atom_site_fract_x
_atom_site_fract_y
_atom_site_fract_z
Si Si1 0.500000 0.500000 0.768240
Si Si2 0.606632 0.408570 0.123060
Si Si3 0.500000 0.000000 0.080420
Si Si4 0.268584 0.416545 0.932863
Si Si5 0.643895 0.773580 0.143867
Si Si6 0.131158 0.724772 0.381028
O O1 0.573682 0.431128 0.712466
O O2 0.309413 0.470433 0.849302
O O3 0.777558 0.469968 0.138222
O O4 0.744273 0.343730 0.138954
O O5 0.492633 0.409731 0.011124
O O6 0.568815 0.058401 0.009138
O O7 0.199207 0.349047 0.887505
O O8 0.368192 0.769830 0.104574
O O9 0.611373 0.755173 0.262570
O O10 0.364072 0.762313 0.423187
#
# Coordination Sequence:
#
# PCOD9377374 Si02
#       6
#     4   8   4   8   8   8
#     4  12  22  50  68 102 146 196 226 306 372 432
#     4  12  26  47  72 107 146 187 249 302 368 448
#     4  12  26  46  68 114 138 184 250 308 358 452
#     4  12  26  47  72 107 146 187 249 302 368 448
#     4  10  24  46  73 106 143 193 247 300 368 439
#     4  10  24  46  73 106 143 193 247 300 368 439
#
# _framework density 25.944814999999998
#
# number of rings (size 3 to 8) (size 9 to 14) (size 15 to 20)
#    0.000    0.800    6.000    0.000    5.600    2.400 
#    7.200    0.000    0.000    0.000    0.000    0.000 
#    0.000    0.000    0.000    0.000    0.000    0.000 
#
# Total GULP energy -111696.174352 kJ/mol
# GULP energy per Si atom -5584.808718 kJ/mol
# Density = 2.588576 g / cm^3
# Si number density = 25.944815 Si / 1000 Ang^3
#
#
#
# Elastic Constant Matrix: (Units=GPa)
#
#
# Indices 1 2 3 4 5 6 
#
# 1 114.3773 30.1065 17.6073 0.0000 0.0000 0.0000
# 2 30.1065 108.8496 -13.0283 0.0000 0.0000 0.0000
# 3 17.6073 -13.0283 78.3915 0.0000 0.0000 0.0000
# 4 0.0000 0.0000 0.0000 38.4574 0.0000 0.0000
# 5 0.0000 0.0000 0.0000 0.0000 25.0203 0.0000
# 6 0.0000 0.0000 0.0000 0.0000 0.0000 37.9033
#
#
#
# Elastic Compliance Matrix: (Units=1/GPa)
#
#
# Indices 1 2 3 4 5 6 
#
# 1 0.009981 -0.003090 -0.002755 0.000000 0.000000 0.000000
# 2 -0.003090 0.010330 0.002411 0.000000 0.000000 0.000000
# 3 -0.002755 0.002411 0.013776 0.000000 0.000000 0.000000
# 4 0.000000 0.000000 0.000000 0.026003 0.000000 0.000000
# 5 0.000000 0.000000 0.000000 0.000000 0.039967 0.000000
# 6 0.000000 0.000000 0.000000 0.000000 0.000000 0.026383
#
#
# Mechanical properties :
#
#
# Convention : Reuss Voigt Hill
#
# Bulk Modulus (GPa) = 36.74091 41.22104 38.98097
# Shear Modulus (GPa) = 35.11681 38.07173 36.59427
#
# Velocity S-wave (km/s) = 3.68301 3.83484 3.75969
# Velocity P-wave (km/s) = 5.68137 5.96074 5.82273
#
# Compressibility (1/GPa) = 0.02721762
#
# Stress axis : x y z
#
# Youngs Moduli (GPa) = 100.19459 96.80260 72.58986
#
# Poissons Ratio (x) = 0.29915 0.20001
# Poissons Ratio (y) = 0.30963 -0.17501
# Poissons Ratio (z) = 0.27607 -0.23339
#
# Static dielectric constant tensor:
#      x y z
#    x 2.179710 0.000000 0.000000 
#    y 0.000000 1.993050 0.000000 
#    z 0.000000 0.000000 2.129160 
# 
# From -- ./inp_files/5125.got.cif
#   From: 2010.05.17/outbox.cif.g08.bks.cpg/sg45_3_cif.got.tgz:5125.got - 2010.06.03 19:51:22.
