data_PCOD9377343
_publ_section_title
;
Structure prediction by ZEFSAII (Michael W. Deem and Ramdas Pophale) SiO2 
 PCOD9377343
Probable space group: I B A 2
;
_chemical_formula_sum "Si O2"
_cell_formula_units_Z 32
_cell_length_a 21.099215
_cell_length_b 10.174717
_cell_length_c 5.216527
_cell_angle_alpha 90.000000
_cell_angle_beta 90.000000
_cell_angle_gamma 90.000000
_cell_volume 1119.876408
_symmetry_space_group_name_H-M "I B A 2"
_symmetry_group_IT_number 45
_symmetry_cell_setting 'orthorhombic'
loop_
_space_group_symop_operation_xyz
x,y,z
-x,-y,z
-x,y,1/2+z
x,-y,1/2+z
1/2+x,1/2+y,1/2+z
1/2-x,1/2-y,1/2+z
1/2-x,1/2+y,z
1/2+x,1/2-y,z
loop_
_atom_site_type_symbol
_atom_site_label
_atom_site_fract_x
_atom_site_fract_y
_atom_site_fract_z
Si Si1 0.972393 0.145870 0.696130
Si Si2 0.147789 0.779167 0.422282
Si Si3 0.072716 0.444589 0.615764
Si Si4 0.740949 0.915279 0.700097
O O1 0.901145 0.143118 0.602310
O O2 0.012854 0.212234 0.467233
O O3 0.000000 0.000000 0.735113
O O4 0.103918 0.676662 0.267528
O O5 0.186316 0.867072 0.221071
O O6 0.199926 0.706404 0.596626
O O7 0.096513 0.555095 0.822854
O O8 0.000000 0.500000 0.585188
O O9 0.730114 0.026141 0.483851
#
# Coordination Sequence:
#
# PCOD9377343 Si02
#       4
#     8   8   8   8
#     4  10  26  46  77 120 157 213 273 351 431 511
#     4  12  28  52  85 114 173 219 289 347 448 488
#     4  10  24  44  73 113 156 205 267 339 410 510
#     4  12  30  52  81 121 166 227 287 355 412 525
#
# _framework density 28.574581999999999
#
# number of rings (size 3 to 8) (size 9 to 14) (size 15 to 20)
#    0.000    1.000    0.000    3.000   14.000    8.000 
#    0.000    0.000    0.000    0.000    0.000    0.000 
#    0.000    0.000    0.000    0.000    0.000    0.000 
#
# Total GULP energy -89584.687357 kJ/mol
# GULP energy per Si atom -5599.042960 kJ/mol
# Density = 2.850954 g / cm^3
# Si number density = 28.574582 Si / 1000 Ang^3
#
#
#
# Elastic Constant Matrix: (Units=GPa)
#
#
# Indices 1 2 3 4 5 6 
#
# 1 169.8228 56.6420 42.9320 0.0000 0.0000 0.0000
# 2 56.6420 61.3157 5.6852 0.0000 0.0000 0.0000
# 3 42.9320 5.6852 225.9639 0.0000 0.0000 0.0000
# 4 0.0000 0.0000 0.0000 37.9698 0.0000 0.0000
# 5 0.0000 0.0000 0.0000 0.0000 54.0984 0.0000
# 6 0.0000 0.0000 0.0000 0.0000 0.0000 66.4177
#
#
#
# Elastic Compliance Matrix: (Units=1/GPa)
#
#
# Indices 1 2 3 4 5 6 
#
# 1 0.008993 -0.008168 -0.001503 0.000000 0.000000 0.000000
# 2 -0.008168 0.023766 0.000954 0.000000 0.000000 0.000000
# 3 -0.001503 0.000954 0.004687 0.000000 0.000000 0.000000
# 4 0.000000 0.000000 0.000000 0.026337 0.000000 0.000000
# 5 0.000000 0.000000 0.000000 0.000000 0.018485 0.000000
# 6 0.000000 0.000000 0.000000 0.000000 0.000000 0.015056
#
#
# Mechanical properties :
#
#
# Convention : Reuss Voigt Hill
#
# Bulk Modulus (GPa) = 49.97109 74.18009 62.07559
# Shear Modulus (GPa) = 41.17656 55.15340 48.16498
#
# Velocity S-wave (km/s) = 3.80020 4.39812 4.11005
# Velocity P-wave (km/s) = 6.06475 7.19776 6.65541
#
# Compressibility (1/GPa) = 0.02001157
#
# Stress axis : x y z
#
# Youngs Moduli (GPa) = 111.20029 42.07704 213.35326
#
# Poissons Ratio (x) = 0.34368 0.32069
# Poissons Ratio (y) = 0.90828 -0.20352
# Poissons Ratio (z) = 0.16714 -0.04014
#
# Static dielectric constant tensor:
#      x y z
#    x 2.267570 0.000000 0.000000 
#    y 0.000000 2.987480 0.000000 
#    z 0.000000 0.000000 2.270590 
# 
# From -- ./inp_files/63.got.cif
#   From: 2010.05.17/outbox.cif.g08.bks.cpg/sg45_1_cif.got.tgz:63.got - 2010.06.03 19:51:22.
