data_PCOD9377503
_publ_section_title
;
Structure prediction by ZEFSAII (Michael W. Deem and Ramdas Pophale) SiO2 
 PCOD9377503
Probable space group: I B A 2
;
_chemical_formula_sum "Si O2"
_cell_formula_units_Z 64
_cell_length_a 22.833704
_cell_length_b 9.180067
_cell_length_c 13.638181
_cell_angle_alpha 90.000000
_cell_angle_beta 90.000000
_cell_angle_gamma 90.000000
_cell_volume 2858.766391
_symmetry_space_group_name_H-M "I B A 2"
_symmetry_group_IT_number 45
_symmetry_cell_setting 'orthorhombic'
loop_
_space_group_symop_operation_xyz
x,y,z
-x,-y,z
-x,y,1/2+z
x,-y,1/2+z
1/2+x,1/2+y,1/2+z
1/2-x,1/2-y,1/2+z
1/2-x,1/2+y,z
1/2+x,1/2-y,z
loop_
_atom_site_type_symbol
_atom_site_label
_atom_site_fract_x
_atom_site_fract_y
_atom_site_fract_z
Si Si1 0.539126 0.307274 0.307750
Si Si2 0.277532 0.287603 0.713045
Si Si3 0.893564 0.188362 0.005921
Si Si4 0.384021 0.911795 0.216359
Si Si5 0.720125 0.550798 0.072992
Si Si6 0.582681 0.403091 0.727874
Si Si7 0.162898 0.688375 0.313258
Si Si8 0.851352 0.480001 0.507608
O O1 0.561384 0.340389 0.417554
O O2 0.559956 0.149537 0.271081
O O3 0.471156 0.330769 0.287344
O O4 0.571663 0.425679 0.238573
O O5 0.329690 0.187894 0.752219
O O6 0.298227 0.423918 0.648570
O O7 0.239006 0.190051 0.637863
O O8 0.232129 0.328827 0.797661
O O9 0.832808 0.096312 0.002411
O O10 0.916905 0.148535 0.114893
O O11 0.877857 0.359454 0.996800
O O12 0.382121 0.902218 0.099676
O O13 0.367848 0.077658 0.237650
O O14 0.781559 0.502893 0.025664
O O15 0.640186 0.346724 0.784124
O O16 0.143210 0.627355 0.416680
#
# Coordination Sequence:
#
# PCOD9377503 Si02
#       8
#     8   8   8   8   8   8   8   8
#     4  11  28  45  75 103 131 186 244 289 360 420
#     4  11  21  39  65  99 142 182 219 285 346 426
#     4  12  23  48  72  99 145 187 232 295 356 419
#     4  11  23  43  64 103 139 177 240 280 343 423
#     4  11  20  40  66  95 141 184 221 277 360 409
#     4  11  26  50  69  99 142 178 234 309 349 405
#     4  12  23  42  68  98 142 185 232 280 356 417
#     4  11  24  40  67 105 142 185 231 283 341 435
#
# _framework density 22.387277999999998
#
# number of rings (size 3 to 8) (size 9 to 14) (size 15 to 20)
#    0.000    0.750    7.500    0.750    1.750    6.500 
#    0.000    1.250    0.000    0.000    0.000    0.000 
#    0.000    0.000    0.000    0.000    0.000    0.000 
#
# Total GULP energy -178934.176439 kJ/mol
# GULP energy per Si atom -5591.693014 kJ/mol
# Density = 2.233632 g / cm^3
# Si number density = 22.387278 Si / 1000 Ang^3
#
#
#
# Elastic Constant Matrix: (Units=GPa)
#
#
# Indices 1 2 3 4 5 6 
#
# 1 61.9050 -0.2235 16.7665 0.0000 0.0000 0.0000
# 2 -0.2235 62.4040 -6.4642 0.0000 0.0000 0.0000
# 3 16.7665 -6.4642 117.0168 0.0000 0.0000 0.0000
# 4 0.0000 0.0000 0.0000 23.6844 0.0000 0.0000
# 5 0.0000 0.0000 0.0000 0.0000 31.7904 0.0000
# 6 0.0000 0.0000 0.0000 0.0000 0.0000 23.2684
#
#
#
# Elastic Compliance Matrix: (Units=1/GPa)
#
#
# Indices 1 2 3 4 5 6 
#
# 1 0.016808 -0.000190 -0.002419 0.000000 0.000000 0.000000
# 2 -0.000190 0.016119 0.000918 0.000000 0.000000 0.000000
# 3 -0.002419 0.000918 0.008943 0.000000 0.000000 0.000000
# 4 0.000000 0.000000 0.000000 0.042222 0.000000 0.000000
# 5 0.000000 0.000000 0.000000 0.000000 0.031456 0.000000
# 6 0.000000 0.000000 0.000000 0.000000 0.000000 0.042977
#
#
# Mechanical properties :
#
#
# Convention : Reuss Voigt Hill
#
# Bulk Modulus (GPa) = 25.98263 29.05373 27.51818
# Shear Modulus (GPa) = 28.61444 31.16511 29.88978
#
# Velocity S-wave (km/s) = 3.57901 3.73512 3.65790
# Velocity P-wave (km/s) = 5.35819 5.62205 5.49171
#
# Compressibility (1/GPa) = 0.03848726
#
# Stress axis : x y z
#
# Youngs Moduli (GPa) = 59.49466 62.03864 111.81856
#
# Poissons Ratio (x) = 0.01181 0.27047
# Poissons Ratio (y) = 0.01133 -0.10262
# Poissons Ratio (z) = 0.14391 -0.05693
#
# Static dielectric constant tensor:
#      x y z
#    x 1.859050 0.000000 0.000000 
#    y 0.000000 1.818950 0.000000 
#    z 0.000000 0.000000 1.846290 
# 
# From -- ./inp_files/7075.got.cif
#   From: 2010.05.17/outbox.cif.g08.bks.cpg/sg45_4_cif.got.tgz:7075.got - 2010.06.03 19:51:22.
