data_PCOD9377018
_publ_section_title
;
Structure prediction by ZEFSAII (Michael W. Deem and Ramdas Pophale) SiO2 
 PCOD9377018
Probable space group: I B A 2
;
_chemical_formula_sum "Si O2"
_cell_formula_units_Z 56
_cell_length_a 14.202357
_cell_length_b 20.442182
_cell_length_c 7.533246
_cell_angle_alpha 90.000000
_cell_angle_beta 90.000000
_cell_angle_gamma 90.000000
_cell_volume 2187.105967
_symmetry_space_group_name_H-M "I B A 2"
_symmetry_group_IT_number 45
_symmetry_cell_setting 'orthorhombic'
loop_
_space_group_symop_operation_xyz
x,y,z
-x,-y,z
-x,y,1/2+z
x,-y,1/2+z
1/2+x,1/2+y,1/2+z
1/2-x,1/2-y,1/2+z
1/2-x,1/2+y,z
1/2+x,1/2-y,z
loop_
_atom_site_type_symbol
_atom_site_label
_atom_site_fract_x
_atom_site_fract_y
_atom_site_fract_z
Si Si1 0.638219 0.891328 0.727050
Si Si2 0.638678 0.252769 0.799298
Si Si3 0.140329 0.897218 0.214576
Si Si4 0.500000 0.000000 0.259404
Si Si5 0.138678 0.752769 0.719508
Si Si6 0.359670 0.602782 0.304231
Si Si7 0.861781 0.608672 0.791757
Si Si8 0.500000 0.500000 0.259404
O O1 0.749463 0.898850 0.765707
O O2 0.605864 0.818474 0.781971
O O3 0.628272 0.897609 0.509404
O O4 0.576611 0.946220 0.820710
O O5 0.607126 0.321824 0.722557
O O6 0.750000 0.250000 0.759402
O O7 0.605864 0.181525 0.736837
O O8 0.624002 0.255561 0.009403
O O9 0.075891 0.946022 0.324596
O O10 0.132881 0.918547 0.009404
O O11 0.423390 0.053780 0.198098
O O12 0.107127 0.821824 0.796250
O O13 0.249463 0.601150 0.253100
O O14 0.424108 0.553978 0.194212
#
# Coordination Sequence:
#
# PCOD9377018 Si02
#       8
#     8   8   8   4   8   8   8   4
#     4   9  20  38  58  83 115 150 192 241 293 353
#     4   9  18  37  63  88 116 154 200 249 300 355
#     4  10  22  41  62  87 120 157 201 252 305 366
#     4  12  20  34  56  84 116 154 188 232 292 354
#     4   9  18  37  63  88 116 154 200 249 300 355
#     4  10  22  41  62  87 120 157 201 252 305 366
#     4   9  20  38  58  83 115 150 192 241 293 353
#     4  12  24  38  60  92 122 162 206 254 310 372
#
# _framework density 25.604613000000001
#
# number of rings (size 3 to 8) (size 9 to 14) (size 15 to 20)
#    0.000    2.286    0.000    4.286    0.000    3.429 
#    0.000   20.000    0.000    0.000    0.000    0.000 
#    0.000    0.000    0.000    0.000    0.000    0.000 
#
# Total GULP energy -156038.101281 kJ/mol
# GULP energy per Si atom -5572.789331 kJ/mol
# Density = 2.554634 g / cm^3
# Si number density = 25.604613 Si / 1000 Ang^3
#
#
#
# Elastic Constant Matrix: (Units=GPa)
#
#
# Indices 1 2 3 4 5 6 
#
# 1 181.4021 84.7805 22.1455 0.0000 0.0000 0.0000
# 2 84.7805 280.2637 39.5175 0.0000 0.0000 0.0000
# 3 22.1455 39.5175 103.6266 0.0000 0.0000 0.0000
# 4 0.0000 0.0000 0.0000 45.0263 0.0000 0.0000
# 5 0.0000 0.0000 0.0000 0.0000 -26.4099 0.0000
# 6 0.0000 0.0000 0.0000 0.0000 0.0000 126.1462
#
#
#
# Elastic Compliance Matrix: (Units=1/GPa)
#
#
# Indices 1 2 3 4 5 6 
#
# 1 0.006464 -0.001861 -0.000672 0.000000 0.000000 0.000000
# 2 -0.001861 0.004306 -0.001245 0.000000 0.000000 0.000000
# 3 -0.000672 -0.001245 0.010268 0.000000 0.000000 0.000000
# 4 0.000000 0.000000 0.000000 0.022209 0.000000 0.000000
# 5 0.000000 0.000000 0.000000 0.000000 -0.037865 0.000000
# 6 0.000000 0.000000 0.000000 0.000000 0.000000 0.007927
#
#
# Mechanical properties :
#
#
# Convention : Reuss Voigt Hill
#
# Bulk Modulus (GPa) = 74.15885 95.35327 84.75606
# Shear Modulus (GPa) = 197.16014 56.87578 127.01796
#
# Velocity S-wave (km/s) = 8.78459 4.71819 7.05090
# Velocity P-wave (km/s) = 11.48555 8.18555 9.97299
#
# Compressibility (1/GPa) = 0.01348457
#
# Stress axis : x y z
#
# Youngs Moduli (GPa) = 154.69659 232.21087 97.38778
#
# Poissons Ratio (x) = 0.43208 0.06543
# Poissons Ratio (y) = 0.28785 0.12121
# Poissons Ratio (z) = 0.10393 0.28901
#
# Static dielectric constant tensor:
#      x y z
#    x 1.963760 0.000000 0.000000 
#    y 0.000000 1.979760 0.000000 
#    z 0.000000 0.000000 2.236130 
# 
# From -- ./inp_files/1833.got.cif
#   From: 2010.05.17/outbox.cif.g08.bks.cpg/sg45_1_cif.got.tgz:1833.got - 2010.06.03 19:51:22.
