data_PCOD9377934
_publ_section_title
;
Structure prediction by ZEFSAII (Michael W. Deem and Ramdas Pophale) SiO2 
 PCOD9377934
Probable space group: I M A 2
;
_chemical_formula_sum "Si O2"
_cell_formula_units_Z 32
_cell_length_a 13.575690
_cell_length_b 5.360585
_cell_length_c 20.843027
_cell_angle_alpha 90.000000
_cell_angle_beta 90.000000
_cell_angle_gamma 90.000000
_cell_volume 1516.822947
_symmetry_space_group_name_H-M "I M A 2"
_symmetry_group_IT_number 46
_symmetry_cell_setting 'orthorhombic'
loop_
_space_group_symop_operation_xyz
x,y,z
-x,-y,z
1/2-x,y,z
1/2+x,-y,z
1/2+x,1/2+y,1/2+z
1/2-x,1/2-y,1/2+z
-x,1/2+y,1/2+z
x,1/2-y,1/2+z
loop_
_atom_site_type_symbol
_atom_site_label
_atom_site_fract_x
_atom_site_fract_y
_atom_site_fract_z
Si Si1 0.369231 0.856745 0.331660
Si Si2 0.750000 0.252084 0.068812
Si Si3 0.750000 0.747219 0.651705
Si Si4 0.936752 0.252154 0.975934
Si Si5 0.363206 0.141109 0.772801
O O1 0.250000 0.877259 0.326360
O O2 0.397198 0.783195 0.403458
O O3 0.402978 0.635278 0.283952
O O4 0.406915 0.130999 0.312664
O O5 0.750000 0.519117 0.104136
O O6 0.750000 0.020346 0.118237
O O7 0.845770 0.234307 0.024237
O O8 0.655908 0.778794 0.699431
O O9 0.000000 0.500000 0.990579
O O10 0.000000 0.000000 0.979912
O O11 0.250000 0.116484 0.797860
#
# Coordination Sequence:
#
# PCOD9377934 Si02
#       5
#     8   4   4   8   8
#     4  10  17  36  61  91 121 154 194 256 322 366
#     4  12  24  42  66  90 126 180 214 252 316 366
#     4  10  20  36  64  98 116 170 224 244 314 384
#     4  12  26  42  64  96 130 166 215 264 311 381
#     4   8  17  30  60  93 114 151 206 250 304 378
#
# _framework density 21.096727999999999
#
# number of rings (size 3 to 8) (size 9 to 14) (size 15 to 20)
#    0.750    1.000    1.250    4.500    0.000    0.000 
#    0.000    0.000    0.000   30.000    0.000    0.000 
#    0.000    0.000    0.000    0.000    0.000    0.000 
#
# Total GULP energy -89340.823457 kJ/mol
# GULP energy per Si atom -5583.801466 kJ/mol
# Density = 2.104871 g / cm^3
# Si number density = 21.096728 Si / 1000 Ang^3
#
#
#
# Elastic Constant Matrix: (Units=GPa)
#
#
# Indices 1 2 3 4 5 6 
#
# 1 60.9514 33.8010 2.0896 0.0000 0.0000 0.0000
# 2 33.8010 140.3026 6.1314 0.0000 0.0000 0.0000
# 3 2.0896 6.1314 63.1425 0.0000 0.0000 0.0000
# 4 0.0000 0.0000 0.0000 25.9761 0.0000 0.0000
# 5 0.0000 0.0000 0.0000 0.0000 5.6679 0.0000
# 6 0.0000 0.0000 0.0000 0.0000 0.0000 -605.1738
#
#
#
# Elastic Compliance Matrix: (Units=1/GPa)
#
#
# Indices 1 2 3 4 5 6 
#
# 1 0.018939 -0.004555 -0.000184 0.000000 0.000000 0.000000
# 2 -0.004555 0.008253 -0.000651 0.000000 0.000000 0.000000
# 3 -0.000184 -0.000651 0.015906 0.000000 0.000000 0.000000
# 4 0.000000 0.000000 0.000000 0.038497 0.000000 0.000000
# 5 0.000000 0.000000 0.000000 0.000000 0.176431 0.000000
# 6 0.000000 0.000000 0.000000 0.000000 0.000000 -0.001652
#
#
# Mechanical properties :
#
#
# Convention : Reuss Voigt Hill
#
# Bulk Modulus (GPa) = 30.94172 38.71561 34.82867
# Shear Modulus (GPa) = 17.99040 -99.88099 -40.94530
#
# Velocity S-wave (km/s) = 2.92337 -6.88818 -4.41027
# Velocity P-wave (km/s) = 5.10815 6.69862 3.06417
#
# Compressibility (1/GPa) = 0.03231882
#
# Stress axis : x y z
#
# Youngs Moduli (GPa) = 52.80228 121.16603 62.86743
#
# Poissons Ratio (x) = 0.55185 0.01160
# Poissons Ratio (y) = 0.24049 0.04091
# Poissons Ratio (z) = 0.00974 0.07884
#
# Static dielectric constant tensor:
#      x y z
#    x 1.805400 0.000000 0.000000 
#    y 0.000000 1.753550 0.000000 
#    z 0.000000 0.000000 1.715310 
# 
# From -- ./inp_files/19155.got.cif
#   From: 2010.05.17/outbox.cif.g08.bks.cpg/sg46_10_cif.got.tgz:19155.got - 2010.06.03 19:58:25.
