data_PCOD9377847
_publ_section_title
;
Structure prediction by ZEFSAII (Michael W. Deem and Ramdas Pophale) SiO2 
 PCOD9377847
Probable space group: I M A 2
;
_chemical_formula_sum "Si O2"
_cell_formula_units_Z 48
_cell_length_a 8.670302
_cell_length_b 32.516510
_cell_length_c 9.265352
_cell_angle_alpha 90.000000
_cell_angle_beta 90.000000
_cell_angle_gamma 90.000000
_cell_volume 2612.161804
_symmetry_space_group_name_H-M "I M A 2"
_symmetry_group_IT_number 46
_symmetry_cell_setting 'orthorhombic'
loop_
_space_group_symop_operation_xyz
x,y,z
-x,-y,z
1/2-x,y,z
1/2+x,-y,z
1/2+x,1/2+y,1/2+z
1/2-x,1/2-y,1/2+z
-x,1/2+y,1/2+z
x,1/2-y,1/2+z
loop_
_atom_site_type_symbol
_atom_site_label
_atom_site_fract_x
_atom_site_fract_y
_atom_site_fract_z
Si Si1 0.935258 0.867714 0.714300
Si Si2 0.062992 0.707329 0.713694
Si Si3 0.564332 0.289688 0.047397
Si Si4 0.065234 0.371967 0.552865
Si Si5 0.564986 0.958214 0.717179
Si Si6 0.433924 0.542059 0.544583
O O1 0.750000 0.635189 0.208017
O O2 0.978355 0.913331 0.656395
O O3 0.006272 0.830310 0.627316
O O4 0.979503 0.865817 0.883929
O O5 0.250000 0.704868 0.706525
O O6 0.016414 0.710690 0.880629
O O7 0.013031 0.748290 0.628621
O O8 0.993044 0.666878 0.641786
O O9 0.750000 0.289877 0.051232
O O10 0.250000 0.375479 0.558298
O O11 0.992170 0.414760 0.607620
O O12 0.750000 0.960764 0.723834
O O13 0.500146 0.957386 0.880779
O O14 0.500000 0.000000 0.647992
O O15 0.500000 0.500000 0.612141
O O16 0.250000 0.540412 0.541154
#
# Coordination Sequence:
#
# PCOD9377847 Si02
#       6
#     8   8   8   8   8   8
#     4   9  19  33  50  75 107 137 172 213 257 306
#     4  10  21  37  55  78 103 132 170 214 261 314
#     4  10  21  36  56  78 103 134 172 213 260 315
#     4  10  20  34  52  77 106 139 176 216 259 307
#     4   9  16  27  44  71 104 137 174 216 257 304
#     4  10  17  27  46  73 105 139 173 214 257 302
#
# _framework density 18.375585999999998
#
# number of rings (size 3 to 8) (size 9 to 14) (size 15 to 20)
#    0.000    2.333    0.000    5.500    0.000    6.667 
#    0.000    0.000    0.000    1.000    0.000    2.333 
#    0.000    0.000    0.000    0.000    0.000    0.000 
#
# Total GULP energy -133851.130400 kJ/mol
# GULP energy per Si atom -5577.130433 kJ/mol
# Density = 1.833376 g / cm^3
# Si number density = 18.375586 Si / 1000 Ang^3
#
#
#
# Elastic Constant Matrix: (Units=GPa)
#
#
# Indices 1 2 3 4 5 6 
#
# 1 54.3499 56.2763 26.9456 0.0000 0.0000 -0.0001
# 2 56.2763 235.0478 79.8734 -0.0004 0.0000 0.0008
# 3 26.9456 79.8734 76.7878 -0.0012 0.0000 0.0015
# 4 0.0000 -0.0004 -0.0012 24.1698 0.0000 0.0014
# 5 0.0000 0.0000 0.0000 0.0000 19.0759 0.0000
# 6 -0.0001 0.0008 0.0015 0.0014 0.0000 34.7389
#
#
#
# Elastic Compliance Matrix: (Units=1/GPa)
#
#
# Indices 1 2 3 4 5 6 
#
# 1 0.025225 -0.004689 -0.003974 0.000000 0.000000 0.000000
# 2 -0.004689 0.007452 -0.006106 0.000000 0.000000 0.000000
# 3 -0.003974 -0.006106 0.020769 0.000001 0.000000 -0.000001
# 4 0.000000 0.000000 0.000001 0.041374 0.000000 -0.000002
# 5 0.000000 0.000000 0.000000 0.000000 0.052422 0.000000
# 6 0.000000 0.000000 -0.000001 -0.000002 0.000000 0.028786
#
#
# Mechanical properties :
#
#
# Convention : Reuss Voigt Hill
#
# Bulk Modulus (GPa) = 41.82842 76.93069 59.37955
# Shear Modulus (GPa) = 23.41525 29.13625 26.27575
#
# Velocity S-wave (km/s) = 3.57355 3.98627 3.78554
# Velocity P-wave (km/s) = 6.31185 7.94630 7.17577
#
# Compressibility (1/GPa) = 0.02390719
#
# Stress axis : x y z
#
# Youngs Moduli (GPa) = 39.64352 134.19092 48.14859
#
# Poissons Ratio (x) = 0.62921 0.19136
# Poissons Ratio (y) = 0.18588 0.29400
# Poissons Ratio (z) = 0.15756 0.81939
#
# Static dielectric constant tensor:
#      x y z
#    x 1.620610 0.000000 0.000000 
#    y 0.000000 1.665460 0.000000 
#    z 0.000000 0.000000 1.624230 
# 
# From -- ./inp_files/3950.got.cif
#   From: 2010.05.17/outbox.cif.g08.bks.cpg/sg46_2_cif.got.tgz:3950.got - 2010.06.03 19:58:25.
