data_PCOD9377641
_publ_section_title
;
Structure prediction by ZEFSAII (Michael W. Deem and Ramdas Pophale) SiO2 
 PCOD9377641
Probable space group: I B A 2
;
_chemical_formula_sum "Si O2"
_cell_formula_units_Z 64
_cell_length_a 13.270096
_cell_length_b 12.519444
_cell_length_c 19.125728
_cell_angle_alpha 90.000000
_cell_angle_beta 90.000000
_cell_angle_gamma 90.000000
_cell_volume 3177.437975
_symmetry_space_group_name_H-M "I B A 2"
_symmetry_group_IT_number 45
_symmetry_cell_setting 'orthorhombic'
loop_
_space_group_symop_operation_xyz
x,y,z
-x,-y,z
-x,y,1/2+z
x,-y,1/2+z
1/2+x,1/2+y,1/2+z
1/2-x,1/2-y,1/2+z
1/2-x,1/2+y,z
1/2+x,1/2-y,z
loop_
_atom_site_type_symbol
_atom_site_label
_atom_site_fract_x
_atom_site_fract_y
_atom_site_fract_z
Si Si1 0.355019 0.265257 0.382420
Si Si2 0.807592 0.541299 0.814043
Si Si3 0.896526 0.557686 0.666699
Si Si4 0.891647 0.803655 0.619949
Si Si5 0.706030 0.917924 0.556833
Si Si6 0.603153 0.563390 0.262608
Si Si7 0.312626 0.092735 0.948101
Si Si8 0.990924 0.292453 0.505109
O O1 0.312506 0.155179 0.351789
O O2 0.382983 0.341108 0.318056
O O3 0.270027 0.318101 0.431606
O O4 0.452142 0.248856 0.430833
O O5 0.881170 0.542430 0.748560
O O6 0.698638 0.511973 0.781206
O O7 0.839615 0.455381 0.872329
O O8 0.891916 0.682892 0.649559
O O9 0.812800 0.494705 0.622888
O O10 0.000000 0.500000 0.646214
O O11 0.790078 0.833428 0.578645
O O12 0.899997 0.885077 0.684867
O O13 0.979216 0.798106 0.561306
O O14 0.602003 0.860715 0.535267
O O15 0.734181 0.995940 0.493047
O O16 0.500000 0.500000 0.273905
O O17 0.409735 0.136472 0.989436
#
# Coordination Sequence:
#
# PCOD9377641 Si02
#       8
#     8   8   8   8   8   8   8   8
#     4  11  26  44  72 105 137 189 233 296 358 418
#     4  11  25  45  72 101 142 180 240 296 353 422
#     4  12  24  44  71 103 134 182 240 293 346 426
#     4  12  26  44  71 104 140 188 233 291 362 419
#     4  12  24  44  70 101 142 179 238 296 350 425
#     4  11  27  48  68 105 145 185 235 292 357 433
#     4  11  25  43  69 103 138 180 234 291 353 419
#     4  12  25  43  69 104 137 185 234 285 353 429
#
# _framework density 20.142014
#
# number of rings (size 3 to 8) (size 9 to 14) (size 15 to 20)
#    0.000    0.500    6.250    1.125    3.500    3.000 
#    2.250    0.000    0.000    0.000    0.000    0.000 
#    0.000    0.000    0.000    0.000    0.000    0.000 
#
# Total GULP energy -178828.928441 kJ/mol
# GULP energy per Si atom -5588.404014 kJ/mol
# Density = 2.009617 g / cm^3
# Si number density = 20.142014 Si / 1000 Ang^3
#
#
#
# Elastic Constant Matrix: (Units=GPa)
#
#
# Indices 1 2 3 4 5 6 
#
# 1 62.0832 37.2625 28.5146 0.0000 0.0000 0.0000
# 2 37.2625 67.6903 29.9659 0.0000 0.0000 0.0000
# 3 28.5146 29.9659 117.9724 0.0000 0.0000 0.0000
# 4 0.0000 0.0000 0.0000 40.1269 0.0000 0.0000
# 5 0.0000 0.0000 0.0000 0.0000 35.0737 0.0000
# 6 0.0000 0.0000 0.0000 0.0000 0.0000 17.8874
#
#
#
# Elastic Compliance Matrix: (Units=1/GPa)
#
#
# Indices 1 2 3 4 5 6 
#
# 1 0.024881 -0.012432 -0.002856 0.000000 0.000000 0.000000
# 2 -0.012432 0.022857 -0.002801 0.000000 0.000000 0.000000
# 3 -0.002856 -0.002801 0.009878 0.000000 0.000000 0.000000
# 4 0.000000 0.000000 0.000000 0.024921 0.000000 0.000000
# 5 0.000000 0.000000 0.000000 0.000000 0.028511 0.000000
# 6 0.000000 0.000000 0.000000 0.000000 0.000000 0.055905
#
#
# Mechanical properties :
#
#
# Convention : Reuss Voigt Hill
#
# Bulk Modulus (GPa) = 46.64636 48.80356 47.72496
# Shear Modulus (GPa) = 23.77801 28.75111 26.26456
#
# Velocity S-wave (km/s) = 3.43959 3.78222 3.61497
# Velocity P-wave (km/s) = 6.24367 6.58452 6.41636
#
# Compressibility (1/GPa) = 0.02143790
#
# Stress axis : x y z
#
# Youngs Moduli (GPa) = 40.19115 43.75047 101.23195
#
# Poissons Ratio (x) = 0.54392 0.28912
# Poissons Ratio (y) = 0.49967 0.28354
# Poissons Ratio (z) = 0.11479 0.12254
#
# Static dielectric constant tensor:
#      x y z
#    x 1.701550 0.000000 0.000000 
#    y 0.000000 1.707580 0.000000 
#    z 0.000000 0.000000 1.723550 
# 
# From -- ./inp_files/8247.got.cif
#   From: 2010.05.17/outbox.cif.g08.bks.cpg/sg45_5_cif.got.tgz:8247.got - 2010.06.03 19:51:22.
