data_PCOD9377865
_publ_section_title
;
Structure prediction by ZEFSAII (Michael W. Deem and Ramdas Pophale) SiO2 
 PCOD9377865
Probable space group: I M A 2
;
_chemical_formula_sum "Si O2"
_cell_formula_units_Z 64
_cell_length_a 31.372075
_cell_length_b 23.821469
_cell_length_c 5.106045
_cell_angle_alpha 90.000000
_cell_angle_beta 90.000000
_cell_angle_gamma 90.000000
_cell_volume 3815.895055
_symmetry_space_group_name_H-M "I M A 2"
_symmetry_group_IT_number 46
_symmetry_cell_setting 'orthorhombic'
loop_
_space_group_symop_operation_xyz
x,y,z
-x,-y,z
1/2-x,y,z
1/2+x,-y,z
1/2+x,1/2+y,1/2+z
1/2-x,1/2-y,1/2+z
-x,1/2+y,1/2+z
x,1/2-y,1/2+z
loop_
_atom_site_type_symbol
_atom_site_label
_atom_site_fract_x
_atom_site_fract_y
_atom_site_fract_z
Si Si1 0.185569 0.089035 0.871380
Si Si2 0.899772 0.540795 0.483514
Si Si3 0.796773 0.513157 0.873629
Si Si4 0.522881 0.062281 0.343015
Si Si5 0.822721 0.713988 0.472752
Si Si6 0.613969 0.022317 0.486313
Si Si7 0.074233 0.284749 0.486393
Si Si8 0.519142 0.894082 0.849855
O O1 0.134281 0.086497 0.893779
O O2 0.198310 0.060838 0.598416
O O3 0.197615 0.153323 0.916254
O O4 0.200074 0.046736 0.100502
O O5 0.895926 0.531279 0.793422
O O6 0.946523 0.556915 0.399780
O O7 0.887497 0.488739 0.296785
O O8 0.750000 0.487284 0.896927
O O9 0.836349 0.470295 0.910100
O O10 0.498946 0.099121 0.561029
O O11 0.500000 0.000000 0.348236
O O12 0.573017 0.058893 0.411885
O O13 0.516566 0.091505 0.063676
O O14 0.811470 0.740767 0.750864
O O15 0.874511 0.706876 0.467242
O O16 0.064753 0.264819 0.780142
O O17 0.045477 0.337758 0.408723
#
# Coordination Sequence:
#
# PCOD9377865 Si02
#       8
#     8   8   8   8   8   8   8   8
#     4  10  19  32  50  67  87 105 150 193 239 274
#     4  10  17  29  44  66  89 121 143 186 227 268
#     4  10  21  35  53  67  84 116 153 189 228 276
#     4  12  21  29  46  71 101 127 151 183 235 292
#     4  10  19  30  47  67  86 109 143 191 246 285
#     4  10  20  31  45  67  95 117 148 187 221 275
#     4  10  21  34  47  66  92 126 169 205 229 268
#     4  12  20  31  47  66  99 127 160 186 238 270
#
# _framework density 16.77195
#
# number of rings (size 3 to 8) (size 9 to 14) (size 15 to 20)
#    0.000    1.500    3.750    3.000    0.000    0.000 
#    0.000    0.000    0.000    7.500    0.000    0.000 
#    0.000    0.000    0.000    0.000    0.000   12.500 
#
# Total GULP energy -178313.337739 kJ/mol
# GULP energy per Si atom -5572.291804 kJ/mol
# Density = 1.673378 g / cm^3
# Si number density = 16.771950 Si / 1000 Ang^3
#
#
#
# Elastic Constant Matrix: (Units=GPa)
#
#
# Indices 1 2 3 4 5 6 
#
# 1 87.9835 5.8433 -8.1232 0.0000 0.0000 0.0000
# 2 5.8433 10.5027 -0.9989 0.0000 0.0000 0.0000
# 3 -8.1232 -0.9989 57.7546 0.0000 0.0000 0.0000
# 4 0.0000 0.0000 0.0000 12.5505 0.0000 0.0000
# 5 0.0000 0.0000 0.0000 0.0000 -1.4144 0.0000
# 6 0.0000 0.0000 0.0000 0.0000 0.0000 -9.4269
#
#
#
# Elastic Compliance Matrix: (Units=1/GPa)
#
#
# Indices 1 2 3 4 5 6 
#
# 1 0.011942 -0.006495 0.001567 0.000000 0.000000 0.000000
# 2 -0.006495 0.098903 0.000797 0.000000 0.000000 0.000000
# 3 0.001567 0.000797 0.017549 0.000000 0.000000 0.000000
# 4 0.000000 0.000000 0.000000 0.079678 0.000000 0.000000
# 5 0.000000 0.000000 0.000000 0.000000 -0.707035 0.000000
# 6 0.000000 0.000000 0.000000 0.000000 0.000000 -0.106080
#
#
# Mechanical properties :
#
#
# Convention : Reuss Voigt Hill
#
# Bulk Modulus (GPa) = 8.32415 16.63148 12.47781
# Shear Modulus (GPa) = -8.98088 10.97649 0.99780
#
# Velocity S-wave (km/s) = -2.31653 2.56101 0.77215
# Velocity P-wave (km/s) = 1.47689 4.32236 2.87242
#
# Compressibility (1/GPa) = 0.12013235
#
# Stress axis : x y z
#
# Youngs Moduli (GPa) = 83.73935 10.11095 56.98377
#
# Poissons Ratio (x) = 0.06567 -0.08931
# Poissons Ratio (y) = 0.54388 -0.04542
# Poissons Ratio (z) = -0.13124 -0.00806
#
# Static dielectric constant tensor:
#      x y z
#    x 1.632610 0.000000 0.000000 
#    y 0.000000 1.553310 0.000000 
#    z 0.000000 0.000000 1.584190 
# 
# From -- ./inp_files/2640.got.cif
#   From: 2010.05.17/outbox.cif.g08.bks.cpg/sg46_2_cif.got.tgz:2640.got - 2010.06.03 19:58:25.
