data_PCOD9377309
_publ_section_title
;
Structure prediction by ZEFSAII (Michael W. Deem and Ramdas Pophale) SiO2 
 PCOD9377309
Probable space group: I B A 2
;
_chemical_formula_sum "Si O2"
_cell_formula_units_Z 60
_cell_length_a 9.965458
_cell_length_b 31.148450
_cell_length_c 9.156470
_cell_angle_alpha 90.000000
_cell_angle_beta 90.000000
_cell_angle_gamma 90.000000
_cell_volume 2842.246761
_symmetry_space_group_name_H-M "I B A 2"
_symmetry_group_IT_number 45
_symmetry_cell_setting 'orthorhombic'
loop_
_space_group_symop_operation_xyz
x,y,z
-x,-y,z
-x,y,1/2+z
x,-y,1/2+z
1/2+x,1/2+y,1/2+z
1/2-x,1/2-y,1/2+z
1/2-x,1/2+y,z
1/2+x,1/2-y,z
loop_
_atom_site_type_symbol
_atom_site_label
_atom_site_fract_x
_atom_site_fract_y
_atom_site_fract_z
Si Si1 0.713488 0.828610 0.754860
Si Si2 0.113126 0.441905 0.088622
Si Si3 0.139973 0.886825 0.042507
Si Si4 0.500000 0.000000 0.842358
Si Si5 0.961072 0.214466 0.340942
Si Si6 0.625259 0.362673 0.212193
Si Si7 0.395086 0.132652 0.021560
Si Si8 0.994902 0.725631 0.613526
O O1 0.778988 0.845826 0.606428
O O2 0.836189 0.817015 0.861817
O O3 0.623202 0.788452 0.710066
O O4 0.636356 0.865066 0.847737
O O5 0.264882 0.425211 0.093008
O O6 0.074298 0.467029 0.234967
O O7 0.005728 0.403227 0.059068
O O8 0.096000 0.473794 0.951132
O O9 0.994840 0.882360 0.115460
O O10 0.133515 0.885532 0.868977
O O11 0.993848 0.239296 0.487326
O O12 0.076642 0.185874 0.261697
O O13 0.904750 0.250903 0.232429
O O14 0.763969 0.369581 0.125286
O O15 0.449292 0.180589 0.050262
#
# Coordination Sequence:
#
# PCOD9377309 Si02
#       8
#     8   8   8   4   8   8   8   8
#     4  11  24  40  60  91 129 178 239 288 340 388
#     4  11  23  45  74 104 141 166 216 269 333 425
#     4  11  23  44  71  95 133 175 225 277 332 406
#     4  10  24  42  74 114 136 170 198 270 350 404
#     4  11  25  41  56  84 135 180 236 294 333 384
#     4  11  25  44  67  97 133 187 233 284 341 383
#     4  12  25  42  69  99 132 179 235 282 335 409
#     4  12  25  38  58  92 125 185 231 290 337 385
#
# _framework density 21.110060000000001
#
# number of rings (size 3 to 8) (size 9 to 14) (size 15 to 20)
#    0.000    0.800    2.667    5.600    7.467    0.000 
#    0.000    0.000    0.000   13.600    0.000    0.000 
#    0.000    0.000    0.000    0.000    0.000    0.000 
#
# Total GULP energy -167504.818001 kJ/mol
# GULP energy per Si atom -5583.493933 kJ/mol
# Density = 2.106201 g / cm^3
# Si number density = 21.110060 Si / 1000 Ang^3
#
#
#
# Elastic Constant Matrix: (Units=GPa)
#
#
# Indices 1 2 3 4 5 6 
#
# 1 90.0853 19.2009 23.2592 -0.0033 -0.0055 0.0007
# 2 19.2009 60.4972 3.8695 -0.0036 -0.0063 0.0004
# 3 23.2592 3.8695 107.0884 -0.0083 -0.0154 -0.0030
# 4 -0.0033 -0.0036 -0.0083 33.8493 -0.0030 0.0001
# 5 -0.0055 -0.0063 -0.0154 -0.0030 17.8866 -0.0006
# 6 0.0007 0.0004 -0.0030 0.0001 -0.0006 22.8203
#
#
#
# Elastic Compliance Matrix: (Units=1/GPa)
#
#
# Indices 1 2 3 4 5 6 
#
# 1 0.012587 -0.003829 -0.002595 0.000000 0.000000 -0.000001
# 2 -0.003829 0.017733 0.000191 0.000002 0.000005 0.000000
# 3 -0.002595 0.000191 0.009895 0.000002 0.000008 0.000001
# 4 0.000000 0.000002 0.000002 0.029543 0.000005 0.000000
# 5 0.000000 0.000005 0.000008 0.000005 0.055908 0.000001
# 6 -0.000001 0.000000 0.000001 0.000000 0.000001 0.043821
#
#
# Mechanical properties :
#
#
# Convention : Reuss Voigt Hill
#
# Bulk Modulus (GPa) = 36.03926 38.92557 37.48241
# Shear Modulus (GPa) = 26.15041 29.00066 27.57554
#
# Velocity S-wave (km/s) = 3.52343 3.71048 3.61816
# Velocity P-wave (km/s) = 5.80188 6.06929 5.93709
#
# Compressibility (1/GPa) = 0.02774752
#
# Stress axis : x y z
#
# Youngs Moduli (GPa) = 79.44834 56.39300 101.06209
#
# Poissons Ratio (x) = 0.21592 0.26230
# Poissons Ratio (y) = 0.30420 -0.01929
# Poissons Ratio (z) = 0.20620 -0.01076
#
# Static dielectric constant tensor:
#      x y z
#    x 1.798430 0.000000 0.000000 
#    y 0.000000 1.774420 0.000000 
#    z 0.000000 0.000000 1.796540 
# 
# From -- ./inp_files/1440.got.cif
#   From: 2010.05.17/outbox.cif.g08.bks.cpg/sg45_1_cif.got.tgz:1440.got - 2010.06.03 19:51:22.
