data_PCOD9377283
_publ_section_title
;
Structure prediction by ZEFSAII (Michael W. Deem and Ramdas Pophale) SiO2 
 PCOD9377283
Probable space group: I B A 2
;
_chemical_formula_sum "Si O2"
_cell_formula_units_Z 64
_cell_length_a 14.890450
_cell_length_b 15.736519
_cell_length_c 11.835893
_cell_angle_alpha 90.000000
_cell_angle_beta 90.000000
_cell_angle_gamma 90.000000
_cell_volume 2773.432008
_symmetry_space_group_name_H-M "I B A 2"
_symmetry_group_IT_number 45
_symmetry_cell_setting 'orthorhombic'
loop_
_space_group_symop_operation_xyz
x,y,z
-x,-y,z
-x,y,1/2+z
x,-y,1/2+z
1/2+x,1/2+y,1/2+z
1/2-x,1/2-y,1/2+z
1/2-x,1/2+y,z
1/2+x,1/2-y,z
loop_
_atom_site_type_symbol
_atom_site_label
_atom_site_fract_x
_atom_site_fract_y
_atom_site_fract_z
Si Si1 0.783143 0.620866 0.447840
Si Si2 0.065834 0.372153 0.608152
Si Si3 0.866297 0.611381 0.042631
Si Si4 0.158416 0.785313 0.832706
Si Si5 0.212062 0.061158 0.716583
Si Si6 0.881168 0.806627 0.079758
Si Si7 0.807047 0.401724 0.297752
Si Si8 0.576741 0.665824 0.062445
O O1 0.862657 0.583778 0.524441
O O2 0.840111 0.691069 0.378864
O O3 0.721639 0.585987 0.347462
O O4 0.711311 0.652705 0.539505
O O5 0.100498 0.397205 0.731189
O O6 0.076259 0.267778 0.596834
O O7 0.967568 0.405561 0.580672
O O8 0.795787 0.594702 0.142266
O O9 0.873692 0.713375 0.025481
O O10 0.828566 0.573375 0.926052
O O11 0.108205 0.795216 0.714989
O O12 0.260149 0.810510 0.803704
O O13 0.125392 0.839770 0.940237
O O14 0.127337 0.104214 0.652189
O O15 0.233889 0.961060 0.733780
O O16 0.971838 0.854374 0.044538
#
# Coordination Sequence:
#
# PCOD9377283 Si02
#       8
#     8   8   8   8   8   8   8   8
#     4  11  22  40  66  99 130 172 226 285 345 418
#     4  10  24  41  68 101 129 173 233 283 352 420
#     4  11  24  43  65 103 136 175 230 291 353 426
#     4  11  21  43  69  95 133 178 229 292 350 415
#     4  12  26  43  64  96 140 185 223 280 352 432
#     4  11  22  40  76 103 129 172 235 300 358 411
#     4  12  25  42  68  90 143 189 219 278 357 431
#     4  10  24  42  70 101 134 171 236 298 345 417
#
# _framework density 23.076101000000001
#
# number of rings (size 3 to 8) (size 9 to 14) (size 15 to 20)
#    0.000    1.000    5.000    1.500    5.250    2.500 
#    0.000    0.625    0.000    0.000    0.000    0.000 
#    0.000    0.000    0.000    0.000    0.000    0.000 
#
# Total GULP energy -178474.596124 kJ/mol
# GULP energy per Si atom -5577.331129 kJ/mol
# Density = 2.302358 g / cm^3
# Si number density = 23.076101 Si / 1000 Ang^3
#
#
#
# Elastic Constant Matrix: (Units=GPa)
#
#
# Indices 1 2 3 4 5 6 
#
# 1 92.0617 0.8094 18.1488 0.0000 0.0000 0.0000
# 2 0.8094 21.6145 4.7515 0.0000 0.0000 0.0000
# 3 18.1488 4.7515 110.2148 0.0000 0.0000 0.0000
# 4 0.0000 0.0000 0.0000 29.9070 0.0000 0.0000
# 5 0.0000 0.0000 0.0000 0.0000 30.0869 0.0000
# 6 0.0000 0.0000 0.0000 0.0000 0.0000 15.9171
#
#
#
# Elastic Compliance Matrix: (Units=1/GPa)
#
#
# Indices 1 2 3 4 5 6 
#
# 1 0.011227 -0.000014 -0.001848 0.000000 0.000000 0.000000
# 2 -0.000014 0.046708 -0.002011 0.000000 0.000000 0.000000
# 3 -0.001848 -0.002011 0.009464 0.000000 0.000000 0.000000
# 4 0.000000 0.000000 0.000000 0.033437 0.000000 0.000000
# 5 0.000000 0.000000 0.000000 0.000000 0.033237 0.000000
# 6 0.000000 0.000000 0.000000 0.000000 0.000000 0.062825
#
#
# Mechanical properties :
#
#
# Convention : Reuss Voigt Hill
#
# Bulk Modulus (GPa) = 16.76397 30.14560 23.45479
# Shear Modulus (GPa) = 22.26882 28.52762 25.39822
#
# Velocity S-wave (km/s) = 3.10984 3.51984 3.32117
# Velocity P-wave (km/s) = 4.49169 5.44159 4.98930
#
# Compressibility (1/GPa) = 0.05965173
#
# Stress axis : x y z
#
# Youngs Moduli (GPa) = 89.07317 21.40969 105.66111
#
# Poissons Ratio (x) = 0.00030 0.19527
# Poissons Ratio (y) = 0.00126 0.21252
# Poissons Ratio (z) = 0.16461 0.04306
#
# Static dielectric constant tensor:
#      x y z
#    x 1.826500 0.000000 0.000000 
#    y 0.000000 2.030350 0.000000 
#    z 0.000000 0.000000 1.853490 
# 
# From -- ./inp_files/4291.got.cif
#   From: 2010.05.17/outbox.cif.g08.bks.cpg/sg45_3_cif.got.tgz:4291.got - 2010.06.03 19:51:22.
