data_PCOD9377846
_publ_section_title
;
Structure prediction by ZEFSAII (Michael W. Deem and Ramdas Pophale) SiO2 
 PCOD9377846
Probable space group: I M A 2
;
_chemical_formula_sum "Si O2"
_cell_formula_units_Z 64
_cell_length_a 17.527407
_cell_length_b 19.807056
_cell_length_c 7.453381
_cell_angle_alpha 90.000000
_cell_angle_beta 90.000000
_cell_angle_gamma 90.000000
_cell_volume 2587.562943
_symmetry_space_group_name_H-M "I M A 2"
_symmetry_group_IT_number 46
_symmetry_cell_setting 'orthorhombic'
loop_
_space_group_symop_operation_xyz
x,y,z
-x,-y,z
1/2-x,y,z
1/2+x,-y,z
1/2+x,1/2+y,1/2+z
1/2-x,1/2-y,1/2+z
-x,1/2+y,1/2+z
x,1/2-y,1/2+z
loop_
_atom_site_type_symbol
_atom_site_label
_atom_site_fract_x
_atom_site_fract_y
_atom_site_fract_z
Si Si1 0.836433 0.705172 0.457630
Si Si2 0.947556 0.905109 0.090204
Si Si3 0.664311 0.020666 0.219915
Si Si4 0.164819 0.587758 0.324034
Si Si5 0.431097 0.464014 0.188414
Si Si6 0.158522 0.770936 0.957169
Si Si7 0.164026 0.152232 0.551442
Si Si8 0.098503 0.650110 0.792247
O O1 0.750000 0.864408 0.492930
O O2 0.889866 0.656996 0.569690
O O3 0.864401 0.781768 0.450027
O O4 0.832159 0.675133 0.259464
O O5 0.022061 0.877634 0.193670
O O6 0.900658 0.964757 0.188110
O O7 0.959300 0.931349 0.881326
O O8 0.750000 0.994308 0.253808
O O9 0.641264 0.081746 0.350642
O O10 0.667597 0.060557 0.029632
O O11 0.250000 0.593198 0.253268
O O12 0.124281 0.525235 0.233019
O O13 0.135231 0.664551 0.332117
O O14 0.500000 0.500000 0.091795
O O15 0.391532 0.410115 0.062236
O O16 0.250000 0.756088 0.937185
O O17 0.100490 0.707652 0.943901
O O18 0.147299 0.805228 0.151120
O O19 0.250000 0.207232 0.032184
#
# Coordination Sequence:
#
# PCOD9377846 Si02
#       8
#     8   8   8   8   8   8   8   8
#     4   9  18  32  50  74 105 141 177 213 257 314
#     4  10  19  30  49  77 107 134 171 220 269 305
#     4   9  16  30  51  76 104 135 174 222 265 305
#     4   8  15  27  45  68  95 126 164 207 248 289
#     4  10  17  27  46  72 101 128 163 212 261 300
#     4  10  20  35  53  75 104 140 176 212 257 312
#     4   9  18  32  51  75 102 134 173 213 255 307
#     4  11  21  33  53  81 110 138 172 217 263 310
#
# _framework density 24.733698
#
# number of rings (size 3 to 8) (size 9 to 14) (size 15 to 20)
#    0.000    2.500    0.000    5.250    0.000    6.000 
#    0.000    0.000    0.000    1.500    0.000   15.750 
#    0.000    0.000    0.000    0.000    0.000    0.000 
#
# Total GULP energy -178764.230920 kJ/mol
# GULP energy per Si atom -5586.382216 kJ/mol
# Density = 2.467740 g / cm^3
# Si number density = 24.733698 Si / 1000 Ang^3
#
#
#
# Elastic Constant Matrix: (Units=GPa)
#
#
# Indices 1 2 3 4 5 6 
#
# 1 79.8821 61.2208 23.7949 0.0000 0.0000 0.0000
# 2 61.2208 134.2125 53.7884 0.0000 0.0000 0.0000
# 3 23.7949 53.7884 41.5057 0.0000 0.0000 0.0000
# 4 0.0000 0.0000 0.0000 27.2232 0.0000 0.0000
# 5 0.0000 0.0000 0.0000 0.0000 24.0772 0.0000
# 6 0.0000 0.0000 0.0000 0.0000 0.0000 46.3297
#
#
#
# Elastic Compliance Matrix: (Units=1/GPa)
#
#
# Indices 1 2 3 4 5 6 
#
# 1 0.019257 -0.009071 0.000715 0.000000 0.000000 0.000000
# 2 -0.009071 0.019775 -0.020427 0.000000 0.000000 0.000000
# 3 0.000715 -0.020427 0.050155 0.000000 0.000000 0.000000
# 4 0.000000 0.000000 0.000000 0.036733 0.000000 0.000000
# 5 0.000000 0.000000 0.000000 0.000000 0.041533 0.000000
# 6 0.000000 0.000000 0.000000 0.000000 0.000000 0.021584
#
#
# Mechanical properties :
#
#
# Convention : Reuss Voigt Hill
#
# Bulk Modulus (GPa) = 31.62364 59.24540 45.43452
# Shear Modulus (GPa) = 19.44446 27.31244 23.37845
#
# Velocity S-wave (km/s) = 2.80688 3.32665 3.07776
# Velocity P-wave (km/s) = 4.82889 6.22581 5.57131
#
# Compressibility (1/GPa) = 0.03162191
#
# Stress axis : x y z
#
# Youngs Moduli (GPa) = 51.92887 50.56942 19.93834
#
# Poissons Ratio (x) = 0.45870 -0.01425
# Poissons Ratio (y) = 0.47103 0.40727
# Poissons Ratio (z) = -0.03712 1.03296
#
# Static dielectric constant tensor:
#      x y z
#    x 1.830420 0.000000 0.000000 
#    y 0.000000 2.054020 0.000000 
#    z 0.000000 0.000000 2.110300 
# 
# From -- ./inp_files/12036.got.cif
#   From: 2010.05.17/outbox.cif.g08.bks.cpg/sg46_7_cif.got.tgz:12036.got - 2010.06.03 19:58:25.
