data_PCOD9377626
_publ_section_title
;
Structure prediction by ZEFSAII (Michael W. Deem and Ramdas Pophale) SiO2 
 PCOD9377626
Probable space group: I B A 2
;
_chemical_formula_sum "Si O2"
_cell_formula_units_Z 64
_cell_length_a 28.998245
_cell_length_b 8.112954
_cell_length_c 10.896575
_cell_angle_alpha 90.000000
_cell_angle_beta 90.000000
_cell_angle_gamma 90.000000
_cell_volume 2563.543792
_symmetry_space_group_name_H-M "I B A 2"
_symmetry_group_IT_number 45
_symmetry_cell_setting 'orthorhombic'
loop_
_space_group_symop_operation_xyz
x,y,z
-x,-y,z
-x,y,1/2+z
x,-y,1/2+z
1/2+x,1/2+y,1/2+z
1/2-x,1/2-y,1/2+z
1/2-x,1/2+y,z
1/2+x,1/2-y,z
loop_
_atom_site_type_symbol
_atom_site_label
_atom_site_fract_x
_atom_site_fract_y
_atom_site_fract_z
Si Si1 0.682301 0.961576 0.125000
Si Si2 0.472393 0.256836 0.977335
Si Si3 0.182833 0.998306 0.945589
Si Si4 0.867920 0.227915 0.608326
Si Si5 0.591398 0.556080 0.812917
Si Si6 0.091022 0.723317 0.181269
Si Si7 0.777562 0.638507 0.883115
Si Si8 0.568443 0.095244 0.917879
O O1 0.638996 0.834265 0.120232
O O2 0.715460 0.906596 0.238396
O O3 0.662851 0.136458 0.173219
O O4 0.700294 0.015147 0.988609
O O5 0.452230 0.399263 0.893028
O O6 0.523961 0.206132 0.949282
O O7 0.442756 0.088227 0.960664
O O8 0.453920 0.293371 0.112093
O O9 0.201916 0.175884 0.894486
O O10 0.138499 0.912154 0.886154
O O11 0.224813 0.873801 0.928236
O O12 0.162494 0.067852 0.074135
O O13 0.908998 0.166016 0.692193
O O14 0.889714 0.323030 0.492087
O O15 0.599409 0.369585 0.776047
O O16 0.075896 0.578659 0.272649
#
# Coordination Sequence:
#
# PCOD9377626 Si02
#       8
#     8   8   8   8   8   8   8   8
#     4  11  24  47  77 103 144 199 247 308 377 443
#     4  11  28  44  78 109 142 203 246 309 364 449
#     4  11  26  47  66 109 147 189 245 308 373 442
#     4  11  24  46  71 103 145 192 243 305 370 452
#     4  12  26  45  72 107 149 188 247 297 387 439
#     4  12  24  47  73 103 153 193 242 311 372 449
#     4  11  27  45  72 107 147 193 254 314 370 450
#     4  11  25  50  72 110 147 190 260 298 372 446
#
# _framework density 24.965439
#
# number of rings (size 3 to 8) (size 9 to 14) (size 15 to 20)
#    0.000    0.750    3.750    2.250    7.000    3.500 
#    0.000    0.000    0.000    0.000    0.000    0.000 
#    0.000    0.000    0.000    0.000    0.000    0.000 
#
# Total GULP energy -178636.390917 kJ/mol
# GULP energy per Si atom -5582.387216 kJ/mol
# Density = 2.490862 g / cm^3
# Si number density = 24.965439 Si / 1000 Ang^3
#
#
#
# Elastic Constant Matrix: (Units=GPa)
#
#
# Indices 1 2 3 4 5 6 
#
# 1 116.9682 5.9177 -3.7116 0.0000 0.0000 0.0000
# 2 5.9177 73.1129 -0.6768 0.0000 0.0000 0.0000
# 3 -3.7116 -0.6768 44.5828 0.0000 0.0000 0.0000
# 4 0.0000 0.0000 0.0000 0.9401 0.0000 0.0000
# 5 0.0000 0.0000 0.0000 0.0000 14.9823 0.0000
# 6 0.0000 0.0000 0.0000 0.0000 0.0000 20.1172
#
#
#
# Elastic Compliance Matrix: (Units=1/GPa)
#
#
# Indices 1 2 3 4 5 6 
#
# 1 0.008607 -0.000690 0.000706 0.000000 0.000000 0.000000
# 2 -0.000690 0.013735 0.000151 0.000000 0.000000 0.000000
# 3 0.000706 0.000151 0.022491 0.000000 0.000000 0.000000
# 4 0.000000 0.000000 0.000000 1.063700 0.000000 0.000000
# 5 0.000000 0.000000 0.000000 0.000000 0.066746 0.000000
# 6 0.000000 0.000000 0.000000 0.000000 0.000000 0.049709
#
#
# Mechanical properties :
#
#
# Convention : Reuss Voigt Hill
#
# Bulk Modulus (GPa) = 22.14025 26.41364 24.27695
# Shear Modulus (GPa) = 4.03321 22.75022 13.39171
#
# Velocity S-wave (km/s) = 1.27241 3.02200 2.31857
# Velocity P-wave (km/s) = 3.32360 4.77281 4.11254
#
# Compressibility (1/GPa) = 0.04516661
#
# Stress axis : x y z
#
# Youngs Moduli (GPa) = 116.18928 72.80811 44.46174
#
# Poissons Ratio (x) = 0.05024 -0.03139
# Poissons Ratio (y) = 0.08018 -0.00672
# Poissons Ratio (z) = -0.08203 -0.01100
#
# Static dielectric constant tensor:
#      x y z
#    x 1.985560 0.000000 0.000000 
#    y 0.000000 2.021650 0.000000 
#    z 0.000000 0.000000 2.061900 
# 
# From -- ./inp_files/4947.got.cif
#   From: 2010.05.17/outbox.cif.g08.bks.cpg/sg45_3_cif.got.tgz:4947.got - 2010.06.03 19:51:22.
