data_PCOD9377681
_publ_section_title
;
Structure prediction by ZEFSAII (Michael W. Deem and Ramdas Pophale) SiO2 
 PCOD9377681
Probable space group: I B A 2
;
_chemical_formula_sum "Si O2"
_cell_formula_units_Z 60
_cell_length_a 10.825233
_cell_length_b 20.227569
_cell_length_c 11.845740
_cell_angle_alpha 90.000000
_cell_angle_beta 90.000000
_cell_angle_gamma 90.000000
_cell_volume 2593.839743
_symmetry_space_group_name_H-M "I B A 2"
_symmetry_group_IT_number 45
_symmetry_cell_setting 'orthorhombic'
loop_
_space_group_symop_operation_xyz
x,y,z
-x,-y,z
-x,y,1/2+z
x,-y,1/2+z
1/2+x,1/2+y,1/2+z
1/2-x,1/2-y,1/2+z
1/2-x,1/2+y,z
1/2+x,1/2-y,z
loop_
_atom_site_type_symbol
_atom_site_label
_atom_site_fract_x
_atom_site_fract_y
_atom_site_fract_z
Si Si1 0.122396 0.416950 0.993900
Si Si2 0.150891 0.351391 0.225015
Si Si3 0.322627 0.395019 0.626641
Si Si4 0.802420 0.248768 0.546754
Si Si5 0.951794 0.743798 0.403825
Si Si6 0.500000 0.500000 0.010378
Si Si7 0.859132 0.113516 0.880311
Si Si8 0.350780 0.930573 0.435403
O O1 0.239557 0.374073 0.956967
O O2 0.157730 0.491146 0.954144
O O3 0.992924 0.409240 0.931954
O O4 0.104091 0.402079 0.127515
O O5 0.227937 0.297923 0.151611
O O6 0.059126 0.301756 0.292325
O O7 0.209380 0.397371 0.324159
O O8 0.355559 0.319563 0.599638
O O9 0.416040 0.451670 0.585239
O O10 0.306871 0.402069 0.758164
O O11 0.202634 0.404538 0.551710
O O12 0.677569 0.234621 0.474359
O O13 0.923564 0.270444 0.473757
O O14 0.945723 0.822064 0.375388
O O15 0.572733 0.550941 0.932072
#
# Coordination Sequence:
#
# PCOD9377681 Si02
#       8
#     8   8   8   8   8   4   8   8
#     4  11  27  46  73 110 146 195 254 303 379 450
#     4  12  26  47  76 106 152 196 238 323 365 456
#     4  12  26  47  76 109 149 199 248 316 374 450
#     4  12  27  48  73 111 149 195 251 306 379 454
#     4  12  27  48  73 111 149 195 251 306 379 454
#     4  12  26  52  70 110 152 194 262 302 386 440
#     4  12  26  47  76 109 149 199 248 316 374 450
#     4  11  27  46  73 110 146 195 254 303 379 450
#
# _framework density 23.131732
#
# number of rings (size 3 to 8) (size 9 to 14) (size 15 to 20)
#    0.000    0.267    6.667    1.200    3.733    2.133 
#    7.200    0.000    0.000    0.000    0.000    0.000 
#    0.000    0.000    0.000    0.000    0.000    0.000 
#
# Total GULP energy -167432.676761 kJ/mol
# GULP energy per Si atom -5581.089225 kJ/mol
# Density = 2.307908 g / cm^3
# Si number density = 23.131732 Si / 1000 Ang^3
#
#
#
# Elastic Constant Matrix: (Units=GPa)
#
#
# Indices 1 2 3 4 5 6 
#
# 1 75.5778 32.9491 30.4399 0.0001 0.0000 0.0000
# 2 32.9491 136.9575 48.7231 0.0003 -0.0001 -0.0001
# 3 30.4399 48.7231 147.9107 0.0003 -0.0001 -0.0001
# 4 0.0001 0.0003 0.0003 43.8701 -0.0001 -0.0001
# 5 0.0000 -0.0001 -0.0001 -0.0001 -1.5415 0.0001
# 6 0.0000 -0.0001 -0.0001 -0.0001 0.0001 31.4475
#
#
#
# Elastic Compliance Matrix: (Units=1/GPa)
#
#
# Indices 1 2 3 4 5 6 
#
# 1 0.015392 -0.002918 -0.002206 0.000000 0.000000 0.000000
# 2 -0.002918 0.008824 -0.002306 0.000000 0.000000 0.000000
# 3 -0.002206 -0.002306 0.007975 0.000000 0.000000 0.000000
# 4 0.000000 0.000000 0.000000 0.022795 -0.000002 0.000000
# 5 0.000000 0.000000 0.000000 -0.000002 -0.648707 0.000001
# 6 0.000000 0.000000 0.000000 0.000000 0.000001 0.031799
#
#
# Mechanical properties :
#
#
# Convention : Reuss Voigt Hill
#
# Bulk Modulus (GPa) = 57.70538 64.96335 61.33436
# Shear Modulus (GPa) = -9.23728 31.31081 11.03676
#
# Velocity S-wave (km/s) = -2.00050 3.68310 2.18669
# Velocity P-wave (km/s) = 4.43447 6.79942 5.74006
#
# Compressibility (1/GPa) = 0.01732941
#
# Stress axis : x y z
#
# Youngs Moduli (GPa) = 64.96766 113.32743 125.39828
#
# Poissons Ratio (x) = 0.33070 0.27669
# Poissons Ratio (y) = 0.18958 0.28919
# Poissons Ratio (z) = 0.14335 0.26135
#
# Static dielectric constant tensor:
#      x y z
#    x 1.996050 0.000000 0.000000 
#    y 0.000000 2.122220 0.000000 
#    z 0.000000 0.000000 1.833650 
# 
# From -- ./inp_files/3841.got.cif
#   From: 2010.05.17/outbox.cif.g08.bks.cpg/sg45_2_cif.got.tgz:3841.got - 2010.06.03 19:51:22.
