data_PCOD9377905
_publ_section_title
;
Structure prediction by ZEFSAII (Michael W. Deem and Ramdas Pophale) SiO2 
 PCOD9377905
Probable space group: I M A 2
;
_chemical_formula_sum "Si O2"
_cell_formula_units_Z 44
_cell_length_a 14.397343
_cell_length_b 9.046028
_cell_length_c 15.300758
_cell_angle_alpha 90.000000
_cell_angle_beta 90.000000
_cell_angle_gamma 90.000000
_cell_volume 1992.751870
_symmetry_space_group_name_H-M "I M A 2"
_symmetry_group_IT_number 46
_symmetry_cell_setting 'orthorhombic'
loop_
_space_group_symop_operation_xyz
x,y,z
-x,-y,z
1/2-x,y,z
1/2+x,-y,z
1/2+x,1/2+y,1/2+z
1/2-x,1/2-y,1/2+z
-x,1/2+y,1/2+z
x,1/2-y,1/2+z
loop_
_atom_site_type_symbol
_atom_site_label
_atom_site_fract_x
_atom_site_fract_y
_atom_site_fract_z
Si Si1 0.250000 0.987658 0.606951
Si Si2 0.750000 0.288923 0.797949
Si Si3 0.750000 0.775617 0.998121
Si Si4 0.250000 0.100703 0.196631
Si Si5 0.084791 0.901329 0.722826
Si Si6 0.548705 0.857545 0.180459
Si Si7 0.750000 0.216887 0.987148
Si Si8 0.096998 0.035508 0.984954
O O1 0.154382 0.997096 0.661695
O O2 0.250000 0.822092 0.570040
O O3 0.250000 0.110236 0.531736
O O4 0.750000 0.431832 0.733739
O O5 0.840831 0.187028 0.781505
O O6 0.750000 0.319165 0.901012
O O7 0.750000 0.871115 0.090652
O O8 0.839903 0.832943 0.947056
O O9 0.349817 0.168142 0.223223
O O10 0.025544 0.772452 0.676077
O O11 0.000000 0.000000 0.757795
O O12 0.570295 0.905687 0.081296
O O13 0.500000 0.000000 0.224216
O O14 0.839145 0.109727 0.987560
O O15 0.000000 0.000000 0.941138
#
# Coordination Sequence:
#
# PCOD9377905 Si02
#       8
#     4   4   4   4   8   8   4   8
#     4  11  22  39  63  97 132 152 204 282 317 361
#     4  11  25  41  61  87 132 180 202 243 321 397
#     4   9  19  33  61  94 114 151 208 263 322 346
#     4  10  18  34  60  87 115 153 212 256 291 367
#     4  11  23  38  64  97 124 156 211 276 316 355
#     4  10  17  31  62  93 109 151 209 260 310 350
#     4  11  24  39  61  89 131 174 198 246 325 383
#     4   9  18  33  61  89 115 158 210 253 296 371
#
# _framework density 22.080020000000001
#
# number of rings (size 3 to 8) (size 9 to 14) (size 15 to 20)
#    0.000    1.818    1.818    4.909    7.636    1.455 
#    0.000    0.000   28.000    0.000    0.000    0.000 
#    0.000    0.000    0.000    0.000    0.000    0.000 
#
# Total GULP energy -122518.664441 kJ/mol
# GULP energy per Si atom -5569.030202 kJ/mol
# Density = 2.202976 g / cm^3
# Si number density = 22.080020 Si / 1000 Ang^3
#
#
#
# Elastic Constant Matrix: (Units=GPa)
#
#
# Indices 1 2 3 4 5 6 
#
# 1 225.0970 49.6967 22.8211 0.0000 0.0000 0.0000
# 2 49.6967 105.3188 22.5811 0.0000 0.0000 0.0000
# 3 22.8211 22.5811 45.3913 0.0000 0.0000 0.0000
# 4 0.0000 0.0000 0.0000 -4.8115 0.0000 0.0000
# 5 0.0000 0.0000 0.0000 0.0000 -10.2472 0.0000
# 6 0.0000 0.0000 0.0000 0.0000 0.0000 25.3250
#
#
#
# Elastic Compliance Matrix: (Units=1/GPa)
#
#
# Indices 1 2 3 4 5 6 
#
# 1 0.005051 -0.002058 -0.001515 0.000000 0.000000 0.000000
# 2 -0.002058 0.011468 -0.004670 0.000000 0.000000 0.000000
# 3 -0.001515 -0.004670 0.025116 0.000000 0.000000 0.000000
# 4 0.000000 0.000000 0.000000 -0.207836 0.000000 0.000000
# 5 0.000000 0.000000 0.000000 0.000000 -0.097588 0.000000
# 6 0.000000 0.000000 0.000000 0.000000 0.000000 0.039487
#
#
# Mechanical properties :
#
#
# Convention : Reuss Voigt Hill
#
# Bulk Modulus (GPa) = 39.76678 62.88944 51.32811
# Shear Modulus (GPa) = -25.07089 20.76716 -2.15187
#
# Velocity S-wave (km/s) = -3.37331 3.07015 -0.98828
# Velocity P-wave (km/s) = 1.69621 6.41187 4.68984
#
# Compressibility (1/GPa) = 0.02514662
#
# Stress axis : x y z
#
# Youngs Moduli (GPa) = 197.99672 87.20285 39.81577
#
# Poissons Ratio (x) = 0.17949 0.06033
# Poissons Ratio (y) = 0.40754 0.18594
# Poissons Ratio (z) = 0.30002 0.40723
#
# Static dielectric constant tensor:
#      x y z
#    x 1.947530 0.000000 0.000000 
#    y 0.000000 1.829730 0.000000 
#    z 0.000000 0.000000 1.824970 
# 
# From -- ./inp_files/19372.got.cif
#   From: 2010.05.17/outbox.cif.g08.bks.cpg/sg46_10_cif.got.tgz:19372.got - 2010.06.03 19:58:25.
