data_PCOD9377828
_publ_section_title
;
Structure prediction by ZEFSAII (Michael W. Deem and Ramdas Pophale) SiO2 
 PCOD9377828
Probable space group: I M A 2
;
_chemical_formula_sum "Si O2"
_cell_formula_units_Z 56
_cell_length_a 8.678098
_cell_length_b 14.098759
_cell_length_c 30.320184
_cell_angle_alpha 90.000000
_cell_angle_beta 90.000000
_cell_angle_gamma 90.000000
_cell_volume 3709.687013
_symmetry_space_group_name_H-M "I M A 2"
_symmetry_group_IT_number 46
_symmetry_cell_setting 'orthorhombic'
loop_
_space_group_symop_operation_xyz
x,y,z
-x,-y,z
1/2-x,y,z
1/2+x,-y,z
1/2+x,1/2+y,1/2+z
1/2-x,1/2-y,1/2+z
-x,1/2+y,1/2+z
x,1/2-y,1/2+z
loop_
_atom_site_type_symbol
_atom_site_label
_atom_site_fract_x
_atom_site_fract_y
_atom_site_fract_z
Si Si1 0.935701 0.102974 0.187540
Si Si2 0.435753 0.603342 0.229769
Si Si3 0.435279 0.607101 0.866120
Si Si4 0.935833 0.206641 0.639750
Si Si5 0.434219 0.106687 0.554652
Si Si6 0.937508 0.293238 0.776544
Si Si7 0.434647 0.107017 0.457147
O O1 0.750000 0.099453 0.187591
O O2 0.981876 0.187096 0.154176
O O3 0.985255 0.137626 0.236455
O O4 0.000000 0.000000 0.177169
O O5 0.500000 0.500000 0.239484
O O6 0.250000 0.600126 0.230619
O O7 0.481249 0.638320 0.180605
O O8 0.486023 0.687065 0.263040
O O9 0.500000 0.500000 0.861778
O O10 0.250000 0.602225 0.866955
O O11 0.486818 0.667714 0.823809
O O12 0.494270 0.649148 0.912599
O O13 0.750000 0.204204 0.637114
O O14 0.004525 0.170188 0.594318
O O15 0.250000 0.100346 0.556806
O O16 0.475313 0.145631 0.505705
O O17 0.500000 0.000000 0.559028
O O18 0.750000 0.293080 0.776481
O O19 0.250000 0.104698 0.453029
O O20 0.500000 0.000000 0.458034
#
# Coordination Sequence:
#
# PCOD9377828 Si02
#       7
#     8   8   8   8   8   8   8
#     4   9  17  30  45  62  86 115 142 173 209 245
#     4   9  17  30  44  60  84 112 140 172 206 243
#     4  10  17  26  42  62  84 112 140 169 203 243
#     4   9  18  30  44  62  86 114 143 173 208 248
#     4  10  19  29  43  62  86 114 142 173 210 250
#     4   8  16  29  43  60  85 114 141 167 204 248
#     4   9  17  28  40  58  84 111 137 169 207 247
#
# _framework density 15.095611999999999
#
# number of rings (size 3 to 8) (size 9 to 14) (size 15 to 20)
#    0.000    2.857    0.000    4.714    0.000    4.000 
#    0.000    4.286    0.000    0.000    0.000    1.000 
#    0.000    2.286    0.000    0.000    0.000    0.000 
#
# Total GULP energy -155939.977807 kJ/mol
# GULP energy per Si atom -5569.284922 kJ/mol
# Density = 1.506125 g / cm^3
# Si number density = 15.095612 Si / 1000 Ang^3
#
#
#
# Elastic Constant Matrix: (Units=GPa)
#
#
# Indices 1 2 3 4 5 6 
#
# 1 26.6075 21.5311 35.5814 0.0000 0.0000 0.0000
# 2 21.5311 94.8588 66.9445 0.0000 0.0000 0.0000
# 3 35.5814 66.9445 159.9317 0.0000 0.0000 0.0000
# 4 0.0000 0.0000 0.0000 49.0338 0.0000 0.0000
# 5 0.0000 0.0000 0.0000 0.0000 23.7110 0.0000
# 6 0.0000 0.0000 0.0000 0.0000 0.0000 23.2174
#
#
#
# Elastic Compliance Matrix: (Units=1/GPa)
#
#
# Indices 1 2 3 4 5 6 
#
# 1 0.055456 -0.005507 -0.010033 0.000000 0.000000 0.000000
# 2 -0.005507 0.015509 -0.005266 0.000000 0.000000 0.000000
# 3 -0.010033 -0.005266 0.010689 0.000000 0.000000 0.000000
# 4 0.000000 0.000000 0.000000 0.020394 0.000000 0.000000
# 5 0.000000 0.000000 0.000000 0.000000 0.042175 0.000000
# 6 0.000000 0.000000 0.000000 0.000000 0.000000 0.043071
#
#
# Mechanical properties :
#
#
# Convention : Reuss Voigt Hill
#
# Bulk Modulus (GPa) = 24.97408 58.83468 41.90438
# Shear Modulus (GPa) = 20.63956 29.68184 25.16070
#
# Velocity S-wave (km/s) = 3.70165 4.43906 4.08702
# Velocity P-wave (km/s) = 5.90335 8.08288 7.07752
#
# Compressibility (1/GPa) = 0.04004151
#
# Stress axis : x y z
#
# Youngs Moduli (GPa) = 18.03230 64.48010 93.55299
#
# Poissons Ratio (x) = 0.35510 0.93858
# Poissons Ratio (y) = 0.09931 0.49269
# Poissons Ratio (z) = 0.18091 0.33958
#
# Static dielectric constant tensor:
#      x y z
#    x 1.514710 0.000000 0.000000 
#    y 0.000000 1.434680 0.000000 
#    z 0.000000 0.000000 1.527880 
# 
# From -- ./inp_files/25232.got.cif
#   From: 2010.05.17/outbox.cif.g08.bks.cpg/sg46_13_cif.got.tgz:25232.got - 2010.06.03 19:58:25.
