data_PCOD9377716
_publ_section_title
;
Structure prediction by ZEFSAII (Michael W. Deem and Ramdas Pophale) SiO2 
 PCOD9377716
Probable space group: I B A 2
;
_chemical_formula_sum "Si O2"
_cell_formula_units_Z 32
_cell_length_a 9.501486
_cell_length_b 14.598290
_cell_length_c 8.236160
_cell_angle_alpha 90.000000
_cell_angle_beta 90.000000
_cell_angle_gamma 90.000000
_cell_volume 1142.400263
_symmetry_space_group_name_H-M "I B A 2"
_symmetry_group_IT_number 45
_symmetry_cell_setting 'orthorhombic'
loop_
_space_group_symop_operation_xyz
x,y,z
-x,-y,z
-x,y,1/2+z
x,-y,1/2+z
1/2+x,1/2+y,1/2+z
1/2-x,1/2-y,1/2+z
1/2-x,1/2+y,z
1/2+x,1/2-y,z
loop_
_atom_site_type_symbol
_atom_site_label
_atom_site_fract_x
_atom_site_fract_y
_atom_site_fract_z
Si Si1 0.652392 0.201769 0.613220
Si Si2 0.865167 0.045257 0.229690
Si Si3 0.109501 0.147989 0.350981
Si Si4 0.419577 0.094336 0.799232
O O1 0.797497 0.196393 0.711826
O O2 0.626377 0.294970 0.514148
O O3 0.529045 0.169626 0.734498
O O4 0.645814 0.127198 0.468786
O O5 0.945004 0.129378 0.316683
O O6 0.834450 0.957029 0.345424
O O7 0.710868 0.075819 0.179159
O O8 0.000000 0.000000 0.132835
O O9 0.500000 0.000000 0.820583
#
# Coordination Sequence:
#
# PCOD9377716 Si02
#       4
#     8   8   8   8
#     4  12  27  51  83 126 172 222 287 358 429 509
#     4   8  21  53  84 115 161 223 286 344 420 508
#     4   9  24  52  84 123 165 225 280 356 424 509
#     4  12  25  49  84 121 168 226 290 350 430 507
#
# _framework density 28.011198
#
# number of rings (size 3 to 8) (size 9 to 14) (size 15 to 20)
#    1.500    0.000    2.500    0.750    0.000    6.000 
#    9.000    5.000    0.000    6.000    0.000    0.000 
#    0.000    0.000    0.000    0.000    0.000    0.000 
#
# Total GULP energy -89563.617368 kJ/mol
# GULP energy per Si atom -5597.726085 kJ/mol
# Density = 2.794744 g / cm^3
# Si number density = 28.011198 Si / 1000 Ang^3
#
#
#
# Elastic Constant Matrix: (Units=GPa)
#
#
# Indices 1 2 3 4 5 6 
#
# 1 166.8703 45.9226 28.7252 0.0000 0.0000 0.0000
# 2 45.9226 158.6157 37.7916 0.0000 0.0000 0.0000
# 3 28.7252 37.7916 130.5563 0.0000 0.0000 0.0000
# 4 0.0000 0.0000 0.0000 40.5323 0.0000 0.0000
# 5 0.0000 0.0000 0.0000 0.0000 47.0339 0.0000
# 6 0.0000 0.0000 0.0000 0.0000 0.0000 64.0601
#
#
#
# Elastic Compliance Matrix: (Units=1/GPa)
#
#
# Indices 1 2 3 4 5 6 
#
# 1 0.006624 -0.001687 -0.000969 0.000000 0.000000 0.000000
# 2 -0.001687 0.007201 -0.001713 0.000000 0.000000 0.000000
# 3 -0.000969 -0.001713 0.008369 0.000000 0.000000 0.000000
# 4 0.000000 0.000000 0.000000 0.024672 0.000000 0.000000
# 5 0.000000 0.000000 0.000000 0.000000 0.021261 0.000000
# 6 0.000000 0.000000 0.000000 0.000000 0.000000 0.015610
#
#
# Mechanical properties :
#
#
# Convention : Reuss Voigt Hill
#
# Bulk Modulus (GPa) = 74.32149 75.65792 74.98970
# Shear Modulus (GPa) = 51.56747 53.23211 52.39979
#
# Velocity S-wave (km/s) = 4.29529 4.36407 4.32982
# Velocity P-wave (km/s) = 7.15470 7.24307 7.19902
#
# Compressibility (1/GPa) = 0.01345506
#
# Stress axis : x y z
#
# Youngs Moduli (GPa) = 150.97288 138.86700 119.49278
#
# Poissons Ratio (x) = 0.23424 0.11580
# Poissons Ratio (y) = 0.25466 0.20473
# Poissons Ratio (z) = 0.14631 0.23793
#
# Static dielectric constant tensor:
#      x y z
#    x 2.070760 0.000000 0.000000 
#    y 0.000000 2.229990 0.000000 
#    z 0.000000 0.000000 2.223260 
# 
# From -- ./inp_files/1178.got.cif
#   From: 2010.05.17/outbox.cif.g08.bks.cpg/sg45_1_cif.got.tgz:1178.got - 2010.06.03 19:51:22.
