data_PCOD9377631
_publ_section_title
;
Structure prediction by ZEFSAII (Michael W. Deem and Ramdas Pophale) SiO2 
 PCOD9377631
Probable space group: I B A 2
;
_chemical_formula_sum "Si O2"
_cell_formula_units_Z 60
_cell_length_a 18.415125
_cell_length_b 8.912016
_cell_length_c 14.676431
_cell_angle_alpha 90.000000
_cell_angle_beta 90.000000
_cell_angle_gamma 90.000000
_cell_volume 2408.635516
_symmetry_space_group_name_H-M "I B A 2"
_symmetry_group_IT_number 45
_symmetry_cell_setting 'orthorhombic'
loop_
_space_group_symop_operation_xyz
x,y,z
-x,-y,z
-x,y,1/2+z
x,-y,1/2+z
1/2+x,1/2+y,1/2+z
1/2-x,1/2-y,1/2+z
1/2-x,1/2+y,z
1/2+x,1/2-y,z
loop_
_atom_site_type_symbol
_atom_site_label
_atom_site_fract_x
_atom_site_fract_y
_atom_site_fract_z
Si Si1 0.167223 0.865071 0.888950
Si Si2 0.477845 0.827810 0.651360
Si Si3 0.332932 0.841697 0.963218
Si Si4 0.936436 0.391672 0.951829
Si Si5 0.769036 0.959325 0.727342
Si Si6 0.343328 0.831544 0.768094
Si Si7 0.647002 0.443486 0.062110
Si Si8 0.000000 0.000000 0.662774
O O1 0.248794 0.825548 0.929165
O O2 0.105952 0.736724 0.895759
O O3 0.175786 0.946017 0.791606
O O4 0.146952 0.992129 0.961289
O O5 0.476497 0.822124 0.541113
O O6 0.396651 0.819035 0.686044
O O7 0.508618 0.674249 0.698019
O O8 0.500000 0.000000 0.675244
O O9 0.373250 0.798470 0.867905
O O10 0.368805 0.002252 0.983507
O O11 0.347976 0.734136 0.047659
O O12 0.000000 0.500000 0.910296
O O13 0.691145 0.004833 0.764910
O O14 0.786122 0.000895 0.623852
O O15 0.780991 0.786593 0.745276
O O16 0.574676 0.505897 0.107460
#
# Coordination Sequence:
#
# PCOD9377631 Si02
#       8
#     8   8   8   8   8   8   8   4
#     4  11  24  47  72 105 151 185 250 314 365 460
#     4  11  25  48  73 105 152 194 251 314 368 458
#     4  11  26  43  73 105 141 190 246 307 379 455
#     4  11  24  47  70 106 148 196 250 302 385 452
#     4  11  26  44  72 108 143 188 248 303 366 453
#     4  11  25  48  68 110 146 187 246 309 375 448
#     4  12  24  44  72 100 140 192 233 306 370 434
#     4  12  24  46  72 108 144 192 260 296 370 462
#
# _framework density 24.910367999999998
#
# number of rings (size 3 to 8) (size 9 to 14) (size 15 to 20)
#    0.000    0.800    4.000    2.400   11.200    1.600 
#    2.400    1.333    0.000    0.000    0.000    0.000 
#    0.000    0.000    0.000    0.000    0.000    0.000 
#
# Total GULP energy -167350.934953 kJ/mol
# GULP energy per Si atom -5578.364498 kJ/mol
# Density = 2.485367 g / cm^3
# Si number density = 24.910368 Si / 1000 Ang^3
#
#
#
# Elastic Constant Matrix: (Units=GPa)
#
#
# Indices 1 2 3 4 5 6 
#
# 1 72.8817 17.5690 -7.2314 0.0000 0.0000 0.0000
# 2 17.5690 131.3256 3.2815 0.0000 0.0000 0.0000
# 3 -7.2314 3.2815 49.4612 0.0000 0.0000 0.0000
# 4 0.0000 0.0000 0.0000 -12.3685 0.0000 0.0000
# 5 0.0000 0.0000 0.0000 0.0000 -2.2811 0.0000
# 6 0.0000 0.0000 0.0000 0.0000 0.0000 41.5561
#
#
#
# Elastic Compliance Matrix: (Units=1/GPa)
#
#
# Indices 1 2 3 4 5 6 
#
# 1 0.014422 -0.001985 0.002240 0.000000 0.000000 0.000000
# 2 -0.001985 0.007901 -0.000814 0.000000 0.000000 0.000000
# 3 0.002240 -0.000814 0.020599 0.000000 0.000000 0.000000
# 4 0.000000 0.000000 0.000000 -0.080851 0.000000 0.000000
# 5 0.000000 0.000000 0.000000 0.000000 -0.438392 0.000000
# 6 0.000000 0.000000 0.000000 0.000000 0.000000 0.024064
#
#
# Mechanical properties :
#
#
# Convention : Reuss Voigt Hill
#
# Bulk Modulus (GPa) = 23.92189 31.21183 27.56686
# Shear Modulus (GPa) = -11.43633 21.38461 4.97414
#
# Velocity S-wave (km/s) = -2.14498 2.93313 1.41462
# Velocity P-wave (km/s) = 1.86800 4.90182 3.70926
#
# Compressibility (1/GPa) = 0.04180272
#
# Stress axis : x y z
#
# Youngs Moduli (GPa) = 69.33975 126.57239 48.54502
#
# Poissons Ratio (x) = 0.25129 -0.10875
# Poissons Ratio (y) = 0.13766 0.03954
# Poissons Ratio (z) = -0.15534 0.10308
#
# Static dielectric constant tensor:
#      x y z
#    x 1.994340 0.000000 0.000000 
#    y 0.000000 2.075930 0.000000 
#    z 0.000000 0.000000 1.923510 
# 
# From -- ./inp_files/8366.got.cif
#   From: 2010.05.17/outbox.cif.g08.bks.cpg/sg45_5_cif.got.tgz:8366.got - 2010.06.03 19:51:22.
