data_PCOD9377301
_publ_section_title
;
Structure prediction by ZEFSAII (Michael W. Deem and Ramdas Pophale) SiO2 
 PCOD9377301
Probable space group: I B A 2
;
_chemical_formula_sum "Si O2"
_cell_formula_units_Z 56
_cell_length_a 11.603332
_cell_length_b 15.361760
_cell_length_c 13.650171
_cell_angle_alpha 90.000000
_cell_angle_beta 90.000000
_cell_angle_gamma 90.000000
_cell_volume 2433.110239
_symmetry_space_group_name_H-M "I B A 2"
_symmetry_group_IT_number 45
_symmetry_cell_setting 'orthorhombic'
loop_
_space_group_symop_operation_xyz
x,y,z
-x,-y,z
-x,y,1/2+z
x,-y,1/2+z
1/2+x,1/2+y,1/2+z
1/2-x,1/2-y,1/2+z
1/2-x,1/2+y,z
1/2+x,1/2-y,z
loop_
_atom_site_type_symbol
_atom_site_label
_atom_site_fract_x
_atom_site_fract_y
_atom_site_fract_z
Si Si1 0.329557 0.607391 0.350260
Si Si2 0.162716 0.604606 0.768522
Si Si3 0.570666 0.169272 0.856715
Si Si4 0.739017 0.068367 0.660566
Si Si5 0.977929 0.793757 0.491511
Si Si6 0.839673 0.235890 0.182904
Si Si7 0.673604 0.433824 0.950347
O O1 0.191279 0.618425 0.362736
O O2 0.344866 0.591842 0.234637
O O3 0.386511 0.688279 0.404147
O O4 0.373628 0.522344 0.404391
O O5 0.176859 0.513368 0.711595
O O6 0.223834 0.680573 0.703605
O O7 0.236996 0.599745 0.868808
O O8 0.032231 0.621236 0.800801
O O9 0.530906 0.200327 0.963674
O O10 0.597881 0.253443 0.787837
O O11 0.680249 0.163161 0.653647
O O12 0.767924 0.040854 0.551949
O O13 0.915673 0.802234 0.595389
O O14 0.079718 0.862644 0.478873
#
# Coordination Sequence:
#
# PCOD9377301 Si02
#       7
#     8   8   8   8   8   8   8
#     4  10  25  45  65 102 142 183 242 296 366 438
#     4  11  24  47  70 102 147 184 245 306 368 441
#     4  11  24  45  72 101 140 192 239 305 370 434
#     4  10  24  42  70 100 141 183 242 294 363 430
#     4  12  25  41  73 105 145 191 241 301 364 440
#     4  11  25  42  69 107 139 190 240 302 366 442
#     4  11  24  44  70 104 139 191 237 300 366 434
#
# _framework density 23.015808
#
# number of rings (size 3 to 8) (size 9 to 14) (size 15 to 20)
#    0.000    1.143    1.429    3.857    6.000    6.286 
#    0.000    4.286    0.000    0.000    0.000    0.000 
#    0.000    0.000    0.000    0.000    0.000    0.000 
#
# Total GULP energy -156452.010779 kJ/mol
# GULP energy per Si atom -5587.571814 kJ/mol
# Density = 2.296342 g / cm^3
# Si number density = 23.015808 Si / 1000 Ang^3
#
#
#
# Elastic Constant Matrix: (Units=GPa)
#
#
# Indices 1 2 3 4 5 6 
#
# 1 118.1392 44.0897 28.0922 0.0000 0.0000 0.0000
# 2 44.0897 89.0067 16.2185 0.0000 0.0000 0.0000
# 3 28.0922 16.2185 97.0145 0.0000 0.0000 0.0000
# 4 0.0000 0.0000 0.0000 19.4542 0.0000 0.0000
# 5 0.0000 0.0000 0.0000 0.0000 19.7564 0.0000
# 6 0.0000 0.0000 0.0000 0.0000 0.0000 29.9682
#
#
#
# Elastic Compliance Matrix: (Units=1/GPa)
#
#
# Indices 1 2 3 4 5 6 
#
# 1 0.010867 -0.004961 -0.002317 0.000000 0.000000 0.000000
# 2 -0.004961 0.013853 -0.000879 0.000000 0.000000 0.000000
# 3 -0.002317 -0.000879 0.011126 0.000000 0.000000 0.000000
# 4 0.000000 0.000000 0.000000 0.051403 0.000000 0.000000
# 5 0.000000 0.000000 0.000000 0.000000 0.050617 0.000000
# 6 0.000000 0.000000 0.000000 0.000000 0.000000 0.033369
#
#
# Mechanical properties :
#
#
# Convention : Reuss Voigt Hill
#
# Bulk Modulus (GPa) = 51.20215 53.44015 52.32115
# Shear Modulus (GPa) = 25.76542 28.21976 26.99259
#
# Velocity S-wave (km/s) = 3.34947 3.50537 3.42831
# Velocity P-wave (km/s) = 6.10356 6.29705 6.20106
#
# Compressibility (1/GPa) = 0.01953043
#
# Stress axis : x y z
#
# Youngs Moduli (GPa) = 92.02183 72.18839 89.88117
#
# Poissons Ratio (x) = 0.35811 0.20829
# Poissons Ratio (y) = 0.45649 0.07904
# Poissons Ratio (z) = 0.21325 0.06348
#
# Static dielectric constant tensor:
#      x y z
#    x 1.883110 0.000000 0.000000 
#    y 0.000000 1.911030 0.000000 
#    z 0.000000 0.000000 1.872970 
# 
# From -- ./inp_files/6166.got.cif
#   From: 2010.05.17/outbox.cif.g08.bks.cpg/sg45_4_cif.got.tgz:6166.got - 2010.06.03 19:51:22.
