data_PCOD9377885
_publ_section_title
;
Structure prediction by ZEFSAII (Michael W. Deem and Ramdas Pophale) SiO2 
 PCOD9377885
Probable space group: I M A 2
;
_chemical_formula_sum "Si O2"
_cell_formula_units_Z 64
_cell_length_a 14.704563
_cell_length_b 14.425270
_cell_length_c 14.292282
_cell_angle_alpha 90.000000
_cell_angle_beta 90.000000
_cell_angle_gamma 90.000000
_cell_volume 3031.640147
_symmetry_space_group_name_H-M "I M A 2"
_symmetry_group_IT_number 46
_symmetry_cell_setting 'orthorhombic'
loop_
_space_group_symop_operation_xyz
x,y,z
-x,-y,z
1/2-x,y,z
1/2+x,-y,z
1/2+x,1/2+y,1/2+z
1/2-x,1/2-y,1/2+z
-x,1/2+y,1/2+z
x,1/2-y,1/2+z
loop_
_atom_site_type_symbol
_atom_site_label
_atom_site_fract_x
_atom_site_fract_y
_atom_site_fract_z
Si Si1 0.355365 0.538922 0.838720
Si Si2 0.147125 0.122223 0.005613
Si Si3 0.913510 0.428962 0.049481
Si Si4 0.527910 0.646922 0.818824
Si Si5 0.609795 0.496791 0.240190
Si Si6 0.151261 0.197323 0.790523
Si Si7 0.354452 0.583144 0.443672
Si Si8 0.010265 0.755605 0.009323
O O1 0.250000 0.543611 0.809833
O O2 0.427285 0.611433 0.793260
O O3 0.402405 0.439295 0.820191
O O4 0.362924 0.559648 0.950421
O O5 0.250000 0.130510 0.041437
O O6 0.146252 0.161596 0.898723
O O7 0.072531 0.186705 0.053036
O O8 0.122702 0.013535 0.997270
O O9 0.860431 0.455373 0.142299
O O10 0.000000 0.500000 0.042741
O O11 0.942744 0.323126 0.069665
O O12 0.571888 0.732530 0.765705
O O13 0.521752 0.689277 0.923551
O O14 0.500000 0.500000 0.245896
O O15 0.643394 0.601733 0.237474
O O16 0.640002 0.443770 0.333835
O O17 0.250000 0.241818 0.777989
O O18 0.250000 0.606789 0.465716
O O19 0.421318 0.666349 0.469655
#
# Coordination Sequence:
#
# PCOD9377885 Si02
#       8
#     8   8   8   8   8   8   8   8
#     4  10  18  30  48  70 104 144 177 223 278 326
#     4   8  15  27  47  75 103 129 172 228 276 314
#     4  10  20  36  47  73 112 154 180 223 268 333
#     4   9  17  30  45  69 103 132 179 227 270 319
#     4  10  19  32  52  71 112 149 176 220 276 322
#     4   9  16  28  48  73 100 139 179 219 273 329
#     4  10  19  31  49  79 111 139 177 228 276 326
#     4  10  17  30  51  71 105 144 183 219 273 326
#
# _framework density 21.110686000000001
#
# number of rings (size 3 to 8) (size 9 to 14) (size 15 to 20)
#    0.000    2.500    2.500    4.125    0.000    3.500 
#    0.000    0.000    0.000    0.000    0.000    1.750 
#   30.000    0.000    9.000    0.375    0.000    0.000 
#
# Total GULP energy -178402.408650 kJ/mol
# GULP energy per Si atom -5575.075270 kJ/mol
# Density = 2.106264 g / cm^3
# Si number density = 21.110686 Si / 1000 Ang^3
#
#
#
# Elastic Constant Matrix: (Units=GPa)
#
#
# Indices 1 2 3 4 5 6 
#
# 1 116.8205 58.4977 6.5411 0.0000 0.0000 0.0000
# 2 58.4977 139.0963 22.3705 0.0000 0.0000 0.0000
# 3 6.5411 22.3705 28.4183 0.0000 0.0000 0.0000
# 4 0.0000 0.0000 0.0000 14.4407 0.0000 0.0000
# 5 0.0000 0.0000 0.0000 0.0000 -7.7278 0.0000
# 6 0.0000 0.0000 0.0000 0.0000 0.0000 20.8388
#
#
#
# Elastic Compliance Matrix: (Units=1/GPa)
#
#
# Indices 1 2 3 4 5 6 
#
# 1 0.010883 -0.004779 0.001257 0.000000 0.000000 0.000000
# 2 -0.004779 0.010330 -0.007032 0.000000 0.000000 0.000000
# 3 0.001257 -0.007032 0.040435 0.000000 0.000000 0.000000
# 4 0.000000 0.000000 0.000000 0.069249 0.000000 0.000000
# 5 0.000000 0.000000 0.000000 0.000000 -0.129404 0.000000
# 6 0.000000 0.000000 0.000000 0.000000 0.000000 0.047987
#
#
# Mechanical properties :
#
#
# Convention : Reuss Voigt Hill
#
# Bulk Modulus (GPa) = 24.66690 51.01706 37.84198
# Shear Modulus (GPa) = 59.45249 18.63871 39.04560
#
# Velocity S-wave (km/s) = 5.31257 2.97459 4.30532
# Velocity P-wave (km/s) = 7.02432 6.00138 6.53290
#
# Compressibility (1/GPa) = 0.04054015
#
# Stress axis : x y z
#
# Youngs Moduli (GPa) = 91.88776 96.80561 24.73134
#
# Poissons Ratio (x) = 0.46263 -0.03109
# Poissons Ratio (y) = 0.43913 0.17390
# Poissons Ratio (z) = -0.11551 0.68070
#
# Static dielectric constant tensor:
#      x y z
#    x 1.856740 0.000000 0.000000 
#    y 0.000000 1.757520 0.000000 
#    z 0.000000 0.000000 1.794090 
# 
# From -- ./inp_files/19718.got.cif
#   From: 2010.05.17/outbox.cif.g08.bks.cpg/sg46_10_cif.got.tgz:19718.got - 2010.06.03 19:58:25.
