data_PCOD9377449
_publ_section_title
;
Structure prediction by ZEFSAII (Michael W. Deem and Ramdas Pophale) SiO2 
 PCOD9377449
Probable space group: I B A 2
;
_chemical_formula_sum "Si O2"
_cell_formula_units_Z 60
_cell_length_a 17.296535
_cell_length_b 17.730756
_cell_length_c 8.807118
_cell_angle_alpha 90.000000
_cell_angle_beta 90.000000
_cell_angle_gamma 90.000000
_cell_volume 2700.972600
_symmetry_space_group_name_H-M "I B A 2"
_symmetry_group_IT_number 45
_symmetry_cell_setting 'orthorhombic'
loop_
_space_group_symop_operation_xyz
x,y,z
-x,-y,z
-x,y,1/2+z
x,-y,1/2+z
1/2+x,1/2+y,1/2+z
1/2-x,1/2-y,1/2+z
1/2-x,1/2+y,z
1/2+x,1/2-y,z
loop_
_atom_site_type_symbol
_atom_site_label
_atom_site_fract_x
_atom_site_fract_y
_atom_site_fract_z
Si Si1 0.246843 0.424542 0.868910
Si Si2 0.583431 0.590920 0.898953
Si Si3 0.617228 0.310091 0.975434
Si Si4 0.500000 0.500000 0.648837
Si Si5 0.536832 0.710292 0.145079
Si Si6 0.765253 0.399694 0.897509
Si Si7 0.734782 0.195027 0.110777
Si Si8 0.644469 0.166935 0.647995
O O1 0.334331 0.409284 0.815879
O O2 0.236005 0.513305 0.853055
O O3 0.178701 0.378580 0.789347
O O4 0.253831 0.385045 0.033120
O O5 0.525016 0.564915 0.766194
O O6 0.566857 0.529390 0.034717
O O7 0.573497 0.666429 0.999083
O O8 0.573504 0.309119 0.811369
O O9 0.680217 0.377199 0.963209
O O10 0.552742 0.306079 0.107368
O O11 0.669400 0.237700 0.015629
O O12 0.559215 0.798946 0.139228
O O13 0.783609 0.333591 0.777954
O O14 0.833514 0.390007 0.016394
O O15 0.801693 0.257978 0.126885
#
# Coordination Sequence:
#
# PCOD9377449 Si02
#       8
#     8   8   8   4   8   8   8   8
#     4  12  24  42  69  97 139 183 239 301 355 426
#     4  11  25  39  66  93 147 191 232 288 352 457
#     4  11  26  43  70 101 142 184 242 291 365 443
#     4  10  26  42  56 104 152 194 228 278 384 450
#     4  12  24  43  66  99 138 185 236 287 357 434
#     4  11  25  41  68 104 134 184 235 298 366 422
#     4  11  22  46  67  98 137 180 241 303 344 438
#     4  11  23  42  68  98 134 183 241 291 357 423
#
# _framework density 22.214220000000001
#
# number of rings (size 3 to 8) (size 9 to 14) (size 15 to 20)
#    0.000    0.800    4.000    2.400   11.200    2.133 
#    0.000    0.000    0.000    4.800    0.000    0.000 
#    0.000    0.000    0.000    0.000    0.000    0.000 
#
# Total GULP energy -167141.637870 kJ/mol
# GULP energy per Si atom -5571.387929 kJ/mol
# Density = 2.216366 g / cm^3
# Si number density = 22.214220 Si / 1000 Ang^3
#
#
#
# Elastic Constant Matrix: (Units=GPa)
#
#
# Indices 1 2 3 4 5 6 
#
# 1 56.8734 51.6133 24.5815 0.0000 0.0000 0.0000
# 2 51.6133 124.7344 20.0591 0.0000 0.0000 0.0000
# 3 24.5815 20.0591 82.0110 0.0000 0.0000 0.0000
# 4 0.0000 0.0000 0.0000 30.1480 0.0000 0.0000
# 5 0.0000 0.0000 0.0000 0.0000 36.2681 0.0000
# 6 0.0000 0.0000 0.0000 0.0000 0.0000 0.7413
#
#
#
# Elastic Compliance Matrix: (Units=1/GPa)
#
#
# Indices 1 2 3 4 5 6 
#
# 1 0.031102 -0.011836 -0.006427 0.000000 0.000000 0.000000
# 2 -0.011836 0.012850 0.000405 0.000000 0.000000 0.000000
# 3 -0.006427 0.000405 0.014021 0.000000 0.000000 0.000000
# 4 0.000000 0.000000 0.000000 0.033170 0.000000 0.000000
# 5 0.000000 0.000000 0.000000 0.000000 0.027572 0.000000
# 6 0.000000 0.000000 0.000000 0.000000 0.000000 1.348992
#
#
# Mechanical properties :
#
#
# Convention : Reuss Voigt Hill
#
# Bulk Modulus (GPa) = 44.93284 50.68073 47.80678
# Shear Modulus (GPa) = 3.30941 24.58912 13.94927
#
# Velocity S-wave (km/s) = 1.22189 3.33063 2.50860
# Velocity P-wave (km/s) = 4.71822 6.13636 5.47342
#
# Compressibility (1/GPa) = 0.02225544
#
# Stress axis : x y z
#
# Youngs Moduli (GPa) = 32.15192 77.82388 71.32156
#
# Poissons Ratio (x) = 0.92113 0.45842
# Poissons Ratio (y) = 0.38055 -0.02887
# Poissons Ratio (z) = 0.20666 -0.03150
#
# Static dielectric constant tensor:
#      x y z
#    x 1.911270 0.000000 0.000000 
#    y 0.000000 1.842320 0.000000 
#    z 0.000000 0.000000 1.962320 
# 
# From -- ./inp_files/2140.got.cif
#   From: 2010.05.17/outbox.cif.g08.bks.cpg/sg45_2_cif.got.tgz:2140.got - 2010.06.03 19:51:22.
