data_PCOD9377587
_publ_section_title
;
Structure prediction by ZEFSAII (Michael W. Deem and Ramdas Pophale) SiO2 
 PCOD9377587
Probable space group: I B A 2
;
_chemical_formula_sum "Si O2"
_cell_formula_units_Z 40
_cell_length_a 8.563667
_cell_length_b 13.332171
_cell_length_c 14.019379
_cell_angle_alpha 90.000000
_cell_angle_beta 90.000000
_cell_angle_gamma 90.000000
_cell_volume 1600.624364
_symmetry_space_group_name_H-M "I B A 2"
_symmetry_group_IT_number 45
_symmetry_cell_setting 'orthorhombic'
loop_
_space_group_symop_operation_xyz
x,y,z
-x,-y,z
-x,y,1/2+z
x,-y,1/2+z
1/2+x,1/2+y,1/2+z
1/2-x,1/2-y,1/2+z
1/2-x,1/2+y,z
1/2+x,1/2-y,z
loop_
_atom_site_type_symbol
_atom_site_label
_atom_site_fract_x
_atom_site_fract_y
_atom_site_fract_z
Si Si1 0.672039 0.383893 0.003280
Si Si2 0.236120 0.456061 0.848484
Si Si3 0.447539 0.658195 0.198666
Si Si4 0.690715 0.150378 0.248849
Si Si5 0.019830 0.690209 0.939752
O O1 0.598953 0.404645 0.105767
O O2 0.865410 0.302045 0.848862
O O3 0.565390 0.293064 0.963736
O O4 0.853449 0.348946 0.016038
O O5 0.352365 0.390776 0.785493
O O6 0.162807 0.533861 0.771149
O O7 0.110043 0.389777 0.905536
O O8 0.319507 0.525271 0.928143
O O9 0.397126 0.774166 0.178110
O O10 0.628228 0.658551 0.224551
#
# Coordination Sequence:
#
# PCOD9377587 Si02
#       5
#     8   8   8   8   8
#     4  11  25  46  70 105 141 185 241 295 357 423
#     4  11  24  45  70 101 141 187 233 290 359 426
#     4  12  25  43  71 102 139 186 238 295 356 427
#     4  11  23  43  67  98 137 183 232 285 354 421
#     4  11  24  45  73 100 142 189 234 293 356 427
#
# _framework density 24.990248000000001
#
# number of rings (size 3 to 8) (size 9 to 14) (size 15 to 20)
#    0.000    0.800    0.000   10.200    0.000    3.200 
#    0.000   22.000    0.000    0.000    0.000    0.000 
#    0.000    0.000    0.000    0.000    0.000    0.000 
#
# Total GULP energy -111876.612096 kJ/mol
# GULP energy per Si atom -5593.830605 kJ/mol
# Density = 2.493337 g / cm^3
# Si number density = 24.990248 Si / 1000 Ang^3
#
#
#
# Elastic Constant Matrix: (Units=GPa)
#
#
# Indices 1 2 3 4 5 6 
#
# 1 215.9601 80.5473 79.5285 0.0000 0.0000 0.0000
# 2 80.5473 141.9749 58.7791 0.0000 0.0000 0.0000
# 3 79.5285 58.7791 101.2784 0.0000 0.0000 0.0000
# 4 0.0000 0.0000 0.0000 16.8300 0.0000 0.0000
# 5 0.0000 0.0000 0.0000 0.0000 33.2060 0.0000
# 6 0.0000 0.0000 0.0000 0.0000 0.0000 47.8657
#
#
#
# Elastic Compliance Matrix: (Units=1/GPa)
#
#
# Indices 1 2 3 4 5 6 
#
# 1 0.007015 -0.002237 -0.004211 0.000000 0.000000 0.000000
# 2 -0.002237 0.009984 -0.004038 0.000000 0.000000 0.000000
# 3 -0.004211 -0.004038 0.015524 0.000000 0.000000 0.000000
# 4 0.000000 0.000000 0.000000 0.059418 0.000000 0.000000
# 5 0.000000 0.000000 0.000000 0.000000 0.030115 0.000000
# 6 0.000000 0.000000 0.000000 0.000000 0.000000 0.020892
#
#
# Mechanical properties :
#
#
# Convention : Reuss Voigt Hill
#
# Bulk Modulus (GPa) = 86.56289 99.65815 93.11052
# Shear Modulus (GPa) = 29.80271 35.60423 32.70347
#
# Velocity S-wave (km/s) = 3.45711 3.77865 3.62145
# Velocity P-wave (km/s) = 7.11684 7.68134 7.40447
#
# Compressibility (1/GPa) = 0.01155229
#
# Stress axis : x y z
#
# Youngs Moduli (GPa) = 142.54499 100.15649 64.41734
#
# Poissons Ratio (x) = 0.22403 0.27123
# Poissons Ratio (y) = 0.31885 0.26013
# Poissons Ratio (z) = 0.60020 0.40445
#
# Static dielectric constant tensor:
#      x y z
#    x 1.960070 0.000000 0.000000 
#    y 0.000000 2.083940 0.000000 
#    z 0.000000 0.000000 2.088200 
# 
# From -- ./inp_files/5480.got.cif
#   From: 2010.05.17/outbox.cif.g08.bks.cpg/sg45_3_cif.got.tgz:5480.got - 2010.06.03 19:51:22.
