data_PCOD9377741
_publ_section_title
;
Structure prediction by ZEFSAII (Michael W. Deem and Ramdas Pophale) SiO2 
 PCOD9377741
Probable space group: I B A 2
;
_chemical_formula_sum "Si O2"
_cell_formula_units_Z 32
_cell_length_a 9.000000
_cell_length_b 30.000000
_cell_length_c 12.000000
_cell_angle_alpha 90.000000
_cell_angle_beta 90.000000
_cell_angle_gamma 90.000000
_cell_volume 3240.000000
_symmetry_space_group_name_H-M "I B A 2"
_symmetry_group_IT_number 45
_symmetry_cell_setting 'orthorhombic'
loop_
_space_group_symop_operation_xyz
x,y,z
-x,-y,z
-x,y,1/2+z
x,-y,1/2+z
1/2+x,1/2+y,1/2+z
1/2-x,1/2-y,1/2+z
1/2-x,1/2+y,z
1/2+x,1/2-y,z
loop_
_atom_site_type_symbol
_atom_site_label
_atom_site_fract_x
_atom_site_fract_y
_atom_site_fract_z
Si Si1 0.309269 0.431066 0.376580
Si Si2 0.940582 0.246557 0.254668
Si Si3 0.828364 0.480745 0.297430
Si Si4 0.316028 0.104091 0.648772
Si Si5 0.152555 0.905686 0.924400
Si Si6 0.683354 0.205614 0.122870
Si Si7 0.296616 0.301812 0.879795
Si Si8 0.912637 0.455459 0.066509
O O1 0.285887 0.481912 0.337829
O O2 0.248322 0.403012 0.271797
O O3 0.480857 0.419970 0.403720
O O4 0.189004 0.429573 0.477734
O O5 0.816304 0.212920 0.210452
O O6 0.843488 0.287220 0.303931
O O7 0.046269 0.263471 0.155619
O O8 0.054626 0.223194 0.339326
O O9 0.777650 0.436890 0.365101
O O10 0.807924 0.471381 0.166879
O O11 0.000000 0.500000 0.303496
O O12 0.191834 0.093118 0.555678
O O13 0.363978 0.154649 0.629813
O O14 0.459169 0.074156 0.622435
O O15 0.175579 0.854770 0.883565
O O16 0.750372 0.214376 0.002166
O O17 0.000000 0.500000 0.024965
#
# Coordination Sequence:
#
# PCOD9377741 Si02
#       8
#     8   8   8   8   8   8   8   8
#     4  12  24  43  67  92 133 171 212 272 324 372
#     4  10  21  40  66  91 127 168 205 254 328 376
#     4  11  23  43  66  89 129 173 219 266 310 387
#     4  11  24  41  64  95 130 166 219 265 317 388
#     4  11  26  42  64  97 134 167 219 271 323 371
#     4  10  22  39  63  95 124 163 212 258 314 383
#     4  10  22  42  65  94 131 163 209 264 313 384
#     4  11  24  42  66  93 125 172 221 261 321 378
#
# _framework density 9.8765429999999999
#
# number of rings (size 3 to 8) (size 9 to 14) (size 15 to 20)
#    0.000    1.250    2.500    3.750    3.500    1.000 
#    0.000    1.250    0.000    0.000    0.000    0.000 
#    0.000    0.000    0.000    0.000    0.000    0.000 
#
# Total GULP energy -178587.926554 kJ/mol
# GULP energy per Si atom -5580.872705 kJ/mol
# Density = 0.985406 g / cm^3
# Si number density = 9.876543 Si / 1000 Ang^3
#
#
#
# Elastic Constant Matrix: (Units=GPa)
#
#
# Indices 1 2 3 4 5 6 
#
# 1 123.2049 43.9717 23.3301 0.0001 0.0000 0.0000
# 2 43.9717 67.9615 14.9645 -0.0001 0.0000 0.0000
# 3 23.3301 14.9645 81.6592 -0.0004 -0.0001 0.0015
# 4 0.0001 -0.0001 -0.0004 28.9265 0.0001 0.0001
# 5 0.0000 0.0000 -0.0001 0.0001 23.7605 0.0000
# 6 0.0000 0.0000 0.0015 0.0001 0.0000 12.9833
#
#
#
# Elastic Compliance Matrix: (Units=1/GPa)
#
#
# Indices 1 2 3 4 5 6 
#
# 1 0.010825 -0.006589 -0.001885 0.000000 0.000000 0.000000
# 2 -0.006589 0.019343 -0.001662 0.000000 0.000000 0.000000
# 3 -0.001885 -0.001662 0.013089 0.000000 0.000000 -0.000002
# 4 0.000000 0.000000 0.000000 0.034570 0.000000 0.000000
# 5 0.000000 0.000000 0.000000 0.000000 0.042087 0.000000
# 6 0.000000 0.000000 -0.000002 0.000000 0.000000 0.077022
#
#
# Mechanical properties :
#
#
# Convention : Reuss Voigt Hill
#
# Bulk Modulus (GPa) = 43.50708 48.59535 46.05121
# Shear Modulus (GPa) = 22.23496 25.83802 24.03649
#
# Velocity S-wave (km/s) = 3.35870 3.62062 3.49212
# Velocity P-wave (km/s) = 6.09216 6.49102 6.29475
#
# Compressibility (1/GPa) = 0.02298477
#
# Stress axis : x y z
#
# Youngs Moduli (GPa) = 92.37779 51.69753 76.39837
#
# Poissons Ratio (x) = 0.34063 0.14403
# Poissons Ratio (y) = 0.60866 0.12700
# Poissons Ratio (z) = 0.17416 0.08594
#
# Static dielectric constant tensor:
#      x y z
#    x 1.648530 0.000000 0.000000 
#    y 0.000000 1.703070 0.000000 
#    z 0.000000 0.000000 1.756280 
# 
# From -- ./inp_files/3410.got.cif
#   From: 2010.05.17/outbox.ucp.g08.bks.cvg/sg45_2_cif.got.tgz:3410.got - 2010.06.11 16:34:12.
