data_PCOD9377735
_publ_section_title
;
Structure prediction by ZEFSAII (Michael W. Deem and Ramdas Pophale) SiO2 
 PCOD9377735
Probable space group: I B A 2
;
_chemical_formula_sum "Si O2"
_cell_formula_units_Z 30
_cell_length_a 12.000000
_cell_length_b 9.000000
_cell_length_c 27.000000
_cell_angle_alpha 90.000000
_cell_angle_beta 90.000000
_cell_angle_gamma 90.000000
_cell_volume 2916.000000
_symmetry_space_group_name_H-M "I B A 2"
_symmetry_group_IT_number 45
_symmetry_cell_setting 'orthorhombic'
loop_
_space_group_symop_operation_xyz
x,y,z
-x,-y,z
-x,y,1/2+z
x,-y,1/2+z
1/2+x,1/2+y,1/2+z
1/2-x,1/2-y,1/2+z
1/2-x,1/2+y,z
1/2+x,1/2-y,z
loop_
_atom_site_type_symbol
_atom_site_label
_atom_site_fract_x
_atom_site_fract_y
_atom_site_fract_z
Si Si1 0.369567 0.042217 0.223180
Si Si2 0.252228 0.708426 0.787192
Si Si3 0.375077 0.927005 0.607030
Si Si4 0.000000 0.500000 0.956251
Si Si5 0.006646 0.162014 0.555991
Si Si6 0.684232 0.855644 0.527317
Si Si7 0.881359 0.204028 0.953037
Si Si8 0.128279 0.041834 0.349386
O O1 0.338142 0.185722 0.256892
O O2 0.341144 0.070665 0.164874
O O3 0.500000 0.000000 0.225604
O O4 0.304065 0.903313 0.247667
O O5 0.168008 0.821679 0.814713
O O6 0.304241 0.602792 0.830129
O O7 0.402383 0.766010 0.583121
O O8 0.500000 0.000000 0.605098
O O9 0.294650 0.019912 0.569933
O O10 0.937429 0.357367 0.931856
O O11 0.904871 0.563538 0.991794
O O12 0.884689 0.232830 0.557045
O O13 0.035773 0.153469 0.497208
O O14 0.000000 0.000000 0.578096
O O15 0.771139 0.787364 0.487869
O O16 0.859533 0.093839 0.906967
O O17 0.000000 0.000000 0.342267
#
# Coordination Sequence:
#
# PCOD9377735 Si02
#       8
#     8   8   8   4   8   8   8   8
#     4  10  21  43  69  95 133 175 213 285 337 390
#     4  10  24  44  68  99 128 165 231 278 342 405
#     4   9  18  39  63  91 132 177 216 258 326 393
#     4  10  22  44  58  94 140 170 218 266 322 392
#     4  10  21  36  57  95 135 163 218 266 305 394
#     4  10  20  40  61  90 132 176 213 261 318 388
#     4  11  24  38  66  90 131 176 215 269 327 390
#     4  11  25  45  68  98 129 172 221 279 336 403
#
# _framework density 10.288066000000001
#
# number of rings (size 3 to 8) (size 9 to 14) (size 15 to 20)
#    0.000    1.867    3.333    1.200    3.733    3.200 
#    3.600   10.000    0.000    0.000    0.000    0.000 
#    0.000    0.000    0.000    0.000    0.000    0.000 
#
# Total GULP energy -167278.051326 kJ/mol
# GULP energy per Si atom -5575.935044 kJ/mol
# Density = 1.026465 g / cm^3
# Si number density = 10.288066 Si / 1000 Ang^3
#
#
#
# Elastic Constant Matrix: (Units=GPa)
#
#
# Indices 1 2 3 4 5 6 
#
# 1 85.1268 53.4647 37.1015 0.0000 0.0000 0.0000
# 2 53.4647 151.1234 59.0529 0.0000 0.0000 0.0000
# 3 37.1015 59.0529 141.9245 0.0000 0.0000 0.0000
# 4 0.0000 0.0000 0.0000 24.5863 0.0000 0.0000
# 5 0.0000 0.0000 0.0000 0.0000 26.2329 0.0000
# 6 0.0000 0.0000 0.0000 0.0000 0.0000 32.2890
#
#
#
# Elastic Compliance Matrix: (Units=1/GPa)
#
#
# Indices 1 2 3 4 5 6 
#
# 1 0.015625 -0.004695 -0.002131 0.000000 0.000000 0.000000
# 2 -0.004695 0.009313 -0.002648 0.000000 0.000000 0.000000
# 3 -0.002131 -0.002648 0.008705 0.000000 0.000000 0.000000
# 4 0.000000 0.000000 0.000000 0.040673 0.000000 0.000000
# 5 0.000000 0.000000 0.000000 0.000000 0.038120 0.000000
# 6 0.000000 0.000000 0.000000 0.000000 0.000000 0.030970
#
#
# Mechanical properties :
#
#
# Convention : Reuss Voigt Hill
#
# Bulk Modulus (GPa) = 68.05068 75.26810 71.65939
# Shear Modulus (GPa) = 29.89519 31.85867 30.87693
#
# Velocity S-wave (km/s) = 3.81584 3.93915 3.87798
# Velocity P-wave (km/s) = 7.24973 7.57291 7.41308
#
# Compressibility (1/GPa) = 0.01469493
#
# Stress axis : x y z
#
# Youngs Moduli (GPa) = 64.00112 107.38069 114.88070
#
# Poissons Ratio (x) = 0.50415 0.24481
# Poissons Ratio (y) = 0.30049 0.30415
# Poissons Ratio (z) = 0.13639 0.28429
#
# Static dielectric constant tensor:
#      x y z
#    x 1.787610 0.000000 0.000000 
#    y 0.000000 1.810810 0.000000 
#    z 0.000000 0.000000 1.694280 
# 
# From -- ./inp_files/10026.got.cif
#   From: 2010.05.17/outbox.ucp.g08.bks.cvg/sg45_6_cif.got.tgz:10026.got - 2010.06.11 16:34:12.
