data_PCOD9377407
_publ_section_title
;
Structure prediction by ZEFSAII (Michael W. Deem and Ramdas Pophale) SiO2 
 PCOD9377407
Probable space group: I B A 2
;
_chemical_formula_sum "Si O2"
_cell_formula_units_Z 56
_cell_length_a 14.228017
_cell_length_b 14.807119
_cell_length_c 11.017878
_cell_angle_alpha 90.000000
_cell_angle_beta 90.000000
_cell_angle_gamma 90.000000
_cell_volume 2321.201814
_symmetry_space_group_name_H-M "I B A 2"
_symmetry_group_IT_number 45
_symmetry_cell_setting 'orthorhombic'
loop_
_space_group_symop_operation_xyz
x,y,z
-x,-y,z
-x,y,1/2+z
x,-y,1/2+z
1/2+x,1/2+y,1/2+z
1/2-x,1/2-y,1/2+z
1/2-x,1/2+y,z
1/2+x,1/2-y,z
loop_
_atom_site_type_symbol
_atom_site_label
_atom_site_fract_x
_atom_site_fract_y
_atom_site_fract_z
Si Si1 0.000000 0.500000 0.377980
Si Si2 0.834426 0.032118 0.548830
Si Si3 0.609958 0.238273 0.608983
Si Si4 0.773537 0.851238 0.460220
Si Si5 0.325835 0.939123 0.730998
Si Si6 0.500000 0.500000 0.218624
Si Si7 0.567036 0.816175 0.502432
Si Si8 0.882014 0.845712 0.837447
O O1 0.094531 0.499541 0.294518
O O2 0.018104 0.590545 0.457354
O O3 0.748482 0.017425 0.641194
O O4 0.924903 0.048226 0.630890
O O5 0.820714 0.107649 0.444624
O O6 0.841929 0.934353 0.489200
O O7 0.662255 0.264326 0.484173
O O8 0.627718 0.137446 0.650179
O O9 0.497527 0.237455 0.597148
O O10 0.652688 0.308221 0.707470
O O11 0.731794 0.882354 0.331543
O O12 0.675341 0.837156 0.533901
O O13 0.451951 0.425238 0.301430
O O14 0.573471 0.744468 0.392935
#
# Coordination Sequence:
#
# PCOD9377407 Si02
#       8
#     4   8   8   8   8   4   8   8
#     4  10  24  52  74 114 152 200 262 316 388 468
#     4  12  27  45  79 109 154 201 252 327 384 465
#     4  12  26  49  77 109 152 203 253 320 387 460
#     4  11  26  51  72 119 148 202 267 309 393 463
#     4  11  27  47  76 111 151 201 255 319 390 460
#     4  12  26  48  78 108 154 204 254 320 390 454
#     4  11  27  50  77 109 159 202 260 323 382 462
#     4  12  25  49  73 117 151 199 258 314 392 462
#
# _framework density 24.125433999999998
#
# number of rings (size 3 to 8) (size 9 to 14) (size 15 to 20)
#    0.000    0.571    4.286    3.000   10.000    0.000 
#    5.143    0.000    0.000    0.000    0.000    0.000 
#    0.000    0.000    0.000    0.000    0.000    0.000 
#
# Total GULP energy -156312.575424 kJ/mol
# GULP energy per Si atom -5582.591979 kJ/mol
# Density = 2.407052 g / cm^3
# Si number density = 24.125434 Si / 1000 Ang^3
#
#
#
# Elastic Constant Matrix: (Units=GPa)
#
#
# Indices 1 2 3 4 5 6 
#
# 1 77.1167 27.3194 29.7552 0.0000 0.0000 0.0000
# 2 27.3194 106.2252 10.0396 0.0000 0.0000 0.0000
# 3 29.7552 10.0396 54.1125 0.0000 0.0000 0.0000
# 4 0.0000 0.0000 0.0000 28.6148 0.0000 0.0000
# 5 0.0000 0.0000 0.0000 0.0000 101.5275 0.0000
# 6 0.0000 0.0000 0.0000 0.0000 0.0000 41.7493
#
#
#
# Elastic Compliance Matrix: (Units=1/GPa)
#
#
# Indices 1 2 3 4 5 6 
#
# 1 0.017793 -0.003717 -0.009094 0.000000 0.000000 0.000000
# 2 -0.003717 0.010358 0.000122 0.000000 0.000000 0.000000
# 3 -0.009094 0.000122 0.023458 0.000000 0.000000 0.000000
# 4 0.000000 0.000000 0.000000 0.034947 0.000000 0.000000
# 5 0.000000 0.000000 0.000000 0.000000 0.009850 0.000000
# 6 0.000000 0.000000 0.000000 0.000000 0.000000 0.023952
#
#
# Mechanical properties :
#
#
# Convention : Reuss Voigt Hill
#
# Bulk Modulus (GPa) = 38.12243 41.29809 39.71026
# Shear Modulus (GPa) = 32.36654 45.73434 39.05044
#
# Velocity S-wave (km/s) = 3.66675 4.35868 4.02760
# Velocity P-wave (km/s) = 5.81058 6.51813 6.17450
#
# Compressibility (1/GPa) = 0.02623128
#
# Stress axis : x y z
#
# Youngs Moduli (GPa) = 56.20176 96.54109 42.62903
#
# Poissons Ratio (x) = 0.35880 0.38769
# Poissons Ratio (y) = 0.20888 -0.00519
# Poissons Ratio (z) = 0.51112 -0.01176
#
# Static dielectric constant tensor:
#      x y z
#    x 1.969150 0.000000 0.000000 
#    y 0.000000 1.874880 0.000000 
#    z 0.000000 0.000000 1.996180 
# 
# From -- ./inp_files/4171.got.cif
#   From: 2010.05.17/outbox.cif.g08.bks.cpg/sg45_3_cif.got.tgz:4171.got - 2010.06.03 19:51:22.
