data_PCOD9377873
_publ_section_title
;
Structure prediction by ZEFSAII (Michael W. Deem and Ramdas Pophale) SiO2 
 PCOD9377873
Probable space group: I M A 2
;
_chemical_formula_sum "Si O2"
_cell_formula_units_Z 40
_cell_length_a 20.812722
_cell_length_b 19.441925
_cell_length_c 5.439591
_cell_angle_alpha 90.000000
_cell_angle_beta 90.000000
_cell_angle_gamma 90.000000
_cell_volume 2201.072731
_symmetry_space_group_name_H-M "I M A 2"
_symmetry_group_IT_number 46
_symmetry_cell_setting 'orthorhombic'
loop_
_space_group_symop_operation_xyz
x,y,z
-x,-y,z
1/2-x,y,z
1/2+x,-y,z
1/2+x,1/2+y,1/2+z
1/2-x,1/2-y,1/2+z
-x,1/2+y,1/2+z
x,1/2-y,1/2+z
loop_
_atom_site_type_symbol
_atom_site_label
_atom_site_fract_x
_atom_site_fract_y
_atom_site_fract_z
Si Si1 0.678064 0.828263 0.278670
Si Si2 0.177757 0.417778 0.278621
Si Si3 0.070860 0.535088 0.283441
Si Si4 0.960320 0.715230 0.777891
Si Si5 0.532787 0.424515 0.783474
O O1 0.750000 0.796970 0.279090
O O2 0.672175 0.873329 0.528175
O O3 0.617042 0.778985 0.278123
O O4 0.672347 0.873289 0.029041
O O5 0.250000 0.447330 0.278238
O O6 0.123414 0.475463 0.279529
O O7 0.073771 0.577766 0.534658
O O8 0.000000 0.500000 0.285071
O O9 0.072765 0.578851 0.034469
O O10 0.984445 0.749600 0.527205
O O11 0.980071 0.635364 0.779809
O O12 0.500000 0.500000 0.785016
#
# Coordination Sequence:
#
# PCOD9377873 Si02
#       5
#     8   8   8   8   8
#     4  10  20  34  50  70 104 151 190 215 249 301
#     4  10  19  32  52  80 110 139 180 228 264 304
#     4  10  17  29  51  74 101 134 173 213 265 317
#     4  12  24  37  53  77 110 142 182 229 267 309
#     4  10  20  34  54  75  99 134 176 217 267 319
#
# _framework density 18.172958000000001
#
# number of rings (size 3 to 8) (size 9 to 14) (size 15 to 20)
#    0.000    1.600    0.000    8.400    0.000    0.800 
#    0.000    0.000    0.000    0.000    0.000    0.000 
#    0.000   16.000    0.000    0.000    0.000    0.000 
#
# Total GULP energy -111635.509740 kJ/mol
# GULP energy per Si atom -5581.775487 kJ/mol
# Density = 1.813160 g / cm^3
# Si number density = 18.172958 Si / 1000 Ang^3
#
#
#
# Elastic Constant Matrix: (Units=GPa)
#
#
# Indices 1 2 3 4 5 6 
#
# 1 59.8143 30.2107 39.5421 0.0000 0.0000 0.0000
# 2 30.2107 82.4308 54.1065 0.0000 0.0000 0.0000
# 3 39.5421 54.1065 236.6190 0.0000 0.0000 0.0000
# 4 0.0000 0.0000 0.0000 29.6129 0.0000 0.0000
# 5 0.0000 0.0000 0.0000 0.0000 15.2075 0.0000
# 6 0.0000 0.0000 0.0000 0.0000 0.0000 27.4281
#
#
#
# Elastic Compliance Matrix: (Units=1/GPa)
#
#
# Indices 1 2 3 4 5 6 
#
# 1 0.021363 -0.006455 -0.002094 0.000000 0.000000 0.000000
# 2 -0.006455 0.016224 -0.002631 0.000000 0.000000 0.000000
# 3 -0.002094 -0.002631 0.005178 0.000000 0.000000 0.000000
# 4 0.000000 0.000000 0.000000 0.033769 0.000000 0.000000
# 5 0.000000 0.000000 0.000000 0.000000 0.065757 0.000000
# 6 0.000000 0.000000 0.000000 0.000000 0.000000 0.036459
#
#
# Mechanical properties :
#
#
# Convention : Reuss Voigt Hill
#
# Bulk Modulus (GPa) = 49.00861 69.62031 59.31446
# Shear Modulus (GPa) = 24.04864 31.45002 27.74933
#
# Velocity S-wave (km/s) = 3.64169 4.16455 3.91187
# Velocity P-wave (km/s) = 6.68648 7.84332 7.28789
#
# Compressibility (1/GPa) = 0.02040458
#
# Stress axis : x y z
#
# Youngs Moduli (GPa) = 46.80998 61.63617 193.13226
#
# Poissons Ratio (x) = 0.39786 0.40442
# Poissons Ratio (y) = 0.30216 0.50817
# Poissons Ratio (z) = 0.09802 0.16218
#
# Static dielectric constant tensor:
#      x y z
#    x 1.593530 0.000000 0.000000 
#    y 0.000000 1.607860 0.000000 
#    z 0.000000 0.000000 0.829810 
# 
# From -- ./inp_files/1577.got.cif
#   From: 2010.05.17/outbox.cif.g08.bks.cpg/sg46_1_cif.got.tgz:1577.got - 2010.06.03 19:58:25.
