data_PCOD9377231
_publ_section_title
;
Structure prediction by ZEFSAII (Michael W. Deem and Ramdas Pophale) SiO2 
 PCOD9377231
Probable space group: I B A 2
;
_chemical_formula_sum "Si O2"
_cell_formula_units_Z 56
_cell_length_a 26.988327
_cell_length_b 5.494381
_cell_length_c 15.131827
_cell_angle_alpha 90.000000
_cell_angle_beta 90.000000
_cell_angle_gamma 90.000000
_cell_volume 2243.810121
_symmetry_space_group_name_H-M "I B A 2"
_symmetry_group_IT_number 45
_symmetry_cell_setting 'orthorhombic'
loop_
_space_group_symop_operation_xyz
x,y,z
-x,-y,z
-x,y,1/2+z
x,-y,1/2+z
1/2+x,1/2+y,1/2+z
1/2-x,1/2-y,1/2+z
1/2-x,1/2+y,z
1/2+x,1/2-y,z
loop_
_atom_site_type_symbol
_atom_site_label
_atom_site_fract_x
_atom_site_fract_y
_atom_site_fract_z
Si Si1 0.346956 0.586012 0.838950
Si Si2 0.417025 0.767168 0.259331
Si Si3 0.409571 0.959608 0.929189
Si Si4 0.678589 0.294505 0.500109
Si Si5 0.500000 0.500000 0.165459
Si Si6 0.235029 0.684939 0.635906
Si Si7 0.500000 0.000000 0.560265
Si Si8 0.856648 0.621541 0.667411
O O1 0.364765 0.354519 0.783465
O O2 0.336069 0.783394 0.762274
O O3 0.394206 0.698796 0.890965
O O4 0.314903 0.491125 0.921600
O O5 0.433910 0.887699 0.349845
O O6 0.452517 0.561083 0.224434
O O7 0.406840 0.983741 0.190658
O O8 0.356684 0.086588 0.955845
O O9 0.450161 0.955331 0.003929
O O10 0.732727 0.267938 0.546227
O O11 0.645941 0.328197 0.591498
O O12 0.492533 0.253715 0.111274
O O13 0.260947 0.448807 0.680623
O O14 0.179664 0.587567 0.627774
#
# Coordination Sequence:
#
# PCOD9377231 Si02
#       8
#     8   8   8   8   4   8   4   8
#     4  10  24  44  75 108 147 205 260 313 396 466
#     4  10  25  45  74 102 155 205 254 321 387 470
#     4  10  25  45  71 104 154 207 253 318 390 467
#     4  10  23  44  74 106 150 203 252 320 390 459
#     4  12  30  44  72 116 146 198 262 320 376 470
#     4  10  24  42  70 107 141 194 248 312 381 448
#     4  12  30  44  72 114 150 196 264 316 382 470
#     4  10  23  44  74 110 149 203 258 322 393 464
#
# _framework density 24.957550999999999
#
# number of rings (size 3 to 8) (size 9 to 14) (size 15 to 20)
#    0.000    1.714    0.000    0.857   20.000    0.000 
#    0.000    5.714    0.000    0.000    0.000    0.000 
#    0.000    0.000    0.000    0.000    0.000    0.000 
#
# Total GULP energy -156030.220302 kJ/mol
# GULP energy per Si atom -5572.507868 kJ/mol
# Density = 2.490075 g / cm^3
# Si number density = 24.957551 Si / 1000 Ang^3
#
#
#
# Elastic Constant Matrix: (Units=GPa)
#
#
# Indices 1 2 3 4 5 6 
#
# 1 62.6824 22.9361 48.1296 0.0000 0.0000 0.0000
# 2 22.9361 118.4172 41.6503 0.0000 0.0000 0.0000
# 3 48.1296 41.6503 150.9640 0.0000 0.0000 0.0000
# 4 0.0000 0.0000 0.0000 26.9185 0.0000 0.0000
# 5 0.0000 0.0000 0.0000 0.0000 35.7433 0.0000
# 6 0.0000 0.0000 0.0000 0.0000 0.0000 45.3819
#
#
#
# Elastic Compliance Matrix: (Units=1/GPa)
#
#
# Indices 1 2 3 4 5 6 
#
# 1 0.021521 -0.001944 -0.006325 0.000000 0.000000 0.000000
# 2 -0.001944 0.009528 -0.002009 0.000000 0.000000 0.000000
# 3 -0.006325 -0.002009 0.009195 0.000000 0.000000 0.000000
# 4 0.000000 0.000000 0.000000 0.037149 0.000000 0.000000
# 5 0.000000 0.000000 0.000000 0.000000 0.027977 0.000000
# 6 0.000000 0.000000 0.000000 0.000000 0.000000 0.022035
#
#
# Mechanical properties :
#
#
# Convention : Reuss Voigt Hill
#
# Bulk Modulus (GPa) = 50.79128 61.94395 56.36762
# Shear Modulus (GPa) = 32.35746 36.23193 34.29470
#
# Velocity S-wave (km/s) = 3.60460 3.81431 3.71094
# Velocity P-wave (km/s) = 6.14162 6.65374 6.40280
#
# Compressibility (1/GPa) = 0.01968842
#
# Stress axis : x y z
#
# Youngs Moduli (GPa) = 46.46568 104.95594 108.75621
#
# Poissons Ratio (x) = 0.20401 0.68789
# Poissons Ratio (y) = 0.09032 0.21849
# Poissons Ratio (z) = 0.29390 0.21085
#
# Static dielectric constant tensor:
#      x y z
#    x 2.024860 0.000000 0.000000 
#    y 0.000000 2.057590 0.000000 
#    z 0.000000 0.000000 2.015250 
# 
# From -- ./inp_files/7183.got.cif
#   From: 2010.05.17/outbox.cif.g08.bks.cpg/sg45_4_cif.got.tgz:7183.got - 2010.06.03 19:51:22.
