data_PCOD9377805
_publ_section_title
;
Structure prediction by ZEFSAII (Michael W. Deem and Ramdas Pophale) SiO2 
 PCOD9377805
Probable space group: I M A 2
;
_chemical_formula_sum "Si O2"
_cell_formula_units_Z 64
_cell_length_a 19.966955
_cell_length_b 9.494065
_cell_length_c 15.671515
_cell_angle_alpha 90.000000
_cell_angle_beta 90.000000
_cell_angle_gamma 90.000000
_cell_volume 2970.810995
_symmetry_space_group_name_H-M "I M A 2"
_symmetry_group_IT_number 46
_symmetry_cell_setting 'orthorhombic'
loop_
_space_group_symop_operation_xyz
x,y,z
-x,-y,z
1/2-x,y,z
1/2+x,-y,z
1/2+x,1/2+y,1/2+z
1/2-x,1/2-y,1/2+z
-x,1/2+y,1/2+z
x,1/2-y,1/2+z
loop_
_atom_site_type_symbol
_atom_site_label
_atom_site_fract_x
_atom_site_fract_y
_atom_site_fract_z
Si Si1 0.326459 0.489026 0.460290
Si Si2 0.824255 0.312999 0.992931
Si Si3 0.436881 0.077465 0.096527
Si Si4 0.079631 0.298025 0.356978
Si Si5 0.502920 0.658673 0.181028
Si Si6 0.466690 0.648654 0.944856
Si Si7 0.678902 0.537690 0.845098
Si Si8 0.592278 0.128787 0.250768
O O1 0.250000 0.437546 0.464743
O O2 0.323874 0.657736 0.450858
O O3 0.369128 0.448102 0.544474
O O4 0.368842 0.416878 0.385975
O O5 0.750000 0.314710 0.040385
O O6 0.905557 0.319750 0.010302
O O7 0.820072 0.449636 0.932497
O O8 0.457230 0.236488 0.118678
O O9 0.500000 0.000000 0.053400
O O10 0.430373 0.994900 0.187033
O O11 0.043224 0.339177 0.270309
O O12 0.121270 0.153758 0.344928
O O13 0.024217 0.264979 0.429654
O O14 0.500000 0.500000 0.151417
O O15 0.431453 0.729904 0.204723
O O16 0.500000 0.500000 0.965263
O O17 0.439622 0.632159 0.846084
O O18 0.750000 0.609222 0.832392
O O19 0.667059 0.417674 0.773485
#
# Coordination Sequence:
#
# PCOD9377805 Si02
#       8
#     8   8   8   8   8   8   8   8
#     4  11  26  42  56  88 131 166 203 257 317 378
#     4   9  20  35  52  80 121 156 193 249 306 360
#     4  10  21  41  62  84 121 163 210 252 306 375
#     4  11  21  34  59  93 121 161 201 254 315 372
#     4  10  21  36  63  91 124 154 204 270 317 359
#     4  10  16  31  59  90 115 145 198 251 303 356
#     4  10  18  33  58  86 118 157 201 248 307 369
#     4   9  17  35  57  87 117 148 200 256 298 363
#
# _framework density 21.542939000000001
#
# number of rings (size 3 to 8) (size 9 to 14) (size 15 to 20)
#    0.000    2.000    3.750    1.500    7.000    0.500 
#    0.000    3.125    0.000    0.750    0.000    0.000 
#    0.000    0.000    0.000    0.000    0.000    0.000 
#
# Total GULP energy -178178.963299 kJ/mol
# GULP energy per Si atom -5568.092603 kJ/mol
# Density = 2.149391 g / cm^3
# Si number density = 21.542939 Si / 1000 Ang^3
#
#
#
# Elastic Constant Matrix: (Units=GPa)
#
#
# Indices 1 2 3 4 5 6 
#
# 1 130.2122 14.6286 15.8109 0.0000 0.0000 0.0000
# 2 14.6286 114.7069 17.3869 0.0000 0.0000 0.0000
# 3 15.8109 17.3869 80.7941 0.0000 0.0000 0.0000
# 4 0.0000 0.0000 0.0000 12.7874 0.0000 0.0000
# 5 0.0000 0.0000 0.0000 0.0000 7.0166 0.0000
# 6 0.0000 0.0000 0.0000 0.0000 0.0000 30.9304
#
#
#
# Elastic Compliance Matrix: (Units=1/GPa)
#
#
# Indices 1 2 3 4 5 6 
#
# 1 0.007938 -0.000803 -0.001381 0.000000 0.000000 0.000000
# 2 -0.000803 0.009093 -0.001800 0.000000 0.000000 0.000000
# 3 -0.001381 -0.001800 0.013035 0.000000 0.000000 0.000000
# 4 0.000000 0.000000 0.000000 0.078202 0.000000 0.000000
# 5 0.000000 0.000000 0.000000 0.000000 0.142519 0.000000
# 6 0.000000 0.000000 0.000000 0.000000 0.000000 0.032331
#
#
# Mechanical properties :
#
#
# Convention : Reuss Voigt Hill
#
# Bulk Modulus (GPa) = 45.25132 46.81844 46.03488
# Shear Modulus (GPa) = 16.75322 28.67266 22.71294
#
# Velocity S-wave (km/s) = 2.79169 3.65218 3.25054
# Velocity P-wave (km/s) = 5.60733 6.29002 5.95846
#
# Compressibility (1/GPa) = 0.02209880
#
# Stress axis : x y z
#
# Youngs Moduli (GPa) = 125.98238 109.97379 76.71895
#
# Poissons Ratio (x) = 0.08831 0.10591
# Poissons Ratio (y) = 0.10117 0.13807
# Poissons Ratio (z) = 0.17392 0.19792
#
# Static dielectric constant tensor:
#      x y z
#    x 1.906260 0.000000 0.000000 
#    y 0.000000 1.774420 0.000000 
#    z 0.000000 0.000000 1.821200 
# 
# From -- ./inp_files/20253.got.cif
#   From: 2010.05.17/outbox.cif.g08.bks.cpg/sg46_11_cif.got.tgz:20253.got - 2010.06.03 19:58:25.
