data_PCOD9377348
_publ_section_title
;
Structure prediction by ZEFSAII (Michael W. Deem and Ramdas Pophale) SiO2 
 PCOD9377348
Probable space group: I B A 2
;
_chemical_formula_sum "Si O2"
_cell_formula_units_Z 40
_cell_length_a 10.051641
_cell_length_b 8.938355
_cell_length_c 17.726569
_cell_angle_alpha 90.000000
_cell_angle_beta 90.000000
_cell_angle_gamma 90.000000
_cell_volume 1592.645995
_symmetry_space_group_name_H-M "I B A 2"
_symmetry_group_IT_number 45
_symmetry_cell_setting 'orthorhombic'
loop_
_space_group_symop_operation_xyz
x,y,z
-x,-y,z
-x,y,1/2+z
x,-y,1/2+z
1/2+x,1/2+y,1/2+z
1/2-x,1/2-y,1/2+z
1/2-x,1/2+y,z
1/2+x,1/2-y,z
loop_
_atom_site_type_symbol
_atom_site_label
_atom_site_fract_x
_atom_site_fract_y
_atom_site_fract_z
Si Si1 0.500000 0.000000 0.099730
Si Si2 0.000000 0.000000 0.574114
Si Si3 0.107555 0.289780 0.764108
Si Si4 0.184724 0.242195 0.130105
Si Si5 0.659514 0.876281 0.826063
Si Si6 0.147860 0.265919 0.496394
O O1 0.399312 0.893444 0.145815
O O2 0.583373 0.894980 0.046088
O O3 0.096642 0.906892 0.629413
O O4 0.925041 0.886628 0.518771
O O5 0.183042 0.277229 0.682103
O O6 0.189674 0.164267 0.807188
O O7 0.138216 0.450230 0.804298
O O8 0.949677 0.277832 0.779274
O O9 0.213028 0.256683 0.039695
O O10 0.642742 0.823939 0.912082
#
# Coordination Sequence:
#
# PCOD9377348 Si02
#       6
#     4   4   8   8   8   8
#     4  10  24  44  76 112 156 200 274 328 402 470
#     4  10  26  44  78 116 150 204 280 322 402 476
#     4  11  29  50  75 113 159 208 263 331 404 477
#     4  11  26  45  79 114 163 209 273 338 403 480
#     4  11  29  50  77 111 159 210 264 325 409 472
#     4  11  25  45  78 110 156 207 267 335 392 482
#
# _framework density 25.115437
#
# number of rings (size 3 to 8) (size 9 to 14) (size 15 to 20)
#    0.000    1.200    0.000    2.400   22.400    0.800 
#    0.000    0.000    0.000    0.000    0.000    0.000 
#    0.000    0.000    0.000    0.000    0.000    0.000 
#
# Total GULP energy -111789.264552 kJ/mol
# GULP energy per Si atom -5589.463228 kJ/mol
# Density = 2.505827 g / cm^3
# Si number density = 25.115437 Si / 1000 Ang^3
#
#
#
# Elastic Constant Matrix: (Units=GPa)
#
#
# Indices 1 2 3 4 5 6 
#
# 1 79.1602 10.3593 8.2795 0.0000 0.0000 0.0000
# 2 10.3593 105.2397 32.6092 0.0000 0.0000 0.0000
# 3 8.2795 32.6092 177.3280 0.0000 0.0000 0.0000
# 4 0.0000 0.0000 0.0000 18.3635 0.0000 0.0000
# 5 0.0000 0.0000 0.0000 0.0000 19.5370 0.0000
# 6 0.0000 0.0000 0.0000 0.0000 0.0000 51.0664
#
#
#
# Elastic Compliance Matrix: (Units=1/GPa)
#
#
# Indices 1 2 3 4 5 6 
#
# 1 0.012823 -0.001142 -0.000389 0.000000 0.000000 0.000000
# 2 -0.001142 0.010178 -0.001818 0.000000 0.000000 0.000000
# 3 -0.000389 -0.001818 0.005992 0.000000 0.000000 0.000000
# 4 0.000000 0.000000 0.000000 0.054456 0.000000 0.000000
# 5 0.000000 0.000000 0.000000 0.000000 0.051185 0.000000
# 6 0.000000 0.000000 0.000000 0.000000 0.000000 0.019582
#
#
# Mechanical properties :
#
#
# Convention : Reuss Voigt Hill
#
# Bulk Modulus (GPa) = 44.85357 51.58044 48.21700
# Shear Modulus (GPa) = 29.70098 38.49205 34.09651
#
# Velocity S-wave (km/s) = 3.44259 3.91910 3.68855
# Velocity P-wave (km/s) = 5.80514 6.40789 6.11395
#
# Compressibility (1/GPa) = 0.02229477
#
# Stress axis : x y z
#
# Youngs Moduli (GPa) = 77.98674 98.25182 166.89492
#
# Poissons Ratio (x) = 0.11218 0.06488
# Poissons Ratio (y) = 0.08904 0.30347
# Poissons Ratio (z) = 0.03032 0.17865
#
# Static dielectric constant tensor:
#      x y z
#    x 2.179550 0.000000 0.000000 
#    y 0.000000 1.997700 0.000000 
#    z 0.000000 0.000000 2.037850 
# 
# From -- ./inp_files/7848.got.cif
#   From: 2010.05.17/outbox.cif.g08.bks.cpg/sg45_4_cif.got.tgz:7848.got - 2010.06.03 19:51:22.
