data_PCOD9377483
_publ_section_title
;
Structure prediction by ZEFSAII (Michael W. Deem and Ramdas Pophale) SiO2 
 PCOD9377483
Probable space group: I B A 2
;
_chemical_formula_sum "Si O2"
_cell_formula_units_Z 40
_cell_length_a 7.442152
_cell_length_b 22.343767
_cell_length_c 9.098482
_cell_angle_alpha 90.000000
_cell_angle_beta 90.000000
_cell_angle_gamma 90.000000
_cell_volume 1512.947542
_symmetry_space_group_name_H-M "I B A 2"
_symmetry_group_IT_number 45
_symmetry_cell_setting 'orthorhombic'
loop_
_space_group_symop_operation_xyz
x,y,z
-x,-y,z
-x,y,1/2+z
x,-y,1/2+z
1/2+x,1/2+y,1/2+z
1/2-x,1/2-y,1/2+z
1/2-x,1/2+y,z
1/2+x,1/2-y,z
loop_
_atom_site_type_symbol
_atom_site_label
_atom_site_fract_x
_atom_site_fract_y
_atom_site_fract_z
Si Si1 0.125708 0.737849 0.918340
Si Si2 0.719409 0.057253 0.813174
Si Si3 0.058325 0.607920 0.023680
Si Si4 0.857234 0.070487 0.305721
Si Si5 0.411769 0.306447 0.214383
O O1 0.316221 0.711635 0.867838
O O2 0.098799 0.779766 0.772011
O O3 0.022971 0.676174 0.967436
O O4 0.134153 0.775491 0.064213
O O5 0.609142 0.096987 0.693823
O O6 0.930214 0.070221 0.842860
O O7 0.754893 0.989505 0.755047
O O8 0.598423 0.066265 0.957373
O O9 0.244265 0.587814 0.947842
O O10 0.856740 0.125189 0.193222
#
# Coordination Sequence:
#
# PCOD9377483 Si02
#       5
#     8   8   8   8   8
#     4  11  25  44  73 112 152 200 248 317 391 457
#     4  11  26  51  78 114 154 201 261 320 389 467
#     4  11  26  48  78 115 155 205 255 324 390 463
#     4  10  27  47  75 112 154 205 260 314 386 467
#     4  11  25  47  74 110 152 200 253 317 387 464
#
# _framework density 26.438458000000001
#
# number of rings (size 3 to 8) (size 9 to 14) (size 15 to 20)
#    0.000    1.200    0.000    3.000   11.200    9.600 
#    0.000    4.000    0.000    4.800    0.000    0.000 
#    0.000    0.000    0.000    0.000    0.000    0.000 
#
# Total GULP energy -111542.270282 kJ/mol
# GULP energy per Si atom -5577.113514 kJ/mol
# Density = 2.637828 g / cm^3
# Si number density = 26.438458 Si / 1000 Ang^3
#
#
#
# Elastic Constant Matrix: (Units=GPa)
#
#
# Indices 1 2 3 4 5 6 
#
# 1 81.9753 18.0504 68.5541 -0.0012 0.0000 -0.0121
# 2 18.0504 128.1639 37.5438 -0.0055 0.0188 0.0688
# 3 68.5541 37.5438 117.9427 -0.0079 0.0339 0.1290
# 4 -0.0012 -0.0055 -0.0079 31.5841 0.0052 0.0126
# 5 0.0000 0.0188 0.0339 0.0052 75.8647 -0.1205
# 6 -0.0121 0.0688 0.1290 0.0126 -0.1205 130.5821
#
#
#
# Elastic Compliance Matrix: (Units=1/GPa)
#
#
# Indices 1 2 3 4 5 6 
#
# 1 0.023806 0.000773 -0.014083 -0.000002 0.000006 0.000016
# 2 0.000773 0.008630 -0.003196 0.000001 -0.000001 -0.000001
# 3 -0.014083 -0.003196 0.017682 0.000003 -0.000007 -0.000017
# 4 -0.000002 0.000001 0.000003 0.031661 -0.000002 -0.000003
# 5 0.000006 -0.000001 -0.000007 -0.000002 0.013181 0.000012
# 6 0.000016 -0.000001 -0.000017 -0.000003 0.000012 0.007658
#
#
# Mechanical properties :
#
#
# Convention : Reuss Voigt Hill
#
# Bulk Modulus (GPa) = 58.46412 64.04206 61.25309
# Shear Modulus (GPa) = 35.37705 61.20176 48.28941
#
# Velocity S-wave (km/s) = 3.66196 4.81654 4.27837
# Velocity P-wave (km/s) = 6.32781 7.43019 6.90105
#
# Compressibility (1/GPa) = 0.01710451
#
# Stress axis : x y z
#
# Youngs Moduli (GPa) = 42.00574 115.87518 56.55439
#
# Poissons Ratio (x) = -0.08953 0.79648
# Poissons Ratio (y) = -0.03246 0.18076
# Poissons Ratio (z) = 0.59158 0.37036
#
# Static dielectric constant tensor:
#      x y z
#    x 2.270010 0.000060 -0.000010 
#    y 0.000060 3.212250 0.000000 
#    z -0.000010 0.000000 1.951380 
# 
# From -- ./inp_files/952.got.cif
#   From: 2010.05.17/outbox.cif.g08.bks.cpg/sg45_1_cif.got.tgz:952.got - 2010.06.03 19:51:22.
