data_PCOD9377656
_publ_section_title
;
Structure prediction by ZEFSAII (Michael W. Deem and Ramdas Pophale) SiO2 
 PCOD9377656
Probable space group: I B A 2
;
_chemical_formula_sum "Si O2"
_cell_formula_units_Z 40
_cell_length_a 13.374237
_cell_length_b 11.564134
_cell_length_c 9.458378
_cell_angle_alpha 90.000000
_cell_angle_beta 90.000000
_cell_angle_gamma 90.000000
_cell_volume 1462.846634
_symmetry_space_group_name_H-M "I B A 2"
_symmetry_group_IT_number 45
_symmetry_cell_setting 'orthorhombic'
loop_
_space_group_symop_operation_xyz
x,y,z
-x,-y,z
-x,y,1/2+z
x,-y,1/2+z
1/2+x,1/2+y,1/2+z
1/2-x,1/2-y,1/2+z
1/2-x,1/2+y,z
1/2+x,1/2-y,z
loop_
_atom_site_type_symbol
_atom_site_label
_atom_site_fract_x
_atom_site_fract_y
_atom_site_fract_z
Si Si1 0.896872 0.098320 0.699760
Si Si2 0.012220 0.220588 0.930810
Si Si3 0.873755 0.425088 0.820233
Si Si4 0.166297 0.157907 0.703434
Si Si5 0.326862 0.106189 0.116309
O O1 0.950634 0.182797 0.586680
O O2 0.941866 0.126218 0.852481
O O3 0.107311 0.039283 0.670114
O O4 0.778679 0.119229 0.692731
O O5 0.117230 0.208928 0.845104
O O6 0.961473 0.342219 0.879996
O O7 0.783108 0.365888 0.732053
O O8 0.896640 0.532637 0.719202
O O9 0.821280 0.539938 0.468178
O O10 0.146743 0.259314 0.590927
#
# Coordination Sequence:
#
# PCOD9377656 Si02
#       5
#     8   8   8   8   8
#     4  11  26  46  77 114 149 203 264 330 400 479
#     4  12  25  49  75 115 151 203 264 329 404 482
#     4  11  26  48  79 110 157 210 260 338 407 493
#     4  11  25  46  77 114 153 201 271 334 402 487
#     4  11  25  51  74 113 158 209 263 329 417 491
#
# _framework density 27.343945000000001
#
# number of rings (size 3 to 8) (size 9 to 14) (size 15 to 20)
#    0.000    0.800    4.000    1.800    0.000   12.000 
#    3.600    2.000    0.000    0.000    0.000    0.000 
#    0.000    0.000    0.000    0.000    0.000    0.000 
#
# Total GULP energy -111800.832229 kJ/mol
# GULP energy per Si atom -5590.041611 kJ/mol
# Density = 2.728171 g / cm^3
# Si number density = 27.343945 Si / 1000 Ang^3
#
#
#
# Elastic Constant Matrix: (Units=GPa)
#
#
# Indices 1 2 3 4 5 6 
#
# 1 130.9303 34.3229 13.6310 0.0000 0.0000 0.0000
# 2 34.3229 140.9367 57.2775 0.0000 0.0000 0.0000
# 3 13.6310 57.2775 140.3320 0.0000 0.0000 0.0000
# 4 0.0000 0.0000 0.0000 30.6893 0.0000 0.0000
# 5 0.0000 0.0000 0.0000 0.0000 22.5524 0.0000
# 6 0.0000 0.0000 0.0000 0.0000 0.0000 50.1756
#
#
#
# Elastic Compliance Matrix: (Units=1/GPa)
#
#
# Indices 1 2 3 4 5 6 
#
# 1 0.008159 -0.001996 0.000022 0.000000 0.000000 0.000000
# 2 -0.001996 0.008995 -0.003477 0.000000 0.000000 0.000000
# 3 0.000022 -0.003477 0.008543 0.000000 0.000000 0.000000
# 4 0.000000 0.000000 0.000000 0.032585 0.000000 0.000000
# 5 0.000000 0.000000 0.000000 0.000000 0.044341 0.000000
# 6 0.000000 0.000000 0.000000 0.000000 0.000000 0.019930
#
#
# Mechanical properties :
#
#
# Convention : Reuss Voigt Hill
#
# Bulk Modulus (GPa) = 67.59430 69.18467 68.38948
# Shear Modulus (GPa) = 36.13088 41.14798 38.63943
#
# Velocity S-wave (km/s) = 3.63898 3.88342 3.76319
# Velocity P-wave (km/s) = 6.51383 6.74274 6.62927
#
# Compressibility (1/GPa) = 0.01479415
#
# Stress axis : x y z
#
# Youngs Moduli (GPa) = 122.57064 111.17688 117.05327
#
# Poissons Ratio (x) = 0.22190 -0.00259
# Poissons Ratio (y) = 0.24464 0.40704
# Poissons Ratio (z) = -0.00272 0.38660
#
# Static dielectric constant tensor:
#      x y z
#    x 2.242250 0.000000 0.000000 
#    y 0.000000 2.365680 0.000000 
#    z 0.000000 0.000000 2.066580 
# 
# From -- ./inp_files/1627.got.cif
#   From: 2010.05.17/outbox.cif.g08.bks.cpg/sg45_1_cif.got.tgz:1627.got - 2010.06.03 19:51:22.
