data_PCOD9377918
_publ_section_title
;
Structure prediction by ZEFSAII (Michael W. Deem and Ramdas Pophale) SiO2 
 PCOD9377918
Probable space group: I M A 2
;
_chemical_formula_sum "Si O2"
_cell_formula_units_Z 48
_cell_length_a 16.361850
_cell_length_b 16.224996
_cell_length_c 9.430246
_cell_angle_alpha 90.000000
_cell_angle_beta 90.000000
_cell_angle_gamma 90.000000
_cell_volume 2503.456372
_symmetry_space_group_name_H-M "I M A 2"
_symmetry_group_IT_number 46
_symmetry_cell_setting 'orthorhombic'
loop_
_space_group_symop_operation_xyz
x,y,z
-x,-y,z
1/2-x,y,z
1/2+x,-y,z
1/2+x,1/2+y,1/2+z
1/2-x,1/2-y,1/2+z
-x,1/2+y,1/2+z
x,1/2-y,1/2+z
loop_
_atom_site_type_symbol
_atom_site_label
_atom_site_fract_x
_atom_site_fract_y
_atom_site_fract_z
Si Si1 0.885301 0.819513 0.173110
Si Si2 0.938916 0.573027 0.430593
Si Si3 0.659163 0.502770 0.158374
Si Si4 0.539763 0.268170 0.305074
Si Si5 0.931193 0.352149 0.035665
Si Si6 0.871255 0.661763 0.993855
O O1 0.848670 0.831811 0.328813
O O2 0.976779 0.790107 0.218542
O O3 0.888706 0.896722 0.067550
O O4 0.850963 0.744387 0.080251
O O5 0.887822 0.533058 0.300803
O O6 0.000000 0.500000 0.473051
O O7 0.986470 0.657235 0.377964
O O8 0.750000 0.469649 0.190586
O O9 0.606939 0.441510 0.057851
O O10 0.667337 0.584977 0.068304
O O11 0.590505 0.211237 0.411183
O O12 0.591655 0.311474 0.185196
O O13 0.030192 0.353384 0.015492
#
# Coordination Sequence:
#
# PCOD9377918 Si02
#       6
#     8   8   8   8   8   8
#     4  10  18  32  62  90 113 139 193 247 299 338
#     4  12  20  35  61  90 114 146 196 248 291 348
#     4  12  24  38  55  83 123 165 194 233 301 362
#     4  10  17  33  62  86 110 139 189 248 290 331
#     4  10  19  36  62  85 112 147 198 249 285 343
#     4  10  18  36  59  85 115 149 195 246 288 350
#
# _framework density 19.173492
#
# number of rings (size 3 to 8) (size 9 to 14) (size 15 to 20)
#    0.000    1.333   10.000    0.500    0.000    2.667 
#    0.000    5.000    0.000    0.000    0.000    0.000 
#    0.000    0.000    0.000    0.000    0.000    0.000 
#
# Total GULP energy -133622.199460 kJ/mol
# GULP energy per Si atom -5567.591644 kJ/mol
# Density = 1.912985 g / cm^3
# Si number density = 19.173492 Si / 1000 Ang^3
#
#
#
# Elastic Constant Matrix: (Units=GPa)
#
#
# Indices 1 2 3 4 5 6 
#
# 1 48.1139 41.6295 24.7404 0.0000 0.0000 0.0000
# 2 41.6295 82.1482 39.2089 0.0000 0.0000 0.0000
# 3 24.7404 39.2089 124.0683 0.0000 0.0000 0.0000
# 4 0.0000 0.0000 0.0000 45.5184 0.0000 0.0000
# 5 0.0000 0.0000 0.0000 0.0000 28.1907 0.0000
# 6 0.0000 0.0000 0.0000 0.0000 0.0000 24.1014
#
#
#
# Elastic Compliance Matrix: (Units=1/GPa)
#
#
# Indices 1 2 3 4 5 6 
#
# 1 0.037324 -0.018091 -0.001726 0.000000 0.000000 0.000000
# 2 -0.018091 0.023104 -0.003694 0.000000 0.000000 0.000000
# 3 -0.001726 -0.003694 0.009572 0.000000 0.000000 0.000000
# 4 0.000000 0.000000 0.000000 0.021969 0.000000 0.000000
# 5 0.000000 0.000000 0.000000 0.000000 0.035473 0.000000
# 6 0.000000 0.000000 0.000000 0.000000 0.000000 0.041491
#
#
# Mechanical properties :
#
#
# Convention : Reuss Voigt Hill
#
# Bulk Modulus (GPa) = 43.51836 51.72091 47.61963
# Shear Modulus (GPa) = 22.36008 29.47887 25.91947
#
# Velocity S-wave (km/s) = 3.41867 3.92533 3.68072
# Velocity P-wave (km/s) = 6.19108 6.89768 6.55391
#
# Compressibility (1/GPa) = 0.02297881
#
# Stress axis : x y z
#
# Youngs Moduli (GPa) = 26.79246 43.28266 104.47588
#
# Poissons Ratio (x) = 0.78301 0.18028
# Poissons Ratio (y) = 0.48469 0.38593
# Poissons Ratio (z) = 0.04623 0.15989
#
# Static dielectric constant tensor:
#      x y z
#    x 1.501320 0.000000 0.000000 
#    y 0.000000 1.725550 0.000000 
#    z 0.000000 0.000000 1.713360 
# 
# From -- ./inp_files/6621.got.cif
#   From: 2010.05.17/outbox.cif.g08.bks.cpg/sg46_4_cif.got.tgz:6621.got - 2010.06.03 19:58:25.
