data_PCOD9377813
_publ_section_title
;
Structure prediction by ZEFSAII (Michael W. Deem and Ramdas Pophale) SiO2 
 PCOD9377813
Probable space group: I M A 2
;
_chemical_formula_sum "Si O2"
_cell_formula_units_Z 32
_cell_length_a 10.668966
_cell_length_b 9.903905
_cell_length_c 14.632955
_cell_angle_alpha 90.000000
_cell_angle_beta 90.000000
_cell_angle_gamma 90.000000
_cell_volume 1546.182787
_symmetry_space_group_name_H-M "I M A 2"
_symmetry_group_IT_number 46
_symmetry_cell_setting 'orthorhombic'
loop_
_space_group_symop_operation_xyz
x,y,z
-x,-y,z
1/2-x,y,z
1/2+x,-y,z
1/2+x,1/2+y,1/2+z
1/2-x,1/2-y,1/2+z
-x,1/2+y,1/2+z
x,1/2-y,1/2+z
loop_
_atom_site_type_symbol
_atom_site_label
_atom_site_fract_x
_atom_site_fract_y
_atom_site_fract_z
Si Si1 0.250000 0.902217 0.066800
Si Si2 0.000000 0.500000 0.907369
Si Si3 0.750000 0.698713 0.630895
Si Si4 0.250000 0.356807 0.835855
Si Si5 0.750000 0.560701 0.370751
Si Si6 0.994201 0.260409 0.524275
Si Si7 0.000000 0.500000 0.376436
O O1 0.375196 0.815930 0.080133
O O2 0.250000 0.035479 0.126548
O O3 0.250000 0.968548 0.963868
O O4 0.877007 0.556512 0.853130
O O5 0.038519 0.622861 0.973056
O O6 0.750000 0.718759 0.738668
O O7 0.878281 0.747390 0.582747
O O8 0.250000 0.219440 0.896790
O O9 0.874442 0.513448 0.319898
O O10 0.007768 0.372466 0.444199
#
# Coordination Sequence:
#
# PCOD9377813 Si02
#       7
#     4   4   4   4   4   8   4
#     4  10  19  35  69  91 106 162 226 258 287 405
#     4  12  24  43  65  96 134 172 218 274 338 395
#     4  12  22  39  63  90 132 164 213 266 332 377
#     4  12  27  38  59 100 141 168 203 288 342 384
#     4  10  18  38  59  93 115 160 214 264 303 380
#     4  11  20  38  67  91 116 167 219 257 313 402
#     4  10  16  35  67  86 108 160 226 260 288 381
#
# _framework density 20.696131000000001
#
# number of rings (size 3 to 8) (size 9 to 14) (size 15 to 20)
#    0.000    1.000    7.500    1.500    3.500    0.000 
#    0.000    1.250    0.000    3.000    0.000    0.000 
#    0.000    0.000    0.000    0.000    0.000    0.000 
#
# Total GULP energy -89153.214065 kJ/mol
# GULP energy per Si atom -5572.075879 kJ/mol
# Density = 2.064903 g / cm^3
# Si number density = 20.696131 Si / 1000 Ang^3
#
#
#
# Elastic Constant Matrix: (Units=GPa)
#
#
# Indices 1 2 3 4 5 6 
#
# 1 207.5257 25.2129 23.4984 0.0000 0.0000 0.0000
# 2 25.2129 84.4548 6.2250 0.0000 0.0000 0.0000
# 3 23.4984 6.2250 39.2054 0.0000 0.0000 0.0000
# 4 0.0000 0.0000 0.0000 9.1016 0.0000 0.0000
# 5 0.0000 0.0000 0.0000 0.0000 21.0805 0.0000
# 6 0.0000 0.0000 0.0000 0.0000 0.0000 31.5605
#
#
#
# Elastic Compliance Matrix: (Units=1/GPa)
#
#
# Indices 1 2 3 4 5 6 
#
# 1 0.005322 -0.001370 -0.002972 0.000000 0.000000 0.000000
# 2 -0.001370 0.012333 -0.001137 0.000000 0.000000 0.000000
# 3 -0.002972 -0.001137 0.027469 0.000000 0.000000 0.000000
# 4 0.000000 0.000000 0.000000 0.109871 0.000000 0.000000
# 5 0.000000 0.000000 0.000000 0.000000 0.047437 0.000000
# 6 0.000000 0.000000 0.000000 0.000000 0.000000 0.031685
#
#
# Mechanical properties :
#
#
# Convention : Reuss Voigt Hill
#
# Bulk Modulus (GPa) = 29.26938 49.00650 39.13794
# Shear Modulus (GPa) = 19.49593 30.76515 25.13054
#
# Velocity S-wave (km/s) = 3.07255 3.85972 3.48841
# Velocity P-wave (km/s) = 5.17306 6.60255 5.93103
#
# Compressibility (1/GPa) = 0.03416540
#
# Stress axis : x y z
#
# Youngs Moduli (GPa) = 187.91271 81.08078 36.40508
#
# Poissons Ratio (x) = 0.11105 0.10820
# Poissons Ratio (y) = 0.25737 0.04141
# Poissons Ratio (z) = 0.55850 0.09222
#
# Static dielectric constant tensor:
#      x y z
#    x 1.879530 0.000000 0.000000 
#    y 0.000000 1.846430 0.000000 
#    z 0.000000 0.000000 1.758580 
# 
# From -- ./inp_files/14907.got.cif
#   From: 2010.05.17/outbox.cif.g08.bks.cpg/sg46_8_cif.got.tgz:14907.got - 2010.06.03 19:58:25.
