data_PCOD9377260
_publ_section_title
;
Structure prediction by ZEFSAII (Michael W. Deem and Ramdas Pophale) SiO2 
 PCOD9377260
Probable space group: I B A 2
;
_chemical_formula_sum "Si O2"
_cell_formula_units_Z 32
_cell_length_a 10.377581
_cell_length_b 10.491811
_cell_length_c 12.732493
_cell_angle_alpha 90.000000
_cell_angle_beta 90.000000
_cell_angle_gamma 90.000000
_cell_volume 1386.308980
_symmetry_space_group_name_H-M "I B A 2"
_symmetry_group_IT_number 45
_symmetry_cell_setting 'orthorhombic'
loop_
_space_group_symop_operation_xyz
x,y,z
-x,-y,z
-x,y,1/2+z
x,-y,1/2+z
1/2+x,1/2+y,1/2+z
1/2-x,1/2-y,1/2+z
1/2-x,1/2+y,z
1/2+x,1/2-y,z
loop_
_atom_site_type_symbol
_atom_site_label
_atom_site_fract_x
_atom_site_fract_y
_atom_site_fract_z
Si Si1 0.824279 0.308119 0.616600
Si Si2 0.351199 0.468856 0.641786
Si Si3 0.522918 0.147791 0.937324
Si Si4 0.302145 0.304175 0.834883
O O1 0.724050 0.416154 0.589651
O O2 0.806405 0.161125 0.585269
O O3 0.957438 0.347328 0.563427
O O4 0.813127 0.300373 0.741592
O O5 0.500000 0.500000 0.630386
O O6 0.328086 0.432317 0.765331
O O7 0.416340 0.252592 0.907986
O O8 0.661332 0.186637 0.886114
O O9 0.500000 0.000000 0.907004
#
# Coordination Sequence:
#
# PCOD9377260 Si02
#       4
#     8   8   8   8
#     4  10  26  45  75 108 155 194 250 311 381 442
#     4  10  23  47  74 103 153 198 247 313 380 444
#     4  12  27  45  79 113 150 198 259 312 381 452
#     4  10  26  47  74 108 152 199 245 318 368 461
#
# _framework density 23.082878000000001
#
# number of rings (size 3 to 8) (size 9 to 14) (size 15 to 20)
#    1.500    0.000    0.000    3.000    7.000    3.000 
#    0.000    0.000    0.000    0.000    0.000    0.000 
#    0.000    0.000    0.000    0.000    0.000    0.000 
#
# Total GULP energy -89109.651942 kJ/mol
# GULP energy per Si atom -5569.353246 kJ/mol
# Density = 2.303034 g / cm^3
# Si number density = 23.082878 Si / 1000 Ang^3
#
#
#
# Elastic Constant Matrix: (Units=GPa)
#
#
# Indices 1 2 3 4 5 6 
#
# 1 139.5434 89.7106 35.2273 0.0000 0.0000 0.0000
# 2 89.7106 160.7170 47.1168 0.0000 0.0000 0.0000
# 3 35.2273 47.1168 54.6157 0.0000 0.0000 0.0000
# 4 0.0000 0.0000 0.0000 23.7834 0.0000 0.0000
# 5 0.0000 0.0000 0.0000 0.0000 10.4064 0.0000
# 6 0.0000 0.0000 0.0000 0.0000 0.0000 5.0958
#
#
#
# Elastic Compliance Matrix: (Units=1/GPa)
#
#
# Indices 1 2 3 4 5 6 
#
# 1 0.011427 -0.005645 -0.002500 0.000000 0.000000 0.000000
# 2 -0.005645 0.011118 -0.005950 0.000000 0.000000 0.000000
# 3 -0.002500 -0.005950 0.025055 0.000000 0.000000 0.000000
# 4 0.000000 0.000000 0.000000 0.042046 0.000000 0.000000
# 5 0.000000 0.000000 0.000000 0.000000 0.096095 0.000000
# 6 0.000000 0.000000 0.000000 0.000000 0.000000 0.196241
#
#
# Mechanical properties :
#
#
# Convention : Reuss Voigt Hill
#
# Bulk Modulus (GPa) = 51.52243 77.66505 64.59374
# Shear Modulus (GPa) = 12.00072 20.04520 16.02296
#
# Velocity S-wave (km/s) = 2.28260 2.95006 2.63753
# Velocity P-wave (km/s) = 5.41443 6.73224 6.10897
#
# Compressibility (1/GPa) = 0.01940902
#
# Stress axis : x y z
#
# Youngs Moduli (GPa) = 87.51468 89.94781 39.91190
#
# Poissons Ratio (x) = 0.50778 0.09978
# Poissons Ratio (y) = 0.49405 0.23747
# Poissons Ratio (z) = 0.21879 0.53517
#
# Static dielectric constant tensor:
#      x y z
#    x 1.822270 0.000000 0.000000 
#    y 0.000000 1.840240 0.000000 
#    z 0.000000 0.000000 1.982230 
# 
# From -- ./inp_files/3486.got.cif
#   From: 2010.05.17/outbox.cif.g08.bks.cpg/sg45_2_cif.got.tgz:3486.got - 2010.06.03 19:51:22.
