data_PCOD9377652
_publ_section_title
;
Structure prediction by ZEFSAII (Michael W. Deem and Ramdas Pophale) SiO2 
 PCOD9377652
Probable space group: I B A 2
;
_chemical_formula_sum "Si O2"
_cell_formula_units_Z 48
_cell_length_a 8.402359
_cell_length_b 14.930387
_cell_length_c 16.360657
_cell_angle_alpha 90.000000
_cell_angle_beta 90.000000
_cell_angle_gamma 90.000000
_cell_volume 2052.452136
_symmetry_space_group_name_H-M "I B A 2"
_symmetry_group_IT_number 45
_symmetry_cell_setting 'orthorhombic'
loop_
_space_group_symop_operation_xyz
x,y,z
-x,-y,z
-x,y,1/2+z
x,-y,1/2+z
1/2+x,1/2+y,1/2+z
1/2-x,1/2-y,1/2+z
1/2-x,1/2+y,z
1/2+x,1/2-y,z
loop_
_atom_site_type_symbol
_atom_site_label
_atom_site_fract_x
_atom_site_fract_y
_atom_site_fract_z
Si Si1 0.380252 0.133916 0.726980
Si Si2 0.804776 0.286166 0.160446
Si Si3 0.806047 0.713170 0.984447
Si Si4 0.879476 0.638921 0.411346
Si Si5 0.674021 0.473382 0.171914
Si Si6 0.175594 0.017749 0.478529
O O1 0.229292 0.199633 0.715054
O O2 0.517420 0.174589 0.668772
O O3 0.440943 0.136176 0.819239
O O4 0.314363 0.036028 0.705574
O O5 0.700393 0.369810 0.189362
O O6 0.743716 0.256907 0.070857
O O7 0.763619 0.789782 0.919683
O O8 0.705183 0.623010 0.973968
O O9 0.984240 0.677483 0.970759
O O10 0.809754 0.542566 0.436054
O O11 0.500000 0.500000 0.202345
O O12 0.677442 0.488343 0.073787
O O13 0.000000 0.000000 0.444655
#
# Coordination Sequence:
#
# PCOD9377652 Si02
#       6
#     8   8   8   8   8   8
#     4  12  27  46  73 110 150 190 246 313 378 437
#     4  12  25  44  75 104 143 195 247 302 363 451
#     4  12  25  44  75 104 143 195 247 302 363 451
#     4  12  27  46  73 110 150 190 246 313 378 437
#     4  11  25  45  73 106 142 194 247 302 367 449
#     4  11  25  45  73 106 142 194 247 302 367 449
#
# _framework density 23.386661
#
# number of rings (size 3 to 8) (size 9 to 14) (size 15 to 20)
#    0.000    0.333    3.333    5.000    4.667    6.000 
#    0.000    0.000    0.000    0.000    0.000    0.000 
#    0.000    0.000    0.000    0.000    0.000    0.000 
#
# Total GULP energy -134356.292891 kJ/mol
# GULP energy per Si atom -5598.178870 kJ/mol
# Density = 2.333343 g / cm^3
# Si number density = 23.386661 Si / 1000 Ang^3
#
#
#
# Elastic Constant Matrix: (Units=GPa)
#
#
# Indices 1 2 3 4 5 6 
#
# 1 128.0999 25.2392 27.6611 0.0000 0.0000 0.0000
# 2 25.2392 124.3385 -3.9304 0.0000 0.0000 0.0000
# 3 27.6611 -3.9304 93.2393 0.0000 0.0000 0.0000
# 4 0.0000 0.0000 0.0000 15.1992 0.0000 0.0000
# 5 0.0000 0.0000 0.0000 0.0000 23.8855 0.0000
# 6 0.0000 0.0000 0.0000 0.0000 0.0000 47.9953
#
#
#
# Elastic Compliance Matrix: (Units=1/GPa)
#
#
# Indices 1 2 3 4 5 6 
#
# 1 0.008751 -0.001861 -0.002674 0.000000 0.000000 0.000000
# 2 -0.001861 0.008449 0.000908 0.000000 0.000000 0.000000
# 3 -0.002674 0.000908 0.011557 0.000000 0.000000 0.000000
# 4 0.000000 0.000000 0.000000 0.065793 0.000000 0.000000
# 5 0.000000 0.000000 0.000000 0.000000 0.041866 0.000000
# 6 0.000000 0.000000 0.000000 0.000000 0.000000 0.020835
#
#
# Mechanical properties :
#
#
# Convention : Reuss Voigt Hill
#
# Bulk Modulus (GPa) = 46.50676 49.29081 47.89879
# Shear Modulus (GPa) = 29.12525 37.19653 33.16089
#
# Velocity S-wave (km/s) = 3.53282 3.99244 3.76964
# Velocity P-wave (km/s) = 6.04734 6.50960 6.28272
#
# Compressibility (1/GPa) = 0.02150225
#
# Stress axis : x y z
#
# Youngs Moduli (GPa) = 114.27867 118.35739 86.52914
#
# Poissons Ratio (x) = 0.22024 0.23142
# Poissons Ratio (y) = 0.21265 -0.07859
# Poissons Ratio (z) = 0.30563 -0.10749
#
# Static dielectric constant tensor:
#      x y z
#    x 1.945450 0.000000 0.000000 
#    y 0.000000 1.829980 0.000000 
#    z 0.000000 0.000000 1.883120 
# 
# From -- ./inp_files/7545.got.cif
#   From: 2010.05.17/outbox.cif.g08.bks.cpg/sg45_4_cif.got.tgz:7545.got - 2010.06.03 19:51:22.
