data_PCOD9377649
_publ_section_title
;
Structure prediction by ZEFSAII (Michael W. Deem and Ramdas Pophale) SiO2 
 PCOD9377649
Probable space group: I B A 2
;
_chemical_formula_sum "Si O2"
_cell_formula_units_Z 48
_cell_length_a 8.242404
_cell_length_b 28.812782
_cell_length_c 8.075902
_cell_angle_alpha 90.000000
_cell_angle_beta 90.000000
_cell_angle_gamma 90.000000
_cell_volume 1917.918424
_symmetry_space_group_name_H-M "I B A 2"
_symmetry_group_IT_number 45
_symmetry_cell_setting 'orthorhombic'
loop_
_space_group_symop_operation_xyz
x,y,z
-x,-y,z
-x,y,1/2+z
x,-y,1/2+z
1/2+x,1/2+y,1/2+z
1/2-x,1/2-y,1/2+z
1/2-x,1/2+y,z
1/2+x,1/2-y,z
loop_
_atom_site_type_symbol
_atom_site_label
_atom_site_fract_x
_atom_site_fract_y
_atom_site_fract_z
Si Si1 0.748124 0.871774 0.485950
Si Si2 0.913539 0.611767 0.341703
Si Si3 0.756781 0.801096 0.993338
Si Si4 0.088078 0.216499 0.636529
Si Si5 0.371267 0.458099 0.853137
Si Si6 0.154664 0.523381 0.057877
O O1 0.662756 0.887731 0.658670
O O2 0.603008 0.874100 0.352167
O O3 0.815211 0.821280 0.527225
O O4 0.892735 0.906700 0.427825
O O5 0.816705 0.649261 0.450636
O O6 0.893498 0.562047 0.426181
O O7 0.838802 0.784398 0.820643
O O8 0.616955 0.766597 0.055587
O O9 0.901012 0.798490 0.126782
O O10 0.500000 0.500000 0.843701
O O11 0.288445 0.454480 0.675881
O O12 0.237636 0.480006 0.971687
O O13 0.000000 0.500000 0.144640
#
# Coordination Sequence:
#
# PCOD9377649 Si02
#       6
#     8   8   8   8   8   8
#     4  11  25  46  70 105 140 186 237 291 357 421
#     4  11  25  45  73 103 139 186 238 292 351 428
#     4  11  25  45  73 106 144 186 235 290 355 428
#     4  11  25  45  72 106 145 184 235 289 356 428
#     4  12  27  45  69 101 143 185 238 297 361 423
#     4  12  25  45  71 101 137 188 241 291 358 427
#
# _framework density 25.027135999999999
#
# number of rings (size 3 to 8) (size 9 to 14) (size 15 to 20)
#    0.000    0.667    1.667    5.000    2.333    8.000 
#    0.000    0.833    0.000    0.000    0.000    0.000 
#    0.000    0.000    0.000    0.000    0.000    0.000 
#
# Total GULP energy -134492.235115 kJ/mol
# GULP energy per Si atom -5603.843130 kJ/mol
# Density = 2.497017 g / cm^3
# Si number density = 25.027136 Si / 1000 Ang^3
#
#
#
# Elastic Constant Matrix: (Units=GPa)
#
#
# Indices 1 2 3 4 5 6 
#
# 1 82.9925 2.2899 4.1504 -0.0003 0.0001 0.0000
# 2 2.2899 75.9614 15.9838 -0.0006 0.0003 0.0000
# 3 4.1504 15.9838 80.6596 -0.0022 0.0011 -0.0001
# 4 -0.0003 -0.0006 -0.0022 25.9793 0.0002 0.0000
# 5 0.0001 0.0003 0.0011 0.0002 28.9996 0.0000
# 6 0.0000 0.0000 -0.0001 0.0000 0.0000 47.8738
#
#
#
# Elastic Compliance Matrix: (Units=1/GPa)
#
#
# Indices 1 2 3 4 5 6 
#
# 1 0.012085 -0.000244 -0.000574 0.000000 0.000000 0.000000
# 2 -0.000244 0.013742 -0.002711 0.000000 0.000000 0.000000
# 3 -0.000574 -0.002711 0.012964 0.000001 0.000000 0.000000
# 4 0.000000 0.000000 0.000001 0.038492 0.000000 0.000000
# 5 0.000000 0.000000 0.000000 0.000000 0.034483 0.000000
# 6 0.000000 0.000000 0.000000 0.000000 0.000000 0.020888
#
#
# Mechanical properties :
#
#
# Convention : Reuss Voigt Hill
#
# Bulk Modulus (GPa) = 31.51021 31.60685 31.55853
# Shear Modulus (GPa) = 33.26914 35.04983 34.15949
#
# Velocity S-wave (km/s) = 3.64994 3.74635 3.69846
# Velocity P-wave (km/s) = 5.51185 5.60089 5.55655
#
# Compressibility (1/GPa) = 0.03173574
#
# Stress axis : x y z
#
# Youngs Moduli (GPa) = 82.74932 72.76796 77.13404
#
# Poissons Ratio (x) = 0.01773 0.04424
# Poissons Ratio (y) = 0.02016 0.20909
# Poissons Ratio (z) = 0.04746 0.19725
#
# Static dielectric constant tensor:
#      x y z
#    x 2.225020 0.000000 0.000000 
#    y 0.000000 1.918000 0.000000 
#    z 0.000000 0.000000 1.973830 
# 
# From -- ./inp_files/1063.got.cif
#   From: 2010.05.17/outbox.cif.g08.bks.cpg/sg45_1_cif.got.tgz:1063.got - 2010.06.03 19:51:22.
