data_PCOD9377618
_publ_section_title
;
Structure prediction by ZEFSAII (Michael W. Deem and Ramdas Pophale) SiO2 
 PCOD9377618
Probable space group: I B A 2
;
_chemical_formula_sum "Si O2"
_cell_formula_units_Z 40
_cell_length_a 15.164386
_cell_length_b 11.057066
_cell_length_c 8.837807
_cell_angle_alpha 90.000000
_cell_angle_beta 90.000000
_cell_angle_gamma 90.000000
_cell_volume 1481.867065
_symmetry_space_group_name_H-M "I B A 2"
_symmetry_group_IT_number 45
_symmetry_cell_setting 'orthorhombic'
loop_
_space_group_symop_operation_xyz
x,y,z
-x,-y,z
-x,y,1/2+z
x,-y,1/2+z
1/2+x,1/2+y,1/2+z
1/2-x,1/2-y,1/2+z
1/2-x,1/2+y,z
1/2+x,1/2-y,z
loop_
_atom_site_type_symbol
_atom_site_label
_atom_site_fract_x
_atom_site_fract_y
_atom_site_fract_z
Si Si1 0.943599 0.622193 0.689510
Si Si2 0.082888 0.945546 0.169533
Si Si3 0.188965 0.891516 0.462568
Si Si4 0.577085 0.739786 0.898071
Si Si5 0.231610 0.360085 0.887372
O O1 0.925018 0.645541 0.512368
O O2 0.848113 0.622962 0.770040
O O3 0.000000 0.500000 0.704991
O O4 0.004590 0.725004 0.773143
O O5 0.150941 0.893296 0.290761
O O6 0.060777 0.859887 0.028833
O O7 0.000000 0.000000 0.256479
O O8 0.121879 0.060668 0.084615
O O9 0.207573 0.751767 0.496580
O O10 0.254807 0.007338 0.458798
O O11 0.672680 0.695584 0.838425
#
# Coordination Sequence:
#
# PCOD9377618 Si02
#       5
#     8   8   8   8   8
#     4  12  26  50  81 122 168 216 285 354 426 504
#     4  11  24  43  70 104 144 200 267 333 405 486
#     4  11  25  43  74 103 152 203 261 328 407 485
#     4  11  27  47  77 112 162 215 274 342 423 505
#     4  11  26  49  72 117 161 216 266 337 417 502
#
# _framework density 26.992974
#
# number of rings (size 3 to 8) (size 9 to 14) (size 15 to 20)
#    0.000    0.800    2.000    3.600    8.400    1.600 
#    3.600    0.000    0.000    0.000    0.000    0.000 
#    0.000    0.000    0.000    0.000    0.000    0.000 
#
# Total GULP energy -111764.141165 kJ/mol
# GULP energy per Si atom -5588.207058 kJ/mol
# Density = 2.693154 g / cm^3
# Si number density = 26.992974 Si / 1000 Ang^3
#
#
#
# Elastic Constant Matrix: (Units=GPa)
#
#
# Indices 1 2 3 4 5 6 
#
# 1 161.7649 43.8570 63.0104 0.0000 0.0000 0.0000
# 2 43.8570 181.5487 39.0434 0.0000 0.0000 0.0000
# 3 63.0104 39.0434 119.9681 0.0000 0.0000 0.0000
# 4 0.0000 0.0000 0.0000 41.0582 0.0000 0.0000
# 5 0.0000 0.0000 0.0000 0.0000 5.2389 0.0000
# 6 0.0000 0.0000 0.0000 0.0000 0.0000 53.5794
#
#
#
# Elastic Compliance Matrix: (Units=1/GPa)
#
#
# Indices 1 2 3 4 5 6 
#
# 1 0.007972 -0.001102 -0.003828 0.000000 0.000000 0.000000
# 2 -0.001102 0.006075 -0.001398 0.000000 0.000000 0.000000
# 3 -0.003828 -0.001398 0.010801 0.000000 0.000000 0.000000
# 4 0.000000 0.000000 0.000000 0.024356 0.000000 0.000000
# 5 0.000000 0.000000 0.000000 0.000000 0.190879 0.000000
# 6 0.000000 0.000000 0.000000 0.000000 0.000000 0.018664
#
#
# Mechanical properties :
#
#
# Convention : Reuss Voigt Hill
#
# Bulk Modulus (GPa) = 82.03009 83.90038 82.96524
# Shear Modulus (GPa) = 18.15095 41.13336 29.64215
#
# Velocity S-wave (km/s) = 2.59594 3.90789 3.31742
# Velocity P-wave (km/s) = 6.28018 7.17718 6.74361
#
# Compressibility (1/GPa) = 0.01219065
#
# Stress axis : x y z
#
# Youngs Moduli (GPa) = 125.44083 164.60462 92.58186
#
# Poissons Ratio (x) = 0.18147 0.35443
# Poissons Ratio (y) = 0.13830 0.12944
# Poissons Ratio (z) = 0.48022 0.23013
#
# Static dielectric constant tensor:
#      x y z
#    x 2.370800 0.000000 0.000000 
#    y 0.000000 2.237380 0.000000 
#    z 0.000000 0.000000 1.990920 
# 
# From -- ./inp_files/2028.got.cif
#   From: 2010.05.17/outbox.cif.g08.bks.cpg/sg45_2_cif.got.tgz:2028.got - 2010.06.03 19:51:22.
