data_PCOD9377047
_publ_section_title
;
Structure prediction by ZEFSAII (Michael W. Deem and Ramdas Pophale) SiO2 
 PCOD9377047
Probable space group: I B A 2
;
_chemical_formula_sum "Si O2"
_cell_formula_units_Z 40
_cell_length_a 7.243352
_cell_length_b 24.436430
_cell_length_c 8.855168
_cell_angle_alpha 90.000000
_cell_angle_beta 90.000000
_cell_angle_gamma 90.000000
_cell_volume 1567.379472
_symmetry_space_group_name_H-M "I B A 2"
_symmetry_group_IT_number 45
_symmetry_cell_setting 'orthorhombic'
loop_
_space_group_symop_operation_xyz
x,y,z
-x,-y,z
-x,y,1/2+z
x,-y,1/2+z
1/2+x,1/2+y,1/2+z
1/2-x,1/2-y,1/2+z
1/2-x,1/2+y,z
1/2+x,1/2-y,z
loop_
_atom_site_type_symbol
_atom_site_label
_atom_site_fract_x
_atom_site_fract_y
_atom_site_fract_z
Si Si1 0.616302 0.186000 0.872870
Si Si2 0.834798 0.438063 0.327293
Si Si3 0.898799 0.214988 0.135025
Si Si4 0.300743 0.342305 0.436360
Si Si5 0.270904 0.039804 0.983733
O O1 0.698962 0.126984 0.826269
O O2 0.588250 0.229608 0.737006
O O3 0.416998 0.172414 0.945690
O O4 0.752376 0.210604 0.998549
O O5 0.715112 0.479473 0.429746
O O6 0.818557 0.460296 0.159133
O O7 0.042505 0.445428 0.390520
O O8 0.847165 0.172029 0.264465
O O9 0.582189 0.306890 0.053960
O O10 0.347370 0.405863 0.460097
#
# Coordination Sequence:
#
# PCOD9377047 Si02
#       5
#     8   8   8   8   8
#     4  11  31  51  84 117 167 220 276 340 424 503
#     4  10  22  41  77 115 154 209 271 328 414 489
#     4  12  32  50  79 119 168 214 278 345 412 519
#     4  11  31  50  81 117 162 215 275 342 423 493
#     4  10  22  42  76 115 155 204 271 341 401 501
#
# _framework density 25.520301
#
# number of rings (size 3 to 8) (size 9 to 14) (size 15 to 20)
#    0.000    1.200    0.000    2.400   25.200    1.600 
#    0.000    1.000    0.000    0.000    0.000    0.000 
#    0.000    0.000    0.000    0.000    0.000    0.000 
#
# Total GULP energy -112011.654382 kJ/mol
# GULP energy per Si atom -5600.582719 kJ/mol
# Density = 2.546222 g / cm^3
# Si number density = 25.520301 Si / 1000 Ang^3
#
#
#
# Elastic Constant Matrix: (Units=GPa)
#
#
# Indices 1 2 3 4 5 6 
#
# 1 105.6234 65.8785 24.8237 0.0001 0.0000 0.0000
# 2 65.8785 256.4249 100.7170 0.0003 0.0000 0.0000
# 3 24.8237 100.7170 179.0629 0.0025 0.0001 0.0000
# 4 0.0001 0.0003 0.0025 99.9813 -0.0001 -0.0002
# 5 0.0000 0.0000 0.0001 -0.0001 36.2087 0.0000
# 6 0.0000 0.0000 0.0000 -0.0002 0.0000 29.9501
#
#
#
# Elastic Compliance Matrix: (Units=1/GPa)
#
#
# Indices 1 2 3 4 5 6 
#
# 1 0.011275 -0.002930 0.000085 0.000000 0.000000 0.000000
# 2 -0.002930 0.005767 -0.002838 0.000000 0.000000 0.000000
# 3 0.000085 -0.002838 0.007169 0.000000 0.000000 0.000000
# 4 0.000000 0.000000 0.000000 0.010002 0.000000 0.000000
# 5 0.000000 0.000000 0.000000 0.000000 0.027618 0.000000
# 6 0.000000 0.000000 0.000000 0.000000 0.000000 0.033389
#
#
# Mechanical properties :
#
#
# Convention : Reuss Voigt Hill
#
# Bulk Modulus (GPa) = 77.84676 102.66105 90.25391
# Shear Modulus (GPa) = 45.09915 56.54083 50.81999
#
# Velocity S-wave (km/s) = 4.20835 4.71204 4.46730
# Velocity P-wave (km/s) = 7.36096 8.36176 7.87727
#
# Compressibility (1/GPa) = 0.01284575
#
# Stress axis : x y z
#
# Youngs Moduli (GPa) = 88.69060 173.39788 139.49142
#
# Poissons Ratio (x) = 0.50807 -0.01186
# Poissons Ratio (y) = 0.25987 0.39582
# Poissons Ratio (z) = -0.00754 0.49203
#
# Static dielectric constant tensor:
#      x y z
#    x 2.145450 0.000000 0.000000 
#    y 0.000000 2.097530 0.000000 
#    z 0.000000 0.000000 1.923540 
# 
# From -- ./inp_files/969.got.cif
#   From: 2010.05.17/outbox.cif.g08.bks.cpg/sg45_1_cif.got.tgz:969.got - 2010.06.03 19:51:22.
