data_PCOD9377568
_publ_section_title
;
Structure prediction by ZEFSAII (Michael W. Deem and Ramdas Pophale) SiO2 
 PCOD9377568
Probable space group: I B A 2
;
_chemical_formula_sum "Si O2"
_cell_formula_units_Z 48
_cell_length_a 10.604838
_cell_length_b 17.542452
_cell_length_c 10.827703
_cell_angle_alpha 90.000000
_cell_angle_beta 90.000000
_cell_angle_gamma 90.000000
_cell_volume 2014.330229
_symmetry_space_group_name_H-M "I B A 2"
_symmetry_group_IT_number 45
_symmetry_cell_setting 'orthorhombic'
loop_
_space_group_symop_operation_xyz
x,y,z
-x,-y,z
-x,y,1/2+z
x,-y,1/2+z
1/2+x,1/2+y,1/2+z
1/2-x,1/2-y,1/2+z
1/2-x,1/2+y,z
1/2+x,1/2-y,z
loop_
_atom_site_type_symbol
_atom_site_label
_atom_site_fract_x
_atom_site_fract_y
_atom_site_fract_z
Si Si1 0.494854 0.839335 0.010430
Si Si2 0.671438 0.754204 0.168109
Si Si3 0.620730 0.951813 0.823118
Si Si4 0.365390 0.525131 0.935164
Si Si5 0.353324 0.707639 0.940029
Si Si6 0.261935 0.398673 0.091787
O O1 0.561442 0.815551 0.139732
O O2 0.352439 0.872212 0.002071
O O3 0.581309 0.899591 0.938980
O O4 0.481549 0.757090 0.945134
O O5 0.705940 0.740964 0.311764
O O6 0.639944 0.668360 0.120885
O O7 0.780567 0.776970 0.069741
O O8 0.744308 0.999654 0.856465
O O9 0.673430 0.904712 0.710830
O O10 0.500000 0.000000 0.786314
O O11 0.500000 0.500000 0.886547
O O12 0.366753 0.616650 0.936134
O O13 0.333964 0.476123 0.058096
#
# Coordination Sequence:
#
# PCOD9377568 Si02
#       6
#     8   8   8   8   8   8
#     4  11  23  43  74 110 143 197 256 322 378 456
#     4  11  22  46  72 108 154 194 256 317 387 456
#     4  12  25  46  76 110 149 194 262 320 384 455
#     4  12  26  49  71 110 158 201 250 312 395 470
#     4  11  25  45  74 109 149 204 252 317 383 458
#     4  11  25  43  72 109 147 199 253 317 385 462
#
# _framework density 23.829259
#
# number of rings (size 3 to 8) (size 9 to 14) (size 15 to 20)
#    0.000    0.667    5.000    2.000    2.333    3.333 
#    3.000    0.000    0.000    0.000    0.000    1.167 
#    0.000    0.000    0.000    0.000    0.000    0.000 
#
# Total GULP energy -133679.239530 kJ/mol
# GULP energy per Si atom -5569.968314 kJ/mol
# Density = 2.377502 g / cm^3
# Si number density = 23.829259 Si / 1000 Ang^3
#
#
#
# Elastic Constant Matrix: (Units=GPa)
#
#
# Indices 1 2 3 4 5 6 
#
# 1 97.4167 27.1106 10.7935 0.0000 0.0000 0.0000
# 2 27.1106 76.9886 34.0666 0.0005 -0.0002 0.0001
# 3 10.7935 34.0666 81.0404 0.0008 -0.0002 0.0002
# 4 0.0000 0.0005 0.0008 32.4004 -0.0002 0.0002
# 5 0.0000 -0.0002 -0.0002 -0.0002 23.0748 0.0000
# 6 0.0000 0.0001 0.0002 0.0002 0.0000 33.3052
#
#
#
# Elastic Compliance Matrix: (Units=1/GPa)
#
#
# Indices 1 2 3 4 5 6 
#
# 1 0.011383 -0.004100 0.000208 0.000000 0.000000 0.000000
# 2 -0.004100 0.017434 -0.006783 0.000000 0.000000 0.000000
# 3 0.000208 -0.006783 0.015163 0.000000 0.000000 0.000000
# 4 0.000000 0.000000 0.000000 0.030864 0.000000 0.000000
# 5 0.000000 0.000000 0.000000 0.000000 0.043337 0.000000
# 6 0.000000 0.000000 0.000000 0.000000 0.000000 0.030025
#
#
# Mechanical properties :
#
#
# Convention : Reuss Voigt Hill
#
# Bulk Modulus (GPa) = 44.18979 44.37634 44.28306
# Shear Modulus (GPa) = 28.23254 29.98776 29.11015
#
# Velocity S-wave (km/s) = 3.44580 3.55130 3.49895
# Velocity P-wave (km/s) = 5.86652 5.95640 5.91163
#
# Compressibility (1/GPa) = 0.02262966
#
# Stress axis : x y z
#
# Youngs Moduli (GPa) = 87.84808 57.35911 65.94992
#
# Poissons Ratio (x) = 0.23519 -0.01369
# Poissons Ratio (y) = 0.36021 0.44731
# Poissons Ratio (z) = -0.01823 0.38904
#
# Static dielectric constant tensor:
#      x y z
#    x 2.093830 0.000000 0.000000 
#    y 0.000000 1.972970 0.000000 
#    z 0.000000 0.000000 2.098610 
# 
# From -- ./inp_files/3676.got.cif
#   From: 2010.05.17/outbox.cif.g08.bks.cpg/sg45_2_cif.got.tgz:3676.got - 2010.06.03 19:51:22.
