data_PCOD9377451
_publ_section_title
;
Structure prediction by ZEFSAII (Michael W. Deem and Ramdas Pophale) SiO2 
 PCOD9377451
Probable space group: I B A 2
;
_chemical_formula_sum "Si O2"
_cell_formula_units_Z 52
_cell_length_a 15.469053
_cell_length_b 17.773845
_cell_length_c 8.666481
_cell_angle_alpha 90.000000
_cell_angle_beta 90.000000
_cell_angle_gamma 90.000000
_cell_volume 2382.801721
_symmetry_space_group_name_H-M "I B A 2"
_symmetry_group_IT_number 45
_symmetry_cell_setting 'orthorhombic'
loop_
_space_group_symop_operation_xyz
x,y,z
-x,-y,z
-x,y,1/2+z
x,-y,1/2+z
1/2+x,1/2+y,1/2+z
1/2-x,1/2-y,1/2+z
1/2-x,1/2+y,z
1/2+x,1/2-y,z
loop_
_atom_site_type_symbol
_atom_site_label
_atom_site_fract_x
_atom_site_fract_y
_atom_site_fract_z
Si Si1 0.711477 0.340726 0.657020
Si Si2 0.385590 0.932625 0.841188
Si Si3 0.836514 0.276371 0.403355
Si Si4 0.500000 0.000000 0.582778
Si Si5 0.902568 0.864683 0.071794
Si Si6 0.286420 0.472255 0.399508
Si Si7 0.422011 0.607324 0.423772
O O1 0.783809 0.320913 0.533600
O O2 0.715537 0.276535 0.786408
O O3 0.715922 0.420134 0.746305
O O4 0.623964 0.342875 0.556124
O O5 0.372762 0.845273 0.805930
O O6 0.423744 0.971557 0.690761
O O7 0.302331 0.980278 0.899164
O O8 0.459197 0.937720 0.971874
O O9 0.896324 0.216566 0.491181
O O10 0.920509 0.857995 0.252741
O O11 0.815075 0.912771 0.033903
O O12 0.981821 0.905929 0.985601
O O13 0.362334 0.533852 0.403246
#
# Coordination Sequence:
#
# PCOD9377451 Si02
#       7
#     8   8   8   4   8   8   8
#     4  11  24  43  69 106 142 192 247 297 371 439
#     4  11  24  45  70  99 134 176 237 289 360 420
#     4  11  24  43  68 102 141 187 239 298 363 437
#     4  10  26  44  68 100 130 178 232 298 348 426
#     4  11  26  42  68 106 149 190 237 298 367 434
#     4  11  24  43  73 102 140 191 243 302 362 447
#     4  12  24  45  69 106 146 192 244 297 363 439
#
# _framework density 21.823049999999999
#
# number of rings (size 3 to 8) (size 9 to 14) (size 15 to 20)
#    0.000    0.923    1.538    5.077    2.154    4.923 
#    0.000    4.615    0.000    0.000    0.000    0.000 
#    0.000    0.000    0.000    0.000    0.000    0.000 
#
# Total GULP energy -145208.959960 kJ/mol
# GULP energy per Si atom -5584.959998 kJ/mol
# Density = 2.177338 g / cm^3
# Si number density = 21.823050 Si / 1000 Ang^3
#
#
#
# Elastic Constant Matrix: (Units=GPa)
#
#
# Indices 1 2 3 4 5 6 
#
# 1 78.4653 19.8475 2.6780 0.0000 0.0000 0.0000
# 2 19.8475 84.6482 7.7063 0.0000 0.0000 0.0000
# 3 2.6780 7.7063 92.2525 0.0000 0.0000 0.0000
# 4 0.0000 0.0000 0.0000 21.6570 0.0000 0.0000
# 5 0.0000 0.0000 0.0000 0.0000 31.5980 0.0000
# 6 0.0000 0.0000 0.0000 0.0000 0.0000 24.7287
#
#
#
# Elastic Compliance Matrix: (Units=1/GPa)
#
#
# Indices 1 2 3 4 5 6 
#
# 1 0.013550 -0.003165 -0.000129 0.000000 0.000000 0.000000
# 2 -0.003165 0.012644 -0.000964 0.000000 0.000000 0.000000
# 3 -0.000129 -0.000964 0.010924 0.000000 0.000000 0.000000
# 4 0.000000 0.000000 0.000000 0.046174 0.000000 0.000000
# 5 0.000000 0.000000 0.000000 0.000000 0.031648 0.000000
# 6 0.000000 0.000000 0.000000 0.000000 0.000000 0.040439
#
#
# Mechanical properties :
#
#
# Convention : Reuss Voigt Hill
#
# Bulk Modulus (GPa) = 34.96469 35.09219 35.02844
# Shear Modulus (GPa) = 28.83036 30.60569 29.71802
#
# Velocity S-wave (km/s) = 3.63863 3.74899 3.69422
# Velocity P-wave (km/s) = 5.80599 5.90382 5.85511
#
# Compressibility (1/GPa) = 0.02860028
#
# Stress axis : x y z
#
# Youngs Moduli (GPa) = 73.80336 79.09183 91.54065
#
# Poissons Ratio (x) = 0.25034 0.01180
# Poissons Ratio (y) = 0.23360 0.08827
# Poissons Ratio (z) = 0.00952 0.07627
#
# Static dielectric constant tensor:
#      x y z
#    x 1.839200 0.000000 0.000000 
#    y 0.000000 1.806460 0.000000 
#    z 0.000000 0.000000 1.789370 
# 
# From -- ./inp_files/2121.got.cif
#   From: 2010.05.17/outbox.cif.g08.bks.cpg/sg45_2_cif.got.tgz:2121.got - 2010.06.03 19:51:22.
