data_PCOD9377571
_publ_section_title
;
Structure prediction by ZEFSAII (Michael W. Deem and Ramdas Pophale) SiO2 
 PCOD9377571
Probable space group: I B A 2
;
_chemical_formula_sum "Si O2"
_cell_formula_units_Z 48
_cell_length_a 18.028612
_cell_length_b 6.943694
_cell_length_c 14.046118
_cell_angle_alpha 90.000000
_cell_angle_beta 90.000000
_cell_angle_gamma 90.000000
_cell_volume 1758.365599
_symmetry_space_group_name_H-M "I B A 2"
_symmetry_group_IT_number 45
_symmetry_cell_setting 'orthorhombic'
loop_
_space_group_symop_operation_xyz
x,y,z
-x,-y,z
-x,y,1/2+z
x,-y,1/2+z
1/2+x,1/2+y,1/2+z
1/2-x,1/2-y,1/2+z
1/2-x,1/2+y,z
1/2+x,1/2-y,z
loop_
_atom_site_type_symbol
_atom_site_label
_atom_site_fract_x
_atom_site_fract_y
_atom_site_fract_z
Si Si1 0.613721 0.996886 0.005880
Si Si2 0.917317 0.508943 0.791102
Si Si3 0.767746 0.026848 0.413819
Si Si4 0.770326 0.281115 0.265148
Si Si5 0.419123 0.433633 0.024069
Si Si6 0.867401 0.793393 0.166867
O O1 0.578872 0.793461 0.026890
O O2 0.601766 0.145190 0.089361
O O3 0.583353 0.057271 0.902452
O O4 0.701026 0.964887 0.989531
O O5 0.854616 0.649284 0.749352
O O6 0.887584 0.291698 0.770651
O O7 0.000000 0.500000 0.754100
O O8 0.768088 0.033200 0.291698
O O9 0.742992 0.780930 0.384965
O O10 0.849605 0.006828 0.459465
O O11 0.720921 0.276793 0.170629
O O12 0.500000 0.500000 0.990550
O O13 0.401381 0.511288 0.130084
#
# Coordination Sequence:
#
# PCOD9377571 Si02
#       6
#     8   8   8   8   8   8
#     4  11  27  50  81 110 158 215 268 328 409 490
#     4  11  27  49  79 114 162 212 262 345 418 478
#     4  11  22  49  76 108 147 207 265 324 399 479
#     4  11  23  49  76 109 147 204 273 317 403 487
#     4  12  29  46  75 120 158 207 273 338 403 479
#     4  12  28  49  76 115 159 209 270 328 404 491
#
# _framework density 27.298078
#
# number of rings (size 3 to 8) (size 9 to 14) (size 15 to 20)
#    0.000    0.667    5.000    2.000    9.333    1.333 
#    0.000    2.500    0.000    0.000    0.000    0.000 
#    0.000    0.000    0.000    0.000    0.000    0.000 
#
# Total GULP energy -134161.941799 kJ/mol
# GULP energy per Si atom -5590.080908 kJ/mol
# Density = 2.723595 g / cm^3
# Si number density = 27.298078 Si / 1000 Ang^3
#
#
#
# Elastic Constant Matrix: (Units=GPa)
#
#
# Indices 1 2 3 4 5 6 
#
# 1 212.9601 34.5101 34.9508 0.0000 0.0000 0.0000
# 2 34.5101 137.1157 24.2658 0.0000 0.0000 0.0000
# 3 34.9508 24.2658 65.8506 0.0000 0.0000 0.0000
# 4 0.0000 0.0000 0.0000 55.3694 0.0000 0.0000
# 5 0.0000 0.0000 0.0000 0.0000 36.7734 0.0000
# 6 0.0000 0.0000 0.0000 0.0000 0.0000 34.6137
#
#
#
# Elastic Compliance Matrix: (Units=1/GPa)
#
#
# Indices 1 2 3 4 5 6 
#
# 1 0.005242 -0.000885 -0.002456 0.000000 0.000000 0.000000
# 2 -0.000885 0.007951 -0.002460 0.000000 0.000000 0.000000
# 3 -0.002456 -0.002460 0.017396 0.000000 0.000000 0.000000
# 4 0.000000 0.000000 0.000000 0.018061 0.000000 0.000000
# 5 0.000000 0.000000 0.000000 0.000000 0.027194 0.000000
# 6 0.000000 0.000000 0.000000 0.000000 0.000000 0.028890
#
#
# Mechanical properties :
#
#
# Convention : Reuss Voigt Hill
#
# Bulk Modulus (GPa) = 52.66834 67.04223 59.85528
# Shear Modulus (GPa) = 40.76110 46.83127 43.79619
#
# Velocity S-wave (km/s) = 3.86837 4.14642 4.00980
# Velocity P-wave (km/s) = 6.26802 6.89466 6.58879
#
# Compressibility (1/GPa) = 0.01898674
#
# Stress axis : x y z
#
# Youngs Moduli (GPa) = 190.75920 125.76709 57.48352
#
# Poissons Ratio (x) = 0.11126 0.14120
# Poissons Ratio (y) = 0.16876 0.14144
# Poissons Ratio (z) = 0.46857 0.30944
#
# Static dielectric constant tensor:
#      x y z
#    x 2.141150 0.000000 0.000000 
#    y 0.000000 2.942300 0.000000 
#    z 0.000000 0.000000 2.038880 
# 
# From -- ./inp_files/6751.got.cif
#   From: 2010.05.17/outbox.cif.g08.bks.cpg/sg45_4_cif.got.tgz:6751.got - 2010.06.03 19:51:22.
