data_PCOD9377853
_publ_section_title
;
Structure prediction by ZEFSAII (Michael W. Deem and Ramdas Pophale) SiO2 
 PCOD9377853
Probable space group: I M A 2
;
_chemical_formula_sum "Si O2"
_cell_formula_units_Z 64
_cell_length_a 8.448672
_cell_length_b 27.258914
_cell_length_c 19.021722
_cell_angle_alpha 90.000000
_cell_angle_beta 90.000000
_cell_angle_gamma 90.000000
_cell_volume 4380.733458
_symmetry_space_group_name_H-M "I M A 2"
_symmetry_group_IT_number 46
_symmetry_cell_setting 'orthorhombic'
loop_
_space_group_symop_operation_xyz
x,y,z
-x,-y,z
1/2-x,y,z
1/2+x,-y,z
1/2+x,1/2+y,1/2+z
1/2-x,1/2-y,1/2+z
-x,1/2+y,1/2+z
x,1/2-y,1/2+z
loop_
_atom_site_type_symbol
_atom_site_label
_atom_site_fract_x
_atom_site_fract_y
_atom_site_fract_z
Si Si1 0.558220 0.851271 0.872050
Si Si2 0.059292 0.446388 0.286837
Si Si3 0.560554 0.746585 0.124412
Si Si4 0.563519 0.149326 0.547814
Si Si5 0.936292 0.696998 0.915894
Si Si6 0.439947 0.053966 0.624327
Si Si7 0.557221 0.745905 0.285474
Si Si8 0.563516 0.207377 0.992634
O O1 0.750000 0.850694 0.877034
O O2 0.507184 0.902058 0.836649
O O3 0.510459 0.805884 0.821048
O O4 0.485863 0.840175 0.948446
O O5 0.250000 0.446667 0.286975
O O6 0.008959 0.437869 0.205749
O O7 0.000000 0.500000 0.308382
O O8 0.750000 0.752003 0.122184
O O9 0.517829 0.693266 0.092168
O O10 0.505893 0.749524 0.205063
O O11 0.482452 0.787227 0.073913
O O12 0.750000 0.154501 0.556925
O O13 0.521021 0.158077 0.465938
O O14 0.506091 0.097387 0.576669
O O15 0.750000 0.686160 0.914584
O O16 0.993228 0.709833 0.837197
O O17 0.965230 0.748722 0.955787
O O18 0.250000 0.054913 0.622122
O O19 0.500000 0.000000 0.603740
O O20 0.750000 0.746122 0.285806
O O21 0.750000 0.216715 0.984331
#
# Coordination Sequence:
#
# PCOD9377853 Si02
#       8
#     8   8   8   8   8   8   8   8
#     4   9  16  29  44  58  78 110 143 170 201 244
#     4   9  18  30  45  62  83 108 140 176 211 246
#     4  10  17  28  44  61  82 111 141 172 207 248
#     4  11  20  29  41  61  85 112 143 173 204 245
#     4   9  16  29  44  58  78 107 138 171 206 244
#     4  10  19  32  46  62  83 110 140 175 211 244
#     4   8  15  26  43  62  79 103 141 175 203 241
#     4  10  18  27  38  58  83 107 136 172 206 242
#
# _framework density 14.609425
#
# number of rings (size 3 to 8) (size 9 to 14) (size 15 to 20)
#    0.000    2.500    0.000    6.375    0.000    3.000 
#    0.000    8.750    0.000    0.000    0.000    0.000 
#    0.000    1.000    0.000    6.500    0.000    4.875 
#
# Total GULP energy -178278.696606 kJ/mol
# GULP energy per Si atom -5571.209269 kJ/mol
# Density = 1.457617 g / cm^3
# Si number density = 14.609425 Si / 1000 Ang^3
#
#
#
# Elastic Constant Matrix: (Units=GPa)
#
#
# Indices 1 2 3 4 5 6 
#
# 1 24.6389 13.1828 12.1298 0.0000 0.0000 0.0000
# 2 13.1828 91.0406 58.4370 0.0000 0.0000 0.0000
# 3 12.1298 58.4370 112.2195 0.0000 0.0000 0.0000
# 4 0.0000 0.0000 0.0000 27.1456 0.0000 0.0000
# 5 0.0000 0.0000 0.0000 0.0000 3.7827 0.0000
# 6 0.0000 0.0000 0.0000 0.0000 0.0000 19.5449
#
#
#
# Elastic Compliance Matrix: (Units=1/GPa)
#
#
# Indices 1 2 3 4 5 6 
#
# 1 0.044346 -0.005024 -0.002177 0.000000 0.000000 0.000000
# 2 -0.005024 0.017068 -0.008345 0.000000 0.000000 0.000000
# 3 -0.002177 -0.008345 0.013492 0.000000 0.000000 0.000000
# 4 0.000000 0.000000 0.000000 0.036838 0.000000 0.000000
# 5 0.000000 0.000000 0.000000 0.000000 0.264359 0.000000
# 6 0.000000 0.000000 0.000000 0.000000 0.000000 0.051164
#
#
# Mechanical properties :
#
#
# Convention : Reuss Voigt Hill
#
# Bulk Modulus (GPa) = 22.82373 43.93313 33.37843
# Shear Modulus (GPa) = 10.57161 19.70461 15.13811
#
# Velocity S-wave (km/s) = 2.69293 3.67653 3.22248
# Velocity P-wave (km/s) = 5.03246 6.93971 6.06157
#
# Compressibility (1/GPa) = 0.04381404
#
# Stress axis : x y z
#
# Youngs Moduli (GPa) = 22.54989 58.58910 74.11808
#
# Poissons Ratio (x) = 0.29434 0.16138
# Poissons Ratio (y) = 0.11329 0.61851
# Poissons Ratio (z) = 0.04910 0.48892
#
# Static dielectric constant tensor:
#      x y z
#    x 1.496900 0.000000 0.000000 
#    y 0.000000 1.464870 0.000000 
#    z 0.000000 0.000000 1.511510 
# 
# From -- ./inp_files/18688.got.cif
#   From: 2010.05.17/outbox.cif.g08.bks.cpg/sg46_10_cif.got.tgz:18688.got - 2010.06.03 19:58:25.
