data_PCOD9377357
_publ_section_title
;
Structure prediction by ZEFSAII (Michael W. Deem and Ramdas Pophale) SiO2 
 PCOD9377357
Probable space group: I B A 2
;
_chemical_formula_sum "Si O2"
_cell_formula_units_Z 64
_cell_length_a 13.738072
_cell_length_b 8.911101
_cell_length_c 25.397952
_cell_angle_alpha 90.000000
_cell_angle_beta 90.000000
_cell_angle_gamma 90.000000
_cell_volume 3109.251498
_symmetry_space_group_name_H-M "I B A 2"
_symmetry_group_IT_number 45
_symmetry_cell_setting 'orthorhombic'
loop_
_space_group_symop_operation_xyz
x,y,z
-x,-y,z
-x,y,1/2+z
x,-y,1/2+z
1/2+x,1/2+y,1/2+z
1/2-x,1/2-y,1/2+z
1/2-x,1/2+y,z
1/2+x,1/2-y,z
loop_
_atom_site_type_symbol
_atom_site_label
_atom_site_fract_x
_atom_site_fract_y
_atom_site_fract_z
Si Si1 0.267703 0.045788 0.040740
Si Si2 0.806868 0.683083 0.113561
Si Si3 0.110042 0.571943 0.825395
Si Si4 0.071770 0.863225 0.025163
Si Si5 0.502334 0.318833 0.636795
Si Si6 0.667349 0.645074 0.207255
Si Si7 0.711879 0.369284 0.277740
Si Si8 0.911274 0.609330 0.449913
O O1 0.232183 0.185029 0.075599
O O2 0.341418 0.950413 0.076122
O O3 0.176899 0.936724 0.031484
O O4 0.316395 0.080294 0.985459
O O5 0.727956 0.614349 0.153513
O O6 0.896807 0.751820 0.144062
O O7 0.201536 0.459636 0.810363
O O8 0.140804 0.740648 0.803763
O O9 0.107830 0.592332 0.888444
O O10 0.000000 0.500000 0.811374
O O11 0.044746 0.775547 0.079178
O O12 0.059368 0.770898 0.972070
O O13 0.000000 0.000000 0.022782
O O14 0.500000 0.500000 0.636024
O O15 0.569226 0.281986 0.685887
O O16 0.657297 0.500403 0.244728
O O17 0.727168 0.769805 0.237402
O O18 0.000000 0.500000 0.463578
#
# Coordination Sequence:
#
# PCOD9377357 Si02
#       8
#     8   8   8   8   8   8   8   8
#     4  12  22  38  63  94 136 178 216 264 326 397
#     4  12  22  37  62  94 137 177 212 260 320 398
#     4  10  25  50  71 100 136 173 232 304 356 420
#     4  11  22  40  61  97 136 175 220 263 323 408
#     4  11  20  36  59  91 132 169 210 257 310 395
#     4  11  22  40  63  96 128 173 223 270 334 407
#     4  10  24  45  71  97 130 174 232 293 357 410
#     4  11  25  42  66  96 128 173 225 279 343 406
#
# _framework density 20.583732000000001
#
# number of rings (size 3 to 8) (size 9 to 14) (size 15 to 20)
#    0.000    1.000    5.000    2.250    1.750    3.000 
#    2.250    4.375    0.000    0.000    0.000    0.000 
#    0.000    0.000    0.000    0.000    0.000    0.000 
#
# Total GULP energy -178406.491422 kJ/mol
# GULP energy per Si atom -5575.202857 kJ/mol
# Density = 2.053688 g / cm^3
# Si number density = 20.583732 Si / 1000 Ang^3
#
#
#
# Elastic Constant Matrix: (Units=GPa)
#
#
# Indices 1 2 3 4 5 6 
#
# 1 114.8458 38.8582 40.9477 0.0000 0.0000 0.0000
# 2 38.8582 92.4349 38.3190 0.0000 0.0000 0.0000
# 3 40.9477 38.3190 105.0374 0.0000 0.0000 0.0000
# 4 0.0000 0.0000 0.0000 -1.8002 0.0000 0.0000
# 5 0.0000 0.0000 0.0000 0.0000 36.1223 0.0000
# 6 0.0000 0.0000 0.0000 0.0000 0.0000 31.2917
#
#
#
# Elastic Compliance Matrix: (Units=1/GPa)
#
#
# Indices 1 2 3 4 5 6 
#
# 1 0.010918 -0.003329 -0.003042 0.000000 0.000000 0.000000
# 2 -0.003329 0.013761 -0.003722 0.000000 0.000000 0.000000
# 3 -0.003042 -0.003722 0.012064 0.000000 0.000000 0.000000
# 4 0.000000 0.000000 0.000000 -0.555497 0.000000 0.000000
# 5 0.000000 0.000000 0.000000 0.000000 0.027684 0.000000
# 6 0.000000 0.000000 0.000000 0.000000 0.000000 0.031957
#
#
# Mechanical properties :
#
#
# Convention : Reuss Voigt Hill
#
# Bulk Modulus (GPa) = 60.39741 60.95198 60.67470
# Shear Modulus (GPa) = -11.53651 26.06898 7.26623
#
# Velocity S-wave (km/s) = -2.36999 3.56263 1.88089
# Velocity P-wave (km/s) = 4.68155 6.82636 5.85303
#
# Compressibility (1/GPa) = 0.01655700
#
# Stress axis : x y z
#
# Youngs Moduli (GPa) = 91.58993 72.66933 82.88913
#
# Poissons Ratio (x) = 0.24190 0.25215
# Poissons Ratio (y) = 0.30489 0.30855
# Poissons Ratio (z) = 0.27861 0.27051
#
# Static dielectric constant tensor:
#      x y z
#    x 1.805780 0.000000 0.000000 
#    y 0.000000 1.846650 0.000000 
#    z 0.000000 0.000000 1.731040 
# 
# From -- ./inp_files/9769.got.cif
#   From: 2010.05.17/outbox.cif.g08.bks.cpg/sg45_5_cif.got.tgz:9769.got - 2010.06.03 19:51:22.
