data_PCOD9377236
_publ_section_title
;
Structure prediction by ZEFSAII (Michael W. Deem and Ramdas Pophale) SiO2 
 PCOD9377236
Probable space group: I B A 2
;
_chemical_formula_sum "Si O2"
_cell_formula_units_Z 40
_cell_length_a 12.505352
_cell_length_b 5.463087
_cell_length_c 23.213493
_cell_angle_alpha 90.000000
_cell_angle_beta 90.000000
_cell_angle_gamma 90.000000
_cell_volume 1585.895374
_symmetry_space_group_name_H-M "I B A 2"
_symmetry_group_IT_number 45
_symmetry_cell_setting 'orthorhombic'
loop_
_space_group_symop_operation_xyz
x,y,z
-x,-y,z
-x,y,1/2+z
x,-y,1/2+z
1/2+x,1/2+y,1/2+z
1/2-x,1/2-y,1/2+z
1/2-x,1/2+y,z
1/2+x,1/2-y,z
loop_
_atom_site_type_symbol
_atom_site_label
_atom_site_fract_x
_atom_site_fract_y
_atom_site_fract_z
Si Si1 0.500000 0.500000 0.170851
Si Si2 0.940910 0.747242 0.992138
Si Si3 0.773571 0.657540 0.368874
Si Si4 0.000000 0.500000 0.379552
Si Si5 0.689898 0.664342 0.242806
Si Si6 0.311968 0.703746 0.096577
O O1 0.575303 0.659029 0.213014
O O2 0.423825 0.664487 0.130317
O O3 0.833885 0.775095 0.028188
O O4 0.000000 0.500000 0.015225
O O5 0.000000 0.000000 0.003601
O O6 0.948877 0.697299 0.923884
O O7 0.764271 0.913841 0.400998
O O8 0.897648 0.620716 0.349611
O O9 0.697954 0.666533 0.312499
O O10 0.754177 0.907589 0.226744
O O11 0.246272 0.457466 0.110032
#
# Coordination Sequence:
#
# PCOD9377236 Si02
#       6
#     4   8   8   4   8   8
#     4  12  26  46  74 100 150 186 238 298 364 422
#     4  10  23  45  67 101 139 189 231 288 361 414
#     4  10  24  42  67 102 136 183 241 288 353 418
#     4  10  26  42  74  98 150 184 234 292 358 418
#     4  10  24  45  67 102 135 184 239 293 356 420
#     4  12  27  45  72 106 141 188 242 293 354 435
#
# _framework density 25.222344
#
# number of rings (size 3 to 8) (size 9 to 14) (size 15 to 20)
#    0.600    0.800    1.000    2.400    2.800   10.400 
#    0.000    0.000    0.000    0.000    0.000    0.000 
#    0.000    0.000    0.000    0.000    0.000    0.000 
#
# Total GULP energy -111711.647323 kJ/mol
# GULP energy per Si atom -5585.582366 kJ/mol
# Density = 2.516494 g / cm^3
# Si number density = 25.222344 Si / 1000 Ang^3
#
#
#
# Elastic Constant Matrix: (Units=GPa)
#
#
# Indices 1 2 3 4 5 6 
#
# 1 86.3050 41.0809 44.6387 0.0000 0.0000 0.0000
# 2 41.0809 219.4073 32.7871 0.0000 0.0000 0.0000
# 3 44.6387 32.7871 100.5377 0.0000 0.0000 0.0000
# 4 0.0000 0.0000 0.0000 1.0830 0.0000 0.0000
# 5 0.0000 0.0000 0.0000 0.0000 45.3012 0.0000
# 6 0.0000 0.0000 0.0000 0.0000 0.0000 33.1386
#
#
#
# Elastic Compliance Matrix: (Units=1/GPa)
#
#
# Indices 1 2 3 4 5 6 
#
# 1 0.015844 -0.002013 -0.006378 0.000000 0.000000 0.000000
# 2 -0.002013 0.005047 -0.000752 0.000000 0.000000 0.000000
# 3 -0.006378 -0.000752 0.013024 0.000000 0.000000 0.000000
# 4 0.000000 0.000000 0.000000 0.923385 0.000000 0.000000
# 5 0.000000 0.000000 0.000000 0.000000 0.022074 0.000000
# 6 0.000000 0.000000 0.000000 0.000000 0.000000 0.030176
#
#
# Mechanical properties :
#
#
# Convention : Reuss Voigt Hill
#
# Bulk Modulus (GPa) = 63.98902 71.47372 67.73137
# Shear Modulus (GPa) = 4.84005 35.08744 19.96374
#
# Velocity S-wave (km/s) = 1.38677 3.73383 2.81643
# Velocity P-wave (km/s) = 5.29048 6.85475 6.12278
#
# Compressibility (1/GPa) = 0.01562768
#
# Stress axis : x y z
#
# Youngs Moduli (GPa) = 63.11489 198.13362 76.78347
#
# Poissons Ratio (x) = 0.39894 0.48974
# Poissons Ratio (y) = 0.12708 0.05774
# Poissons Ratio (z) = 0.40256 0.14899
#
# Static dielectric constant tensor:
#      x y z
#    x 2.030950 0.000000 0.000000 
#    y 0.000000 2.023530 0.000000 
#    z 0.000000 0.000000 2.046840 
# 
# From -- ./inp_files/9990.got.cif
#   From: 2010.05.17/outbox.cif.g08.bks.cpg/sg45_5_cif.got.tgz:9990.got - 2010.06.03 19:51:22.
