data_PCOD9377017
_publ_section_title
;
Structure prediction by ZEFSAII (Michael W. Deem and Ramdas Pophale) SiO2 
 PCOD9377017
Probable space group: I B A 2
;
_chemical_formula_sum "Si O2"
_cell_formula_units_Z 60
_cell_length_a 28.111119
_cell_length_b 11.074025
_cell_length_c 8.284788
_cell_angle_alpha 90.000000
_cell_angle_beta 90.000000
_cell_angle_gamma 90.000000
_cell_volume 2579.081302
_symmetry_space_group_name_H-M "I B A 2"
_symmetry_group_IT_number 45
_symmetry_cell_setting 'orthorhombic'
loop_
_space_group_symop_operation_xyz
x,y,z
-x,-y,z
-x,y,1/2+z
x,-y,1/2+z
1/2+x,1/2+y,1/2+z
1/2-x,1/2-y,1/2+z
1/2-x,1/2+y,z
1/2+x,1/2-y,z
loop_
_atom_site_type_symbol
_atom_site_label
_atom_site_fract_x
_atom_site_fract_y
_atom_site_fract_z
Si Si1 0.241067 0.032360 0.646530
Si Si2 0.129434 0.686010 0.900862
Si Si3 0.434772 0.383039 0.533960
Si Si4 0.646718 0.752688 0.410809
Si Si5 0.284017 0.728774 0.220257
Si Si6 0.500000 0.500000 0.770684
Si Si7 0.149693 0.521534 0.182861
Si Si8 0.638719 0.410268 0.589036
O O1 0.243932 0.169190 0.713270
O O2 0.191851 0.042733 0.546274
O O3 0.232738 0.907399 0.742339
O O4 0.297664 0.010860 0.611873
O O5 0.184175 0.723937 0.867586
O O6 0.123048 0.597609 0.747866
O O7 0.122371 0.596807 0.048918
O O8 0.113089 0.817723 0.962397
O O9 0.405625 0.263822 0.490601
O O10 0.476542 0.393472 0.664444
O O11 0.459476 0.439679 0.377806
O O12 0.393929 0.473072 0.597424
O O13 0.685780 0.730946 0.551881
O O14 0.654846 0.882350 0.328535
O O15 0.644053 0.656483 0.262114
#
# Coordination Sequence:
#
# PCOD9377017 Si02
#       8
#     8   8   8   8   8   4   8   8
#     4  11  24  39  58  91 135 190 240 283 326 384
#     4  10  23  40  60  89 127 183 239 291 340 392
#     4  11  22  44  66 104 132 169 222 279 375 425
#     4  11  23  40  62  92 131 175 224 282 334 413
#     4  11  24  38  60  86 132 187 238 288 325 386
#     4  10  24  42  72  96 136 166 210 300 366 456
#     4  10  22  41  58  88 133 182 238 281 332 391
#     4  11  24  38  64  95 135 178 231 283 336 420
#
# _framework density 23.264097
#
# number of rings (size 3 to 8) (size 9 to 14) (size 15 to 20)
#    0.000    1.333    2.667    3.200    3.733    9.600 
#    0.000    0.000    0.000    0.000    0.000    5.600 
#    0.000    0.000    0.000    0.000    0.000    0.000 
#
# Total GULP energy -167094.349219 kJ/mol
# GULP energy per Si atom -5569.811641 kJ/mol
# Density = 2.321115 g / cm^3
# Si number density = 23.264097 Si / 1000 Ang^3
#
#
#
# Elastic Constant Matrix: (Units=GPa)
#
#
# Indices 1 2 3 4 5 6 
#
# 1 67.5845 16.0542 31.4102 0.0000 0.0000 0.0000
# 2 16.0542 133.1444 44.1424 0.0000 0.0000 0.0000
# 3 31.4102 44.1424 75.7709 0.0000 0.0000 0.0000
# 4 0.0000 0.0000 0.0000 36.2384 0.0000 0.0000
# 5 0.0000 0.0000 0.0000 0.0000 22.3104 0.0000
# 6 0.0000 0.0000 0.0000 0.0000 0.0000 18.9731
#
#
#
# Elastic Compliance Matrix: (Units=1/GPa)
#
#
# Indices 1 2 3 4 5 6 
#
# 1 0.018343 0.000383 -0.007827 0.000000 0.000000 0.000000
# 2 0.000383 0.009317 -0.005586 0.000000 0.000000 0.000000
# 3 -0.007827 -0.005586 0.019697 0.000000 0.000000 0.000000
# 4 0.000000 0.000000 0.000000 0.027595 0.000000 0.000000
# 5 0.000000 0.000000 0.000000 0.000000 0.044822 0.000000
# 6 0.000000 0.000000 0.000000 0.000000 0.000000 0.052706
#
#
# Mechanical properties :
#
#
# Convention : Reuss Voigt Hill
#
# Bulk Modulus (GPa) = 46.95803 51.07926 49.01865
# Shear Modulus (GPa) = 24.31441 27.83057 26.07249
#
# Velocity S-wave (km/s) = 3.23638 3.46249 3.35134
# Velocity P-wave (km/s) = 5.84758 6.16353 6.00763
#
# Compressibility (1/GPa) = 0.02129561
#
# Stress axis : x y z
#
# Youngs Moduli (GPa) = 54.51672 107.33567 50.76928
#
# Poissons Ratio (x) = -0.04114 0.39738
# Poissons Ratio (y) = -0.02089 0.28362
# Poissons Ratio (z) = 0.42671 0.59963
#
# Static dielectric constant tensor:
#      x y z
#    x 1.854690 0.000000 0.000000 
#    y 0.000000 2.194400 0.000000 
#    z 0.000000 0.000000 2.016400 
# 
# From -- ./inp_files/2623.got.cif
#   From: 2010.05.17/outbox.cif.g08.bks.cpg/sg45_2_cif.got.tgz:2623.got - 2010.06.03 19:51:22.
