data_PCOD9377385
_publ_section_title
;
Structure prediction by ZEFSAII (Michael W. Deem and Ramdas Pophale) SiO2 
 PCOD9377385
Probable space group: I B A 2
;
_chemical_formula_sum "Si O2"
_cell_formula_units_Z 32
_cell_length_a 12.463224
_cell_length_b 8.290990
_cell_length_c 11.061020
_cell_angle_alpha 90.000000
_cell_angle_beta 90.000000
_cell_angle_gamma 90.000000
_cell_volume 1142.962468
_symmetry_space_group_name_H-M "I B A 2"
_symmetry_group_IT_number 45
_symmetry_cell_setting 'orthorhombic'
loop_
_space_group_symop_operation_xyz
x,y,z
-x,-y,z
-x,y,1/2+z
x,-y,1/2+z
1/2+x,1/2+y,1/2+z
1/2-x,1/2-y,1/2+z
1/2-x,1/2+y,z
1/2+x,1/2-y,z
loop_
_atom_site_type_symbol
_atom_site_label
_atom_site_fract_x
_atom_site_fract_y
_atom_site_fract_z
Si Si1 0.813750 0.746828 0.160550
Si Si2 0.545011 0.324103 0.392758
Si Si3 0.304458 0.926417 0.502548
Si Si4 0.610705 0.094434 0.778566
O O1 0.894525 0.810339 0.262014
O O2 0.693337 0.784133 0.211912
O O3 0.810098 0.866103 0.046387
O O4 0.829977 0.566563 0.104021
O O5 0.500000 0.500000 0.413519
O O6 0.620925 0.233874 0.489437
O O7 0.447798 0.202160 0.378464
O O8 0.312298 0.986532 0.364876
O O9 0.500000 0.000000 0.733736
#
# Coordination Sequence:
#
# PCOD9377385 Si02
#       4
#     8   8   8   8
#     4  12  25  48  79 114 159 220 276 336 415 498
#     4  11  26  49  79 118 163 210 274 351 419 493
#     4  11  25  44  77 115 155 210 272 333 408 488
#     4  10  24  47  73 113 164 212 270 342 410 493
#
# _framework density 27.997420000000002
#
# number of rings (size 3 to 8) (size 9 to 14) (size 15 to 20)
#    0.000    1.000    0.000    6.000    0.000   15.000 
#    0.000    5.000    0.000    3.000    0.000    1.750 
#    0.000    0.000    0.000    0.000    0.000    0.000 
#
# Total GULP energy -89171.417645 kJ/mol
# GULP energy per Si atom -5573.213603 kJ/mol
# Density = 2.793370 g / cm^3
# Si number density = 27.997420 Si / 1000 Ang^3
#
#
#
# Elastic Constant Matrix: (Units=GPa)
#
#
# Indices 1 2 3 4 5 6 
#
# 1 101.3045 68.5666 95.9005 0.0000 0.0000 0.0000
# 2 68.5666 202.6042 43.1704 0.0000 0.0000 0.0000
# 3 95.9005 43.1704 129.6757 0.0000 0.0000 0.0000
# 4 0.0000 0.0000 0.0000 18.9784 0.0000 0.0000
# 5 0.0000 0.0000 0.0000 0.0000 63.9520 0.0000
# 6 0.0000 0.0000 0.0000 0.0000 0.0000 48.8642
#
#
#
# Elastic Compliance Matrix: (Units=1/GPa)
#
#
# Indices 1 2 3 4 5 6 
#
# 1 0.043011 -0.008372 -0.029021 0.000000 0.000000 0.000000
# 2 -0.008372 0.006942 0.003880 0.000000 0.000000 0.000000
# 3 -0.029021 0.003880 0.027882 0.000000 0.000000 0.000000
# 4 0.000000 0.000000 0.000000 0.052691 0.000000 0.000000
# 5 0.000000 0.000000 0.000000 0.000000 0.015637 0.000000
# 6 0.000000 0.000000 0.000000 0.000000 0.000000 0.020465
#
#
# Mechanical properties :
#
#
# Convention : Reuss Voigt Hill
#
# Bulk Modulus (GPa) = 92.51229 94.31772 93.41500
# Shear Modulus (GPa) = 21.07418 41.42204 31.24811
#
# Velocity S-wave (km/s) = 2.74655 3.85059 3.34444
# Velocity P-wave (km/s) = 6.57061 7.31646 6.95354
#
# Compressibility (1/GPa) = 0.01080937
#
# Stress axis : x y z
#
# Youngs Moduli (GPa) = 23.24994 144.04470 35.86547
#
# Poissons Ratio (x) = 1.20598 1.04085
# Poissons Ratio (y) = 0.19465 -0.13918
# Poissons Ratio (z) = 0.67474 -0.55896
#
# Static dielectric constant tensor:
#      x y z
#    x 2.148860 0.000000 0.000000 
#    y 0.000000 2.409390 0.000000 
#    z 0.000000 0.000000 2.472830 
# 
# From -- ./inp_files/3974.got.cif
#   From: 2010.05.17/outbox.cif.g08.bks.cpg/sg45_2_cif.got.tgz:3974.got - 2010.06.03 19:51:22.
