data_PCOD9377892
_publ_section_title
;
Structure prediction by ZEFSAII (Michael W. Deem and Ramdas Pophale) SiO2 
 PCOD9377892
Probable space group: I M A 2
;
_chemical_formula_sum "Si O2"
_cell_formula_units_Z 56
_cell_length_a 15.063104
_cell_length_b 12.025907
_cell_length_c 14.408842
_cell_angle_alpha 90.000000
_cell_angle_beta 90.000000
_cell_angle_gamma 90.000000
_cell_volume 2610.125531
_symmetry_space_group_name_H-M "I M A 2"
_symmetry_group_IT_number 46
_symmetry_cell_setting 'orthorhombic'
loop_
_space_group_symop_operation_xyz
x,y,z
-x,-y,z
1/2-x,y,z
1/2+x,-y,z
1/2+x,1/2+y,1/2+z
1/2-x,1/2-y,1/2+z
-x,1/2+y,1/2+z
x,1/2-y,1/2+z
loop_
_atom_site_type_symbol
_atom_site_label
_atom_site_fract_x
_atom_site_fract_y
_atom_site_fract_z
Si Si1 0.349129 0.208511 0.139770
Si Si2 0.651081 0.042953 0.156934
Si Si3 0.153122 0.266668 0.865315
Si Si4 0.394258 0.505622 0.864362
Si Si5 0.459639 0.737352 0.153081
Si Si6 0.019766 0.868805 0.857989
Si Si7 0.353372 0.724227 0.978725
O O1 0.250000 0.244687 0.110139
O O2 0.349607 0.218594 0.252815
O O3 0.439795 0.271151 0.115076
O O4 0.361104 0.078664 0.112369
O O5 0.750000 0.084959 0.130768
O O6 0.651917 0.016858 0.265645
O O7 0.573030 0.133527 0.151042
O O8 0.250000 0.222997 0.890081
O O9 0.137574 0.389161 0.906491
O O10 0.071915 0.188517 0.889156
O O11 0.500000 0.500000 0.850946
O O12 0.371038 0.615910 0.917970
O O13 0.455952 0.683613 0.255923
O O14 0.391081 0.689975 0.079152
O O15 0.093238 0.826865 0.931595
O O16 0.000000 0.000000 0.851649
O O17 0.250000 0.748535 0.979548
#
# Coordination Sequence:
#
# PCOD9377892 Si02
#       7
#     8   8   8   8   8   8   8
#     4   8  16  31  58  91 122 158 210 272 329 389
#     4  10  17  30  59  96 125 156 202 262 328 389
#     4   9  17  35  64  96 122 160 213 267 329 394
#     4  11  18  35  65  93 123 156 206 275 335 385
#     4  11  22  39  62  91 131 178 226 276 339 407
#     4  11  25  45  66  94 138 189 226 274 341 419
#     4  12  26  42  65  99 134 177 234 288 342 409
#
# _framework density 21.454906000000001
#
# number of rings (size 3 to 8) (size 9 to 14) (size 15 to 20)
#    0.000    1.714    2.857    4.714    0.000    2.857 
#    0.000    0.714    0.000    1.714    0.000    0.000 
#    0.000    0.000    0.000    0.000    0.000    0.000 
#
# Total GULP energy -156239.415864 kJ/mol
# GULP energy per Si atom -5579.979138 kJ/mol
# Density = 2.140607 g / cm^3
# Si number density = 21.454906 Si / 1000 Ang^3
#
#
#
# Elastic Constant Matrix: (Units=GPa)
#
#
# Indices 1 2 3 4 5 6 
#
# 1 179.9284 35.6169 19.1249 0.0000 0.0000 0.0000
# 2 35.6169 73.2260 14.2758 0.0000 0.0000 0.0000
# 3 19.1249 14.2758 63.7310 0.0000 0.0000 0.0000
# 4 0.0000 0.0000 0.0000 7.5474 0.0000 0.0000
# 5 0.0000 0.0000 0.0000 0.0000 3.4784 0.0000
# 6 0.0000 0.0000 0.0000 0.0000 0.0000 -50.4204
#
#
#
# Elastic Compliance Matrix: (Units=1/GPa)
#
#
# Indices 1 2 3 4 5 6 
#
# 1 0.006243 -0.002793 -0.001248 0.000000 0.000000 0.000000
# 2 -0.002793 0.015530 -0.002640 0.000000 0.000000 0.000000
# 3 -0.001248 -0.002640 0.016657 0.000000 0.000000 0.000000
# 4 0.000000 0.000000 0.000000 0.132496 0.000000 0.000000
# 5 0.000000 0.000000 0.000000 0.000000 0.287489 0.000000
# 6 0.000000 0.000000 0.000000 0.000000 0.000000 -0.019833
#
#
# Mechanical properties :
#
#
# Convention : Reuss Voigt Hill
#
# Bulk Modulus (GPa) = 39.89361 50.54672 45.22017
# Shear Modulus (GPa) = 10.86245 8.64560 9.75402
#
# Velocity S-wave (km/s) = 2.25253 2.00958 2.13452
# Velocity P-wave (km/s) = 5.03982 5.38472 5.21512
#
# Compressibility (1/GPa) = 0.02506667
#
# Stress axis : x y z
#
# Youngs Moduli (GPa) = 160.16986 64.39207 60.03533
#
# Poissons Ratio (x) = 0.17988 0.07491
# Poissons Ratio (y) = 0.44743 0.15852
# Poissons Ratio (z) = 0.19986 0.17002
#
# Static dielectric constant tensor:
#      x y z
#    x 1.783410 0.000000 0.000000 
#    y 0.000000 1.814510 0.000000 
#    z 0.000000 0.000000 1.826940 
# 
# From -- ./inp_files/15921.got.cif
#   From: 2010.05.17/outbox.cif.g08.bks.cpg/sg46_8_cif.got.tgz:15921.got - 2010.06.03 19:58:25.
