data_PCOD9377864
_publ_section_title
;
Structure prediction by ZEFSAII (Michael W. Deem and Ramdas Pophale) SiO2 
 PCOD9377864
Probable space group: I M A 2
;
_chemical_formula_sum "Si O2"
_cell_formula_units_Z 64
_cell_length_a 22.274608
_cell_length_b 20.604689
_cell_length_c 8.279894
_cell_angle_alpha 90.000000
_cell_angle_beta 90.000000
_cell_angle_gamma 90.000000
_cell_volume 3800.151497
_symmetry_space_group_name_H-M "I M A 2"
_symmetry_group_IT_number 46
_symmetry_cell_setting 'orthorhombic'
loop_
_space_group_symop_operation_xyz
x,y,z
-x,-y,z
1/2-x,y,z
1/2+x,-y,z
1/2+x,1/2+y,1/2+z
1/2-x,1/2-y,1/2+z
-x,1/2+y,1/2+z
x,1/2-y,1/2+z
loop_
_atom_site_type_symbol
_atom_site_label
_atom_site_fract_x
_atom_site_fract_y
_atom_site_fract_z
Si Si1 0.119817 0.678251 0.529620
Si Si2 0.082027 0.550239 0.443559
Si Si3 0.679625 0.206787 0.694271
Si Si4 0.981286 0.795445 0.930921
Si Si5 0.946166 0.922953 0.065408
Si Si6 0.398485 0.594496 0.072503
Si Si7 0.064701 0.031731 0.434686
Si Si8 0.975314 0.841359 0.561865
O O1 0.118598 0.600838 0.554318
O O2 0.144513 0.726413 0.662363
O O3 0.162521 0.688640 0.376141
O O4 0.051077 0.698684 0.487769
O O5 0.094154 0.474405 0.467417
O O6 0.089091 0.571348 0.257869
O O7 0.013791 0.563249 0.501123
O O8 0.750000 0.214495 0.670370
O O9 0.653191 0.148560 0.583542
O O10 0.978454 0.817712 0.745908
O O11 0.941284 0.846658 0.032362
O O12 0.961586 0.721554 0.955366
O O13 0.938765 0.944271 0.250361
O O14 0.458389 0.632197 0.015091
O O15 0.390883 0.528059 0.971758
O O16 0.068555 0.097316 0.539266
O O17 0.000000 0.000000 0.475972
#
# Coordination Sequence:
#
# PCOD9377864 Si02
#       8
#     8   8   8   8   8   8   8   8
#     4  10  19  32  44  62  84 115 153 200 235 270
#     4   9  17  29  43  60  84 113 148 184 232 273
#     4  11  21  34  48  63  85 119 164 208 243 268
#     4  11  18  30  46  62  94 119 154 186 224 276
#     4  10  17  29  43  67  85 114 148 185 221 277
#     4  10  19  32  44  62  87 119 153 195 239 269
#     4  10  20  27  43  64  89 114 150 187 223 276
#     4  11  19  29  43  65  89 126 150 184 225 273
#
# _framework density 16.841432999999999
#
# number of rings (size 3 to 8) (size 9 to 14) (size 15 to 20)
#    0.000    1.750    6.250    1.875    3.500    2.000 
#    0.000    0.000    0.000    0.000    0.000    0.000 
#    0.000    0.000    0.000   19.125    0.000    0.750 
#
# Total GULP energy -178264.380133 kJ/mol
# GULP energy per Si atom -5570.761879 kJ/mol
# Density = 1.680310 g / cm^3
# Si number density = 16.841433 Si / 1000 Ang^3
#
#
#
# Elastic Constant Matrix: (Units=GPa)
#
#
# Indices 1 2 3 4 5 6 
#
# 1 22.3747 15.7897 5.0562 0.0000 0.0000 0.0000
# 2 15.7897 138.0499 25.2542 0.0000 0.0000 0.0000
# 3 5.0562 25.2542 33.9355 0.0000 0.0000 0.0000
# 4 0.0000 0.0000 0.0000 29.2910 0.0000 0.0000
# 5 0.0000 0.0000 0.0000 0.0000 4.2097 0.0000
# 6 0.0000 0.0000 0.0000 0.0000 0.0000 9.2061
#
#
#
# Elastic Compliance Matrix: (Units=1/GPa)
#
#
# Indices 1 2 3 4 5 6 
#
# 1 0.048999 -0.004942 -0.003623 0.000000 0.000000 0.000000
# 2 -0.004942 0.008884 -0.005875 0.000000 0.000000 0.000000
# 3 -0.003623 -0.005875 0.034379 0.000000 0.000000 0.000000
# 4 0.000000 0.000000 0.000000 0.034140 0.000000 0.000000
# 5 0.000000 0.000000 0.000000 0.000000 0.237544 0.000000
# 6 0.000000 0.000000 0.000000 0.000000 0.000000 0.108624
#
#
# Mechanical properties :
#
#
# Convention : Reuss Voigt Hill
#
# Bulk Modulus (GPa) = 15.77706 31.84004 23.80855
# Shear Modulus (GPa) = 9.56797 18.42537 13.99667
#
# Velocity S-wave (km/s) = 2.38611 3.31123 2.88598
# Velocity P-wave (km/s) = 4.12065 5.79360 5.02720
#
# Compressibility (1/GPa) = 0.06338317
#
# Stress axis : x y z
#
# Youngs Moduli (GPa) = 20.40849 112.56624 29.08718
#
# Poissons Ratio (x) = 0.55625 0.10539
# Poissons Ratio (y) = 0.10085 0.17088
# Poissons Ratio (z) = 0.07394 0.66130
#
# Static dielectric constant tensor:
#      x y z
#    x 1.539330 0.000000 0.000000 
#    y 0.000000 1.717010 0.000000 
#    z 0.000000 0.000000 1.628250 
# 
# From -- ./inp_files/8045.got.cif
#   From: 2010.05.17/outbox.cif.g08.bks.cpg/sg46_5_cif.got.tgz:8045.got - 2010.06.03 19:58:25.
