data_PCOD9377059
_publ_section_title
;
Structure prediction by ZEFSAII (Michael W. Deem and Ramdas Pophale) SiO2 
 PCOD9377059
Probable space group: I B A 2
;
_chemical_formula_sum "Si O2"
_cell_formula_units_Z 40
_cell_length_a 15.732709
_cell_length_b 7.508101
_cell_length_c 17.339330
_cell_angle_alpha 90.000000
_cell_angle_beta 90.000000
_cell_angle_gamma 90.000000
_cell_volume 2048.169658
_symmetry_space_group_name_H-M "I B A 2"
_symmetry_group_IT_number 45
_symmetry_cell_setting 'orthorhombic'
loop_
_space_group_symop_operation_xyz
x,y,z
-x,-y,z
-x,y,1/2+z
x,-y,1/2+z
1/2+x,1/2+y,1/2+z
1/2-x,1/2-y,1/2+z
1/2-x,1/2+y,z
1/2+x,1/2-y,z
loop_
_atom_site_type_symbol
_atom_site_label
_atom_site_fract_x
_atom_site_fract_y
_atom_site_fract_z
Si Si1 0.848047 0.992847 0.615910
Si Si2 0.440159 0.330537 0.257572
Si Si3 0.500000 0.500000 0.004381
Si Si4 0.158093 0.602736 0.569612
Si Si5 0.431304 0.841238 0.915235
Si Si6 0.500000 0.000000 0.163118
O O1 0.854656 0.205009 0.608732
O O2 0.870612 0.907896 0.698162
O O3 0.922651 0.934570 0.557881
O O4 0.753698 0.950449 0.587929
O O5 0.500000 0.500000 0.277559
O O6 0.402196 0.230719 0.332080
O O7 0.495340 0.177514 0.214963
O O8 0.473721 0.668491 0.954255
O O9 0.139698 0.604700 0.478026
O O10 0.083593 0.490313 0.609781
O O11 0.500000 0.000000 0.906839
#
# Coordination Sequence:
#
# PCOD9377059 Si02
#       6
#     8   8   4   8   8   4
#     4  11  23  41  66 100 132 179 227 272 326 396
#     4  12  22  42  66  99 136 171 226 277 337 390
#     4  10  22  42  66  92 132 178 226 278 322 398
#     4  11  24  42  68  99 135 178 230 272 323 408
#     4  11  23  40  67  98 132 176 219 277 337 389
#     4  12  22  42  70  94 130 182 226 278 328 400
#
# _framework density 19.529630999999998
#
# number of rings (size 3 to 8) (size 9 to 14) (size 15 to 20)
#    0.000    0.800    6.000    2.400    2.800    0.000 
#    0.000   10.000    0.000    0.000    0.000    0.000 
#    0.000    0.000    0.000    0.000    0.000    0.000 
#
# Total GULP energy -111644.139737 kJ/mol
# GULP energy per Si atom -5582.206987 kJ/mol
# Density = 1.948518 g / cm^3
# Si number density = 19.529631 Si / 1000 Ang^3
#
#
#
# Elastic Constant Matrix: (Units=GPa)
#
#
# Indices 1 2 3 4 5 6 
#
# 1 98.0581 0.4079 54.9097 0.0000 0.0000 0.0000
# 2 0.4079 82.4939 37.0356 0.0000 0.0000 0.0000
# 3 54.9097 37.0356 144.2989 0.0000 0.0000 0.0000
# 4 0.0000 0.0000 0.0000 30.0398 0.0000 0.0000
# 5 0.0000 0.0000 0.0000 0.0000 20.2514 0.0000
# 6 0.0000 0.0000 0.0000 0.0000 0.0000 23.2435
#
#
#
# Elastic Compliance Matrix: (Units=1/GPa)
#
#
# Indices 1 2 3 4 5 6 
#
# 1 0.013405 0.002513 -0.005746 0.000000 0.000000 0.000000
# 2 0.002513 0.014172 -0.004594 0.000000 0.000000 0.000000
# 3 -0.005746 -0.004594 0.010296 0.000000 0.000000 0.000000
# 4 0.000000 0.000000 0.000000 0.033289 0.000000 0.000000
# 5 0.000000 0.000000 0.000000 0.000000 0.049379 0.000000
# 6 0.000000 0.000000 0.000000 0.000000 0.000000 0.043023
#
#
# Mechanical properties :
#
#
# Convention : Reuss Voigt Hill
#
# Bulk Modulus (GPa) = 45.00464 56.61747 50.81106
# Shear Modulus (GPa) = 26.79182 30.20677 28.49930
#
# Velocity S-wave (km/s) = 3.70787 3.93710 3.82420
# Velocity P-wave (km/s) = 6.43626 7.05132 6.75080
#
# Compressibility (1/GPa) = 0.02221993
#
# Stress axis : x y z
#
# Youngs Moduli (GPa) = 74.59750 70.56134 97.12810
#
# Poissons Ratio (x) = -0.17735 0.55811
# Poissons Ratio (y) = -0.18750 0.44619
# Poissons Ratio (z) = 0.42865 0.32415
#
# Static dielectric constant tensor:
#      x y z
#    x 1.258840 0.000000 0.000000 
#    y 0.000000 1.709710 0.000000 
#    z 0.000000 0.000000 1.714520 
# 
# From -- ./inp_files/5488.got.cif
#   From: 2010.05.17/outbox.cif.g08.bks.cpg/sg45_3_cif.got.tgz:5488.got - 2010.06.03 19:51:22.
