data_PCOD9377415
_publ_section_title
;
Structure prediction by ZEFSAII (Michael W. Deem and Ramdas Pophale) SiO2 
 PCOD9377415
Probable space group: I B A 2
;
_chemical_formula_sum "Si O2"
_cell_formula_units_Z 56
_cell_length_a 14.220368
_cell_length_b 21.807905
_cell_length_c 8.386967
_cell_angle_alpha 90.000000
_cell_angle_beta 90.000000
_cell_angle_gamma 90.000000
_cell_volume 2600.936302
_symmetry_space_group_name_H-M "I B A 2"
_symmetry_group_IT_number 45
_symmetry_cell_setting 'orthorhombic'
loop_
_space_group_symop_operation_xyz
x,y,z
-x,-y,z
-x,y,1/2+z
x,-y,1/2+z
1/2+x,1/2+y,1/2+z
1/2-x,1/2-y,1/2+z
1/2-x,1/2+y,z
1/2+x,1/2-y,z
loop_
_atom_site_type_symbol
_atom_site_label
_atom_site_fract_x
_atom_site_fract_y
_atom_site_fract_z
Si Si1 0.394591 0.161346 0.299830
Si Si2 0.826211 0.513684 0.594077
Si Si3 0.677994 0.200154 0.449930
Si Si4 0.081465 0.413210 0.318541
Si Si5 0.912746 0.170956 0.004150
Si Si6 0.232823 0.082276 0.377314
Si Si7 0.895485 0.797408 0.874022
O O1 0.475526 0.110242 0.300551
O O2 0.310114 0.135381 0.405707
O O3 0.427540 0.226178 0.368054
O O4 0.358511 0.178151 0.123163
O O5 0.896270 0.552189 0.483664
O O6 0.884633 0.462900 0.691159
O O7 0.763587 0.558069 0.703841
O O8 0.754342 0.475504 0.486889
O O9 0.641971 0.149512 0.324222
O O10 0.634148 0.267647 0.427044
O O11 0.790633 0.201276 0.443444
O O12 0.865055 0.113150 0.918392
O O13 0.024152 0.170060 0.975479
O O14 0.892984 0.176278 0.193491
#
# Coordination Sequence:
#
# PCOD9377415 Si02
#       7
#     8   8   8   8   8   8   8
#     4  11  24  39  68 101 144 179 226 283 343 433
#     4  10  25  41  69  93 146 185 234 279 345 405
#     4  11  23  44  67 103 144 183 224 294 354 417
#     4  11  23  43  64 102 138 186 230 279 341 418
#     4  11  25  43  72 103 140 182 234 293 357 421
#     4  11  23  44  65 102 133 188 229 288 339 421
#     4  11  25  42  70 108 139 182 225 290 369 417
#
# _framework density 21.530707
#
# number of rings (size 3 to 8) (size 9 to 14) (size 15 to 20)
#    0.000    1.143    4.286    0.857    4.000    3.429 
#    0.000    0.000    0.000   14.571    0.000    0.000 
#    0.000    0.000    0.000    0.000    0.000    0.000 
#
# Total GULP energy -156596.857814 kJ/mol
# GULP energy per Si atom -5592.744922 kJ/mol
# Density = 2.148170 g / cm^3
# Si number density = 21.530707 Si / 1000 Ang^3
#
#
#
# Elastic Constant Matrix: (Units=GPa)
#
#
# Indices 1 2 3 4 5 6 
#
# 1 119.6529 13.4415 16.2725 0.0000 0.0000 0.0000
# 2 13.4415 67.7120 25.6780 0.0000 0.0000 0.0000
# 3 16.2725 25.6780 66.5700 -0.0001 0.0000 0.0000
# 4 0.0000 0.0000 -0.0001 15.8914 0.0000 0.0000
# 5 0.0000 0.0000 0.0000 0.0000 19.8619 0.0000
# 6 0.0000 0.0000 0.0000 0.0000 0.0000 41.6734
#
#
#
# Elastic Compliance Matrix: (Units=1/GPa)
#
#
# Indices 1 2 3 4 5 6 
#
# 1 0.008712 -0.001080 -0.001713 0.000000 0.000000 0.000000
# 2 -0.001080 0.017433 -0.006460 0.000000 0.000000 0.000000
# 3 -0.001713 -0.006460 0.017932 0.000000 0.000000 0.000000
# 4 0.000000 0.000000 0.000000 0.062927 0.000000 0.000000
# 5 0.000000 0.000000 0.000000 0.000000 0.050348 0.000000
# 6 0.000000 0.000000 0.000000 0.000000 0.000000 0.023996
#
#
# Mechanical properties :
#
#
# Convention : Reuss Voigt Hill
#
# Bulk Modulus (GPa) = 39.10734 40.52432 39.81583
# Shear Modulus (GPa) = 23.99492 28.72155 26.35823
#
# Velocity S-wave (km/s) = 3.34196 3.65633 3.50268
# Velocity P-wave (km/s) = 5.75279 6.05702 5.90686
#
# Compressibility (1/GPa) = 0.02557065
#
# Stress axis : x y z
#
# Youngs Moduli (GPa) = 114.78722 57.36352 55.76483
#
# Poissons Ratio (x) = 0.06194 0.09553
# Poissons Ratio (y) = 0.12394 0.36026
# Poissons Ratio (z) = 0.19663 0.37059
#
# Static dielectric constant tensor:
#      x y z
#    x 1.763340 0.000000 0.000000 
#    y 0.000000 1.793020 0.000000 
#    z 0.000000 0.000000 1.823080 
# 
# From -- ./inp_files/1823.got.cif
#   From: 2010.05.17/outbox.cif.g08.bks.cpg/sg45_1_cif.got.tgz:1823.got - 2010.06.03 19:51:22.
