data_PCOD9377252
_publ_section_title
;
Structure prediction by ZEFSAII (Michael W. Deem and Ramdas Pophale) SiO2 
 PCOD9377252
Probable space group: I B A 2
;
_chemical_formula_sum "Si O2"
_cell_formula_units_Z 60
_cell_length_a 9.733886
_cell_length_b 21.728284
_cell_length_c 12.689015
_cell_angle_alpha 90.000000
_cell_angle_beta 90.000000
_cell_angle_gamma 90.000000
_cell_volume 2683.734786
_symmetry_space_group_name_H-M "I B A 2"
_symmetry_group_IT_number 45
_symmetry_cell_setting 'orthorhombic'
loop_
_space_group_symop_operation_xyz
x,y,z
-x,-y,z
-x,y,1/2+z
x,-y,1/2+z
1/2+x,1/2+y,1/2+z
1/2-x,1/2-y,1/2+z
1/2-x,1/2+y,z
1/2+x,1/2-y,z
loop_
_atom_site_type_symbol
_atom_site_label
_atom_site_fract_x
_atom_site_fract_y
_atom_site_fract_z
Si Si1 0.182223 0.168034 0.514840
Si Si2 0.673976 0.600664 0.205031
Si Si3 0.815144 0.737043 0.707817
Si Si4 0.260540 0.976929 0.785933
Si Si5 0.099238 0.323802 0.288003
Si Si6 0.000000 0.500000 0.120336
Si Si7 0.440852 0.900753 0.950620
Si Si8 0.901034 0.852998 0.283455
O O1 0.141583 0.105446 0.580247
O O2 0.173704 0.225198 0.597038
O O3 0.337252 0.154195 0.479250
O O4 0.104356 0.171153 0.403972
O O5 0.678595 0.541058 0.278501
O O6 0.557497 0.646277 0.248658
O O7 0.827904 0.628121 0.209704
O O8 0.962239 0.709932 0.744757
O O9 0.726066 0.776325 0.794352
O O10 0.704984 0.681142 0.704681
O O11 0.366954 0.987671 0.691063
O O12 0.357545 0.950951 0.879510
O O13 0.151001 0.922853 0.777092
O O14 0.058771 0.366063 0.385902
O O15 0.990215 0.559826 0.047588
#
# Coordination Sequence:
#
# PCOD9377252 Si02
#       8
#     8   8   8   8   8   4   8   8
#     4  10  23  46  73  98 148 187 249 291 361 435
#     4  11  23  47  73 107 147 190 233 304 366 440
#     4  11  23  45  72 101 142 195 239 306 354 426
#     4  11  23  42  74 105 147 187 237 303 359 436
#     4  11  23  46  72 100 145 184 243 303 357 419
#     4  12  22  40  74 110 146 188 234 296 368 440
#     4  11  23  44  70 111 143 187 242 295 365 443
#     4  11  25  50  71 106 148 192 241 305 365 433
#
# _framework density 22.356902999999999
#
# number of rings (size 3 to 8) (size 9 to 14) (size 15 to 20)
#    0.000    1.067    4.000    4.000    1.867    0.000 
#   14.400    1.333    0.000    0.000    0.000    0.000 
#    0.000    0.000    0.000    0.000    0.000    0.000 
#
# Total GULP energy -167072.844118 kJ/mol
# GULP energy per Si atom -5569.094804 kJ/mol
# Density = 2.230602 g / cm^3
# Si number density = 22.356903 Si / 1000 Ang^3
#
#
#
# Elastic Constant Matrix: (Units=GPa)
#
#
# Indices 1 2 3 4 5 6 
#
# 1 142.0473 32.7460 48.4389 0.0000 0.0000 0.0000
# 2 32.7460 91.1175 34.4960 0.0000 0.0000 0.0000
# 3 48.4389 34.4960 105.3505 0.0001 0.0000 0.0000
# 4 0.0000 0.0000 0.0001 -14.4277 0.0000 0.0000
# 5 0.0000 0.0000 0.0000 0.0000 24.7724 0.0000
# 6 0.0000 0.0000 0.0000 0.0000 0.0000 36.1635
#
#
#
# Elastic Compliance Matrix: (Units=1/GPa)
#
#
# Indices 1 2 3 4 5 6 
#
# 1 0.008606 -0.001820 -0.003361 0.000000 0.000000 0.000000
# 2 -0.001820 0.012913 -0.003391 0.000000 0.000000 0.000000
# 3 -0.003361 -0.003391 0.012148 0.000000 0.000000 0.000000
# 4 0.000000 0.000000 0.000000 -0.069311 0.000000 0.000000
# 5 0.000000 0.000000 0.000000 0.000000 0.040368 0.000000
# 6 0.000000 0.000000 0.000000 0.000000 0.000000 0.027652
#
#
# Mechanical properties :
#
#
# Convention : Reuss Voigt Hill
#
# Bulk Modulus (GPa) = 60.52650 63.31968 61.92309
# Shear Modulus (GPa) = 90.86510 24.15726 57.51118
#
# Velocity S-wave (km/s) = 6.38210 3.29070 5.07740
# Velocity P-wave (km/s) = 9.02441 6.54385 7.88232
#
# Compressibility (1/GPa) = 0.01652169
#
# Stress axis : x y z
#
# Youngs Moduli (GPa) = 116.20391 77.44180 82.31977
#
# Poissons Ratio (x) = 0.14097 0.27665
# Poissons Ratio (y) = 0.21153 0.27917
# Poissons Ratio (z) = 0.39052 0.26262
#
# Static dielectric constant tensor:
#      x y z
#    x 1.939830 0.000000 0.000000 
#    y 0.000000 2.077500 0.000000 
#    z 0.000000 0.000000 1.851490 
# 
# From -- ./inp_files/3842.got.cif
#   From: 2010.05.17/outbox.cif.g08.bks.cpg/sg45_2_cif.got.tgz:3842.got - 2010.06.03 19:51:22.
