data_PCOD9377997
_publ_section_title
;
Structure prediction by ZEFSAII (Michael W. Deem and Ramdas Pophale) SiO2 
 PCOD9377997
Probable space group: I M A 2
;
_chemical_formula_sum "Si O2"
_cell_formula_units_Z 56
_cell_length_a 23.994723
_cell_length_b 10.083204
_cell_length_c 9.344694
_cell_angle_alpha 90.000000
_cell_angle_beta 90.000000
_cell_angle_gamma 90.000000
_cell_volume 2260.889720
_symmetry_space_group_name_H-M "I M A 2"
_symmetry_group_IT_number 46
_symmetry_cell_setting 'orthorhombic'
loop_
_space_group_symop_operation_xyz
x,y,z
-x,-y,z
1/2-x,y,z
1/2+x,-y,z
1/2+x,1/2+y,1/2+z
1/2-x,1/2-y,1/2+z
-x,1/2+y,1/2+z
x,1/2-y,1/2+z
loop_
_atom_site_type_symbol
_atom_site_label
_atom_site_fract_x
_atom_site_fract_y
_atom_site_fract_z
Si Si1 0.810672 0.813401 0.269480
Si Si2 0.033717 0.153908 0.199416
Si Si3 0.427478 0.630905 0.572731
Si Si4 0.189476 0.561519 0.561888
Si Si5 0.812707 0.996489 0.722413
Si Si6 0.435367 0.514430 0.274596
Si Si7 0.413651 0.237899 0.447986
O O1 0.750000 0.838803 0.334753
O O2 0.817548 0.921328 0.144018
O O3 0.810568 0.663060 0.214272
O O4 0.856800 0.822924 0.391417
O O5 0.039384 0.153385 0.367815
O O6 0.975608 0.213967 0.145292
O O7 0.053666 0.010505 0.142906
O O8 0.077679 0.246743 0.114704
O O9 0.363008 0.650629 0.603352
O O10 0.436299 0.622881 0.403251
O O11 0.250000 0.615823 0.600897
O O12 0.187989 0.534339 0.392328
O O13 0.750000 0.042115 0.667376
O O14 0.877887 0.034362 0.681944
O O15 0.500000 0.500000 0.222275
O O16 0.422438 0.381929 0.372828
#
# Coordination Sequence:
#
# PCOD9377997 Si02
#       7
#     8   8   8   8   8   8   8
#     4   9  16  23  35  58  90 117 140 174 216 265
#     4  10  18  29  46  65  88 117 150 186 221 265
#     4   9  15  28  44  61  86 118 148 183 222 259
#     4   9  15  24  40  62  84 111 147 185 217 264
#     4   8  15  23  34  56  85 110 138 175 214 256
#     4   9  14  25  42  59  80 114 149 176 212 257
#     4  10  18  28  44  65  87 119 152 179 226 270
#
# _framework density 24.769010000000002
#
# number of rings (size 3 to 8) (size 9 to 14) (size 15 to 20)
#    0.000    2.857    4.286    0.857    0.000    0.000 
#    0.000    0.000    3.143    0.000    0.000    2.000 
#    0.000    0.000    0.000    0.000    0.000    0.000 
#
# Total GULP energy -155944.074522 kJ/mol
# GULP energy per Si atom -5569.431233 kJ/mol
# Density = 2.471263 g / cm^3
# Si number density = 24.769010 Si / 1000 Ang^3
#
#
#
# Elastic Constant Matrix: (Units=GPa)
#
#
# Indices 1 2 3 4 5 6 
#
# 1 265.9811 9.0106 0.7640 0.0000 0.0000 0.0000
# 2 9.0106 30.0741 7.4605 0.0000 0.0000 0.0000
# 3 0.7640 7.4605 45.3610 0.0000 0.0000 0.0000
# 4 0.0000 0.0000 0.0000 14.1093 0.0000 0.0000
# 5 0.0000 0.0000 0.0000 0.0000 19.9239 0.0000
# 6 0.0000 0.0000 0.0000 0.0000 0.0000 23.6730
#
#
#
# Elastic Compliance Matrix: (Units=1/GPa)
#
#
# Indices 1 2 3 4 5 6 
#
# 1 0.003799 -0.001170 0.000128 0.000000 0.000000 0.000000
# 2 -0.001170 0.035026 -0.005741 0.000000 0.000000 0.000000
# 3 0.000128 -0.005741 0.022987 0.000000 0.000000 0.000000
# 4 0.000000 0.000000 0.000000 0.070875 0.000000 0.000000
# 5 0.000000 0.000000 0.000000 0.000000 0.050191 0.000000
# 6 0.000000 0.000000 0.000000 0.000000 0.000000 0.042242
#
#
# Mechanical properties :
#
#
# Convention : Reuss Voigt Hill
#
# Bulk Modulus (GPa) = 20.72662 41.76514 31.24588
# Shear Modulus (GPa) = 19.62569 33.15334 26.38952
#
# Velocity S-wave (km/s) = 2.81792 3.66252 3.26763
# Velocity P-wave (km/s) = 4.35588 5.89779 5.18448
#
# Compressibility (1/GPa) = 0.04824714
#
# Stress axis : x y z
#
# Youngs Moduli (GPa) = 263.23172 28.55025 43.50211
#
# Poissons Ratio (x) = 0.03341 -0.00559
# Poissons Ratio (y) = 0.30800 0.24974
# Poissons Ratio (z) = -0.03381 0.16391
#
# Static dielectric constant tensor:
#      x y z
#    x 2.176700 0.000000 0.000000 
#    y 0.000000 2.118910 0.000000 
#    z 0.000000 0.000000 1.908230 
# 
# From -- ./inp_files/12800.got.cif
#   From: 2010.05.17/outbox.cif.g08.bks.cpg/sg46_7_cif.got.tgz:12800.got - 2010.06.03 19:58:25.
