data_PCOD9377789
_publ_section_title
;
Structure prediction by ZEFSAII (Michael W. Deem and Ramdas Pophale) SiO2 
 PCOD9377789
Probable space group: I M A 2
;
_chemical_formula_sum "Si O2"
_cell_formula_units_Z 64
_cell_length_a 18.028610
_cell_length_b 19.350626
_cell_length_c 7.955549
_cell_angle_alpha 90.000000
_cell_angle_beta 90.000000
_cell_angle_gamma 90.000000
_cell_volume 2775.411722
_symmetry_space_group_name_H-M "I M A 2"
_symmetry_group_IT_number 46
_symmetry_cell_setting 'orthorhombic'
loop_
_space_group_symop_operation_xyz
x,y,z
-x,-y,z
1/2-x,y,z
1/2+x,-y,z
1/2+x,1/2+y,1/2+z
1/2-x,1/2-y,1/2+z
-x,1/2+y,1/2+z
x,1/2-y,1/2+z
loop_
_atom_site_type_symbol
_atom_site_label
_atom_site_fract_x
_atom_site_fract_y
_atom_site_fract_z
Si Si1 0.602257 0.045373 0.513910
Si Si2 0.339108 0.772661 0.403812
Si Si3 0.163033 0.291833 0.771936
Si Si4 0.444108 0.091042 0.380656
Si Si5 0.662699 0.142155 0.746378
Si Si6 0.334665 0.897609 0.194568
Si Si7 0.421264 0.481720 0.514286
Si Si8 0.165288 0.353439 0.394112
O O1 0.529211 0.085053 0.441453
O O2 0.620876 0.073304 0.696686
O O3 0.664666 0.063589 0.375945
O O4 0.593372 0.964032 0.504441
O O5 0.250000 0.767950 0.379173
O O6 0.349277 0.810531 0.579411
O O7 0.365563 0.693849 0.389392
O O8 0.365821 0.823319 0.254820
O O9 0.250000 0.297212 0.832897
O O10 0.102795 0.338737 0.870150
O O11 0.163638 0.320468 0.582312
O O12 0.140925 0.211229 0.780060
O O13 0.439290 0.056524 0.194553
O O14 0.750000 0.127902 0.761457
O O15 0.250000 0.888678 0.137627
O O16 0.376802 0.949203 0.069617
O O17 0.500000 0.500000 0.436805
O O18 0.379033 0.424324 0.406999
O O19 0.250000 0.369862 0.350208
#
# Coordination Sequence:
#
# PCOD9377789 Si02
#       8
#     8   8   8   8   8   8   8   8
#     4   9  15  26  41  64  91 116 153 194 237 278
#     4   8  15  26  41  61  87 115 146 184 220 260
#     4   9  18  32  50  73  99 126 163 203 245 297
#     4   9  16  28  43  67  95 121 148 199 244 275
#     4   9  16  27  42  62  88 117 147 183 222 267
#     4   9  15  25  43  65  89 120 155 194 235 279
#     4  10  16  28  45  70  99 124 155 204 245 283
#     4   9  18  32  52  76 100 129 164 204 248 295
#
# _framework density 23.059642
#
# number of rings (size 3 to 8) (size 9 to 14) (size 15 to 20)
#    0.000    3.000    2.500    1.500    0.000    3.500 
#    2.250    0.000    0.000    1.500    3.250    7.000 
#    0.000    0.000    0.000    0.000    0.000    0.000 
#
# Total GULP energy -178532.604239 kJ/mol
# GULP energy per Si atom -5579.143882 kJ/mol
# Density = 2.300716 g / cm^3
# Si number density = 23.059642 Si / 1000 Ang^3
#
#
#
# Elastic Constant Matrix: (Units=GPa)
#
#
# Indices 1 2 3 4 5 6 
#
# 1 36.2341 26.8520 5.2897 0.0000 0.0000 0.0000
# 2 26.8520 105.3382 3.5036 0.0000 0.0000 0.0000
# 3 5.2897 3.5036 74.0551 0.0000 0.0000 0.0000
# 4 0.0000 0.0000 0.0000 30.2099 0.0000 0.0000
# 5 0.0000 0.0000 0.0000 0.0000 6.0484 0.0000
# 6 0.0000 0.0000 0.0000 0.0000 0.0000 29.5357
#
#
#
# Elastic Compliance Matrix: (Units=1/GPa)
#
#
# Indices 1 2 3 4 5 6 
#
# 1 0.034332 -0.008684 -0.002041 0.000000 0.000000 0.000000
# 2 -0.008684 0.011705 0.000067 0.000000 0.000000 0.000000
# 3 -0.002041 0.000067 0.013646 0.000000 0.000000 0.000000
# 4 0.000000 0.000000 0.000000 0.033102 0.000000 0.000000
# 5 0.000000 0.000000 0.000000 0.000000 0.165332 0.000000
# 6 0.000000 0.000000 0.000000 0.000000 0.000000 0.033857
#
#
# Mechanical properties :
#
#
# Convention : Reuss Voigt Hill
#
# Bulk Modulus (GPa) = 26.06533 31.87976 28.97254
# Shear Modulus (GPa) = 15.33370 25.15760 20.24565
#
# Velocity S-wave (km/s) = 2.58148 3.30658 2.96627
# Velocity P-wave (km/s) = 4.49592 5.33225 4.93185
#
# Compressibility (1/GPa) = 0.03836515
#
# Stress axis : x y z
#
# Youngs Moduli (GPa) = 29.12773 85.43667 73.28080
#
# Poissons Ratio (x) = 0.74190 0.14960
# Poissons Ratio (y) = 0.25293 -0.00487
# Poissons Ratio (z) = 0.05946 -0.00568
#
# Static dielectric constant tensor:
#      x y z
#    x 1.866210 0.000000 0.000000 
#    y 0.000000 1.905710 0.000000 
#    z 0.000000 0.000000 1.964130 
# 
# From -- ./inp_files/12050.got.cif
#   From: 2010.05.17/outbox.cif.g08.bks.cpg/sg46_7_cif.got.tgz:12050.got - 2010.06.03 19:58:25.
