data_PCOD9377284
_publ_section_title
;
Structure prediction by ZEFSAII (Michael W. Deem and Ramdas Pophale) SiO2 
 PCOD9377284
Probable space group: I B A 2
;
_chemical_formula_sum "Si O2"
_cell_formula_units_Z 40
_cell_length_a 8.953124
_cell_length_b 22.220564
_cell_length_c 9.330288
_cell_angle_alpha 90.000000
_cell_angle_beta 90.000000
_cell_angle_gamma 90.000000
_cell_volume 1856.199823
_symmetry_space_group_name_H-M "I B A 2"
_symmetry_group_IT_number 45
_symmetry_cell_setting 'orthorhombic'
loop_
_space_group_symop_operation_xyz
x,y,z
-x,-y,z
-x,y,1/2+z
x,-y,1/2+z
1/2+x,1/2+y,1/2+z
1/2-x,1/2-y,1/2+z
1/2-x,1/2+y,z
1/2+x,1/2-y,z
loop_
_atom_site_type_symbol
_atom_site_label
_atom_site_fract_x
_atom_site_fract_y
_atom_site_fract_z
Si Si1 0.688836 0.938642 0.676160
Si Si2 0.116788 0.123659 0.037479
Si Si3 0.500000 0.500000 0.613460
Si Si4 0.000000 0.500000 0.926006
Si Si5 0.555653 0.308379 0.311834
Si Si6 0.778111 0.315900 0.795442
O O1 0.861899 0.962327 0.685476
O O2 0.608681 0.963191 0.533198
O O3 0.601543 0.962689 0.815248
O O4 0.674754 0.866365 0.682573
O O5 0.254277 0.147464 0.943910
O O6 0.976825 0.156435 0.958943
O O7 0.131798 0.146908 0.198787
O O8 0.086939 0.053050 0.031962
O O9 0.388834 0.296253 0.255043
O O10 0.631504 0.244197 0.320079
#
# Coordination Sequence:
#
# PCOD9377284 Si02
#       6
#     8   8   4   4   8   8
#     4  11  24  47  70 108 137 197 230 307 353 436
#     4  10  24  41  70 103 132 185 229 304 347 417
#     4  12  22  48  78 104 146 176 262 286 358 438
#     4  10  26  46  68 104 156 176 238 292 386 418
#     4  10  24  43  65  99 137 179 239 286 355 422
#     4  10  24  43  66 100 137 184 241 281 363 406
#
# _framework density 21.549403999999999
#
# number of rings (size 3 to 8) (size 9 to 14) (size 15 to 20)
#    1.200    0.400    2.000    1.200    2.800    8.800 
#   10.800    0.000    0.000    0.000    0.000    0.000 
#    0.000    0.000    0.000    0.000    0.000    0.000 
#
# Total GULP energy -111442.749202 kJ/mol
# GULP energy per Si atom -5572.137460 kJ/mol
# Density = 2.150036 g / cm^3
# Si number density = 21.549404 Si / 1000 Ang^3
#
#
#
# Elastic Constant Matrix: (Units=GPa)
#
#
# Indices 1 2 3 4 5 6 
#
# 1 34.4745 6.1998 2.8226 0.0000 0.0002 0.0000
# 2 6.1998 151.1909 17.1373 0.0000 0.0000 0.0000
# 3 2.8226 17.1373 84.2738 0.0000 0.0009 0.0000
# 4 0.0000 0.0000 0.0000 22.0392 0.0002 0.0000
# 5 0.0002 0.0000 0.0009 0.0002 -5.3102 0.0000
# 6 0.0000 0.0000 0.0000 0.0000 0.0000 45.8350
#
#
#
# Elastic Compliance Matrix: (Units=1/GPa)
#
#
# Indices 1 2 3 4 5 6 
#
# 1 0.029269 -0.001115 -0.000754 0.000000 0.000001 0.000000
# 2 -0.001115 0.006813 -0.001348 0.000000 0.000000 0.000000
# 3 -0.000754 -0.001348 0.012165 0.000000 0.000002 0.000000
# 4 0.000000 0.000000 0.000000 0.045374 0.000002 0.000000
# 5 0.000001 0.000000 0.000002 0.000002 -0.188316 0.000000
# 6 0.000000 0.000000 0.000000 0.000000 0.000000 0.021817
#
#
# Mechanical properties :
#
#
# Convention : Reuss Voigt Hill
#
# Bulk Modulus (GPa) = 23.91524 35.80649 29.86086
# Shear Modulus (GPa) = -95.22574 28.76477 -33.23048
#
# Velocity S-wave (km/s) = -6.65473 3.65750 -3.93117
# Velocity P-wave (km/s) = 6.92281 5.87269 2.59199
#
# Compressibility (1/GPa) = 0.04181435
#
# Stress axis : x y z
#
# Youngs Moduli (GPa) = 34.16571 146.78541 82.20003
#
# Poissons Ratio (x) = 0.16364 0.06195
# Poissons Ratio (y) = 0.03809 0.11081
# Poissons Ratio (z) = 0.02575 0.19787
#
# Static dielectric constant tensor:
#      x y z
#    x 1.862290 0.000000 0.000000 
#    y 0.000000 1.778730 0.000000 
#    z 0.000000 0.000000 1.801900 
# 
# From -- ./inp_files/1284.got.cif
#   From: 2010.05.17/outbox.cif.g08.bks.cpg/sg45_1_cif.got.tgz:1284.got - 2010.06.03 19:51:22.
