data_PCOD9377832
_publ_section_title
;
Structure prediction by ZEFSAII (Michael W. Deem and Ramdas Pophale) SiO2 
 PCOD9377832
Probable space group: I M A 2
;
_chemical_formula_sum "Si O2"
_cell_formula_units_Z 64
_cell_length_a 14.371773
_cell_length_b 15.043172
_cell_length_c 14.048350
_cell_angle_alpha 90.000000
_cell_angle_beta 90.000000
_cell_angle_gamma 90.000000
_cell_volume 3037.211872
_symmetry_space_group_name_H-M "I M A 2"
_symmetry_group_IT_number 46
_symmetry_cell_setting 'orthorhombic'
loop_
_space_group_symop_operation_xyz
x,y,z
-x,-y,z
1/2-x,y,z
1/2+x,-y,z
1/2+x,1/2+y,1/2+z
1/2-x,1/2-y,1/2+z
-x,1/2+y,1/2+z
x,1/2-y,1/2+z
loop_
_atom_site_type_symbol
_atom_site_label
_atom_site_fract_x
_atom_site_fract_y
_atom_site_fract_z
Si Si1 0.356756 0.542914 0.830080
Si Si2 0.145190 0.119512 0.979608
Si Si3 0.857191 0.379765 0.045087
Si Si4 0.534483 0.641477 0.814796
Si Si5 0.636550 0.510120 0.206029
Si Si6 0.142676 0.195199 0.760597
Si Si7 0.361425 0.573188 0.407751
Si Si8 0.017440 0.766682 0.990606
O O1 0.250000 0.546876 0.795633
O O2 0.357508 0.580085 0.938428
O O3 0.434683 0.604575 0.780070
O O4 0.397744 0.443142 0.827519
O O5 0.250000 0.130343 0.015459
O O6 0.143530 0.156520 0.869941
O O7 0.069013 0.178680 0.031455
O O8 0.123034 0.014692 0.972577
O O9 0.750000 0.359762 0.068744
O O10 0.916659 0.291186 0.056507
O O11 0.891824 0.455356 0.115237
O O12 0.582333 0.717318 0.753226
O O13 0.519057 0.693325 0.914791
O O14 0.750000 0.515761 0.209567
O O15 0.604616 0.611501 0.202737
O O16 0.610002 0.458657 0.302156
O O17 0.250000 0.214093 0.736416
O O18 0.250000 0.590999 0.408165
O O19 0.419474 0.658513 0.438682
#
# Coordination Sequence:
#
# PCOD9377832 Si02
#       8
#     8   8   8   8   8   8   8   8
#     4   9  17  29  45  65  95 133 166 209 262 307
#     4   8  15  26  41  65  97 130 173 219 262 300
#     4   9  17  29  46  71 105 143 172 205 258 323
#     4   9  17  27  43  64  98 120 169 213 257 302
#     4   8  15  28  46  70 106 143 173 203 253 319
#     4   8  13  24  44  67  92 129 170 209 251 301
#     4   9  16  27  45  70 102 134 169 217 268 315
#     4  10  17  26  45  67 101 130 175 216 267 306
#
# _framework density 21.071957999999999
#
# number of rings (size 3 to 8) (size 9 to 14) (size 15 to 20)
#    0.000    3.250    0.000    2.625    0.000    1.000 
#    0.000    0.000   33.000    0.000    0.000    1.750 
#   15.000    0.750    3.750   31.750    1.500    0.000 
#
# Total GULP energy -178511.635379 kJ/mol
# GULP energy per Si atom -5578.488606 kJ/mol
# Density = 2.102400 g / cm^3
# Si number density = 21.071958 Si / 1000 Ang^3
#
#
#
# Elastic Constant Matrix: (Units=GPa)
#
#
# Indices 1 2 3 4 5 6 
#
# 1 116.2992 57.6078 16.1712 0.0000 0.0000 0.0000
# 2 57.6078 122.1753 15.4579 0.0000 0.0000 0.0000
# 3 16.1712 15.4579 14.5395 0.0000 0.0000 0.0000
# 4 0.0000 0.0000 0.0000 19.1720 0.0000 0.0000
# 5 0.0000 0.0000 0.0000 0.0000 3.4736 0.0000
# 6 0.0000 0.0000 0.0000 0.0000 0.0000 36.9458
#
#
#
# Elastic Compliance Matrix: (Units=1/GPa)
#
#
# Indices 1 2 3 4 5 6 
#
# 1 0.012068 -0.004612 -0.008518 0.000000 0.000000 0.000000
# 2 -0.004612 0.011220 -0.006799 0.000000 0.000000 0.000000
# 3 -0.008518 -0.006799 0.085481 0.000000 0.000000 0.000000
# 4 0.000000 0.000000 0.000000 0.052159 0.000000 0.000000
# 5 0.000000 0.000000 0.000000 0.000000 0.287890 0.000000
# 6 0.000000 0.000000 0.000000 0.000000 0.000000 0.027067
#
#
# Mechanical properties :
#
#
# Convention : Reuss Voigt Hill
#
# Bulk Modulus (GPa) = 14.51173 47.94307 31.22740
# Shear Modulus (GPa) = 9.28139 22.83675 16.05907
#
# Velocity S-wave (km/s) = 2.10099 3.29561 2.76362
# Velocity P-wave (km/s) = 3.57593 6.10597 5.00350
#
# Compressibility (1/GPa) = 0.06890975
#
# Stress axis : x y z
#
# Youngs Moduli (GPa) = 82.86623 89.12693 11.69854
#
# Poissons Ratio (x) = 0.41109 0.09965
# Poissons Ratio (y) = 0.38221 0.07954
# Poissons Ratio (z) = 0.70587 0.60595
#
# Static dielectric constant tensor:
#      x y z
#    x 1.808980 0.000000 0.000000 
#    y 0.000000 1.728490 0.000000 
#    z 0.000000 0.000000 1.766150 
# 
# From -- ./inp_files/19719.got.cif
#   From: 2010.05.17/outbox.cif.g08.bks.cpg/sg46_10_cif.got.tgz:19719.got - 2010.06.03 19:58:25.
