data_PCOD9377057
_publ_section_title
;
Structure prediction by ZEFSAII (Michael W. Deem and Ramdas Pophale) SiO2 
 PCOD9377057
Probable space group: I B A 2
;
_chemical_formula_sum "Si O2"
_cell_formula_units_Z 48
_cell_length_a 8.163640
_cell_length_b 27.451324
_cell_length_c 9.062473
_cell_angle_alpha 90.000000
_cell_angle_beta 90.000000
_cell_angle_gamma 90.000000
_cell_volume 2030.924910
_symmetry_space_group_name_H-M "I B A 2"
_symmetry_group_IT_number 45
_symmetry_cell_setting 'orthorhombic'
loop_
_space_group_symop_operation_xyz
x,y,z
-x,-y,z
-x,y,1/2+z
x,-y,1/2+z
1/2+x,1/2+y,1/2+z
1/2-x,1/2-y,1/2+z
1/2-x,1/2+y,z
1/2+x,1/2-y,z
loop_
_atom_site_type_symbol
_atom_site_label
_atom_site_fract_x
_atom_site_fract_y
_atom_site_fract_z
Si Si1 0.410230 0.295454 0.250000
Si Si2 0.168989 0.389697 0.595040
Si Si3 0.017067 0.901981 0.251108
Si Si4 0.871650 0.043330 0.006815
Si Si5 0.977290 0.552993 0.854906
Si Si6 0.728060 0.283070 0.070984
O O1 0.379023 0.353005 0.245394
O O2 0.599888 0.291438 0.204675
O O3 0.361362 0.277765 0.413180
O O4 0.321633 0.264745 0.123413
O O5 0.353261 0.399262 0.651218
O O6 0.059344 0.406547 0.732455
O O7 0.161114 0.331982 0.561621
O O8 0.115715 0.424456 0.460868
O O9 0.947125 0.912219 0.411762
O O10 0.121585 0.945123 0.179847
O O11 0.686250 0.041572 0.951885
O O12 0.000000 0.000000 0.978875
O O13 0.000000 0.500000 0.782141
#
# Coordination Sequence:
#
# PCOD9377057 Si02
#       6
#     8   8   8   8   8   8
#     4  11  24  44  70  99 134 173 220 277 333 400
#     4  10  24  43  64  94 130 171 217 269 328 391
#     4  10  22  42  65  92 128 169 215 266 322 389
#     4  11  23  39  64  94 127 170 217 265 324 391
#     4  11  24  41  63  93 129 169 217 270 325 390
#     4  11  25  45  70 100 134 174 223 275 336 401
#
# _framework density 23.634549
#
# number of rings (size 3 to 8) (size 9 to 14) (size 15 to 20)
#    0.000    1.333    0.000    5.000    0.000   13.333 
#    0.000    0.000    0.000    0.000    0.000    0.000 
#    0.000    0.000    0.000    0.000    0.000    0.000 
#
# Total GULP energy -134154.109667 kJ/mol
# GULP energy per Si atom -5589.754569 kJ/mol
# Density = 2.358076 g / cm^3
# Si number density = 23.634549 Si / 1000 Ang^3
#
#
#
# Elastic Constant Matrix: (Units=GPa)
#
#
# Indices 1 2 3 4 5 6 
#
# 1 45.7919 38.0459 39.1384 0.0030 -0.0002 0.0000
# 2 38.0459 103.8574 42.2228 0.0035 -0.0003 -0.0002
# 3 39.1384 42.2228 116.4348 -0.0083 0.0006 0.0009
# 4 0.0030 0.0035 -0.0083 24.4763 0.0003 0.0001
# 5 -0.0002 -0.0003 0.0006 0.0003 42.0605 -0.0001
# 6 0.0000 -0.0002 0.0009 0.0001 -0.0001 41.3615
#
#
#
# Elastic Compliance Matrix: (Units=1/GPa)
#
#
# Indices 1 2 3 4 5 6 
#
# 1 0.038153 -0.010278 -0.009098 -0.000006 0.000000 0.000000
# 2 -0.010278 0.014062 -0.001645 -0.000001 0.000000 0.000000
# 3 -0.009098 -0.001645 0.012243 0.000005 0.000000 0.000000
# 4 -0.000006 -0.000001 0.000005 0.040856 0.000000 0.000000
# 5 0.000000 0.000000 0.000000 0.000000 0.023775 0.000000
# 6 0.000000 0.000000 0.000000 0.000000 0.000000 0.024177
#
#
# Mechanical properties :
#
#
# Convention : Reuss Voigt Hill
#
# Bulk Modulus (GPa) = 44.60714 56.09982 50.35348
# Shear Modulus (GPa) = 24.65729 31.35810 28.00770
#
# Velocity S-wave (km/s) = 3.23348 3.64647 3.44616
# Velocity P-wave (km/s) = 5.73194 6.44336 6.09803
#
# Compressibility (1/GPa) = 0.02241793
#
# Stress axis : x y z
#
# Youngs Moduli (GPa) = 26.21017 71.11212 81.67949
#
# Poissons Ratio (x) = 0.73089 0.74309
# Poissons Ratio (y) = 0.26939 0.13433
# Poissons Ratio (z) = 0.23845 0.11695
#
# Static dielectric constant tensor:
#      x y z
#    x 1.905820 0.000000 0.000000 
#    y 0.000000 1.936580 0.000000 
#    z 0.000000 0.000000 1.912240 
# 
# From -- ./inp_files/1074.got.cif
#   From: 2010.05.17/outbox.cif.g08.bks.cpg/sg45_1_cif.got.tgz:1074.got - 2010.06.03 19:51:22.
