data_PCOD9377647
_publ_section_title
;
Structure prediction by ZEFSAII (Michael W. Deem and Ramdas Pophale) SiO2 
 PCOD9377647
Probable space group: I B A 2
;
_chemical_formula_sum "Si O2"
_cell_formula_units_Z 48
_cell_length_a 18.872565
_cell_length_b 9.436203
_cell_length_c 12.187156
_cell_angle_alpha 90.000000
_cell_angle_beta 90.000000
_cell_angle_gamma 90.000000
_cell_volume 2170.353996
_symmetry_space_group_name_H-M "I B A 2"
_symmetry_group_IT_number 45
_symmetry_cell_setting 'orthorhombic'
loop_
_space_group_symop_operation_xyz
x,y,z
-x,-y,z
-x,y,1/2+z
x,-y,1/2+z
1/2+x,1/2+y,1/2+z
1/2-x,1/2-y,1/2+z
1/2-x,1/2+y,z
1/2+x,1/2-y,z
loop_
_atom_site_type_symbol
_atom_site_label
_atom_site_fract_x
_atom_site_fract_y
_atom_site_fract_z
Si Si1 0.392243 0.022268 0.367680
Si Si2 0.250929 0.985311 0.240265
Si Si3 0.500000 0.000000 0.558922
Si Si4 0.134206 0.158256 0.883354
Si Si5 0.958974 0.277320 0.718589
Si Si6 0.808587 0.760364 0.110818
Si Si7 0.000000 0.000000 0.354290
O O1 0.311254 0.987244 0.334673
O O2 0.435959 0.903796 0.300950
O O3 0.428744 0.013113 0.486744
O O4 0.396753 0.190463 0.342513
O O5 0.179856 0.919377 0.290732
O O6 0.278551 0.893745 0.137573
O O7 0.235652 0.138022 0.190471
O O8 0.508034 0.141373 0.631469
O O9 0.069920 0.053595 0.917982
O O10 0.186021 0.195539 0.984650
O O11 0.888649 0.235594 0.653000
O O12 0.982727 0.136304 0.779761
#
# Coordination Sequence:
#
# PCOD9377647 Si02
#       7
#     8   8   4   8   8   8   4
#     4  11  25  47  72 105 142 191 237 303 361 436
#     4  11  25  48  72 105 148 183 245 308 356 440
#     4  12  22  46  74 106 138 194 240 284 368 446
#     4  12  25  47  72 105 145 194 244 298 371 432
#     4  11  25  45  70 104 147 180 240 300 362 433
#     4  11  25  46  72 107 139 193 243 295 371 430
#     4  12  26  48  70 104 152 188 238 314 360 428
#
# _framework density 22.116209000000001
#
# number of rings (size 3 to 8) (size 9 to 14) (size 15 to 20)
#    0.000    0.667    5.000    2.500    2.333    0.667 
#    3.000    0.000    0.000    0.000    0.000    0.000 
#    0.000    0.000    0.000    0.000    0.000    0.000 
#
# Total GULP energy -134034.211269 kJ/mol
# GULP energy per Si atom -5584.758803 kJ/mol
# Density = 2.206587 g / cm^3
# Si number density = 22.116209 Si / 1000 Ang^3
#
#
#
# Elastic Constant Matrix: (Units=GPa)
#
#
# Indices 1 2 3 4 5 6 
#
# 1 76.8585 40.3878 16.9249 0.0000 0.0000 0.0000
# 2 40.3878 124.9886 20.4125 0.0000 0.0000 0.0000
# 3 16.9249 20.4125 67.4810 0.0000 0.0000 0.0000
# 4 0.0000 0.0000 0.0000 30.7550 0.0000 0.0000
# 5 0.0000 0.0000 0.0000 0.0000 22.1835 0.0000
# 6 0.0000 0.0000 0.0000 0.0000 0.0000 41.7879
#
#
#
# Elastic Compliance Matrix: (Units=1/GPa)
#
#
# Indices 1 2 3 4 5 6 
#
# 1 0.016091 -0.004777 -0.002591 0.000000 0.000000 0.000000
# 2 -0.004777 0.009834 -0.001777 0.000000 0.000000 0.000000
# 3 -0.002591 -0.001777 0.016006 0.000000 0.000000 0.000000
# 4 0.000000 0.000000 0.000000 0.032515 0.000000 0.000000
# 5 0.000000 0.000000 0.000000 0.000000 0.045079 0.000000
# 6 0.000000 0.000000 0.000000 0.000000 0.000000 0.023930
#
#
# Mechanical properties :
#
#
# Convention : Reuss Voigt Hill
#
# Bulk Modulus (GPa) = 42.29511 47.19761 44.74636
# Shear Modulus (GPa) = 29.47661 31.71880 30.59770
#
# Velocity S-wave (km/s) = 3.65472 3.79118 3.72357
# Velocity P-wave (km/s) = 6.08070 6.36797 6.22599
#
# Compressibility (1/GPa) = 0.02364340
#
# Stress axis : x y z
#
# Youngs Moduli (GPa) = 62.14479 101.68430 62.47530
#
# Poissons Ratio (x) = 0.48570 0.16188
# Poissons Ratio (y) = 0.29684 0.11101
# Poissons Ratio (z) = 0.16102 0.18068
#
# Static dielectric constant tensor:
#      x y z
#    x 1.856770 0.000000 0.000000 
#    y 0.000000 1.782470 0.000000 
#    z 0.000000 0.000000 1.835230 
# 
# From -- ./inp_files/5637.got.cif
#   From: 2010.05.17/outbox.cif.g08.bks.cpg/sg45_3_cif.got.tgz:5637.got - 2010.06.03 19:51:22.
