data_PCOD9377136
_publ_section_title
;
Structure prediction by ZEFSAII (Michael W. Deem and Ramdas Pophale) SiO2 
 PCOD9377136
Probable space group: I B A 2
;
_chemical_formula_sum "Si O2"
_cell_formula_units_Z 32
_cell_length_a 12.977423
_cell_length_b 12.031440
_cell_length_c 9.292840
_cell_angle_alpha 90.000000
_cell_angle_beta 90.000000
_cell_angle_gamma 90.000000
_cell_volume 1450.956960
_symmetry_space_group_name_H-M "I B A 2"
_symmetry_group_IT_number 45
_symmetry_cell_setting 'orthorhombic'
loop_
_space_group_symop_operation_xyz
x,y,z
-x,-y,z
-x,y,1/2+z
x,-y,1/2+z
1/2+x,1/2+y,1/2+z
1/2-x,1/2-y,1/2+z
1/2-x,1/2+y,z
1/2+x,1/2-y,z
loop_
_atom_site_type_symbol
_atom_site_label
_atom_site_fract_x
_atom_site_fract_y
_atom_site_fract_z
Si Si1 0.253127 0.566539 0.598010
Si Si2 0.110158 0.043160 0.872013
Si Si3 0.581341 0.779567 0.484232
Si Si4 0.578850 0.102238 0.676286
O O1 0.326663 0.547711 0.461991
O O2 0.320854 0.580840 0.739049
O O3 0.175032 0.667549 0.573867
O O4 0.182216 0.456280 0.619233
O O5 0.089400 0.148160 0.974390
O O6 0.000000 0.000000 0.820533
O O7 0.590283 0.832059 0.324838
O O8 0.475833 0.820900 0.557574
O O9 0.500000 0.000000 0.703992
#
# Coordination Sequence:
#
# PCOD9377136 Si02
#       4
#     8   8   8   8
#     4  11  25  49  71 103 144 187 245 292 361 437
#     4  12  29  46  70 105 152 189 237 302 358 430
#     4  11  26  43  77 103 140 189 238 300 367 420
#     4  10  22  46  72 105 135 182 243 299 348 435
#
# _framework density 22.054409
#
# number of rings (size 3 to 8) (size 9 to 14) (size 15 to 20)
#    0.000    1.000    2.500    3.000   14.000    0.000 
#    0.000    0.000    0.000    0.000    0.000    0.000 
#    0.000    0.000    0.000    0.000    0.000    0.000 
#
# Total GULP energy -89626.557771 kJ/mol
# GULP energy per Si atom -5601.659861 kJ/mol
# Density = 2.200421 g / cm^3
# Si number density = 22.054409 Si / 1000 Ang^3
#
#
#
# Elastic Constant Matrix: (Units=GPa)
#
#
# Indices 1 2 3 4 5 6 
#
# 1 125.8610 26.7044 31.3798 0.0000 0.0000 0.0000
# 2 26.7044 62.1540 -4.7431 0.0000 0.0000 0.0000
# 3 31.3798 -4.7431 70.3240 0.0000 0.0000 0.0000
# 4 0.0000 0.0000 0.0000 17.1935 0.0000 0.0000
# 5 0.0000 0.0000 0.0000 0.0000 37.9990 0.0000
# 6 0.0000 0.0000 0.0000 0.0000 0.0000 12.6057
#
#
#
# Elastic Compliance Matrix: (Units=1/GPa)
#
#
# Indices 1 2 3 4 5 6 
#
# 1 0.010160 -0.004736 -0.004853 0.000000 0.000000 0.000000
# 2 -0.004736 0.018380 0.003353 0.000000 0.000000 0.000000
# 3 -0.004853 0.003353 0.016611 0.000000 0.000000 0.000000
# 4 0.000000 0.000000 0.000000 0.058162 0.000000 0.000000
# 5 0.000000 0.000000 0.000000 0.000000 0.026316 0.000000
# 6 0.000000 0.000000 0.000000 0.000000 0.000000 0.079329
#
#
# Mechanical properties :
#
#
# Convention : Reuss Voigt Hill
#
# Bulk Modulus (GPa) = 30.60029 40.55792 35.57911
# Shear Modulus (GPa) = 21.52176 27.22617 24.37396
#
# Velocity S-wave (km/s) = 3.12725 3.51736 3.32802
# Velocity P-wave (km/s) = 5.19082 5.90979 5.56193
#
# Compressibility (1/GPa) = 0.03267943
#
# Stress axis : x y z
#
# Youngs Moduli (GPa) = 98.42546 54.40832 60.19927
#
# Poissons Ratio (x) = 0.25765 0.29214
# Poissons Ratio (y) = 0.46610 -0.20183
# Poissons Ratio (z) = 0.47765 -0.18242
#
# Static dielectric constant tensor:
#      x y z
#    x 1.797090 0.000000 0.000000 
#    y 0.000000 1.800300 0.000000 
#    z 0.000000 0.000000 1.766700 
# 
# From -- ./inp_files/1181.got.cif
#   From: 2010.05.17/outbox.cif.g08.bks.cpg/sg45_1_cif.got.tgz:1181.got - 2010.06.03 19:51:22.
