data_PCOD9377308
_publ_section_title
;
Structure prediction by ZEFSAII (Michael W. Deem and Ramdas Pophale) SiO2 
 PCOD9377308
Probable space group: I B A 2
;
_chemical_formula_sum "Si O2"
_cell_formula_units_Z 56
_cell_length_a 13.406339
_cell_length_b 16.053084
_cell_length_c 10.934514
_cell_angle_alpha 90.000000
_cell_angle_beta 90.000000
_cell_angle_gamma 90.000000
_cell_volume 2353.250503
_symmetry_space_group_name_H-M "I B A 2"
_symmetry_group_IT_number 45
_symmetry_cell_setting 'orthorhombic'
loop_
_space_group_symop_operation_xyz
x,y,z
-x,-y,z
-x,y,1/2+z
x,-y,1/2+z
1/2+x,1/2+y,1/2+z
1/2-x,1/2-y,1/2+z
1/2-x,1/2+y,z
1/2+x,1/2-y,z
loop_
_atom_site_type_symbol
_atom_site_label
_atom_site_fract_x
_atom_site_fract_y
_atom_site_fract_z
Si Si1 0.000000 0.000000 0.837481
Si Si2 0.208664 0.427915 0.559987
Si Si3 0.967544 0.666693 0.888551
Si Si4 0.663970 0.551975 0.152962
Si Si5 0.000000 0.500000 0.540206
Si Si6 0.331286 0.862219 0.291605
Si Si7 0.433569 0.661691 0.470307
Si Si8 0.751753 0.186667 0.785476
O O1 0.906695 0.995795 0.745955
O O2 0.002507 0.915616 0.917201
O O3 0.294662 0.497054 0.540290
O O4 0.100726 0.464581 0.598858
O O5 0.189558 0.377335 0.435621
O O6 0.249242 0.372017 0.668801
O O7 0.049598 0.645149 0.783410
O O8 0.858449 0.687586 0.841330
O O9 0.011319 0.749054 0.957983
O O10 0.962255 0.580456 0.963441
O O11 0.766579 0.570397 0.222538
O O12 0.603458 0.631648 0.103195
O O13 0.284565 0.777562 0.243828
O O14 0.334364 0.665621 0.386982
#
# Coordination Sequence:
#
# PCOD9377308 Si02
#       8
#     4   8   8   8   4   8   8   8
#     4  12  24  46  68 112 136 188 246 314 372 442
#     4  11  25  45  71 111 147 196 249 305 375 445
#     4  10  24  46  71 104 145 192 248 298 363 446
#     4  12  25  43  77  99 146 195 240 316 377 441
#     4  10  24  42  72 102 148 190 242 304 356 446
#     4  10  26  45  68 108 145 189 250 302 369 450
#     4  11  25  48  71 110 145 192 252 301 379 443
#     4  11  24  46  74 102 147 191 242 310 366 440
#
# _framework density 23.796870999999999
#
# number of rings (size 3 to 8) (size 9 to 14) (size 15 to 20)
#    0.000    1.143    1.429    3.000   12.000    1.143 
#    0.000    0.000    0.000    0.000    0.000    0.000 
#    0.000    0.000    0.000    0.000    0.000    0.000 
#
# Total GULP energy -156584.566934 kJ/mol
# GULP energy per Si atom -5592.305962 kJ/mol
# Density = 2.374271 g / cm^3
# Si number density = 23.796871 Si / 1000 Ang^3
#
#
#
# Elastic Constant Matrix: (Units=GPa)
#
#
# Indices 1 2 3 4 5 6 
#
# 1 96.1438 28.7391 6.6900 0.0000 0.0000 0.0000
# 2 28.7391 109.1272 19.5473 0.0000 0.0000 0.0000
# 3 6.6900 19.5473 45.8611 0.0000 0.0000 0.0000
# 4 0.0000 0.0000 0.0000 -142.9239 0.0000 0.0000
# 5 0.0000 0.0000 0.0000 0.0000 31.6336 0.0000
# 6 0.0000 0.0000 0.0000 0.0000 0.0000 37.5795
#
#
#
# Elastic Compliance Matrix: (Units=1/GPa)
#
#
# Indices 1 2 3 4 5 6 
#
# 1 0.011297 -0.002901 -0.000411 0.000000 0.000000 0.000000
# 2 -0.002901 0.010666 -0.004123 0.000000 0.000000 0.000000
# 3 -0.000411 -0.004123 0.023622 0.000000 0.000000 0.000000
# 4 0.000000 0.000000 0.000000 -0.006997 0.000000 0.000000
# 5 0.000000 0.000000 0.000000 0.000000 0.031612 0.000000
# 6 0.000000 0.000000 0.000000 0.000000 0.000000 0.026610
#
#
# Mechanical properties :
#
#
# Convention : Reuss Voigt Hill
#
# Bulk Modulus (GPa) = 32.55831 40.12052 36.33941
# Shear Modulus (GPa) = 41.01031 -1.66512 19.67260
#
# Velocity S-wave (km/s) = 4.15583 -0.83740 2.87834
# Velocity P-wave (km/s) = 6.06130 3.99515 5.13325
#
# Compressibility (1/GPa) = 0.03071413
#
# Stress axis : x y z
#
# Youngs Moduli (GPa) = 88.51912 93.75364 42.33285
#
# Poissons Ratio (x) = 0.27202 0.01741
# Poissons Ratio (y) = 0.25683 0.17454
# Poissons Ratio (z) = 0.03641 0.38655
#
# Static dielectric constant tensor:
#      x y z
#    x 1.877930 0.000000 0.000000 
#    y 0.000000 1.962300 0.000000 
#    z 0.000000 0.000000 1.894520 
# 
# From -- ./inp_files/4183.got.cif
#   From: 2010.05.17/outbox.cif.g08.bks.cpg/sg45_3_cif.got.tgz:4183.got - 2010.06.03 19:51:22.
