data_PCOD9377959
_publ_section_title
;
Structure prediction by ZEFSAII (Michael W. Deem and Ramdas Pophale) SiO2 
 PCOD9377959
Probable space group: I M A 2
;
_chemical_formula_sum "Si O2"
_cell_formula_units_Z 64
_cell_length_a 8.680421
_cell_length_b 18.955049
_cell_length_c 27.287589
_cell_angle_alpha 90.000000
_cell_angle_beta 90.000000
_cell_angle_gamma 90.000000
_cell_volume 4489.840009
_symmetry_space_group_name_H-M "I M A 2"
_symmetry_group_IT_number 46
_symmetry_cell_setting 'orthorhombic'
loop_
_space_group_symop_operation_xyz
x,y,z
-x,-y,z
1/2-x,y,z
1/2+x,-y,z
1/2+x,1/2+y,1/2+z
1/2-x,1/2-y,1/2+z
-x,1/2+y,1/2+z
x,1/2-y,1/2+z
loop_
_atom_site_type_symbol
_atom_site_label
_atom_site_fract_x
_atom_site_fract_y
_atom_site_fract_z
Si Si1 0.434621 0.837051 0.994400
Si Si2 0.427449 0.206467 0.145535
Si Si3 0.072531 0.205459 0.543347
Si Si4 0.934687 0.078496 0.897582
Si Si5 0.437456 0.342894 0.193620
Si Si6 0.436360 0.078230 0.086993
Si Si7 0.565208 0.578327 0.292439
Si Si8 0.566413 0.077772 0.598621
O O1 0.250000 0.838343 0.999431
O O2 0.476406 0.869039 0.941633
O O3 0.494383 0.758042 0.004695
O O4 0.506470 0.887433 0.036153
O O5 0.250000 0.194219 0.160073
O O6 0.427703 0.249927 0.094302
O O7 0.494373 0.262875 0.183596
O O8 0.493438 0.130805 0.130355
O O9 0.250000 0.192024 0.530476
O O10 0.987765 0.133158 0.557062
O O11 0.750000 0.073640 0.894839
O O12 0.999768 0.101582 0.844936
O O13 0.000000 0.000000 0.907496
O O14 0.250000 0.343161 0.189045
O O15 0.478077 0.372658 0.246712
O O16 0.502254 0.392159 0.150354
O O17 0.250000 0.078432 0.086846
O O18 0.500000 0.000000 0.092106
O O19 0.500000 0.500000 0.283370
O O20 0.750000 0.574691 0.295246
O O21 0.750000 0.075632 0.600736
O O22 0.500000 0.000000 0.590356
#
# Coordination Sequence:
#
# PCOD9377959 Si02
#       8
#     8   8   8   8   8   8   8   8
#     4  10  19  30  44  62  82 109 143 175 209 253
#     4   7  13  26  41  56  77 104 133 164 203 244
#     4   9  17  30  45  61  83 110 138 172 210 249
#     4  10  20  31  43  59  83 111 142 178 213 249
#     4   9  17  30  45  61  81 109 144 178 213 254
#     4  10  18  27  41  60  83 112 140 172 208 246
#     4  10  19  29  43  60  81 108 140 177 214 251
#     4  11  20  29  43  63  87 115 145 176 208 248
#
# _framework density 14.254405
#
# number of rings (size 3 to 8) (size 9 to 14) (size 15 to 20)
#    0.000    2.500    0.000    6.000    0.000    5.000 
#    0.000    0.625    0.000    0.000    0.000    0.000 
#    0.000    1.000    0.000    9.250    0.000    2.750 
#
# Total GULP energy -178265.338886 kJ/mol
# GULP energy per Si atom -5570.791840 kJ/mol
# Density = 1.422196 g / cm^3
# Si number density = 14.254405 Si / 1000 Ang^3
#
#
#
# Elastic Constant Matrix: (Units=GPa)
#
#
# Indices 1 2 3 4 5 6 
#
# 1 57.2867 39.1091 35.3880 0.0000 0.0000 0.0000
# 2 39.1091 126.3397 68.9950 0.0000 0.0000 0.0000
# 3 35.3880 68.9950 99.5331 0.0000 0.0000 0.0000
# 4 0.0000 0.0000 0.0000 26.9033 0.0000 0.0000
# 5 0.0000 0.0000 0.0000 0.0000 16.2675 0.0000
# 6 0.0000 0.0000 0.0000 0.0000 0.0000 21.5476
#
#
#
# Elastic Compliance Matrix: (Units=1/GPa)
#
#
# Indices 1 2 3 4 5 6 
#
# 1 0.023811 -0.004421 -0.005401 0.000000 0.000000 0.000000
# 2 -0.004421 0.013558 -0.007826 0.000000 0.000000 0.000000
# 3 -0.005401 -0.007826 0.017392 0.000000 0.000000 0.000000
# 4 0.000000 0.000000 0.000000 0.037170 0.000000 0.000000
# 5 0.000000 0.000000 0.000000 0.000000 0.061472 0.000000
# 6 0.000000 0.000000 0.000000 0.000000 0.000000 0.046409
#
#
# Mechanical properties :
#
#
# Convention : Reuss Voigt Hill
#
# Bulk Modulus (GPa) = 51.37683 63.34927 57.36305
# Shear Modulus (GPa) = 20.69569 22.25485 21.47527
#
# Velocity S-wave (km/s) = 3.81449 3.95557 3.88567
# Velocity P-wave (km/s) = 7.45127 8.08705 7.77566
#
# Compressibility (1/GPa) = 0.01946403
#
# Stress axis : x y z
#
# Youngs Moduli (GPa) = 41.99784 73.75913 57.49754
#
# Poissons Ratio (x) = 0.32611 0.31054
# Poissons Ratio (y) = 0.18568 0.44998
# Poissons Ratio (z) = 0.22683 0.57724
#
# Static dielectric constant tensor:
#      x y z
#    x 1.483880 0.000000 0.000000 
#    y 0.000000 1.478870 0.000000 
#    z 0.000000 0.000000 1.459340 
# 
# From -- ./inp_files/24404.got.cif
#   From: 2010.05.17/outbox.cif.g08.bks.cpg/sg46_13_cif.got.tgz:24404.got - 2010.06.03 19:58:25.
