data_PCOD9377128
_publ_section_title
;
Structure prediction by ZEFSAII (Michael W. Deem and Ramdas Pophale) SiO2 
 PCOD9377128
Probable space group: I B A 2
;
_chemical_formula_sum "Si O2"
_cell_formula_units_Z 32
_cell_length_a 9.244112
_cell_length_b 9.710582
_cell_length_c 12.735067
_cell_angle_alpha 90.000000
_cell_angle_beta 90.000000
_cell_angle_gamma 90.000000
_cell_volume 1143.172301
_symmetry_space_group_name_H-M "I B A 2"
_symmetry_group_IT_number 45
_symmetry_cell_setting 'orthorhombic'
loop_
_space_group_symop_operation_xyz
x,y,z
-x,-y,z
-x,y,1/2+z
x,-y,1/2+z
1/2+x,1/2+y,1/2+z
1/2-x,1/2-y,1/2+z
1/2-x,1/2+y,z
1/2+x,1/2-y,z
loop_
_atom_site_type_symbol
_atom_site_label
_atom_site_fract_x
_atom_site_fract_y
_atom_site_fract_z
Si Si1 0.168791 0.363104 0.065860
Si Si2 0.956106 0.339445 0.884416
Si Si3 0.671257 0.512737 0.384415
Si Si4 0.668789 0.863105 0.202970
O O1 0.250001 0.249999 0.134415
O O2 0.135456 0.499999 0.134415
O O3 0.280969 0.145901 0.884415
O O4 0.280916 0.426326 0.984342
O O5 0.036879 0.298454 0.774679
O O6 0.036880 0.298452 0.994151
O O7 0.780914 0.073673 0.784488
O O8 0.500000 0.500000 0.384414
O O9 0.500000 0.000000 0.884417
#
# Coordination Sequence:
#
# PCOD9377128 Si02
#       4
#     8   8   8   8
#     4  10  22  45  76 107 146 197 254 315 387 471
#     4   8  20  42  74 108 145 199 255 310 384 470
#     4  10  24  48  72 112 158 199 258 328 387 468
#     4  10  22  45  76 107 146 197 254 315 387 471
#
# _framework density 27.992280999999998
#
# number of rings (size 3 to 8) (size 9 to 14) (size 15 to 20)
#    0.000    3.000    0.000    0.000    0.000   18.000 
#    0.000   47.500    0.000    0.000    0.000    0.000 
#    0.000    0.000    0.000    0.000    0.000    0.000 
#
# Total GULP energy -89439.351306 kJ/mol
# GULP energy per Si atom -5589.959457 kJ/mol
# Density = 2.792857 g / cm^3
# Si number density = 27.992281 Si / 1000 Ang^3
#
#
#
# Elastic Constant Matrix: (Units=GPa)
#
#
# Indices 1 2 3 4 5 6 
#
# 1 322.2051 89.1197 141.7851 0.0000 0.0000 0.0000
# 2 89.1197 139.4957 90.3888 0.0000 0.0000 0.0000
# 3 141.7851 90.3888 237.7576 0.0000 0.0000 0.0000
# 4 0.0000 0.0000 0.0000 63.1955 0.0000 0.0000
# 5 0.0000 0.0000 0.0000 0.0000 35.9257 0.0000
# 6 0.0000 0.0000 0.0000 0.0000 0.0000 42.3565
#
#
#
# Elastic Compliance Matrix: (Units=1/GPa)
#
#
# Indices 1 2 3 4 5 6 
#
# 1 0.004428 -0.001483 -0.002077 0.000000 0.000000 0.000000
# 2 -0.001483 0.010009 -0.002921 0.000000 0.000000 0.000000
# 3 -0.002077 -0.002921 0.006555 0.000000 0.000000 0.000000
# 4 0.000000 0.000000 0.000000 0.015824 0.000000 0.000000
# 5 0.000000 0.000000 0.000000 0.000000 0.027835 0.000000
# 6 0.000000 0.000000 0.000000 0.000000 0.000000 0.023609
#
#
# Mechanical properties :
#
#
# Convention : Reuss Voigt Hill
#
# Bulk Modulus (GPa) = 124.52652 149.11617 136.82135
# Shear Modulus (GPa) = 48.12490 53.50652 50.81571
#
# Velocity S-wave (km/s) = 4.15085 4.37678 4.26531
# Velocity P-wave (km/s) = 8.21920 8.88413 8.55813
#
# Compressibility (1/GPa) = 0.00803042
#
# Stress axis : x y z
#
# Youngs Moduli (GPa) = 225.85564 99.91374 152.56481
#
# Poissons Ratio (x) = 0.14819 0.31680
# Poissons Ratio (y) = 0.33498 0.44557
# Poissons Ratio (z) = 0.46899 0.29180
#
# Static dielectric constant tensor:
#      x y z
#    x 2.376730 0.000000 0.000000 
#    y 0.000000 2.307610 0.000000 
#    z 0.000000 0.000000 2.335100 
# 
# From -- ./inp_files/5929.got.cif
#   From: 2010.05.17/outbox.cif.g08.bks.cpg/sg45_3_cif.got.tgz:5929.got - 2010.06.03 19:51:22.
