data_PCOD9377986
_publ_section_title
;
Structure prediction by ZEFSAII (Michael W. Deem and Ramdas Pophale) SiO2 
 PCOD9377986
Probable space group: I M A 2
;
_chemical_formula_sum "Si O2"
_cell_formula_units_Z 64
_cell_length_a 8.679445
_cell_length_b 19.270263
_cell_length_c 21.659016
_cell_angle_alpha 90.000000
_cell_angle_beta 90.000000
_cell_angle_gamma 90.000000
_cell_volume 3622.582790
_symmetry_space_group_name_H-M "I M A 2"
_symmetry_group_IT_number 46
_symmetry_cell_setting 'orthorhombic'
loop_
_space_group_symop_operation_xyz
x,y,z
-x,-y,z
1/2-x,y,z
1/2+x,-y,z
1/2+x,1/2+y,1/2+z
1/2-x,1/2-y,1/2+z
-x,1/2+y,1/2+z
x,1/2-y,1/2+z
loop_
_atom_site_type_symbol
_atom_site_label
_atom_site_fract_x
_atom_site_fract_y
_atom_site_fract_z
Si Si1 0.566607 0.073181 0.165510
Si Si2 0.934003 0.711095 0.614463
Si Si3 0.065114 0.924566 0.423762
Si Si4 0.064751 0.126464 0.294717
Si Si5 0.074010 0.427025 0.259570
Si Si6 0.437022 0.224275 0.746777
Si Si7 0.430404 0.816970 0.527832
Si Si8 0.572807 0.927958 0.610577
O O1 0.750000 0.070654 0.169834
O O2 0.513044 0.136992 0.123158
O O3 0.495954 0.089274 0.233109
O O4 0.500000 0.000000 0.143768
O O5 0.750000 0.703866 0.617597
O O6 0.980134 0.755882 0.676009
O O7 0.981812 0.749070 0.551510
O O8 0.250000 0.927978 0.426155
O O9 0.015059 0.861406 0.468718
O O10 0.007949 0.906771 0.355245
O O11 0.000000 0.000000 0.441906
O O12 0.250000 0.120935 0.296752
O O13 0.023109 0.208108 0.287013
O O14 0.250000 0.427357 0.281809
O O15 0.003764 0.350167 0.271185
O O16 0.075671 0.428200 0.184664
O O17 0.000000 0.500000 0.279756
O O18 0.250000 0.218494 0.745999
O O19 0.250000 0.802123 0.520952
O O20 0.462951 0.869864 0.583706
O O21 0.750000 0.917999 0.589767
O O22 0.500000 0.000000 0.589823
#
# Coordination Sequence:
#
# PCOD9377986 Si02
#       8
#     8   8   8   8   8   8   8   8
#     4  11  21  35  55  81 110 139 171 213 265 320
#     4  10  19  34  53  75 103 136 172 213 261 315
#     4  11  24  39  53  73 104 140 182 225 264 311
#     4  10  20  35  56  77 100 136 180 224 270 317
#     4   9  16  27  41  64  95 128 160 197 243 294
#     4   8  15  30  49  70  97 129 165 207 258 310
#     4  11  22  34  49  71 100 136 175 215 259 310
#     4  10  18  28  43  63  92 130 167 206 245 293
#
# _framework density 17.666952999999999
#
# number of rings (size 3 to 8) (size 9 to 14) (size 15 to 20)
#    0.000    2.000    1.250    4.500    0.000    3.500 
#    0.000    1.250    0.000    0.000    0.000    0.875 
#    0.000    4.000    0.000    0.000    0.000    0.000 
#
# Total GULP energy -178412.096361 kJ/mol
# GULP energy per Si atom -5575.378011 kJ/mol
# Density = 1.762674 g / cm^3
# Si number density = 17.666953 Si / 1000 Ang^3
#
#
#
# Elastic Constant Matrix: (Units=GPa)
#
#
# Indices 1 2 3 4 5 6 
#
# 1 48.9274 27.2599 13.8382 0.0000 0.0000 0.0000
# 2 27.2599 131.9539 23.0413 0.0000 0.0000 0.0000
# 3 13.8382 23.0413 48.4862 0.0000 0.0000 0.0000
# 4 0.0000 0.0000 0.0000 25.5923 0.0000 0.0000
# 5 0.0000 0.0000 0.0000 0.0000 13.6501 0.0000
# 6 0.0000 0.0000 0.0000 0.0000 0.0000 27.7430
#
#
#
# Elastic Compliance Matrix: (Units=1/GPa)
#
#
# Indices 1 2 3 4 5 6 
#
# 1 0.024130 -0.004125 -0.004927 0.000000 0.000000 0.000000
# 2 -0.004125 0.008969 -0.003085 0.000000 0.000000 0.000000
# 3 -0.004927 -0.003085 0.023497 0.000000 0.000000 0.000000
# 4 0.000000 0.000000 0.000000 0.039074 0.000000 0.000000
# 5 0.000000 0.000000 0.000000 0.000000 0.073260 0.000000
# 6 0.000000 0.000000 0.000000 0.000000 0.000000 0.036045
#
#
# Mechanical properties :
#
#
# Convention : Reuss Voigt Hill
#
# Bulk Modulus (GPa) = 30.93788 39.73849 35.33818
# Shear Modulus (GPa) = 20.83142 24.41228 22.62185
#
# Velocity S-wave (km/s) = 3.43755 3.72130 3.58224
# Velocity P-wave (km/s) = 5.77109 6.40359 6.09555
#
# Compressibility (1/GPa) = 0.03232283
#
# Stress axis : x y z
#
# Youngs Moduli (GPa) = 41.44236 111.49262 42.55926
#
# Poissons Ratio (x) = 0.45986 0.20968
# Poissons Ratio (y) = 0.17093 0.13130
# Poissons Ratio (z) = 0.20418 0.34397
#
# Static dielectric constant tensor:
#      x y z
#    x 1.600420 0.000000 0.000000 
#    y 0.000000 1.638380 0.000000 
#    z 0.000000 0.000000 1.588050 
# 
# From -- ./inp_files/21338.got.cif
#   From: 2010.05.17/outbox.cif.g08.bks.cpg/sg46_11_cif.got.tgz:21338.got - 2010.06.03 19:58:25.
