data_PCOD9377644
_publ_section_title
;
Structure prediction by ZEFSAII (Michael W. Deem and Ramdas Pophale) SiO2 
 PCOD9377644
Probable space group: I B A 2
;
_chemical_formula_sum "Si O2"
_cell_formula_units_Z 48
_cell_length_a 8.084013
_cell_length_b 18.621158
_cell_length_c 13.463961
_cell_angle_alpha 90.000000
_cell_angle_beta 90.000000
_cell_angle_gamma 90.000000
_cell_volume 2026.779642
_symmetry_space_group_name_H-M "I B A 2"
_symmetry_group_IT_number 45
_symmetry_cell_setting 'orthorhombic'
loop_
_space_group_symop_operation_xyz
x,y,z
-x,-y,z
-x,y,1/2+z
x,-y,1/2+z
1/2+x,1/2+y,1/2+z
1/2-x,1/2-y,1/2+z
1/2-x,1/2+y,z
1/2+x,1/2-y,z
loop_
_atom_site_type_symbol
_atom_site_label
_atom_site_fract_x
_atom_site_fract_y
_atom_site_fract_z
Si Si1 0.212202 0.207608 0.946580
Si Si2 0.209965 0.715852 0.161616
Si Si3 0.883231 0.341638 0.746721
Si Si4 0.343531 0.635678 0.448596
Si Si5 0.768758 0.955648 0.645505
Si Si6 0.609493 0.590140 0.732328
O O1 0.307375 0.172231 0.854342
O O2 0.221741 0.294983 0.938493
O O3 0.028287 0.172688 0.955784
O O4 0.312988 0.195159 0.048087
O O5 0.259960 0.797789 0.173564
O O6 0.367431 0.671748 0.199549
O O7 0.060794 0.692770 0.230578
O O8 0.885052 0.421151 0.702443
O O9 0.301720 0.580931 0.538709
O O10 0.340605 0.589509 0.347120
O O11 0.922084 0.932269 0.716045
O O12 0.782876 0.041076 0.657092
#
# Coordination Sequence:
#
# PCOD9377644 Si02
#       6
#     8   8   8   8   8   8
#     4  12  24  39  72 105 135 180 230 297 352 405
#     4  12  24  42  68 101 140 178 235 293 349 413
#     4  12  24  42  68 101 140 178 235 293 349 413
#     4  12  24  42  73 106 139 181 242 284 359 413
#     4  11  25  44  67 100 139 187 230 285 344 418
#     4  11  25  44  67 100 139 187 230 285 344 418
#
# _framework density 23.682888999999999
#
# number of rings (size 3 to 8) (size 9 to 14) (size 15 to 20)
#    0.000    0.333    6.667    3.000    0.000    4.667 
#    0.000    0.000    0.000    4.000    0.000    0.000 
#    0.000    0.000    0.000    0.000    0.000    0.000 
#
# Total GULP energy -134113.921484 kJ/mol
# GULP energy per Si atom -5588.080062 kJ/mol
# Density = 2.362899 g / cm^3
# Si number density = 23.682889 Si / 1000 Ang^3
#
#
#
# Elastic Constant Matrix: (Units=GPa)
#
#
# Indices 1 2 3 4 5 6 
#
# 1 69.6723 6.1459 -1.0855 0.0000 0.0000 0.0000
# 2 6.1459 83.7315 20.0368 0.0000 0.0000 0.0000
# 3 -1.0855 20.0368 183.6166 0.0000 0.0000 0.0000
# 4 0.0000 0.0000 0.0000 33.5074 0.0000 0.0000
# 5 0.0000 0.0000 0.0000 0.0000 17.4060 0.0000
# 6 0.0000 0.0000 0.0000 0.0000 0.0000 31.7327
#
#
#
# Elastic Compliance Matrix: (Units=1/GPa)
#
#
# Indices 1 2 3 4 5 6 
#
# 1 0.014454 -0.001110 0.000207 0.000000 0.000000 0.000000
# 2 -0.001110 0.012348 -0.001354 0.000000 0.000000 0.000000
# 3 0.000207 -0.001354 0.005595 0.000000 0.000000 0.000000
# 4 0.000000 0.000000 0.000000 0.029844 0.000000 0.000000
# 5 0.000000 0.000000 0.000000 0.000000 0.057451 0.000000
# 6 0.000000 0.000000 0.000000 0.000000 0.000000 0.031513
#
#
# Mechanical properties :
#
#
# Convention : Reuss Voigt Hill
#
# Bulk Modulus (GPa) = 35.86542 43.02386 39.44464
# Shear Modulus (GPa) = 30.30006 37.32409 33.81207
#
# Velocity S-wave (km/s) = 3.58076 3.97419 3.78259
# Velocity P-wave (km/s) = 5.68091 6.26618 5.98070
#
# Compressibility (1/GPa) = 0.02788201
#
# Stress axis : x y z
#
# Youngs Moduli (GPa) = 69.18465 80.98174 178.72744
#
# Poissons Ratio (x) = 0.08992 -0.03693
# Poissons Ratio (y) = 0.07682 0.24201
# Poissons Ratio (z) = -0.01429 0.10965
#
# Static dielectric constant tensor:
#      x y z
#    x 1.925160 0.000000 0.000000 
#    y 0.000000 1.941170 0.000000 
#    z 0.000000 0.000000 1.910710 
# 
# From -- ./inp_files/5613.got.cif
#   From: 2010.05.17/outbox.cif.g08.bks.cpg/sg45_3_cif.got.tgz:5613.got - 2010.06.03 19:51:22.
