data_PCOD9377713
_publ_section_title
;
Structure prediction by ZEFSAII (Michael W. Deem and Ramdas Pophale) SiO2 
 PCOD9377713
Probable space group: I B A 2
;
_chemical_formula_sum "Si O2"
_cell_formula_units_Z 16
_cell_length_a 4.985551
_cell_length_b 9.405940
_cell_length_c 8.672616
_cell_angle_alpha 90.000000
_cell_angle_beta 90.000000
_cell_angle_gamma 90.000000
_cell_volume 406.691864
_symmetry_space_group_name_H-M "I B A 2"
_symmetry_group_IT_number 45
_symmetry_cell_setting 'orthorhombic'
loop_
_space_group_symop_operation_xyz
x,y,z
-x,-y,z
-x,y,1/2+z
x,-y,1/2+z
1/2+x,1/2+y,1/2+z
1/2-x,1/2-y,1/2+z
1/2-x,1/2+y,z
1/2+x,1/2-y,z
loop_
_atom_site_type_symbol
_atom_site_label
_atom_site_fract_x
_atom_site_fract_y
_atom_site_fract_z
Si Si1 0.781680 0.065102 0.164100
Si Si2 0.488871 0.699582 0.908142
O O1 0.678869 0.159022 0.326191
O O2 0.090822 0.105570 0.251469
O O3 0.500000 0.000000 0.120615
O O4 0.739682 0.204431 0.023091
O O5 0.500000 0.500000 0.020368
#
# Coordination Sequence:
#
# PCOD9377713 Si02
#       2
#     8   8
#     4  12  26  46  72 108 149 196 251 318 384 454
#     4  12  25  46  73 106 146 198 254 312 379 458
#
# _framework density 39.341827000000002
#
# number of rings (size 3 to 8) (size 9 to 14) (size 15 to 20)
#    0.000    0.000    0.000   10.500    0.000    4.000 
#    0.000    0.000    0.000    0.000    0.000    0.000 
#    0.000    0.000    0.000    0.000    0.000    0.000 
#
# Total GULP energy -44551.756805 kJ/mol
# GULP energy per Si atom -5568.969601 kJ/mol
# Density = 3.925228 g / cm^3
# Si number density = 39.341827 Si / 1000 Ang^3
#
#
#
# Elastic Constant Matrix: (Units=GPa)
#
#
# Indices 1 2 3 4 5 6 
#
# 1 586.4731 139.6586 161.6241 0.0003 0.0000 -0.0001
# 2 139.6586 250.0475 154.9606 0.0028 0.0000 -0.0002
# 3 161.6241 154.9606 517.7259 0.0060 -0.0001 -0.0003
# 4 0.0003 0.0028 0.0060 310.2485 0.0000 -0.0001
# 5 0.0000 0.0000 -0.0001 0.0000 134.6889 0.0001
# 6 -0.0001 -0.0002 -0.0003 -0.0001 0.0001 168.3405
#
#
#
# Elastic Compliance Matrix: (Units=1/GPa)
#
#
# Indices 1 2 3 4 5 6 
#
# 1 0.002020 -0.000905 -0.000360 0.000000 0.000000 0.000000
# 2 -0.000905 0.005316 -0.001308 0.000000 0.000000 0.000000
# 3 -0.000360 -0.001308 0.002435 0.000000 0.000000 0.000000
# 4 0.000000 0.000000 0.000000 0.003223 0.000000 0.000000
# 5 0.000000 0.000000 0.000000 0.000000 0.007425 0.000000
# 6 0.000000 0.000000 0.000000 0.000000 0.000000 0.005940
#
#
# Mechanical properties :
#
#
# Convention : Reuss Voigt Hill
#
# Bulk Modulus (GPa) = 216.24716 251.85925 234.05321
# Shear Modulus (GPa) = 151.29952 182.52243 166.91098
#
# Velocity S-wave (km/s) = 6.20815 6.81870 6.52058
# Velocity P-wave (km/s) = 10.31861 11.23166 10.78480
#
# Compressibility (1/GPa) = 0.00462434
#
# Stress axis : x y z
#
# Youngs Moduli (GPa) = 495.10424 188.12082 410.60842
#
# Poissons Ratio (x) = 0.17030 0.14765
# Poissons Ratio (y) = 0.44820 0.53726
# Poissons Ratio (z) = 0.17803 0.24615
#
# Static dielectric constant tensor:
#      x y z
#    x 2.518210 0.000000 0.000000 
#    y 0.000000 0.069080 0.000000 
#    z 0.000000 0.000000 3.342200 
# 
# From -- ./inp_files/801.got.cif
#   From: 2010.05.17/outbox.cif.g08.bks.cpg/sg45_1_cif.got.tgz:801.got - 2010.06.03 19:51:22.
