data_PCOD9377014
_publ_section_title
;
Structure prediction by ZEFSAII (Michael W. Deem and Ramdas Pophale) SiO2 
 PCOD9377014
Probable space group: I B A 2
;
_chemical_formula_sum "Si O2"
_cell_formula_units_Z 52
_cell_length_a 19.795247
_cell_length_b 8.144954
_cell_length_c 14.546314
_cell_angle_alpha 90.000000
_cell_angle_beta 90.000000
_cell_angle_gamma 90.000000
_cell_volume 2345.322225
_symmetry_space_group_name_H-M "I B A 2"
_symmetry_group_IT_number 45
_symmetry_cell_setting 'orthorhombic'
loop_
_space_group_symop_operation_xyz
x,y,z
-x,-y,z
-x,y,1/2+z
x,-y,1/2+z
1/2+x,1/2+y,1/2+z
1/2-x,1/2-y,1/2+z
1/2-x,1/2+y,z
1/2+x,1/2-y,z
loop_
_atom_site_type_symbol
_atom_site_label
_atom_site_fract_x
_atom_site_fract_y
_atom_site_fract_z
Si Si1 0.861481 0.169381 0.438590
Si Si2 0.000000 0.000000 0.471349
Si Si3 0.864392 0.502492 0.858141
Si Si4 0.724550 0.591672 0.261509
Si Si5 0.678332 0.695892 0.642754
Si Si6 0.445149 0.850096 0.496480
Si Si7 0.580042 0.997491 0.669347
O O1 0.929576 0.063412 0.426592
O O2 0.871988 0.365285 0.438490
O O3 0.817667 0.157151 0.346781
O O4 0.825602 0.136888 0.536832
O O5 0.021168 0.173867 0.517449
O O6 0.790795 0.473613 0.816387
O O7 0.904596 0.563757 0.769641
O O8 0.900509 0.344738 0.903526
O O9 0.679320 0.458013 0.210253
O O10 0.755572 0.706382 0.180817
O O11 0.616149 0.821277 0.659524
O O12 0.500000 0.000000 0.482154
O O13 0.398129 0.891648 0.583790
O O14 0.500000 0.000000 0.661900
#
# Coordination Sequence:
#
# PCOD9377014 Si02
#       7
#     8   4   8   8   8   8   8
#     4  12  26  47  72 112 148 201 253 321 387 462
#     4  12  28  44  80 114 148 202 258 322 380 472
#     4  11  23  44  71 102 147 200 241 311 392 452
#     4  11  27  45  73 110 148 196 262 316 385 474
#     4  11  25  47  72 108 152 199 255 316 390 467
#     4  11  22  46  72 105 151 197 251 307 390 455
#     4  10  22  40  73 101 141 199 246 306 377 459
#
# _framework density 22.171792
#
# number of rings (size 3 to 8) (size 9 to 14) (size 15 to 20)
#    0.000    0.923    4.615    1.385    6.462    1.231 
#    0.000    1.538    0.000    0.000    0.000    0.000 
#    0.000    0.000    0.000    0.000    0.000    0.000 
#
# Total GULP energy -144782.349140 kJ/mol
# GULP energy per Si atom -5568.551890 kJ/mol
# Density = 2.212133 g / cm^3
# Si number density = 22.171792 Si / 1000 Ang^3
#
#
#
# Elastic Constant Matrix: (Units=GPa)
#
#
# Indices 1 2 3 4 5 6 
#
# 1 92.5394 19.0058 49.4565 0.0000 0.0000 0.0000
# 2 19.0058 82.7877 31.5344 0.0000 0.0000 0.0000
# 3 49.4565 31.5344 139.4716 0.0000 0.0000 0.0000
# 4 0.0000 0.0000 0.0000 27.0890 0.0000 0.0000
# 5 0.0000 0.0000 0.0000 0.0000 83.7177 0.0000
# 6 0.0000 0.0000 0.0000 0.0000 0.0000 26.5079
#
#
#
# Elastic Compliance Matrix: (Units=1/GPa)
#
#
# Indices 1 2 3 4 5 6 
#
# 1 0.013478 -0.001394 -0.004464 0.000000 0.000000 0.000000
# 2 -0.001394 0.013362 -0.002527 0.000000 0.000000 0.000000
# 3 -0.004464 -0.002527 0.009324 0.000000 0.000000 0.000000
# 4 0.000000 0.000000 0.000000 0.036915 0.000000 0.000000
# 5 0.000000 0.000000 0.000000 0.000000 0.011945 0.000000
# 6 0.000000 0.000000 0.000000 0.000000 0.000000 0.037725
#
#
# Mechanical properties :
#
#
# Convention : Reuss Voigt Hill
#
# Bulk Modulus (GPa) = 51.56121 57.19911 54.38016
# Shear Modulus (GPa) = 34.25044 41.78306 38.01675
#
# Velocity S-wave (km/s) = 3.93463 4.34581 4.14532
# Velocity P-wave (km/s) = 6.62929 7.14392 6.89141
#
# Compressibility (1/GPa) = 0.01939443
#
# Stress axis : x y z
#
# Youngs Moduli (GPa) = 74.19309 74.84166 107.24724
#
# Poissons Ratio (x) = 0.10431 0.47878
# Poissons Ratio (y) = 0.10341 0.27099
# Poissons Ratio (z) = 0.33122 0.18911
#
# Static dielectric constant tensor:
#      x y z
#    x 1.148720 0.000000 0.000000 
#    y 0.000000 1.927830 0.000000 
#    z 0.000000 0.000000 1.817490 
# 
# From -- ./inp_files/6927.got.cif
#   From: 2010.05.17/outbox.cif.g08.bks.cpg/sg45_4_cif.got.tgz:6927.got - 2010.06.03 19:51:22.
