data_PCOD9377421
_publ_section_title
;
Structure prediction by ZEFSAII (Michael W. Deem and Ramdas Pophale) SiO2 
 PCOD9377421
Probable space group: I B A 2
;
_chemical_formula_sum "Si O2"
_cell_formula_units_Z 48
_cell_length_a 9.461796
_cell_length_b 8.449379
_cell_length_c 24.042043
_cell_angle_alpha 90.000000
_cell_angle_beta 90.000000
_cell_angle_gamma 90.000000
_cell_volume 1922.072393
_symmetry_space_group_name_H-M "I B A 2"
_symmetry_group_IT_number 45
_symmetry_cell_setting 'orthorhombic'
loop_
_space_group_symop_operation_xyz
x,y,z
-x,-y,z
-x,y,1/2+z
x,-y,1/2+z
1/2+x,1/2+y,1/2+z
1/2-x,1/2-y,1/2+z
1/2-x,1/2+y,z
1/2+x,1/2-y,z
loop_
_atom_site_type_symbol
_atom_site_label
_atom_site_fract_x
_atom_site_fract_y
_atom_site_fract_z
Si Si1 0.212035 0.034364 0.821220
Si Si2 0.539717 0.262823 0.358051
Si Si3 0.925307 0.829804 0.974100
Si Si4 0.352709 0.847861 0.545410
Si Si5 0.140323 0.100312 0.205496
Si Si6 0.189848 0.375986 0.126626
O O1 0.360691 0.118369 0.836712
O O2 0.085580 0.167502 0.818004
O O3 0.150231 0.909670 0.866107
O O4 0.209867 0.921289 0.766603
O O5 0.454593 0.242654 0.415494
O O6 0.766459 0.851016 0.996591
O O7 0.000000 0.000000 0.972362
O O8 0.011172 0.729870 0.018858
O O9 0.301284 0.731304 0.594117
O O10 0.363583 0.014017 0.576543
O O11 0.110335 0.261908 0.171263
O O12 0.242095 0.002388 0.166708
O O13 0.000000 0.000000 0.209173
#
# Coordination Sequence:
#
# PCOD9377421 Si02
#       6
#     8   8   8   8   8   8
#     4  11  23  45  73 107 152 197 249 314 381 452
#     4  11  24  44  73 109 154 198 245 312 383 463
#     4  12  24  46  73 110 150 201 248 314 387 459
#     4  11  25  45  73 104 150 195 255 316 381 461
#     4  11  23  45  73 103 149 200 257 320 386 456
#     4  10  25  43  69 105 139 200 252 316 378 453
#
# _framework density 24.973046
#
# number of rings (size 3 to 8) (size 9 to 14) (size 15 to 20)
#    0.000    1.000    5.000    2.000    4.667    1.333 
#    3.000    1.667    0.000    0.000    0.000    0.000 
#    0.000    0.000    0.000    0.000    0.000    0.000 
#
# Total GULP energy -133952.017806 kJ/mol
# GULP energy per Si atom -5581.334075 kJ/mol
# Density = 2.491621 g / cm^3
# Si number density = 24.973046 Si / 1000 Ang^3
#
#
#
# Elastic Constant Matrix: (Units=GPa)
#
#
# Indices 1 2 3 4 5 6 
#
# 1 110.6466 49.9043 40.5812 0.0000 0.0000 0.0000
# 2 49.9043 119.5041 54.3304 0.0000 0.0000 -0.0002
# 3 40.5812 54.3304 133.0938 0.0000 0.0000 -0.0001
# 4 0.0000 0.0000 0.0000 42.6618 0.0000 -0.0001
# 5 0.0000 0.0000 0.0000 0.0000 66.6875 0.0000
# 6 0.0000 -0.0002 -0.0001 -0.0001 0.0000-1026.5436
#
#
#
# Elastic Compliance Matrix: (Units=1/GPa)
#
#
# Indices 1 2 3 4 5 6 
#
# 1 0.011514 -0.003944 -0.001901 0.000000 0.000000 0.000000
# 2 -0.003944 0.011626 -0.003543 0.000000 0.000000 0.000000
# 3 -0.001901 -0.003543 0.009539 0.000000 0.000000 0.000000
# 4 0.000000 0.000000 0.000000 0.023440 0.000000 0.000000
# 5 0.000000 0.000000 0.000000 0.000000 0.014995 0.000000
# 6 0.000000 0.000000 0.000000 0.000000 0.000000 -0.000974
#
#
# Mechanical properties :
#
#
# Convention : Reuss Voigt Hill
#
# Bulk Modulus (GPa) = 71.92590 72.54183 72.23386
# Shear Modulus (GPa) = 53.44720 -168.87697 -57.71488
#
# Velocity S-wave (km/s) = 4.63124 -8.23228 -4.81259
# Velocity P-wave (km/s) = 7.58036 7.82621 1.37618
#
# Compressibility (1/GPa) = 0.01390320
#
# Stress axis : x y z
#
# Youngs Moduli (GPa) = 86.85311 86.01587 104.82844
#
# Poissons Ratio (x) = 0.33924 0.19924
# Poissons Ratio (y) = 0.34255 0.37143
# Poissons Ratio (z) = 0.16508 0.30477
#
# Static dielectric constant tensor:
#      x y z
#    x 2.030900 0.000000 0.000000 
#    y 0.000000 1.945030 0.000000 
#    z 0.000000 0.000000 2.091530 
# 
# From -- ./inp_files/9663.got.cif
#   From: 2010.05.17/outbox.cif.g08.bks.cpg/sg45_5_cif.got.tgz:9663.got - 2010.06.03 19:51:22.
