data_PCOD9377478
_publ_section_title
;
Structure prediction by ZEFSAII (Michael W. Deem and Ramdas Pophale) SiO2 
 PCOD9377478
Probable space group: I B A 2
;
_chemical_formula_sum "Si O2"
_cell_formula_units_Z 52
_cell_length_a 24.985164
_cell_length_b 9.453319
_cell_length_c 9.991861
_cell_angle_alpha 90.000000
_cell_angle_beta 90.000000
_cell_angle_gamma 90.000000
_cell_volume 2360.004883
_symmetry_space_group_name_H-M "I B A 2"
_symmetry_group_IT_number 45
_symmetry_cell_setting 'orthorhombic'
loop_
_space_group_symop_operation_xyz
x,y,z
-x,-y,z
-x,y,1/2+z
x,-y,1/2+z
1/2+x,1/2+y,1/2+z
1/2-x,1/2-y,1/2+z
1/2-x,1/2+y,z
1/2+x,1/2-y,z
loop_
_atom_site_type_symbol
_atom_site_label
_atom_site_fract_x
_atom_site_fract_y
_atom_site_fract_z
Si Si1 0.243434 0.724411 0.521830
Si Si2 0.642702 0.153460 0.443297
Si Si3 0.733836 0.527987 0.694400
Si Si4 0.929827 0.074304 0.958078
Si Si5 0.648220 0.657375 0.350621
Si Si6 0.000000 0.000000 0.212851
Si Si7 0.144011 0.550702 0.225349
O O1 0.295665 0.794896 0.456610
O O2 0.259025 0.565481 0.559427
O O3 0.191067 0.760503 0.440799
O O4 0.229795 0.807179 0.659713
O O5 0.609896 0.295628 0.462334
O O6 0.636220 0.044795 0.567159
O O7 0.620549 0.073636 0.313424
O O8 0.684022 0.457058 0.768413
O O9 0.792724 0.525789 0.757524
O O10 0.966880 0.090545 0.824139
O O11 0.896530 0.929472 0.930327
O O12 0.959395 0.066811 0.102497
O O13 0.627354 0.789276 0.263259
#
# Coordination Sequence:
#
# PCOD9377478 Si02
#       7
#     8   8   8   8   8   4   8
#     4  11  23  35  55  93 146 183 239 257 335 417
#     4  11  23  42  66  98 139 192 221 283 342 428
#     4  11  22  35  52  88 143 195 217 275 306 412
#     4  11  26  46  81  99 137 178 244 301 371 406
#     4  12  23  37  66  97 137 195 231 277 350 422
#     4  10  26  52  72 112 126 166 248 338 350 402
#     4  11  24  40  58  99 151 178 233 271 330 422
#
# _framework density 22.033853000000001
#
# number of rings (size 3 to 8) (size 9 to 14) (size 15 to 20)
#    0.000    0.923    4.615    3.692    6.462    1.231 
#    0.000    0.000    0.000   15.692    0.000    0.000 
#    0.000    0.000    0.000    0.000    0.000    0.000 
#
# Total GULP energy -145065.943706 kJ/mol
# GULP energy per Si atom -5579.459373 kJ/mol
# Density = 2.198370 g / cm^3
# Si number density = 22.033853 Si / 1000 Ang^3
#
#
#
# Elastic Constant Matrix: (Units=GPa)
#
#
# Indices 1 2 3 4 5 6 
#
# 1 53.7686 22.9968 27.0813 0.0000 0.0000 0.0000
# 2 22.9968 83.0400 23.9574 0.0000 0.0000 0.0000
# 3 27.0813 23.9574 93.6802 0.0000 0.0000 0.0000
# 4 0.0000 0.0000 0.0000 39.5832 0.0000 0.0000
# 5 0.0000 0.0000 0.0000 0.0000 33.6169 0.0000
# 6 0.0000 0.0000 0.0000 0.0000 0.0000 1.9398
#
#
#
# Elastic Compliance Matrix: (Units=1/GPa)
#
#
# Indices 1 2 3 4 5 6 
#
# 1 0.023484 -0.004907 -0.005534 0.000000 0.000000 0.000000
# 2 -0.004907 0.014027 -0.002169 0.000000 0.000000 0.000000
# 3 -0.005534 -0.002169 0.012829 0.000000 0.000000 0.000000
# 4 0.000000 0.000000 0.000000 0.025263 0.000000 0.000000
# 5 0.000000 0.000000 0.000000 0.000000 0.029747 0.000000
# 6 0.000000 0.000000 0.000000 0.000000 0.000000 0.515525
#
#
# Mechanical properties :
#
#
# Convention : Reuss Voigt Hill
#
# Bulk Modulus (GPa) = 39.80762 42.06221 40.93491
# Shear Modulus (GPa) = 7.63979 25.45818 16.54898
#
# Velocity S-wave (km/s) = 1.86409 3.40282 2.74354
# Velocity P-wave (km/s) = 4.76853 5.87964 5.35299
#
# Compressibility (1/GPa) = 0.02512082
#
# Stress axis : x y z
#
# Youngs Moduli (GPa) = 42.58180 71.29108 77.94843
#
# Poissons Ratio (x) = 0.34983 0.43136
# Poissons Ratio (y) = 0.20895 0.16904
# Poissons Ratio (z) = 0.23565 0.15461
#
# Static dielectric constant tensor:
#      x y z
#    x 1.827650 0.000000 0.000000 
#    y 0.000000 1.805690 0.000000 
#    z 0.000000 0.000000 1.965670 
# 
# From -- ./inp_files/4866.got.cif
#   From: 2010.05.17/outbox.cif.g08.bks.cpg/sg45_3_cif.got.tgz:4866.got - 2010.06.03 19:51:22.
