data_PCOD9377102
_publ_section_title
;
Structure prediction by ZEFSAII (Michael W. Deem and Ramdas Pophale) SiO2 
 PCOD9377102
Probable space group: I B A 2
;
_chemical_formula_sum "Si O2"
_cell_formula_units_Z 60
_cell_length_a 10.529552
_cell_length_b 8.526031
_cell_length_c 29.017476
_cell_angle_alpha 90.000000
_cell_angle_beta 90.000000
_cell_angle_gamma 90.000000
_cell_volume 2605.052229
_symmetry_space_group_name_H-M "I B A 2"
_symmetry_group_IT_number 45
_symmetry_cell_setting 'orthorhombic'
loop_
_space_group_symop_operation_xyz
x,y,z
-x,-y,z
-x,y,1/2+z
x,-y,1/2+z
1/2+x,1/2+y,1/2+z
1/2-x,1/2-y,1/2+z
1/2-x,1/2+y,z
1/2+x,1/2-y,z
loop_
_atom_site_type_symbol
_atom_site_label
_atom_site_fract_x
_atom_site_fract_y
_atom_site_fract_z
Si Si1 0.374916 0.105628 0.245820
Si Si2 0.897130 0.884209 0.343913
Si Si3 0.838043 0.357312 0.494701
Si Si4 0.926664 0.331960 0.144000
Si Si5 0.000000 0.000000 0.609677
Si Si6 0.260307 0.599817 0.060746
Si Si7 0.440429 0.331239 0.949774
Si Si8 0.264338 0.630357 0.800800
O O1 0.365423 0.173855 0.194749
O O2 0.365731 0.241917 0.283802
O O3 0.500000 0.000000 0.248893
O O4 0.262872 0.985355 0.258594
O O5 0.938249 0.833229 0.394302
O O6 0.853720 0.738415 0.314519
O O7 0.785254 0.014964 0.344327
O O8 0.000000 0.000000 0.321645
O O9 0.823356 0.524463 0.519708
O O10 0.833949 0.244051 0.538674
O O11 0.706009 0.329539 0.466672
O O12 0.962222 0.303549 0.466664
O O13 0.825361 0.350642 0.103351
O O14 0.000000 0.500000 0.142786
O O15 0.002792 0.167716 0.136544
O O16 0.126945 0.010518 0.578953
O O17 0.500000 0.500000 0.964631
#
# Coordination Sequence:
#
# PCOD9377102 Si02
#       8
#     8   8   8   8   4   8   8   8
#     4  10  23  44  68 109 145 183 251 299 374 458
#     4  10  23  42  70 100 141 185 244 298 391 447
#     4  12  25  45  72 101 145 190 247 307 369 439
#     4  11  27  45  71 110 148 197 254 306 369 453
#     4  12  26  48  72 106 146 204 238 316 372 434
#     4  12  25  44  73 100 142 190 249 296 369 444
#     4  11  26  46  70 104 144 186 246 313 369 456
#     4  10  22  43  74 101 142 192 236 314 378 463
#
# _framework density 23.032167999999999
#
# number of rings (size 3 to 8) (size 9 to 14) (size 15 to 20)
#    0.000    1.067    2.667    2.400    7.467    1.067 
#    6.000    0.000    0.000    0.000    0.000    0.000 
#    0.000    0.000    0.000    0.000    0.000    0.000 
#
# Total GULP energy -167404.623551 kJ/mol
# GULP energy per Si atom -5580.154118 kJ/mol
# Density = 2.297975 g / cm^3
# Si number density = 23.032168 Si / 1000 Ang^3
#
#
#
# Elastic Constant Matrix: (Units=GPa)
#
#
# Indices 1 2 3 4 5 6 
#
# 1 90.4442 32.2187 40.6365 0.0000 0.0000 0.0000
# 2 32.2187 115.2305 41.9350 0.0000 0.0000 0.0000
# 3 40.6365 41.9350 96.9522 0.0000 0.0000 0.0000
# 4 0.0000 0.0000 0.0000 29.2158 0.0000 0.0000
# 5 0.0000 0.0000 0.0000 0.0000 36.4048 0.0000
# 6 0.0000 0.0000 0.0000 0.0000 0.0000 38.3119
#
#
#
# Elastic Compliance Matrix: (Units=1/GPa)
#
#
# Indices 1 2 3 4 5 6 
#
# 1 0.014044 -0.002118 -0.004970 0.000000 0.000000 0.000000
# 2 -0.002118 0.010619 -0.003705 0.000000 0.000000 0.000000
# 3 -0.004970 -0.003705 0.014000 0.000000 0.000000 0.000000
# 4 0.000000 0.000000 0.000000 0.034228 0.000000 0.000000
# 5 0.000000 0.000000 0.000000 0.000000 0.027469 0.000000
# 6 0.000000 0.000000 0.000000 0.000000 0.000000 0.026102
#
#
# Mechanical properties :
#
#
# Convention : Reuss Voigt Hill
#
# Bulk Modulus (GPa) = 58.56134 59.13414 58.84774
# Shear Modulus (GPa) = 32.52216 33.30894 32.91555
#
# Velocity S-wave (km/s) = 3.76178 3.80701 3.78446
# Velocity P-wave (km/s) = 6.65951 6.71228 6.68595
#
# Compressibility (1/GPa) = 0.01707611
#
# Stress axis : x y z
#
# Youngs Moduli (GPa) = 71.20369 94.17193 71.42697
#
# Poissons Ratio (x) = 0.19945 0.35502
# Poissons Ratio (y) = 0.15081 0.26466
# Poissons Ratio (z) = 0.35391 0.34893
#
# Static dielectric constant tensor:
#      x y z
#    x 2.035270 0.000000 0.000000 
#    y 0.000000 1.930770 0.000000 
#    z 0.000000 0.000000 1.814800 
# 
# From -- ./inp_files/10024.got.cif
#   From: 2010.05.17/outbox.cif.g08.bks.cpg/sg45_6_cif.got.tgz:10024.got - 2010.06.03 19:51:22.
