data_PCOD9377027
_publ_section_title
;
Structure prediction by ZEFSAII (Michael W. Deem and Ramdas Pophale) SiO2 
 PCOD9377027
Probable space group: I B A 2
;
_chemical_formula_sum "Si O2"
_cell_formula_units_Z 56
_cell_length_a 33.538456
_cell_length_b 5.430975
_cell_length_c 14.082641
_cell_angle_alpha 90.000000
_cell_angle_beta 90.000000
_cell_angle_gamma 90.000000
_cell_volume 2565.103995
_symmetry_space_group_name_H-M "I B A 2"
_symmetry_group_IT_number 45
_symmetry_cell_setting 'orthorhombic'
loop_
_space_group_symop_operation_xyz
x,y,z
-x,-y,z
-x,y,1/2+z
x,-y,1/2+z
1/2+x,1/2+y,1/2+z
1/2-x,1/2-y,1/2+z
1/2-x,1/2+y,z
1/2+x,1/2-y,z
loop_
_atom_site_type_symbol
_atom_site_label
_atom_site_fract_x
_atom_site_fract_y
_atom_site_fract_z
Si Si1 0.442085 0.898421 0.997860
Si Si2 0.554687 0.192519 0.307250
Si Si3 0.270229 0.788112 0.037754
Si Si4 0.642885 0.173008 0.958848
Si Si5 0.770358 0.732763 0.263659
Si Si6 0.000000 0.500000 0.140116
Si Si7 0.141975 0.173048 0.337808
Si Si8 0.500000 0.500000 0.946184
O O1 0.397050 0.835596 0.021518
O O2 0.471754 0.671945 0.007956
O O3 0.442862 0.967993 0.885105
O O4 0.463958 0.089153 0.068517
O O5 0.599776 0.277465 0.285364
O O6 0.531554 0.379021 0.374729
O O7 0.527356 0.149562 0.215852
O O8 0.249789 0.539065 0.001519
O O9 0.265019 0.784129 0.150758
O O10 0.316570 0.787370 0.014488
O O11 0.639379 0.404456 0.886783
O O12 0.644359 0.902490 0.911290
O O13 0.757437 0.459754 0.298321
O O14 0.816214 0.803592 0.283227
#
# Coordination Sequence:
#
# PCOD9377027 Si02
#       8
#     8   8   8   8   8   4   8   4
#     4  11  24  42  63  95 135 167 221 284 332 393
#     4  11  24  42  63  95 135 167 221 284 332 393
#     4  10  22  41  64  93 131 169 212 271 328 394
#     4  11  24  41  65  95 130 171 215 274 334 392
#     4  10  22  41  64  93 131 169 212 271 328 394
#     4  12  22  42  68  94 122 188 222 266 344 420
#     4  11  24  41  65  95 130 171 215 274 334 392
#     4  12  18  46  64  82 138 172 202 290 334 384
#
# _framework density 21.831472000000002
#
# number of rings (size 3 to 8) (size 9 to 14) (size 15 to 20)
#    0.000    1.143    4.286    1.714    2.000    4.000 
#    0.000    0.000    9.429    0.000    0.000    0.000 
#    0.000    0.000    0.000    0.000    0.000    0.000 
#
# Total GULP energy -156068.650518 kJ/mol
# GULP energy per Si atom -5573.880376 kJ/mol
# Density = 2.178178 g / cm^3
# Si number density = 21.831472 Si / 1000 Ang^3
#
#
#
# Elastic Constant Matrix: (Units=GPa)
#
#
# Indices 1 2 3 4 5 6 
#
# 1 184.9774 48.4107 20.9165 0.0000 0.0000 0.0000
# 2 48.4107 100.0939 2.4769 0.0000 0.0000 0.0000
# 3 20.9165 2.4769 86.3306 0.0000 0.0000 0.0000
# 4 0.0000 0.0000 0.0000 1964.9376 0.0000 0.0000
# 5 0.0000 0.0000 0.0000 0.0000 18.6264 0.0000
# 6 0.0000 0.0000 0.0000 0.0000 0.0000 33.7292
#
#
#
# Elastic Compliance Matrix: (Units=1/GPa)
#
#
# Indices 1 2 3 4 5 6 
#
# 1 0.006367 -0.003043 -0.001455 0.000000 0.000000 0.000000
# 2 -0.003043 0.011452 0.000409 0.000000 0.000000 0.000000
# 3 -0.001455 0.000409 0.011924 0.000000 0.000000 0.000000
# 4 0.000000 0.000000 0.000000 0.000509 0.000000 0.000000
# 5 0.000000 0.000000 0.000000 0.000000 0.053687 0.000000
# 6 0.000000 0.000000 0.000000 0.000000 0.000000 0.029648
#
#
# Mechanical properties :
#
#
# Convention : Reuss Voigt Hill
#
# Bulk Modulus (GPa) = 46.37386 57.22335 51.79860
# Shear Modulus (GPa) = 38.77292 423.43183 231.10237
#
# Velocity S-wave (km/s) = 4.21885 13.94187 10.29987
# Velocity P-wave (km/s) = 6.70965 16.89485 12.85409
#
# Compressibility (1/GPa) = 0.02156387
#
# Stress axis : x y z
#
# Youngs Moduli (GPa) = 157.05634 87.31723 83.86270
#
# Poissons Ratio (x) = 0.26575 0.12205
# Poissons Ratio (y) = 0.47800 -0.03428
# Poissons Ratio (z) = 0.22857 -0.03570
#
# Static dielectric constant tensor:
#      x y z
#    x 1.789950 0.000000 0.000000 
#    y 0.000000 1.541080 0.000000 
#    z 0.000000 0.000000 1.844760 
# 
# From -- ./inp_files/5291.got.cif
#   From: 2010.05.17/outbox.cif.g08.bks.cpg/sg45_3_cif.got.tgz:5291.got - 2010.06.03 19:51:22.
