data_PCOD9377000
_publ_section_title
;
Structure prediction by ZEFSAII (Michael W. Deem and Ramdas Pophale) SiO2 
 PCOD9377000
Probable space group: I B A 2
;
_chemical_formula_sum "Si O2"
_cell_formula_units_Z 56
_cell_length_a 5.251624
_cell_length_b 24.660785
_cell_length_c 20.598593
_cell_angle_alpha 90.000000
_cell_angle_beta 90.000000
_cell_angle_gamma 90.000000
_cell_volume 2667.706690
_symmetry_space_group_name_H-M "I B A 2"
_symmetry_group_IT_number 45
_symmetry_cell_setting 'orthorhombic'
loop_
_space_group_symop_operation_xyz
x,y,z
-x,-y,z
-x,y,1/2+z
x,-y,1/2+z
1/2+x,1/2+y,1/2+z
1/2-x,1/2-y,1/2+z
1/2-x,1/2+y,z
1/2+x,1/2-y,z
loop_
_atom_site_type_symbol
_atom_site_label
_atom_site_fract_x
_atom_site_fract_y
_atom_site_fract_z
Si Si1 0.687607 0.895443 0.384870
Si Si2 0.899256 0.284863 0.587189
Si Si3 0.500000 0.000000 0.535610
Si Si4 0.000000 0.000000 0.157999
Si Si5 0.159887 0.045642 0.926507
Si Si6 0.453877 0.780501 0.932074
Si Si7 0.109047 0.446804 0.756053
Si Si8 0.846751 0.409028 0.630776
O O1 0.423501 0.926840 0.403177
O O2 0.626223 0.833294 0.393978
O O3 0.736432 0.909479 0.309636
O O4 0.935502 0.909639 0.428703
O O5 0.661676 0.245925 0.605546
O O6 0.918993 0.290711 0.509100
O O7 0.857177 0.346025 0.613114
O O8 0.737650 0.011144 0.487966
O O9 0.509670 0.053336 0.581377
O O10 0.906600 0.054168 0.122128
O O11 0.211603 0.023632 0.205012
O O12 0.000000 0.000000 0.885868
O O13 0.744121 0.765269 0.917594
O O14 0.000000 0.500000 0.792139
O O15 0.921735 0.414921 0.706970
#
# Coordination Sequence:
#
# PCOD9377000 Si02
#       8
#     8   8   4   4   8   8   8   8
#     4  12  25  43  69  95 134 181 221 277 335 410
#     4  10  24  43  67  93 131 178 223 278 331 399
#     4  12  24  40  62 104 140 172 218 288 346 414
#     4  10  22  40  66  96 136 174 220 272 340 402
#     4  12  25  39  60 103 135 165 215 273 338 407
#     4  10  22  45  65  94 126 168 227 280 339 382
#     4  10  23  42  63  95 136 182 218 270 338 410
#     4  11  24  42  65  99 135 181 224 276 345 408
#
# _framework density 20.991814999999999
#
# number of rings (size 3 to 8) (size 9 to 14) (size 15 to 20)
#    0.000    1.143    3.571    2.571    8.000    2.286 
#    0.000    1.429    0.000    0.000    0.000    0.000 
#    0.000    0.000    0.000    0.000    0.000    0.000 
#
# Total GULP energy -155876.837614 kJ/mol
# GULP energy per Si atom -5567.029915 kJ/mol
# Density = 2.094404 g / cm^3
# Si number density = 20.991815 Si / 1000 Ang^3
#
#
#
# Elastic Constant Matrix: (Units=GPa)
#
#
# Indices 1 2 3 4 5 6 
#
# 1 104.3065 15.0550 21.7182 0.0000 0.0000 0.0000
# 2 15.0550 124.6027 35.8268 0.0000 0.0000 0.0000
# 3 21.7182 35.8268 57.0986 0.0000 0.0000 0.0000
# 4 0.0000 0.0000 0.0000 27.7290 0.0000 0.0000
# 5 0.0000 0.0000 0.0000 0.0000 24.1540 0.0000
# 6 0.0000 0.0000 0.0000 0.0000 0.0000 31.6976
#
#
#
# Elastic Compliance Matrix: (Units=1/GPa)
#
#
# Indices 1 2 3 4 5 6 
#
# 1 0.010414 -0.000146 -0.003870 0.000000 0.000000 0.000000
# 2 -0.000146 0.009794 -0.006090 0.000000 0.000000 0.000000
# 3 -0.003870 -0.006090 0.022807 0.000000 0.000000 0.000000
# 4 0.000000 0.000000 0.000000 0.036063 0.000000 0.000000
# 5 0.000000 0.000000 0.000000 0.000000 0.041401 0.000000
# 6 0.000000 0.000000 0.000000 0.000000 0.000000 0.031548
#
#
# Mechanical properties :
#
#
# Convention : Reuss Voigt Hill
#
# Bulk Modulus (GPa) = 43.85181 47.91198 45.88190
# Shear Modulus (GPa) = 27.80262 30.94330 29.37296
#
# Velocity S-wave (km/s) = 3.64325 3.84352 3.74472
# Velocity P-wave (km/s) = 6.21554 6.52461 6.37195
#
# Compressibility (1/GPa) = 0.02280408
#
# Stress axis : x y z
#
# Youngs Moduli (GPa) = 96.02579 102.10173 43.84685
#
# Poissons Ratio (x) = 0.01487 0.16967
# Poissons Ratio (y) = 0.01398 0.26703
# Poissons Ratio (z) = 0.37159 0.62180
#
# Static dielectric constant tensor:
#      x y z
#    x 1.933810 0.000000 0.000000 
#    y 0.000000 1.747510 0.000000 
#    z 0.000000 0.000000 1.824740 
# 
# From -- ./inp_files/8715.got.cif
#   From: 2010.05.17/outbox.cif.g08.bks.cpg/sg45_5_cif.got.tgz:8715.got - 2010.06.03 19:51:22.
