data_PCOD9377914
_publ_section_title
;
Structure prediction by ZEFSAII (Michael W. Deem and Ramdas Pophale) SiO2 
 PCOD9377914
Probable space group: I M A 2
;
_chemical_formula_sum "Si O2"
_cell_formula_units_Z 64
_cell_length_a 17.028694
_cell_length_b 9.142583
_cell_length_c 22.927368
_cell_angle_alpha 90.000000
_cell_angle_beta 90.000000
_cell_angle_gamma 90.000000
_cell_volume 3569.475907
_symmetry_space_group_name_H-M "I M A 2"
_symmetry_group_IT_number 46
_symmetry_cell_setting 'orthorhombic'
loop_
_space_group_symop_operation_xyz
x,y,z
-x,-y,z
1/2-x,y,z
1/2+x,-y,z
1/2+x,1/2+y,1/2+z
1/2-x,1/2-y,1/2+z
-x,1/2+y,1/2+z
x,1/2-y,1/2+z
loop_
_atom_site_type_symbol
_atom_site_label
_atom_site_fract_x
_atom_site_fract_y
_atom_site_fract_z
Si Si1 0.658086 0.005849 0.518330
Si Si2 0.567423 0.677264 0.936476
Si Si3 0.005375 0.837771 0.309690
Si Si4 0.442131 0.779475 0.031463
Si Si5 0.840906 0.355791 0.319416
Si Si6 0.408311 0.000127 0.933670
Si Si7 0.055869 0.355527 0.110422
Si Si8 0.419792 0.093727 0.740803
O O1 0.750000 0.001804 0.515097
O O2 0.619980 0.957215 0.457031
O O3 0.623891 0.887756 0.563975
O O4 0.628394 0.165262 0.538162
O O5 0.524257 0.655627 0.875978
O O6 0.614945 0.830332 0.935922
O O7 0.500018 0.703980 0.984359
O O8 0.943115 0.732437 0.278817
O O9 0.092383 0.766744 0.306914
O O10 0.000000 0.000000 0.284470
O O11 0.497812 0.775583 0.088966
O O12 0.412757 0.924160 0.997570
O O13 0.750000 0.309928 0.315065
O O14 0.859571 0.413752 0.385098
O O15 0.858268 0.489152 0.273948
O O16 0.500000 0.000000 0.912596
O O17 0.092805 0.353899 0.174589
O O18 0.000000 0.500000 0.107151
O O19 0.500000 0.000000 0.738648
#
# Coordination Sequence:
#
# PCOD9377914 Si02
#       8
#     8   8   8   8   8   8   8   8
#     4  10  20  32  49  77 108 139 178 227 284 329
#     4  10  18  33  52  71 103 148 182 211 270 349
#     4  11  20  36  56  78 112 154 188 233 288 347
#     4   9  17  31  53  77 100 135 178 225 272 323
#     4  11  21  34  54  83 111 144 191 240 288 341
#     4  10  17  33  53  73 103 144 178 220 277 341
#     4   8  16  33  56  78 102 138 189 233 268 337
#     4   9  18  36  58  79 105 145 195 232 276 341
#
# _framework density 17.929803
#
# number of rings (size 3 to 8) (size 9 to 14) (size 15 to 20)
#    0.000    2.250    3.750    2.250    0.000    1.500 
#    0.000    3.750    0.000    0.000    0.000    0.000 
#    0.000    0.000    0.000    0.000    0.000    0.000 
#
# Total GULP energy -178181.898299 kJ/mol
# GULP energy per Si atom -5568.184322 kJ/mol
# Density = 1.788899 g / cm^3
# Si number density = 17.929803 Si / 1000 Ang^3
#
#
#
# Elastic Constant Matrix: (Units=GPa)
#
#
# Indices 1 2 3 4 5 6 
#
# 1 84.9399 24.1024 19.6650 0.0000 0.0000 0.0000
# 2 24.1024 82.0683 14.0011 0.0000 0.0000 0.0000
# 3 19.6650 14.0011 82.0234 0.0000 0.0000 0.0000
# 4 0.0000 0.0000 0.0000 18.8354 0.0000 0.0000
# 5 0.0000 0.0000 0.0000 0.0000 9.5120 0.0000
# 6 0.0000 0.0000 0.0000 0.0000 0.0000 13.5815
#
#
#
# Elastic Compliance Matrix: (Units=1/GPa)
#
#
# Indices 1 2 3 4 5 6 
#
# 1 0.013365 -0.003480 -0.002610 0.000000 0.000000 0.000000
# 2 -0.003480 0.013456 -0.001463 0.000000 0.000000 0.000000
# 3 -0.002610 -0.001463 0.013067 0.000000 0.000000 0.000000
# 4 0.000000 0.000000 0.000000 0.053092 0.000000 0.000000
# 5 0.000000 0.000000 0.000000 0.000000 0.105131 0.000000
# 6 0.000000 0.000000 0.000000 0.000000 0.000000 0.073629
#
#
# Mechanical properties :
#
#
# Convention : Reuss Voigt Hill
#
# Bulk Modulus (GPa) = 40.35020 40.50762 40.42891
# Shear Modulus (GPa) = 16.94305 21.13665 19.03985
#
# Velocity S-wave (km/s) = 3.07736 3.43717 3.26223
# Velocity P-wave (km/s) = 5.93130 6.19626 6.06522
#
# Compressibility (1/GPa) = 0.02478302
#
# Stress axis : x y z
#
# Youngs Moduli (GPa) = 74.82374 74.31370 76.52803
#
# Poissons Ratio (x) = 0.25859 0.19975
# Poissons Ratio (y) = 0.26037 0.11194
# Poissons Ratio (z) = 0.19530 0.10870
#
# Static dielectric constant tensor:
#      x y z
#    x 1.598630 0.000000 0.000000 
#    y 0.000000 1.688340 0.000000 
#    z 0.000000 0.000000 1.674440 
# 
# From -- ./inp_files/23808.got.cif
#   From: 2010.05.17/outbox.cif.g08.bks.cpg/sg46_12_cif.got.tgz:23808.got - 2010.06.03 19:58:25.
