data_PCOD9377378
_publ_section_title
;
Structure prediction by ZEFSAII (Michael W. Deem and Ramdas Pophale) SiO2 
 PCOD9377378
Probable space group: I B A 2
;
_chemical_formula_sum "Si O2"
_cell_formula_units_Z 48
_cell_length_a 8.022993
_cell_length_b 17.069094
_cell_length_c 13.798870
_cell_angle_alpha 90.000000
_cell_angle_beta 90.000000
_cell_angle_gamma 90.000000
_cell_volume 1889.689311
_symmetry_space_group_name_H-M "I B A 2"
_symmetry_group_IT_number 45
_symmetry_cell_setting 'orthorhombic'
loop_
_space_group_symop_operation_xyz
x,y,z
-x,-y,z
-x,y,1/2+z
x,-y,1/2+z
1/2+x,1/2+y,1/2+z
1/2-x,1/2-y,1/2+z
1/2-x,1/2+y,z
1/2+x,1/2-y,z
loop_
_atom_site_type_symbol
_atom_site_label
_atom_site_fract_x
_atom_site_fract_y
_atom_site_fract_z
Si Si1 0.170298 0.852277 0.819520
Si Si2 0.500000 0.000000 0.073124
Si Si3 0.000000 0.000000 0.895137
Si Si4 0.493032 0.276919 0.656454
Si Si5 0.208597 0.400076 0.430233
Si Si6 0.603263 0.253588 0.935478
Si Si7 0.172723 0.377214 0.205869
O O1 0.155959 0.827105 0.707617
O O2 0.327997 0.825152 0.884230
O O3 0.015041 0.802145 0.863439
O O4 0.118712 0.941826 0.834774
O O5 0.628928 0.049320 0.138351
O O6 0.422641 0.063735 0.001434
O O7 0.119467 0.055691 0.956104
O O8 0.462810 0.260062 0.543880
O O9 0.659726 0.328913 0.674735
O O10 0.470031 0.189559 0.700353
O O11 0.231391 0.308185 0.441740
O O12 0.183567 0.408582 0.315278
#
# Coordination Sequence:
#
# PCOD9377378 Si02
#       7
#     8   4   4   8   8   8   8
#     4  11  23  48  71 114 154 205 269 337 395 477
#     4  12  32  50  80 116 168 212 268 344 412 492
#     4  10  24  46  80 108 156 216 264 332 408 470
#     4  12  25  48  81 114 156 211 273 325 403 491
#     4  11  26  53  72 116 159 217 265 335 409 477
#     4  11  25  43  77 111 149 207 269 328 395 479
#     4  12  28  55  78 121 162 215 274 337 412 487
#
# _framework density 25.401002999999999
#
# number of rings (size 3 to 8) (size 9 to 14) (size 15 to 20)
#    0.000    0.667    5.000    1.500   11.667    1.333 
#    6.000    0.000    0.000    0.000    0.000    0.000 
#    0.000    0.000    0.000    0.000    0.000    0.000 
#
# Total GULP energy -134262.144230 kJ/mol
# GULP energy per Si atom -5594.256010 kJ/mol
# Density = 2.534319 g / cm^3
# Si number density = 25.401003 Si / 1000 Ang^3
#
#
#
# Elastic Constant Matrix: (Units=GPa)
#
#
# Indices 1 2 3 4 5 6 
#
# 1 99.5078 40.1126 63.6719 0.0000 0.0000 0.0000
# 2 40.1126 138.9871 37.1454 0.0000 0.0000 0.0000
# 3 63.6719 37.1454 163.8438 0.0000 0.0000 0.0000
# 4 0.0000 0.0000 0.0000 21.8326 0.0000 0.0000
# 5 0.0000 0.0000 0.0000 0.0000 33.8942 0.0000
# 6 0.0000 0.0000 0.0000 0.0000 0.0000 55.6054
#
#
#
# Elastic Compliance Matrix: (Units=1/GPa)
#
#
# Indices 1 2 3 4 5 6 
#
# 1 0.014344 -0.002821 -0.004935 0.000000 0.000000 0.000000
# 2 -0.002821 0.008214 -0.000766 0.000000 0.000000 0.000000
# 3 -0.004935 -0.000766 0.008195 0.000000 0.000000 0.000000
# 4 0.000000 0.000000 0.000000 0.045803 0.000000 0.000000
# 5 0.000000 0.000000 0.000000 0.000000 0.029504 0.000000
# 6 0.000000 0.000000 0.000000 0.000000 0.000000 0.017984
#
#
# Mechanical properties :
#
#
# Convention : Reuss Voigt Hill
#
# Bulk Modulus (GPa) = 72.94273 76.02206 74.48240
# Shear Modulus (GPa) = 34.32734 39.69369 37.01052
#
# Velocity S-wave (km/s) = 3.68015 3.95737 3.82127
# Velocity P-wave (km/s) = 6.84374 7.13265 6.98969
#
# Compressibility (1/GPa) = 0.01370938
#
# Stress axis : x y z
#
# Youngs Moduli (GPa) = 69.71425 121.74694 122.02940
#
# Poissons Ratio (x) = 0.34345 0.60219
# Poissons Ratio (y) = 0.19666 0.09346
# Poissons Ratio (z) = 0.34403 0.09324
#
# Static dielectric constant tensor:
#      x y z
#    x 2.144900 0.000000 0.000000 
#    y 0.000000 2.017060 0.000000 
#    z 0.000000 0.000000 2.006430 
# 
# From -- ./inp_files/5646.got.cif
#   From: 2010.05.17/outbox.cif.g08.bks.cpg/sg45_3_cif.got.tgz:5646.got - 2010.06.03 19:51:22.
