data_PCOD9377508
_publ_section_title
;
Structure prediction by ZEFSAII (Michael W. Deem and Ramdas Pophale) SiO2 
 PCOD9377508
Probable space group: I B A 2
;
_chemical_formula_sum "Si O2"
_cell_formula_units_Z 40
_cell_length_a 27.375154
_cell_length_b 9.998894
_cell_length_c 5.065912
_cell_angle_alpha 90.000000
_cell_angle_beta 90.000000
_cell_angle_gamma 90.000000
_cell_volume 1386.647831
_symmetry_space_group_name_H-M "I B A 2"
_symmetry_group_IT_number 45
_symmetry_cell_setting 'orthorhombic'
loop_
_space_group_symop_operation_xyz
x,y,z
-x,-y,z
-x,y,1/2+z
x,-y,1/2+z
1/2+x,1/2+y,1/2+z
1/2-x,1/2-y,1/2+z
1/2-x,1/2+y,z
1/2+x,1/2-y,z
loop_
_atom_site_type_symbol
_atom_site_label
_atom_site_fract_x
_atom_site_fract_y
_atom_site_fract_z
Si Si1 0.757054 0.657955 0.232930
Si Si2 0.844910 0.142815 0.112090
Si Si3 0.464903 0.840190 0.236642
Si Si4 0.358390 0.166759 0.611242
Si Si5 0.058867 0.947572 0.950174
O O1 0.751924 0.717626 0.527181
O O2 0.706650 0.580242 0.184453
O O3 0.806754 0.587211 0.130052
O O4 0.861124 0.248792 0.340480
O O5 0.885337 0.034442 0.037435
O O6 0.845279 0.232191 0.848362
O O7 0.497730 0.863506 0.496916
O O8 0.410853 0.902037 0.174678
O O9 0.447953 0.687031 0.287535
O O10 0.040025 0.938013 0.252504
#
# Coordination Sequence:
#
# PCOD9377508 Si02
#       5
#     8   8   8   8   8
#     4   8  14  24  42  60  74  90 112 151 200 249
#     4   9  16  28  42  58  75  93 122 160 202 244
#     4  11  21  31  41  53  73 102 137 172 199 224
#     4   9  16  28  42  58  75  93 122 160 202 244
#     4  11  21  31  41  53  73 102 137 172 199 224
#
# _framework density 28.846544000000002
#
# number of rings (size 3 to 8) (size 9 to 14) (size 15 to 20)
#    0.000    2.400    0.000    6.000    0.000    2.400 
#    0.000    0.000    0.000    0.000    0.000    0.000 
#    0.000    0.000    0.000    0.000    0.000    6.000 
#
# Total GULP energy -111640.071665 kJ/mol
# GULP energy per Si atom -5582.003583 kJ/mol
# Density = 2.878089 g / cm^3
# Si number density = 28.846544 Si / 1000 Ang^3
#
#
#
# Elastic Constant Matrix: (Units=GPa)
#
#
# Indices 1 2 3 4 5 6 
#
# 1 253.7281 10.2940 -1.5569 0.0016 0.0008 0.0009
# 2 10.2940 56.6065 42.1684 0.0044 0.0036 0.0016
# 3 -1.5569 42.1684 262.7151 0.0095 0.0061 0.0036
# 4 0.0016 0.0044 0.0095 69.5450 0.0023 0.0016
# 5 0.0008 0.0036 0.0061 0.0023 43.7533 0.0010
# 6 0.0009 0.0016 0.0036 0.0016 0.0010 10.3498
#
#
#
# Elastic Compliance Matrix: (Units=1/GPa)
#
#
# Indices 1 2 3 4 5 6 
#
# 1 0.003976 -0.000841 0.000159 0.000000 0.000000 0.000000
# 2 -0.000841 0.020243 -0.003254 -0.000001 -0.000001 -0.000002
# 3 0.000159 -0.003254 0.004330 0.000000 0.000000 -0.000001
# 4 0.000000 -0.000001 0.000000 0.014379 -0.000001 -0.000002
# 5 0.000000 -0.000001 0.000000 -0.000001 0.022855 -0.000002
# 6 0.000000 -0.000002 -0.000001 -0.000002 -0.000002 0.096620
#
#
# Mechanical properties :
#
#
# Convention : Reuss Voigt Hill
#
# Bulk Modulus (GPa) = 48.36691 74.98451 61.67571
# Shear Modulus (GPa) = 28.22159 59.53924 43.88041
#
# Velocity S-wave (km/s) = 3.13123 4.54805 3.90445
# Velocity P-wave (km/s) = 5.46591 7.32328 6.46168
#
# Compressibility (1/GPa) = 0.02067529
#
# Stress axis : x y z
#
# Youngs Moduli (GPa) = 251.48814 49.39992 230.96433
#
# Poissons Ratio (x) = 0.04156 -0.03663
# Poissons Ratio (y) = 0.21156 0.75160
# Poissons Ratio (z) = -0.03988 0.16076
#
# Static dielectric constant tensor:
#      x y z
#    x 2.618290 0.000000 0.000000 
#    y 0.000000 2.264240 0.000000 
#    z 0.000000 0.000000 2.247170 
# 
# From -- ./inp_files/590.got.cif
#   From: 2010.05.17/outbox.cif.g08.bks.cpg/sg45_1_cif.got.tgz:590.got - 2010.06.03 19:51:22.
