data_PCOD9377738
_publ_section_title
;
Structure prediction by ZEFSAII (Michael W. Deem and Ramdas Pophale) SiO2 
 PCOD9377738
Probable space group: I B A 2
;
_chemical_formula_sum "Si O2"
_cell_formula_units_Z 20
_cell_length_a 18.000000
_cell_length_b 9.000000
_cell_length_c 12.000000
_cell_angle_alpha 90.000000
_cell_angle_beta 90.000000
_cell_angle_gamma 90.000000
_cell_volume 1944.000000
_symmetry_space_group_name_H-M "I B A 2"
_symmetry_group_IT_number 45
_symmetry_cell_setting 'orthorhombic'
loop_
_space_group_symop_operation_xyz
x,y,z
-x,-y,z
-x,y,1/2+z
x,-y,1/2+z
1/2+x,1/2+y,1/2+z
1/2-x,1/2-y,1/2+z
1/2-x,1/2+y,z
1/2+x,1/2-y,z
loop_
_atom_site_type_symbol
_atom_site_label
_atom_site_fract_x
_atom_site_fract_y
_atom_site_fract_z
Si Si1 0.344347 0.733261 0.277090
Si Si2 0.386737 0.857072 0.031949
Si Si3 0.067721 0.601301 0.195950
Si Si4 0.713414 0.961458 0.338093
Si Si5 0.493543 0.678956 0.855464
O O1 0.364533 0.770762 0.147134
O O2 0.293678 0.589346 0.295862
O O3 0.420700 0.728812 0.346056
O O4 0.293258 0.861882 0.330041
O O5 0.419713 0.015903 0.077704
O O6 0.315170 0.896802 0.956225
O O7 0.444875 0.762396 0.953367
O O8 0.147438 0.586622 0.253934
O O9 0.000000 0.500000 0.245979
O O10 0.041310 0.765333 0.235463
O O11 0.500000 0.500000 0.867549
#
# Coordination Sequence:
#
# PCOD9377738 Si02
#       5
#     8   8   8   8   8
#     4  11  25  45  67 103 145 182 237 297 364 433
#     4  10  24  45  72 102 136 196 241 291 373 427
#     4  10  20  44  72  98 133 189 246 285 348 437
#     4  10  24  41  68 100 143 184 240 290 360 440
#     4  11  25  44  72 109 142 180 242 311 349 421
#
# _framework density 10.288066000000001
#
# number of rings (size 3 to 8) (size 9 to 14) (size 15 to 20)
#    0.000    1.600    4.000    0.000    8.400    4.000 
#    0.000    0.000    0.000    0.000    0.000    0.000 
#    0.000    0.000    0.000    0.000    0.000    0.000 
#
# Total GULP energy -111378.256777 kJ/mol
# GULP energy per Si atom -5568.912839 kJ/mol
# Density = 1.026465 g / cm^3
# Si number density = 10.288066 Si / 1000 Ang^3
#
#
#
# Elastic Constant Matrix: (Units=GPa)
#
#
# Indices 1 2 3 4 5 6 
#
# 1 71.5163 5.9158 33.3087 0.0000 0.0000 0.0000
# 2 5.9158 102.9495 45.1869 0.0000 0.0000 0.0000
# 3 33.3087 45.1869 120.2477 0.0000 0.0000 0.0000
# 4 0.0000 0.0000 0.0000 33.3874 0.0000 0.0000
# 5 0.0000 0.0000 0.0000 0.0000 30.9449 0.0000
# 6 0.0000 0.0000 0.0000 0.0000 0.0000 46.5606
#
#
#
# Elastic Compliance Matrix: (Units=1/GPa)
#
#
# Indices 1 2 3 4 5 6 
#
# 1 0.016186 0.001243 -0.004950 0.000000 0.000000 0.000000
# 2 0.001243 0.011728 -0.004751 0.000000 0.000000 0.000000
# 3 -0.004950 -0.004751 0.011473 0.000000 0.000000 0.000000
# 4 0.000000 0.000000 0.000000 0.029951 0.000000 0.000000
# 5 0.000000 0.000000 0.000000 0.000000 0.032315 0.000000
# 6 0.000000 0.000000 0.000000 0.000000 0.000000 0.021477
#
#
# Mechanical properties :
#
#
# Convention : Reuss Voigt Hill
#
# Bulk Modulus (GPa) = 44.50723 51.50404 48.00563
# Shear Modulus (GPa) = 33.88966 36.19872 35.04419
#
# Velocity S-wave (km/s) = 4.06277 4.19890 4.13140
# Velocity P-wave (km/s) = 6.60951 6.97087 6.79259
#
# Compressibility (1/GPa) = 0.02246826
#
# Stress axis : x y z
#
# Youngs Moduli (GPa) = 61.78290 85.26957 87.16211
#
# Poissons Ratio (x) = -0.10597 0.43149
# Poissons Ratio (y) = -0.07678 0.41413
# Poissons Ratio (z) = 0.30585 0.40514
#
# Static dielectric constant tensor:
#      x y z
#    x 1.734490 0.000000 0.000000 
#    y 0.000000 1.810720 0.000000 
#    z 0.000000 0.000000 1.759710 
# 
# From -- ./inp_files/4364.got.cif
#   From: 2010.05.17/outbox.ucp.g08.bks.cvg/sg45_3_cif.got.tgz:4364.got - 2010.06.11 16:34:12.
