data_PCOD9377297
_publ_section_title
;
Structure prediction by ZEFSAII (Michael W. Deem and Ramdas Pophale) SiO2 
 PCOD9377297
Probable space group: I B A 2
;
_chemical_formula_sum "Si O2"
_cell_formula_units_Z 44
_cell_length_a 14.011773
_cell_length_b 14.460143
_cell_length_c 9.623750
_cell_angle_alpha 90.000000
_cell_angle_beta 90.000000
_cell_angle_gamma 90.000000
_cell_volume 1949.889557
_symmetry_space_group_name_H-M "I B A 2"
_symmetry_group_IT_number 45
_symmetry_cell_setting 'orthorhombic'
loop_
_space_group_symop_operation_xyz
x,y,z
-x,-y,z
-x,y,1/2+z
x,-y,1/2+z
1/2+x,1/2+y,1/2+z
1/2-x,1/2-y,1/2+z
1/2-x,1/2+y,z
1/2+x,1/2-y,z
loop_
_atom_site_type_symbol
_atom_site_label
_atom_site_fract_x
_atom_site_fract_y
_atom_site_fract_z
Si Si1 0.240389 0.114858 0.381570
Si Si2 0.387809 0.604191 0.627710
Si Si3 0.602769 0.613376 0.632004
Si Si4 0.203358 0.193118 0.880513
Si Si5 0.126479 0.433004 0.363093
Si Si6 0.500000 0.000000 0.111511
O O1 0.198898 0.138249 0.532991
O O2 0.146603 0.114181 0.285535
O O3 0.306819 0.200520 0.339363
O O4 0.299893 0.020299 0.372733
O O5 0.493900 0.643189 0.609571
O O6 0.391770 0.495228 0.594587
O O7 0.360162 0.627053 0.784525
O O8 0.670720 0.673244 0.535851
O O9 0.311586 0.159328 0.862137
O O10 0.062073 0.439770 0.502171
O O11 0.067567 0.445018 0.220035
#
# Coordination Sequence:
#
# PCOD9377297 Si02
#       6
#     8   8   8   8   8   4
#     4  12  24  43  67  95 128 170 208 259 320 375
#     4  11  22  42  69  95 128 164 208 265 319 373
#     4  11  22  42  69  95 128 164 208 265 319 373
#     4  12  24  43  67  95 128 170 208 259 320 375
#     4  11  22  46  65  88 132 160 219 256 312 373
#     4  10  24  42  68  90 118 184 204 262 308 362
#
# _framework density 22.565380000000001
#
# number of rings (size 3 to 8) (size 9 to 14) (size 15 to 20)
#    0.000    0.727    3.636    4.364    0.000    2.909 
#   19.636    0.000    0.000    0.000    0.000    0.000 
#    0.000    0.000    0.000    0.000    0.000    0.000 
#
# Total GULP energy -122978.643102 kJ/mol
# GULP energy per Si atom -5589.938323 kJ/mol
# Density = 2.251402 g / cm^3
# Si number density = 22.565380 Si / 1000 Ang^3
#
#
#
# Elastic Constant Matrix: (Units=GPa)
#
#
# Indices 1 2 3 4 5 6 
#
# 1 71.8664 8.9614 17.0458 0.0000 0.0000 0.0000
# 2 8.9614 64.9523 -2.9157 0.0000 0.0000 0.0000
# 3 17.0458 -2.9157 91.2479 0.0000 0.0000 0.0000
# 4 0.0000 0.0000 0.0000 12.2698 0.0000 0.0000
# 5 0.0000 0.0000 0.0000 0.0000 35.8579 0.0000
# 6 0.0000 0.0000 0.0000 0.0000 0.0000 5.6678
#
#
#
# Elastic Compliance Matrix: (Units=1/GPa)
#
#
# Indices 1 2 3 4 5 6 
#
# 1 0.014861 -0.002178 -0.002846 0.000000 0.000000 0.000000
# 2 -0.002178 0.015737 0.000910 0.000000 0.000000 0.000000
# 3 -0.002846 0.000910 0.011520 0.000000 0.000000 0.000000
# 4 0.000000 0.000000 0.000000 0.081501 0.000000 0.000000
# 5 0.000000 0.000000 0.000000 0.000000 0.027888 0.000000
# 6 0.000000 0.000000 0.000000 0.000000 0.000000 0.176436
#
#
# Mechanical properties :
#
#
# Convention : Reuss Voigt Hill
#
# Bulk Modulus (GPa) = 29.50722 30.47219 29.98971
# Shear Modulus (GPa) = 14.38980 24.42409 19.40695
#
# Velocity S-wave (km/s) = 2.52800 3.29351 2.93581
# Velocity P-wave (km/s) = 4.65035 5.29114 4.98106
#
# Compressibility (1/GPa) = 0.03389001
#
# Stress axis : x y z
#
# Youngs Moduli (GPa) = 67.28884 63.54345 86.80668
#
# Poissons Ratio (x) = 0.13841 0.24704
# Poissons Ratio (y) = 0.14657 -0.07897
# Poissons Ratio (z) = 0.19149 -0.05781
#
# Static dielectric constant tensor:
#      x y z
#    x 1.848640 0.000000 0.000000 
#    y 0.000000 1.790790 0.000000 
#    z 0.000000 0.000000 1.791530 
# 
# From -- ./inp_files/1673.got.cif
#   From: 2010.05.17/outbox.cif.g08.bks.cpg/sg45_1_cif.got.tgz:1673.got - 2010.06.03 19:51:22.
