data_PCOD9377085
_publ_section_title
;
Structure prediction by ZEFSAII (Michael W. Deem and Ramdas Pophale) SiO2 
 PCOD9377085
Probable space group: I B A 2
;
_chemical_formula_sum "Si O2"
_cell_formula_units_Z 60
_cell_length_a 18.430132
_cell_length_b 16.562972
_cell_length_c 8.742146
_cell_angle_alpha 90.000000
_cell_angle_beta 90.000000
_cell_angle_gamma 90.000000
_cell_volume 2668.607908
_symmetry_space_group_name_H-M "I B A 2"
_symmetry_group_IT_number 45
_symmetry_cell_setting 'orthorhombic'
loop_
_space_group_symop_operation_xyz
x,y,z
-x,-y,z
-x,y,1/2+z
x,-y,1/2+z
1/2+x,1/2+y,1/2+z
1/2-x,1/2-y,1/2+z
1/2-x,1/2+y,z
1/2+x,1/2-y,z
loop_
_atom_site_type_symbol
_atom_site_label
_atom_site_fract_x
_atom_site_fract_y
_atom_site_fract_z
Si Si1 0.094581 0.350102 0.302790
Si Si2 0.273551 0.583547 0.976335
Si Si3 0.069758 0.111150 0.087684
Si Si4 0.020808 0.713498 0.527491
Si Si5 0.194472 0.511299 0.265280
Si Si6 0.671705 0.174790 0.894265
Si Si7 0.000000 0.000000 0.835779
Si Si8 0.232158 0.283504 0.221769
O O1 0.142199 0.432008 0.280411
O O2 0.148849 0.274905 0.270801
O O3 0.050022 0.323916 0.450129
O O4 0.038678 0.346775 0.164868
O O5 0.270271 0.511428 0.850776
O O6 0.259288 0.656856 0.857360
O O7 0.343595 0.613730 0.067665
O O8 0.215483 0.547807 0.099795
O O9 0.023124 0.194084 0.086193
O O10 0.049092 0.057213 0.231773
O O11 0.046015 0.059257 0.940959
O O12 0.092859 0.713168 0.419868
O O13 0.158419 0.581593 0.362821
O O14 0.714519 0.209737 0.748126
O O15 0.722167 0.186089 0.047051
#
# Coordination Sequence:
#
# PCOD9377085 Si02
#       8
#     8   8   8   8   8   8   4   8
#     4  10  25  44  66 102 141 187 240 296 369 440
#     4  11  21  41  66  97 133 176 236 294 359 432
#     4  11  22  43  65  98 131 185 228 295 363 436
#     4  11  23  44  70  97 141 185 240 291 355 451
#     4  11  24  42  67 100 141 183 235 305 367 427
#     4  11  23  42  69 100 136 184 239 301 363 435
#     4  10  24  40  62  94 142 172 230 292 368 438
#     4  10  22  43  66 100 135 178 240 297 358 434
#
# _framework density 22.483635
#
# number of rings (size 3 to 8) (size 9 to 14) (size 15 to 20)
#    0.000    1.333    1.333    4.800    1.867    3.733 
#    7.200    4.000    0.000    0.000    0.000    0.000 
#    0.000    0.000    0.000    0.000    0.000    0.000 
#
# Total GULP energy -167076.034230 kJ/mol
# GULP energy per Si atom -5569.201141 kJ/mol
# Density = 2.243246 g / cm^3
# Si number density = 22.483635 Si / 1000 Ang^3
#
#
#
# Elastic Constant Matrix: (Units=GPa)
#
#
# Indices 1 2 3 4 5 6 
#
# 1 28.0483 16.4705 10.1461 0.0000 0.0000 0.0000
# 2 16.4705 118.4801 28.2414 0.0000 0.0000 0.0000
# 3 10.1461 28.2414 65.3312 0.0000 0.0000 0.0000
# 4 0.0000 0.0000 0.0000 41.2293 0.0000 0.0000
# 5 0.0000 0.0000 0.0000 0.0000 94.9841 0.0000
# 6 0.0000 0.0000 0.0000 0.0000 0.0000 26.5389
#
#
#
# Elastic Compliance Matrix: (Units=1/GPa)
#
#
# Indices 1 2 3 4 5 6 
#
# 1 0.039843 -0.004531 -0.004229 0.000000 0.000000 0.000000
# 2 -0.004531 0.009925 -0.003587 0.000000 0.000000 0.000000
# 3 -0.004229 -0.003587 0.017514 0.000000 0.000000 0.000000
# 4 0.000000 0.000000 0.000000 0.024255 0.000000 0.000000
# 5 0.000000 0.000000 0.000000 0.000000 0.010528 0.000000
# 6 0.000000 0.000000 0.000000 0.000000 0.000000 0.037680
#
#
# Mechanical properties :
#
#
# Convention : Reuss Voigt Hill
#
# Bulk Modulus (GPa) = 23.48039 35.73061 29.60550
# Shear Modulus (GPa) = 27.99006 43.01725 35.50366
#
# Velocity S-wave (km/s) = 3.53215 4.37884 3.97809
# Velocity P-wave (km/s) = 5.20584 6.44143 5.85631
#
# Compressibility (1/GPa) = 0.04258873
#
# Stress axis : x y z
#
# Youngs Moduli (GPa) = 25.09841 100.75549 57.09742
#
# Poissons Ratio (x) = 0.45649 0.24148
# Poissons Ratio (y) = 0.11371 0.20479
# Poissons Ratio (z) = 0.10615 0.36139
#
# Static dielectric constant tensor:
#      x y z
#    x 1.839840 0.000000 0.000000 
#    y 0.000000 1.912330 0.000000 
#    z 0.000000 0.000000 1.888410 
# 
# From -- ./inp_files/2158.got.cif
#   From: 2010.05.17/outbox.cif.g08.bks.cpg/sg45_2_cif.got.tgz:2158.got - 2010.06.03 19:51:22.
