data_PCOD9377983
_publ_section_title
;
Structure prediction by ZEFSAII (Michael W. Deem and Ramdas Pophale) SiO2 
 PCOD9377983
Probable space group: I M A 2
;
_chemical_formula_sum "Si O2"
_cell_formula_units_Z 64
_cell_length_a 8.988075
_cell_length_b 19.345629
_cell_length_c 21.710037
_cell_angle_alpha 90.000000
_cell_angle_beta 90.000000
_cell_angle_gamma 90.000000
_cell_volume 3774.940460
_symmetry_space_group_name_H-M "I M A 2"
_symmetry_group_IT_number 46
_symmetry_cell_setting 'orthorhombic'
loop_
_space_group_symop_operation_xyz
x,y,z
-x,-y,z
1/2-x,y,z
1/2+x,-y,z
1/2+x,1/2+y,1/2+z
1/2-x,1/2-y,1/2+z
-x,1/2+y,1/2+z
x,1/2-y,1/2+z
loop_
_atom_site_type_symbol
_atom_site_label
_atom_site_fract_x
_atom_site_fract_y
_atom_site_fract_z
Si Si1 0.569024 0.777244 0.196720
Si Si2 0.926290 0.179362 0.412956
Si Si3 0.929158 0.629998 0.144065
Si Si4 0.571952 0.571948 0.278759
Si Si5 0.579947 0.570683 0.683922
Si Si6 0.920447 0.569368 0.832528
Si Si7 0.071275 0.574130 0.020270
Si Si8 0.929270 0.782359 0.830735
O O1 0.750000 0.781903 0.198387
O O2 0.531701 0.710823 0.155090
O O3 0.514869 0.852117 0.172961
O O4 0.525217 0.757490 0.267073
O O5 0.750000 0.187979 0.414695
O O6 0.972174 0.136045 0.473394
O O7 0.978800 0.129969 0.357702
O O8 0.003241 0.250329 0.392571
O O9 0.750000 0.625646 0.135087
O O10 0.965694 0.591326 0.207989
O O11 0.013376 0.596053 0.087369
O O12 0.500000 0.500000 0.296648
O O13 0.750000 0.566544 0.281567
O O14 0.528350 0.638106 0.319470
O O15 0.500000 0.500000 0.663435
O O16 0.750000 0.568811 0.661462
O O17 0.583640 0.568393 0.758632
O O18 0.750000 0.575634 0.854318
O O19 0.000000 0.500000 0.853994
O O20 0.250000 0.567610 0.018986
O O21 0.000000 0.500000 0.003795
O O22 0.750000 0.776900 0.833293
#
# Coordination Sequence:
#
# PCOD9377983 Si02
#       8
#     8   8   8   8   8   8   8   8
#     4   8  14  29  49  69  94 126 160 197 245 292
#     4  11  22  33  46  67  95 128 165 205 243 284
#     4   9  18  33  54  74  95 127 168 207 244 290
#     4   9  18  31  51  77 103 128 158 198 249 300
#     4   9  16  26  41  63  93 125 154 188 231 279
#     4  10  18  28  43  62  89 125 160 195 231 276
#     4  11  24  38  50  69  99 132 170 208 244 283
#     4   9  17  32  50  69  95 129 162 196 241 296
#
# _framework density 16.953908999999999
#
# number of rings (size 3 to 8) (size 9 to 14) (size 15 to 20)
#    0.000    2.500    1.250    3.375    0.000    5.500 
#    0.000    2.500    0.000    0.000    0.000    0.875 
#    0.000    2.000    0.000    0.000    0.000    0.125 
#
# Total GULP energy -178239.155412 kJ/mol
# GULP energy per Si atom -5569.973607 kJ/mol
# Density = 1.691532 g / cm^3
# Si number density = 16.953909 Si / 1000 Ang^3
#
#
#
# Elastic Constant Matrix: (Units=GPa)
#
#
# Indices 1 2 3 4 5 6 
#
# 1 19.9421 30.9243 21.9192 0.0000 0.0000 0.0000
# 2 30.9243 140.1775 36.1071 0.0000 0.0000 0.0000
# 3 21.9192 36.1071 54.5770 0.0000 0.0000 0.0000
# 4 0.0000 0.0000 0.0000 24.1147 0.0000 0.0000
# 5 0.0000 0.0000 0.0000 0.0000 16.0909 0.0000
# 6 0.0000 0.0000 0.0000 0.0000 0.0000 27.8382
#
#
#
# Elastic Compliance Matrix: (Units=1/GPa)
#
#
# Indices 1 2 3 4 5 6 
#
# 1 0.113385 -0.016013 -0.034944 0.000000 0.000000 0.000000
# 2 -0.016013 0.010861 -0.000754 0.000000 0.000000 0.000000
# 3 -0.034944 -0.000754 0.032856 0.000000 0.000000 0.000000
# 4 0.000000 0.000000 0.000000 0.041469 0.000000 0.000000
# 5 0.000000 0.000000 0.000000 0.000000 0.062147 0.000000
# 6 0.000000 0.000000 0.000000 0.000000 0.000000 0.035922
#
#
# Mechanical properties :
#
#
# Convention : Reuss Voigt Hill
#
# Bulk Modulus (GPa) = 18.62902 43.62197 31.12549
# Shear Modulus (GPa) = 11.96306 21.99182 16.97744
#
# Velocity S-wave (km/s) = 2.65924 3.60551 3.16790
# Velocity P-wave (km/s) = 4.52113 6.56647 5.63734
#
# Compressibility (1/GPa) = 0.05367969
#
# Stress axis : x y z
#
# Youngs Moduli (GPa) = 8.81953 92.07595 30.43603
#
# Poissons Ratio (x) = 1.47439 1.06355
# Poissons Ratio (y) = 0.14122 0.02295
# Poissons Ratio (z) = 0.30819 0.06944
#
# Static dielectric constant tensor:
#      x y z
#    x 1.572970 0.000000 0.000000 
#    y 0.000000 1.618830 0.000000 
#    z 0.000000 0.000000 1.561570 
# 
# From -- ./inp_files/21293.got.cif
#   From: 2010.05.17/outbox.cif.g08.bks.cpg/sg46_11_cif.got.tgz:21293.got - 2010.06.03 19:58:25.
