data_PCOD9377915
_publ_section_title
;
Structure prediction by ZEFSAII (Michael W. Deem and Ramdas Pophale) SiO2 
 PCOD9377915
Probable space group: I M A 2
;
_chemical_formula_sum "Si O2"
_cell_formula_units_Z 64
_cell_length_a 18.471239
_cell_length_b 19.595921
_cell_length_c 8.531920
_cell_angle_alpha 90.000000
_cell_angle_beta 90.000000
_cell_angle_gamma 90.000000
_cell_volume 3088.221785
_symmetry_space_group_name_H-M "I M A 2"
_symmetry_group_IT_number 46
_symmetry_cell_setting 'orthorhombic'
loop_
_space_group_symop_operation_xyz
x,y,z
-x,-y,z
1/2-x,y,z
1/2+x,-y,z
1/2+x,1/2+y,1/2+z
1/2-x,1/2-y,1/2+z
-x,1/2+y,1/2+z
x,1/2-y,1/2+z
loop_
_atom_site_type_symbol
_atom_site_label
_atom_site_fract_x
_atom_site_fract_y
_atom_site_fract_z
Si Si1 0.166543 0.152942 0.962720
Si Si2 0.662779 0.150732 0.730451
Si Si3 0.927629 0.530687 0.558289
Si Si4 0.334333 0.296496 0.823327
Si Si5 0.333152 0.587107 0.710707
Si Si6 0.162468 0.779449 0.050172
Si Si7 0.945458 0.909728 0.408875
Si Si8 0.099847 0.552683 0.025303
O O1 0.250000 0.132198 0.934412
O O2 0.148835 0.216951 0.851654
O O3 0.114085 0.087973 0.960005
O O4 0.163112 0.182833 0.140546
O O5 0.750000 0.144248 0.734223
O O6 0.638504 0.187261 0.888776
O O7 0.639829 0.203929 0.594796
O O8 0.626654 0.079355 0.691210
O O9 0.877058 0.467798 0.610186
O O10 0.948985 0.565417 0.726660
O O11 0.000000 0.500000 0.484298
O O12 0.250000 0.307312 0.875646
O O13 0.392624 0.344762 0.910101
O O14 0.250000 0.582723 0.661671
O O15 0.357632 0.664509 0.679979
O O16 0.341282 0.570034 0.892474
O O17 0.250000 0.775318 0.044676
O O18 0.027112 0.907600 0.471779
O O19 0.912665 0.972459 0.507959
#
# Coordination Sequence:
#
# PCOD9377915 Si02
#       8
#     8   8   8   8   8   8   8   8
#     4   9  18  33  56  83 107 139 181 227 273 325
#     4  10  19  33  52  75 104 140 178 221 266 315
#     4  10  17  33  54  78 110 142 173 223 269 327
#     4   9  18  34  56  79 106 137 181 227 271 326
#     4  10  18  31  55  81 103 137 180 221 267 323
#     4   9  19  34  51  75 106 134 173 224 264 309
#     4   9  18  34  52  76 109 143 174 221 275 320
#     4  10  18  32  53  75 107 138 179 223 267 325
#
# _framework density 20.723901999999999
#
# number of rings (size 3 to 8) (size 9 to 14) (size 15 to 20)
#    0.000    2.500    2.500    1.500    0.000    5.500 
#    2.250    2.500    2.750    4.500    0.000    0.000 
#    0.000    0.000    0.000    0.000    0.000    0.000 
#
# Total GULP energy -178531.118008 kJ/mol
# GULP energy per Si atom -5579.097438 kJ/mol
# Density = 2.067673 g / cm^3
# Si number density = 20.723902 Si / 1000 Ang^3
#
#
#
# Elastic Constant Matrix: (Units=GPa)
#
#
# Indices 1 2 3 4 5 6 
#
# 1 65.6919 41.1233 -3.2282 0.0000 0.0000 0.0000
# 2 41.1233 78.7491 -3.2512 0.0000 0.0000 0.0000
# 3 -3.2282 -3.2512 18.5973 0.0000 0.0000 0.0000
# 4 0.0000 0.0000 0.0000 23.8929 0.0000 0.0000
# 5 0.0000 0.0000 0.0000 0.0000 -9.3021 0.0000
# 6 0.0000 0.0000 0.0000 0.0000 0.0000 31.7468
#
#
#
# Elastic Compliance Matrix: (Units=1/GPa)
#
#
# Indices 1 2 3 4 5 6 
#
# 1 0.022681 -0.011766 0.001880 0.000000 0.000000 0.000000
# 2 -0.011766 0.018895 0.001261 0.000000 0.000000 0.000000
# 3 0.001880 0.001261 0.054318 0.000000 0.000000 0.000000
# 4 0.000000 0.000000 0.000000 0.041853 0.000000 0.000000
# 5 0.000000 0.000000 0.000000 0.000000 -0.107503 0.000000
# 6 0.000000 0.000000 0.000000 0.000000 0.000000 0.031499
#
#
# Mechanical properties :
#
#
# Convention : Reuss Voigt Hill
#
# Bulk Modulus (GPa) = 12.71578 25.81403 19.26490
# Shear Modulus (GPa) = 47.52454 17.82717 32.67586
#
# Velocity S-wave (km/s) = 4.79396 2.93614 3.97511
# Velocity P-wave (km/s) = 6.06563 4.89671 5.51224
#
# Compressibility (1/GPa) = 0.07864244
#
# Stress axis : x y z
#
# Youngs Moduli (GPa) = 44.09021 52.92368 18.41015
#
# Poissons Ratio (x) = 0.62272 -0.03461
# Poissons Ratio (y) = 0.51878 -0.02321
# Poissons Ratio (z) = -0.08289 -0.06673
#
# Static dielectric constant tensor:
#      x y z
#    x 1.809380 0.000000 0.000000 
#    y 0.000000 1.732900 0.000000 
#    z 0.000000 0.000000 1.775150 
# 
# From -- ./inp_files/6943.got.cif
#   From: 2010.05.17/outbox.cif.g08.bks.cpg/sg46_4_cif.got.tgz:6943.got - 2010.06.03 19:58:25.
