data_PCOD9377791
_publ_section_title
;
Structure prediction by ZEFSAII (Michael W. Deem and Ramdas Pophale) SiO2 
 PCOD9377791
Probable space group: I M A 2
;
_chemical_formula_sum "Si O2"
_cell_formula_units_Z 64
_cell_length_a 14.546694
_cell_length_b 13.425486
_cell_length_c 19.058435
_cell_angle_alpha 90.000000
_cell_angle_beta 90.000000
_cell_angle_gamma 90.000000
_cell_volume 3722.044443
_symmetry_space_group_name_H-M "I M A 2"
_symmetry_group_IT_number 46
_symmetry_cell_setting 'orthorhombic'
loop_
_space_group_symop_operation_xyz
x,y,z
-x,-y,z
1/2-x,y,z
1/2+x,-y,z
1/2+x,1/2+y,1/2+z
1/2-x,1/2-y,1/2+z
-x,1/2+y,1/2+z
x,1/2-y,1/2+z
loop_
_atom_site_type_symbol
_atom_site_label
_atom_site_fract_x
_atom_site_fract_y
_atom_site_fract_z
Si Si1 0.901368 0.054089 0.112980
Si Si2 0.147095 0.120206 0.027040
Si Si3 0.642288 0.348586 0.848417
Si Si4 0.995694 0.118928 0.469225
Si Si5 0.648496 0.539811 0.756030
Si Si6 0.522776 0.768255 0.262662
Si Si7 0.497461 0.748062 0.105059
Si Si8 0.359795 0.260886 0.393643
O O1 0.914511 0.171325 0.104628
O O2 0.859475 0.995226 0.047387
O O3 0.852386 0.024158 0.184749
O O4 0.000000 0.000000 0.119840
O O5 0.250000 0.154727 0.040583
O O6 0.082046 0.185055 0.076686
O O7 0.124875 0.147629 0.947242
O O8 0.750000 0.321725 0.849266
O O9 0.635632 0.461634 0.818642
O O10 0.577432 0.283655 0.797002
O O11 0.591871 0.346625 0.923231
O O12 0.987794 0.161851 0.547897
O O13 0.084552 0.169071 0.430318
O O14 0.000000 0.000000 0.468637
O O15 0.750000 0.587028 0.762301
O O16 0.569098 0.621941 0.753307
O O17 0.515382 0.720500 0.185874
O O18 0.590888 0.719822 0.319593
O O19 0.250000 0.243334 0.388140
#
# Coordination Sequence:
#
# PCOD9377791 Si02
#       8
#     8   8   8   8   8   8   8   8
#     4  10  16  28  46  71 107 135 164 204 257 312
#     4   9  17  30  48  75 109 140 170 206 259 324
#     4  10  20  33  51  74 101 136 172 213 267 320
#     4  10  21  37  54  71 103 142 181 224 261 305
#     4  11  18  26  48  79 107 136 159 201 270 323
#     4  11  18  31  49  75 109 132 170 218 260 317
#     4  10  20  32  51  75 103 141 175 220 264 314
#     4   9  19  33  53  80 107 137 169 209 269 324
#
# _framework density 17.194849999999999
#
# number of rings (size 3 to 8) (size 9 to 14) (size 15 to 20)
#    0.000    2.000    3.750    2.625    0.000    2.000 
#    0.000    1.875    0.000    5.250    0.000    0.000 
#    0.000    0.000    0.000    0.000    0.000    0.000 
#
# Total GULP energy -178266.822301 kJ/mol
# GULP energy per Si atom -5570.838197 kJ/mol
# Density = 1.715571 g / cm^3
# Si number density = 17.194850 Si / 1000 Ang^3
#
#
#
# Elastic Constant Matrix: (Units=GPa)
#
#
# Indices 1 2 3 4 5 6 
#
# 1 104.6862 8.6091 49.0966 0.0000 0.0000 0.0000
# 2 8.6091 27.9337 35.9830 0.0000 0.0000 0.0000
# 3 49.0966 35.9830 153.7709 0.0000 0.0000 0.0000
# 4 0.0000 0.0000 0.0000 28.3210 0.0000 0.0000
# 5 0.0000 0.0000 0.0000 0.0000 16.1319 0.0000
# 6 0.0000 0.0000 0.0000 0.0000 0.0000 -44.5698
#
#
#
# Elastic Compliance Matrix: (Units=1/GPa)
#
#
# Indices 1 2 3 4 5 6 
#
# 1 0.011289 0.001666 -0.003994 0.000000 0.000000 0.000000
# 2 0.001666 0.051492 -0.012581 0.000000 0.000000 0.000000
# 3 -0.003994 -0.012581 0.010722 0.000000 0.000000 0.000000
# 4 0.000000 0.000000 0.000000 0.035310 0.000000 0.000000
# 5 0.000000 0.000000 0.000000 0.000000 0.061989 0.000000
# 6 0.000000 0.000000 0.000000 0.000000 0.000000 -0.022437
#
#
# Mechanical properties :
#
#
# Convention : Reuss Voigt Hill
#
# Bulk Modulus (GPa) = 22.89145 52.64091 37.76618
# Shear Modulus (GPa) = 25.94094 12.82343 19.38218
#
# Velocity S-wave (km/s) = 3.88834 2.73384 3.36104
# Velocity P-wave (km/s) = 5.78799 6.37542 6.08879
#
# Compressibility (1/GPa) = 0.04368442
#
# Stress axis : x y z
#
# Youngs Moduli (GPa) = 88.58545 19.42035 93.26189
#
# Poissons Ratio (x) = -0.03235 0.37249
# Poissons Ratio (y) = -0.14757 1.17336
# Poissons Ratio (z) = 0.35382 0.24433
#
# Static dielectric constant tensor:
#      x y z
#    x 1.636190 0.000000 0.000000 
#    y 0.000000 1.582070 0.000000 
#    z 0.000000 0.000000 1.624650 
# 
# From -- ./inp_files/19728.got.cif
#   From: 2010.05.17/outbox.cif.g08.bks.cpg/sg46_10_cif.got.tgz:19728.got - 2010.06.03 19:58:25.
