data_PCOD9377755
_publ_section_title
;
Structure prediction by ZEFSAII (Michael W. Deem and Ramdas Pophale) SiO2 
 PCOD9377755
Probable space group: I M A 2
;
_chemical_formula_sum "Si O2"
_cell_formula_units_Z 40
_cell_length_a 8.072482
_cell_length_b 30.135280
_cell_length_c 7.228169
_cell_angle_alpha 90.000000
_cell_angle_beta 90.000000
_cell_angle_gamma 90.000000
_cell_volume 1758.371413
_symmetry_space_group_name_H-M "I M A 2"
_symmetry_group_IT_number 46
_symmetry_cell_setting 'orthorhombic'
loop_
_space_group_symop_operation_xyz
x,y,z
-x,-y,z
1/2-x,y,z
1/2+x,-y,z
1/2+x,1/2+y,1/2+z
1/2-x,1/2-y,1/2+z
-x,1/2+y,1/2+z
x,1/2-y,1/2+z
loop_
_atom_site_type_symbol
_atom_site_label
_atom_site_fract_x
_atom_site_fract_y
_atom_site_fract_z
Si Si1 0.061391 0.856425 0.895960
Si Si2 0.930451 0.142050 0.444236
Si Si3 0.750000 0.804585 0.440159
Si Si4 0.559882 0.951873 0.436215
Si Si5 0.052354 0.953992 0.856370
Si Si6 0.750000 0.699984 0.379516
O O1 0.250000 0.845811 0.953859
O O2 0.065271 0.857623 0.669815
O O3 0.017758 0.907000 0.952023
O O4 0.917966 0.822651 0.952967
O O5 0.750000 0.158823 0.388519
O O6 0.083515 0.171082 0.375834
O O7 0.953756 0.091048 0.384300
O O8 0.750000 0.752601 0.401004
O O9 0.750000 0.809666 0.661376
O O10 0.750000 0.944564 0.385626
O O11 0.543665 0.953486 0.660697
O O12 0.500000 0.000000 0.372136
O O13 0.250000 0.954706 0.819603
O O14 0.000000 0.000000 0.950435
#
# Coordination Sequence:
#
# PCOD9377755 Si02
#       6
#     8   8   4   8   8   4
#     4   8  16  27  40  61  87 120 150 183 227 275
#     4   9  16  28  42  60  89 119 151 186 229 274
#     4  10  20  34  48  72  86 126 154 196 231 278
#     4  10  15  20  32  54  84 119 153 176 215 273
#     4   9  15  20  31  53  82 118 152 176 217 272
#     4  10  20  32  52  64  94 118 160 190 235 270
#
# _framework density 22.748322000000002
#
# number of rings (size 3 to 8) (size 9 to 14) (size 15 to 20)
#    0.000    2.800    1.000    4.800    5.600    0.800 
#    0.000    0.000    0.000    0.000    0.000    0.000 
#    0.000    1.600    0.000    0.000    0.000    0.000 
#
# Total GULP energy -111707.749371 kJ/mol
# GULP energy per Si atom -5585.387469 kJ/mol
# Density = 2.269655 g / cm^3
# Si number density = 22.748322 Si / 1000 Ang^3
#
#
#
# Elastic Constant Matrix: (Units=GPa)
#
#
# Indices 1 2 3 4 5 6 
#
# 1 182.5894 106.6074 -2.9268 -0.0002 0.0000 0.0000
# 2 106.6074 182.6838 -6.9716 -0.0003 0.0000 0.0000
# 3 -2.9268 -6.9716 90.6374 -0.0004 0.0001 -0.0001
# 4 -0.0002 -0.0003 -0.0004 -4.1607 0.0001 0.0001
# 5 0.0000 0.0000 0.0001 0.0001 -20.4289 -0.0002
# 6 0.0000 0.0000 -0.0001 0.0001 -0.0002 34.0288
#
#
#
# Elastic Compliance Matrix: (Units=1/GPa)
#
#
# Indices 1 2 3 4 5 6 
#
# 1 0.008308 -0.004852 -0.000105 0.000000 0.000000 0.000000
# 2 -0.004852 0.008324 0.000484 0.000000 0.000000 0.000000
# 3 -0.000105 0.000484 0.011067 -0.000001 0.000000 0.000000
# 4 0.000000 0.000000 -0.000001 -0.240343 -0.000001 0.000001
# 5 0.000000 0.000000 0.000000 -0.000001 -0.048950 0.000000
# 6 0.000000 0.000000 0.000000 0.000001 0.000000 0.029387
#
#
# Mechanical properties :
#
#
# Convention : Reuss Voigt Hill
#
# Bulk Modulus (GPa) = 53.32888 72.14763 62.73826
# Shear Modulus (GPa) = -23.04045 25.83461 1.39708
#
# Velocity S-wave (km/s) = -3.18597 3.37363 0.78453
# Velocity P-wave (km/s) = 3.15595 6.85271 5.33477
#
# Compressibility (1/GPa) = 0.01875156
#
# Stress axis : x y z
#
# Youngs Moduli (GPa) = 120.36291 120.13379 90.36051
#
# Poissons Ratio (x) = 0.58293 0.00948
# Poissons Ratio (y) = 0.58404 -0.04370
# Poissons Ratio (z) = 0.01263 -0.05809
#
# Static dielectric constant tensor:
#      x y z
#    x 1.813090 0.000000 0.000000 
#    y 0.000000 1.829310 0.000000 
#    z 0.000000 0.000000 1.989550 
# 
# From -- ./inp_files/3697.got.cif
#   From: 2010.05.17/outbox.cif.g08.bks.cpg/sg46_2_cif.got.tgz:3697.got - 2010.06.03 19:58:25.
