data_PCOD9377852
_publ_section_title
;
Structure prediction by ZEFSAII (Michael W. Deem and Ramdas Pophale) SiO2 
 PCOD9377852
Probable space group: I M A 2
;
_chemical_formula_sum "Si O2"
_cell_formula_units_Z 64
_cell_length_a 19.994323
_cell_length_b 25.807849
_cell_length_c 5.638733
_cell_angle_alpha 90.000000
_cell_angle_beta 90.000000
_cell_angle_gamma 90.000000
_cell_volume 2909.645259
_symmetry_space_group_name_H-M "I M A 2"
_symmetry_group_IT_number 46
_symmetry_cell_setting 'orthorhombic'
loop_
_space_group_symop_operation_xyz
x,y,z
-x,-y,z
1/2-x,y,z
1/2+x,-y,z
1/2+x,1/2+y,1/2+z
1/2-x,1/2-y,1/2+z
-x,1/2+y,1/2+z
x,1/2-y,1/2+z
loop_
_atom_site_type_symbol
_atom_site_label
_atom_site_fract_x
_atom_site_fract_y
_atom_site_fract_z
Si Si1 0.445821 0.647828 0.600020
Si Si2 0.078829 0.986694 0.313368
Si Si3 0.012579 0.641398 0.100356
Si Si4 0.130369 0.398324 0.273666
Si Si5 0.328707 0.720107 0.701257
Si Si6 0.044003 0.253209 0.568324
Si Si7 0.420096 0.985686 0.814706
Si Si8 0.325716 0.413089 0.774346
O O1 0.441173 0.629497 0.326915
O O2 0.375727 0.670478 0.685827
O O3 0.498836 0.695618 0.571298
O O4 0.475275 0.619362 0.834967
O O5 0.096050 0.961146 0.562627
O O6 0.120546 0.040477 0.300964
O O7 0.094889 0.959503 0.065471
O O8 0.000000 0.000000 0.315546
O O9 0.941944 0.622089 0.200360
O O10 0.005506 0.703456 0.068283
O O11 0.120684 0.460252 0.307361
O O12 0.153986 0.381165 0.536488
O O13 0.172389 0.387063 0.035621
O O14 0.250000 0.708152 0.700052
O O15 0.342442 0.751242 0.453604
O O16 0.082030 0.250114 0.318467
O O17 0.500000 0.000000 0.815898
O O18 0.250000 0.432240 0.733516
#
# Coordination Sequence:
#
# PCOD9377852 Si02
#       8
#     8   8   8   8   8   8   8   8
#     4  10  17  28  42  60  88 116 145 187 236 276
#     4   8  14  25  42  63  86 114 145 175 206 252
#     4  10  18  27  42  61  87 115 146 188 230 268
#     4  10  19  30  44  67  94 117 150 186 218 275
#     4  10  18  27  41  62  89 122 155 187 229 286
#     4   8  14  23  37  54  77 106 133 169 223 266
#     4   8  14  25  41  60  86 114 138 172 217 257
#     4  10  19  31  46  65  96 128 148 176 229 288
#
# _framework density 21.995806000000002
#
# number of rings (size 3 to 8) (size 9 to 14) (size 15 to 20)
#    0.000    2.750    0.000    4.125    0.000    0.000 
#    0.000    0.000    0.000    0.000    0.000    0.000 
#    0.000  186.000    0.000    0.000    0.000    0.000 
#
# Total GULP energy -178158.894029 kJ/mol
# GULP energy per Si atom -5567.465438 kJ/mol
# Density = 2.194574 g / cm^3
# Si number density = 21.995806 Si / 1000 Ang^3
#
#
#
# Elastic Constant Matrix: (Units=GPa)
#
#
# Indices 1 2 3 4 5 6 
#
# 1 56.9596 5.1012 3.9215 0.0000 0.0000 0.0000
# 2 5.1012 33.5099 28.6533 0.0000 0.0000 0.0000
# 3 3.9215 28.6533 272.8335 0.0000 0.0000 0.0000
# 4 0.0000 0.0000 0.0000 31.8559 0.0000 0.0000
# 5 0.0000 0.0000 0.0000 0.0000 21.2783 0.0000
# 6 0.0000 0.0000 0.0000 0.0000 0.0000 15.5333
#
#
#
# Elastic Compliance Matrix: (Units=1/GPa)
#
#
# Indices 1 2 3 4 5 6 
#
# 1 0.017799 -0.002737 0.000032 0.000000 0.000000 0.000000
# 2 -0.002737 0.033207 -0.003448 0.000000 0.000000 0.000000
# 3 0.000032 -0.003448 0.004027 0.000000 0.000000 0.000000
# 4 0.000000 0.000000 0.000000 0.031391 0.000000 0.000000
# 5 0.000000 0.000000 0.000000 0.000000 0.046996 0.000000
# 6 0.000000 0.000000 0.000000 0.000000 0.000000 0.064378
#
#
# Mechanical properties :
#
#
# Convention : Reuss Voigt Hill
#
# Bulk Modulus (GPa) = 23.40450 48.73944 36.07197
# Shear Modulus (GPa) = 22.28693 35.44197 28.86445
#
# Velocity S-wave (km/s) = 3.18659 4.01846 3.62646
# Velocity P-wave (km/s) = 4.91962 6.61342 5.82838
#
# Compressibility (1/GPa) = 0.04272683
#
# Stress axis : x y z
#
# Youngs Moduli (GPa) = 56.18230 30.11427 248.32959
#
# Poissons Ratio (x) = 0.08241 -0.00784
# Poissons Ratio (y) = 0.15375 0.85626
# Poissons Ratio (z) = -0.00177 0.10384
#
# Static dielectric constant tensor:
#      x y z
#    x 1.748210 0.000000 0.000000 
#    y 0.000000 2.407890 0.000000 
#    z 0.000000 0.000000 1.994140 
# 
# From -- ./inp_files/1865.got.cif
#   From: 2010.05.17/outbox.cif.g08.bks.cpg/sg46_1_cif.got.tgz:1865.got - 2010.06.03 19:58:25.
