data_PCOD9377062
_publ_section_title
;
Structure prediction by ZEFSAII (Michael W. Deem and Ramdas Pophale) SiO2 
 PCOD9377062
Probable space group: I B A 2
;
_chemical_formula_sum "Si O2"
_cell_formula_units_Z 64
_cell_length_a 17.270233
_cell_length_b 15.767065
_cell_length_c 11.429944
_cell_angle_alpha 90.000000
_cell_angle_beta 90.000000
_cell_angle_gamma 90.000000
_cell_volume 3112.383881
_symmetry_space_group_name_H-M "I B A 2"
_symmetry_group_IT_number 45
_symmetry_cell_setting 'orthorhombic'
loop_
_space_group_symop_operation_xyz
x,y,z
-x,-y,z
-x,y,1/2+z
x,-y,1/2+z
1/2+x,1/2+y,1/2+z
1/2-x,1/2-y,1/2+z
1/2-x,1/2+y,z
1/2+x,1/2-y,z
loop_
_atom_site_type_symbol
_atom_site_label
_atom_site_fract_x
_atom_site_fract_y
_atom_site_fract_z
Si Si1 0.688877 0.399422 0.514380
Si Si2 0.949757 0.086693 0.831127
Si Si3 0.437423 0.310987 0.456467
Si Si4 0.205615 0.285122 0.626882
Si Si5 0.514836 0.901673 0.307952
Si Si6 0.824902 0.667370 0.872119
Si Si7 0.659373 0.421078 0.105516
Si Si8 0.032165 0.676549 0.061717
O O1 0.608612 0.403853 0.441794
O O2 0.703064 0.310373 0.579549
O O3 0.762356 0.394470 0.427966
O O4 0.689476 0.483255 0.593551
O O5 0.892566 0.090282 0.720856
O O6 0.000000 0.000000 0.827144
O O7 0.011916 0.163906 0.843245
O O8 0.371559 0.238925 0.444377
O O9 0.398333 0.396541 0.500438
O O10 0.496598 0.270298 0.548716
O O11 0.212572 0.280923 0.766615
O O12 0.271991 0.352466 0.595319
O O13 0.123257 0.321384 0.584749
O O14 0.606346 0.888027 0.320068
O O15 0.481839 0.863659 0.431404
O O16 0.493658 0.864003 0.179104
O O17 0.500000 0.000000 0.305935
#
# Coordination Sequence:
#
# PCOD9377062 Si02
#       8
#     8   8   8   8   8   8   8   8
#     4  12  25  47  69 103 141 188 236 298 370 446
#     4  12  27  44  69 105 143 185 244 302 368 448
#     4  11  24  44  69 102 141 183 243 301 370 442
#     4  11  24  46  69  97 141 186 237 300 371 444
#     4  10  22  42  67 101 139 185 246 304 370 440
#     4  10  24  46  67  98 141 183 237 300 373 444
#     4  12  28  43  72 107 138 191 242 304 377 444
#     4  10  23  40  70 100 137 193 239 309 373 447
#
# _framework density 20.563016000000001
#
# number of rings (size 3 to 8) (size 9 to 14) (size 15 to 20)
#    0.000    1.000    5.000    0.375   10.500    0.000 
#    2.250    0.000    0.000    0.000    0.000    0.000 
#    0.000    0.000    0.000    0.000    0.000    0.000 
#
# Total GULP energy -178269.320819 kJ/mol
# GULP energy per Si atom -5570.916276 kJ/mol
# Density = 2.051621 g / cm^3
# Si number density = 20.563016 Si / 1000 Ang^3
#
#
#
# Elastic Constant Matrix: (Units=GPa)
#
#
# Indices 1 2 3 4 5 6 
#
# 1 97.2241 45.2303 36.4151 0.0000 0.0000 0.0000
# 2 45.2303 119.0288 41.6029 0.0000 0.0000 0.0000
# 3 36.4151 41.6029 94.8552 0.0000 0.0000 0.0000
# 4 0.0000 0.0000 0.0000 6.4874 0.0000 0.0000
# 5 0.0000 0.0000 0.0000 0.0000 14.3951 0.0000
# 6 0.0000 0.0000 0.0000 0.0000 0.0000 37.0083
#
#
#
# Elastic Compliance Matrix: (Units=1/GPa)
#
#
# Indices 1 2 3 4 5 6 
#
# 1 0.013378 -0.003884 -0.003432 0.000000 0.000000 0.000000
# 2 -0.003884 0.011050 -0.003355 0.000000 0.000000 0.000000
# 3 -0.003432 -0.003355 0.013332 0.000000 0.000000 0.000000
# 4 0.000000 0.000000 0.000000 0.154145 0.000000 0.000000
# 5 0.000000 0.000000 0.000000 0.000000 0.069468 0.000000
# 6 0.000000 0.000000 0.000000 0.000000 0.000000 0.027021
#
#
# Mechanical properties :
#
#
# Convention : Reuss Voigt Hill
#
# Bulk Modulus (GPa) = 60.91499 61.95609 61.43554
# Shear Modulus (GPa) = 15.86251 24.10215 19.98233
#
# Velocity S-wave (km/s) = 2.78044 3.42733 3.12069
# Velocity P-wave (km/s) = 6.32421 6.77181 6.55183
#
# Compressibility (1/GPa) = 0.01641632
#
# Stress axis : x y z
#
# Youngs Moduli (GPa) = 74.74984 90.49808 75.00894
#
# Poissons Ratio (x) = 0.35148 0.25746
# Poissons Ratio (y) = 0.29032 0.25169
# Poissons Ratio (z) = 0.25657 0.30366
#
# Static dielectric constant tensor:
#      x y z
#    x 1.765890 0.000000 0.000000 
#    y 0.000000 1.799080 0.000000 
#    z 0.000000 0.000000 1.803240 
# 
# From -- ./inp_files/4507.got.cif
#   From: 2010.05.17/outbox.cif.g08.bks.cpg/sg45_3_cif.got.tgz:4507.got - 2010.06.03 19:51:22.
