data_PCOD9377550
_publ_section_title
;
Structure prediction by ZEFSAII (Michael W. Deem and Ramdas Pophale) SiO2 
 PCOD9377550
Probable space group: I B A 2
;
_chemical_formula_sum "Si O2"
_cell_formula_units_Z 60
_cell_length_a 10.973209
_cell_length_b 9.826576
_cell_length_c 25.641810
_cell_angle_alpha 90.000000
_cell_angle_beta 90.000000
_cell_angle_gamma 90.000000
_cell_volume 2764.932582
_symmetry_space_group_name_H-M "I B A 2"
_symmetry_group_IT_number 45
_symmetry_cell_setting 'orthorhombic'
loop_
_space_group_symop_operation_xyz
x,y,z
-x,-y,z
-x,y,1/2+z
x,-y,1/2+z
1/2+x,1/2+y,1/2+z
1/2-x,1/2-y,1/2+z
1/2-x,1/2+y,z
1/2+x,1/2-y,z
loop_
_atom_site_type_symbol
_atom_site_label
_atom_site_fract_x
_atom_site_fract_y
_atom_site_fract_z
Si Si1 0.205488 0.828673 0.614430
Si Si2 0.801320 0.807341 0.341581
Si Si3 0.141936 0.458936 0.165627
Si Si4 0.468778 0.347924 0.527352
Si Si5 0.705430 0.662222 0.438564
Si Si6 0.000000 0.000000 0.874961
Si Si7 0.380652 0.094069 0.019095
Si Si8 0.137789 0.529357 0.788340
O O1 0.195089 0.671275 0.633338
O O2 0.074401 0.848391 0.587212
O O3 0.291701 0.898541 0.569000
O O4 0.260828 0.917685 0.660689
O O5 0.754507 0.778672 0.400490
O O6 0.811216 0.657730 0.318824
O O7 0.714725 0.899313 0.306210
O O8 0.930877 0.883181 0.343222
O O9 0.137015 0.432323 0.227374
O O10 0.000000 0.500000 0.150536
O O11 0.500000 0.500000 0.512328
O O12 0.364103 0.286171 0.490339
O O13 0.580157 0.251116 0.517426
O O14 0.605826 0.573786 0.407853
O O15 0.811536 0.570476 0.464626
O O16 0.500000 0.000000 0.025873
O O17 0.000000 0.500000 0.804419
#
# Coordination Sequence:
#
# PCOD9377550 Si02
#       8
#     8   8   8   8   8   4   8   8
#     4  11  22  41  69  96 137 184 227 285 348 412
#     4  12  25  47  71 103 141 185 238 297 358 424
#     4  11  24  45  70 101 137 179 238 298 358 425
#     4  11  23  39  62  97 141 180 229 274 334 413
#     4  11  25  41  69  97 143 185 230 280 346 414
#     4  12  24  46  68 100 140 180 236 292 344 420
#     4  11  25  41  66 102 142 184 231 279 343 415
#     4  11  26  46  73 102 138 184 236 302 364 428
#
# _framework density 21.700347000000001
#
# number of rings (size 3 to 8) (size 9 to 14) (size 15 to 20)
#    0.000    0.800    2.000    5.200    1.867    2.667 
#    0.000    0.000    2.933    0.000    0.000    0.000 
#    0.000    0.000    0.000    0.000    0.000    0.000 
#
# Total GULP energy -167323.553770 kJ/mol
# GULP energy per Si atom -5577.451792 kJ/mol
# Density = 2.165096 g / cm^3
# Si number density = 21.700347 Si / 1000 Ang^3
#
#
#
# Elastic Constant Matrix: (Units=GPa)
#
#
# Indices 1 2 3 4 5 6 
#
# 1 89.2271 38.4131 25.7137 0.0000 0.0000 0.0000
# 2 38.4131 112.2038 6.3955 0.0000 0.0000 0.0000
# 3 25.7137 6.3955 46.0302 0.0000 0.0000 0.0000
# 4 0.0000 0.0000 0.0000 15.3318 0.0000 0.0000
# 5 0.0000 0.0000 0.0000 0.0000 -165.9445 0.0000
# 6 0.0000 0.0000 0.0000 0.0000 0.0000 43.8652
#
#
#
# Elastic Compliance Matrix: (Units=1/GPa)
#
#
# Indices 1 2 3 4 5 6 
#
# 1 0.015635 -0.004894 -0.008054 0.000000 0.000000 0.000000
# 2 -0.004894 0.010515 0.001273 0.000000 0.000000 0.000000
# 3 -0.008054 0.001273 0.026047 0.000000 0.000000 0.000000
# 4 0.000000 0.000000 0.000000 0.065224 0.000000 0.000000
# 5 0.000000 0.000000 0.000000 0.000000 -0.006026 0.000000
# 6 0.000000 0.000000 0.000000 0.000000 0.000000 0.022797
#
#
# Mechanical properties :
#
#
# Convention : Reuss Voigt Hill
#
# Bulk Modulus (GPa) = 34.66529 43.16730 38.91629
# Shear Modulus (GPa) = 29.91165 -9.55357 10.17904
#
# Velocity S-wave (km/s) = 3.71670 -2.10049 2.16816
# Velocity P-wave (km/s) = 5.86751 3.74872 4.92344
#
# Compressibility (1/GPa) = 0.02884730
#
# Stress axis : x y z
#
# Youngs Moduli (GPa) = 63.95815 95.10087 38.39155
#
# Poissons Ratio (x) = 0.46539 0.30922
# Poissons Ratio (y) = 0.31299 -0.04886
# Poissons Ratio (z) = 0.51514 -0.12104
#
# Static dielectric constant tensor:
#      x y z
#    x 1.953320 0.000000 0.000000 
#    y 0.000000 1.803490 0.000000 
#    z 0.000000 0.000000 1.834260 
# 
# From -- ./inp_files/10022.got.cif
#   From: 2010.05.17/outbox.cif.g08.bks.cpg/sg45_6_cif.got.tgz:10022.got - 2010.06.03 19:51:22.
