data_PCOD9377440
_publ_section_title
;
Structure prediction by ZEFSAII (Michael W. Deem and Ramdas Pophale) SiO2 
 PCOD9377440
Probable space group: I B A 2
;
_chemical_formula_sum "Si O2"
_cell_formula_units_Z 48
_cell_length_a 24.381458
_cell_length_b 7.534886
_cell_length_c 11.309513
_cell_angle_alpha 90.000000
_cell_angle_beta 90.000000
_cell_angle_gamma 90.000000
_cell_volume 2077.687672
_symmetry_space_group_name_H-M "I B A 2"
_symmetry_group_IT_number 45
_symmetry_cell_setting 'orthorhombic'
loop_
_space_group_symop_operation_xyz
x,y,z
-x,-y,z
-x,y,1/2+z
x,-y,1/2+z
1/2+x,1/2+y,1/2+z
1/2-x,1/2-y,1/2+z
1/2-x,1/2+y,z
1/2+x,1/2-y,z
loop_
_atom_site_type_symbol
_atom_site_label
_atom_site_fract_x
_atom_site_fract_y
_atom_site_fract_z
Si Si1 0.375699 0.706309 0.685920
Si Si2 0.709408 0.853981 0.366447
Si Si3 0.054530 0.268864 0.910514
Si Si4 0.173532 0.733645 0.826532
Si Si5 0.650010 0.671254 0.575790
Si Si6 0.069483 0.684679 0.950212
O O1 0.323419 0.795450 0.749109
O O2 0.419603 0.685296 0.792406
O O3 0.352709 0.526828 0.627056
O O4 0.407791 0.812788 0.583735
O O5 0.774138 0.856289 0.346196
O O6 0.691526 0.722061 0.471029
O O7 0.688156 0.050886 0.392151
O O8 0.064484 0.482543 0.903188
O O9 0.990766 0.235619 0.933712
O O10 0.090437 0.208046 0.021606
O O11 0.165350 0.707985 0.687504
O O12 0.115351 0.791571 0.877479
#
# Coordination Sequence:
#
# PCOD9377440 Si02
#       6
#     8   8   8   8   8   8
#     4  11  25  47  70 107 150 187 239 298 357 429
#     4  11  27  46  71 108 140 191 246 290 367 432
#     4  10  25  48  71 109 141 194 244 289 366 436
#     4  12  26  45  76 103 143 191 239 300 357 431
#     4  11  26  47  71 104 149 189 239 297 362 427
#     4  11  25  44  79 101 144 189 242 295 359 432
#
# _framework density 23.102608
#
# number of rings (size 3 to 8) (size 9 to 14) (size 15 to 20)
#    0.000    1.000    3.333    2.000   11.667    2.000 
#    0.000    0.000    0.000    0.000    0.000    0.000 
#    0.000    0.000    0.000    0.000    0.000    0.000 
#
# Total GULP energy -134285.649422 kJ/mol
# GULP energy per Si atom -5595.235393 kJ/mol
# Density = 2.305003 g / cm^3
# Si number density = 23.102608 Si / 1000 Ang^3
#
#
#
# Elastic Constant Matrix: (Units=GPa)
#
#
# Indices 1 2 3 4 5 6 
#
# 1 184.3815 6.5005 54.4735 0.0000 0.0000 0.0000
# 2 6.5005 68.8666 25.0536 0.0000 0.0000 0.0000
# 3 54.4735 25.0536 119.3322 0.0000 0.0000 0.0000
# 4 0.0000 0.0000 0.0000 36.1593 0.0000 0.0000
# 5 0.0000 0.0000 0.0000 0.0000 18.3922 0.0000
# 6 0.0000 0.0000 0.0000 0.0000 0.0000 29.5610
#
#
#
# Elastic Compliance Matrix: (Units=1/GPa)
#
#
# Indices 1 2 3 4 5 6 
#
# 1 0.006284 0.000488 -0.002971 0.000000 0.000000 0.000000
# 2 0.000488 0.015759 -0.003531 0.000000 0.000000 0.000000
# 3 -0.002971 -0.003531 0.010478 0.000000 0.000000 0.000000
# 4 0.000000 0.000000 0.000000 0.027655 0.000000 0.000000
# 5 0.000000 0.000000 0.000000 0.000000 0.054371 0.000000
# 6 0.000000 0.000000 0.000000 0.000000 0.000000 0.033828
#
#
# Mechanical properties :
#
#
# Convention : Reuss Voigt Hill
#
# Bulk Modulus (GPa) = 48.79973 60.51506 54.65740
# Shear Modulus (GPa) = 29.89795 35.92600 32.91198
#
# Velocity S-wave (km/s) = 3.60131 3.94771 3.77848
# Velocity P-wave (km/s) = 6.20174 6.85785 6.53803
#
# Compressibility (1/GPa) = 0.02049192
#
# Stress axis : x y z
#
# Youngs Moduli (GPa) = 159.13199 63.45392 95.44198
#
# Poissons Ratio (x) = -0.03094 0.28356
# Poissons Ratio (y) = -0.07760 0.33703
# Poissons Ratio (z) = 0.47278 0.22407
#
# Static dielectric constant tensor:
#      x y z
#    x 1.835030 0.000000 0.000000 
#    y 0.000000 1.927230 0.000000 
#    z 0.000000 0.000000 1.843360 
# 
# From -- ./inp_files/4769.got.cif
#   From: 2010.05.17/outbox.cif.g08.bks.cpg/sg45_3_cif.got.tgz:4769.got - 2010.06.03 19:51:22.
