data_PCOD9377410
_publ_section_title
;
Structure prediction by ZEFSAII (Michael W. Deem and Ramdas Pophale) SiO2 
 PCOD9377410
Probable space group: I B A 2
;
_chemical_formula_sum "Si O2"
_cell_formula_units_Z 64
_cell_length_a 30.453615
_cell_length_b 8.966787
_cell_length_c 10.882851
_cell_angle_alpha 90.000000
_cell_angle_beta 90.000000
_cell_angle_gamma 90.000000
_cell_volume 2971.791866
_symmetry_space_group_name_H-M "I B A 2"
_symmetry_group_IT_number 45
_symmetry_cell_setting 'orthorhombic'
loop_
_space_group_symop_operation_xyz
x,y,z
-x,-y,z
-x,y,1/2+z
x,-y,1/2+z
1/2+x,1/2+y,1/2+z
1/2-x,1/2-y,1/2+z
1/2-x,1/2+y,z
1/2+x,1/2-y,z
loop_
_atom_site_type_symbol
_atom_site_label
_atom_site_fract_x
_atom_site_fract_y
_atom_site_fract_z
Si Si1 0.944218 0.351021 0.182360
Si Si2 0.544852 0.806416 0.660493
Si Si3 0.604569 0.438434 0.284354
Si Si4 0.086085 0.772531 0.422489
Si Si5 0.695391 0.776858 0.175329
Si Si6 0.686255 0.254429 0.955753
Si Si7 0.380202 0.652087 0.552796
Si Si8 0.749295 0.988092 0.561675
O O1 0.940432 0.522319 0.142998
O O2 0.918340 0.343069 0.311560
O O3 0.926500 0.231116 0.082792
O O4 0.995097 0.312869 0.206412
O O5 0.575876 0.702417 0.743610
O O6 0.549355 0.739390 0.524823
O O7 0.579142 0.573989 0.348747
O O8 0.630393 0.389649 0.410911
O O9 0.623708 0.519163 0.158409
O O10 0.134277 0.759690 0.487669
O O11 0.683716 0.731842 0.310600
O O12 0.652546 0.783624 0.092783
O O13 0.723974 0.923984 0.168062
O O14 0.722204 0.643258 0.115744
O O15 0.717582 0.390063 0.002140
O O16 0.711638 0.099780 0.985572
#
# Coordination Sequence:
#
# PCOD9377410 Si02
#       8
#     8   8   8   8   8   8   8   8
#     4  10  26  45  66  98 136 181 224 288 346 417
#     4  11  26  44  69  97 139 181 229 284 354 409
#     4  11  23  45  66 102 130 185 218 282 345 394
#     4  11  24  43  69 100 137 179 234 289 334 427
#     4  11  22  43  64  94 132 170 227 277 347 411
#     4  11  22  43  66  96 137 173 230 280 348 407
#     4  11  24  44  70  97 137 175 229 285 336 424
#     4  10  25  39  66  95 130 179 216 285 347 417
#
# _framework density 21.535830000000001
#
# number of rings (size 3 to 8) (size 9 to 14) (size 15 to 20)
#    0.000    1.250    3.750    1.500    5.250    3.000 
#    0.000    0.000    0.000    0.000    0.000    0.000 
#    0.000    0.000    0.000    0.000    0.000    0.000 
#
# Total GULP energy -178198.174335 kJ/mol
# GULP energy per Si atom -5568.692948 kJ/mol
# Density = 2.148681 g / cm^3
# Si number density = 21.535830 Si / 1000 Ang^3
#
#
#
# Elastic Constant Matrix: (Units=GPa)
#
#
# Indices 1 2 3 4 5 6 
#
# 1 70.8390 20.4484 15.0522 0.0000 0.0000 0.0000
# 2 20.4484 45.8603 15.4698 0.0000 0.0000 0.0000
# 3 15.0522 15.4698 59.5457 0.0000 0.0000 0.0000
# 4 0.0000 0.0000 0.0000 21.2465 0.0000 0.0000
# 5 0.0000 0.0000 0.0000 0.0000 28.7053 0.0000
# 6 0.0000 0.0000 0.0000 0.0000 0.0000 29.5640
#
#
#
# Elastic Compliance Matrix: (Units=1/GPa)
#
#
# Indices 1 2 3 4 5 6 
#
# 1 0.016530 -0.006533 -0.002481 0.000000 0.000000 0.000000
# 2 -0.006533 0.026482 -0.005228 0.000000 0.000000 0.000000
# 3 -0.002481 -0.005228 0.018779 0.000000 0.000000 0.000000
# 4 0.000000 0.000000 0.000000 0.047067 0.000000 0.000000
# 5 0.000000 0.000000 0.000000 0.000000 0.034837 0.000000
# 6 0.000000 0.000000 0.000000 0.000000 0.000000 0.033825
#
#
# Mechanical properties :
#
#
# Convention : Reuss Voigt Hill
#
# Bulk Modulus (GPa) = 30.02524 30.90953 30.46739
# Shear Modulus (GPa) = 23.03010 24.25479 23.64244
#
# Velocity S-wave (km/s) = 3.27369 3.35961 3.31693
# Velocity P-wave (km/s) = 5.31617 5.42523 5.37098
#
# Compressibility (1/GPa) = 0.03330531
#
# Stress axis : x y z
#
# Youngs Moduli (GPa) = 60.49735 37.76119 53.25001
#
# Poissons Ratio (x) = 0.24671 0.13212
# Poissons Ratio (y) = 0.39525 0.27842
# Poissons Ratio (z) = 0.15010 0.19743
#
# Static dielectric constant tensor:
#      x y z
#    x 1.927600 0.000000 0.000000 
#    y 0.000000 1.527880 0.000000 
#    z 0.000000 0.000000 1.810770 
# 
# From -- ./inp_files/4959.got.cif
#   From: 2010.05.17/outbox.cif.g08.bks.cpg/sg45_3_cif.got.tgz:4959.got - 2010.06.03 19:51:22.
