data_PCOD9377932
_publ_section_title
;
Structure prediction by ZEFSAII (Michael W. Deem and Ramdas Pophale) SiO2 
 PCOD9377932
Probable space group: I M A 2
;
_chemical_formula_sum "Si O2"
_cell_formula_units_Z 60
_cell_length_a 27.327494
_cell_length_b 5.774981
_cell_length_c 17.921389
_cell_angle_alpha 90.000000
_cell_angle_beta 90.000000
_cell_angle_gamma 90.000000
_cell_volume 2828.277601
_symmetry_space_group_name_H-M "I M A 2"
_symmetry_group_IT_number 46
_symmetry_cell_setting 'orthorhombic'
loop_
_space_group_symop_operation_xyz
x,y,z
-x,-y,z
1/2-x,y,z
1/2+x,-y,z
1/2+x,1/2+y,1/2+z
1/2-x,1/2-y,1/2+z
-x,1/2+y,1/2+z
x,1/2-y,1/2+z
loop_
_atom_site_type_symbol
_atom_site_label
_atom_site_fract_x
_atom_site_fract_y
_atom_site_fract_z
Si Si1 0.363600 0.519129 0.982130
Si Si2 0.195889 0.355691 0.419149
Si Si3 0.087430 0.526584 0.232623
Si Si4 0.196199 0.626056 0.574451
Si Si5 0.500000 0.000000 0.615142
Si Si6 0.091933 0.590228 0.394460
Si Si7 0.060804 0.354377 0.541798
Si Si8 0.621073 0.522791 0.682910
O O1 0.319060 0.407577 0.935813
O O2 0.396116 0.651850 0.921335
O O3 0.341309 0.679633 0.046385
O O4 0.397456 0.336948 0.023820
O O5 0.250000 0.382341 0.384180
O O6 0.198990 0.465186 0.501707
O O7 0.146704 0.473500 0.386305
O O8 0.066630 0.545138 0.316286
O O9 0.113132 0.271993 0.223277
O O10 0.046203 0.528215 0.169085
O O11 0.115848 0.774127 0.224382
O O12 0.250000 0.719446 0.590793
O O13 0.173472 0.486875 0.642668
O O14 0.511630 0.779117 0.563651
O O15 0.062515 0.490229 0.464647
O O16 0.081281 0.480594 0.615253
#
# Coordination Sequence:
#
# PCOD9377932 Si02
#       8
#     8   8   8   8   4   8   8   8
#     4  10  17  35  62  92 129 162 217 272 330 371
#     4   9  18  32  60  93 124 164 222 270 310 376
#     4  11  27  44  66  91 137 175 210 266 349 403
#     4  10  18  31  57  95 123 163 220 272 310 374
#     4  10  24  46  66 100 122 174 222 276 332 400
#     4  10  22  40  64  92 131 173 214 272 335 389
#     4  10  21  40  68  93 123 168 228 275 323 394
#     4  11  22  43  64  92 131 173 212 265 334 395
#
# _framework density 21.214324999999999
#
# number of rings (size 3 to 8) (size 9 to 14) (size 15 to 20)
#    0.000    1.867    4.000    2.000    3.733    2.667 
#    2.400    1.333    0.000    0.000    0.000    0.000 
#    0.000    0.000    0.000    0.000    0.000    0.000 
#
# Total GULP energy -167200.830556 kJ/mol
# GULP energy per Si atom -5573.361019 kJ/mol
# Density = 2.116604 g / cm^3
# Si number density = 21.214325 Si / 1000 Ang^3
#
#
#
# Elastic Constant Matrix: (Units=GPa)
#
#
# Indices 1 2 3 4 5 6 
#
# 1 41.6245 0.5215 -2.7938 0.0000 0.0000 0.0000
# 2 0.5215 89.9363 19.0510 0.0000 0.0000 0.0000
# 3 -2.7938 19.0510 80.4075 0.0000 0.0000 0.0000
# 4 0.0000 0.0000 0.0000 5.9830 0.0000 0.0000
# 5 0.0000 0.0000 0.0000 0.0000 39.8706 0.0000
# 6 0.0000 0.0000 0.0000 0.0000 0.0000 -736.7603
#
#
#
# Elastic Compliance Matrix: (Units=1/GPa)
#
#
# Indices 1 2 3 4 5 6 
#
# 1 0.024090 -0.000334 0.000916 0.000000 0.000000 0.000000
# 2 -0.000334 0.011711 -0.002786 0.000000 0.000000 0.000000
# 3 0.000916 -0.002786 0.013129 0.000000 0.000000 0.000000
# 4 0.000000 0.000000 0.000000 0.167140 0.000000 0.000000
# 5 0.000000 0.000000 0.000000 0.000000 0.025081 0.000000
# 6 0.000000 0.000000 0.000000 0.000000 0.000000 -0.001357
#
#
# Mechanical properties :
#
#
# Convention : Reuss Voigt Hill
#
# Bulk Modulus (GPa) = 22.46091 27.28064 24.87077
# Shear Modulus (GPa) = 19.30189 -125.16869 -52.93340
#
# Velocity S-wave (km/s) = 3.01965 -7.68961 -5.00059
# Velocity P-wave (km/s) = 4.77161 8.12112 4.64674
#
# Compressibility (1/GPa) = 0.04452180
#
# Stress axis : x y z
#
# Youngs Moduli (GPa) = 41.51107 85.38878 76.16933
#
# Poissons Ratio (x) = 0.02850 -0.06978
# Poissons Ratio (y) = 0.01385 0.21223
# Poissons Ratio (z) = -0.03803 0.23792
#
# Static dielectric constant tensor:
#      x y z
#    x 1.789410 0.000000 0.000000 
#    y 0.000000 1.860000 0.000000 
#    z 0.000000 0.000000 1.743660 
# 
# From -- ./inp_files/20500.got.cif
#   From: 2010.05.17/outbox.cif.g08.bks.cpg/sg46_11_cif.got.tgz:20500.got - 2010.06.03 19:58:25.
