data_PCOD9377216
_publ_section_title
;
Structure prediction by ZEFSAII (Michael W. Deem and Ramdas Pophale) SiO2 
 PCOD9377216
Probable space group: I B A 2
;
_chemical_formula_sum "Si O2"
_cell_formula_units_Z 64
_cell_length_a 27.527000
_cell_length_b 8.981071
_cell_length_c 10.605190
_cell_angle_alpha 90.000000
_cell_angle_beta 90.000000
_cell_angle_gamma 90.000000
_cell_volume 2621.835661
_symmetry_space_group_name_H-M "I B A 2"
_symmetry_group_IT_number 45
_symmetry_cell_setting 'orthorhombic'
loop_
_space_group_symop_operation_xyz
x,y,z
-x,-y,z
-x,y,1/2+z
x,-y,1/2+z
1/2+x,1/2+y,1/2+z
1/2-x,1/2-y,1/2+z
1/2-x,1/2+y,z
1/2+x,1/2-y,z
loop_
_atom_site_type_symbol
_atom_site_label
_atom_site_fract_x
_atom_site_fract_y
_atom_site_fract_z
Si Si1 0.273466 0.017609 0.762020
Si Si2 0.363886 0.017517 0.633458
Si Si3 0.078384 0.685576 0.816946
Si Si4 0.900569 0.187744 0.090490
Si Si5 0.307369 0.500385 0.085272
Si Si6 0.455298 0.084543 0.466560
Si Si7 0.487510 0.662808 0.784366
Si Si8 0.760386 0.268386 0.437803
O O1 0.290415 0.883587 0.851467
O O2 0.305703 0.019731 0.634930
O O3 0.218268 0.985526 0.720470
O O4 0.270385 0.165171 0.843154
O O5 0.373676 0.128507 0.750307
O O6 0.403266 0.080120 0.535005
O O7 0.377735 0.843367 0.641925
O O8 0.052930 0.530635 0.852495
O O9 0.038562 0.770274 0.734409
O O10 0.087407 0.776361 0.944628
O O11 0.862486 0.052668 0.096130
O O12 0.947594 0.159545 0.175351
O O13 0.278205 0.363514 0.018721
O O14 0.294780 0.653717 0.013541
O O15 0.470082 0.238069 0.402656
O O16 0.500000 0.000000 0.539280
O O17 0.500000 0.500000 0.830746
#
# Coordination Sequence:
#
# PCOD9377216 Si02
#       8
#     8   8   8   8   8   8   8   8
#     4  11  23  44  70 105 143 187 240 296 363 426
#     4  11  22  40  75 106 137 183 250 301 351 434
#     4  10  23  43  71  99 139 188 246 297 358 432
#     4  11  24  45  73 104 142 190 243 298 372 432
#     4  11  23  47  72 107 147 191 242 296 361 436
#     4   9  21  41  73 101 136 186 241 297 359 425
#     4  11  25  48  69 100 148 187 239 308 373 436
#     4  10  23  43  74  99 151 187 234 300 361 426
#
# _framework density 24.410378999999999
#
# number of rings (size 3 to 8) (size 9 to 14) (size 15 to 20)
#    0.000    1.500    1.250    3.000    5.250    3.500 
#   13.500    0.000    0.000    0.000    0.000    0.000 
#    0.000    0.000    0.000    0.000    0.000    0.000 
#
# Total GULP energy -178889.685185 kJ/mol
# GULP energy per Si atom -5590.302662 kJ/mol
# Density = 2.435482 g / cm^3
# Si number density = 24.410379 Si / 1000 Ang^3
#
#
#
# Elastic Constant Matrix: (Units=GPa)
#
#
# Indices 1 2 3 4 5 6 
#
# 1 99.5407 21.0450 25.5471 0.0000 0.0000 0.0000
# 2 21.0450 133.8196 29.4958 0.0000 0.0000 0.0000
# 3 25.5471 29.4958 70.8780 0.0000 0.0000 0.0000
# 4 0.0000 0.0000 0.0000 28.1250 0.0000 0.0000
# 5 0.0000 0.0000 0.0000 0.0000 31.5395 0.0000
# 6 0.0000 0.0000 0.0000 0.0000 0.0000 33.6409
#
#
#
# Elastic Compliance Matrix: (Units=1/GPa)
#
#
# Indices 1 2 3 4 5 6 
#
# 1 0.011181 -0.000958 -0.003631 0.000000 0.000000 0.000000
# 2 -0.000958 0.008309 -0.003113 0.000000 0.000000 0.000000
# 3 -0.003631 -0.003113 0.016713 0.000000 0.000000 0.000000
# 4 0.000000 0.000000 0.000000 0.035556 0.000000 0.000000
# 5 0.000000 0.000000 0.000000 0.000000 0.031706 0.000000
# 6 0.000000 0.000000 0.000000 0.000000 0.000000 0.029726
#
#
# Mechanical properties :
#
#
# Convention : Reuss Voigt Hill
#
# Bulk Modulus (GPa) = 48.07870 50.71268 49.39569
# Shear Modulus (GPa) = 32.14866 33.87111 33.00989
#
# Velocity S-wave (km/s) = 3.63300 3.72905 3.68134
# Velocity P-wave (km/s) = 6.11040 6.27385 6.19267
#
# Compressibility (1/GPa) = 0.02079923
#
# Stress axis : x y z
#
# Youngs Moduli (GPa) = 89.44038 120.34445 59.83388
#
# Poissons Ratio (x) = 0.11528 0.21727
# Poissons Ratio (y) = 0.08568 0.18625
# Poissons Ratio (z) = 0.32478 0.37460
#
# Static dielectric constant tensor:
#      x y z
#    x 2.008490 0.000000 0.000000 
#    y 0.000000 1.936870 0.000000 
#    z 0.000000 0.000000 2.019740 
# 
# From -- ./inp_files/4949.got.cif
#   From: 2010.05.17/outbox.cif.g08.bks.cpg/sg45_3_cif.got.tgz:4949.got - 2010.06.03 19:51:22.
