data_PCOD9377623
_publ_section_title
;
Structure prediction by ZEFSAII (Michael W. Deem and Ramdas Pophale) SiO2 
 PCOD9377623
Probable space group: I B A 2
;
_chemical_formula_sum "Si O2"
_cell_formula_units_Z 60
_cell_length_a 16.945628
_cell_length_b 8.736275
_cell_length_c 16.473636
_cell_angle_alpha 90.000000
_cell_angle_beta 90.000000
_cell_angle_gamma 90.000000
_cell_volume 2438.784523
_symmetry_space_group_name_H-M "I B A 2"
_symmetry_group_IT_number 45
_symmetry_cell_setting 'orthorhombic'
loop_
_space_group_symop_operation_xyz
x,y,z
-x,-y,z
-x,y,1/2+z
x,-y,1/2+z
1/2+x,1/2+y,1/2+z
1/2-x,1/2-y,1/2+z
1/2-x,1/2+y,z
1/2+x,1/2-y,z
loop_
_atom_site_type_symbol
_atom_site_label
_atom_site_fract_x
_atom_site_fract_y
_atom_site_fract_z
Si Si1 0.249719 0.042415 0.231670
Si Si2 0.015624 0.674600 0.245869
Si Si3 0.370362 0.616593 0.849098
Si Si4 0.282091 0.188372 0.955624
Si Si5 0.517102 0.825753 0.563280
Si Si6 0.154428 0.294288 0.291178
Si Si7 0.500000 0.500000 0.468825
Si Si8 0.697675 0.908736 0.563064
O O1 0.173127 0.976653 0.278002
O O2 0.324002 0.974225 0.280915
O O3 0.269075 0.997685 0.140601
O O4 0.227694 0.219389 0.241976
O O5 0.030482 0.676162 0.149019
O O6 0.929425 0.749322 0.256676
O O7 0.000000 0.500000 0.270609
O O8 0.076732 0.759302 0.302887
O O9 0.300822 0.676887 0.907469
O O10 0.426446 0.524029 0.909289
O O11 0.339535 0.243581 0.885455
O O12 0.264853 0.295205 0.031339
O O13 0.311232 0.028380 0.989832
O O14 0.497243 0.664148 0.518180
O O15 0.612476 0.831037 0.578148
O O16 0.500000 0.000000 0.528198
#
# Coordination Sequence:
#
# PCOD9377623 Si02
#       8
#     8   8   8   8   8   8   4   8
#     4  11  25  44  77 101 153 194 265 320 390 486
#     4  11  27  48  80 113 161 211 280 338 410 496
#     4  11  26  46  75 115 151 215 263 326 410 487
#     4  11  26  44  74 107 154 195 261 321 405 466
#     4  11  28  51  81 117 156 212 273 337 418 486
#     4  11  24  45  72 111 145 204 254 324 395 482
#     4  12  26  52  82 114 172 198 268 344 406 498
#     4  12  25  49  73 112 151 202 264 334 399 482
#
# _framework density 24.602419000000001
#
# number of rings (size 3 to 8) (size 9 to 14) (size 15 to 20)
#    0.000    0.800    2.667    3.200    5.600    8.533 
#    0.000    0.000    0.000    0.000    0.000    0.000 
#    0.000    0.000    0.000    0.000    0.000    0.000 
#
# Total GULP energy -167745.503332 kJ/mol
# GULP energy per Si atom -5591.516778 kJ/mol
# Density = 2.454642 g / cm^3
# Si number density = 24.602419 Si / 1000 Ang^3
#
#
#
# Elastic Constant Matrix: (Units=GPa)
#
#
# Indices 1 2 3 4 5 6 
#
# 1 59.0549 36.7337 39.1084 0.0000 0.0000 0.0000
# 2 36.7337 134.3193 64.7833 0.0000 0.0000 0.0000
# 3 39.1084 64.7833 130.9399 0.0000 0.0000 0.0000
# 4 0.0000 0.0000 0.0000 4.3214 0.0000 0.0000
# 5 0.0000 0.0000 0.0000 0.0000 17.2545 0.0000
# 6 0.0000 0.0000 0.0000 0.0000 0.0000 45.0324
#
#
#
# Elastic Compliance Matrix: (Units=1/GPa)
#
#
# Indices 1 2 3 4 5 6 
#
# 1 0.022513 -0.003827 -0.004831 0.000000 0.000000 0.000000
# 2 -0.003827 0.010429 -0.004017 0.000000 0.000000 0.000000
# 3 -0.004831 -0.004017 0.011067 0.000000 0.000000 0.000000
# 4 0.000000 0.000000 0.000000 0.231409 0.000000 0.000000
# 5 0.000000 0.000000 0.000000 0.000000 0.057956 0.000000
# 6 0.000000 0.000000 0.000000 0.000000 0.000000 0.022206
#
#
# Mechanical properties :
#
#
# Convention : Reuss Voigt Hill
#
# Bulk Modulus (GPa) = 53.58974 67.28499 60.43737
# Shear Modulus (GPa) = 12.91494 25.56758 19.24126
#
# Velocity S-wave (km/s) = 2.29366 3.22721 2.79962
# Velocity P-wave (km/s) = 5.37067 6.42610 5.92194
#
# Compressibility (1/GPa) = 0.01866029
#
# Stress axis : x y z
#
# Youngs Moduli (GPa) = 44.41904 95.88791 90.35748
#
# Poissons Ratio (x) = 0.36696 0.43648
# Poissons Ratio (y) = 0.16999 0.36294
# Poissons Ratio (z) = 0.21457 0.38515
#
# Static dielectric constant tensor:
#      x y z
#    x 1.935950 0.000000 0.000000 
#    y 0.000000 2.195810 0.000000 
#    z 0.000000 0.000000 1.945450 
# 
# From -- ./inp_files/8363.got.cif
#   From: 2010.05.17/outbox.cif.g08.bks.cpg/sg45_5_cif.got.tgz:8363.got - 2010.06.03 19:51:22.
