data_PCOD9377570
_publ_section_title
;
Structure prediction by ZEFSAII (Michael W. Deem and Ramdas Pophale) SiO2 
 PCOD9377570
Probable space group: I B A 2
;
_chemical_formula_sum "Si O2"
_cell_formula_units_Z 48
_cell_length_a 17.828275
_cell_length_b 7.529702
_cell_length_c 13.677877
_cell_angle_alpha 90.000000
_cell_angle_beta 90.000000
_cell_angle_gamma 90.000000
_cell_volume 1836.140065
_symmetry_space_group_name_H-M "I B A 2"
_symmetry_group_IT_number 45
_symmetry_cell_setting 'orthorhombic'
loop_
_space_group_symop_operation_xyz
x,y,z
-x,-y,z
-x,y,1/2+z
x,-y,1/2+z
1/2+x,1/2+y,1/2+z
1/2-x,1/2-y,1/2+z
1/2-x,1/2+y,z
1/2+x,1/2-y,z
loop_
_atom_site_type_symbol
_atom_site_label
_atom_site_fract_x
_atom_site_fract_y
_atom_site_fract_z
Si Si1 0.175180 0.628322 0.223550
Si Si2 0.943008 0.666000 0.995160
Si Si3 0.832366 0.110606 0.376168
Si Si4 0.008370 0.711839 0.193173
Si Si5 0.305532 0.909936 0.510627
Si Si6 0.868505 0.252446 0.816411
O O1 0.206478 0.729413 0.317196
O O2 0.095798 0.730378 0.208744
O O3 0.160642 0.424977 0.256502
O O4 0.213044 0.653948 0.119542
O O5 0.979367 0.768556 0.086673
O O6 0.000000 0.500000 0.965620
O O7 0.909622 0.808075 0.918720
O O8 0.864891 0.569692 0.026934
O O9 0.773842 0.055628 0.460102
O O10 0.840576 0.946856 0.303210
O O11 0.954738 0.764538 0.281287
O O12 0.000000 0.500000 0.185637
O O13 0.352650 0.795272 0.430771
#
# Coordination Sequence:
#
# PCOD9377570 Si02
#       6
#     8   8   8   8   8   8
#     4  11  25  51  80 109 163 214 273 343 425 485
#     4  11  22  48  86 113 159 222 277 342 421 495
#     4  12  29  47  76 124 163 217 277 341 415 504
#     4   9  20  44  79 112 143 213 269 334 403 487
#     4  12  25  51  77 115 166 215 274 340 418 497
#     4  11  25  47  75 114 159 210 269 338 409 484
#
# _framework density 26.141798000000001
#
# number of rings (size 3 to 8) (size 9 to 14) (size 15 to 20)
#    0.000    1.000    6.667    1.000    2.333    3.333 
#    3.000    0.000    0.000    0.000    0.000    0.000 
#    0.000    0.000    0.000    0.000    0.000    0.000 
#
# Total GULP energy -134111.899080 kJ/mol
# GULP energy per Si atom -5587.995795 kJ/mol
# Density = 2.608230 g / cm^3
# Si number density = 26.141798 Si / 1000 Ang^3
#
#
#
# Elastic Constant Matrix: (Units=GPa)
#
#
# Indices 1 2 3 4 5 6 
#
# 1 125.8600 52.6057 53.8021 0.0000 0.0000 0.0000
# 2 52.6057 111.5882 48.1318 0.0000 0.0000 0.0000
# 3 53.8021 48.1318 167.8372 0.0000 0.0000 0.0000
# 4 0.0000 0.0000 0.0000 4.8187 0.0000 0.0000
# 5 0.0000 0.0000 0.0000 0.0000 55.4517 0.0000
# 6 0.0000 0.0000 0.0000 0.0000 0.0000 21.5100
#
#
#
# Elastic Compliance Matrix: (Units=1/GPa)
#
#
# Indices 1 2 3 4 5 6 
#
# 1 0.010584 -0.004024 -0.002239 0.000000 0.000000 0.000000
# 2 -0.004024 0.011756 -0.002082 0.000000 0.000000 0.000000
# 3 -0.002239 -0.002082 0.007273 0.000000 0.000000 0.000000
# 4 0.000000 0.000000 0.000000 0.207525 0.000000 0.000000
# 5 0.000000 0.000000 0.000000 0.000000 0.018034 0.000000
# 6 0.000000 0.000000 0.000000 0.000000 0.000000 0.046490
#
#
# Mechanical properties :
#
#
# Convention : Reuss Voigt Hill
#
# Bulk Modulus (GPa) = 77.37186 79.37384 78.37285
# Shear Modulus (GPa) = 15.49623 33.07246 24.28435
#
# Velocity S-wave (km/s) = 2.43734 3.56071 3.05117
# Velocity P-wave (km/s) = 6.13042 6.87994 6.51597
#
# Compressibility (1/GPa) = 0.01292460
#
# Stress axis : x y z
#
# Youngs Moduli (GPa) = 94.47915 85.06021 137.49865
#
# Poissons Ratio (x) = 0.34228 0.30785
# Poissons Ratio (y) = 0.38019 0.28620
# Poissons Ratio (z) = 0.21153 0.17705
#
# Static dielectric constant tensor:
#      x y z
#    x 2.196790 0.000000 0.000000 
#    y 0.000000 2.051730 0.000000 
#    z 0.000000 0.000000 2.088520 
# 
# From -- ./inp_files/6970.got.cif
#   From: 2010.05.17/outbox.cif.g08.bks.cpg/sg45_4_cif.got.tgz:6970.got - 2010.06.03 19:51:22.
