data_PCOD9378761
_publ_section_title
;
Structure prediction by ZEFSAII (Michael W. Deem and Ramdas Pophale) SiO2 
 PCOD9378761
Probable space group: I M A 2
;
_chemical_formula_sum "Si O2"
_cell_formula_units_Z 64
_cell_length_a 8.869422
_cell_length_b 21.018758
_cell_length_c 19.937847
_cell_angle_alpha 90.000000
_cell_angle_beta 90.000000
_cell_angle_gamma 90.000000
_cell_volume 3716.897867
_symmetry_space_group_name_H-M "I M A 2"
_symmetry_group_IT_number 46
_symmetry_cell_setting 'orthorhombic'
loop_
_space_group_symop_operation_xyz
x,y,z
-x,-y,z
1/2-x,y,z
1/2+x,-y,z
1/2+x,1/2+y,1/2+z
1/2-x,1/2-y,1/2+z
-x,1/2+y,1/2+z
x,1/2-y,1/2+z
loop_
_atom_site_type_symbol
_atom_site_label
_atom_site_fract_x
_atom_site_fract_y
_atom_site_fract_z
Si Si1 0.929343 0.566674 0.991930
Si Si2 0.429163 0.814531 0.567388
Si Si3 0.570367 0.693727 0.492343
Si Si4 0.571988 0.113840 0.355647
Si Si5 0.429601 0.756174 0.708594
Si Si6 0.069772 0.382494 0.713710
Si Si7 0.431159 0.066089 0.070140
Si Si8 0.427240 0.733020 0.358786
O O1 0.750000 0.563854 0.993098
O O2 0.000000 0.500000 0.014209
O O3 0.986257 0.580635 0.916363
O O4 0.988534 0.624428 0.037453
O O5 0.250000 0.821036 0.556441
O O6 0.487475 0.751905 0.529099
O O7 0.457681 0.801944 0.646049
O O8 0.750000 0.701187 0.500716
O O9 0.524214 0.627176 0.526062
O O10 0.525292 0.698745 0.414687
O O11 0.750000 0.100630 0.359784
O O12 0.509124 0.096255 0.282473
O O13 0.551006 0.190368 0.363384
O O14 0.250000 0.740044 0.708997
O O15 0.520840 0.690693 0.701171
O O16 0.463867 0.784146 0.781930
O O17 0.250000 0.385883 0.721301
O O18 0.023456 0.420767 0.647378
O O19 0.250000 0.062332 0.068508
O O20 0.500000 0.000000 0.046510
O O21 0.250000 0.720757 0.371124
#
# Coordination Sequence:
#
# PCOD9378761 Si02
#       8
#     8   8   8   8   8   8   8   8
#     4  12  25  40  58  81 112 150 188 232 281 334
#     4  11  21  36  59  85 111 146 186 230 280 335
#     4  11  21  35  55  83 112 143 184 233 280 331
#     4  10  20  35  54  80 113 148 189 228 268 331
#     4   9  19  34  55  82 112 144 183 227 276 330
#     4  10  19  33  52  78 112 149 188 230 275 327
#     4  10  23  38  53  77 110 147 189 232 277 331
#     4   9  18  33  54  82 112 143 181 225 273 329
#
# _framework density 17.218661000000001
#
# number of rings (size 3 to 8) (size 9 to 14) (size 15 to 20)
#    0.000    1.750    2.500    3.375    0.000    5.000 
#    0.000    1.250    0.000    0.750    0.000    1.750 
#    0.000    0.000    0.000    0.000    0.000    0.000 
#
# Total GULP energy -178732.370789 kJ/mol
# GULP energy per Si atom -5585.386587 kJ/mol
# Density = 1.717947 g / cm^3
# Si number density = 17.218661 Si / 1000 Ang^3
#
#
#
# Elastic Constant Matrix: (Units=GPa)
#
#
# Indices 1 2 3 4 5 6 
#
# 1 76.6296 49.0722 44.6028 0.0000 0.0000 0.0000
# 2 49.0722 105.5592 53.4238 0.0000 0.0000 0.0000
# 3 44.6028 53.4238 97.7606 0.0000 0.0000 0.0000
# 4 0.0000 0.0000 0.0000 18.0151 0.0000 0.0000
# 5 0.0000 0.0000 0.0000 0.0000 17.8400 0.0000
# 6 0.0000 0.0000 0.0000 0.0000 0.0000 27.4181
#
#
#
# Elastic Compliance Matrix: (Units=1/GPa)
#
#
# Indices 1 2 3 4 5 6 
#
# 1 0.020707 -0.006697 -0.005788 0.000000 0.000000 0.000000
# 2 -0.006697 0.015261 -0.005284 0.000000 0.000000 0.000000
# 3 -0.005788 -0.005284 0.015757 0.000000 0.000000 0.000000
# 4 0.000000 0.000000 0.000000 0.055509 0.000000 0.000000
# 5 0.000000 0.000000 0.000000 0.000000 0.056054 0.000000
# 6 0.000000 0.000000 0.000000 0.000000 0.000000 0.036472
#
#
# Mechanical properties :
#
#
# Convention : Reuss Voigt Hill
#
# Bulk Modulus (GPa) = 61.77629 63.79411 62.78520
# Shear Modulus (GPa) = 20.77315 21.51134 21.14224
#
# Velocity S-wave (km/s) = 3.47714 3.53838 3.50790
# Velocity P-wave (km/s) = 7.21638 7.33644 7.27666
#
# Compressibility (1/GPa) = 0.01618744
#
# Stress axis : x y z
#
# Youngs Moduli (GPa) = 48.29194 65.52595 63.46202
#
# Poissons Ratio (x) = 0.43884 0.36730
# Poissons Ratio (y) = 0.32342 0.33535
# Poissons Ratio (z) = 0.27950 0.34626
#
# Static dielectric constant tensor:
#      x y z
#    x 1.576900 0.000000 0.000000 
#    y 0.000000 1.563840 0.000000 
#    z 0.000000 0.000000 1.596170 
# 
# From -- ./inp_files/21331.got.cif
#   From: 2010.05.17/outbox.cif.g08.bks.cpg/sg46_11_cif.got.tgz:21331.got - 2010.06.03 19:58:25.
