data_PCOD9378811
_publ_section_title
;
Structure prediction by ZEFSAII (Michael W. Deem and Ramdas Pophale) SiO2 
 PCOD9378811
Probable space group: I M A 2
;
_chemical_formula_sum "Si O2"
_cell_formula_units_Z 48
_cell_length_a 14.009611
_cell_length_b 11.581694
_cell_length_c 13.371683
_cell_angle_alpha 90.000000
_cell_angle_beta 90.000000
_cell_angle_gamma 90.000000
_cell_volume 2169.622795
_symmetry_space_group_name_H-M "I M A 2"
_symmetry_group_IT_number 46
_symmetry_cell_setting 'orthorhombic'
loop_
_space_group_symop_operation_xyz
x,y,z
-x,-y,z
1/2-x,y,z
1/2+x,-y,z
1/2+x,1/2+y,1/2+z
1/2-x,1/2-y,1/2+z
-x,1/2+y,1/2+z
x,1/2-y,1/2+z
loop_
_atom_site_type_symbol
_atom_site_label
_atom_site_fract_x
_atom_site_fract_y
_atom_site_fract_z
Si Si1 0.570691 0.240416 0.703320
Si Si2 0.387990 0.970889 0.309302
Si Si3 0.931659 0.105907 0.512325
Si Si4 0.857927 0.525398 0.477635
Si Si5 0.517001 0.167050 0.910738
Si Si6 0.647024 0.819829 0.177037
O O1 0.619448 0.363069 0.732303
O O2 0.609787 0.168906 0.609767
O O3 0.573174 0.171377 0.807285
O O4 0.455800 0.258222 0.684895
O O5 0.362594 0.935612 0.422528
O O6 0.500000 0.000000 0.314179
O O7 0.347022 0.088419 0.267023
O O8 0.992327 0.205989 0.455476
O O9 0.000000 0.000000 0.542222
O O10 0.750000 0.500241 0.449874
O O11 0.916199 0.604190 0.399559
O O12 0.859146 0.600420 0.578201
O O13 0.920123 0.409673 0.486487
O O14 0.750000 0.755767 0.172649
#
# Coordination Sequence:
#
# PCOD9378811 Si02
#       6
#     8   8   8   8   8   8
#     4  10  19  33  57  84 114 155 199 237 295 363
#     4   8  17  32  53  81 107 147 193 239 281 341
#     4  10  19  33  54  84 118 150 196 237 291 364
#     4  10  21  37  62  91 116 149 203 257 300 349
#     4  10  21  37  60  88 115 160 198 247 305 351
#     4  10  19  34  60  89 116 150 198 256 295 342
#
# _framework density 22.123660000000001
#
# number of rings (size 3 to 8) (size 9 to 14) (size 15 to 20)
#    0.000    2.333    1.667    2.000    7.000    0.667 
#    0.000    3.333    0.000    5.000    0.000    0.000 
#    0.000    0.000    0.000    0.000    0.000    0.000 
#
# Total GULP energy -133790.550750 kJ/mol
# GULP energy per Si atom -5574.606281 kJ/mol
# Density = 2.207331 g / cm^3
# Si number density = 22.123660 Si / 1000 Ang^3
#
#
#
# Elastic Constant Matrix: (Units=GPa)
#
#
# Indices 1 2 3 4 5 6 
#
# 1 75.0655 -10.1811 -31.3264 0.0000 0.0000 0.0000
# 2 -10.1811 61.5003 2.2301 0.0000 0.0000 0.0000
# 3 -31.3264 2.2301 97.5756 0.0000 0.0000 0.0000
# 4 0.0000 0.0000 0.0000 34.2206 0.0000 0.0000
# 5 0.0000 0.0000 0.0000 0.0000 1.8738 0.0000
# 6 0.0000 0.0000 0.0000 0.0000 0.0000 4.0673
#
#
#
# Elastic Compliance Matrix: (Units=1/GPa)
#
#
# Indices 1 2 3 4 5 6 
#
# 1 0.015736 0.002424 0.004996 0.000000 0.000000 0.000000
# 2 0.002424 0.016647 0.000398 0.000000 0.000000 0.000000
# 3 0.004996 0.000398 0.011843 0.000000 0.000000 0.000000
# 4 0.000000 0.000000 0.000000 0.029222 0.000000 0.000000
# 5 0.000000 0.000000 0.000000 0.000000 0.533674 0.000000
# 6 0.000000 0.000000 0.000000 0.000000 0.000000 0.245863
#
#
# Mechanical properties :
#
#
# Convention : Reuss Voigt Hill
#
# Bulk Modulus (GPa) = 16.70516 17.28741 16.99629
# Shear Modulus (GPa) = 5.83224 26.26027 16.04625
#
# Velocity S-wave (km/s) = 1.62540 3.44899 2.69606
# Velocity P-wave (km/s) = 3.33013 4.86741 4.17022
#
# Compressibility (1/GPa) = 0.05986173
#
# Stress axis : x y z
#
# Youngs Moduli (GPa) = 63.55036 60.07121 84.43468
#
# Poissons Ratio (x) = -0.14560 -0.42187
# Poissons Ratio (y) = -0.15403 -0.03358
# Poissons Ratio (z) = -0.31753 -0.02389
#
# Static dielectric constant tensor:
#      x y z
#    x 2.006970 0.000000 0.000000 
#    y 0.000000 1.833000 0.000000 
#    z 0.000000 0.000000 1.870960 
# 
# From -- ./inp_files/15858.got.cif
#   From: 2010.05.17/outbox.cif.g08.bks.cpg/sg46_8_cif.got.tgz:15858.got - 2010.06.03 19:58:25.
