data_PCOD9378033
_publ_section_title
;
Structure prediction by ZEFSAII (Michael W. Deem and Ramdas Pophale) SiO2 
 PCOD9378033
Probable space group: I M A 2
;
_chemical_formula_sum "Si O2"
_cell_formula_units_Z 64
_cell_length_a 8.861948
_cell_length_b 18.928141
_cell_length_c 21.580888
_cell_angle_alpha 90.000000
_cell_angle_beta 90.000000
_cell_angle_gamma 90.000000
_cell_volume 3619.982497
_symmetry_space_group_name_H-M "I M A 2"
_symmetry_group_IT_number 46
_symmetry_cell_setting 'orthorhombic'
loop_
_space_group_symop_operation_xyz
x,y,z
-x,-y,z
1/2-x,y,z
1/2+x,-y,z
1/2+x,1/2+y,1/2+z
1/2-x,1/2-y,1/2+z
-x,1/2+y,1/2+z
x,1/2-y,1/2+z
loop_
_atom_site_type_symbol
_atom_site_label
_atom_site_fract_x
_atom_site_fract_y
_atom_site_fract_z
Si Si1 0.071910 0.424940 0.955440
Si Si2 0.929138 0.632731 0.817619
Si Si3 0.569850 0.423633 0.693048
Si Si4 0.918681 0.563574 0.499609
Si Si5 0.931921 0.277128 0.365451
Si Si6 0.930263 0.281958 0.001802
Si Si7 0.432803 0.074184 0.858813
Si Si8 0.077482 0.314397 0.598703
O O1 0.250000 0.424247 0.968507
O O2 0.052220 0.409069 0.882159
O O3 0.000000 0.500000 0.970769
O O4 0.991837 0.360275 0.990020
O O5 0.750000 0.637411 0.804172
O O6 0.015292 0.594063 0.762438
O O7 0.998899 0.710298 0.829262
O O8 0.500000 0.500000 0.676084
O O9 0.750000 0.427562 0.688531
O O10 0.508394 0.358718 0.651232
O O11 0.750000 0.538806 0.488854
O O12 0.983248 0.574831 0.431442
O O13 0.917713 0.631424 0.541150
O O14 0.000000 0.500000 0.533179
O O15 0.750000 0.278043 0.361309
O O16 0.972458 0.261985 0.438519
O O17 0.000161 0.350195 0.338811
O O18 0.750000 0.280708 0.004786
O O19 0.996628 0.251232 0.065729
O O20 0.250000 0.074557 0.853846
O O21 0.500000 0.000000 0.833244
O O22 0.250000 0.298814 0.617774
#
# Coordination Sequence:
#
# PCOD9378033 Si02
#       8
#     8   8   8   8   8   8   8   8
#     4  10  20  34  55  81 109 139 174 219 272 326
#     4  10  21  37  57  79 105 141 182 226 273 321
#     4  12  25  40  56  78 108 144 187 229 269 316
#     4   9  18  28  42  63  92 130 170 209 249 297
#     4  10  19  32  51  76 105 138 176 221 271 324
#     4  10  20  33  51  76 106 139 176 217 266 323
#     4  10  18  29  44  68 100 135 173 214 260 313
#     4  11  21  35  52  73 103 140 180 221 264 312
#
# _framework density 17.679644
#
# number of rings (size 3 to 8) (size 9 to 14) (size 15 to 20)
#    0.000    1.750    1.250    4.125    0.000    6.000 
#    0.000    0.000    0.000    0.000    0.000    0.875 
#    0.000    0.000    0.000    0.000    0.000    0.125 
#
# Total GULP energy -178414.274326 kJ/mol
# GULP energy per Si atom -5575.446073 kJ/mol
# Density = 1.763940 g / cm^3
# Si number density = 17.679644 Si / 1000 Ang^3
#
#
#
# Elastic Constant Matrix: (Units=GPa)
#
#
# Indices 1 2 3 4 5 6 
#
# 1 93.7782 55.3616 32.8510 0.0000 0.0000 0.0000
# 2 55.3616 127.9326 22.0864 0.0000 0.0000 0.0000
# 3 32.8510 22.0864 48.5757 0.0000 0.0000 0.0000
# 4 0.0000 0.0000 0.0000 17.5029 0.0000 0.0000
# 5 0.0000 0.0000 0.0000 0.0000 25.7689 0.0000
# 6 0.0000 0.0000 0.0000 0.0000 0.0000 33.5839
#
#
#
# Elastic Compliance Matrix: (Units=1/GPa)
#
#
# Indices 1 2 3 4 5 6 
#
# 1 0.017331 -0.005943 -0.009019 0.000000 0.000000 0.000000
# 2 -0.005943 0.010520 -0.000764 0.000000 0.000000 0.000000
# 3 -0.009019 -0.000764 0.027033 0.000000 0.000000 0.000000
# 4 0.000000 0.000000 0.000000 0.057133 0.000000 0.000000
# 5 0.000000 0.000000 0.000000 0.000000 0.038806 0.000000
# 6 0.000000 0.000000 0.000000 0.000000 0.000000 0.029776
#
#
# Mechanical properties :
#
#
# Convention : Reuss Voigt Hill
#
# Bulk Modulus (GPa) = 42.67513 54.54273 48.60893
# Shear Modulus (GPa) = 22.74146 26.03699 24.38922
#
# Velocity S-wave (km/s) = 3.59040 3.84175 3.71820
# Velocity P-wave (km/s) = 6.43260 7.11311 6.78140
#
# Compressibility (1/GPa) = 0.02343285
#
# Stress axis : x y z
#
# Youngs Moduli (GPa) = 57.69982 95.05445 36.99175
#
# Poissons Ratio (x) = 0.56490 0.33361
# Poissons Ratio (y) = 0.34290 0.02827
# Poissons Ratio (z) = 0.52037 0.07265
#
# Static dielectric constant tensor:
#      x y z
#    x 1.597770 0.000000 0.000000 
#    y 0.000000 1.639780 0.000000 
#    z 0.000000 0.000000 1.602680 
# 
# From -- ./inp_files/21307.got.cif
#   From: 2010.05.17/outbox.cif.g08.bks.cpg/sg46_11_cif.got.tgz:21307.got - 2010.06.03 19:58:25.
