data_PCOD9378091
_publ_section_title
;
Structure prediction by ZEFSAII (Michael W. Deem and Ramdas Pophale) SiO2 
 PCOD9378091
Probable space group: I M A 2
;
_chemical_formula_sum "Si O2"
_cell_formula_units_Z 64
_cell_length_a 8.866362
_cell_length_b 26.846597
_cell_length_c 18.902121
_cell_angle_alpha 90.000000
_cell_angle_beta 90.000000
_cell_angle_gamma 90.000000
_cell_volume 4499.303002
_symmetry_space_group_name_H-M "I M A 2"
_symmetry_group_IT_number 46
_symmetry_cell_setting 'orthorhombic'
loop_
_space_group_symop_operation_xyz
x,y,z
-x,-y,z
1/2-x,y,z
1/2+x,-y,z
1/2+x,1/2+y,1/2+z
1/2-x,1/2-y,1/2+z
-x,1/2+y,1/2+z
x,1/2-y,1/2+z
loop_
_atom_site_type_symbol
_atom_site_label
_atom_site_fract_x
_atom_site_fract_y
_atom_site_fract_z
Si Si1 0.075381 0.197254 0.599290
Si Si2 0.069272 0.851777 0.057326
Si Si3 0.069381 0.855030 0.727571
Si Si4 0.569017 0.946173 0.809875
Si Si5 0.068841 0.746426 0.310407
Si Si6 0.932106 0.251529 0.473076
Si Si7 0.067832 0.946532 0.964570
Si Si8 0.423353 0.198222 0.185702
O O1 0.250000 0.182509 0.593440
O O2 0.069444 0.249908 0.641535
O O3 0.983660 0.159481 0.648771
O O4 0.003529 0.209761 0.523559
O O5 0.250000 0.850423 0.064144
O O6 0.998995 0.841758 0.133970
O O7 0.026759 0.805446 0.006212
O O8 0.027648 0.903247 0.019695
O O9 0.250000 0.861175 0.730383
O O10 0.028133 0.807588 0.777495
O O11 0.986819 0.903510 0.757074
O O12 0.750000 0.948852 0.813035
O O13 0.501546 0.934396 0.887682
O O14 0.500000 0.000000 0.790431
O O15 0.250000 0.749009 0.308580
O O16 0.019492 0.751050 0.391570
O O17 0.004240 0.788753 0.258987
O O18 0.750000 0.247689 0.476043
O O19 0.250000 0.949292 0.958515
O O20 0.000000 0.000000 0.985203
O O21 0.250000 0.185740 0.198059
#
# Coordination Sequence:
#
# PCOD9378091 Si02
#       8
#     8   8   8   8   8   8   8   8
#     4   9  17  28  40  59  84 109 137 172 211 249
#     4   9  17  29  44  59  80 111 145 174 206 248
#     4  10  18  30  46  62  82 112 146 177 209 249
#     4  11  21  32  45  62  85 112 142 178 214 249
#     4   9  17  28  43  61  84 113 144 174 208 251
#     4   9  16  27  42  60  81 110 144 174 204 245
#     4  10  19  31  45  62  84 111 143 179 214 250
#     4   9  17  27  40  59  83 108 138 174 211 247
#
# _framework density 14.224425999999999
#
# number of rings (size 3 to 8) (size 9 to 14) (size 15 to 20)
#    0.000    2.500    0.000    4.125    0.000    7.000 
#    0.000    2.500    0.000    0.000    0.000    0.000 
#    0.000    1.000    0.000    5.250    0.000    5.000 
#
# Total GULP energy -178355.099120 kJ/mol
# GULP energy per Si atom -5573.596848 kJ/mol
# Density = 1.419205 g / cm^3
# Si number density = 14.224426 Si / 1000 Ang^3
#
#
#
# Elastic Constant Matrix: (Units=GPa)
#
#
# Indices 1 2 3 4 5 6 
#
# 1 57.3598 37.6479 39.9675 0.0000 0.0000 0.0000
# 2 37.6479 77.8583 53.0237 0.0000 0.0000 0.0000
# 3 39.9675 53.0237 114.5473 -0.0001 0.0000 0.0000
# 4 0.0000 0.0000 -0.0001 26.3275 0.0000 0.0000
# 5 0.0000 0.0000 0.0000 0.0000 21.0002 0.0000
# 6 0.0000 0.0000 0.0000 0.0000 0.0000 20.5712
#
#
#
# Elastic Compliance Matrix: (Units=1/GPa)
#
#
# Indices 1 2 3 4 5 6 
#
# 1 0.027369 -0.009829 -0.005000 0.000000 0.000000 0.000000
# 2 -0.009829 0.022287 -0.006887 0.000000 0.000000 0.000000
# 3 -0.005000 -0.006887 0.013662 0.000000 0.000000 0.000000
# 4 0.000000 0.000000 0.000000 0.037983 0.000000 0.000000
# 5 0.000000 0.000000 0.000000 0.000000 0.047619 0.000000
# 6 0.000000 0.000000 0.000000 0.000000 0.000000 0.048612
#
#
# Mechanical properties :
#
#
# Convention : Reuss Voigt Hill
#
# Bulk Modulus (GPa) = 50.28486 56.78262 53.53374
# Shear Modulus (GPa) = 20.19453 21.52153 20.85803
#
# Velocity S-wave (km/s) = 3.77199 3.89395 3.83345
# Velocity P-wave (km/s) = 7.37552 7.76034 7.57038
#
# Compressibility (1/GPa) = 0.01988670
#
# Stress axis : x y z
#
# Youngs Moduli (GPa) = 36.53800 44.86935 73.19355
#
# Poissons Ratio (x) = 0.44103 0.36593
# Poissons Ratio (y) = 0.35914 0.50408
# Poissons Ratio (z) = 0.18267 0.30902
#
# Static dielectric constant tensor:
#      x y z
#    x 1.477150 0.000000 0.000000 
#    y 0.000000 1.451880 0.000000 
#    z 0.000000 0.000000 1.461080 
# 
# From -- ./inp_files/18626.got.cif
#   From: 2010.05.17/outbox.cif.g08.bks.cpg/sg46_10_cif.got.tgz:18626.got - 2010.06.03 19:58:25.
