data_PCOD9378439
_publ_section_title
;
Structure prediction by ZEFSAII (Michael W. Deem and Ramdas Pophale) SiO2 
 PCOD9378439
Probable space group: I M A 2
;
_chemical_formula_sum "Si O2"
_cell_formula_units_Z 64
_cell_length_a 23.752912
_cell_length_b 26.035326
_cell_length_c 5.292835
_cell_angle_alpha 90.000000
_cell_angle_beta 90.000000
_cell_angle_gamma 90.000000
_cell_volume 3273.167537
_symmetry_space_group_name_H-M "I M A 2"
_symmetry_group_IT_number 46
_symmetry_cell_setting 'orthorhombic'
loop_
_space_group_symop_operation_xyz
x,y,z
-x,-y,z
1/2-x,y,z
1/2+x,-y,z
1/2+x,1/2+y,1/2+z
1/2-x,1/2-y,1/2+z
-x,1/2+y,1/2+z
x,1/2-y,1/2+z
loop_
_atom_site_type_symbol
_atom_site_label
_atom_site_fract_x
_atom_site_fract_y
_atom_site_fract_z
Si Si1 0.424183 0.267909 0.047150
Si Si2 0.436211 0.983072 0.011255
Si Si3 0.811906 0.695132 0.547598
Si Si4 0.873320 0.520970 0.010501
Si Si5 0.687514 0.423546 0.093950
Si Si6 0.849046 0.640464 0.047912
Si Si7 0.629653 0.387795 0.594686
Si Si8 0.684990 0.216268 0.004806
O O1 0.454532 0.249799 0.296809
O O2 0.364235 0.235230 0.046616
O O3 0.407532 0.327159 0.048160
O O4 0.426249 0.921603 0.044010
O O5 0.500000 0.000000 0.039359
O O6 0.400629 0.009168 0.238019
O O7 0.413740 0.001915 0.738677
O O8 0.750000 0.719848 0.544809
O O9 0.818706 0.659752 0.301377
O O10 0.818203 0.660808 0.797392
O O11 0.819562 0.483976 0.040519
O O12 0.858935 0.580325 0.040575
O O13 0.750000 0.404724 0.047317
O O14 0.670816 0.413220 0.383268
O O15 0.647659 0.397327 0.884671
O O16 0.638727 0.328095 0.539231
O O17 0.750000 0.195608 0.020997
O O18 0.679613 0.256410 0.234424
#
# Coordination Sequence:
#
# PCOD9378439 Si02
#       8
#     8   8   8   8   8   8   8   8
#     4   8  16  27  41  59  83 120 164 203 244 289
#     4  10  21  39  61  81 100 128 176 226 268 315
#     4  10  19  29  43  64  93 134 178 210 239 285
#     4  10  21  35  52  78 104 128 166 214 265 313
#     4  10  19  31  48  71 106 147 178 201 239 308
#     4  10  19  31  44  64  94 125 158 210 265 301
#     4  10  20  34  53  77 107 144 177 216 261 298
#     4  10  19  30  48  78 113 148 182 210 246 309
#
# _framework density 19.552924000000001
#
# number of rings (size 3 to 8) (size 9 to 14) (size 15 to 20)
#    0.000    2.250    0.000    3.375    0.000    6.500 
#    0.000    0.000    0.000    0.000    0.000   15.750 
#    0.000    0.000    0.000    0.000    0.000    0.000 
#
# Total GULP energy -178389.826979 kJ/mol
# GULP energy per Si atom -5574.682093 kJ/mol
# Density = 1.950842 g / cm^3
# Si number density = 19.552924 Si / 1000 Ang^3
#
#
#
# Elastic Constant Matrix: (Units=GPa)
#
#
# Indices 1 2 3 4 5 6 
#
# 1 33.8687 -0.8561 -8.2011 0.0000 0.0000 0.0000
# 2 -0.8561 86.0733 1.9456 0.0000 0.0000 0.0000
# 3 -8.2011 1.9456 122.9002 0.0000 0.0000 0.0000
# 4 0.0000 0.0000 0.0000 24.6634 0.0000 0.0000
# 5 0.0000 0.0000 0.0000 0.0000 11.7862 0.0000
# 6 0.0000 0.0000 0.0000 0.0000 0.0000 10.2727
#
#
#
# Elastic Compliance Matrix: (Units=1/GPa)
#
#
# Indices 1 2 3 4 5 6 
#
# 1 0.030016 0.000253 0.001999 0.000000 0.000000 0.000000
# 2 0.000253 0.011624 -0.000167 0.000000 0.000000 0.000000
# 3 0.001999 -0.000167 0.008273 0.000000 0.000000 0.000000
# 4 0.000000 0.000000 0.000000 0.040546 0.000000 0.000000
# 5 0.000000 0.000000 0.000000 0.000000 0.084845 0.000000
# 6 0.000000 0.000000 0.000000 0.000000 0.000000 0.097346
#
#
# Mechanical properties :
#
#
# Convention : Reuss Voigt Hill
#
# Bulk Modulus (GPa) = 18.48984 25.40209 21.94597
# Shear Modulus (GPa) = 17.45156 26.00803 21.72980
#
# Velocity S-wave (km/s) = 2.99076 3.65106 3.33728
# Velocity P-wave (km/s) = 4.62634 5.54917 5.10864
#
# Compressibility (1/GPa) = 0.05408374
#
# Stress axis : x y z
#
# Youngs Moduli (GPa) = 33.31527 86.02662 120.87920
#
# Poissons Ratio (x) = -0.02180 -0.24163
# Poissons Ratio (y) = -0.00844 0.02020
# Poissons Ratio (z) = -0.06660 0.01438
#
# Static dielectric constant tensor:
#      x y z
#    x 1.670590 0.000000 0.000000 
#    y 0.000000 1.691070 0.000000 
#    z 0.000000 0.000000 1.730610 
# 
# From -- ./inp_files/2429.got.cif
#   From: 2010.05.17/outbox.cif.g08.bks.cpg/sg46_2_cif.got.tgz:2429.got - 2010.06.03 19:58:25.
