data_PCOD9378300
_publ_section_title
;
Structure prediction by ZEFSAII (Michael W. Deem and Ramdas Pophale) SiO2 
 PCOD9378300
Probable space group: I M A 2
;
_chemical_formula_sum "Si O2"
_cell_formula_units_Z 60
_cell_length_a 13.333472
_cell_length_b 26.276028
_cell_length_c 7.616820
_cell_angle_alpha 90.000000
_cell_angle_beta 90.000000
_cell_angle_gamma 90.000000
_cell_volume 2668.558094
_symmetry_space_group_name_H-M "I M A 2"
_symmetry_group_IT_number 46
_symmetry_cell_setting 'orthorhombic'
loop_
_space_group_symop_operation_xyz
x,y,z
-x,-y,z
1/2-x,y,z
1/2+x,-y,z
1/2+x,1/2+y,1/2+z
1/2-x,1/2-y,1/2+z
-x,1/2+y,1/2+z
x,1/2-y,1/2+z
loop_
_atom_site_type_symbol
_atom_site_label
_atom_site_fract_x
_atom_site_fract_y
_atom_site_fract_z
Si Si1 0.051771 0.109415 0.391850
Si Si2 0.864303 0.432760 0.275841
Si Si3 0.495274 0.339660 0.235026
Si Si4 0.124933 0.998108 0.103800
Si Si5 0.500000 0.500000 0.036254
Si Si6 0.140086 0.111679 0.023276
Si Si7 0.138677 0.835154 0.265892
Si Si8 0.636178 0.229538 0.905262
O O1 0.064447 0.146784 0.557975
O O2 0.125923 0.118547 0.231346
O O3 0.052089 0.050411 0.450324
O O4 0.943663 0.123076 0.307811
O O5 0.750000 0.430501 0.230927
O O6 0.875805 0.449653 0.477481
O O7 0.913562 0.379464 0.233218
O O8 0.916565 0.474625 0.156942
O O9 0.433718 0.356567 0.404897
O O10 0.545891 0.286348 0.277365
O O11 0.250000 0.997598 0.177403
O O12 0.126917 0.051095 0.998661
O O13 0.000000 0.000000 0.166992
O O14 0.250000 0.126639 0.968071
O O15 0.250000 0.857289 0.267248
O O16 0.131548 0.790676 0.412989
O O17 0.127116 0.804206 0.082025
O O18 0.750000 0.219443 0.836995
#
# Coordination Sequence:
#
# PCOD9378300 Si02
#       8
#     8   8   8   8   4   8   8   8
#     4  11  24  40  62  90 128 174 223 276 326 403
#     4  10  19  34  57  88 129 170 220 274 331 400
#     4  11  21  39  65  93 127 174 217 267 337 403
#     4  10  18  33  57  83 119 169 221 275 337 399
#     4  10  22  36  56  86 126 170 226 272 326 402
#     4  11  24  41  61  87 124 168 225 284 335 396
#     4  10  21  39  64 102 141 175 215 268 337 414
#     4  10  20  37  66 103 141 175 211 263 339 416
#
# _framework density 22.484052999999999
#
# number of rings (size 3 to 8) (size 9 to 14) (size 15 to 20)
#    0.000    1.600    3.333    2.000    0.933    4.800 
#    0.000    0.667    0.000    0.800    0.000    0.000 
#    0.000    0.000    0.000    0.000    0.000    0.000 
#
# Total GULP energy -167058.025706 kJ/mol
# GULP energy per Si atom -5568.600857 kJ/mol
# Density = 2.243288 g / cm^3
# Si number density = 22.484053 Si / 1000 Ang^3
#
#
#
# Elastic Constant Matrix: (Units=GPa)
#
#
# Indices 1 2 3 4 5 6 
#
# 1 111.7273 22.4668 1.0957 -0.0022 -0.0103 -0.0005
# 2 22.4668 49.6139 -9.5789 -0.0025 -0.0051 -0.0004
# 3 1.0957 -9.5789 55.1626 -0.0008 -0.0248 -0.0008
# 4 -0.0022 -0.0025 -0.0008 30.5345 0.0067 0.0001
# 5 -0.0103 -0.0051 -0.0248 0.0067 43.1339 0.0033
# 6 -0.0005 -0.0004 -0.0008 0.0001 0.0033 18.7273
#
#
#
# Elastic Compliance Matrix: (Units=1/GPa)
#
#
# Indices 1 2 3 4 5 6 
#
# 1 0.009901 -0.004678 -0.001009 0.000000 0.000001 0.000000
# 2 -0.004678 0.023065 0.004098 0.000002 0.000004 0.000001
# 3 -0.001009 0.004098 0.018860 0.000001 0.000011 0.000001
# 4 0.000000 0.000002 0.000001 0.032750 -0.000005 0.000000
# 5 0.000001 0.000004 0.000011 -0.000005 0.023184 -0.000004
# 6 0.000000 0.000001 0.000001 0.000000 -0.000004 0.053398
#
#
# Mechanical properties :
#
#
# Convention : Reuss Voigt Hill
#
# Bulk Modulus (GPa) = 20.55585 27.16344 23.85965
# Shear Modulus (GPa) = 27.69286 31.98050 29.83668
#
# Velocity S-wave (km/s) = 3.51332 3.77552 3.64677
# Velocity P-wave (km/s) = 5.06163 5.57794 5.32605
#
# Compressibility (1/GPa) = 0.04864795
#
# Stress axis : x y z
#
# Youngs Moduli (GPa) = 100.99991 43.35502 53.02254
#
# Poissons Ratio (x) = 0.20283 0.05350
# Poissons Ratio (y) = 0.47251 -0.21730
# Poissons Ratio (z) = 0.10191 -0.17768
#
# Static dielectric constant tensor:
#      x y z
#    x 1.622700 0.000010 -0.000030 
#    y 0.000010 1.847360 -0.000010 
#    z -0.000030 -0.000010 1.977310 
# 
# From -- ./inp_files/4911.got.cif
#   From: 2010.05.17/outbox.cif.g08.bks.cpg/sg46_3_cif.got.tgz:4911.got - 2010.06.03 19:58:25.
