data_PCOD9378539
_publ_section_title
;
Structure prediction by ZEFSAII (Michael W. Deem and Ramdas Pophale) SiO2 
 PCOD9378539
Probable space group: I M A 2
;
_chemical_formula_sum "Si O2"
_cell_formula_units_Z 48
_cell_length_a 23.968202
_cell_length_b 5.047809
_cell_length_c 21.900631
_cell_angle_alpha 90.000000
_cell_angle_beta 90.000000
_cell_angle_gamma 90.000000
_cell_volume 2649.689579
_symmetry_space_group_name_H-M "I M A 2"
_symmetry_group_IT_number 46
_symmetry_cell_setting 'orthorhombic'
loop_
_space_group_symop_operation_xyz
x,y,z
-x,-y,z
1/2-x,y,z
1/2+x,-y,z
1/2+x,1/2+y,1/2+z
1/2-x,1/2-y,1/2+z
-x,1/2+y,1/2+z
x,1/2-y,1/2+z
loop_
_atom_site_type_symbol
_atom_site_label
_atom_site_fract_x
_atom_site_fract_y
_atom_site_fract_z
Si Si1 0.067515 0.480459 0.252610
Si Si2 0.628178 0.805727 0.480426
Si Si3 0.750000 0.585086 0.981391
Si Si4 0.250000 0.586779 0.562674
Si Si5 0.932897 0.481908 0.683847
Si Si6 0.039132 0.250517 0.376854
Si Si7 0.370675 0.804372 0.066096
O O1 0.086813 0.772561 0.235253
O O2 0.075100 0.358695 0.319588
O O3 0.000000 0.500000 0.248585
O O4 0.088011 0.272162 0.202182
O O5 0.690076 0.852407 0.452154
O O6 0.579554 0.833362 0.431358
O O7 0.625579 0.518148 0.511499
O O8 0.622351 0.019678 0.534930
O O9 0.750000 0.281134 0.003249
O O10 0.750000 0.782905 0.040515
O O11 0.191684 0.658734 0.593541
O O12 0.913639 0.375631 0.618745
O O13 0.000000 0.500000 0.684398
O O14 0.000000 0.500000 0.394909
O O15 0.000000 0.000000 0.358982
#
# Coordination Sequence:
#
# PCOD9378539 Si02
#       7
#     8   8   4   4   8   8   8
#     4   9  18  33  49  67  91 128 169 193 225 283
#     4  10  20  33  51  75 101 130 161 200 248 293
#     4   8  16  32  50  68  94 130 168 194 228 292
#     4   8  16  30  48  68  94 130 164 192 230 292
#     4  10  19  31  49  70  95 126 160 198 236 282
#     4  11  21  34  52  73 100 131 164 203 244 291
#     4  10  19  32  50  74 101 128 160 199 247 293
#
# _framework density 18.115331000000001
#
# number of rings (size 3 to 8) (size 9 to 14) (size 15 to 20)
#    0.000    2.333    0.000    4.500    0.000    2.000 
#    0.000    0.000    0.000    2.000    0.000    0.000 
#    0.000    1.333    0.000    0.000    0.000    0.083 
#
# Total GULP energy -133685.371918 kJ/mol
# GULP energy per Si atom -5570.223830 kJ/mol
# Density = 1.807410 g / cm^3
# Si number density = 18.115331 Si / 1000 Ang^3
#
#
#
# Elastic Constant Matrix: (Units=GPa)
#
#
# Indices 1 2 3 4 5 6 
#
# 1 48.9765 17.5972 28.0398 0.0000 0.0000 0.0000
# 2 17.5972 80.6594 7.2142 0.0000 0.0000 0.0000
# 3 28.0398 7.2142 49.9207 0.0000 0.0000 0.0000
# 4 0.0000 0.0000 0.0000 24.7695 0.0000 0.0000
# 5 0.0000 0.0000 0.0000 0.0000 -5.8472 0.0000
# 6 0.0000 0.0000 0.0000 0.0000 0.0000 18.2795
#
#
#
# Elastic Compliance Matrix: (Units=1/GPa)
#
#
# Indices 1 2 3 4 5 6 
#
# 1 0.032339 -0.005502 -0.017369 0.000000 0.000000 0.000000
# 2 -0.005502 0.013496 0.001140 0.000000 0.000000 0.000000
# 3 -0.017369 0.001140 0.029623 0.000000 0.000000 0.000000
# 4 0.000000 0.000000 0.000000 0.040372 0.000000 0.000000
# 5 0.000000 0.000000 0.000000 0.000000 -0.171022 0.000000
# 6 0.000000 0.000000 0.000000 0.000000 0.000000 0.054706
#
#
# Mechanical properties :
#
#
# Convention : Reuss Voigt Hill
#
# Bulk Modulus (GPa) = 31.25397 31.69544 31.47471
# Shear Modulus (GPa) = 93.20974 15.88739 54.54857
#
# Velocity S-wave (km/s) = 7.18089 2.96465 5.49338
# Velocity P-wave (km/s) = 9.27598 5.40864 7.59267
#
# Compressibility (1/GPa) = 0.03199594
#
# Stress axis : x y z
#
# Youngs Moduli (GPa) = 30.92247 74.09511 33.75739
#
# Poissons Ratio (x) = 0.40765 0.58634
# Poissons Ratio (y) = 0.17013 -0.03848
# Poissons Ratio (z) = 0.53710 -0.08446
#
# Static dielectric constant tensor:
#      x y z
#    x 1.648440 0.000000 0.000000 
#    y 0.000000 1.640540 0.000000 
#    z 0.000000 0.000000 1.608290 
# 
# From -- ./inp_files/20362.got.cif
#   From: 2010.05.17/outbox.cif.g08.bks.cpg/sg46_11_cif.got.tgz:20362.got - 2010.06.03 19:58:25.
