data_PCOD9378585
_publ_section_title
;
Structure prediction by ZEFSAII (Michael W. Deem and Ramdas Pophale) SiO2 
 PCOD9378585
Probable space group: I M A 2
;
_chemical_formula_sum "Si O2"
_cell_formula_units_Z 64
_cell_length_a 8.629327
_cell_length_b 20.147812
_cell_length_c 21.239641
_cell_angle_alpha 90.000000
_cell_angle_beta 90.000000
_cell_angle_gamma 90.000000
_cell_volume 3692.767697
_symmetry_space_group_name_H-M "I M A 2"
_symmetry_group_IT_number 46
_symmetry_cell_setting 'orthorhombic'
loop_
_space_group_symop_operation_xyz
x,y,z
-x,-y,z
1/2-x,y,z
1/2+x,-y,z
1/2+x,1/2+y,1/2+z
1/2-x,1/2-y,1/2+z
-x,1/2+y,1/2+z
x,1/2-y,1/2+z
loop_
_atom_site_type_symbol
_atom_site_label
_atom_site_fract_x
_atom_site_fract_y
_atom_site_fract_z
Si Si1 0.061195 0.288959 0.059760
Si Si2 0.435806 0.430831 0.733551
Si Si3 0.064355 0.428699 0.259545
Si Si4 0.565630 0.291836 0.302975
Si Si5 0.063810 0.070594 0.611684
Si Si6 0.063874 0.290822 0.919884
Si Si7 0.564878 0.429113 0.875486
Si Si8 0.436937 0.288467 0.683393
O O1 0.250000 0.289494 0.060837
O O2 0.010244 0.364339 0.074604
O O3 0.010877 0.242050 0.117036
O O4 0.015125 0.268238 0.989745
O O5 0.500000 0.500000 0.707126
O O6 0.250000 0.434958 0.741384
O O7 0.511480 0.422623 0.802542
O O8 0.473095 0.365903 0.692984
O O9 0.250000 0.428143 0.263049
O O10 0.020256 0.420970 0.185462
O O11 0.000000 0.500000 0.280341
O O12 0.997053 0.366583 0.297020
O O13 0.750000 0.291742 0.303674
O O14 0.503294 0.254198 0.364419
O O15 0.506704 0.252340 0.241435
O O16 0.250000 0.068188 0.608865
O O17 0.000000 0.000000 0.589298
O O18 0.250000 0.290165 0.915464
O O19 0.006023 0.366095 0.910563
O O20 0.500000 0.500000 0.898243
O O21 0.750000 0.428642 0.878859
O O22 0.250000 0.281232 0.687208
#
# Coordination Sequence:
#
# PCOD9378585 Si02
#       8
#     8   8   8   8   8   8   8   8
#     4   9  19  36  56  78 105 143 187 227 272 329
#     4  10  19  31  54  81 110 141 177 222 275 326
#     4  10  19  34  57  83 114 143 179 227 277 326
#     4  12  23  35  55  83 112 145 186 229 275 326
#     4   9  17  31  51  76 107 142 177 218 261 318
#     4  11  22  37  56  78 109 148 188 230 279 325
#     4  11  21  34  52  76 110 146 186 225 269 326
#     4  10  19  36  59  81 106 142 184 228 278 330
#
# _framework density 17.331173
#
# number of rings (size 3 to 8) (size 9 to 14) (size 15 to 20)
#    0.000    1.750    2.500    4.125    0.000    1.500 
#    0.000    3.750    0.000    0.750    0.000    1.750 
#    0.000    0.000    0.000    0.000    0.000    0.000 
#
# Total GULP energy -178682.390961 kJ/mol
# GULP energy per Si atom -5583.824718 kJ/mol
# Density = 1.729173 g / cm^3
# Si number density = 17.331173 Si / 1000 Ang^3
#
#
#
# Elastic Constant Matrix: (Units=GPa)
#
#
# Indices 1 2 3 4 5 6 
#
# 1 56.6514 43.1600 32.0478 0.0000 0.0000 0.0000
# 2 43.1600 134.2355 73.2940 0.0000 0.0000 0.0000
# 3 32.0478 73.2940 117.5727 0.0000 0.0000 0.0000
# 4 0.0000 0.0000 0.0000 20.4909 0.0000 0.0000
# 5 0.0000 0.0000 0.0000 0.0000 -31.7000 0.0000
# 6 0.0000 0.0000 0.0000 0.0000 0.0000 31.1306
#
#
#
# Elastic Compliance Matrix: (Units=1/GPa)
#
#
# Indices 1 2 3 4 5 6 
#
# 1 0.023897 -0.006256 -0.002614 0.000000 0.000000 0.000000
# 2 -0.006256 0.012932 -0.006356 0.000000 0.000000 0.000000
# 3 -0.002614 -0.006356 0.013180 0.000000 0.000000 0.000000
# 4 0.000000 0.000000 0.000000 0.048802 0.000000 0.000000
# 5 0.000000 0.000000 0.000000 0.000000 -0.031546 0.000000
# 6 0.000000 0.000000 0.000000 0.000000 0.000000 0.032123
#
#
# Mechanical properties :
#
#
# Convention : Reuss Voigt Hill
#
# Bulk Modulus (GPa) = 51.13418 67.27370 59.20394
# Shear Modulus (GPa) = 36.66795 14.64815 25.65805
#
# Velocity S-wave (km/s) = 4.60469 2.91037 3.85184
# Velocity P-wave (km/s) = 7.60520 7.08481 7.34961
#
# Compressibility (1/GPa) = 0.01955639
#
# Stress axis : x y z
#
# Youngs Moduli (GPa) = 41.84673 77.32926 75.87146
#
# Poissons Ratio (x) = 0.48380 0.19830
# Poissons Ratio (y) = 0.26181 0.48225
# Poissons Ratio (z) = 0.10937 0.49152
#
# Static dielectric constant tensor:
#      x y z
#    x 1.582790 0.000000 0.000000 
#    y 0.000000 1.590080 0.000000 
#    z 0.000000 0.000000 1.582680 
# 
# From -- ./inp_files/21442.got.cif
#   From: 2010.05.17/outbox.cif.g08.bks.cpg/sg46_11_cif.got.tgz:21442.got - 2010.06.03 19:58:25.
