data_PCOD9378117
_publ_section_title
;
Structure prediction by ZEFSAII (Michael W. Deem and Ramdas Pophale) SiO2 
 PCOD9378117
Probable space group: I M A 2
;
_chemical_formula_sum "Si O2"
_cell_formula_units_Z 56
_cell_length_a 14.899762
_cell_length_b 22.307932
_cell_length_c 9.710995
_cell_angle_alpha 90.000000
_cell_angle_beta 90.000000
_cell_angle_gamma 90.000000
_cell_volume 3227.768462
_symmetry_space_group_name_H-M "I M A 2"
_symmetry_group_IT_number 46
_symmetry_cell_setting 'orthorhombic'
loop_
_space_group_symop_operation_xyz
x,y,z
-x,-y,z
1/2-x,y,z
1/2+x,-y,z
1/2+x,1/2+y,1/2+z
1/2-x,1/2-y,1/2+z
-x,1/2+y,1/2+z
x,1/2-y,1/2+z
loop_
_atom_site_type_symbol
_atom_site_label
_atom_site_fract_x
_atom_site_fract_y
_atom_site_fract_z
Si Si1 0.643997 0.221852 0.449320
Si Si2 0.088320 0.959338 0.114391
Si Si3 0.649129 0.922081 0.624760
Si Si4 0.456855 0.884910 0.592292
Si Si5 0.651581 0.474502 0.909414
Si Si6 0.647641 0.461846 0.305593
Si Si7 0.642960 0.328152 0.646173
O O1 0.750000 0.210730 0.470843
O O2 0.588235 0.175799 0.542076
O O3 0.626901 0.287666 0.511405
O O4 0.626523 0.208904 0.287730
O O5 0.140461 0.982197 0.248166
O O6 0.083108 0.887842 0.142801
O O7 0.135937 0.963761 0.967800
O O8 0.000000 0.000000 0.105918
O O9 0.750000 0.897467 0.645193
O O10 0.563373 0.879993 0.611710
O O11 0.649907 0.962673 0.487398
O O12 0.630314 0.972285 0.742061
O O13 0.425883 0.933372 0.475509
O O14 0.415200 0.913726 0.730507
O O15 0.750000 0.446240 0.937232
O O16 0.750000 0.446576 0.269443
O O17 0.750000 0.344892 0.647393
#
# Coordination Sequence:
#
# PCOD9378117 Si02
#       7
#     8   8   8   8   8   8   8
#     4  10  21  36  55  79 111 147 184 225 276 335
#     4  12  22  33  51  78 113 152 186 225 277 332
#     4   9  19  33  49  75 107 140 184 231 276 329
#     4  11  18  32  54  76 103 143 188 227 272 334
#     4  10  18  30  49  75 107 140 176 226 281 326
#     4  10  20  32  49  75 111 149 185 227 282 334
#     4  10  22  38  54  80 114 149 186 228 279 335
#
# _framework density 17.349447000000001
#
# number of rings (size 3 to 8) (size 9 to 14) (size 15 to 20)
#    0.000    1.714    1.429    6.857    2.000    0.000 
#    0.000    0.000    0.000    0.000    0.000    4.000 
#    0.000    0.000    0.000    0.000    0.000    0.000 
#
# Total GULP energy -156136.593076 kJ/mol
# GULP energy per Si atom -5576.306896 kJ/mol
# Density = 1.730996 g / cm^3
# Si number density = 17.349447 Si / 1000 Ang^3
#
#
#
# Elastic Constant Matrix: (Units=GPa)
#
#
# Indices 1 2 3 4 5 6 
#
# 1 69.8456 24.3425 5.8628 0.0000 0.0000 0.0000
# 2 24.3425 55.1426 15.1222 0.0000 0.0000 0.0000
# 3 5.8628 15.1222 116.1349 0.0000 0.0000 0.0000
# 4 0.0000 0.0000 0.0000 5.4966 0.0000 0.0000
# 5 0.0000 0.0000 0.0000 0.0000 20.5217 0.0000
# 6 0.0000 0.0000 0.0000 0.0000 0.0000 38.9758
#
#
#
# Elastic Compliance Matrix: (Units=1/GPa)
#
#
# Indices 1 2 3 4 5 6 
#
# 1 0.016922 -0.007504 0.000123 0.000000 0.000000 0.000000
# 2 -0.007504 0.022134 -0.002503 0.000000 0.000000 0.000000
# 3 0.000123 -0.002503 0.008930 0.000000 0.000000 0.000000
# 4 0.000000 0.000000 0.000000 0.181932 0.000000 0.000000
# 5 0.000000 0.000000 0.000000 0.000000 0.048729 0.000000
# 6 0.000000 0.000000 0.000000 0.000000 0.000000 0.025657
#
#
# Mechanical properties :
#
#
# Convention : Reuss Voigt Hill
#
# Bulk Modulus (GPa) = 35.43868 36.86423 36.15145
# Shear Modulus (GPa) = 14.99345 26.05186 20.52265
#
# Velocity S-wave (km/s) = 2.94292 3.87925 3.44306
# Velocity P-wave (km/s) = 5.65849 6.43109 6.05712
#
# Compressibility (1/GPa) = 0.02821776
#
# Stress axis : x y z
#
# Youngs Moduli (GPa) = 59.09381 45.17960 111.97663
#
# Poissons Ratio (x) = 0.33903 -0.01375
# Poissons Ratio (y) = 0.44344 0.28031
# Poissons Ratio (z) = -0.00726 0.11310
#
# Static dielectric constant tensor:
#      x y z
#    x 1.628240 0.000000 0.000000 
#    y 0.000000 1.594220 0.000000 
#    z 0.000000 0.000000 1.613330 
# 
# From -- ./inp_files/5909.got.cif
#   From: 2010.05.17/outbox.cif.g08.bks.cpg/sg46_3_cif.got.tgz:5909.got - 2010.06.03 19:58:25.
