data_PCOD9378146
_publ_section_title
;
Structure prediction by ZEFSAII (Michael W. Deem and Ramdas Pophale) SiO2 
 PCOD9378146
Probable space group: I M A 2
;
_chemical_formula_sum "Si O2"
_cell_formula_units_Z 32
_cell_length_a 16.664012
_cell_length_b 11.702095
_cell_length_c 7.489386
_cell_angle_alpha 90.000000
_cell_angle_beta 90.000000
_cell_angle_gamma 90.000000
_cell_volume 1460.459115
_symmetry_space_group_name_H-M "I M A 2"
_symmetry_group_IT_number 46
_symmetry_cell_setting 'orthorhombic'
loop_
_space_group_symop_operation_xyz
x,y,z
-x,-y,z
1/2-x,y,z
1/2+x,-y,z
1/2+x,1/2+y,1/2+z
1/2-x,1/2-y,1/2+z
-x,1/2+y,1/2+z
x,1/2-y,1/2+z
loop_
_atom_site_type_symbol
_atom_site_label
_atom_site_fract_x
_atom_site_fract_y
_atom_site_fract_z
Si Si1 0.880260 0.420502 0.916750
Si Si2 0.337348 0.700895 0.280976
Si Si3 0.059087 0.139689 0.527781
Si Si4 0.491642 0.377701 0.427586
O O1 0.846155 0.338945 0.763394
O O2 0.876418 0.557703 0.931398
O O3 0.974365 0.390235 0.935162
O O4 0.842075 0.365049 0.094276
O O5 0.250000 0.676739 0.361301
O O6 0.417655 0.662336 0.384066
O O7 0.058264 0.277209 0.522064
O O8 0.051357 0.104423 0.735148
O O9 0.500000 0.500000 0.521680
#
# Coordination Sequence:
#
# PCOD9378146 Si02
#       4
#     8   8   8   8
#     4   9  17  32  48  75 108 132 171 216 266 313
#     4  10  18  30  53  77 104 139 175 222 266 311
#     4   9  17  33  51  75 104 136 173 220 262 313
#     4  10  18  35  52  79 106 137 181 218 270 318
#
# _framework density 21.910919
#
# number of rings (size 3 to 8) (size 9 to 14) (size 15 to 20)
#    0.000    2.500    5.000    0.750    0.000    0.000 
#   18.000    0.000    0.000    3.000    0.000    0.000 
#    0.000    0.000    0.000    0.000    0.000    0.000 
#
# Total GULP energy -89103.409906 kJ/mol
# GULP energy per Si atom -5568.963119 kJ/mol
# Density = 2.186105 g / cm^3
# Si number density = 21.910919 Si / 1000 Ang^3
#
#
#
# Elastic Constant Matrix: (Units=GPa)
#
#
# Indices 1 2 3 4 5 6 
#
# 1 62.4792 22.3311 5.5270 0.0000 0.0000 0.0000
# 2 22.3311 203.3179 23.6260 0.0000 0.0000 0.0000
# 3 5.5270 23.6260 48.4555 0.0000 0.0000 0.0000
# 4 0.0000 0.0000 0.0000 29.6187 0.0000 0.0000
# 5 0.0000 0.0000 0.0000 0.0000 9.4388 0.0000
# 6 0.0000 0.0000 0.0000 0.0000 0.0000 4.2857
#
#
#
# Elastic Compliance Matrix: (Units=1/GPa)
#
#
# Indices 1 2 3 4 5 6 
#
# 1 0.016712 -0.001711 -0.001072 0.000000 0.000000 0.000000
# 2 -0.001711 0.005389 -0.002432 0.000000 0.000000 0.000000
# 3 -0.001072 -0.002432 0.021946 0.000000 0.000000 0.000000
# 4 0.000000 0.000000 0.000000 0.033762 0.000000 0.000000
# 5 0.000000 0.000000 0.000000 0.000000 0.105946 0.000000
# 6 0.000000 0.000000 0.000000 0.000000 0.000000 0.233334
#
#
# Mechanical properties :
#
#
# Convention : Reuss Voigt Hill
#
# Bulk Modulus (GPa) = 29.74794 46.35787 38.05290
# Shear Modulus (GPa) = 11.39667 26.18653 18.79160
#
# Velocity S-wave (km/s) = 2.28312 3.46082 2.93172
# Velocity P-wave (km/s) = 4.53392 6.09697 5.37259
#
# Compressibility (1/GPa) = 0.03361577
#
# Stress axis : x y z
#
# Youngs Moduli (GPa) = 59.83842 185.56399 45.56690
#
# Poissons Ratio (x) = 0.31749 0.04885
# Poissons Ratio (y) = 0.10238 0.11084
# Poissons Ratio (z) = 0.06414 0.45137
#
# Static dielectric constant tensor:
#      x y z
#    x 1.774940 0.000000 0.000000 
#    y 0.000000 1.964490 0.000000 
#    z 0.000000 0.000000 1.903460 
# 
# From -- ./inp_files/5210.got.cif
#   From: 2010.05.17/outbox.cif.g08.bks.cpg/sg46_3_cif.got.tgz:5210.got - 2010.06.03 19:58:25.
