data_PCOD9378517
_publ_section_title
;
Structure prediction by ZEFSAII (Michael W. Deem and Ramdas Pophale) SiO2 
 PCOD9378517
Probable space group: I M A 2
;
_chemical_formula_sum "Si O2"
_cell_formula_units_Z 64
_cell_length_a 15.185644
_cell_length_b 26.648544
_cell_length_c 9.327911
_cell_angle_alpha 90.000000
_cell_angle_beta 90.000000
_cell_angle_gamma 90.000000
_cell_volume 3774.775204
_symmetry_space_group_name_H-M "I M A 2"
_symmetry_group_IT_number 46
_symmetry_cell_setting 'orthorhombic'
loop_
_space_group_symop_operation_xyz
x,y,z
-x,-y,z
1/2-x,y,z
1/2+x,-y,z
1/2+x,1/2+y,1/2+z
1/2-x,1/2-y,1/2+z
-x,1/2+y,1/2+z
x,1/2-y,1/2+z
loop_
_atom_site_type_symbol
_atom_site_label
_atom_site_fract_x
_atom_site_fract_y
_atom_site_fract_z
Si Si1 0.845071 0.024566 0.129330
Si Si2 0.853170 0.575656 0.110740
Si Si3 0.472986 0.618406 0.611523
Si Si4 0.851751 0.197550 0.947153
Si Si5 0.426694 0.454274 0.413793
Si Si6 0.983898 0.118680 0.445583
Si Si7 0.850006 0.473837 0.943225
Si Si8 0.352214 0.805090 0.603520
O O1 0.750000 0.048173 0.122980
O O2 0.911354 0.069721 0.122230
O O3 0.857748 0.001026 0.285919
O O4 0.856134 0.984952 0.005295
O O5 0.750000 0.591246 0.105295
O O6 0.890992 0.569454 0.269464
O O7 0.857687 0.518681 0.052890
O O8 0.921584 0.608765 0.018457
O O9 0.420025 0.661155 0.526892
O O10 0.546823 0.593287 0.512188
O O11 0.494173 0.632072 0.776546
O O12 0.750000 0.180064 0.966689
O O13 0.867220 0.200007 0.775222
O O14 0.857837 0.251790 0.022488
O O15 0.500000 0.500000 0.389702
O O16 0.925296 0.067626 0.456620
O O17 0.924057 0.158825 0.530680
O O18 0.750000 0.452284 0.953352
O O19 0.250000 0.822953 0.585139
#
# Coordination Sequence:
#
# PCOD9378517 Si02
#       8
#     8   8   8   8   8   8   8   8
#     4   9  17  30  47  70 101 137 171 207 250 303
#     4  11  22  34  49  71  99 136 177 221 264 303
#     4  10  20  32  51  75 101 137 174 210 256 305
#     4  10  20  35  53  79 111 138 167 203 245 304
#     4  10  19  31  47  70 100 134 175 217 259 303
#     4  11  20  34  53  75 104 137 174 215 255 307
#     4   9  18  31  49  73 103 137 172 207 253 308
#     4  10  21  35  55  81 110 140 168 202 248 301
#
# _framework density 16.954651999999999
#
# number of rings (size 3 to 8) (size 9 to 14) (size 15 to 20)
#    0.000    2.000    0.000    4.500    0.000    5.500 
#    0.000    3.125    0.000    0.000    0.000    8.750 
#    0.000    0.000    0.000    0.000    0.000    0.000 
#
# Total GULP energy -178201.244266 kJ/mol
# GULP energy per Si atom -5568.788883 kJ/mol
# Density = 1.691606 g / cm^3
# Si number density = 16.954652 Si / 1000 Ang^3
#
#
#
# Elastic Constant Matrix: (Units=GPa)
#
#
# Indices 1 2 3 4 5 6 
#
# 1 79.3384 29.1518 53.3169 0.0002 0.0001 0.0001
# 2 29.1518 50.1670 41.8613 -0.0004 0.0000 0.0000
# 3 53.3169 41.8613 142.9711 -0.0015 -0.0002 0.0002
# 4 0.0002 -0.0004 -0.0015 30.0269 0.0000 0.0000
# 5 0.0001 0.0000 -0.0002 0.0000 24.6932 0.0000
# 6 0.0001 0.0000 0.0002 0.0000 0.0000 32.5864
#
#
#
# Elastic Compliance Matrix: (Units=1/GPa)
#
#
# Indices 1 2 3 4 5 6 
#
# 1 0.018309 -0.006540 -0.004913 0.000000 0.000000 0.000000
# 2 -0.006540 0.028714 -0.005969 0.000000 0.000000 0.000000
# 3 -0.004913 -0.005969 0.010574 0.000000 0.000000 0.000000
# 4 0.000000 0.000000 0.000000 0.033303 0.000000 0.000000
# 5 0.000000 0.000000 0.000000 0.000000 0.040497 0.000000
# 6 0.000000 0.000000 0.000000 0.000000 0.000000 0.030688
#
#
# Mechanical properties :
#
#
# Convention : Reuss Voigt Hill
#
# Bulk Modulus (GPa) = 43.94710 57.90405 50.92558
# Shear Modulus (GPa) = 24.44845 27.33774 25.89310
#
# Velocity S-wave (km/s) = 3.80148 4.01983 3.91218
# Velocity P-wave (km/s) = 6.72644 7.46805 7.10693
#
# Compressibility (1/GPa) = 0.02275463
#
# Stress axis : x y z
#
# Youngs Moduli (GPa) = 54.61884 34.82624 94.57045
#
# Poissons Ratio (x) = 0.22775 0.46462
# Poissons Ratio (y) = 0.35718 0.56445
# Poissons Ratio (z) = 0.26834 0.20786
#
# Static dielectric constant tensor:
#      x y z
#    x 1.595330 0.000000 0.000000 
#    y 0.000000 1.540400 0.000000 
#    z 0.000000 0.000000 1.634160 
# 
# From -- ./inp_files/6095.got.cif
#   From: 2010.05.17/outbox.cif.g08.bks.cpg/sg46_4_cif.got.tgz:6095.got - 2010.06.03 19:58:25.
