data_PCOD9378677
_publ_section_title
;
Structure prediction by ZEFSAII (Michael W. Deem and Ramdas Pophale) SiO2 
 PCOD9378677
Probable space group: I M A 2
;
_chemical_formula_sum "Si O2"
_cell_formula_units_Z 56
_cell_length_a 8.863940
_cell_length_b 24.510972
_cell_length_c 13.943094
_cell_angle_alpha 90.000000
_cell_angle_beta 90.000000
_cell_angle_gamma 90.000000
_cell_volume 3029.329379
_symmetry_space_group_name_H-M "I M A 2"
_symmetry_group_IT_number 46
_symmetry_cell_setting 'orthorhombic'
loop_
_space_group_symop_operation_xyz
x,y,z
-x,-y,z
1/2-x,y,z
1/2+x,-y,z
1/2+x,1/2+y,1/2+z
1/2-x,1/2-y,1/2+z
-x,1/2+y,1/2+z
x,1/2-y,1/2+z
loop_
_atom_site_type_symbol
_atom_site_label
_atom_site_fract_x
_atom_site_fract_y
_atom_site_fract_z
Si Si1 0.068445 0.167255 0.481580
Si Si2 0.430474 0.224116 0.870067
Si Si3 0.930894 0.941093 0.152084
Si Si4 0.569714 0.441496 0.293270
Si Si5 0.068883 0.441988 0.875996
Si Si6 0.568955 0.375563 0.483043
Si Si7 0.430956 0.668777 0.188274
O O1 0.250000 0.166035 0.494359
O O2 0.034950 0.215184 0.406169
O O3 0.018943 0.108794 0.440214
O O4 0.991578 0.179271 0.582672
O O5 0.250000 0.217349 0.866556
O O6 0.499787 0.180860 0.945169
O O7 0.500097 0.209265 0.767259
O O8 0.750000 0.942536 0.142363
O O9 0.969049 0.931682 0.263996
O O10 0.000000 0.000000 0.125718
O O11 0.000193 0.896076 0.082265
O O12 0.500000 0.500000 0.272748
O O13 0.750000 0.446130 0.288565
O O14 0.530817 0.419938 0.400035
O O15 0.523738 0.392513 0.222138
O O16 0.250000 0.445691 0.881639
O O17 0.000000 0.500000 0.904591
O O18 0.750000 0.371316 0.488152
O O19 0.250000 0.672039 0.192118
#
# Coordination Sequence:
#
# PCOD9378677 Si02
#       7
#     8   8   8   8   8   8   8
#     4  10  22  40  61  83 108 143 184 224 271 327
#     4  10  21  38  59  82 110 145 185 228 274 327
#     4  10  19  32  52  79 112 150 190 232 279 330
#     4   9  19  33  50  75 108 144 181 222 268 320
#     4   9  20  38  57  80 111 144 182 228 273 323
#     4  10  20  34  52  79 114 148 187 233 280 332
#     4  10  22  39  57  82 114 144 180 227 275 325
#
# _framework density 18.485939999999999
#
# number of rings (size 3 to 8) (size 9 to 14) (size 15 to 20)
#    0.000    2.286    0.000    3.000    0.000    8.571 
#    0.000    5.714    0.000    0.000    0.000    0.000 
#    0.000    0.000    0.000    0.000    0.000    0.000 
#
# Total GULP energy -156338.205517 kJ/mol
# GULP energy per Si atom -5583.507340 kJ/mol
# Density = 1.844387 g / cm^3
# Si number density = 18.485940 Si / 1000 Ang^3
#
#
#
# Elastic Constant Matrix: (Units=GPa)
#
#
# Indices 1 2 3 4 5 6 
#
# 1 47.6568 50.1991 43.8562 0.0000 0.0000 0.0000
# 2 50.1991 121.9572 76.4376 0.0000 0.0000 0.0000
# 3 43.8562 76.4376 101.6197 -0.0001 0.0000 0.0000
# 4 0.0000 0.0000 -0.0001 17.5535 0.0000 0.0000
# 5 0.0000 0.0000 0.0000 0.0000 25.9278 0.0000
# 6 0.0000 0.0000 0.0000 0.0000 0.0000 30.7790
#
#
#
# Elastic Compliance Matrix: (Units=1/GPa)
#
#
# Indices 1 2 3 4 5 6 
#
# 1 0.041434 -0.011063 -0.009561 0.000000 0.000000 0.000000
# 2 -0.011063 0.018467 -0.009116 0.000000 0.000000 0.000000
# 3 -0.009561 -0.009116 0.020824 0.000000 0.000000 0.000000
# 4 0.000000 0.000000 0.000000 0.056969 0.000000 0.000000
# 5 0.000000 0.000000 0.000000 0.000000 0.038569 0.000000
# 6 0.000000 0.000000 0.000000 0.000000 0.000000 0.032490
#
#
# Mechanical properties :
#
#
# Convention : Reuss Voigt Hill
#
# Bulk Modulus (GPa) = 47.06783 68.02437 57.54610
# Shear Modulus (GPa) = 18.16112 21.56812 19.86462
#
# Velocity S-wave (km/s) = 3.13777 3.41945 3.28163
# Velocity P-wave (km/s) = 6.21644 7.24348 6.74952
#
# Compressibility (1/GPa) = 0.02124594
#
# Stress axis : x y z
#
# Youngs Moduli (GPa) = 24.13452 54.15122 48.02180
#
# Poissons Ratio (x) = 0.59906 0.45912
# Poissons Ratio (y) = 0.26699 0.43778
# Poissons Ratio (z) = 0.23074 0.49366
#
# Static dielectric constant tensor:
#      x y z
#    x 1.617950 0.000000 0.000000 
#    y 0.000000 1.626390 0.000000 
#    z 0.000000 0.000000 1.624530 
# 
# From -- ./inp_files/14161.got.cif
#   From: 2010.05.17/outbox.cif.g08.bks.cpg/sg46_8_cif.got.tgz:14161.got - 2010.06.03 19:58:25.
