data_PCOD9378796
_publ_section_title
;
Structure prediction by ZEFSAII (Michael W. Deem and Ramdas Pophale) SiO2 
 PCOD9378796
Probable space group: I M A 2
;
_chemical_formula_sum "Si O2"
_cell_formula_units_Z 40
_cell_length_a 14.668648
_cell_length_b 5.237040
_cell_length_c 22.949632
_cell_angle_alpha 90.000000
_cell_angle_beta 90.000000
_cell_angle_gamma 90.000000
_cell_volume 1762.997531
_symmetry_space_group_name_H-M "I M A 2"
_symmetry_group_IT_number 46
_symmetry_cell_setting 'orthorhombic'
loop_
_space_group_symop_operation_xyz
x,y,z
-x,-y,z
1/2-x,y,z
1/2+x,-y,z
1/2+x,1/2+y,1/2+z
1/2-x,1/2-y,1/2+z
-x,1/2+y,1/2+z
x,1/2-y,1/2+z
loop_
_atom_site_type_symbol
_atom_site_label
_atom_site_fract_x
_atom_site_fract_y
_atom_site_fract_z
Si Si1 0.606830 0.536321 0.528100
Si Si2 0.360090 0.374443 0.661897
Si Si3 0.059696 0.753592 0.854569
Si Si4 0.139796 0.624483 0.229771
Si Si5 0.889462 0.461532 0.970943
O O1 0.500000 0.500000 0.515862
O O2 0.615286 0.628750 0.594216
O O3 0.643715 0.252703 0.516278
O O4 0.645400 0.757788 0.486504
O O5 0.250000 0.371484 0.664317
O O6 0.391492 0.635650 0.691509
O O7 0.392972 0.134426 0.699331
O O8 0.107737 0.842601 0.795735
O O9 0.124394 0.657955 0.907051
O O10 0.000000 0.500000 0.841524
O O11 0.000000 0.000000 0.874534
O O12 0.250000 0.622021 0.229541
O O13 0.000000 0.500000 0.974601
#
# Coordination Sequence:
#
# PCOD9378796 Si02
#       5
#     8   8   8   8   8
#     4  10  19  33  54  78 105 138 176 217 263 320
#     4  10  21  37  55  77 110 147 180 221 273 322
#     4  11  21  36  59  83 109 142 184 227 268 323
#     4  10  22  39  56  78 112 148 180 223 278 323
#     4   9  18  33  53  78 107 137 169 216 275 316
#
# _framework density 22.688632999999999
#
# number of rings (size 3 to 8) (size 9 to 14) (size 15 to 20)
#    0.000    2.000    0.000    5.400    0.000    2.400 
#    0.000    2.000    0.000    0.000    0.000    1.400 
#    0.000    0.000    0.000    0.000    0.000    0.000 
#
# Total GULP energy -111776.862723 kJ/mol
# GULP energy per Si atom -5588.843136 kJ/mol
# Density = 2.263699 g / cm^3
# Si number density = 22.688633 Si / 1000 Ang^3
#
#
#
# Elastic Constant Matrix: (Units=GPa)
#
#
# Indices 1 2 3 4 5 6 
#
# 1 56.3912 24.7004 5.0120 0.0000 0.0000 0.0000
# 2 24.7004 184.8575 71.4659 0.0000 0.0000 0.0000
# 3 5.0120 71.4659 158.4363 0.0000 0.0000 0.0000
# 4 0.0000 0.0000 0.0000 44.8579 0.0000 0.0000
# 5 0.0000 0.0000 0.0000 0.0000 51.2938 0.0000
# 6 0.0000 0.0000 0.0000 0.0000 0.0000 -4.6730
#
#
#
# Elastic Compliance Matrix: (Units=1/GPa)
#
#
# Indices 1 2 3 4 5 6 
#
# 1 0.018892 -0.002778 0.000655 0.000000 0.000000 0.000000
# 2 -0.002778 0.006961 -0.003052 0.000000 0.000000 0.000000
# 3 0.000655 -0.003052 0.007668 0.000000 0.000000 0.000000
# 4 0.000000 0.000000 0.000000 0.022293 0.000000 0.000000
# 5 0.000000 0.000000 0.000000 0.000000 0.019496 0.000000
# 6 0.000000 0.000000 0.000000 0.000000 0.000000 -0.213995
#
#
# Mechanical properties :
#
#
# Convention : Reuss Voigt Hill
#
# Bulk Modulus (GPa) = 43.15655 66.89348 55.02502
# Shear Modulus (GPa) = -41.45421 38.19619 -1.62901
#
# Velocity S-wave (km/s) = -4.27909 4.10749 -0.84826
# Velocity P-wave (km/s) = 2.31335 7.21405 4.83172
#
# Compressibility (1/GPa) = 0.02317145
#
# Stress axis : x y z
#
# Youngs Moduli (GPa) = 52.93336 143.66685 130.41986
#
# Poissons Ratio (x) = 0.39905 -0.08546
# Poissons Ratio (y) = 0.14703 0.39802
# Poissons Ratio (z) = -0.03469 0.43845
#
# Static dielectric constant tensor:
#      x y z
#    x 1.891440 0.000000 0.000000 
#    y 0.000000 1.834370 0.000000 
#    z 0.000000 0.000000 1.812640 
# 
# From -- ./inp_files/22137.got.cif
#   From: 2010.05.17/outbox.cif.g08.bks.cpg/sg46_12_cif.got.tgz:22137.got - 2010.06.03 19:58:25.
