data_PCOD9378126
_publ_section_title
;
Structure prediction by ZEFSAII (Michael W. Deem and Ramdas Pophale) SiO2 
 PCOD9378126
Probable space group: I M A 2
;
_chemical_formula_sum "Si O2"
_cell_formula_units_Z 48
_cell_length_a 8.556198
_cell_length_b 9.621555
_cell_length_c 32.176912
_cell_angle_alpha 90.000000
_cell_angle_beta 90.000000
_cell_angle_gamma 90.000000
_cell_volume 2648.929840
_symmetry_space_group_name_H-M "I M A 2"
_symmetry_group_IT_number 46
_symmetry_cell_setting 'orthorhombic'
loop_
_space_group_symop_operation_xyz
x,y,z
-x,-y,z
1/2-x,y,z
1/2+x,-y,z
1/2+x,1/2+y,1/2+z
1/2-x,1/2-y,1/2+z
-x,1/2+y,1/2+z
x,1/2-y,1/2+z
loop_
_atom_site_type_symbol
_atom_site_label
_atom_site_fract_x
_atom_site_fract_y
_atom_site_fract_z
Si Si1 0.061465 0.654809 0.782280
Si Si2 0.936383 0.658453 0.445798
Si Si3 0.938778 0.343825 0.111840
Si Si4 0.438897 0.655515 0.688498
Si Si5 0.062182 0.657056 0.359135
Si Si6 0.562317 0.157590 0.033145
O O1 0.250000 0.652513 0.782722
O O2 0.012086 0.695622 0.735431
O O3 0.009988 0.756374 0.818987
O O4 0.000000 0.500000 0.789720
O O5 0.750000 0.657095 0.445658
O O6 0.000000 0.500000 0.445739
O O7 0.999358 0.719516 0.402584
O O8 0.998928 0.716466 0.489357
O O9 0.750000 0.347404 0.112313
O O10 0.991847 0.262673 0.153315
O O11 0.986047 0.253485 0.071677
O O12 0.000000 0.500000 0.110208
O O13 0.500000 0.500000 0.680148
O O14 0.250000 0.650891 0.687560
O O15 0.250000 0.653822 0.360908
O O16 0.000000 0.500000 0.355644
O O17 0.750000 0.151059 0.031227
O O18 0.500000 0.000000 0.038592
#
# Coordination Sequence:
#
# PCOD9378126 Si02
#       6
#     8   8   8   8   8   8
#     4   9  19  34  53  75 103 134 168 208 251 296
#     4  10  18  30  50  75 100 131 168 209 250 295
#     4  10  22  36  52  75 106 136 166 205 252 300
#     4   9  18  35  55  77 101 131 170 210 248 295
#     4  10  19  32  50  75 104 135 168 208 251 296
#     4  10  19  33  53  77 101 131 169 210 250 296
#
# _framework density 18.120524
#
# number of rings (size 3 to 8) (size 9 to 14) (size 15 to 20)
#    0.000    2.333    0.000    5.000    0.000    4.000 
#    0.000    0.833    0.000    0.000    0.000    0.000 
#    0.000    0.000    0.000    0.000    0.000    0.000 
#
# Total GULP energy -133869.513825 kJ/mol
# GULP energy per Si atom -5577.896409 kJ/mol
# Density = 1.807928 g / cm^3
# Si number density = 18.120524 Si / 1000 Ang^3
#
#
#
# Elastic Constant Matrix: (Units=GPa)
#
#
# Indices 1 2 3 4 5 6 
#
# 1 49.5902 22.0956 43.9749 0.0000 0.0000 0.0000
# 2 22.0956 87.1457 104.6678 0.0000 0.0000 0.0000
# 3 43.9749 104.6678 209.4665 0.0000 0.0000 0.0000
# 4 0.0000 0.0000 0.0000 30.4519 0.0000 0.0000
# 5 0.0000 0.0000 0.0000 0.0000 30.4467 0.0000
# 6 0.0000 0.0000 0.0000 0.0000 0.0000 27.0863
#
#
#
# Elastic Compliance Matrix: (Units=1/GPa)
#
#
# Indices 1 2 3 4 5 6 
#
# 1 0.024778 -0.000087 -0.005159 0.000000 0.000000 0.000000
# 2 -0.000087 0.028699 -0.014322 0.000000 0.000000 0.000000
# 3 -0.005159 -0.014322 0.013014 0.000000 0.000000 0.000000
# 4 0.000000 0.000000 0.000000 0.032839 0.000000 0.000000
# 5 0.000000 0.000000 0.000000 0.000000 0.032844 0.000000
# 6 0.000000 0.000000 0.000000 0.000000 0.000000 0.036919
#
#
# Mechanical properties :
#
#
# Convention : Reuss Voigt Hill
#
# Bulk Modulus (GPa) = 36.55514 76.40875 56.48194
# Shear Modulus (GPa) = 23.00464 29.29459 26.14962
#
# Velocity S-wave (km/s) = 3.56692 4.02512 3.80293
# Velocity P-wave (km/s) = 6.09762 7.99129 7.10780
#
# Compressibility (1/GPa) = 0.02735594
#
# Stress axis : x y z
#
# Youngs Moduli (GPa) = 40.35778 34.84410 76.84165
#
# Poissons Ratio (x) = 0.00302 0.39640
# Poissons Ratio (y) = 0.00350 1.10056
# Poissons Ratio (z) = 0.20819 0.49905
#
# Static dielectric constant tensor:
#      x y z
#    x 1.613820 0.000000 0.000000 
#    y 0.000000 1.533280 0.000000 
#    z 0.000000 0.000000 1.667890 
# 
# From -- ./inp_files/25017.got.cif
#   From: 2010.05.17/outbox.cif.g08.bks.cpg/sg46_13_cif.got.tgz:25017.got - 2010.06.03 19:58:25.
