data_PCOD9378348
_publ_section_title
;
Structure prediction by ZEFSAII (Michael W. Deem and Ramdas Pophale) SiO2 
 PCOD9378348
Probable space group: I M A 2
;
_chemical_formula_sum "Si O2"
_cell_formula_units_Z 48
_cell_length_a 14.643886
_cell_length_b 9.988265
_cell_length_c 14.602334
_cell_angle_alpha 90.000000
_cell_angle_beta 90.000000
_cell_angle_gamma 90.000000
_cell_volume 2135.839792
_symmetry_space_group_name_H-M "I M A 2"
_symmetry_group_IT_number 46
_symmetry_cell_setting 'orthorhombic'
loop_
_space_group_symop_operation_xyz
x,y,z
-x,-y,z
1/2-x,y,z
1/2+x,-y,z
1/2+x,1/2+y,1/2+z
1/2-x,1/2-y,1/2+z
-x,1/2+y,1/2+z
x,1/2-y,1/2+z
loop_
_atom_site_type_symbol
_atom_site_label
_atom_site_fract_x
_atom_site_fract_y
_atom_site_fract_z
Si Si1 0.141186 0.465284 0.831180
Si Si2 0.637904 0.082727 0.639225
Si Si3 0.361524 0.331492 0.021378
Si Si4 0.353157 0.679959 0.517726
Si Si5 0.861615 0.223543 0.821868
Si Si6 0.097523 0.068436 0.128204
O O1 0.250000 0.475629 0.843978
O O2 0.108168 0.620277 0.822785
O O3 0.125354 0.397749 0.732168
O O4 0.107877 0.385790 0.921308
O O5 0.750000 0.083715 0.641196
O O6 0.603406 0.195237 0.568735
O O7 0.605456 0.134795 0.737254
O O8 0.612468 0.940561 0.598257
O O9 0.250000 0.321998 0.018987
O O10 0.396852 0.190250 0.057925
O O11 0.250000 0.726148 0.498807
O O12 0.391670 0.656952 0.417253
O O13 0.347072 0.553932 0.583707
O O14 0.750000 0.225141 0.812844
O O15 0.000000 0.000000 0.133321
#
# Coordination Sequence:
#
# PCOD9378348 Si02
#       6
#     8   8   8   8   8   8
#     4  10  19  38  68  94 119 160 212 267 320 371
#     4   9  16  30  58  93 120 147 198 263 320 370
#     4  10  21  39  65  96 126 161 213 275 322 372
#     4  10  18  34  61  87 113 157 212 266 311 368
#     4   9  16  29  60  96 117 145 201 265 319 368
#     4  12  26  42  56  89 133 175 212 252 324 393
#
# _framework density 22.473596000000001
#
# number of rings (size 3 to 8) (size 9 to 14) (size 15 to 20)
#    0.000    2.000    3.333    1.500    0.000    1.333 
#    3.000    4.167    0.000    0.000    0.000    0.000 
#    0.000    0.000    0.000    0.000    0.000    0.000 
#
# Total GULP energy -133966.054218 kJ/mol
# GULP energy per Si atom -5581.918926 kJ/mol
# Density = 2.242245 g / cm^3
# Si number density = 22.473596 Si / 1000 Ang^3
#
#
#
# Elastic Constant Matrix: (Units=GPa)
#
#
# Indices 1 2 3 4 5 6 
#
# 1 25.3731 -0.7364 -5.0514 0.0000 0.0000 0.0000
# 2 -0.7364 99.0239 25.2855 0.0000 0.0000 0.0000
# 3 -5.0514 25.2855 135.9959 0.0000 0.0000 0.0000
# 4 0.0000 0.0000 0.0000 30.1560 0.0000 0.0000
# 5 0.0000 0.0000 0.0000 0.0000 7.0152 0.0000
# 6 0.0000 0.0000 0.0000 0.0000 0.0000 -22.8489
#
#
#
# Elastic Compliance Matrix: (Units=1/GPa)
#
#
# Indices 1 2 3 4 5 6 
#
# 1 0.039706 -0.000085 0.001491 0.000000 0.000000 0.000000
# 2 -0.000085 0.010602 -0.001974 0.000000 0.000000 0.000000
# 3 0.001491 -0.001974 0.007776 0.000000 0.000000 0.000000
# 4 0.000000 0.000000 0.000000 0.033161 0.000000 0.000000
# 5 0.000000 0.000000 0.000000 0.000000 0.142548 0.000000
# 6 0.000000 0.000000 0.000000 0.000000 0.000000 -0.043766
#
#
# Mechanical properties :
#
#
# Convention : Reuss Voigt Hill
#
# Bulk Modulus (GPa) = 17.56057 33.26537 25.41297
# Shear Modulus (GPa) = 23.79290 18.92414 21.35852
#
# Velocity S-wave (km/s) = 3.25730 2.90498 3.08617
# Velocity P-wave (km/s) = 4.68802 5.10744 4.90222
#
# Compressibility (1/GPa) = 0.05694576
#
# Stress axis : x y z
#
# Youngs Moduli (GPa) = 25.18501 94.32100 128.60688
#
# Poissons Ratio (x) = 0.00805 -0.19172
# Poissons Ratio (y) = 0.00215 0.25392
# Poissons Ratio (z) = -0.03754 0.18623
#
# Static dielectric constant tensor:
#      x y z
#    x 1.935310 0.000000 0.000000 
#    y 0.000000 1.775950 0.000000 
#    z 0.000000 0.000000 1.865810 
# 
# From -- ./inp_files/16522.got.cif
#   From: 2010.05.17/outbox.cif.g08.bks.cpg/sg46_9_cif.got.tgz:16522.got - 2010.06.03 19:58:25.
