data_PCOD9378278
_publ_section_title
;
Structure prediction by ZEFSAII (Michael W. Deem and Ramdas Pophale) SiO2 
 PCOD9378278
Probable space group: I M A 2
;
_chemical_formula_sum "Si O2"
_cell_formula_units_Z 64
_cell_length_a 24.428951
_cell_length_b 10.094456
_cell_length_c 13.101595
_cell_angle_alpha 90.000000
_cell_angle_beta 90.000000
_cell_angle_gamma 90.000000
_cell_volume 3230.813642
_symmetry_space_group_name_H-M "I M A 2"
_symmetry_group_IT_number 46
_symmetry_cell_setting 'orthorhombic'
loop_
_space_group_symop_operation_xyz
x,y,z
-x,-y,z
1/2-x,y,z
1/2+x,-y,z
1/2+x,1/2+y,1/2+z
1/2-x,1/2-y,1/2+z
-x,1/2+y,1/2+z
x,1/2-y,1/2+z
loop_
_atom_site_type_symbol
_atom_site_label
_atom_site_fract_x
_atom_site_fract_y
_atom_site_fract_z
Si Si1 0.973426 0.138266 0.191420
Si Si2 0.648176 0.143134 0.538075
Si Si3 0.186861 0.926421 0.752202
Si Si4 0.492606 0.795215 0.885512
Si Si5 0.481008 0.862420 0.562623
Si Si6 0.596366 0.520546 0.408342
Si Si7 0.812573 0.117434 0.315147
Si Si8 0.855317 0.067673 0.105126
O O1 0.004197 0.222658 0.104558
O O2 0.913788 0.103250 0.153174
O O3 0.972047 0.250163 0.276135
O O4 0.000000 0.000000 0.218731
O O5 0.678057 0.065511 0.629787
O O6 0.584288 0.137956 0.566228
O O7 0.654721 0.096611 0.420919
O O8 0.666776 0.297696 0.550172
O O9 0.250000 0.962584 0.777304
O O10 0.139854 0.000261 0.817100
O O11 0.179392 0.770856 0.781574
O O12 0.443581 0.891529 0.923856
O O13 0.550912 0.868197 0.885256
O O14 0.497182 0.657462 0.945831
O O15 0.500000 0.000000 0.609130
O O16 0.631280 0.532975 0.513169
O O17 0.750000 0.099239 0.345373
O O18 0.822709 0.036958 0.209470
#
# Coordination Sequence:
#
# PCOD9378278 Si02
#       8
#     8   8   8   8   8   8   8   8
#     4  11  22  37  57  83 118 160 196 242 296 360
#     4  10  18  33  52  78 118 154 195 248 314 359
#     4  10  20  32  50  79 114 156 207 261 307 364
#     4  11  22  35  57  82 118 160 202 251 306 370
#     4  11  22  35  56  89 124 154 196 243 302 372
#     4  11  20  36  56  83 117 163 206 246 317 371
#     4  10  19  31  50  78 112 156 200 246 310 365
#     4  10  19  32  53  76 115 154 188 240 304 360
#
# _framework density 19.809252000000001
#
# number of rings (size 3 to 8) (size 9 to 14) (size 15 to 20)
#    0.000    1.500    3.750    4.500    3.500    1.000 
#    0.000    0.000    0.000    0.000    0.000    4.375 
#    0.000    0.000    0.000    0.000    0.000    0.000 
#
# Total GULP energy -178136.091147 kJ/mol
# GULP energy per Si atom -5566.752848 kJ/mol
# Density = 1.976417 g / cm^3
# Si number density = 19.809252 Si / 1000 Ang^3
#
#
#
# Elastic Constant Matrix: (Units=GPa)
#
#
# Indices 1 2 3 4 5 6 
#
# 1 39.4719 16.5518 8.6035 0.0000 0.0000 0.0000
# 2 16.5518 42.9920 1.1804 0.0000 0.0000 0.0000
# 3 8.6035 1.1804 88.6218 0.0000 0.0000 0.0000
# 4 0.0000 0.0000 0.0000 6.1857 0.0000 0.0000
# 5 0.0000 0.0000 0.0000 0.0000 27.0623 0.0000
# 6 0.0000 0.0000 0.0000 0.0000 0.0000 15.1956
#
#
#
# Elastic Compliance Matrix: (Units=1/GPa)
#
#
# Indices 1 2 3 4 5 6 
#
# 1 0.030912 -0.011823 -0.002843 0.000000 0.000000 0.000000
# 2 -0.011823 0.027791 0.000778 0.000000 0.000000 0.000000
# 3 -0.002843 0.000778 0.011550 0.000000 0.000000 0.000000
# 4 0.000000 0.000000 0.000000 0.161664 0.000000 0.000000
# 5 0.000000 0.000000 0.000000 0.000000 0.036952 0.000000
# 6 0.000000 0.000000 0.000000 0.000000 0.000000 0.065808
#
#
# Mechanical properties :
#
#
# Convention : Reuss Voigt Hill
#
# Bulk Modulus (GPa) = 23.54350 24.86188 24.20269
# Shear Modulus (GPa) = 13.27627 19.33873 16.30750
#
# Velocity S-wave (km/s) = 2.59164 3.12789 2.87231
# Velocity P-wave (km/s) = 4.56797 5.06189 4.82126
#
# Compressibility (1/GPa) = 0.04247457
#
# Stress axis : x y z
#
# Youngs Moduli (GPa) = 32.34994 35.98342 86.58309
#
# Poissons Ratio (x) = 0.42543 0.24620
# Poissons Ratio (y) = 0.38247 -0.06733
# Poissons Ratio (z) = 0.09199 -0.02798
#
# Static dielectric constant tensor:
#      x y z
#    x 1.691260 0.000000 0.000000 
#    y 0.000000 1.734430 0.000000 
#    z 0.000000 0.000000 1.866580 
# 
# From -- ./inp_files/12853.got.cif
#   From: 2010.05.17/outbox.cif.g08.bks.cpg/sg46_7_cif.got.tgz:12853.got - 2010.06.03 19:58:25.
