data_PCOD9378986
_publ_section_title
;
Structure prediction by ZEFSAII (Michael W. Deem and Ramdas Pophale) SiO2 
 PCOD9378986
Probable space group: I M A 2
;
_chemical_formula_sum "Si O2"
_cell_formula_units_Z 64
_cell_length_a 19.099749
_cell_length_b 8.084505
_cell_length_c 19.492279
_cell_angle_alpha 90.000000
_cell_angle_beta 90.000000
_cell_angle_gamma 90.000000
_cell_volume 3009.842102
_symmetry_space_group_name_H-M "I M A 2"
_symmetry_group_IT_number 46
_symmetry_cell_setting 'orthorhombic'
loop_
_space_group_symop_operation_xyz
x,y,z
-x,-y,z
1/2-x,y,z
1/2+x,-y,z
1/2+x,1/2+y,1/2+z
1/2-x,1/2-y,1/2+z
-x,1/2+y,1/2+z
x,1/2-y,1/2+z
loop_
_atom_site_type_symbol
_atom_site_label
_atom_site_fract_x
_atom_site_fract_y
_atom_site_fract_z
Si Si1 0.174496 0.336163 0.440380
Si Si2 0.166213 0.465971 0.702820
Si Si3 0.672116 0.065185 0.805844
Si Si4 0.599101 0.902702 0.349645
Si Si5 0.956158 0.244688 0.866815
Si Si6 0.831798 0.617652 0.162225
Si Si7 0.834337 0.228953 0.603874
Si Si8 0.930143 0.058743 0.008148
O O1 0.250000 0.330925 0.474432
O O2 0.176417 0.466981 0.377497
O O3 0.155329 0.168959 0.402024
O O4 0.115936 0.398193 0.491482
O O5 0.250000 0.447862 0.711151
O O6 0.130524 0.447299 0.776250
O O7 0.154273 0.642381 0.666946
O O8 0.140927 0.305345 0.658898
O O9 0.750000 0.148438 0.796758
O O10 0.601389 0.170676 0.814383
O O11 0.665101 0.940651 0.742053
O O12 0.536049 0.768693 0.341878
O O13 0.569546 0.070458 0.380971
O O14 0.954302 0.140218 0.936284
O O15 0.750000 0.626322 0.143278
O O16 0.858770 0.457484 0.121129
O O17 0.750000 0.229478 0.590354
O O18 0.879782 0.310143 0.544261
O O19 0.000000 0.000000 0.046617
#
# Coordination Sequence:
#
# PCOD9378986 Si02
#       8
#     8   8   8   8   8   8   8   8
#     4  10  19  34  62  90 114 154 202 247 304 372
#     4  10  20  38  64  94 127 158 198 259 320 373
#     4   9  17  32  56  85 116 151 193 240 303 372
#     4  11  20  37  58  92 126 152 195 252 317 389
#     4  10  23  36  56  87 122 160 197 249 313 372
#     4   9  17  34  59  87 119 154 195 250 307 362
#     4  10  22  40  62  88 120 165 215 259 304 369
#     4  11  22  43  61  79 121 170 210 256 309 364
#
# _framework density 21.263573999999998
#
# number of rings (size 3 to 8) (size 9 to 14) (size 15 to 20)
#    0.000    2.000    2.500    1.500    0.000    2.500 
#    6.750    0.000    0.000    0.000    0.000    0.000 
#    0.000    0.000    0.000    0.000    0.000    0.000 
#
# Total GULP energy -178524.207484 kJ/mol
# GULP energy per Si atom -5578.881484 kJ/mol
# Density = 2.121518 g / cm^3
# Si number density = 21.263574 Si / 1000 Ang^3
#
#
#
# Elastic Constant Matrix: (Units=GPa)
#
#
# Indices 1 2 3 4 5 6 
#
# 1 79.5078 12.1117 12.0296 0.0000 0.0000 0.0000
# 2 12.1117 76.9758 1.4735 0.0000 0.0000 0.0000
# 3 12.0296 1.4735 43.6746 0.0000 0.0000 0.0000
# 4 0.0000 0.0000 0.0000 19.3847 0.0000 0.0000
# 5 0.0000 0.0000 0.0000 0.0000 15.9227 0.0000
# 6 0.0000 0.0000 0.0000 0.0000 0.0000 20.0903
#
#
#
# Elastic Compliance Matrix: (Units=1/GPa)
#
#
# Indices 1 2 3 4 5 6 
#
# 1 0.013438 -0.002045 -0.003632 0.000000 0.000000 0.000000
# 2 -0.002045 0.013311 0.000114 0.000000 0.000000 0.000000
# 3 -0.003632 0.000114 0.023893 0.000000 0.000000 0.000000
# 4 0.000000 0.000000 0.000000 0.051587 0.000000 0.000000
# 5 0.000000 0.000000 0.000000 0.000000 0.062803 0.000000
# 6 0.000000 0.000000 0.000000 0.000000 0.000000 0.049775
#
#
# Mechanical properties :
#
#
# Convention : Reuss Voigt Hill
#
# Bulk Modulus (GPa) = 25.30620 27.93196 26.61908
# Shear Modulus (GPa) = 20.91117 22.71577 21.81347
#
# Velocity S-wave (km/s) = 3.13937 3.27202 3.20638
# Velocity P-wave (km/s) = 5.00678 5.23827 5.12383
#
# Compressibility (1/GPa) = 0.03951600
#
# Stress axis : x y z
#
# Youngs Moduli (GPa) = 74.41313 75.12773 41.85276
#
# Poissons Ratio (x) = 0.15363 0.15203
# Poissons Ratio (y) = 0.15217 -0.00478
# Poissons Ratio (z) = 0.27030 -0.00858
#
# Static dielectric constant tensor:
#      x y z
#    x 1.812070 0.000000 0.000000 
#    y 0.000000 1.806430 0.000000 
#    z 0.000000 0.000000 1.760410 
# 
# From -- ./inp_files/22200.got.cif
#   From: 2010.05.17/outbox.cif.g08.bks.cpg/sg46_12_cif.got.tgz:22200.got - 2010.06.03 19:58:25.
