data_PCOD9378285
_publ_section_title
;
Structure prediction by ZEFSAII (Michael W. Deem and Ramdas Pophale) SiO2 
 PCOD9378285
Probable space group: I M A 2
;
_chemical_formula_sum "Si O2"
_cell_formula_units_Z 64
_cell_length_a 8.316104
_cell_length_b 21.359068
_cell_length_c 20.327295
_cell_angle_alpha 90.000000
_cell_angle_beta 90.000000
_cell_angle_gamma 90.000000
_cell_volume 3610.620139
_symmetry_space_group_name_H-M "I M A 2"
_symmetry_group_IT_number 46
_symmetry_cell_setting 'orthorhombic'
loop_
_space_group_symop_operation_xyz
x,y,z
-x,-y,z
1/2-x,y,z
1/2+x,-y,z
1/2+x,1/2+y,1/2+z
1/2-x,1/2-y,1/2+z
-x,1/2+y,1/2+z
x,1/2-y,1/2+z
loop_
_atom_site_type_symbol
_atom_site_label
_atom_site_fract_x
_atom_site_fract_y
_atom_site_fract_z
Si Si1 0.946426 0.688464 0.741210
Si Si2 0.055646 0.238923 0.378341
Si Si3 0.944019 0.117827 0.878541
Si Si4 0.444723 0.259478 0.024546
Si Si5 0.941619 0.067349 0.740819
Si Si6 0.058852 0.067631 0.161538
Si Si7 0.944137 0.812712 0.661196
Si Si8 0.557936 0.383805 0.524513
O O1 0.750000 0.687273 0.739875
O O2 0.997462 0.697090 0.816849
O O3 0.004252 0.626059 0.704629
O O4 0.995487 0.750982 0.701862
O O5 0.250000 0.241265 0.376896
O O6 0.006634 0.218214 0.451681
O O7 0.993935 0.309785 0.369490
O O8 0.750000 0.115085 0.879276
O O9 0.004437 0.080125 0.815268
O O10 0.000670 0.097281 0.951244
O O11 0.250000 0.255319 0.026291
O O12 0.495684 0.301903 0.085784
O O13 0.509943 0.189071 0.033119
O O14 0.750000 0.066924 0.743649
O O15 0.994325 0.124728 0.695209
O O16 0.000000 0.000000 0.717275
O O17 0.250000 0.068858 0.165655
O O18 0.011637 0.078679 0.085678
O O19 0.000000 0.000000 0.184039
O O20 0.750000 0.814337 0.662924
O O21 0.750000 0.389217 0.526050
#
# Coordination Sequence:
#
# PCOD9378285 Si02
#       8
#     8   8   8   8   8   8   8   8
#     4   9  17  31  53  77 103 132 170 213 254 299
#     4   9  16  29  52  78 100 133 172 206 249 302
#     4   9  19  33  48  72 105 135 168 209 250 295
#     4   9  17  30  51  78 106 134 170 210 253 301
#     4  11  23  37  52  74 103 138 175 213 257 306
#     4  11  22  37  52  73 104 138 175 215 257 304
#     4  10  18  33  54  78 104 134 170 214 258 301
#     4  10  19  32  50  74 105 139 172 207 249 300
#
# _framework density 17.725487000000001
#
# number of rings (size 3 to 8) (size 9 to 14) (size 15 to 20)
#    0.000    2.250    2.500    1.125    0.000    2.000 
#    0.000    2.500    0.000    0.750    0.000    1.750 
#    0.000    0.000    0.000    0.000    0.000    0.000 
#
# Total GULP energy -178496.589196 kJ/mol
# GULP energy per Si atom -5578.018412 kJ/mol
# Density = 1.768514 g / cm^3
# Si number density = 17.725487 Si / 1000 Ang^3
#
#
#
# Elastic Constant Matrix: (Units=GPa)
#
#
# Indices 1 2 3 4 5 6 
#
# 1 11.5990 13.7843 17.3427 0.0000 0.0000 0.0000
# 2 13.7843 120.0482 69.9312 0.0000 0.0000 0.0000
# 3 17.3427 69.9312 121.0934 0.0000 0.0000 0.0000
# 4 0.0000 0.0000 0.0000 18.8341 0.0000 0.0000
# 5 0.0000 0.0000 0.0000 0.0000 15.0955 0.0000
# 6 0.0000 0.0000 0.0000 0.0000 0.0000 24.5655
#
#
#
# Elastic Compliance Matrix: (Units=1/GPa)
#
#
# Indices 1 2 3 4 5 6 
#
# 1 0.111896 -0.005294 -0.012968 0.000000 0.000000 0.000000
# 2 -0.005294 0.012803 -0.006636 0.000000 0.000000 0.000000
# 3 -0.012968 -0.006636 0.013947 0.000000 0.000000 0.000000
# 4 0.000000 0.000000 0.000000 0.053095 0.000000 0.000000
# 5 0.000000 0.000000 0.000000 0.000000 0.066245 0.000000
# 6 0.000000 0.000000 0.000000 0.000000 0.000000 0.040708
#
#
# Mechanical properties :
#
#
# Convention : Reuss Voigt Hill
#
# Bulk Modulus (GPa) = 11.25482 50.53966 30.89724
# Shear Modulus (GPa) = 13.22377 21.81115 17.51746
#
# Velocity S-wave (km/s) = 2.73432 3.51165 3.14708
# Velocity P-wave (km/s) = 4.04128 6.70944 5.53844
#
# Compressibility (1/GPa) = 0.08885082
#
# Stress axis : x y z
#
# Youngs Moduli (GPa) = 8.93690 78.10465 71.69756
#
# Poissons Ratio (x) = 0.41348 0.92979
# Poissons Ratio (y) = 0.04731 0.47577
# Poissons Ratio (z) = 0.11590 0.51828
#
# Static dielectric constant tensor:
#      x y z
#    x 1.611750 0.000000 0.000000 
#    y 0.000000 1.576790 0.000000 
#    z 0.000000 0.000000 1.644600 
# 
# From -- ./inp_files/21275.got.cif
#   From: 2010.05.17/outbox.cif.g08.bks.cpg/sg46_11_cif.got.tgz:21275.got - 2010.06.03 19:58:25.
