data_PCOD9378975
_publ_section_title
;
Structure prediction by ZEFSAII (Michael W. Deem and Ramdas Pophale) SiO2 
 PCOD9378975
Probable space group: I M A 2
;
_chemical_formula_sum "Si O2"
_cell_formula_units_Z 56
_cell_length_a 14.901208
_cell_length_b 9.662285
_cell_length_c 19.260967
_cell_angle_alpha 90.000000
_cell_angle_beta 90.000000
_cell_angle_gamma 90.000000
_cell_volume 2773.188607
_symmetry_space_group_name_H-M "I M A 2"
_symmetry_group_IT_number 46
_symmetry_cell_setting 'orthorhombic'
loop_
_space_group_symop_operation_xyz
x,y,z
-x,-y,z
1/2-x,y,z
1/2+x,-y,z
1/2+x,1/2+y,1/2+z
1/2-x,1/2-y,1/2+z
-x,1/2+y,1/2+z
x,1/2-y,1/2+z
loop_
_atom_site_type_symbol
_atom_site_label
_atom_site_fract_x
_atom_site_fract_y
_atom_site_fract_z
Si Si1 0.141863 0.822228 0.388850
Si Si2 0.645527 0.592447 0.069842
Si Si3 0.649693 0.398473 0.271096
Si Si4 0.415628 0.813550 0.171027
Si Si5 0.100866 0.318401 0.221164
Si Si6 0.353409 0.467519 0.775864
Si Si7 0.047578 0.804625 0.534736
O O1 0.250000 0.824779 0.402815
O O2 0.122163 0.701504 0.333550
O O3 0.086159 0.796253 0.457821
O O4 0.115383 0.963743 0.348085
O O5 0.750000 0.593960 0.042754
O O6 0.650420 0.645491 0.149110
O O7 0.599866 0.440251 0.065617
O O8 0.561300 0.678571 0.036020
O O9 0.750000 0.448235 0.285370
O O10 0.652069 0.298584 0.203832
O O11 0.594528 0.536738 0.259860
O O12 0.506948 0.743072 0.196829
O O13 0.421869 0.815251 0.088179
O O14 0.399974 0.956876 0.210607
O O15 0.140562 0.196081 0.267779
O O16 0.250000 0.510146 0.770724
#
# Coordination Sequence:
#
# PCOD9378975 Si02
#       7
#     8   8   8   8   8   8   8
#     4   9  20  37  58  88 122 159 203 249 298 366
#     4  10  20  34  59  91 119 151 202 258 303 358
#     4  10  19  34  59  87 116 153 201 249 297 354
#     4  10  20  35  58  87 116 154 204 250 297 363
#     4  11  20  35  60  92 122 155 196 256 310 356
#     4  10  21  37  59  90 123 158 202 254 308 357
#     4  10  20  36  60  87 121 163 206 246 305 360
#
# _framework density 20.193360999999999
#
# number of rings (size 3 to 8) (size 9 to 14) (size 15 to 20)
#    0.000    2.000    1.429    3.857    0.000    1.714 
#   10.286    0.000    3.143    5.143    0.000    3.000 
#    0.000    0.000    0.000    0.000    0.000    0.000 
#
# Total GULP energy -156003.149970 kJ/mol
# GULP energy per Si atom -5571.541070 kJ/mol
# Density = 2.014740 g / cm^3
# Si number density = 20.193361 Si / 1000 Ang^3
#
#
#
# Elastic Constant Matrix: (Units=GPa)
#
#
# Indices 1 2 3 4 5 6 
#
# 1 119.9126 22.8136 47.4038 0.0000 0.0000 0.0000
# 2 22.8136 86.3218 25.1386 0.0000 0.0000 0.0000
# 3 47.4038 25.1386 120.7560 0.0000 0.0000 0.0000
# 4 0.0000 0.0000 0.0000 14.6131 0.0000 0.0000
# 5 0.0000 0.0000 0.0000 0.0000 19.8558 0.0000
# 6 0.0000 0.0000 0.0000 0.0000 0.0000 9.5565
#
#
#
# Elastic Compliance Matrix: (Units=1/GPa)
#
#
# Indices 1 2 3 4 5 6 
#
# 1 0.010077 -0.001609 -0.003621 0.000000 0.000000 0.000000
# 2 -0.001609 0.012589 -0.001989 0.000000 0.000000 0.000000
# 3 -0.003621 -0.001989 0.010117 0.000000 0.000000 0.000000
# 4 0.000000 0.000000 0.000000 0.068432 0.000000 0.000000
# 5 0.000000 0.000000 0.000000 0.000000 0.050363 0.000000
# 6 0.000000 0.000000 0.000000 0.000000 0.000000 0.104641
#
#
# Mechanical properties :
#
#
# Convention : Reuss Voigt Hill
#
# Bulk Modulus (GPa) = 54.51089 57.52249 56.01669
# Shear Modulus (GPa) = 18.06551 24.24738 21.15644
#
# Velocity S-wave (km/s) = 2.99427 3.46896 3.24032
# Velocity P-wave (km/s) = 6.24558 6.67777 6.46529
#
# Compressibility (1/GPa) = 0.01834496
#
# Stress axis : x y z
#
# Youngs Moduli (GPa) = 99.23728 79.43434 98.84670
#
# Poissons Ratio (x) = 0.12779 0.35791
# Poissons Ratio (y) = 0.15964 0.19663
# Poissons Ratio (z) = 0.35932 0.15801
#
# Static dielectric constant tensor:
#      x y z
#    x 1.813820 0.000000 0.000000 
#    y 0.000000 1.724110 0.000000 
#    z 0.000000 0.000000 1.728590 
# 
# From -- ./inp_files/22032.got.cif
#   From: 2010.05.17/outbox.cif.g08.bks.cpg/sg46_12_cif.got.tgz:22032.got - 2010.06.03 19:58:25.
