data_PCOD9378441
_publ_section_title
;
Structure prediction by ZEFSAII (Michael W. Deem and Ramdas Pophale) SiO2 
 PCOD9378441
Probable space group: I M A 2
;
_chemical_formula_sum "Si O2"
_cell_formula_units_Z 64
_cell_length_a 14.766393
_cell_length_b 10.054129
_cell_length_c 17.665379
_cell_angle_alpha 90.000000
_cell_angle_beta 90.000000
_cell_angle_gamma 90.000000
_cell_volume 2622.659050
_symmetry_space_group_name_H-M "I M A 2"
_symmetry_group_IT_number 46
_symmetry_cell_setting 'orthorhombic'
loop_
_space_group_symop_operation_xyz
x,y,z
-x,-y,z
1/2-x,y,z
1/2+x,-y,z
1/2+x,1/2+y,1/2+z
1/2-x,1/2-y,1/2+z
-x,1/2+y,1/2+z
x,1/2-y,1/2+z
loop_
_atom_site_type_symbol
_atom_site_label
_atom_site_fract_x
_atom_site_fract_y
_atom_site_fract_z
Si Si1 0.645458 0.889117 0.344280
Si Si2 0.963591 0.816478 0.486714
Si Si3 0.983855 0.810033 0.653989
Si Si4 0.856480 0.267873 0.424019
Si Si5 0.351285 0.701828 0.259403
Si Si6 0.855757 0.540380 0.509157
Si Si7 0.141842 0.445244 0.676732
Si Si8 0.652743 0.602886 0.267244
O O1 0.750000 0.920966 0.362286
O O2 0.585235 0.895493 0.419304
O O3 0.621590 0.969376 0.266377
O O4 0.642530 0.729984 0.321751
O O5 0.959227 0.865731 0.572307
O O6 0.918716 0.667017 0.490584
O O7 0.070357 0.807472 0.472994
O O8 0.927311 0.673999 0.660992
O O9 0.932506 0.898117 0.714278
O O10 0.083813 0.787608 0.687440
O O11 0.750000 0.237495 0.433320
O O12 0.883559 0.234288 0.337607
O O13 0.868653 0.420868 0.450734
O O14 0.250000 0.749780 0.239626
O O15 0.342667 0.550039 0.290025
O O16 0.750000 0.584147 0.504550
O O17 0.869603 0.481793 0.595047
O O18 0.250000 0.415413 0.678608
O O19 0.750000 0.627035 0.227505
#
# Coordination Sequence:
#
# PCOD9378441 Si02
#       8
#     8   8   8   8   8   8   8   8
#     4   9  16  27  46  72  99 124 150 185 233 286
#     4  11  20  28  43  68  97 127 156 188 229 277
#     4  10  19  29  43  65  95 128 156 186 229 279
#     4  10  20  32  47  69  95 123 157 195 233 275
#     4  10  20  33  49  68  91 123 160 195 233 277
#     4   9  17  29  45  68  97 124 153 193 238 280
#     4   8  15  28  45  66  94 125 154 187 232 282
#     4   9  17  30  49  72  94 116 147 189 237 284
#
# _framework density 24.402716000000002
#
# number of rings (size 3 to 8) (size 9 to 14) (size 15 to 20)
#    0.000    2.500    0.000    4.500    0.000    5.000 
#    0.000    0.000    0.000    0.000    0.000   14.000 
#    0.000   12.000    0.000    0.000    0.000    0.000 
#
# Total GULP energy -178370.542723 kJ/mol
# GULP energy per Si atom -5574.079460 kJ/mol
# Density = 2.434717 g / cm^3
# Si number density = 24.402716 Si / 1000 Ang^3
#
#
#
# Elastic Constant Matrix: (Units=GPa)
#
#
# Indices 1 2 3 4 5 6 
#
# 1 77.2366 14.9010 45.0306 0.0000 0.0000 0.0000
# 2 14.9010 71.6059 20.2829 0.0000 0.0000 0.0000
# 3 45.0306 20.2829 151.1049 0.0000 0.0000 0.0000
# 4 0.0000 0.0000 0.0000 -0.9783 0.0000 0.0000
# 5 0.0000 0.0000 0.0000 0.0000 25.9982 0.0000
# 6 0.0000 0.0000 0.0000 0.0000 0.0000 6.1508
#
#
#
# Elastic Compliance Matrix: (Units=1/GPa)
#
#
# Indices 1 2 3 4 5 6 
#
# 1 0.015954 -0.002051 -0.004479 0.000000 0.000000 0.000000
# 2 -0.002051 0.014781 -0.001373 0.000000 0.000000 0.000000
# 3 -0.004479 -0.001373 0.008137 0.000000 0.000000 0.000000
# 4 0.000000 0.000000 0.000000 -1.022171 0.000000 0.000000
# 5 0.000000 0.000000 0.000000 0.000000 0.038464 0.000000
# 6 0.000000 0.000000 0.000000 0.000000 0.000000 0.162581
#
#
# Mechanical properties :
#
#
# Convention : Reuss Voigt Hill
#
# Bulk Modulus (GPa) = 43.35395 51.15295 47.25345
# Shear Modulus (GPa) = -6.58972 20.88299 7.14664
#
# Velocity S-wave (km/s) = -1.64507 2.92852 1.71318
# Velocity P-wave (km/s) = 3.76779 5.69583 4.82901
#
# Compressibility (1/GPa) = 0.02306595
#
# Stress axis : x y z
#
# Youngs Moduli (GPa) = 62.67836 67.65422 122.89492
#
# Poissons Ratio (x) = 0.13878 0.55047
# Poissons Ratio (y) = 0.12857 0.16870
# Poissons Ratio (z) = 0.28075 0.09287
#
# Static dielectric constant tensor:
#      x y z
#    x 1.983420 0.000000 0.000000 
#    y 0.000000 2.144470 0.000000 
#    z 0.000000 0.000000 1.938290 
# 
# From -- ./inp_files/19748.got.cif
#   From: 2010.05.17/outbox.cif.g08.bks.cpg/sg46_10_cif.got.tgz:19748.got - 2010.06.03 19:58:25.
