data_PCOD9378640
_publ_section_title
;
Structure prediction by ZEFSAII (Michael W. Deem and Ramdas Pophale) SiO2 
 PCOD9378640
Probable space group: I M A 2
;
_chemical_formula_sum "Si O2"
_cell_formula_units_Z 64
_cell_length_a 8.625981
_cell_length_b 16.664747
_cell_length_c 23.090824
_cell_angle_alpha 90.000000
_cell_angle_beta 90.000000
_cell_angle_gamma 90.000000
_cell_volume 3319.301124
_symmetry_space_group_name_H-M "I M A 2"
_symmetry_group_IT_number 46
_symmetry_cell_setting 'orthorhombic'
loop_
_space_group_symop_operation_xyz
x,y,z
-x,-y,z
1/2-x,y,z
1/2+x,-y,z
1/2+x,1/2+y,1/2+z
1/2-x,1/2-y,1/2+z
-x,1/2+y,1/2+z
x,1/2-y,1/2+z
loop_
_atom_site_type_symbol
_atom_site_label
_atom_site_fract_x
_atom_site_fract_y
_atom_site_fract_z
Si Si1 0.936884 0.587110 0.333090
Si Si2 0.566654 0.580934 0.585182
Si Si3 0.064072 0.254929 0.121123
Si Si4 0.436687 0.916695 0.408672
Si Si5 0.936645 0.412429 0.774251
Si Si6 0.062563 0.265669 0.248192
Si Si7 0.071957 0.795771 0.501487
Si Si8 0.928179 0.112681 0.961514
O O1 0.750000 0.584722 0.332976
O O2 0.986026 0.665590 0.294707
O O3 0.000000 0.500000 0.312070
O O4 0.997551 0.596541 0.399150
O O5 0.500000 0.500000 0.611589
O O6 0.750000 0.579726 0.590641
O O7 0.505286 0.662893 0.613638
O O8 0.521451 0.582196 0.517346
O O9 0.250000 0.251310 0.120770
O O10 0.017369 0.291021 0.182713
O O11 0.011171 0.298084 0.062901
O O12 0.250000 0.914571 0.408458
O O13 0.484035 0.908640 0.342144
O O14 0.498722 0.849741 0.451431
O O15 0.500000 0.000000 0.431031
O O16 0.750000 0.413735 0.768587
O O17 0.000000 0.500000 0.753029
O O18 0.999174 0.325836 0.752867
O O19 0.250000 0.260616 0.252179
O O20 0.250000 0.819672 0.511751
O O21 0.074159 0.707226 0.474589
O O22 0.750000 0.082733 0.962367
#
# Coordination Sequence:
#
# PCOD9378640 Si02
#       8
#     8   8   8   8   8   8   8   8
#     4  11  23  38  57  80 108 142 183 229 276 327
#     4  10  19  32  51  76 106 137 169 206 254 312
#     4   9  20  37  54  73 100 135 176 219 261 309
#     4   9  18  32  50  76 107 135 167 209 258 313
#     4  10  20  35  57  85 116 148 181 219 266 323
#     4  10  22  40  58  78 107 144 186 231 274 318
#     4   9  18  33  53  77 104 134 170 213 260 313
#     4  10  19  33  54  79 108 137 169 212 264 321
#
# _framework density 19.281168000000001
#
# number of rings (size 3 to 8) (size 9 to 14) (size 15 to 20)
#    0.000    2.250    0.000    2.625    0.000    5.000 
#    0.000    1.875    0.000    3.000    0.000    0.000 
#    0.000    0.000    0.000    0.000    0.000    0.000 
#
# Total GULP energy -178335.019356 kJ/mol
# GULP energy per Si atom -5572.969355 kJ/mol
# Density = 1.923728 g / cm^3
# Si number density = 19.281168 Si / 1000 Ang^3
#
#
#
# Elastic Constant Matrix: (Units=GPa)
#
#
# Indices 1 2 3 4 5 6 
#
# 1 28.8721 10.5346 15.5567 0.0000 0.0000 0.0000
# 2 10.5346 63.8145 36.4678 0.0000 0.0000 0.0000
# 3 15.5567 36.4678 98.8787 0.0000 0.0000 0.0000
# 4 0.0000 0.0000 0.0000 1.4163 0.0000 0.0000
# 5 0.0000 0.0000 0.0000 0.0000 17.8060 0.0000
# 6 0.0000 0.0000 0.0000 0.0000 0.0000 25.5773
#
#
#
# Elastic Compliance Matrix: (Units=1/GPa)
#
#
# Indices 1 2 3 4 5 6 
#
# 1 0.038509 -0.003668 -0.004706 0.000000 0.000000 0.000000
# 2 -0.003668 0.020205 -0.006875 0.000000 0.000000 0.000000
# 3 -0.004706 -0.006875 0.013389 0.000000 0.000000 0.000000
# 4 0.000000 0.000000 0.000000 0.706042 0.000000 0.000000
# 5 0.000000 0.000000 0.000000 0.000000 0.056161 0.000000
# 6 0.000000 0.000000 0.000000 0.000000 0.000000 0.039097
#
#
# Mechanical properties :
#
#
# Convention : Reuss Voigt Hill
#
# Bulk Modulus (GPa) = 24.03486 35.18706 29.61096
# Shear Modulus (GPa) = 5.44800 17.56036 11.50418
#
# Velocity S-wave (km/s) = 1.68276 3.02114 2.44530
# Velocity P-wave (km/s) = 4.03337 5.51895 4.83357
#
# Compressibility (1/GPa) = 0.04160623
#
# Stress axis : x y z
#
# Youngs Moduli (GPa) = 25.96769 49.49386 74.68670
#
# Poissons Ratio (x) = 0.18154 0.35147
# Poissons Ratio (y) = 0.09525 0.51344
# Poissons Ratio (z) = 0.12220 0.34025
#
# Static dielectric constant tensor:
#      x y z
#    x 1.673010 0.000000 0.000000 
#    y 0.000000 1.719380 0.000000 
#    z 0.000000 0.000000 1.679730 
# 
# From -- ./inp_files/23219.got.cif
#   From: 2010.05.17/outbox.cif.g08.bks.cpg/sg46_12_cif.got.tgz:23219.got - 2010.06.03 19:58:25.
