data_PCOD9378564
_publ_section_title
;
Structure prediction by ZEFSAII (Michael W. Deem and Ramdas Pophale) SiO2 
 PCOD9378564
Probable space group: I M A 2
;
_chemical_formula_sum "Si O2"
_cell_formula_units_Z 64
_cell_length_a 8.973946
_cell_length_b 14.795149
_cell_length_c 24.447815
_cell_angle_alpha 90.000000
_cell_angle_beta 90.000000
_cell_angle_gamma 90.000000
_cell_volume 3245.957623
_symmetry_space_group_name_H-M "I M A 2"
_symmetry_group_IT_number 46
_symmetry_cell_setting 'orthorhombic'
loop_
_space_group_symop_operation_xyz
x,y,z
-x,-y,z
1/2-x,y,z
1/2+x,-y,z
1/2+x,1/2+y,1/2+z
1/2-x,1/2-y,1/2+z
-x,1/2+y,1/2+z
x,1/2-y,1/2+z
loop_
_atom_site_type_symbol
_atom_site_label
_atom_site_fract_x
_atom_site_fract_y
_atom_site_fract_z
Si Si1 0.078660 0.168806 0.113670
Si Si2 0.429841 0.596829 0.724720
Si Si3 0.082209 0.085774 0.730778
Si Si4 0.410593 0.116155 0.606965
Si Si5 0.076498 0.592054 0.001949
Si Si6 0.929296 0.401142 0.387248
Si Si7 0.572250 0.233857 0.791728
Si Si8 0.071010 0.799868 0.999668
O O1 0.250000 0.135517 0.113963
O O2 0.082786 0.277317 0.119111
O O3 0.990762 0.128852 0.165325
O O4 0.003344 0.158811 0.054097
O O5 0.500000 0.500000 0.735933
O O6 0.250000 0.593813 0.722761
O O7 0.476849 0.666798 0.772889
O O8 0.250000 0.097775 0.751899
O O9 0.092645 0.072445 0.666038
O O10 0.980071 0.171073 0.742077
O O11 0.000000 0.000000 0.755925
O O12 0.250000 0.098117 0.578601
O O13 0.544549 0.091119 0.567287
O O14 0.250000 0.588133 0.988920
O O15 0.022164 0.694785 0.988163
O O16 0.000000 0.500000 0.980079
O O17 0.750000 0.409545 0.381045
O O18 0.981674 0.323586 0.344212
O O19 0.960726 0.361476 0.447377
O O20 0.000000 0.500000 0.380390
O O21 0.750000 0.237460 0.796241
O O22 0.250000 0.795751 0.008094
#
# Coordination Sequence:
#
# PCOD9378564 Si02
#       8
#     8   8   8   8   8   8   8   8
#     4  10  19  35  58  86 120 155 196 243 293 346
#     4  11  23  39  61  88 120 157 198 241 294 356
#     4  11  21  32  49  77 112 149 189 233 284 341
#     4   9  18  31  48  74 109 149 187 229 278 335
#     4  10  19  31  50  76 109 151 192 234 283 338
#     4  10  22  42  65  89 117 150 195 245 297 353
#     4  10  22  40  61  84 113 151 192 241 294 350
#     4   9  20  38  59  84 118 160 200 242 296 355
#
# _framework density 19.716832
#
# number of rings (size 3 to 8) (size 9 to 14) (size 15 to 20)
#    0.000    2.000    1.250    2.250    0.000    6.000 
#    0.000    1.875    0.000    0.000    0.000    0.000 
#    0.000    0.000    0.000    0.000    0.000    0.000 
#
# Total GULP energy -178342.719165 kJ/mol
# GULP energy per Si atom -5573.209974 kJ/mol
# Density = 1.967196 g / cm^3
# Si number density = 19.716832 Si / 1000 Ang^3
#
#
#
# Elastic Constant Matrix: (Units=GPa)
#
#
# Indices 1 2 3 4 5 6 
#
# 1 25.5427 35.6050 34.7629 0.0000 0.0000 0.0000
# 2 35.6050 143.1301 54.0579 0.0000 0.0000 0.0000
# 3 34.7629 54.0579 98.6876 0.0000 0.0000 0.0000
# 4 0.0000 0.0000 0.0000 22.0026 0.0000 0.0000
# 5 0.0000 0.0000 0.0000 0.0000 18.5599 0.0000
# 6 0.0000 0.0000 0.0000 0.0000 0.0000 30.4009
#
#
#
# Elastic Compliance Matrix: (Units=1/GPa)
#
#
# Indices 1 2 3 4 5 6 
#
# 1 0.091905 -0.013409 -0.025028 0.000000 0.000000 0.000000
# 2 -0.013409 0.010766 -0.001174 0.000000 0.000000 0.000000
# 3 -0.025028 -0.001174 0.019592 0.000000 0.000000 0.000000
# 4 0.000000 0.000000 0.000000 0.045449 0.000000 0.000000
# 5 0.000000 0.000000 0.000000 0.000000 0.053880 0.000000
# 6 0.000000 0.000000 0.000000 0.000000 0.000000 0.032894
#
#
# Mechanical properties :
#
#
# Convention : Reuss Voigt Hill
#
# Bulk Modulus (GPa) = 23.23427 57.35687 40.29557
# Shear Modulus (GPa) = 14.36556 23.72166 19.04361
#
# Velocity S-wave (km/s) = 2.70218 3.47236 3.11119
# Velocity P-wave (km/s) = 4.64168 6.72531 5.77820
#
# Compressibility (1/GPa) = 0.04303987
#
# Stress axis : x y z
#
# Youngs Moduli (GPa) = 10.88081 92.88835 51.04094
#
# Poissons Ratio (x) = 1.24558 1.27747
# Poissons Ratio (y) = 0.14591 0.05990
# Poissons Ratio (z) = 0.27233 0.10901
#
# Static dielectric constant tensor:
#      x y z
#    x 1.712880 0.000000 0.000000 
#    y 0.000000 1.693100 0.000000 
#    z 0.000000 0.000000 1.702980 
# 
# From -- ./inp_files/23205.got.cif
#   From: 2010.05.17/outbox.cif.g08.bks.cpg/sg46_12_cif.got.tgz:23205.got - 2010.06.03 19:58:25.
