data_PCOD9378638
_publ_section_title
;
Structure prediction by ZEFSAII (Michael W. Deem and Ramdas Pophale) SiO2 
 PCOD9378638
Probable space group: I M A 2
;
_chemical_formula_sum "Si O2"
_cell_formula_units_Z 64
_cell_length_a 8.735742
_cell_length_b 20.155818
_cell_length_c 21.106598
_cell_angle_alpha 90.000000
_cell_angle_beta 90.000000
_cell_angle_gamma 90.000000
_cell_volume 3716.365895
_symmetry_space_group_name_H-M "I M A 2"
_symmetry_group_IT_number 46
_symmetry_cell_setting 'orthorhombic'
loop_
_space_group_symop_operation_xyz
x,y,z
-x,-y,z
1/2-x,y,z
1/2+x,-y,z
1/2+x,1/2+y,1/2+z
1/2-x,1/2-y,1/2+z
-x,1/2+y,1/2+z
x,1/2-y,1/2+z
loop_
_atom_site_type_symbol
_atom_site_label
_atom_site_fract_x
_atom_site_fract_y
_atom_site_fract_z
Si Si1 0.933918 0.205180 0.250000
Si Si2 0.433475 0.069425 0.825342
Si Si3 0.065554 0.706325 0.129680
Si Si4 0.933619 0.287383 0.988228
Si Si5 0.433071 0.930953 0.436290
Si Si6 0.433048 0.069912 0.676928
Si Si7 0.433540 0.213091 0.868463
Si Si8 0.567025 0.929738 0.294441
O O1 0.750000 0.199933 0.252062
O O2 0.979737 0.244890 0.186697
O O3 0.990883 0.246273 0.310960
O O4 0.006845 0.132526 0.254857
O O5 0.250000 0.065252 0.826963
O O6 0.479067 0.076743 0.751288
O O7 0.480232 0.136062 0.861541
O O8 0.500000 0.000000 0.849228
O O9 0.250000 0.700428 0.131034
O O10 0.996500 0.633905 0.141652
O O11 0.022008 0.730728 0.059724
O O12 0.750000 0.279567 0.980980
O O13 0.967487 0.365338 0.976385
O O14 0.015147 0.244969 0.934314
O O15 0.250000 0.937088 0.429855
O O16 0.504849 0.921231 0.366401
O O17 0.500000 0.000000 0.462137
O O18 0.250000 0.068264 0.673589
O O19 0.500000 0.000000 0.653723
O O20 0.250000 0.217307 0.861631
O O21 0.750000 0.931671 0.295650
O O22 0.500000 0.000000 0.271722
#
# Coordination Sequence:
#
# PCOD9378638 Si02
#       8
#     8   8   8   8   8   8   8   8
#     4  11  21  35  57  82 109 144 184 225 273 322
#     4   9  19  33  52  80 110 138 176 223 269 321
#     4  10  22  38  55  78 110 148 187 226 270 324
#     4  10  22  38  54  77 110 147 186 225 271 327
#     4  10  19  32  51  75 107 144 184 221 265 319
#     4  10  19  33  52  77 110 147 185 225 268 320
#     4  11  21  35  56  83 110 140 183 229 273 323
#     4  11  21  34  55  82 112 140 178 225 275 324
#
# _framework density 17.221124
#
# number of rings (size 3 to 8) (size 9 to 14) (size 15 to 20)
#    0.000    1.750    2.500    3.375    0.000    3.500 
#    0.000    1.250    0.000    0.750    0.000    1.750 
#    0.000    0.000    0.000    0.000    0.000    0.000 
#
# Total GULP energy -178693.551383 kJ/mol
# GULP energy per Si atom -5584.173481 kJ/mol
# Density = 1.718193 g / cm^3
# Si number density = 17.221124 Si / 1000 Ang^3
#
#
#
# Elastic Constant Matrix: (Units=GPa)
#
#
# Indices 1 2 3 4 5 6 
#
# 1 51.9401 44.9307 37.4668 0.0000 0.0000 0.0000
# 2 44.9307 133.8305 62.8424 0.0000 0.0000 0.0000
# 3 37.4668 62.8424 101.8859 0.0000 0.0000 0.0000
# 4 0.0000 0.0000 0.0000 20.8690 0.0000 0.0000
# 5 0.0000 0.0000 0.0000 0.0000 -5.4245 0.0000
# 6 0.0000 0.0000 0.0000 0.0000 0.0000 32.3237
#
#
#
# Elastic Compliance Matrix: (Units=1/GPa)
#
#
# Indices 1 2 3 4 5 6 
#
# 1 0.030163 -0.006923 -0.006822 0.000000 0.000000 0.000000
# 2 -0.006923 0.012108 -0.004922 0.000000 0.000000 0.000000
# 3 -0.006822 -0.004922 0.015359 0.000000 0.000000 0.000000
# 4 0.000000 0.000000 0.000000 0.047918 0.000000 0.000000
# 5 0.000000 0.000000 0.000000 0.000000 -0.184350 0.000000
# 6 0.000000 0.000000 0.000000 0.000000 0.000000 0.030937
#
#
# Mechanical properties :
#
#
# Convention : Reuss Voigt Hill
#
# Bulk Modulus (GPa) = 49.27108 64.23739 56.75423
# Shear Modulus (GPa) = -1327.65554 19.04808 -654.30373
#
# Velocity S-wave (km/s) = -27.79604 3.32940 -19.51326
# Velocity P-wave (km/s) = 31.64627 7.22235 21.78674
#
# Compressibility (1/GPa) = 0.02029588
#
# Stress axis : x y z
#
# Youngs Moduli (GPa) = 33.15358 82.59212 65.10713
#
# Poissons Ratio (x) = 0.57181 0.44413
# Poissons Ratio (y) = 0.22953 0.32046
# Poissons Ratio (z) = 0.22616 0.40652
#
# Static dielectric constant tensor:
#      x y z
#    x 1.578250 0.000000 0.000000 
#    y 0.000000 1.583850 0.000000 
#    z 0.000000 0.000000 1.575520 
# 
# From -- ./inp_files/18528.got.cif
#   From: 2010.05.17/outbox.cif.g08.bks.cpg/sg46_10_cif.got.tgz:18528.got - 2010.06.03 19:58:25.
