data_PCOD9378781
_publ_section_title
;
Structure prediction by ZEFSAII (Michael W. Deem and Ramdas Pophale) SiO2 
 PCOD9378781
Probable space group: I M A 2
;
_chemical_formula_sum "Si O2"
_cell_formula_units_Z 48
_cell_length_a 14.738779
_cell_length_b 9.754365
_cell_length_c 15.568415
_cell_angle_alpha 90.000000
_cell_angle_beta 90.000000
_cell_angle_gamma 90.000000
_cell_volume 2238.231014
_symmetry_space_group_name_H-M "I M A 2"
_symmetry_group_IT_number 46
_symmetry_cell_setting 'orthorhombic'
loop_
_space_group_symop_operation_xyz
x,y,z
-x,-y,z
1/2-x,y,z
1/2+x,-y,z
1/2+x,1/2+y,1/2+z
1/2-x,1/2-y,1/2+z
-x,1/2+y,1/2+z
x,1/2-y,1/2+z
loop_
_atom_site_type_symbol
_atom_site_label
_atom_site_fract_x
_atom_site_fract_y
_atom_site_fract_z
Si Si1 0.642524 0.411727 0.773300
Si Si2 0.360231 0.885148 0.971954
Si Si3 0.096493 0.572256 0.971150
Si Si4 0.646573 0.901975 0.631129
Si Si5 0.639026 0.103856 0.775446
Si Si6 0.638786 0.903094 0.118668
O O1 0.750000 0.403300 0.757653
O O2 0.630356 0.445076 0.873487
O O3 0.605879 0.258506 0.756565
O O4 0.608984 0.525868 0.707431
O O5 0.250000 0.868435 0.976288
O O6 0.400726 0.734683 0.988838
O O7 0.382884 0.927477 0.874425
O O8 0.388437 0.998970 0.040270
O O9 0.000000 0.500000 0.974800
O O10 0.149323 0.493110 0.045626
O O11 0.750000 0.874156 0.658794
O O12 0.605206 0.752881 0.613799
O O13 0.605636 0.992852 0.707412
O O14 0.750000 0.107760 0.769968
O O15 0.750000 0.900986 0.114957
#
# Coordination Sequence:
#
# PCOD9378781 Si02
#       6
#     8   8   8   8   8   8
#     4   9  17  33  54  76 101 135 174 217 263 313
#     4   9  17  34  58  83 107 138 176 218 266 323
#     4  11  22  35  51  75 105 142 185 221 257 311
#     4  10  19  33  53  80 108 135 169 220 271 315
#     4   8  15  28  52  79 102 130 168 208 255 309
#     4   9  18  31  55  85 107 130 170 218 271 323
#
# _framework density 21.445508
#
# number of rings (size 3 to 8) (size 9 to 14) (size 15 to 20)
#    0.000    2.667    0.000    3.500    0.000    4.000 
#    0.000   10.833    0.000    0.000    0.000    0.000 
#    0.000    0.000    0.000    0.000    0.000    0.000 
#
# Total GULP energy -133964.504806 kJ/mol
# GULP energy per Si atom -5581.854367 kJ/mol
# Density = 2.139670 g / cm^3
# Si number density = 21.445508 Si / 1000 Ang^3
#
#
#
# Elastic Constant Matrix: (Units=GPa)
#
#
# Indices 1 2 3 4 5 6 
#
# 1 29.5109 20.2800 8.1495 0.0000 0.0000 0.0000
# 2 20.2800 198.1720 138.1624 0.0000 0.0000 0.0000
# 3 8.1495 138.1624 147.3038 0.0000 0.0000 0.0000
# 4 0.0000 0.0000 0.0000 -61.6878 0.0000 0.0000
# 5 0.0000 0.0000 0.0000 0.0000 -18.0262 0.0000
# 6 0.0000 0.0000 0.0000 0.0000 0.0000 5.9800
#
#
#
# Elastic Compliance Matrix: (Units=1/GPa)
#
#
# Indices 1 2 3 4 5 6 
#
# 1 0.037409 -0.006892 0.004395 0.000000 0.000000 0.000000
# 2 -0.006892 0.015851 -0.014486 0.000000 0.000000 0.000000
# 3 0.004395 -0.014486 0.020132 0.000000 0.000000 0.000000
# 4 0.000000 0.000000 0.000000 -0.016211 0.000000 0.000000
# 5 0.000000 0.000000 0.000000 0.000000 -0.055475 0.000000
# 6 0.000000 0.000000 0.000000 0.000000 0.000000 0.167223
#
#
# Mechanical properties :
#
#
# Convention : Reuss Voigt Hill
#
# Bulk Modulus (GPa) = 25.36433 78.68561 52.02497
# Shear Modulus (GPa) = 23.14417 -0.85381 11.14518
#
# Velocity S-wave (km/s) = 3.28869 -0.63166 2.28216
# Velocity P-wave (km/s) = 5.12579 6.01985 5.59072
#
# Compressibility (1/GPa) = 0.03942545
#
# Stress axis : x y z
#
# Youngs Moduli (GPa) = 26.73186 63.08901 49.67156
#
# Poissons Ratio (x) = 0.43483 -0.21831
# Poissons Ratio (y) = 0.18425 0.71952
# Poissons Ratio (z) = -0.11749 0.91389
#
# Static dielectric constant tensor:
#      x y z
#    x 1.849830 0.000000 0.000000 
#    y 0.000000 1.764930 0.000000 
#    z 0.000000 0.000000 1.773390 
# 
# From -- ./inp_files/16541.got.cif
#   From: 2010.05.17/outbox.cif.g08.bks.cpg/sg46_9_cif.got.tgz:16541.got - 2010.06.03 19:58:25.
