data_PCOD9378256
_publ_section_title
;
Structure prediction by ZEFSAII (Michael W. Deem and Ramdas Pophale) SiO2 
 PCOD9378256
Probable space group: I M A 2
;
_chemical_formula_sum "Si O2"
_cell_formula_units_Z 60
_cell_length_a 11.549648
_cell_length_b 30.834149
_cell_length_c 10.010372
_cell_angle_alpha 90.000000
_cell_angle_beta 90.000000
_cell_angle_gamma 90.000000
_cell_volume 3564.929387
_symmetry_space_group_name_H-M "I M A 2"
_symmetry_group_IT_number 46
_symmetry_cell_setting 'orthorhombic'
loop_
_space_group_symop_operation_xyz
x,y,z
-x,-y,z
1/2-x,y,z
1/2+x,-y,z
1/2+x,1/2+y,1/2+z
1/2-x,1/2-y,1/2+z
-x,1/2+y,1/2+z
x,1/2-y,1/2+z
loop_
_atom_site_type_symbol
_atom_site_label
_atom_site_fract_x
_atom_site_fract_y
_atom_site_fract_z
Si Si1 0.994695 0.749040 0.392410
Si Si2 0.388393 0.414462 0.326484
Si Si3 0.881145 0.023074 0.531898
Si Si4 0.115882 0.707608 0.135965
Si Si5 0.610955 0.836082 0.023474
Si Si6 0.385745 0.161044 0.325525
Si Si7 0.000000 0.000000 0.793141
Si Si8 0.517972 0.385294 0.062153
O O1 0.045035 0.730926 0.253876
O O2 0.087650 0.769357 0.494862
O O3 0.936212 0.708981 0.467781
O O4 0.908076 0.788694 0.362836
O O5 0.250000 0.420122 0.328549
O O6 0.419513 0.374725 0.422908
O O7 0.455805 0.457930 0.369160
O O8 0.431747 0.403337 0.176731
O O9 0.750000 0.010727 0.488354
O O10 0.896596 0.011927 0.689500
O O11 0.900071 0.074688 0.522436
O O12 0.000000 0.000000 0.474070
O O13 0.250000 0.711127 0.167418
O O14 0.080679 0.657170 0.121303
O O15 0.750000 0.833187 0.027854
O O16 0.570448 0.844931 0.174270
O O17 0.250000 0.151647 0.330510
O O18 0.450080 0.131456 0.432773
#
# Coordination Sequence:
#
# PCOD9378256 Si02
#       8
#     8   8   8   8   8   8   4   8
#     4  11  20  36  52  75 107 137 181 223 273 320
#     4  10  18  32  55  82 106 138 177 220 269 323
#     4   9  18  31  53  83 114 141 174 225 278 328
#     4  11  22  35  52  72 102 143 184 224 269 322
#     4  10  20  34  54  79 109 141 176 219 271 324
#     4  10  21  35  52  78 110 145 177 221 276 327
#     4   8  18  28  52  80 110 140 172 222 274 328
#     4  10  20  33  54  79 108 139 177 227 264 330
#
# _framework density 16.830628000000001
#
# number of rings (size 3 to 8) (size 9 to 14) (size 15 to 20)
#    0.400    1.600    2.667    2.000    0.000    0.533 
#    0.000    0.000    1.467    0.000    0.000    0.000 
#    0.000    0.000    0.000    0.000    0.000    0.000 
#
# Total GULP energy -167098.697934 kJ/mol
# GULP energy per Si atom -5569.956598 kJ/mol
# Density = 1.679232 g / cm^3
# Si number density = 16.830628 Si / 1000 Ang^3
#
#
#
# Elastic Constant Matrix: (Units=GPa)
#
#
# Indices 1 2 3 4 5 6 
#
# 1 59.7487 25.3282 16.1511 0.0000 0.0002 0.0000
# 2 25.3282 102.3078 15.8860 -0.0002 0.0003 0.0001
# 3 16.1511 15.8860 66.8635 0.0002 0.0044 -0.0001
# 4 0.0000 -0.0002 0.0002 15.1587 0.0000 0.0000
# 5 0.0002 0.0003 0.0044 0.0000 8.0796 0.0000
# 6 0.0000 0.0001 -0.0001 0.0000 0.0000 16.2752
#
#
#
# Elastic Compliance Matrix: (Units=1/GPa)
#
#
# Indices 1 2 3 4 5 6 
#
# 1 0.019546 -0.004263 -0.003709 0.000000 0.000002 0.000000
# 2 -0.004263 0.011079 -0.001602 0.000000 0.000001 0.000000
# 3 -0.003709 -0.001602 0.016232 0.000000 -0.000009 0.000000
# 4 0.000000 0.000000 0.000000 0.065969 0.000000 0.000000
# 5 0.000002 0.000001 -0.000009 0.000000 0.123769 0.000000
# 6 0.000000 0.000000 0.000000 0.000000 0.000000 0.061443
#
#
# Mechanical properties :
#
#
# Convention : Reuss Voigt Hill
#
# Bulk Modulus (GPa) = 36.08924 38.18341 37.13633
# Shear Modulus (GPa) = 15.31754 19.33968 17.32861
#
# Velocity S-wave (km/s) = 3.02006 3.39348 3.21220
# Velocity P-wave (km/s) = 5.80087 6.17174 5.98918
#
# Compressibility (1/GPa) = 0.02770909
#
# Stress axis : x y z
#
# Youngs Moduli (GPa) = 51.16007 90.26351 61.60524
#
# Poissons Ratio (x) = 0.38481 0.22847
# Poissons Ratio (y) = 0.21811 0.09871
# Poissons Ratio (z) = 0.18973 0.14464
#
# Static dielectric constant tensor:
#      x y z
#    x 1.564170 0.000000 0.000000 
#    y 0.000000 1.572490 0.000000 
#    z 0.000000 0.000000 1.547940 
# 
# From -- ./inp_files/4987.got.cif
#   From: 2010.05.17/outbox.cif.g08.bks.cpg/sg46_3_cif.got.tgz:4987.got - 2010.06.03 19:58:25.
