data_PCOD9378639
_publ_section_title
;
Structure prediction by ZEFSAII (Michael W. Deem and Ramdas Pophale) SiO2 
 PCOD9378639
Probable space group: I M A 2
;
_chemical_formula_sum "Si O2"
_cell_formula_units_Z 64
_cell_length_a 8.722488
_cell_length_b 20.081425
_cell_length_c 21.057275
_cell_angle_alpha 90.000000
_cell_angle_beta 90.000000
_cell_angle_gamma 90.000000
_cell_volume 3688.392049
_symmetry_space_group_name_H-M "I M A 2"
_symmetry_group_IT_number 46
_symmetry_cell_setting 'orthorhombic'
loop_
_space_group_symop_operation_xyz
x,y,z
-x,-y,z
1/2-x,y,z
1/2+x,-y,z
1/2+x,1/2+y,1/2+z
1/2-x,1/2-y,1/2+z
-x,1/2+y,1/2+z
x,1/2-y,1/2+z
loop_
_atom_site_type_symbol
_atom_site_label
_atom_site_fract_x
_atom_site_fract_y
_atom_site_fract_z
Si Si1 0.932974 0.203375 0.986490
Si Si2 0.433935 0.569458 0.910385
Si Si3 0.565665 0.287713 0.860224
Si Si4 0.066972 0.929607 0.794933
Si Si5 0.066872 0.205099 0.744380
Si Si6 0.066121 0.213691 0.602031
Si Si7 0.433222 0.430957 0.052716
Si Si8 0.067100 0.070142 0.937211
O O1 0.750000 0.194181 0.985751
O O2 0.974527 0.247708 0.924606
O O3 0.015111 0.132606 0.978810
O O4 0.983677 0.242282 0.049243
O O5 0.500000 0.500000 0.884780
O O6 0.250000 0.565738 0.914392
O O7 0.475755 0.635154 0.870956
O O8 0.499666 0.576973 0.981661
O O9 0.750000 0.283142 0.852863
O O10 0.487297 0.253587 0.800276
O O11 0.250000 0.932576 0.797031
O O12 0.010515 0.866488 0.755561
O O13 0.003387 0.920148 0.866677
O O14 0.000000 0.000000 0.771639
O O15 0.250000 0.196401 0.747264
O O16 0.026835 0.231333 0.674333
O O17 0.250000 0.220361 0.593502
O O18 0.027959 0.135832 0.590676
O O19 0.500000 0.500000 0.079252
O O20 0.250000 0.436789 0.048766
O O21 0.250000 0.066462 0.932215
O O22 0.000000 0.000000 0.961028
#
# Coordination Sequence:
#
# PCOD9378639 Si02
#       8
#     8   8   8   8   8   8   8   8
#     4  11  21  36  59  85 113 146 187 232 281 331
#     4  10  19  33  53  81 111 139 177 224 272 324
#     4  10  21  36  56  82 112 143 184 232 277 334
#     4  11  21  35  54  79 112 149 190 231 276 333
#     4  11  23  38  56  80 112 150 191 233 281 334
#     4  10  23  39  54  79 113 149 190 232 277 334
#     4  10  19  32  51  75 108 144 182 222 265 319
#     4  11  21  35  57  85 115 146 183 230 281 331
#
# _framework density 17.351734
#
# number of rings (size 3 to 8) (size 9 to 14) (size 15 to 20)
#    0.000    1.500    2.500    5.250    0.000    3.500 
#    0.000    1.250    0.000    0.750    0.000    1.750 
#    0.000    0.000    0.000    0.000    0.000    0.000 
#
# Total GULP energy -178775.140122 kJ/mol
# GULP energy per Si atom -5586.723129 kJ/mol
# Density = 1.731224 g / cm^3
# Si number density = 17.351734 Si / 1000 Ang^3
#
#
#
# Elastic Constant Matrix: (Units=GPa)
#
#
# Indices 1 2 3 4 5 6 
#
# 1 90.2452 58.1032 49.5481 0.0000 0.0000 0.0000
# 2 58.1032 122.6134 57.5781 0.0000 0.0000 0.0000
# 3 49.5481 57.5781 98.3177 0.0000 0.0000 0.0000
# 4 0.0000 0.0000 0.0000 20.4003 0.0000 0.0000
# 5 0.0000 0.0000 0.0000 0.0000 17.0577 0.0000
# 6 0.0000 0.0000 0.0000 0.0000 0.0000 32.7753
#
#
#
# Elastic Compliance Matrix: (Units=1/GPa)
#
#
# Indices 1 2 3 4 5 6 
#
# 1 0.017935 -0.005868 -0.005602 0.000000 0.000000 0.000000
# 2 -0.005868 0.013169 -0.004755 0.000000 0.000000 0.000000
# 3 -0.005602 -0.004755 0.015779 0.000000 0.000000 0.000000
# 4 0.000000 0.000000 0.000000 0.049019 0.000000 0.000000
# 5 0.000000 0.000000 0.000000 0.000000 0.058624 0.000000
# 6 0.000000 0.000000 0.000000 0.000000 0.000000 0.030511
#
#
# Mechanical properties :
#
#
# Convention : Reuss Voigt Hill
#
# Bulk Modulus (GPa) = 69.28616 71.29278 70.28947
# Shear Modulus (GPa) = 22.49232 23.77647 23.13440
#
# Velocity S-wave (km/s) = 3.60426 3.70572 3.65535
# Velocity P-wave (km/s) = 7.57219 7.71271 7.64277
#
# Compressibility (1/GPa) = 0.01443290
#
# Stress axis : x y z
#
# Youngs Moduli (GPa) = 55.75798 75.93314 63.37590
#
# Poissons Ratio (x) = 0.44560 0.35501
# Poissons Ratio (y) = 0.32720 0.30136
# Poissons Ratio (z) = 0.31234 0.36107
#
# Static dielectric constant tensor:
#      x y z
#    x 1.582270 0.000000 0.000000 
#    y 0.000000 1.596610 0.000000 
#    z 0.000000 0.000000 1.569520 
# 
# From -- ./inp_files/18548.got.cif
#   From: 2010.05.17/outbox.cif.g08.bks.cpg/sg46_10_cif.got.tgz:18548.got - 2010.06.03 19:58:25.
