data_PCOD9378551
_publ_section_title
;
Structure prediction by ZEFSAII (Michael W. Deem and Ramdas Pophale) SiO2 
 PCOD9378551
Probable space group: I M A 2
;
_chemical_formula_sum "Si O2"
_cell_formula_units_Z 64
_cell_length_a 14.507619
_cell_length_b 12.393585
_cell_length_c 13.701541
_cell_angle_alpha 90.000000
_cell_angle_beta 90.000000
_cell_angle_gamma 90.000000
_cell_volume 2463.556380
_symmetry_space_group_name_H-M "I M A 2"
_symmetry_group_IT_number 46
_symmetry_cell_setting 'orthorhombic'
loop_
_space_group_symop_operation_xyz
x,y,z
-x,-y,z
1/2-x,y,z
1/2+x,-y,z
1/2+x,1/2+y,1/2+z
1/2-x,1/2-y,1/2+z
-x,1/2+y,1/2+z
x,1/2-y,1/2+z
loop_
_atom_site_type_symbol
_atom_site_label
_atom_site_fract_x
_atom_site_fract_y
_atom_site_fract_z
Si Si1 0.857352 0.465317 0.385690
Si Si2 0.359148 0.966183 0.312374
Si Si3 0.647279 0.725576 0.102149
Si Si4 0.151187 0.289443 0.377334
Si Si5 0.567453 0.233168 0.587401
Si Si6 0.108537 0.993366 0.540564
Si Si7 0.545029 0.253362 0.354689
Si Si8 0.642407 0.463591 0.606383
O O1 0.750000 0.427784 0.390538
O O2 0.855868 0.585971 0.344228
O O3 0.917156 0.373418 0.332758
O O4 0.894220 0.483626 0.497006
O O5 0.250000 0.965977 0.304168
O O6 0.378641 0.005274 0.422967
O O7 0.396048 0.844137 0.315453
O O8 0.393072 0.015536 0.208060
O O9 0.750000 0.757421 0.143899
O O10 0.647913 0.780433 0.994625
O O11 0.537293 0.737921 0.131323
O O12 0.652717 0.596680 0.088976
O O13 0.250000 0.242964 0.350234
O O14 0.062081 0.234008 0.334996
O O15 0.626972 0.122490 0.589854
O O16 0.552913 0.245012 0.471424
O O17 0.625923 0.336103 0.617845
O O18 0.000000 0.000000 0.554889
O O19 0.750000 0.490069 0.598578
#
# Coordination Sequence:
#
# PCOD9378551 Si02
#       8
#     8   8   8   8   8   8   8   8
#     4   9  16  28  47  71  96 124 159 199 242 288
#     4  10  19  31  49  75 103 129 157 195 245 296
#     4   9  16  27  45  68  91 119 158 201 236 272
#     4   9  17  28  45  67  92 123 161 201 237 275
#     4   8  16  29  46  68  94 121 154 194 239 286
#     4   9  17  30  48  72  98 125 158 197 240 288
#     4   9  16  28  47  70  95 121 155 199 242 285
#     4   9  18  31  48  73 103 128 154 194 246 296
#
# _framework density 25.978701999999998
#
# number of rings (size 3 to 8) (size 9 to 14) (size 15 to 20)
#    0.000    3.000    0.000    1.875    0.000    3.500 
#    0.000    3.750    0.000    5.250    0.000    1.750 
#    0.000    0.000    0.000    0.000    0.000    0.000 
#
# Total GULP energy -178438.514088 kJ/mol
# GULP energy per Si atom -5576.203565 kJ/mol
# Density = 2.591957 g / cm^3
# Si number density = 25.978702 Si / 1000 Ang^3
#
#
#
# Elastic Constant Matrix: (Units=GPa)
#
#
# Indices 1 2 3 4 5 6 
#
# 1 113.0511 24.0813 -21.3583 0.0000 0.0000 0.0000
# 2 24.0813 101.7594 -26.7801 0.0000 0.0000 0.0000
# 3 -21.3583 -26.7801 61.2487 0.0000 0.0000 0.0000
# 4 0.0000 0.0000 0.0000 -15.7787 0.0000 0.0000
# 5 0.0000 0.0000 0.0000 0.0000 26.4506 0.0000
# 6 0.0000 0.0000 0.0000 0.0000 0.0000 8.7150
#
#
#
# Elastic Compliance Matrix: (Units=1/GPa)
#
#
# Indices 1 2 3 4 5 6 
#
# 1 0.009691 -0.001587 0.002686 0.000000 0.000000 0.000000
# 2 -0.001587 0.011365 0.004416 0.000000 0.000000 0.000000
# 3 0.002686 0.004416 0.019194 0.000000 0.000000 0.000000
# 4 0.000000 0.000000 0.000000 -0.063377 0.000000 0.000000
# 5 0.000000 0.000000 0.000000 0.000000 0.037806 0.000000
# 6 0.000000 0.000000 0.000000 0.000000 0.000000 0.114745
#
#
# Mechanical properties :
#
#
# Convention : Reuss Voigt Hill
#
# Bulk Modulus (GPa) = 19.50101 25.32725 22.41413
# Shear Modulus (GPa) = 36.90373 23.88514 30.39443
#
# Velocity S-wave (km/s) = 3.77309 3.03547 3.42420
# Velocity P-wave (km/s) = 5.14825 4.69636 4.92749
#
# Compressibility (1/GPa) = 0.05127939
#
# Stress axis : x y z
#
# Youngs Moduli (GPa) = 103.18960 87.99212 52.09927
#
# Poissons Ratio (x) = 0.13960 -0.13992
# Poissons Ratio (y) = 0.16372 -0.23006
# Poissons Ratio (z) = -0.27713 -0.38855
#
# Static dielectric constant tensor:
#      x y z
#    x 1.985810 0.000000 0.000000 
#    y 0.000000 2.077550 0.000000 
#    z 0.000000 0.000000 2.223870 
# 
# From -- ./inp_files/19741.got.cif
#   From: 2010.05.17/outbox.cif.g08.bks.cpg/sg46_10_cif.got.tgz:19741.got - 2010.06.03 19:58:25.
