data_PCOD9378336
_publ_section_title
;
Structure prediction by ZEFSAII (Michael W. Deem and Ramdas Pophale) SiO2 
 PCOD9378336
Probable space group: I M A 2
;
_chemical_formula_sum "Si O2"
_cell_formula_units_Z 40
_cell_length_a 8.505421
_cell_length_b 29.353414
_cell_length_c 8.060977
_cell_angle_alpha 90.000000
_cell_angle_beta 90.000000
_cell_angle_gamma 90.000000
_cell_volume 2012.528860
_symmetry_space_group_name_H-M "I M A 2"
_symmetry_group_IT_number 46
_symmetry_cell_setting 'orthorhombic'
loop_
_space_group_symop_operation_xyz
x,y,z
-x,-y,z
1/2-x,y,z
1/2+x,-y,z
1/2+x,1/2+y,1/2+z
1/2-x,1/2-y,1/2+z
-x,1/2+y,1/2+z
x,1/2-y,1/2+z
loop_
_atom_site_type_symbol
_atom_site_label
_atom_site_fract_x
_atom_site_fract_y
_atom_site_fract_z
Si Si1 0.059811 0.200860 0.869780
Si Si2 0.441120 0.199522 0.252597
Si Si3 0.561457 0.603414 0.888247
Si Si4 0.062345 0.892345 0.741138
Si Si5 0.938872 0.051260 0.065443
O O1 0.250000 0.199804 0.857898
O O2 0.006094 0.251121 0.815501
O O3 0.994020 0.159663 0.762283
O O4 0.014512 0.193223 0.060981
O O5 0.250000 0.200305 0.259794
O O6 0.493071 0.155645 0.355768
O O7 0.750000 0.602736 0.886395
O O8 0.500316 0.573884 0.734716
O O9 0.502597 0.588456 0.068418
O O10 0.250000 0.893758 0.737203
O O11 0.007688 0.919866 0.904319
O O12 0.750000 0.051555 0.068343
O O13 0.000000 0.000000 0.052293
#
# Coordination Sequence:
#
# PCOD9378336 Si02
#       5
#     8   8   8   8   8
#     4  10  18  34  58  87 123 164 215 260 305 370
#     4   9  18  32  57  90 123 162 211 262 307 369
#     4  11  22  40  67  95 126 166 211 262 318 374
#     4  11  24  41  61  91 130 168 207 260 319 377
#     4  11  25  45  68  93 126 164 211 264 320 380
#
# _framework density 19.875491
#
# number of rings (size 3 to 8) (size 9 to 14) (size 15 to 20)
#    0.000    1.600    2.000    3.000    0.000    6.400 
#    0.000    7.000    0.000    0.000    0.000    0.000 
#    0.000    0.000    0.000    0.000    0.000    0.000 
#
# Total GULP energy -111775.184094 kJ/mol
# GULP energy per Si atom -5588.759205 kJ/mol
# Density = 1.983025 g / cm^3
# Si number density = 19.875491 Si / 1000 Ang^3
#
#
#
# Elastic Constant Matrix: (Units=GPa)
#
#
# Indices 1 2 3 4 5 6 
#
# 1 35.8781 16.6065 28.2457 0.0001 -0.0001 0.0001
# 2 16.6065 105.1868 43.7479 0.0001 0.0000 0.0003
# 3 28.2457 43.7479 147.3375 0.0012 -0.0003 0.0008
# 4 0.0001 0.0001 0.0012 27.1661 0.0000 0.0000
# 5 -0.0001 0.0000 -0.0003 0.0000 29.8580 -0.0001
# 6 0.0001 0.0003 0.0008 0.0000 -0.0001 19.3772
#
#
#
# Elastic Compliance Matrix: (Units=1/GPa)
#
#
# Indices 1 2 3 4 5 6 
#
# 1 0.033636 -0.002999 -0.005558 0.000000 0.000000 0.000000
# 2 -0.002999 0.011114 -0.002725 0.000000 0.000000 0.000000
# 3 -0.005558 -0.002725 0.008662 0.000000 0.000000 0.000000
# 4 0.000000 0.000000 0.000000 0.036811 0.000000 0.000000
# 5 0.000000 0.000000 0.000000 0.000000 0.033492 0.000000
# 6 0.000000 0.000000 0.000000 0.000000 0.000000 0.051607
#
#
# Mechanical properties :
#
#
# Convention : Reuss Voigt Hill
#
# Bulk Modulus (GPa) = 32.41709 51.73364 42.07536
# Shear Modulus (GPa) = 24.01924 28.60041 26.30982
#
# Velocity S-wave (km/s) = 3.48010 3.79750 3.64226
# Velocity P-wave (km/s) = 5.70032 6.73152 6.23727
#
# Compressibility (1/GPa) = 0.03084793
#
# Stress axis : x y z
#
# Youngs Moduli (GPa) = 29.73032 89.97919 115.45021
#
# Poissons Ratio (x) = 0.26982 0.64165
# Poissons Ratio (y) = 0.08915 0.31461
# Poissons Ratio (z) = 0.16524 0.24520
#
# Static dielectric constant tensor:
#      x y z
#    x 1.682500 0.000000 0.000000 
#    y 0.000000 1.688180 0.000000 
#    z 0.000000 0.000000 1.698480 
# 
# From -- ./inp_files/3672.got.cif
#   From: 2010.05.17/outbox.cif.g08.bks.cpg/sg46_2_cif.got.tgz:3672.got - 2010.06.03 19:58:25.
