data_PCOD9378460
_publ_section_title
;
Structure prediction by ZEFSAII (Michael W. Deem and Ramdas Pophale) SiO2 
 PCOD9378460
Probable space group: I M A 2
;
_chemical_formula_sum "Si O2"
_cell_formula_units_Z 64
_cell_length_a 8.829975
_cell_length_b 18.992466
_cell_length_c 27.056213
_cell_angle_alpha 90.000000
_cell_angle_beta 90.000000
_cell_angle_gamma 90.000000
_cell_volume 4537.408088
_symmetry_space_group_name_H-M "I M A 2"
_symmetry_group_IT_number 46
_symmetry_cell_setting 'orthorhombic'
loop_
_space_group_symop_operation_xyz
x,y,z
-x,-y,z
1/2-x,y,z
1/2+x,-y,z
1/2+x,1/2+y,1/2+z
1/2-x,1/2-y,1/2+z
-x,1/2+y,1/2+z
x,1/2-y,1/2+z
loop_
_atom_site_type_symbol
_atom_site_label
_atom_site_fract_x
_atom_site_fract_y
_atom_site_fract_z
Si Si1 0.568900 0.576909 0.935390
Si Si2 0.431680 0.168424 0.532231
Si Si3 0.068067 0.575779 0.232062
Si Si4 0.432742 0.670955 0.322592
Si Si5 0.068522 0.790181 0.975625
Si Si6 0.568379 0.788949 0.380550
Si Si7 0.068149 0.923358 0.617710
Si Si8 0.931835 0.422761 0.418254
O O1 0.500000 0.500000 0.932243
O O2 0.750000 0.570532 0.936928
O O3 0.530466 0.629215 0.889881
O O4 0.523801 0.617449 0.986017
O O5 0.250000 0.169903 0.534414
O O6 0.493588 0.246208 0.519702
O O7 0.500921 0.134448 0.581107
O O8 0.250000 0.570250 0.234458
O O9 0.021630 0.634917 0.271242
O O10 0.027159 0.590754 0.175080
O O11 0.000000 0.500000 0.245680
O O12 0.250000 0.678525 0.324060
O O13 0.507976 0.746234 0.333642
O O14 0.475775 0.617505 0.367349
O O15 0.250000 0.785571 0.979007
O O16 0.026230 0.871081 0.963875
O O17 0.010963 0.750150 0.926550
O O18 0.750000 0.781670 0.384516
O O19 0.250000 0.925895 0.613486
O O20 0.000000 0.000000 0.604803
O O21 0.750000 0.427917 0.417558
O O22 0.000000 0.500000 0.421016
#
# Coordination Sequence:
#
# PCOD9378460 Si02
#       8
#     8   8   8   8   8   8   8   8
#     4   9  18  28  39  57  80 104 133 165 198 236
#     4  10  19  30  43  60  81 108 141 174 206 245
#     4   9  18  30  43  60  83 109 141 176 209 244
#     4   9  17  29  42  58  80 109 142 172 203 242
#     4   9  17  29  42  58  80 107 137 169 204 243
#     4   9  17  28  40  58  81 105 135 170 203 240
#     4  10  19  30  43  60  83 111 140 175 211 244
#     4   9  17  26  39  59  82 107 136 167 200 238
#
# _framework density 14.104969000000001
#
# number of rings (size 3 to 8) (size 9 to 14) (size 15 to 20)
#    0.000    2.750    0.000    3.750    0.000    7.500 
#    0.000    0.000    0.000    0.000    0.000    0.000 
#    0.000    1.000    0.000    8.500    0.000    5.875 
#
# Total GULP energy -178183.999317 kJ/mol
# GULP energy per Si atom -5568.249979 kJ/mol
# Density = 1.407287 g / cm^3
# Si number density = 14.104969 Si / 1000 Ang^3
#
#
#
# Elastic Constant Matrix: (Units=GPa)
#
#
# Indices 1 2 3 4 5 6 
#
# 1 28.4955 28.0093 21.6262 0.0000 0.0000 0.0000
# 2 28.0093 95.4678 38.8963 0.0000 0.0000 0.0000
# 3 21.6262 38.8963 61.0141 0.0000 0.0000 0.0000
# 4 0.0000 0.0000 0.0000 27.9511 0.0000 0.0000
# 5 0.0000 0.0000 0.0000 0.0000 16.8630 0.0000
# 6 0.0000 0.0000 0.0000 0.0000 0.0000 27.3845
#
#
#
# Elastic Compliance Matrix: (Units=1/GPa)
#
#
# Indices 1 2 3 4 5 6 
#
# 1 0.055655 -0.011201 -0.012586 0.000000 0.000000 0.000000
# 2 -0.011201 0.016404 -0.006488 0.000000 0.000000 0.000000
# 3 -0.012586 -0.006488 0.024987 0.000000 0.000000 0.000000
# 4 0.000000 0.000000 0.000000 0.035777 0.000000 0.000000
# 5 0.000000 0.000000 0.000000 0.000000 0.059301 0.000000
# 6 0.000000 0.000000 0.000000 0.000000 0.000000 0.036517
#
#
# Mechanical properties :
#
#
# Convention : Reuss Voigt Hill
#
# Bulk Modulus (GPa) = 27.39974 40.22679 33.81326
# Shear Modulus (GPa) = 16.59171 20.86944 18.73058
#
# Velocity S-wave (km/s) = 3.43345 3.85071 3.64805
# Velocity P-wave (km/s) = 5.93177 6.95357 6.46289
#
# Compressibility (1/GPa) = 0.03649670
#
# Stress axis : x y z
#
# Youngs Moduli (GPa) = 17.96784 60.96039 40.02138
#
# Poissons Ratio (x) = 0.68279 0.50372
# Poissons Ratio (y) = 0.20125 0.25964
# Poissons Ratio (z) = 0.22615 0.39548
#
# Static dielectric constant tensor:
#      x y z
#    x 1.470200 0.000000 0.000000 
#    y 0.000000 1.468590 0.000000 
#    z 0.000000 0.000000 1.473040 
# 
# From -- ./inp_files/23322.got.cif
#   From: 2010.05.17/outbox.cif.g08.bks.cpg/sg46_12_cif.got.tgz:23322.got - 2010.06.03 19:58:25.
