data_PCOD9378320
_publ_section_title
;
Structure prediction by ZEFSAII (Michael W. Deem and Ramdas Pophale) SiO2 
 PCOD9378320
Probable space group: I M A 2
;
_chemical_formula_sum "Si O2"
_cell_formula_units_Z 52
_cell_length_a 15.441042
_cell_length_b 7.008972
_cell_length_c 18.205913
_cell_angle_alpha 90.000000
_cell_angle_beta 90.000000
_cell_angle_gamma 90.000000
_cell_volume 1970.350064
_symmetry_space_group_name_H-M "I M A 2"
_symmetry_group_IT_number 46
_symmetry_cell_setting 'orthorhombic'
loop_
_space_group_symop_operation_xyz
x,y,z
-x,-y,z
1/2-x,y,z
1/2+x,-y,z
1/2+x,1/2+y,1/2+z
1/2-x,1/2-y,1/2+z
-x,1/2+y,1/2+z
x,1/2-y,1/2+z
loop_
_atom_site_type_symbol
_atom_site_label
_atom_site_fract_x
_atom_site_fract_y
_atom_site_fract_z
Si Si1 0.399533 0.002488 0.590390
Si Si2 0.900620 0.948436 0.071931
Si Si3 0.147389 0.061845 0.906963
Si Si4 0.250000 0.639909 0.983013
Si Si5 0.901412 0.495158 0.881778
Si Si6 0.846904 0.522601 0.729824
Si Si7 0.147507 0.019814 0.748877
O O1 0.375810 0.224994 0.577292
O O2 0.327374 0.887808 0.545994
O O3 0.396905 0.942410 0.675961
O O4 0.500000 0.000000 0.567586
O O5 0.856951 0.031212 0.145098
O O6 0.882399 0.001927 0.987512
O O7 0.000000 0.000000 0.083871
O O8 0.250000 0.031074 0.908528
O O9 0.132061 0.289111 0.898117
O O10 0.111705 0.978978 0.830322
O O11 0.171874 0.630846 0.920381
O O12 0.904951 0.444049 0.795271
O O13 0.000000 0.500000 0.909092
O O14 0.750000 0.478089 0.753166
O O15 0.858118 0.751316 0.736851
O O16 0.250000 0.972932 0.746928
#
# Coordination Sequence:
#
# PCOD9378320 Si02
#       7
#     8   8   8   4   8   8   8
#     4  11  22  37  61  85 113 148 188 235 282 330
#     4  11  22  34  54  85 115 145 189 234 276 332
#     4  10  18  34  56  79 109 147 192 232 276 333
#     4  12  20  34  56  88 110 146 192 236 270 346
#     4  11  19  31  54  85 111 142 186 240 280 323
#     4   9  17  32  53  77 110 146 187 228 277 332
#     4   8  16  31  54  82 104 140 189 234 268 323
#
# _framework density 26.391249999999999
#
# number of rings (size 3 to 8) (size 9 to 14) (size 15 to 20)
#    0.000    1.846    3.846    2.308    1.077    0.615 
#    0.000    0.000    3.385    0.000    0.000    0.000 
#    0.000    0.000    0.000    0.000    0.000    0.000 
#
# Total GULP energy -144911.639506 kJ/mol
# GULP energy per Si atom -5573.524596 kJ/mol
# Density = 2.633118 g / cm^3
# Si number density = 26.391250 Si / 1000 Ang^3
#
#
#
# Elastic Constant Matrix: (Units=GPa)
#
#
# Indices 1 2 3 4 5 6 
#
# 1 133.9415 -21.8563 60.7273 0.0000 0.0000 0.0000
# 2 -21.8563 108.7217 14.5903 0.0000 0.0000 0.0000
# 3 60.7273 14.5903 266.1639 0.0000 0.0000 0.0000
# 4 0.0000 0.0000 0.0000 6.6508 0.0000 0.0000
# 5 0.0000 0.0000 0.0000 0.0000 195.5404 0.0000
# 6 0.0000 0.0000 0.0000 0.0000 0.0000 -6.9142
#
#
#
# Elastic Compliance Matrix: (Units=1/GPa)
#
#
# Indices 1 2 3 4 5 6 
#
# 1 0.008756 0.002043 -0.002110 0.000000 0.000000 0.000000
# 2 0.002043 0.009743 -0.001000 0.000000 0.000000 0.000000
# 3 -0.002110 -0.001000 0.004293 0.000000 0.000000 0.000000
# 4 0.000000 0.000000 0.000000 0.150358 0.000000 0.000000
# 5 0.000000 0.000000 0.000000 0.000000 0.005114 0.000000
# 6 0.000000 0.000000 0.000000 0.000000 0.000000 -0.144631
#
#
# Mechanical properties :
#
#
# Convention : Reuss Voigt Hill
#
# Bulk Modulus (GPa) = 48.40598 68.41662 58.41130
# Shear Modulus (GPa) = 117.22505 69.41313 93.31909
#
# Velocity S-wave (km/s) = 6.67192 5.13407 5.95287
# Velocity P-wave (km/s) = 8.81670 7.81826 8.33245
#
# Compressibility (1/GPa) = 0.02065861
#
# Stress axis : x y z
#
# Youngs Moduli (GPa) = 114.20874 102.63987 232.92293
#
# Poissons Ratio (x) = -0.20973 0.49140
# Poissons Ratio (y) = -0.23337 0.23299
# Poissons Ratio (z) = 0.24095 0.10267
#
# Static dielectric constant tensor:
#      x y z
#    x 1.912640 0.000000 0.000000 
#    y 0.000000 2.170510 0.000000 
#    z 0.000000 0.000000 2.104620 
# 
# From -- ./inp_files/17172.got.cif
#   From: 2010.05.17/outbox.cif.g08.bks.cpg/sg46_9_cif.got.tgz:17172.got - 2010.06.03 19:58:25.
