data_PCOD9378041
_publ_section_title
;
Structure prediction by ZEFSAII (Michael W. Deem and Ramdas Pophale) SiO2 
 PCOD9378041
Probable space group: I M A 2
;
_chemical_formula_sum "Si O2"
_cell_formula_units_Z 48
_cell_length_a 20.878217
_cell_length_b 15.504134
_cell_length_c 8.199585
_cell_angle_alpha 90.000000
_cell_angle_beta 90.000000
_cell_angle_gamma 90.000000
_cell_volume 2654.194792
_symmetry_space_group_name_H-M "I M A 2"
_symmetry_group_IT_number 46
_symmetry_cell_setting 'orthorhombic'
loop_
_space_group_symop_operation_xyz
x,y,z
-x,-y,z
1/2-x,y,z
1/2+x,-y,z
1/2+x,1/2+y,1/2+z
1/2-x,1/2-y,1/2+z
-x,1/2+y,1/2+z
x,1/2-y,1/2+z
loop_
_atom_site_type_symbol
_atom_site_label
_atom_site_fract_x
_atom_site_fract_y
_atom_site_fract_z
Si Si1 0.084209 0.441925 0.562510
Si Si2 0.820371 0.624777 0.039776
Si Si3 0.132459 0.292260 0.355272
Si Si4 0.050440 0.622680 0.472288
Si Si5 0.050320 0.073601 0.444152
Si Si6 0.506124 0.215743 0.675036
O O1 0.128923 0.364683 0.498123
O O2 0.096740 0.543131 0.522086
O O3 0.066127 0.430745 0.751903
O O4 0.019907 0.419264 0.464911
O O5 0.750000 0.590398 0.003063
O O6 0.839390 0.703131 0.919770
O O7 0.880847 0.561337 0.029272
O O8 0.823879 0.666890 0.216840
O O9 0.062290 0.274419 0.271671
O O10 0.039484 0.697710 0.607317
O O11 0.055375 0.667530 0.296202
O O12 0.016590 0.158159 0.520778
O O13 0.000000 0.000000 0.481595
#
# Coordination Sequence:
#
# PCOD9378041 Si02
#       6
#     8   8   8   8   8   8
#     4  10  19  31  48  74 106 147 185 230 274 334
#     4  11  22  36  56  80 113 157 193 224 275 342
#     4  10  20  33  52  75 110 152 189 223 270 337
#     4  10  18  29  45  69 107 142 179 222 282 328
#     4  11  21  33  55  77 111 148 189 232 285 331
#     4  10  20  30  48  73 107 148 180 228 275 343
#
# _framework density 18.084579999999999
#
# number of rings (size 3 to 8) (size 9 to 14) (size 15 to 20)
#    0.000    1.667    1.667    7.500    7.000    0.000 
#    0.000    0.833    0.000    0.000    0.000    0.000 
#    0.000    6.667    0.000    0.000    0.000    0.000 
#
# Total GULP energy -133615.794507 kJ/mol
# GULP energy per Si atom -5567.324771 kJ/mol
# Density = 1.804342 g / cm^3
# Si number density = 18.084580 Si / 1000 Ang^3
#
#
#
# Elastic Constant Matrix: (Units=GPa)
#
#
# Indices 1 2 3 4 5 6 
#
# 1 67.8855 24.9103 11.3506 0.0000 0.0000 0.0000
# 2 24.9103 94.3315 42.1560 0.0000 0.0000 0.0000
# 3 11.3506 42.1560 75.5828 0.0000 0.0000 0.0000
# 4 0.0000 0.0000 0.0000 3.2085 0.0000 0.0000
# 5 0.0000 0.0000 0.0000 0.0000 6.3554 0.0000
# 6 0.0000 0.0000 0.0000 0.0000 0.0000 12.8235
#
#
#
# Elastic Compliance Matrix: (Units=1/GPa)
#
#
# Indices 1 2 3 4 5 6 
#
# 1 0.016311 -0.004279 -0.000063 0.000000 0.000000 0.000000
# 2 -0.004279 0.015243 -0.007859 0.000000 0.000000 0.000000
# 3 -0.000063 -0.007859 0.017623 0.000000 0.000000 0.000000
# 4 0.000000 0.000000 0.000000 0.311672 0.000000 0.000000
# 5 0.000000 0.000000 0.000000 0.000000 0.157347 0.000000
# 6 0.000000 0.000000 0.000000 0.000000 0.000000 0.077982
#
#
# Mechanical properties :
#
#
# Convention : Reuss Voigt Hill
#
# Bulk Modulus (GPa) = 40.36258 43.84818 42.10538
# Shear Modulus (GPa) = 7.95115 15.10301 11.52708
#
# Velocity S-wave (km/s) = 2.09909 2.89300 2.52741
# Velocity P-wave (km/s) = 5.31433 5.95467 5.64359
#
# Compressibility (1/GPa) = 0.02477542
#
# Stress axis : x y z
#
# Youngs Moduli (GPa) = 61.30656 65.60323 56.74293
#
# Poissons Ratio (x) = 0.28074 0.00356
# Poissons Ratio (y) = 0.26235 0.44595
# Poissons Ratio (z) = 0.00385 0.51559
#
# Static dielectric constant tensor:
#      x y z
#    x 1.647210 0.000000 0.000000 
#    y 0.000000 1.720640 0.000000 
#    z 0.000000 0.000000 1.698440 
# 
# From -- ./inp_files/7876.got.cif
#   From: 2010.05.17/outbox.cif.g08.bks.cpg/sg46_4_cif.got.tgz:7876.got - 2010.06.03 19:58:25.
