data_PCOD9378824
_publ_section_title
;
Structure prediction by ZEFSAII (Michael W. Deem and Ramdas Pophale) SiO2 
 PCOD9378824
Probable space group: I M A 2
;
_chemical_formula_sum "Si O2"
_cell_formula_units_Z 48
_cell_length_a 7.830798
_cell_length_b 23.262272
_cell_length_c 11.984157
_cell_angle_alpha 90.000000
_cell_angle_beta 90.000000
_cell_angle_gamma 90.000000
_cell_volume 2183.059842
_symmetry_space_group_name_H-M "I M A 2"
_symmetry_group_IT_number 46
_symmetry_cell_setting 'orthorhombic'
loop_
_space_group_symop_operation_xyz
x,y,z
-x,-y,z
1/2-x,y,z
1/2+x,-y,z
1/2+x,1/2+y,1/2+z
1/2-x,1/2-y,1/2+z
-x,1/2+y,1/2+z
x,1/2-y,1/2+z
loop_
_atom_site_type_symbol
_atom_site_label
_atom_site_fract_x
_atom_site_fract_y
_atom_site_fract_z
Si Si1 0.950310 0.565913 0.627230
Si Si2 0.042715 0.861081 0.325109
Si Si3 0.452193 0.565434 0.268711
Si Si4 0.442605 0.346896 0.449554
Si Si5 0.456506 0.851807 0.577950
Si Si6 0.047247 0.737878 0.261665
O O1 0.750000 0.568587 0.604731
O O2 0.027925 0.618089 0.551976
O O3 0.000000 0.500000 0.602668
O O4 0.986380 0.584064 0.754143
O O5 0.250000 0.861113 0.326175
O O6 0.980878 0.856745 0.452392
O O7 0.979981 0.802360 0.266561
O O8 0.500000 0.500000 0.280179
O O9 0.250000 0.574655 0.290218
O O10 0.554909 0.603608 0.355610
O O11 0.489514 0.590094 0.146470
O O12 0.250000 0.329305 0.478612
O O13 0.523382 0.293691 0.381718
O O14 0.250000 0.844819 0.571587
O O15 0.521173 0.800794 0.659454
O O16 0.250000 0.741309 0.244788
#
# Coordination Sequence:
#
# PCOD9378824 Si02
#       6
#     8   8   8   8   8   8
#     4  11  25  42  59  84 119 158 202 246 294 350
#     4  10  21  37  61  86 115 154 193 238 289 349
#     4  10  19  33  55  81 113 146 187 236 284 340
#     4  10  21  37  58  85 117 151 191 240 291 344
#     4   8  17  34  52  81 115 144 185 231 280 340
#     4   9  19  35  60  89 117 149 190 239 290 347
#
# _framework density 21.987485
#
# number of rings (size 3 to 8) (size 9 to 14) (size 15 to 20)
#    0.000    2.333    0.000    3.000    2.333    5.333 
#    0.000    5.833    0.000    0.000    0.000    0.000 
#    0.000    0.000    0.000    0.000    0.000    0.000 
#
# Total GULP energy -133892.339156 kJ/mol
# GULP energy per Si atom -5578.847465 kJ/mol
# Density = 2.193744 g / cm^3
# Si number density = 21.987485 Si / 1000 Ang^3
#
#
#
# Elastic Constant Matrix: (Units=GPa)
#
#
# Indices 1 2 3 4 5 6 
#
# 1 30.1351 -4.7420 -2.7965 0.0000 0.0000 0.0000
# 2 -4.7420 60.9762 5.8853 0.0000 0.0000 0.0000
# 3 -2.7965 5.8853 97.1861 -0.0001 -0.0001 -0.0001
# 4 0.0000 0.0000 -0.0001 16.3659 0.0000 0.0000
# 5 0.0000 0.0000 -0.0001 0.0000 7.1771 0.0000
# 6 0.0000 0.0000 -0.0001 0.0000 0.0000 2.9631
#
#
#
# Elastic Compliance Matrix: (Units=1/GPa)
#
#
# Indices 1 2 3 4 5 6 
#
# 1 0.033659 0.002539 0.000815 0.000000 0.000000 0.000000
# 2 0.002539 0.016688 -0.000938 0.000000 0.000000 0.000000
# 3 0.000815 -0.000938 0.010370 0.000000 0.000000 0.000000
# 4 0.000000 0.000000 0.000000 0.061103 0.000000 0.000000
# 5 0.000000 0.000000 0.000000 0.000000 0.139333 0.000001
# 6 0.000000 0.000000 0.000000 0.000000 0.000001 0.337486
#
#
# Mechanical properties :
#
#
# Convention : Reuss Voigt Hill
#
# Bulk Modulus (GPa) = 15.25575 20.55456 17.90515
# Shear Modulus (GPa) = 8.12143 17.96458 13.04301
#
# Velocity S-wave (km/s) = 1.92398 2.86149 2.43821
# Velocity P-wave (km/s) = 3.44805 4.50401 4.01093
#
# Compressibility (1/GPa) = 0.06554906
#
# Stress axis : x y z
#
# Youngs Moduli (GPa) = 29.70967 59.92413 96.43431
#
# Poissons Ratio (x) = -0.15214 -0.07857
# Poissons Ratio (y) = -0.07543 0.09041
# Poissons Ratio (z) = -0.02421 0.05618
#
# Static dielectric constant tensor:
#      x y z
#    x 1.824800 0.000000 0.000000 
#    y 0.000000 1.784990 0.000000 
#    z 0.000000 0.000000 1.836060 
# 
# From -- ./inp_files/9295.got.cif
#   From: 2010.05.17/outbox.cif.g08.bks.cpg/sg46_5_cif.got.tgz:9295.got - 2010.06.03 19:58:25.
