data_PCOD9378310
_publ_section_title
;
Structure prediction by ZEFSAII (Michael W. Deem and Ramdas Pophale) SiO2 
 PCOD9378310
Probable space group: I M A 2
;
_chemical_formula_sum "Si O2"
_cell_formula_units_Z 40
_cell_length_a 15.170351
_cell_length_b 5.287637
_cell_length_c 22.493128
_cell_angle_alpha 90.000000
_cell_angle_beta 90.000000
_cell_angle_gamma 90.000000
_cell_volume 1804.293219
_symmetry_space_group_name_H-M "I M A 2"
_symmetry_group_IT_number 46
_symmetry_cell_setting 'orthorhombic'
loop_
_space_group_symop_operation_xyz
x,y,z
-x,-y,z
1/2-x,y,z
1/2+x,-y,z
1/2+x,1/2+y,1/2+z
1/2-x,1/2-y,1/2+z
-x,1/2+y,1/2+z
x,1/2-y,1/2+z
loop_
_atom_site_type_symbol
_atom_site_label
_atom_site_fract_x
_atom_site_fract_y
_atom_site_fract_z
Si Si1 0.101934 0.083565 0.318280
Si Si2 0.604842 0.768628 0.562822
Si Si3 0.350195 0.905786 0.886436
Si Si4 0.095932 0.767620 0.012570
Si Si5 0.440821 0.248151 0.694898
O O1 0.118395 0.328914 0.358932
O O2 0.119054 0.176396 0.250946
O O3 0.148632 0.828775 0.340390
O O4 0.000000 0.000000 0.319306
O O5 0.642629 0.500669 0.544471
O O6 0.501830 0.751354 0.541403
O O7 0.606689 0.812165 0.633022
O O8 0.641537 0.003316 0.526486
O O9 0.250000 0.940271 0.907251
O O10 0.407852 0.822452 0.942884
O O11 0.500000 0.500000 0.683222
O O12 0.500000 0.000000 0.710296
#
# Coordination Sequence:
#
# PCOD9378310 Si02
#       5
#     8   8   8   8   8
#     4  11  25  40  67  98 124 162 226 267 310 372
#     4  10  18  33  59  92 122 149 202 267 318 357
#     4  12  26  44  62  90 138 177 208 255 323 384
#     4  10  20  33  57  87 122 164 198 247 317 373
#     4  11  18  36  58  93 127 152 193 276 327 358
#
# _framework density 22.169346000000001
#
# number of rings (size 3 to 8) (size 9 to 14) (size 15 to 20)
#    0.000    1.200    4.000    4.800    8.400    0.000 
#    0.000    0.000    0.000    7.200    0.000    0.000 
#    0.000    0.000    0.000    0.000    0.000    0.000 
#
# Total GULP energy -111688.944302 kJ/mol
# GULP energy per Si atom -5584.447215 kJ/mol
# Density = 2.211889 g / cm^3
# Si number density = 22.169346 Si / 1000 Ang^3
#
#
#
# Elastic Constant Matrix: (Units=GPa)
#
#
# Indices 1 2 3 4 5 6 
#
# 1 52.2335 7.4537 19.0934 0.0000 0.0000 0.0000
# 2 7.4537 187.6033 23.7838 0.0000 0.0000 0.0000
# 3 19.0934 23.7838 111.3942 0.0000 0.0000 0.0000
# 4 0.0000 0.0000 0.0000 44.8481 0.0000 0.0000
# 5 0.0000 0.0000 0.0000 0.0000 -7.3783 0.0000
# 6 0.0000 0.0000 0.0000 0.0000 0.0000 507.1996
#
#
#
# Elastic Compliance Matrix: (Units=1/GPa)
#
#
# Indices 1 2 3 4 5 6 
#
# 1 0.020451 -0.000378 -0.003425 0.000000 0.000000 0.000000
# 2 -0.000378 0.005486 -0.001106 0.000000 0.000000 0.000000
# 3 -0.003425 -0.001106 0.009800 0.000000 0.000000 0.000000
# 4 0.000000 0.000000 0.000000 0.022298 0.000000 0.000000
# 5 0.000000 0.000000 0.000000 0.000000 -0.135532 0.000000
# 6 0.000000 0.000000 0.000000 0.000000 0.000000 0.001972
#
#
# Mechanical properties :
#
#
# Convention : Reuss Voigt Hill
#
# Bulk Modulus (GPa) = 38.58317 50.21030 44.39673
# Shear Modulus (GPa) = -87.61451 128.99387 20.68968
#
# Velocity S-wave (km/s) = -6.29336 7.63623 3.05824
# Velocity P-wave (km/s) = 5.94700 10.02233 5.70439
#
# Compressibility (1/GPa) = 0.02591804
#
# Stress axis : x y z
#
# Youngs Moduli (GPa) = 48.89833 182.29233 102.03732
#
# Poissons Ratio (x) = 0.06897 0.34943
# Poissons Ratio (y) = 0.01850 0.11289
# Poissons Ratio (z) = 0.16745 0.20169
#
# Static dielectric constant tensor:
#      x y z
#    x 1.843040 0.000000 0.000000 
#    y 0.000000 1.841660 0.000000 
#    z 0.000000 0.000000 1.820930 
# 
# From -- ./inp_files/22142.got.cif
#   From: 2010.05.17/outbox.cif.g08.bks.cpg/sg46_12_cif.got.tgz:22142.got - 2010.06.03 19:58:25.
