data_PCOD9378907
_publ_section_title
;
Structure prediction by ZEFSAII (Michael W. Deem and Ramdas Pophale) SiO2 
 PCOD9378907
Probable space group: I M A 2
;
_chemical_formula_sum "Si O2"
_cell_formula_units_Z 40
_cell_length_a 17.520663
_cell_length_b 12.860628
_cell_length_c 7.269365
_cell_angle_alpha 90.000000
_cell_angle_beta 90.000000
_cell_angle_gamma 90.000000
_cell_volume 1637.982238
_symmetry_space_group_name_H-M "I M A 2"
_symmetry_group_IT_number 46
_symmetry_cell_setting 'orthorhombic'
loop_
_space_group_symop_operation_xyz
x,y,z
-x,-y,z
1/2-x,y,z
1/2+x,-y,z
1/2+x,1/2+y,1/2+z
1/2-x,1/2-y,1/2+z
-x,1/2+y,1/2+z
x,1/2-y,1/2+z
loop_
_atom_site_type_symbol
_atom_site_label
_atom_site_fract_x
_atom_site_fract_y
_atom_site_fract_z
Si Si1 0.662192 0.920332 0.611160
Si Si2 0.618434 0.154606 0.596482
Si Si3 0.836400 0.126397 0.990435
Si Si4 0.473099 0.379269 0.861666
Si Si5 0.075281 0.060685 0.991193
O O1 0.750000 0.887492 0.608592
O O2 0.657708 0.043595 0.553434
O O3 0.624326 0.906198 0.814392
O O4 0.604940 0.864524 0.471947
O O5 0.609845 0.140332 0.813844
O O6 0.664049 0.262488 0.585954
O O7 0.543672 0.169415 0.472302
O O8 0.750000 0.100807 0.933088
O O9 0.871858 0.027234 0.092343
O O10 0.500000 0.500000 0.867024
O O11 0.454509 0.360100 0.646948
O O12 0.000000 0.000000 0.924891
#
# Coordination Sequence:
#
# PCOD9378907 Si02
#       5
#     8   8   8   8   8
#     4  10  19  34  55  82 115 151 198 256 305 356
#     4  10  21  36  52  86 129 162 200 244 315 382
#     4  11  22  35  57  92 132 164 196 253 319 378
#     4   9  20  36  54  78 115 163 207 241 287 370
#     4  10  20  35  55  78 117 158 206 244 288 368
#
# _framework density 24.420290999999999
#
# number of rings (size 3 to 8) (size 9 to 14) (size 15 to 20)
#    0.000    2.000    0.000    6.600    8.400    1.600 
#    0.000    0.000    0.000    0.000    0.000    7.000 
#    0.000    0.000    0.000    0.000    0.000    0.000 
#
# Total GULP energy -111588.776322 kJ/mol
# GULP energy per Si atom -5579.438816 kJ/mol
# Density = 2.436471 g / cm^3
# Si number density = 24.420291 Si / 1000 Ang^3
#
#
#
# Elastic Constant Matrix: (Units=GPa)
#
#
# Indices 1 2 3 4 5 6 
#
# 1 187.5394 9.1029 74.9140 0.0000 0.0000 0.0000
# 2 9.1029 49.4006 5.3371 0.0000 0.0000 0.0000
# 3 74.9140 5.3371 103.5852 0.0000 0.0000 0.0000
# 4 0.0000 0.0000 0.0000 20.5941 0.0000 0.0000
# 5 0.0000 0.0000 0.0000 0.0000 20.6430 0.0000
# 6 0.0000 0.0000 0.0000 0.0000 0.0000 27.1926
#
#
#
# Elastic Compliance Matrix: (Units=1/GPa)
#
#
# Indices 1 2 3 4 5 6 
#
# 1 0.007530 -0.000804 -0.005404 0.000000 0.000000 0.000000
# 2 -0.000804 0.020442 -0.000472 0.000000 0.000000 0.000000
# 3 -0.005404 -0.000472 0.013587 0.000000 0.000000 0.000000
# 4 0.000000 0.000000 0.000000 0.048558 0.000000 0.000000
# 5 0.000000 0.000000 0.000000 0.000000 0.048443 0.000000
# 6 0.000000 0.000000 0.000000 0.000000 0.000000 0.036775
#
#
# Mechanical properties :
#
#
# Convention : Reuss Voigt Hill
#
# Bulk Modulus (GPa) = 35.46307 57.69258 46.57783
# Shear Modulus (GPa) = 25.24068 30.43070 27.83569
#
# Velocity S-wave (km/s) = 3.21844 3.53388 3.37984
# Velocity P-wave (km/s) = 5.32585 6.35037 5.86054
#
# Compressibility (1/GPa) = 0.02819834
#
# Stress axis : x y z
#
# Youngs Moduli (GPa) = 132.80125 48.91950 73.60120
#
# Poissons Ratio (x) = 0.03931 0.39777
# Poissons Ratio (y) = 0.10673 0.03474
# Poissons Ratio (z) = 0.71771 0.02309
#
# Static dielectric constant tensor:
#      x y z
#    x 1.946460 0.000000 0.000000 
#    y 0.000000 2.023850 0.000000 
#    z 0.000000 0.000000 1.981920 
# 
# From -- ./inp_files/5410.got.cif
#   From: 2010.05.17/outbox.cif.g08.bks.cpg/sg46_3_cif.got.tgz:5410.got - 2010.06.03 19:58:25.
