data_PCOD9378607
_publ_section_title
;
Structure prediction by ZEFSAII (Michael W. Deem and Ramdas Pophale) SiO2 
 PCOD9378607
Probable space group: I M A 2
;
_chemical_formula_sum "Si O2"
_cell_formula_units_Z 48
_cell_length_a 8.838115
_cell_length_b 33.484902
_cell_length_c 7.422675
_cell_angle_alpha 90.000000
_cell_angle_beta 90.000000
_cell_angle_gamma 90.000000
_cell_volume 2196.691785
_symmetry_space_group_name_H-M "I M A 2"
_symmetry_group_IT_number 46
_symmetry_cell_setting 'orthorhombic'
loop_
_space_group_symop_operation_xyz
x,y,z
-x,-y,z
1/2-x,y,z
1/2+x,-y,z
1/2+x,1/2+y,1/2+z
1/2-x,1/2-y,1/2+z
-x,1/2+y,1/2+z
x,1/2-y,1/2+z
loop_
_atom_site_type_symbol
_atom_site_label
_atom_site_fract_x
_atom_site_fract_y
_atom_site_fract_z
Si Si1 0.572183 0.377772 0.895210
Si Si2 0.075160 0.458927 0.899376
Si Si3 0.074527 0.212748 0.979838
Si Si4 0.933831 0.873822 0.994463
Si Si5 0.425532 0.040767 0.959914
Si Si6 0.071528 0.792221 0.354307
O O1 0.750000 0.385320 0.902723
O O2 0.490770 0.417075 0.967930
O O3 0.519275 0.374379 0.686101
O O4 0.543823 0.332820 0.967640
O O5 0.250000 0.460324 0.943159
O O6 0.059971 0.458413 0.679577
O O7 0.000000 0.500000 0.961441
O O8 0.250000 0.222142 0.939438
O O9 0.036207 0.168841 0.901719
O O10 0.047476 0.206416 0.191435
O O11 0.964831 0.249464 0.938565
O O12 0.750000 0.875481 0.024701
O O13 0.980259 0.915313 0.900371
O O14 0.250000 0.038120 0.915502
O O15 0.500000 0.000000 0.895820
O O16 0.250000 0.793835 0.300122
#
# Coordination Sequence:
#
# PCOD9378607 Si02
#       6
#     8   8   8   8   8   8
#     4   9  16  25  38  56  80 111 144 177 219 269
#     4   9  15  22  33  50  75 106 140 176 214 259
#     4  10  19  32  50  69  90 121 160 196 231 276
#     4   8  15  26  38  54  79 110 143 180 220 261
#     4   8  13  20  30  47  72 102 134 168 207 252
#     4  10  20  33  48  68  95 124 154 193 239 281
#
# _framework density 21.851040999999999
#
# number of rings (size 3 to 8) (size 9 to 14) (size 15 to 20)
#    0.000    3.000    0.000    3.000    0.000    6.667 
#    0.000    0.000    0.000    0.000    0.000    0.000 
#    0.000    1.333    0.000   12.333    0.000    9.500 
#
# Total GULP energy -133638.629157 kJ/mol
# GULP energy per Si atom -5568.276215 kJ/mol
# Density = 2.180131 g / cm^3
# Si number density = 21.851041 Si / 1000 Ang^3
#
#
#
# Elastic Constant Matrix: (Units=GPa)
#
#
# Indices 1 2 3 4 5 6 
#
# 1 55.1350 77.1926 3.0630 0.0012 0.0002 0.0000
# 2 77.1926 256.9215 5.3603 -0.0009 -0.0002 -0.0001
# 3 3.0630 5.3603 41.2683 0.0023 -0.0019 -0.0001
# 4 0.0012 -0.0009 0.0023 1.0387 -0.0006 -0.0001
# 5 0.0002 -0.0002 -0.0019 -0.0006 2.7580 -0.0004
# 6 0.0000 -0.0001 -0.0001 -0.0001 -0.0004 39.6088
#
#
#
# Elastic Compliance Matrix: (Units=1/GPa)
#
#
# Indices 1 2 3 4 5 6 
#
# 1 0.031357 -0.009398 -0.001107 -0.000041 -0.000004 0.000000
# 2 -0.009398 0.006720 -0.000175 0.000017 0.000001 0.000000
# 3 -0.001107 -0.000175 0.024337 -0.000053 0.000017 0.000000
# 4 -0.000041 0.000017 -0.000053 0.962741 0.000209 0.000003
# 5 -0.000004 0.000001 0.000017 0.000209 0.362576 0.000004
# 6 0.000000 0.000000 0.000000 0.000003 0.000004 0.025247
#
#
# Mechanical properties :
#
#
# Convention : Reuss Voigt Hill
#
# Bulk Modulus (GPa) = 24.35881 58.28405 41.32143
# Shear Modulus (GPa) = 3.45299 26.52837 14.99068
#
# Velocity S-wave (km/s) = 1.25844 3.48811 2.62208
# Velocity P-wave (km/s) = 3.64464 6.55392 5.30270
#
# Compressibility (1/GPa) = 0.04105290
#
# Stress axis : x y z
#
# Youngs Moduli (GPa) = 31.89105 148.81891 41.09036
#
# Poissons Ratio (x) = 1.39862 0.04547
# Poissons Ratio (y) = 0.29972 0.00720
# Poissons Ratio (z) = 0.03529 0.02608
#
# Static dielectric constant tensor:
#      x y z
#    x 1.736330 0.000000 -0.000010 
#    y 0.000000 1.926760 0.000000 
#    z -0.000010 0.000000 1.931800 
# 
# From -- ./inp_files/9395.got.cif
#   From: 2010.05.17/outbox.cif.g08.bks.cpg/sg46_5_cif.got.tgz:9395.got - 2010.06.03 19:58:25.
