data_PCOD9378821
_publ_section_title
;
Structure prediction by ZEFSAII (Michael W. Deem and Ramdas Pophale) SiO2 
 PCOD9378821
Probable space group: I M A 2
;
_chemical_formula_sum "Si O2"
_cell_formula_units_Z 48
_cell_length_a 9.286457
_cell_length_b 22.921723
_cell_length_c 11.693320
_cell_angle_alpha 90.000000
_cell_angle_beta 90.000000
_cell_angle_gamma 90.000000
_cell_volume 2489.058746
_symmetry_space_group_name_H-M "I M A 2"
_symmetry_group_IT_number 46
_symmetry_cell_setting 'orthorhombic'
loop_
_space_group_symop_operation_xyz
x,y,z
-x,-y,z
1/2-x,y,z
1/2+x,-y,z
1/2+x,1/2+y,1/2+z
1/2-x,1/2-y,1/2+z
-x,1/2+y,1/2+z
x,1/2-y,1/2+z
loop_
_atom_site_type_symbol
_atom_site_label
_atom_site_fract_x
_atom_site_fract_y
_atom_site_fract_z
Si Si1 0.921431 0.638093 0.831230
Si Si2 0.913541 0.349441 0.205258
Si Si3 0.576056 0.438257 0.005507
Si Si4 0.922512 0.768214 0.870529
Si Si5 0.420204 0.361987 0.561320
Si Si6 0.411957 0.944997 0.906037
O O1 0.750000 0.627992 0.851586
O O2 0.963860 0.700892 0.883342
O O3 0.942995 0.644886 0.695533
O O4 0.014487 0.586850 0.886665
O O5 0.750000 0.329019 0.183052
O O6 0.909032 0.396442 0.307948
O O7 0.008628 0.297662 0.257708
O O8 0.963823 0.387683 0.097476
O O9 0.500000 0.500000 0.031668
O O10 0.750000 0.444519 0.006537
O O11 0.750000 0.769967 0.857055
O O12 0.960951 0.806337 0.982484
O O13 0.250000 0.371618 0.542115
O O14 0.508509 0.416336 0.513136
O O15 0.250000 0.962192 0.934579
O O16 0.500000 0.000000 0.863294
#
# Coordination Sequence:
#
# PCOD9378821 Si02
#       6
#     8   8   8   8   8   8
#     4  10  22  38  59  85 115 152 192 238 287 345
#     4   9  20  37  57  85 117 148 187 236 289 341
#     4  11  24  41  60  85 118 158 200 243 291 348
#     4   9  19  35  60  88 114 147 189 236 288 343
#     4   9  19  36  54  80 113 144 184 230 280 338
#     4  10  19  33  55  81 109 143 183 229 280 333
#
# _framework density 19.284397999999999
#
# number of rings (size 3 to 8) (size 9 to 14) (size 15 to 20)
#    0.000    2.333    0.000    1.500    2.333    4.000 
#    0.000    0.000    0.000    0.000    0.000    0.000 
#    0.000    0.000    0.000    0.000    0.000    0.000 
#
# Total GULP energy -133885.284475 kJ/mol
# GULP energy per Si atom -5578.553520 kJ/mol
# Density = 1.924051 g / cm^3
# Si number density = 19.284398 Si / 1000 Ang^3
#
#
#
# Elastic Constant Matrix: (Units=GPa)
#
#
# Indices 1 2 3 4 5 6 
#
# 1 37.8643 21.4507 28.0613 0.0001 0.0000 0.0001
# 2 21.4507 53.8278 10.6958 0.0001 0.0000 0.0001
# 3 28.0613 10.6958 64.5355 -0.0004 -0.0003 -0.0005
# 4 0.0001 0.0001 -0.0004 20.6878 0.0001 -0.0002
# 5 0.0000 0.0000 -0.0003 0.0001 22.7431 0.0001
# 6 0.0001 0.0001 -0.0005 -0.0002 0.0001 20.1390
#
#
#
# Elastic Compliance Matrix: (Units=1/GPa)
#
#
# Indices 1 2 3 4 5 6 
#
# 1 0.049405 -0.015945 -0.018840 0.000000 0.000000 -0.000001
# 2 -0.015945 0.024356 0.002896 0.000000 0.000000 0.000000
# 3 -0.018840 0.002896 0.023207 0.000001 0.000000 0.000001
# 4 0.000000 0.000000 0.000001 0.048338 0.000000 0.000000
# 5 0.000000 0.000000 0.000000 0.000000 0.043969 0.000000
# 6 -0.000001 0.000000 0.000001 0.000000 0.000000 0.049655
#
#
# Mechanical properties :
#
#
# Convention : Reuss Voigt Hill
#
# Bulk Modulus (GPa) = 30.12727 30.73814 30.43270
# Shear Modulus (GPa) = 15.93518 19.11530 17.52524
#
# Velocity S-wave (km/s) = 2.87771 3.15180 3.01786
# Velocity P-wave (km/s) = 5.16702 5.40547 5.28759
#
# Compressibility (1/GPa) = 0.03319252
#
# Stress axis : x y z
#
# Youngs Moduli (GPa) = 20.24075 41.05710 43.09003
#
# Poissons Ratio (x) = 0.65465 0.81181
# Poissons Ratio (y) = 0.32273 -0.12481
# Poissons Ratio (z) = 0.38133 -0.11892
#
# Static dielectric constant tensor:
#      x y z
#    x 1.668630 0.000000 0.000000 
#    y 0.000000 1.665040 0.000000 
#    z 0.000000 0.000000 1.678020 
# 
# From -- ./inp_files/9281.got.cif
#   From: 2010.05.17/outbox.cif.g08.bks.cpg/sg46_5_cif.got.tgz:9281.got - 2010.06.03 19:58:25.
