data_PCOD9378681
_publ_section_title
;
Structure prediction by ZEFSAII (Michael W. Deem and Ramdas Pophale) SiO2 
 PCOD9378681
Probable space group: I M A 2
;
_chemical_formula_sum "Si O2"
_cell_formula_units_Z 64
_cell_length_a 9.544994
_cell_length_b 24.234616
_cell_length_c 13.800565
_cell_angle_alpha 90.000000
_cell_angle_beta 90.000000
_cell_angle_gamma 90.000000
_cell_volume 3192.336543
_symmetry_space_group_name_H-M "I M A 2"
_symmetry_group_IT_number 46
_symmetry_cell_setting 'orthorhombic'
loop_
_space_group_symop_operation_xyz
x,y,z
-x,-y,z
1/2-x,y,z
1/2+x,-y,z
1/2+x,1/2+y,1/2+z
1/2-x,1/2-y,1/2+z
-x,1/2+y,1/2+z
x,1/2-y,1/2+z
loop_
_atom_site_type_symbol
_atom_site_label
_atom_site_fract_x
_atom_site_fract_y
_atom_site_fract_z
Si Si1 0.083786 0.147722 0.205170
Si Si2 0.407781 0.450285 0.042155
Si Si3 0.586616 0.158446 0.742486
Si Si4 0.417291 0.728611 0.830382
Si Si5 0.582872 0.942777 0.043119
Si Si6 0.417601 0.057189 0.818052
Si Si7 0.414132 0.661398 0.024209
Si Si8 0.599933 0.544488 0.816248
O O1 0.250000 0.160711 0.198915
O O2 0.045861 0.108769 0.113654
O O3 0.057064 0.106202 0.295361
O O4 0.995128 0.199533 0.240035
O O5 0.500000 0.500000 0.086011
O O6 0.250000 0.445068 0.082790
O O7 0.492719 0.393581 0.032830
O O8 0.388698 0.465967 0.929292
O O9 0.750000 0.141151 0.754162
O O10 0.553698 0.206273 0.819881
O O11 0.485500 0.106135 0.755032
O O12 0.575964 0.184088 0.634056
O O13 0.250000 0.721399 0.819137
O O14 0.455259 0.701647 0.935186
O O15 0.750000 0.952337 0.052444
O O16 0.500000 0.000000 0.060690
O O17 0.557182 0.927648 0.930979
O O18 0.250000 0.051304 0.804653
O O19 0.500000 0.000000 0.802059
O O20 0.250000 0.646263 0.008112
O O21 0.500000 0.500000 0.772314
O O22 0.750000 0.537810 0.769246
#
# Coordination Sequence:
#
# PCOD9378681 Si02
#       8
#     8   8   8   8   8   8   8   8
#     4  10  19  33  52  79 117 156 193 236 283 335
#     4  10  19  32  52  81 114 151 193 234 282 337
#     4  10  23  42  63  88 116 149 190 237 289 345
#     4  10  22  39  59  84 114 152 195 240 287 339
#     4   9  19  34  55  85 120 155 194 239 289 343
#     4  10  21  40  65  92 119 150 189 237 291 345
#     4  10  21  39  60  83 115 152 192 238 289 346
#     4   9  17  27  43  70 105 145 185 225 269 322
#
# _framework density 20.048012
#
# number of rings (size 3 to 8) (size 9 to 14) (size 15 to 20)
#    0.000    2.250    1.250    1.125    0.000    4.500 
#    0.000    1.250    0.000    0.000    0.000    0.000 
#    0.000    0.000    0.000    0.000    0.000    0.000 
#
# Total GULP energy -178245.704581 kJ/mol
# GULP energy per Si atom -5570.178268 kJ/mol
# Density = 2.000238 g / cm^3
# Si number density = 20.048012 Si / 1000 Ang^3
#
#
#
# Elastic Constant Matrix: (Units=GPa)
#
#
# Indices 1 2 3 4 5 6 
#
# 1 69.0591 68.5756 23.7272 0.0000 0.0000 0.0000
# 2 68.5756 109.1108 29.3410 0.0000 0.0000 0.0000
# 3 23.7272 29.3410 120.8230 -0.0002 0.0000 0.0000
# 4 0.0000 0.0000 -0.0002 24.5540 0.0000 0.0000
# 5 0.0000 0.0000 0.0000 0.0000 32.4464 0.0000
# 6 0.0000 0.0000 0.0000 0.0000 0.0000 29.4122
#
#
#
# Elastic Compliance Matrix: (Units=1/GPa)
#
#
# Indices 1 2 3 4 5 6 
#
# 1 0.038892 -0.023954 -0.001821 0.000000 0.000000 0.000000
# 2 -0.023954 0.024559 -0.001260 0.000000 0.000000 0.000000
# 3 -0.001821 -0.001260 0.008940 0.000000 0.000000 0.000000
# 4 0.000000 0.000000 0.000000 0.040727 0.000000 0.000000
# 5 0.000000 0.000000 0.000000 0.000000 0.030820 0.000000
# 6 0.000000 0.000000 0.000000 0.000000 0.000000 0.033999
#
#
# Mechanical properties :
#
#
# Convention : Reuss Voigt Hill
#
# Bulk Modulus (GPa) = 54.57877 60.25340 57.41608
# Shear Modulus (GPa) = 20.99842 29.10579 25.05211
#
# Velocity S-wave (km/s) = 3.23988 3.81439 3.53881
# Velocity P-wave (km/s) = 6.42486 7.03699 6.73788
#
# Compressibility (1/GPa) = 0.01832214
#
# Stress axis : x y z
#
# Youngs Moduli (GPa) = 25.71216 40.71871 111.85630
#
# Poissons Ratio (x) = 0.97537 0.20364
# Poissons Ratio (y) = 0.61591 0.14092
# Poissons Ratio (z) = 0.04681 0.05130
#
# Static dielectric constant tensor:
#      x y z
#    x 1.438640 0.000000 0.000000 
#    y 0.000000 1.672320 0.000000 
#    z 0.000000 0.000000 1.766690 
# 
# From -- ./inp_files/14553.got.cif
#   From: 2010.05.17/outbox.cif.g08.bks.cpg/sg46_8_cif.got.tgz:14553.got - 2010.06.03 19:58:25.
