data_PCOD9378186
_publ_section_title
;
Structure prediction by ZEFSAII (Michael W. Deem and Ramdas Pophale) SiO2 
 PCOD9378186
Probable space group: I M A 2
;
_chemical_formula_sum "Si O2"
_cell_formula_units_Z 48
_cell_length_a 10.474886
_cell_length_b 29.747871
_cell_length_c 8.282452
_cell_angle_alpha 90.000000
_cell_angle_beta 90.000000
_cell_angle_gamma 90.000000
_cell_volume 2580.858073
_symmetry_space_group_name_H-M "I M A 2"
_symmetry_group_IT_number 46
_symmetry_cell_setting 'orthorhombic'
loop_
_space_group_symop_operation_xyz
x,y,z
-x,-y,z
1/2-x,y,z
1/2+x,-y,z
1/2+x,1/2+y,1/2+z
1/2-x,1/2-y,1/2+z
-x,1/2+y,1/2+z
x,1/2-y,1/2+z
loop_
_atom_site_type_symbol
_atom_site_label
_atom_site_fract_x
_atom_site_fract_y
_atom_site_fract_z
Si Si1 0.104248 0.307597 0.880610
Si Si2 0.598978 0.896023 0.827211
Si Si3 0.887067 0.180285 0.823110
Si Si4 0.027624 0.755878 0.099133
Si Si5 0.902914 0.540889 0.642002
Si Si6 0.903158 0.591856 0.970916
O O1 0.250000 0.312759 0.827175
O O2 0.059843 0.356001 0.944558
O O3 0.018344 0.289370 0.737009
O O4 0.092104 0.268746 0.014455
O O5 0.750000 0.883222 0.816266
O O6 0.506201 0.853208 0.834420
O O7 0.563770 0.920508 0.656432
O O8 0.584423 0.925311 0.989386
O O9 0.750000 0.156508 0.823088
O O10 0.897551 0.213584 0.671204
O O11 0.897184 0.214673 0.971609
O O12 0.750000 0.529128 0.650566
O O13 0.942771 0.563498 0.813815
O O14 0.000000 0.500000 0.614921
O O15 0.750000 0.590218 0.965162
#
# Coordination Sequence:
#
# PCOD9378186 Si02
#       6
#     8   8   8   8   8   8
#     4  10  18  31  52  82 113 146 193 242 285 333
#     4  10  21  39  62  86 115 151 190 240 291 339
#     4  11  22  37  54  78 115 158 198 239 286 340
#     4  10  21  32  50  77 113 156 197 239 286 333
#     4  10  22  40  63  88 116 145 181 230 291 356
#     4   9  18  35  57  83 116 148 182 230 288 339
#
# _framework density 18.598465999999998
#
# number of rings (size 3 to 8) (size 9 to 14) (size 15 to 20)
#    0.000    2.000    1.667    2.000    0.000    6.000 
#    0.000    0.833    0.000    0.000    0.000    0.000 
#    0.000    0.000    0.000    0.000    0.000    0.000 
#
# Total GULP energy -133668.354390 kJ/mol
# GULP energy per Si atom -5569.514766 kJ/mol
# Density = 1.855614 g / cm^3
# Si number density = 18.598466 Si / 1000 Ang^3
#
#
#
# Elastic Constant Matrix: (Units=GPa)
#
#
# Indices 1 2 3 4 5 6 
#
# 1 86.0402 44.6380 35.9373 0.0000 0.0021 0.0002
# 2 44.6380 66.2223 42.6916 0.0007 0.0024 -0.0005
# 3 35.9373 42.6916 111.9175 -0.0024 -0.0053 0.0022
# 4 0.0000 0.0007 -0.0024 25.8218 0.0004 -0.0007
# 5 0.0021 0.0024 -0.0053 0.0004 -1.0557 -0.0023
# 6 0.0002 -0.0005 0.0022 -0.0007 -0.0023 24.7802
#
#
#
# Elastic Compliance Matrix: (Units=1/GPa)
#
#
# Indices 1 2 3 4 5 6 
#
# 1 0.018069 -0.011191 -0.001533 0.000000 0.000018 0.000000
# 2 -0.011191 0.026957 -0.006689 -0.000001 0.000073 0.000001
# 3 -0.001533 -0.006689 0.011979 0.000001 -0.000078 -0.000001
# 4 0.000000 -0.000001 0.000001 0.038727 0.000014 0.000001
# 5 0.000018 0.000073 -0.000078 0.000014 -0.947221 -0.000089
# 6 0.000000 0.000001 -0.000001 0.000001 -0.000089 0.040355
#
#
# Mechanical properties :
#
#
# Convention : Reuss Voigt Hill
#
# Bulk Modulus (GPa) = 55.01288 56.74598 55.87943
# Shear Modulus (GPa) = -6.52530 19.30346 6.38908
#
# Velocity S-wave (km/s) = -1.87513 3.22515 1.85546
# Velocity P-wave (km/s) = 4.99553 6.66679 5.89073
#
# Compressibility (1/GPa) = 0.01817756
#
# Stress axis : x y z
#
# Youngs Moduli (GPa) = 55.34388 37.09667 83.47909
#
# Poissons Ratio (x) = 0.41516 0.12798
# Poissons Ratio (y) = 0.61937 0.55841
# Poissons Ratio (z) = 0.08484 0.24815
#
# Static dielectric constant tensor:
#      x y z
#    x 1.650510 0.000000 0.000000 
#    y 0.000000 1.613890 0.000000 
#    z 0.000000 0.000000 1.710770 
# 
# From -- ./inp_files/3943.got.cif
#   From: 2010.05.17/outbox.cif.g08.bks.cpg/sg46_2_cif.got.tgz:3943.got - 2010.06.03 19:58:25.
