data_PCOD9378158
_publ_section_title
;
Structure prediction by ZEFSAII (Michael W. Deem and Ramdas Pophale) SiO2 
 PCOD9378158
Probable space group: I M A 2
;
_chemical_formula_sum "Si O2"
_cell_formula_units_Z 64
_cell_length_a 13.921889
_cell_length_b 28.142586
_cell_length_c 10.199751
_cell_angle_alpha 90.000000
_cell_angle_beta 90.000000
_cell_angle_gamma 90.000000
_cell_volume 3996.241619
_symmetry_space_group_name_H-M "I M A 2"
_symmetry_group_IT_number 46
_symmetry_cell_setting 'orthorhombic'
loop_
_space_group_symop_operation_xyz
x,y,z
-x,-y,z
1/2-x,y,z
1/2+x,-y,z
1/2+x,1/2+y,1/2+z
1/2-x,1/2-y,1/2+z
-x,1/2+y,1/2+z
x,1/2-y,1/2+z
loop_
_atom_site_type_symbol
_atom_site_label
_atom_site_fract_x
_atom_site_fract_y
_atom_site_fract_z
Si Si1 0.133590 0.101911 0.386320
Si Si2 0.134218 0.035798 0.624542
Si Si3 0.141341 0.526285 0.559713
Si Si4 0.454994 0.387576 0.319038
Si Si5 0.639002 0.440308 0.259078
Si Si6 0.865875 0.792121 0.459917
Si Si7 0.950842 0.924581 0.110281
Si Si8 0.366304 0.285920 0.253376
O O1 0.250000 0.100450 0.377028
O O2 0.103965 0.059921 0.486953
O O3 0.104219 0.153148 0.444154
O O4 0.089515 0.097889 0.242187
O O5 0.250000 0.035330 0.625090
O O6 0.101627 0.071075 0.740735
O O7 0.105907 0.981497 0.657930
O O8 0.250000 0.534919 0.603082
O O9 0.135849 0.535395 0.403356
O O10 0.109722 0.472644 0.586679
O O11 0.061743 0.559721 0.624999
O O12 0.564357 0.397249 0.271594
O O13 0.445178 0.395372 0.475142
O O14 0.413436 0.336420 0.284857
O O15 0.750000 0.427258 0.232750
O O16 0.750000 0.793060 0.450312
O O17 0.899509 0.755801 0.349433
O O18 0.890006 0.773689 0.603774
O O19 0.250000 0.291032 0.263983
#
# Coordination Sequence:
#
# PCOD9378158 Si02
#       8
#     8   8   8   8   8   8   8   8
#     4  10  20  33  47  70 105 134 161 202 245 291
#     4  10  18  31  50  71 101 135 163 197 246 293
#     4   9  17  32  48  67  99 129 164 209 238 276
#     4  11  19  31  51  75  96 128 171 206 238 298
#     4   9  18  32  51  72  96 129 168 212 247 284
#     4   9  19  34  48  69 101 130 158 197 246 297
#     4  10  20  30  47  73  95 130 171 197 239 292
#     4  10  20  33  50  73  99 129 162 199 247 299
#
# _framework density 16.015046000000002
#
# number of rings (size 3 to 8) (size 9 to 14) (size 15 to 20)
#    0.000    2.250    2.500    1.125    1.750    1.500 
#    4.500    0.000    0.000    0.000    0.000    1.750 
#    0.000    0.000    0.000    0.000    0.000    0.000 
#
# Total GULP energy -178343.121850 kJ/mol
# GULP energy per Si atom -5573.222558 kJ/mol
# Density = 1.597860 g / cm^3
# Si number density = 16.015046 Si / 1000 Ang^3
#
#
#
# Elastic Constant Matrix: (Units=GPa)
#
#
# Indices 1 2 3 4 5 6 
#
# 1 49.3199 15.9115 29.8758 0.0003 0.0000 0.0000
# 2 15.9115 49.7043 36.9045 0.0001 0.0000 0.0000
# 3 29.8758 36.9045 98.6570 0.0003 -0.0001 0.0000
# 4 0.0003 0.0001 0.0003 21.6159 0.0000 0.0000
# 5 0.0000 0.0000 -0.0001 0.0000 15.5491 0.0000
# 6 0.0000 0.0000 0.0000 0.0000 0.0000 19.6917
#
#
#
# Elastic Compliance Matrix: (Units=1/GPa)
#
#
# Indices 1 2 3 4 5 6 
#
# 1 0.025222 -0.003327 -0.006393 0.000000 0.000000 0.000000
# 2 -0.003327 0.028294 -0.009577 0.000000 0.000000 0.000000
# 3 -0.006393 -0.009577 0.015654 0.000000 0.000000 0.000000
# 4 0.000000 0.000000 0.000000 0.046262 0.000000 0.000000
# 5 0.000000 0.000000 0.000000 0.000000 0.064313 0.000000
# 6 0.000000 0.000000 0.000000 0.000000 0.000000 0.050783
#
#
# Mechanical properties :
#
#
# Convention : Reuss Voigt Hill
#
# Bulk Modulus (GPa) = 32.70446 40.34054 36.52250
# Shear Modulus (GPa) = 17.90095 19.03729 18.46912
#
# Velocity S-wave (km/s) = 3.34692 3.45151 3.39962
# Velocity P-wave (km/s) = 5.94989 6.41309 6.18583
#
# Compressibility (1/GPa) = 0.03057687
#
# Stress axis : x y z
#
# Youngs Moduli (GPa) = 39.64803 35.34260 63.87966
#
# Poissons Ratio (x) = 0.11759 0.40840
# Poissons Ratio (y) = 0.13192 0.61174
# Poissons Ratio (z) = 0.25348 0.33846
#
# Static dielectric constant tensor:
#      x y z
#    x 1.547680 0.000000 0.000000 
#    y 0.000000 1.518240 0.000000 
#    z 0.000000 0.000000 1.545930 
# 
# From -- ./inp_files/6119.got.cif
#   From: 2010.05.17/outbox.cif.g08.bks.cpg/sg46_4_cif.got.tgz:6119.got - 2010.06.03 19:58:25.
