data_PCOD9378958
_publ_section_title
;
Structure prediction by ZEFSAII (Michael W. Deem and Ramdas Pophale) SiO2 
 PCOD9378958
Probable space group: I M A 2
;
_chemical_formula_sum "Si O2"
_cell_formula_units_Z 64
_cell_length_a 16.998974
_cell_length_b 9.015557
_cell_length_c 21.840936
_cell_angle_alpha 90.000000
_cell_angle_beta 90.000000
_cell_angle_gamma 90.000000
_cell_volume 3347.237431
_symmetry_space_group_name_H-M "I M A 2"
_symmetry_group_IT_number 46
_symmetry_cell_setting 'orthorhombic'
loop_
_space_group_symop_operation_xyz
x,y,z
-x,-y,z
1/2-x,y,z
1/2+x,-y,z
1/2+x,1/2+y,1/2+z
1/2-x,1/2-y,1/2+z
-x,1/2+y,1/2+z
x,1/2-y,1/2+z
loop_
_atom_site_type_symbol
_atom_site_label
_atom_site_fract_x
_atom_site_fract_y
_atom_site_fract_z
Si Si1 0.086941 0.568065 0.951920
Si Si2 0.586066 0.424858 0.084762
Si Si3 0.913494 0.430322 0.580873
Si Si4 0.843443 0.592066 0.697601
Si Si5 0.155893 0.425442 0.202303
Si Si6 0.909292 0.054931 0.319231
Si Si7 0.085559 0.575394 0.445836
Si Si8 0.655807 0.116240 0.819198
O O1 0.123791 0.517198 0.887450
O O2 0.077609 0.745883 0.948214
O O3 0.000000 0.500000 0.953614
O O4 0.123242 0.534054 0.018308
O O5 0.500000 0.500000 0.087404
O O6 0.580866 0.246989 0.087125
O O7 0.633039 0.482415 0.142754
O O8 0.869685 0.499431 0.638587
O O9 0.880429 0.466688 0.512760
O O10 0.000000 0.500000 0.581374
O O11 0.750000 0.598899 0.696652
O O12 0.876680 0.759298 0.695703
O O13 0.869347 0.519958 0.761268
O O14 0.250000 0.416135 0.205673
O O15 0.131059 0.507335 0.264467
O O16 0.893291 0.231050 0.312990
O O17 0.000000 0.000000 0.318795
O O18 0.136712 0.546101 0.385512
O O19 0.000000 0.500000 0.439299
O O20 0.750000 0.147200 0.814895
#
# Coordination Sequence:
#
# PCOD9378958 Si02
#       8
#     8   8   8   8   8   8   8   8
#     4   8  17  33  53  81 109 135 172 222 273 326
#     4  10  19  34  58  82 106 140 179 222 272 327
#     4  10  20  36  57  84 113 143 183 229 279 334
#     4  11  23  38  55  78 111 149 190 235 281 334
#     4  10  23  39  52  74 109 146 184 226 274 329
#     4  10  20  36  58  83 110 142 183 232 283 339
#     4   9  19  34  56  84 111 142 182 229 277 334
#     4  10  21  38  58  82 115 151 188 233 286 341
#
# _framework density 19.120245000000001
#
# number of rings (size 3 to 8) (size 9 to 14) (size 15 to 20)
#    0.000    2.250    0.000    2.250    0.000    7.500 
#    0.000    5.625    0.000    3.000    0.000    0.000 
#    0.000    0.000    0.000    0.000    0.000    0.000 
#
# Total GULP energy -178352.726998 kJ/mol
# GULP energy per Si atom -5573.522719 kJ/mol
# Density = 1.907673 g / cm^3
# Si number density = 19.120245 Si / 1000 Ang^3
#
#
#
# Elastic Constant Matrix: (Units=GPa)
#
#
# Indices 1 2 3 4 5 6 
#
# 1 28.4037 21.2281 34.1086 0.0000 0.0000 0.0000
# 2 21.2281 82.1040 80.2751 0.0000 0.0000 0.0000
# 3 34.1086 80.2751 212.8036 0.0000 0.0000 0.0000
# 4 0.0000 0.0000 0.0000 27.4595 0.0000 0.0000
# 5 0.0000 0.0000 0.0000 0.0000 65.2638 0.0000
# 6 0.0000 0.0000 0.0000 0.0000 0.0000 25.4183
#
#
#
# Elastic Compliance Matrix: (Units=1/GPa)
#
#
# Indices 1 2 3 4 5 6 
#
# 1 0.046323 -0.007474 -0.004605 0.000000 0.000000 0.000000
# 2 -0.007474 0.020503 -0.006536 0.000000 0.000000 0.000000
# 3 -0.004605 -0.006536 0.007903 0.000000 0.000000 0.000000
# 4 0.000000 0.000000 0.000000 0.036417 0.000000 0.000000
# 5 0.000000 0.000000 0.000000 0.000000 0.015322 0.000000
# 6 0.000000 0.000000 0.000000 0.000000 0.000000 0.039342
#
#
# Mechanical properties :
#
#
# Convention : Reuss Voigt Hill
#
# Bulk Modulus (GPa) = 26.66861 66.05942 46.36402
# Shear Modulus (GPa) = 23.19752 36.14163 29.66958
#
# Velocity S-wave (km/s) = 3.48694 4.35239 3.94348
# Velocity P-wave (km/s) = 5.49453 7.73836 6.71089
#
# Compressibility (1/GPa) = 0.03749726
#
# Stress axis : x y z
#
# Youngs Moduli (GPa) = 21.58763 48.77398 126.53533
#
# Poissons Ratio (x) = 0.36454 0.58273
# Poissons Ratio (y) = 0.16135 0.82706
# Poissons Ratio (z) = 0.09942 0.31880
#
# Static dielectric constant tensor:
#      x y z
#    x 1.639630 0.000000 0.000000 
#    y 0.000000 1.669390 0.000000 
#    z 0.000000 0.000000 1.708490 
# 
# From -- ./inp_files/22234.got.cif
#   From: 2010.05.17/outbox.cif.g08.bks.cpg/sg46_12_cif.got.tgz:22234.got - 2010.06.03 19:58:25.
