data_PCOD9378569
_publ_section_title
;
Structure prediction by ZEFSAII (Michael W. Deem and Ramdas Pophale) SiO2 
 PCOD9378569
Probable space group: I M A 2
;
_chemical_formula_sum "Si O2"
_cell_formula_units_Z 64
_cell_length_a 9.314190
_cell_length_b 25.990695
_cell_length_c 14.107325
_cell_angle_alpha 90.000000
_cell_angle_beta 90.000000
_cell_angle_gamma 90.000000
_cell_volume 3415.133280
_symmetry_space_group_name_H-M "I M A 2"
_symmetry_group_IT_number 46
_symmetry_cell_setting 'orthorhombic'
loop_
_space_group_symop_operation_xyz
x,y,z
-x,-y,z
1/2-x,y,z
1/2+x,-y,z
1/2+x,1/2+y,1/2+z
1/2-x,1/2-y,1/2+z
-x,1/2+y,1/2+z
x,1/2-y,1/2+z
loop_
_atom_site_type_symbol
_atom_site_label
_atom_site_fract_x
_atom_site_fract_y
_atom_site_fract_z
Si Si1 0.415871 0.585682 0.107780
Si Si2 0.407737 0.323818 0.047937
Si Si3 0.414136 0.762811 0.261886
Si Si4 0.584884 0.448283 0.887471
Si Si5 0.580034 0.345208 0.362790
Si Si6 0.907810 0.643494 0.836387
Si Si7 0.086990 0.726139 0.536454
Si Si8 0.576689 0.552564 0.289504
O O1 0.250000 0.582491 0.139557
O O2 0.471746 0.644607 0.104214
O O3 0.522906 0.558211 0.180342
O O4 0.422064 0.564232 0.000730
O O5 0.250000 0.321563 0.094473
O O6 0.467142 0.268705 0.018286
O O7 0.392148 0.353794 0.949719
O O8 0.250000 0.771681 0.294947
O O9 0.450449 0.704599 0.295017
O O10 0.523184 0.803208 0.305646
O O11 0.415720 0.775695 0.150227
O O12 0.500000 0.500000 0.871225
O O13 0.750000 0.454197 0.863571
O O14 0.516085 0.403321 0.824440
O O15 0.750000 0.357432 0.351175
O O16 0.559730 0.323184 0.470071
O O17 0.486220 0.395432 0.338550
O O18 0.750000 0.635714 0.794244
O O19 0.250000 0.743512 0.511252
O O20 0.500000 0.500000 0.325589
O O21 0.750000 0.549846 0.295233
#
# Coordination Sequence:
#
# PCOD9378569 Si02
#       8
#     8   8   8   8   8   8   8   8
#     4  10  20  34  54  80 113 151 191 234 284 343
#     4  10  19  31  50  79 113 149 187 230 277 332
#     4  10  20  35  57  84 114 149 190 234 285 343
#     4  10  20  33  52  77 108 147 189 233 283 340
#     4  10  21  38  59  85 119 155 194 240 289 348
#     4  10  20  33  51  76 110 147 184 226 276 332
#     4  10  20  34  56  83 112 150 191 233 284 340
#     4  12  25  40  59  82 112 150 194 242 295 352
#
# _framework density 18.740117000000001
#
# number of rings (size 3 to 8) (size 9 to 14) (size 15 to 20)
#    0.000    1.750    1.250    3.750    0.000    6.000 
#    0.000    0.000    0.000    0.750    0.000    3.500 
#    0.000    0.000    0.000    0.000    0.000    0.000 
#
# Total GULP energy -178340.940831 kJ/mol
# GULP energy per Si atom -5573.154401 kJ/mol
# Density = 1.869746 g / cm^3
# Si number density = 18.740117 Si / 1000 Ang^3
#
#
#
# Elastic Constant Matrix: (Units=GPa)
#
#
# Indices 1 2 3 4 5 6 
#
# 1 155.1255 87.5238 19.8874 0.0000 0.0000 0.0000
# 2 87.5238 125.6479 24.0766 0.0000 0.0000 0.0000
# 3 19.8874 24.0766 63.4014 0.0000 0.0000 0.0000
# 4 0.0000 0.0000 0.0000 22.4515 0.0000 0.0000
# 5 0.0000 0.0000 0.0000 0.0000 15.9412 0.0000
# 6 0.0000 0.0000 0.0000 0.0000 0.0000 25.6747
#
#
#
# Elastic Compliance Matrix: (Units=1/GPa)
#
#
# Indices 1 2 3 4 5 6 
#
# 1 0.010639 -0.007303 -0.000564 0.000000 0.000000 0.000000
# 2 -0.007303 0.013596 -0.002872 0.000000 0.000000 0.000000
# 3 -0.000564 -0.002872 0.017040 0.000000 0.000000 0.000000
# 4 0.000000 0.000000 0.000000 0.044540 0.000000 0.000000
# 5 0.000000 0.000000 0.000000 0.000000 0.062730 0.000000
# 6 0.000000 0.000000 0.000000 0.000000 0.000000 0.038949
#
#
# Mechanical properties :
#
#
# Convention : Reuss Voigt Hill
#
# Bulk Modulus (GPa) = 50.51272 67.46115 58.98693
# Shear Modulus (GPa) = 23.19403 26.99262 25.09333
#
# Velocity S-wave (km/s) = 3.52187 3.79933 3.66323
# Velocity P-wave (km/s) = 6.59931 7.43794 7.03114
#
# Compressibility (1/GPa) = 0.01979700
#
# Stress axis : x y z
#
# Youngs Moduli (GPa) = 93.99302 73.54986 58.68473
#
# Poissons Ratio (x) = 0.53713 0.03310
# Poissons Ratio (y) = 0.68642 0.16857
# Poissons Ratio (z) = 0.05301 0.21126
#
# Static dielectric constant tensor:
#      x y z
#    x 1.666520 0.000000 0.000000 
#    y 0.000000 1.662420 0.000000 
#    z 0.000000 0.000000 1.691020 
# 
# From -- ./inp_files/14521.got.cif
#   From: 2010.05.17/outbox.cif.g08.bks.cpg/sg46_8_cif.got.tgz:14521.got - 2010.06.03 19:58:25.
