data_PCOD9378335
_publ_section_title
;
Structure prediction by ZEFSAII (Michael W. Deem and Ramdas Pophale) SiO2 
 PCOD9378335
Probable space group: I M A 2
;
_chemical_formula_sum "Si O2"
_cell_formula_units_Z 64
_cell_length_a 8.474635
_cell_length_b 25.500419
_cell_length_c 15.306973
_cell_angle_alpha 90.000000
_cell_angle_beta 90.000000
_cell_angle_gamma 90.000000
_cell_volume 3307.940086
_symmetry_space_group_name_H-M "I M A 2"
_symmetry_group_IT_number 46
_symmetry_cell_setting 'orthorhombic'
loop_
_space_group_symop_operation_xyz
x,y,z
-x,-y,z
1/2-x,y,z
1/2+x,-y,z
1/2+x,1/2+y,1/2+z
1/2-x,1/2-y,1/2+z
-x,1/2+y,1/2+z
x,1/2-y,1/2+z
loop_
_atom_site_type_symbol
_atom_site_label
_atom_site_fract_x
_atom_site_fract_y
_atom_site_fract_z
Si Si1 0.558264 0.634198 0.399630
Si Si2 0.436955 0.337686 0.584533
Si Si3 0.935715 0.153772 0.278044
Si Si4 0.439330 0.608293 0.064428
Si Si5 0.936921 0.225342 0.594093
Si Si6 0.060046 0.440753 0.244158
Si Si7 0.938206 0.733931 0.288512
Si Si8 0.562909 0.557801 0.890373
O O1 0.750000 0.633247 0.402079
O O2 0.506131 0.630437 0.499854
O O3 0.507304 0.589822 0.331590
O O4 0.513884 0.690424 0.358632
O O5 0.250000 0.345262 0.597708
O O6 0.522957 0.349798 0.675186
O O7 0.468748 0.276369 0.563579
O O8 0.750000 0.160912 0.289275
O O9 0.020746 0.206434 0.312468
O O10 0.991107 0.102256 0.328042
O O11 0.250000 0.604550 0.059944
O O12 0.482662 0.669612 0.053113
O O13 0.496018 0.588838 0.158792
O O14 0.513591 0.573354 0.988659
O O15 0.750000 0.233718 0.581341
O O16 0.973571 0.221921 0.697648
O O17 0.250000 0.439832 0.240970
O O18 0.000000 0.500000 0.243937
O O19 0.750000 0.729621 0.273399
O O20 0.500000 0.500000 0.869684
O O21 0.750000 0.558392 0.882522
#
# Coordination Sequence:
#
# PCOD9378335 Si02
#       8
#     8   8   8   8   8   8   8   8
#     4   9  20  36  58  87 120 157 203 251 300 356
#     4  10  20  37  60  87 120 162 205 250 301 359
#     4  11  23  41  61  89 123 158 199 251 306 361
#     4  11  23  39  59  89 125 162 200 244 299 363
#     4  10  20  34  53  85 123 158 195 241 297 354
#     4  11  22  40  61  86 120 161 205 252 300 357
#     4  10  18  34  58  87 118 159 203 242 296 357
#     4  12  26  45  67  90 117 156 203 254 305 362
#
# _framework density 19.347387999999999
#
# number of rings (size 3 to 8) (size 9 to 14) (size 15 to 20)
#    0.000    1.500    1.250    6.000    1.750    1.500 
#    0.000    5.000    0.000    1.500    0.000    0.000 
#    0.000    0.000    0.000    0.000    0.000    0.000 
#
# Total GULP energy -178852.391157 kJ/mol
# GULP energy per Si atom -5589.137224 kJ/mol
# Density = 1.930335 g / cm^3
# Si number density = 19.347388 Si / 1000 Ang^3
#
#
#
# Elastic Constant Matrix: (Units=GPa)
#
#
# Indices 1 2 3 4 5 6 
#
# 1 38.1613 -5.8935 -3.1875 0.0000 0.0000 0.0000
# 2 -5.8935 74.6871 18.3071 0.0000 0.0000 0.0000
# 3 -3.1875 18.3071 55.2221 0.0001 0.0001 0.0000
# 4 0.0000 0.0000 0.0001 28.4024 0.0000 0.0000
# 5 0.0000 0.0000 0.0001 0.0000 -5.4304 0.0000
# 6 0.0000 0.0000 0.0000 0.0000 0.0000 25.8920
#
#
#
# Elastic Compliance Matrix: (Units=1/GPa)
#
#
# Indices 1 2 3 4 5 6 
#
# 1 0.026570 0.001873 0.000913 0.000000 0.000000 0.000000
# 2 0.001873 0.014705 -0.004767 0.000000 0.000000 0.000000
# 3 0.000913 -0.004767 0.019742 0.000000 0.000001 0.000000
# 4 0.000000 0.000000 0.000000 0.035208 0.000000 0.000000
# 5 0.000000 0.000000 0.000001 0.000000 -0.184149 0.000000
# 6 0.000000 0.000000 0.000000 0.000000 0.000000 0.038622
#
#
# Mechanical properties :
#
#
# Convention : Reuss Voigt Hill
#
# Bulk Modulus (GPa) = 17.52709 20.72474 19.12592
# Shear Modulus (GPa) = -189.96575 20.36243 -84.80166
#
# Velocity S-wave (km/s) = -9.91967 3.24769 -6.62769
# Velocity P-wave (km/s) = 11.05084 4.97981 6.97577
#
# Compressibility (1/GPa) = 0.05705453
#
# Stress axis : x y z
#
# Youngs Moduli (GPa) = 37.63634 68.00190 50.65411
#
# Poissons Ratio (x) = -0.12736 -0.04623
# Poissons Ratio (y) = -0.07049 0.24147
# Poissons Ratio (z) = -0.03435 0.32417
#
# Static dielectric constant tensor:
#      x y z
#    x 1.647670 0.000000 0.000000 
#    y 0.000000 1.667780 0.000000 
#    z 0.000000 0.000000 1.681110 
# 
# From -- ./inp_files/14463.got.cif
#   From: 2010.05.17/outbox.cif.g08.bks.cpg/sg46_8_cif.got.tgz:14463.got - 2010.06.03 19:58:25.
