data_PCOD9378284
_publ_section_title
;
Structure prediction by ZEFSAII (Michael W. Deem and Ramdas Pophale) SiO2 
 PCOD9378284
Probable space group: I M A 2
;
_chemical_formula_sum "Si O2"
_cell_formula_units_Z 48
_cell_length_a 16.066155
_cell_length_b 9.164693
_cell_length_c 17.264486
_cell_angle_alpha 90.000000
_cell_angle_beta 90.000000
_cell_angle_gamma 90.000000
_cell_volume 2542.046714
_symmetry_space_group_name_H-M "I M A 2"
_symmetry_group_IT_number 46
_symmetry_cell_setting 'orthorhombic'
loop_
_space_group_symop_operation_xyz
x,y,z
-x,-y,z
1/2-x,y,z
1/2+x,-y,z
1/2+x,1/2+y,1/2+z
1/2-x,1/2-y,1/2+z
-x,1/2+y,1/2+z
x,1/2-y,1/2+z
loop_
_atom_site_type_symbol
_atom_site_label
_atom_site_fract_x
_atom_site_fract_y
_atom_site_fract_z
Si Si1 0.650211 0.950926 0.772560
Si Si2 0.908103 0.776882 0.379480
Si Si3 0.912385 0.141909 0.916918
Si Si4 0.154736 0.108279 0.019563
Si Si5 0.351220 0.108361 0.602354
Si Si6 0.153206 0.953468 0.444805
O O1 0.750000 0.964868 0.776613
O O2 0.621259 0.790687 0.799469
O O3 0.622415 0.961673 0.683617
O O4 0.612216 0.058879 0.837304
O O5 0.844915 0.712196 0.443715
O O6 0.995665 0.707147 0.405129
O O7 0.900910 0.949374 0.386098
O O8 0.857059 0.283141 0.931861
O O9 0.897478 0.030456 0.988691
O O10 0.250000 0.063614 0.037215
O O11 0.122225 0.223569 0.084060
O O12 0.250000 0.115374 0.603855
O O13 0.374742 0.005466 0.530341
O O14 0.250000 0.990199 0.435005
#
# Coordination Sequence:
#
# PCOD9378284 Si02
#       6
#     8   8   8   8   8   8
#     4  10  18  33  54  76 101 139 178 214 257 310
#     4  10  19  32  50  73 102 136 174 212 257 314
#     4  11  20  31  51  80 109 136 173 222 263 302
#     4   9  16  31  52  74  97 132 174 212 249 304
#     4   8  17  32  53  76 100 130 175 218 258 310
#     4  10  19  35  55  77 102 137 178 220 262 312
#
# _framework density 18.882421000000001
#
# number of rings (size 3 to 8) (size 9 to 14) (size 15 to 20)
#    0.000    2.333    0.000    7.500    0.000    0.000 
#    0.000    8.333    0.000    8.000    0.000    0.000 
#    0.000    0.000    0.000    0.000    0.000    0.000 
#
# Total GULP energy -133622.756658 kJ/mol
# GULP energy per Si atom -5567.614861 kJ/mol
# Density = 1.883944 g / cm^3
# Si number density = 18.882421 Si / 1000 Ang^3
#
#
#
# Elastic Constant Matrix: (Units=GPa)
#
#
# Indices 1 2 3 4 5 6 
#
# 1 71.5417 19.7258 15.0799 0.0000 0.0000 0.0000
# 2 19.7258 124.7852 43.6354 0.0000 0.0000 0.0000
# 3 15.0799 43.6354 91.2299 0.0000 0.0000 0.0000
# 4 0.0000 0.0000 0.0000 18.6133 0.0000 0.0000
# 5 0.0000 0.0000 0.0000 0.0000 0.0914 0.0000
# 6 0.0000 0.0000 0.0000 0.0000 0.0000 36.6671
#
#
#
# Elastic Compliance Matrix: (Units=1/GPa)
#
#
# Indices 1 2 3 4 5 6 
#
# 1 0.014806 -0.001783 -0.001595 0.000000 0.000000 0.000000
# 2 -0.001783 0.009838 -0.004411 0.000000 0.000000 0.000000
# 3 -0.001595 -0.004411 0.013335 0.000000 0.000000 0.000000
# 4 0.000000 0.000000 0.000000 0.053725 0.000000 0.000000
# 5 0.000000 0.000000 0.000000 0.000000 10.941399 0.000000
# 6 0.000000 0.000000 0.000000 0.000000 0.000000 0.027272
#
#
# Mechanical properties :
#
#
# Convention : Reuss Voigt Hill
#
# Bulk Modulus (GPa) = 44.63949 49.38211 47.01080
# Shear Modulus (GPa) = 0.45112 25.01540 12.73326
#
# Velocity S-wave (km/s) = 0.48932 3.64373 2.59963
# Velocity P-wave (km/s) = 4.90014 6.62658 5.82764
#
# Compressibility (1/GPa) = 0.02240169
#
# Stress axis : x y z
#
# Youngs Moduli (GPa) = 67.54224 101.64668 74.99284
#
# Poissons Ratio (x) = 0.18122 0.11958
# Poissons Ratio (y) = 0.12042 0.33078
# Poissons Ratio (z) = 0.10770 0.44835
#
# Static dielectric constant tensor:
#      x y z
#    x 1.701230 0.000000 0.000000 
#    y 0.000000 1.699260 0.000000 
#    z 0.000000 0.000000 1.659520 
# 
# From -- ./inp_files/19397.got.cif
#   From: 2010.05.17/outbox.cif.g08.bks.cpg/sg46_10_cif.got.tgz:19397.got - 2010.06.03 19:58:25.
