data_PCOD9378094
_publ_section_title
;
Structure prediction by ZEFSAII (Michael W. Deem and Ramdas Pophale) SiO2 
 PCOD9378094
Probable space group: I M A 2
;
_chemical_formula_sum "Si O2"
_cell_formula_units_Z 44
_cell_length_a 18.233345
_cell_length_b 18.200827
_cell_length_c 5.213262
_cell_angle_alpha 90.000000
_cell_angle_beta 90.000000
_cell_angle_gamma 90.000000
_cell_volume 1730.083335
_symmetry_space_group_name_H-M "I M A 2"
_symmetry_group_IT_number 46
_symmetry_cell_setting 'orthorhombic'
loop_
_space_group_symop_operation_xyz
x,y,z
-x,-y,z
1/2-x,y,z
1/2+x,-y,z
1/2+x,1/2+y,1/2+z
1/2-x,1/2-y,1/2+z
-x,1/2+y,1/2+z
x,1/2-y,1/2+z
loop_
_atom_site_type_symbol
_atom_site_label
_atom_site_fract_x
_atom_site_fract_y
_atom_site_fract_z
Si Si1 0.449752 0.177135 0.712140
Si Si2 0.603199 0.657774 0.714192
Si Si3 0.750000 0.795981 0.996657
Si Si4 0.750000 0.028926 0.140495
Si Si5 0.750000 0.373030 0.142608
Si Si6 0.918263 0.463189 0.548492
Si Si7 0.095964 0.634452 0.045676
O O1 0.412315 0.255120 0.769421
O O2 0.408709 0.127971 0.497556
O O3 0.529998 0.189101 0.602856
O O4 0.449882 0.137362 0.984050
O O5 0.681333 0.657920 0.585665
O O6 0.750000 0.726648 0.198158
O O7 0.750000 0.060103 0.431738
O O8 0.664433 0.997820 0.096262
O O9 0.750000 0.093871 0.927540
O O10 0.824827 0.331256 0.088163
O O11 0.913074 0.429866 0.261117
O O12 0.000000 0.500000 0.585291
O O13 0.912697 0.400541 0.767288
#
# Coordination Sequence:
#
# PCOD9378094 Si02
#       7
#     8   8   4   4   4   8   8
#     4  10  18  30  46  70  97 122 157 194 244 278
#     4  10  19  30  48  69  94 128 159 203 235 280
#     4  12  16  30  48  69  89 128 180 202 225 267
#     4   8  16  30  50  71  95 118 160 200 229 279
#     4   8  16  30  48  72  90 118 160 200 228 262
#     4  10  19  33  53  75  97 127 162 199 248 290
#     4  10  19  32  52  74  96 124 159 203 237 290
#
# _framework density 25.432302
#
# number of rings (size 3 to 8) (size 9 to 14) (size 15 to 20)
#    0.000    2.182    3.636    1.636    0.000    0.000 
#    0.000    0.000    0.000   13.091    0.000    0.000 
#    0.000    0.000    0.000    0.000    0.000    0.000 
#
# Total GULP energy -122568.516413 kJ/mol
# GULP energy per Si atom -5571.296201 kJ/mol
# Density = 2.537442 g / cm^3
# Si number density = 25.432302 Si / 1000 Ang^3
#
#
#
# Elastic Constant Matrix: (Units=GPa)
#
#
# Indices 1 2 3 4 5 6 
#
# 1 163.2419 0.2585 -26.9118 0.0000 0.0000 0.0000
# 2 0.2585 36.4099 -7.2800 0.0000 0.0000 0.0000
# 3 -26.9118 -7.2800 148.4628 0.0000 0.0000 0.0000
# 4 0.0000 0.0000 0.0000 12.3101 0.0000 0.0000
# 5 0.0000 0.0000 0.0000 0.0000 39.9574 0.0000
# 6 0.0000 0.0000 0.0000 0.0000 0.0000 3.9691
#
#
#
# Elastic Compliance Matrix: (Units=1/GPa)
#
#
# Indices 1 2 3 4 5 6 
#
# 1 0.006316 0.000186 0.001154 0.000000 0.000000 0.000000
# 2 0.000186 0.027742 0.001394 0.000000 0.000000 0.000000
# 3 0.001154 0.001394 0.007013 0.000000 0.000000 0.000000
# 4 0.000000 0.000000 0.000000 0.081234 0.000000 0.000000
# 5 0.000000 0.000000 0.000000 0.000000 0.025027 0.000000
# 6 0.000000 0.000000 0.000000 0.000000 0.000000 0.251948
#
#
# Mechanical properties :
#
#
# Convention : Reuss Voigt Hill
#
# Bulk Modulus (GPa) = 21.48716 31.13866 26.31291
# Shear Modulus (GPa) = 12.21520 36.71717 24.46619
#
# Velocity S-wave (km/s) = 2.19396 3.80376 3.10500
# Velocity P-wave (km/s) = 3.85811 5.61798 4.81907
#
# Compressibility (1/GPa) = 0.04653942
#
# Stress axis : x y z
#
# Youngs Moduli (GPa) = 158.33233 36.04584 142.58752
#
# Poissons Ratio (x) = -0.00670 -0.16454
# Poissons Ratio (y) = -0.02943 -0.19878
# Poissons Ratio (z) = -0.18271 -0.05025
#
# Static dielectric constant tensor:
#      x y z
#    x 2.168710 0.000000 0.000000 
#    y 0.000000 2.137890 0.000000 
#    z 0.000000 0.000000 2.040770 
# 
# From -- ./inp_files/1694.got.cif
#   From: 2010.05.17/outbox.cif.g08.bks.cpg/sg46_1_cif.got.tgz:1694.got - 2010.06.03 19:58:25.
