data_PCOD9378403
_publ_section_title
;
Structure prediction by ZEFSAII (Michael W. Deem and Ramdas Pophale) SiO2 
 PCOD9378403
Probable space group: I M A 2
;
_chemical_formula_sum "Si O2"
_cell_formula_units_Z 48
_cell_length_a 16.735509
_cell_length_b 9.792108
_cell_length_c 14.129434
_cell_angle_alpha 90.000000
_cell_angle_beta 90.000000
_cell_angle_gamma 90.000000
_cell_volume 2315.473877
_symmetry_space_group_name_H-M "I M A 2"
_symmetry_group_IT_number 46
_symmetry_cell_setting 'orthorhombic'
loop_
_space_group_symop_operation_xyz
x,y,z
-x,-y,z
1/2-x,y,z
1/2+x,-y,z
1/2+x,1/2+y,1/2+z
1/2-x,1/2-y,1/2+z
-x,1/2+y,1/2+z
x,1/2-y,1/2+z
loop_
_atom_site_type_symbol
_atom_site_label
_atom_site_fract_x
_atom_site_fract_y
_atom_site_fract_z
Si Si1 0.096040 0.974907 0.702150
Si Si2 0.483517 0.340395 0.524296
Si Si3 0.663344 0.499384 0.803363
Si Si4 0.084017 0.920088 0.493064
Si Si5 0.961752 0.192075 0.228809
Si Si6 0.392847 0.287611 0.345556
O O1 0.118403 0.982294 0.591341
O O2 0.102387 0.815243 0.725632
O O3 0.126897 0.079407 0.781683
O O4 0.000000 0.000000 0.701962
O O5 0.500000 0.500000 0.507767
O O6 0.557121 0.237734 0.501240
O O7 0.481395 0.312355 0.636604
O O8 0.407245 0.309042 0.457582
O O9 0.750000 0.455891 0.768089
O O10 0.589725 0.443824 0.741231
O O11 0.661634 0.661600 0.817493
O O12 0.643245 0.440460 0.906925
O O13 0.000000 0.000000 0.475286
O O14 0.019691 0.232866 0.313494
#
# Coordination Sequence:
#
# PCOD9378403 Si02
#       6
#     8   8   8   8   8   8
#     4   8  18  33  62  93 112 139 195 264 310 352
#     4  11  20  32  64  97 115 144 201 262 312 351
#     4  12  24  38  55  83 127 170 203 247 308 374
#     4  10  18  37  60  87 117 154 202 251 301 365
#     4  10  20  38  62  91 116 151 201 256 307 365
#     4  11  20  36  62  89 118 148 204 261 307 356
#
# _framework density 20.730097000000001
#
# number of rings (size 3 to 8) (size 9 to 14) (size 15 to 20)
#    0.000    1.667    3.333    4.000    0.000    0.000 
#    0.000    5.000    0.000    0.000    0.000    0.000 
#    0.000    0.000    0.000    0.000    0.000    0.000 
#
# Total GULP energy -133693.676097 kJ/mol
# GULP energy per Si atom -5570.569837 kJ/mol
# Density = 2.068291 g / cm^3
# Si number density = 20.730097 Si / 1000 Ang^3
#
#
#
# Elastic Constant Matrix: (Units=GPa)
#
#
# Indices 1 2 3 4 5 6 
#
# 1 36.2924 -0.1524 10.2342 0.0000 0.0000 0.0000
# 2 -0.1524 131.8312 20.9441 0.0000 0.0000 0.0000
# 3 10.2342 20.9441 102.6700 0.0000 0.0000 0.0000
# 4 0.0000 0.0000 0.0000 32.5523 0.0000 0.0000
# 5 0.0000 0.0000 0.0000 0.0000 1.5326 0.0000
# 6 0.0000 0.0000 0.0000 0.0000 0.0000 9.6049
#
#
#
# Elastic Compliance Matrix: (Units=1/GPa)
#
#
# Indices 1 2 3 4 5 6 
#
# 1 0.028383 0.000498 -0.002931 0.000000 0.000000 0.000000
# 2 0.000498 0.007848 -0.001651 0.000000 0.000000 0.000000
# 3 -0.002931 -0.001651 0.010369 0.000000 0.000000 0.000000
# 4 0.000000 0.000000 0.000000 0.030720 0.000000 0.000000
# 5 0.000000 0.000000 0.000000 0.000000 0.652501 0.000000
# 6 0.000000 0.000000 0.000000 0.000000 0.000000 0.104114
#
#
# Mechanical properties :
#
#
# Convention : Reuss Voigt Hill
#
# Bulk Modulus (GPa) = 26.01905 36.98284 31.50094
# Shear Modulus (GPa) = 5.84856 24.72245 15.28550
#
# Velocity S-wave (km/s) = 1.68149 3.45713 2.71838
# Velocity P-wave (km/s) = 4.04332 5.81503 5.00815
#
# Compressibility (1/GPa) = 0.03843339
#
# Stress axis : x y z
#
# Youngs Moduli (GPa) = 35.23293 127.41645 96.44288
#
# Poissons Ratio (x) = -0.06351 0.28266
# Poissons Ratio (y) = -0.01756 0.15920
# Poissons Ratio (z) = 0.10326 0.21033
#
# Static dielectric constant tensor:
#      x y z
#    x 1.716710 0.000000 0.000000 
#    y 0.000000 1.841930 0.000000 
#    z 0.000000 0.000000 1.819700 
# 
# From -- ./inp_files/15870.got.cif
#   From: 2010.05.17/outbox.cif.g08.bks.cpg/sg46_8_cif.got.tgz:15870.got - 2010.06.03 19:58:25.
