data_PCOD9378217
_publ_section_title
;
Structure prediction by ZEFSAII (Michael W. Deem and Ramdas Pophale) SiO2 
 PCOD9378217
Probable space group: I M A 2
;
_chemical_formula_sum "Si O2"
_cell_formula_units_Z 64
_cell_length_a 8.576656
_cell_length_b 20.198517
_cell_length_c 21.334930
_cell_angle_alpha 90.000000
_cell_angle_beta 90.000000
_cell_angle_gamma 90.000000
_cell_volume 3695.972216
_symmetry_space_group_name_H-M "I M A 2"
_symmetry_group_IT_number 46
_symmetry_cell_setting 'orthorhombic'
loop_
_space_group_symop_operation_xyz
x,y,z
-x,-y,z
1/2-x,y,z
1/2+x,-y,z
1/2+x,1/2+y,1/2+z
1/2-x,1/2-y,1/2+z
-x,1/2+y,1/2+z
x,1/2-y,1/2+z
loop_
_atom_site_type_symbol
_atom_site_label
_atom_site_fract_x
_atom_site_fract_y
_atom_site_fract_z
Si Si1 0.061675 0.291862 0.084960
Si Si2 0.564225 0.429589 0.751098
Si Si3 0.936206 0.429282 0.279519
Si Si4 0.061679 0.292756 0.325695
Si Si5 0.936592 0.070864 0.632885
Si Si6 0.060054 0.289585 0.946076
Si Si7 0.437036 0.429766 0.892861
Si Si8 0.438777 0.293983 0.704280
O O1 0.250000 0.292875 0.086262
O O2 0.010379 0.244579 0.141746
O O3 0.003489 0.366133 0.097160
O O4 0.010517 0.269722 0.015748
O O5 0.500000 0.500000 0.727414
O O6 0.750000 0.432036 0.754502
O O7 0.496766 0.421454 0.821583
O O8 0.507920 0.366938 0.711438
O O9 0.750000 0.429955 0.281474
O O10 0.984742 0.422024 0.206262
O O11 0.000000 0.500000 0.301707
O O12 0.999893 0.366575 0.316772
O O13 0.250000 0.294387 0.325992
O O14 0.007543 0.257221 0.389359
O O15 0.014470 0.248918 0.265354
O O16 0.750000 0.070733 0.629835
O O17 0.000000 0.000000 0.610500
O O18 0.250000 0.288716 0.944787
O O19 0.013180 0.365244 0.931422
O O20 0.500000 0.500000 0.916828
O O21 0.250000 0.432186 0.891398
O O22 0.250000 0.298453 0.704464
#
# Coordination Sequence:
#
# PCOD9378217 Si02
#       8
#     8   8   8   8   8   8   8   8
#     4  10  20  35  54  76 104 140 176 211 256 309
#     4  11  21  33  53  79 107 135 171 216 263 307
#     4  10  20  33  52  79 107 135 172 216 262 306
#     4  10  18  33  55  78 104 137 172 213 259 304
#     4  10  20  33  50  74 106 141 177 216 254 303
#     4   9  19  34  52  74 105 140 174 210 255 309
#     4  10  18  32  50  73 105 140 177 212 252 302
#     4  10  19  33  55  79 104 136 173 212 258 307
#
# _framework density 17.316147000000001
#
# number of rings (size 3 to 8) (size 9 to 14) (size 15 to 20)
#    0.000    2.000    2.500    3.000    0.000    2.500 
#    0.000    3.125    0.000    0.750    0.000    0.000 
#    0.000    0.000    0.000    0.000    0.000    0.000 
#
# Total GULP energy -178620.544714 kJ/mol
# GULP energy per Si atom -5581.892022 kJ/mol
# Density = 1.727674 g / cm^3
# Si number density = 17.316147 Si / 1000 Ang^3
#
#
#
# Elastic Constant Matrix: (Units=GPa)
#
#
# Indices 1 2 3 4 5 6 
#
# 1 29.9046 25.6393 23.8526 0.0000 0.0000 0.0000
# 2 25.6393 139.3128 75.1072 0.0000 0.0000 0.0000
# 3 23.8526 75.1072 118.3155 0.0000 0.0000 0.0000
# 4 0.0000 0.0000 0.0000 22.2791 0.0000 0.0000
# 5 0.0000 0.0000 0.0000 0.0000 -2.9996 0.0000
# 6 0.0000 0.0000 0.0000 0.0000 0.0000 32.6212
#
#
#
# Elastic Compliance Matrix: (Units=1/GPa)
#
#
# Indices 1 2 3 4 5 6 
#
# 1 0.041853 -0.004795 -0.005394 0.000000 0.000000 0.000000
# 2 -0.004795 0.011462 -0.006310 0.000000 0.000000 0.000000
# 3 -0.005394 -0.006310 0.013545 0.000000 0.000000 0.000000
# 4 0.000000 0.000000 0.000000 0.044885 0.000000 0.000000
# 5 0.000000 0.000000 0.000000 0.000000 -0.333382 0.000000
# 6 0.000000 0.000000 0.000000 0.000000 0.000000 0.030655
#
#
# Mechanical properties :
#
#
# Convention : Reuss Voigt Hill
#
# Bulk Modulus (GPa) = 29.53047 59.63677 44.58362
# Shear Modulus (GPa) = -34.08354 21.24242 -6.42056
#
# Velocity S-wave (km/s) = -4.44138 3.50628 -1.92767
# Velocity P-wave (km/s) = 3.03486 7.13490 4.56598
#
# Compressibility (1/GPa) = 0.03386333
#
# Stress axis : x y z
#
# Youngs Moduli (GPa) = 23.89332 87.24336 73.82911
#
# Poissons Ratio (x) = 0.41830 0.39823
# Poissons Ratio (y) = 0.11456 0.46584
# Poissons Ratio (z) = 0.12888 0.55047
#
# Static dielectric constant tensor:
#      x y z
#    x 1.583450 0.000000 0.000000 
#    y 0.000000 1.574250 0.000000 
#    z 0.000000 0.000000 1.594760 
# 
# From -- ./inp_files/21441.got.cif
#   From: 2010.05.17/outbox.cif.g08.bks.cpg/sg46_11_cif.got.tgz:21441.got - 2010.06.03 19:58:25.
