data_PCOD9378343
_publ_section_title
;
Structure prediction by ZEFSAII (Michael W. Deem and Ramdas Pophale) SiO2 
 PCOD9378343
Probable space group: I M A 2
;
_chemical_formula_sum "Si O2"
_cell_formula_units_Z 36
_cell_length_a 13.461088
_cell_length_b 9.727954
_cell_length_c 14.700240
_cell_angle_alpha 90.000000
_cell_angle_beta 90.000000
_cell_angle_gamma 90.000000
_cell_volume 1924.979447
_symmetry_space_group_name_H-M "I M A 2"
_symmetry_group_IT_number 46
_symmetry_cell_setting 'orthorhombic'
loop_
_space_group_symop_operation_xyz
x,y,z
-x,-y,z
1/2-x,y,z
1/2+x,-y,z
1/2+x,1/2+y,1/2+z
1/2-x,1/2-y,1/2+z
-x,1/2+y,1/2+z
x,1/2-y,1/2+z
loop_
_atom_site_type_symbol
_atom_site_label
_atom_site_fract_x
_atom_site_fract_y
_atom_site_fract_z
Si Si1 0.370425 0.242534 0.057050
Si Si2 0.632773 0.626563 0.745328
Si Si3 0.366827 0.881334 0.380900
Si Si4 0.500000 0.500000 0.039403
Si Si5 0.978446 0.841083 0.868661
O O1 0.250000 0.269998 0.048393
O O2 0.384885 0.132174 0.137638
O O3 0.437340 0.376432 0.084977
O O4 0.417370 0.189407 0.962212
O O5 0.750000 0.645435 0.758866
O O6 0.607881 0.486205 0.798614
O O7 0.580451 0.755713 0.792569
O O8 0.250000 0.876292 0.389553
O O9 0.415344 0.733935 0.369197
O O10 0.417314 0.938366 0.471751
O O11 0.000000 0.000000 0.854028
#
# Coordination Sequence:
#
# PCOD9378343 Si02
#       5
#     8   8   8   4   8
#     4  10  21  37  61  87 115 153 195 238 291 345
#     4  10  20  37  62  84 112 154 196 239 288 349
#     4  10  19  36  61  85 113 154 198 234 284 345
#     4  10  18  34  60  88 112 152 190 242 288 346
#     4  11  23  37  57  87 121 156 190 243 292 341
#
# _framework density 18.701498999999998
#
# number of rings (size 3 to 8) (size 9 to 14) (size 15 to 20)
#    0.000    1.778    4.444    1.333    1.556    3.556 
#    0.000    0.000    0.000    1.333    0.000    0.000 
#    0.000    0.000    0.000    0.000    0.000    0.000 
#
# Total GULP energy -100291.012862 kJ/mol
# GULP energy per Si atom -5571.722937 kJ/mol
# Density = 1.865893 g / cm^3
# Si number density = 18.701499 Si / 1000 Ang^3
#
#
#
# Elastic Constant Matrix: (Units=GPa)
#
#
# Indices 1 2 3 4 5 6 
#
# 1 139.9339 42.8099 33.7318 0.0000 0.0000 0.0000
# 2 42.8099 126.5205 23.3867 0.0000 0.0000 0.0000
# 3 33.7318 23.3867 74.3371 0.0000 0.0000 0.0000
# 4 0.0000 0.0000 0.0000 -10.6675 0.0000 0.0000
# 5 0.0000 0.0000 0.0000 0.0000 30.0843 0.0000
# 6 0.0000 0.0000 0.0000 0.0000 0.0000 56.5159
#
#
#
# Elastic Compliance Matrix: (Units=1/GPa)
#
#
# Indices 1 2 3 4 5 6 
#
# 1 0.008626 -0.002331 -0.003181 0.000000 0.000000 0.000000
# 2 -0.002331 0.009022 -0.001781 0.000000 0.000000 0.000000
# 3 -0.003181 -0.001781 0.015456 0.000000 0.000000 0.000000
# 4 0.000000 0.000000 0.000000 -0.093743 0.000000 0.000000
# 5 0.000000 0.000000 0.000000 0.000000 0.033240 0.000000
# 6 0.000000 0.000000 0.000000 0.000000 0.000000 0.017694
#
#
# Mechanical properties :
#
#
# Convention : Reuss Voigt Hill
#
# Bulk Modulus (GPa) = 53.99896 60.07201 57.03548
# Shear Modulus (GPa) = 452.39123 31.24408 241.81765
#
# Velocity S-wave (km/s) = 15.57004 4.09182 11.38352
# Velocity P-wave (km/s) = 18.76624 7.38344 14.25986
#
# Compressibility (1/GPa) = 0.01851887
#
# Stress axis : x y z
#
# Youngs Moduli (GPa) = 115.92765 110.84463 64.70047
#
# Poissons Ratio (x) = 0.25835 0.20581
# Poissons Ratio (y) = 0.27020 0.11521
# Poissons Ratio (z) = 0.36876 0.19737
#
# Static dielectric constant tensor:
#      x y z
#    x 1.634070 0.000000 0.000000 
#    y 0.000000 1.653200 0.000000 
#    z 0.000000 0.000000 1.665650 
# 
# From -- ./inp_files/15616.got.cif
#   From: 2010.05.17/outbox.cif.g08.bks.cpg/sg46_8_cif.got.tgz:15616.got - 2010.06.03 19:58:25.
