data_PCOD9378442
_publ_section_title
;
Structure prediction by ZEFSAII (Michael W. Deem and Ramdas Pophale) SiO2 
 PCOD9378442
Probable space group: I M A 2
;
_chemical_formula_sum "Si O2"
_cell_formula_units_Z 60
_cell_length_a 31.480570
_cell_length_b 21.389476
_cell_length_c 5.041011
_cell_angle_alpha 90.000000
_cell_angle_beta 90.000000
_cell_angle_gamma 90.000000
_cell_volume 3394.379358
_symmetry_space_group_name_H-M "I M A 2"
_symmetry_group_IT_number 46
_symmetry_cell_setting 'orthorhombic'
loop_
_space_group_symop_operation_xyz
x,y,z
-x,-y,z
1/2-x,y,z
1/2+x,-y,z
1/2+x,1/2+y,1/2+z
1/2-x,1/2-y,1/2+z
-x,1/2+y,1/2+z
x,1/2-y,1/2+z
loop_
_atom_site_type_symbol
_atom_site_label
_atom_site_fract_x
_atom_site_fract_y
_atom_site_fract_z
Si Si1 0.300256 0.909265 0.773400
Si Si2 0.750000 0.707885 0.677746
Si Si3 0.137862 0.705785 0.258691
Si Si4 0.637101 0.704272 0.285815
Si Si5 0.456184 0.207022 0.709445
Si Si6 0.701709 0.883562 0.513245
Si Si7 0.699766 0.490101 0.758320
Si Si8 0.955137 0.292952 0.348065
O O1 0.250000 0.898314 0.824463
O O2 0.326920 0.846492 0.802260
O O3 0.304562 0.936473 0.478611
O O4 0.315503 0.962389 0.980623
O O5 0.750000 0.733359 0.381879
O O6 0.788695 0.665060 0.774869
O O7 0.141419 0.761170 0.474141
O O8 0.090487 0.676848 0.292783
O O9 0.640808 0.757627 0.058027
O O10 0.589332 0.676521 0.263359
O O11 0.671384 0.651377 0.217797
O O12 0.456660 0.266653 0.911004
O O13 0.500558 0.326758 0.278600
O O14 0.750000 0.897052 0.623498
O O15 0.682738 0.945982 0.384970
O O16 0.750000 0.503642 0.720838
O O17 0.955522 0.266716 0.646535
#
# Coordination Sequence:
#
# PCOD9378442 Si02
#       8
#     8   4   8   8   8   8   8   8
#     4  10  20  33  50  65  92 121 157 193 225 268
#     4  10  20  30  44  66  92 118 146 192 246 280
#     4  10  19  30  47  73  98 119 143 181 235 288
#     4  10  19  29  43  66  94 120 150 188 238 285
#     4   8  14  25  40  59  87 119 144 174 215 270
#     4   9  20  33  47  65  90 126 161 200 232 278
#     4   9  19  35  47  64  83 124 167 197 219 256
#     4   8  14  25  41  62  90 117 142 171 213 271
#
# _framework density 17.676279999999998
#
# number of rings (size 3 to 8) (size 9 to 14) (size 15 to 20)
#    0.400    2.400    0.000    1.600    0.000    2.667 
#    0.000    0.000    0.000    0.000    0.000    0.933 
#    0.000    2.133    0.000    0.000    0.000    0.000 
#
# Total GULP energy -167081.380306 kJ/mol
# GULP energy per Si atom -5569.379344 kJ/mol
# Density = 1.763605 g / cm^3
# Si number density = 17.676280 Si / 1000 Ang^3
#
#
#
# Elastic Constant Matrix: (Units=GPa)
#
#
# Indices 1 2 3 4 5 6 
#
# 1 87.4803 21.0593 4.8471 0.0000 0.0000 0.0000
# 2 21.0593 32.8033 -4.3326 0.0000 0.0000 0.0000
# 3 4.8471 -4.3326 69.5169 0.0000 0.0000 0.0000
# 4 0.0000 0.0000 0.0000 10.9665 0.0000 0.0000
# 5 0.0000 0.0000 0.0000 0.0000 20.1278 0.0000
# 6 0.0000 0.0000 0.0000 0.0000 0.0000 5.6629
#
#
#
# Elastic Compliance Matrix: (Units=1/GPa)
#
#
# Indices 1 2 3 4 5 6 
#
# 1 0.013677 -0.008980 -0.001513 0.000000 0.000000 0.000000
# 2 -0.008980 0.036634 0.002909 0.000000 0.000000 0.000000
# 3 -0.001513 0.002909 0.014672 0.000000 0.000000 0.000000
# 4 0.000000 0.000000 0.000000 0.091187 0.000000 0.000000
# 5 0.000000 0.000000 0.000000 0.000000 0.049682 0.000000
# 6 0.000000 0.000000 0.000000 0.000000 0.000000 0.176588
#
#
# Mechanical properties :
#
#
# Convention : Reuss Voigt Hill
#
# Bulk Modulus (GPa) = 20.07450 25.88313 22.97881
# Shear Modulus (GPa) = 12.07107 18.56656 15.31881
#
# Velocity S-wave (km/s) = 2.61606 3.24445 2.94705
# Velocity P-wave (km/s) = 4.52840 5.35816 4.96066
#
# Compressibility (1/GPa) = 0.04981445
#
# Stress axis : x y z
#
# Youngs Moduli (GPa) = 73.11637 27.29693 68.15783
#
# Poissons Ratio (x) = 0.24513 0.10314
# Poissons Ratio (y) = 0.65660 -0.19830
# Poissons Ratio (z) = 0.11065 -0.07942
#
# Static dielectric constant tensor:
#      x y z
#    x 1.695510 0.000000 0.000000 
#    y 0.000000 1.576500 0.000000 
#    z 0.000000 0.000000 1.630690 
# 
# From -- ./inp_files/2777.got.cif
#   From: 2010.05.17/outbox.cif.g08.bks.cpg/sg46_2_cif.got.tgz:2777.got - 2010.06.03 19:58:25.
