data_PCOD9378153
_publ_section_title
;
Structure prediction by ZEFSAII (Michael W. Deem and Ramdas Pophale) SiO2 
 PCOD9378153
Probable space group: I M A 2
;
_chemical_formula_sum "Si O2"
_cell_formula_units_Z 56
_cell_length_a 30.595653
_cell_length_b 6.743045
_cell_length_c 10.518047
_cell_angle_alpha 90.000000
_cell_angle_beta 90.000000
_cell_angle_gamma 90.000000
_cell_volume 2169.955820
_symmetry_space_group_name_H-M "I M A 2"
_symmetry_group_IT_number 46
_symmetry_cell_setting 'orthorhombic'
loop_
_space_group_symop_operation_xyz
x,y,z
-x,-y,z
1/2-x,y,z
1/2+x,-y,z
1/2+x,1/2+y,1/2+z
1/2-x,1/2-y,1/2+z
-x,1/2+y,1/2+z
x,1/2-y,1/2+z
loop_
_atom_site_type_symbol
_atom_site_label
_atom_site_fract_x
_atom_site_fract_y
_atom_site_fract_z
Si Si1 0.145819 0.030907 0.632360
Si Si2 0.358206 0.992119 0.908092
Si Si3 0.047966 0.594707 0.799461
Si Si4 0.198441 0.884074 0.132360
Si Si5 0.453066 0.604762 0.132360
Si Si6 0.358206 0.992120 0.356628
Si Si7 0.547966 0.405293 0.465259
O O1 0.152903 0.102321 0.776756
O O2 0.174283 0.828444 0.632360
O O3 0.093795 0.000177 0.632360
O O4 0.152903 0.102321 0.487964
O O5 0.362177 0.750000 0.882360
O O6 0.407037 0.032801 0.959586
O O7 0.320005 0.996773 0.010265
O O8 0.092963 0.467199 0.805135
O O9 0.050738 0.644333 0.632360
O O10 0.000000 0.500000 0.796877
O O11 0.047946 0.652569 0.966024
O O12 0.250000 0.862200 0.132360
O O13 0.179995 0.996773 0.254455
O O14 0.500000 0.500000 0.132360
O O15 0.452054 0.652569 0.298696
O O16 0.500000 0.500000 0.467843
#
# Coordination Sequence:
#
# PCOD9378153 Si02
#       7
#     8   8   8   8   8   8   8
#     4  10  18  31  46  72 105 140 175 227 281 329
#     4   9  17  31  48  70 105 142 175 224 280 325
#     4  11  20  33  52  77 110 154 191 228 275 333
#     4  10  18  31  50  72 102 140 184 229 292 345
#     4  12  21  34  51  74 110 156 194 226 274 332
#     4   9  17  31  48  70 105 142 175 224 280 325
#     4  11  20  33  52  77 110 154 191 228 275 333
#
# _framework density 25.806978999999998
#
# number of rings (size 3 to 8) (size 9 to 14) (size 15 to 20)
#    0.000    1.714    8.571    1.286    0.000    5.143 
#    0.000    0.000    0.000    0.000    0.000    0.000 
#    0.000    5.714    0.000    0.857    0.000    0.000 
#
# Total GULP energy -156230.979402 kJ/mol
# GULP energy per Si atom -5579.677836 kJ/mol
# Density = 2.574824 g / cm^3
# Si number density = 25.806979 Si / 1000 Ang^3
#
#
#
# Elastic Constant Matrix: (Units=GPa)
#
#
# Indices 1 2 3 4 5 6 
#
# 1 165.1682 38.6963 75.2759 0.0000 0.0000 0.0000
# 2 38.6963 64.9354 12.0761 0.0000 0.0000 0.0000
# 3 75.2759 12.0761 272.0013 0.0000 0.0000 0.0000
# 4 0.0000 0.0000 0.0000 32.9461 0.0000 0.0000
# 5 0.0000 0.0000 0.0000 0.0000 -30.1369 0.0000
# 6 0.0000 0.0000 0.0000 0.0000 0.0000 16.0291
#
#
#
# Elastic Compliance Matrix: (Units=1/GPa)
#
#
# Indices 1 2 3 4 5 6 
#
# 1 0.008005 -0.004394 -0.002020 0.000000 0.000000 0.000000
# 2 -0.004394 0.017941 0.000420 0.000000 0.000000 0.000000
# 3 -0.002020 0.000420 0.004217 0.000000 0.000000 0.000000
# 4 0.000000 0.000000 0.000000 0.030353 0.000000 0.000000
# 5 0.000000 0.000000 0.000000 0.000000 -0.033182 0.000000
# 6 0.000000 0.000000 0.000000 0.000000 0.000000 0.062386
#
#
# Mechanical properties :
#
#
# Convention : Reuss Voigt Hill
#
# Bulk Modulus (GPa) = 55.02900 83.80017 69.41459
# Shear Modulus (GPa) = 46.39650 28.83811 37.61731
#
# Velocity S-wave (km/s) = 4.24468 3.34646 3.82205
# Velocity P-wave (km/s) = 6.73741 6.89015 6.81421
#
# Compressibility (1/GPa) = 0.01817224
#
# Stress axis : x y z
#
# Youngs Moduli (GPa) = 124.92676 55.73938 237.14078
#
# Poissons Ratio (x) = 0.24494 0.47907
# Poissons Ratio (y) = 0.54899 -0.09952
# Poissons Ratio (z) = 0.25238 -0.02339
#
# Static dielectric constant tensor:
#      x y z
#    x 1.744250 0.000000 0.000000 
#    y 0.000000 2.140830 0.000000 
#    z 0.000000 0.000000 2.560000 
# 
# From -- ./inp_files/13086.got.cif
#   From: 2010.05.17/outbox.cif.g08.bks.cpg/sg46_7_cif.got.tgz:13086.got - 2010.06.03 19:58:25.
