data_PCOD9378794
_publ_section_title
;
Structure prediction by ZEFSAII (Michael W. Deem and Ramdas Pophale) SiO2 
 PCOD9378794
Probable space group: I M A 2
;
_chemical_formula_sum "Si O2"
_cell_formula_units_Z 64
_cell_length_a 8.704804
_cell_length_b 28.143151
_cell_length_c 15.051825
_cell_angle_alpha 90.000000
_cell_angle_beta 90.000000
_cell_angle_gamma 90.000000
_cell_volume 3687.405321
_symmetry_space_group_name_H-M "I M A 2"
_symmetry_group_IT_number 46
_symmetry_cell_setting 'orthorhombic'
loop_
_space_group_symop_operation_xyz
x,y,z
-x,-y,z
1/2-x,y,z
1/2+x,-y,z
1/2+x,1/2+y,1/2+z
1/2-x,1/2-y,1/2+z
-x,1/2+y,1/2+z
x,1/2-y,1/2+z
loop_
_atom_site_type_symbol
_atom_site_label
_atom_site_fract_x
_atom_site_fract_y
_atom_site_fract_z
Si Si1 0.565929 0.781858 0.242120
Si Si2 0.935144 0.675289 0.434479
Si Si3 0.933838 0.132342 0.557756
Si Si4 0.933079 0.052723 0.242382
Si Si5 0.066712 0.779680 0.434788
Si Si6 0.066572 0.052897 0.432127
Si Si7 0.435008 0.369176 0.614365
Si Si8 0.065097 0.172311 0.731978
O O1 0.750000 0.782143 0.256331
O O2 0.486540 0.793199 0.335579
O O3 0.529101 0.820864 0.168507
O O4 0.524035 0.727896 0.215978
O O5 0.750000 0.678016 0.435537
O O6 0.982186 0.639699 0.512583
O O7 0.980729 0.662042 0.334031
O O8 0.995931 0.728132 0.454145
O O9 0.750000 0.127981 0.552239
O O10 0.982020 0.179753 0.503582
O O11 0.010487 0.087900 0.508917
O O12 0.986452 0.139932 0.658581
O O13 0.750000 0.050451 0.249575
O O14 0.002029 0.070068 0.336645
O O15 0.984694 0.087723 0.164475
O O16 0.000000 0.000000 0.227989
O O17 0.250000 0.776009 0.437210
O O18 0.250000 0.051033 0.428031
O O19 0.000000 0.000000 0.445245
O O20 0.250000 0.375905 0.617869
O O21 0.250000 0.168039 0.724849
#
# Coordination Sequence:
#
# PCOD9378794 Si02
#       8
#     8   8   8   8   8   8   8   8
#     4   9  18  31  49  73 103 137 174 211 254 307
#     4   9  19  35  53  72 101 138 178 219 258 302
#     4  11  22  34  50  76 106 138 174 213 256 306
#     4  11  22  37  56  80 109 137 166 205 252 307
#     4  10  20  31  46  71 105 139 173 212 256 303
#     4  11  22  38  59  81 106 135 166 206 254 307
#     4  10  19  33  54  78 102 135 175 215 258 306
#     4   9  18  33  51  73 100 137 179 217 255 298
#
# _framework density 17.356376999999998
#
# number of rings (size 3 to 8) (size 9 to 14) (size 15 to 20)
#    0.000    2.000    0.000    6.000    0.000    8.000 
#    0.000    0.000    0.000    0.750    0.000    3.500 
#    0.000    0.000    0.000    0.000    0.000    0.000 
#
# Total GULP energy -178708.205995 kJ/mol
# GULP energy per Si atom -5584.631437 kJ/mol
# Density = 1.731687 g / cm^3
# Si number density = 17.356377 Si / 1000 Ang^3
#
#
#
# Elastic Constant Matrix: (Units=GPa)
#
#
# Indices 1 2 3 4 5 6 
#
# 1 64.5389 39.7173 50.6727 0.0000 0.0000 0.0000
# 2 39.7173 72.5746 74.0552 -0.0001 0.0000 0.0000
# 3 50.6727 74.0552 121.6894 -0.0001 0.0000 0.0000
# 4 0.0000 -0.0001 -0.0001 31.1161 0.0000 0.0000
# 5 0.0000 0.0000 0.0000 0.0000 24.2669 0.0000
# 6 0.0000 0.0000 0.0000 0.0000 0.0000 26.5009
#
#
#
# Elastic Compliance Matrix: (Units=1/GPa)
#
#
# Indices 1 2 3 4 5 6 
#
# 1 0.024648 -0.007957 -0.005421 0.000000 0.000000 0.000000
# 2 -0.007957 0.038922 -0.020373 0.000000 0.000000 0.000000
# 3 -0.005421 -0.020373 0.022873 0.000000 0.000000 0.000000
# 4 0.000000 0.000000 0.000000 0.032138 0.000000 0.000000
# 5 0.000000 0.000000 0.000000 0.000000 0.041208 0.000000
# 6 0.000000 0.000000 0.000000 0.000000 0.000000 0.037735
#
#
# Mechanical properties :
#
#
# Convention : Reuss Voigt Hill
#
# Bulk Modulus (GPa) = 52.79637 65.29925 59.04781
# Shear Modulus (GPa) = 18.42707 22.66730 20.54718
#
# Velocity S-wave (km/s) = 3.26189 3.61777 3.44443
# Velocity P-wave (km/s) = 6.68368 7.42666 7.06495
#
# Compressibility (1/GPa) = 0.01894069
#
# Stress axis : x y z
#
# Youngs Moduli (GPa) = 40.57167 25.69240 43.71888
#
# Poissons Ratio (x) = 0.20443 0.23702
# Poissons Ratio (y) = 0.32282 0.89069
# Poissons Ratio (z) = 0.21996 0.52343
#
# Static dielectric constant tensor:
#      x y z
#    x 1.581780 0.000000 0.000000 
#    y 0.000000 1.570270 0.000000 
#    z 0.000000 0.000000 1.595090 
# 
# From -- ./inp_files/14477.got.cif
#   From: 2010.05.17/outbox.cif.g08.bks.cpg/sg46_8_cif.got.tgz:14477.got - 2010.06.03 19:58:25.
