data_PCOD9378923
_publ_section_title
;
Structure prediction by ZEFSAII (Michael W. Deem and Ramdas Pophale) SiO2 
 PCOD9378923
Probable space group: I M A 2
;
_chemical_formula_sum "Si O2"
_cell_formula_units_Z 40
_cell_length_a 17.006898
_cell_length_b 13.219424
_cell_length_c 7.574729
_cell_angle_alpha 90.000000
_cell_angle_beta 90.000000
_cell_angle_gamma 90.000000
_cell_volume 1702.961145
_symmetry_space_group_name_H-M "I M A 2"
_symmetry_group_IT_number 46
_symmetry_cell_setting 'orthorhombic'
loop_
_space_group_symop_operation_xyz
x,y,z
-x,-y,z
1/2-x,y,z
1/2+x,-y,z
1/2+x,1/2+y,1/2+z
1/2-x,1/2-y,1/2+z
-x,1/2+y,1/2+z
x,1/2-y,1/2+z
loop_
_atom_site_type_symbol
_atom_site_label
_atom_site_fract_x
_atom_site_fract_y
_atom_site_fract_z
Si Si1 0.056008 0.597692 0.221320
Si Si2 0.664040 0.865558 0.891314
Si Si3 0.339958 0.903240 0.025854
Si Si4 0.910493 0.675987 0.029973
Si Si5 0.155691 0.516581 0.900373
O O1 0.097638 0.644514 0.392062
O O2 0.000000 0.500000 0.267750
O O3 0.995632 0.665226 0.113551
O O4 0.122419 0.564708 0.080202
O O5 0.750000 0.826395 0.940521
O O6 0.650976 0.854940 0.683316
O O7 0.659567 0.979849 0.956803
O O8 0.602338 0.789327 0.972169
O O9 0.250000 0.864913 0.007595
O O10 0.360939 0.912532 0.231300
O O11 0.890338 0.590881 0.883417
O O12 0.250000 0.501214 0.903660
#
# Coordination Sequence:
#
# PCOD9378923 Si02
#       5
#     8   8   8   8   8
#     4  10  20  35  52  80 119 154 191 243 295 351
#     4  11  20  34  55  80 118 156 190 230 288 362
#     4  10  20  35  59  84 110 152 198 242 293 355
#     4  11  22  35  51  86 124 158 192 243 304 362
#     4  10  19  34  56  82 110 147 198 244 292 351
#
# _framework density 23.488496999999999
#
# number of rings (size 3 to 8) (size 9 to 14) (size 15 to 20)
#    0.000    1.600    4.000    3.600    0.000    4.000 
#    3.600    0.000    0.000    0.000    0.000    5.600 
#    0.000    0.000    0.000    0.000    0.000    0.000 
#
# Total GULP energy -111790.726429 kJ/mol
# GULP energy per Si atom -5589.536321 kJ/mol
# Density = 2.343504 g / cm^3
# Si number density = 23.488497 Si / 1000 Ang^3
#
#
#
# Elastic Constant Matrix: (Units=GPa)
#
#
# Indices 1 2 3 4 5 6 
#
# 1 117.9453 16.2439 48.4508 0.0000 0.0000 0.0000
# 2 16.2439 16.0302 -8.7442 0.0000 0.0000 0.0000
# 3 48.4508 -8.7442 96.5073 0.0000 0.0000 0.0000
# 4 0.0000 0.0000 0.0000 14.9782 0.0000 0.0000
# 5 0.0000 0.0000 0.0000 0.0000 42.3460 0.0000
# 6 0.0000 0.0000 0.0000 0.0000 0.0000 20.2652
#
#
#
# Elastic Compliance Matrix: (Units=1/GPa)
#
#
# Indices 1 2 3 4 5 6 
#
# 1 0.015225 -0.020617 -0.009512 0.000000 0.000000 0.000000
# 2 -0.020617 0.093543 0.018826 0.000000 0.000000 0.000000
# 3 -0.009512 0.018826 0.016843 0.000000 0.000000 0.000000
# 4 0.000000 0.000000 0.000000 0.066764 0.000000 0.000000
# 5 0.000000 0.000000 0.000000 0.000000 0.023615 0.000000
# 6 0.000000 0.000000 0.000000 0.000000 0.000000 0.049346
#
#
# Mechanical properties :
#
#
# Convention : Reuss Voigt Hill
#
# Bulk Modulus (GPa) = 9.70813 38.04264 23.87538
# Shear Modulus (GPa) = 15.51467 27.15337 21.33402
#
# Velocity S-wave (km/s) = 2.57285 3.40373 3.01703
# Velocity P-wave (km/s) = 3.60114 5.62838 4.72477
#
# Compressibility (1/GPa) = 0.10300648
#
# Stress axis : x y z
#
# Youngs Moduli (GPa) = 65.68038 10.69028 59.37191
#
# Poissons Ratio (x) = 0.22040 0.56473
# Poissons Ratio (y) = 1.35411 -1.11774
# Poissons Ratio (z) = 0.62473 -0.20126
#
# Static dielectric constant tensor:
#      x y z
#    x 1.894260 0.000000 0.000000 
#    y 0.000000 1.935380 0.000000 
#    z 0.000000 0.000000 1.907070 
# 
# From -- ./inp_files/5401.got.cif
#   From: 2010.05.17/outbox.cif.g08.bks.cpg/sg46_3_cif.got.tgz:5401.got - 2010.06.03 19:58:25.
