data_PCOD9378844
_publ_section_title
;
Structure prediction by ZEFSAII (Michael W. Deem and Ramdas Pophale) SiO2 
 PCOD9378844
Probable space group: I M A 2
;
_chemical_formula_sum "Si O2"
_cell_formula_units_Z 60
_cell_length_a 11.602432
_cell_length_b 25.988011
_cell_length_c 9.155825
_cell_angle_alpha 90.000000
_cell_angle_beta 90.000000
_cell_angle_gamma 90.000000
_cell_volume 2760.702172
_symmetry_space_group_name_H-M "I M A 2"
_symmetry_group_IT_number 46
_symmetry_cell_setting 'orthorhombic'
loop_
_space_group_symop_operation_xyz
x,y,z
-x,-y,z
1/2-x,y,z
1/2+x,-y,z
1/2+x,1/2+y,1/2+z
1/2-x,1/2-y,1/2+z
-x,1/2+y,1/2+z
x,1/2-y,1/2+z
loop_
_atom_site_type_symbol
_atom_site_label
_atom_site_fract_x
_atom_site_fract_y
_atom_site_fract_z
Si Si1 0.121915 0.573924 0.222220
Si Si2 0.532554 0.757268 0.984994
Si Si3 0.123135 0.973589 0.403438
Si Si4 0.376260 0.875066 0.196290
Si Si5 0.750000 0.903422 0.148833
Si Si6 0.115691 0.696253 0.224064
Si Si7 0.476436 0.442223 0.489223
Si Si8 0.911320 0.818330 0.253473
O O1 0.250000 0.564246 0.291400
O O2 0.113616 0.635026 0.195390
O O3 0.013365 0.558783 0.320820
O O4 0.121384 0.542517 0.072140
O O5 0.449115 0.724764 0.091310
O O6 0.607288 0.792274 0.095273
O O7 0.456140 0.790143 0.870892
O O8 0.610629 0.719720 0.886161
O O9 0.250000 0.000748 0.370077
O O10 0.127318 0.921100 0.312254
O O11 0.000000 0.000000 0.371321
O O12 0.250000 0.856790 0.159202
O O13 0.452712 0.829572 0.258401
O O14 0.436616 0.900704 0.058124
O O15 0.848686 0.872687 0.248073
O O16 0.851206 0.926729 0.042318
O O17 0.250000 0.711563 0.236946
O O18 0.500000 0.500000 0.543054
#
# Coordination Sequence:
#
# PCOD9378844 Si02
#       8
#     8   8   8   8   4   8   8   8
#     4  10  21  37  60  86 127 164 202 257 326 382
#     4  10  21  35  60  85 124 162 209 256 303 381
#     4  10  21  40  60  88 123 169 217 265 328 394
#     4  10  21  38  62  86 124 164 204 257 323 378
#     4  10  24  42  62  88 124 160 202 260 308 378
#     4  10  19  33  55  89 123 161 202 255 310 373
#     4  11  23  39  62  90 119 154 209 261 317 376
#     4  10  22  41  59  91 122 165 208 258 314 371
#
# _framework density 21.733599999999999
#
# number of rings (size 3 to 8) (size 9 to 14) (size 15 to 20)
#    0.000    1.867    0.000    4.000    1.867    5.867 
#    8.400    0.000    0.000    4.000    0.000    0.000 
#    0.000    0.000    0.000    0.000    0.000    0.000 
#
# Total GULP energy -167027.686941 kJ/mol
# GULP energy per Si atom -5567.589565 kJ/mol
# Density = 2.168413 g / cm^3
# Si number density = 21.733600 Si / 1000 Ang^3
#
#
#
# Elastic Constant Matrix: (Units=GPa)
#
#
# Indices 1 2 3 4 5 6 
#
# 1 136.2707 21.6659 10.5056 0.0002 -0.0001 -0.0001
# 2 21.6659 47.8927 -5.8159 0.0005 -0.0002 -0.0001
# 3 10.5056 -5.8159 67.1150 0.0017 -0.0004 -0.0004
# 4 0.0002 0.0005 0.0017 16.7459 -0.0006 -0.0003
# 5 -0.0001 -0.0002 -0.0004 -0.0006 13.7719 0.0000
# 6 -0.0001 -0.0001 -0.0004 -0.0003 0.0000 18.5448
#
#
#
# Elastic Compliance Matrix: (Units=1/GPa)
#
#
# Indices 1 2 3 4 5 6 
#
# 1 0.008073 -0.003846 -0.001597 0.000000 0.000000 0.000000
# 2 -0.003846 0.022934 0.002589 -0.000001 0.000000 0.000000
# 3 -0.001597 0.002589 0.015374 -0.000002 0.000000 0.000000
# 4 0.000000 -0.000001 -0.000002 0.059716 0.000003 0.000001
# 5 0.000000 0.000000 0.000000 0.000003 0.072612 0.000000
# 6 0.000000 0.000000 0.000000 0.000001 0.000000 0.053924
#
#
# Mechanical properties :
#
#
# Convention : Reuss Voigt Hill
#
# Bulk Modulus (GPa) = 24.58551 33.77663 29.18107
# Shear Modulus (GPa) = 19.84929 24.80735 22.32832
#
# Velocity S-wave (km/s) = 3.02536 3.38217 3.20873
# Velocity P-wave (km/s) = 4.85186 5.55221 5.21381
#
# Compressibility (1/GPa) = 0.04067437
#
# Stress axis : x y z
#
# Youngs Moduli (GPa) = 123.87075 43.60277 65.04418
#
# Poissons Ratio (x) = 0.16770 0.10387
# Poissons Ratio (y) = 0.47641 -0.16843
# Poissons Ratio (z) = 0.19782 -0.11291
#
# Static dielectric constant tensor:
#      x y z
#    x 1.869470 0.000000 0.000000 
#    y 0.000000 1.964840 0.000000 
#    z 0.000000 0.000000 1.829990 
# 
# From -- ./inp_files/4912.got.cif
#   From: 2010.05.17/outbox.cif.g08.bks.cpg/sg46_3_cif.got.tgz:4912.got - 2010.06.03 19:58:25.
