data_PCOD9378114
_publ_section_title
;
Structure prediction by ZEFSAII (Michael W. Deem and Ramdas Pophale) SiO2 
 PCOD9378114
Probable space group: I M A 2
;
_chemical_formula_sum "Si O2"
_cell_formula_units_Z 64
_cell_length_a 8.906301
_cell_length_b 23.908035
_cell_length_c 19.613272
_cell_angle_alpha 90.000000
_cell_angle_beta 90.000000
_cell_angle_gamma 90.000000
_cell_volume 4176.296294
_symmetry_space_group_name_H-M "I M A 2"
_symmetry_group_IT_number 46
_symmetry_cell_setting 'orthorhombic'
loop_
_space_group_symop_operation_xyz
x,y,z
-x,-y,z
1/2-x,y,z
1/2+x,-y,z
1/2+x,1/2+y,1/2+z
1/2-x,1/2-y,1/2+z
-x,1/2+y,1/2+z
x,1/2-y,1/2+z
loop_
_atom_site_type_symbol
_atom_site_label
_atom_site_fract_x
_atom_site_fract_y
_atom_site_fract_z
Si Si1 0.069573 0.060577 0.426520
Si Si2 0.930223 0.835649 0.518022
Si Si3 0.430950 0.746376 0.790326
Si Si4 0.431013 0.939186 0.145866
Si Si5 0.930649 0.336841 0.552851
Si Si6 0.930905 0.114379 0.291672
Si Si7 0.429503 0.274297 0.431386
Si Si8 0.430274 0.726097 0.139418
O O1 0.250000 0.057249 0.424687
O O2 0.024941 0.105994 0.483867
O O3 0.010529 0.084077 0.354419
O O4 0.000000 0.000000 0.439103
O O5 0.750000 0.834599 0.523500
O O6 0.974019 0.784971 0.466859
O O7 0.999832 0.820826 0.590925
O O8 0.250000 0.750124 0.794679
O O9 0.469040 0.680217 0.790350
O O10 0.503560 0.774646 0.856013
O O11 0.478773 0.772354 0.717957
O O12 0.250000 0.942657 0.144475
O O13 0.476897 0.894636 0.088098
O O14 0.472394 0.914024 0.219892
O O15 0.500000 0.000000 0.136520
O O16 0.750000 0.336885 0.544844
O O17 0.967893 0.285962 0.604722
O O18 0.006671 0.321679 0.481470
O O19 0.750000 0.109879 0.299472
O O20 0.250000 0.276723 0.429197
O O21 0.250000 0.721243 0.137955
#
# Coordination Sequence:
#
# PCOD9378114 Si02
#       8
#     8   8   8   8   8   8   8   8
#     4  11  22  35  48  67  96 130 168 203 236 278
#     4   9  19  33  46  66  96 124 155 199 242 279
#     4  10  18  30  49  73  98 128 161 194 235 286
#     4  10  20  33  48  68  96 129 167 203 237 278
#     4   9  17  32  49  67  92 125 161 200 238 278
#     4  10  19  32  48  68  97 132 167 198 230 275
#     4  10  19  31  47  70  97 124 157 197 242 288
#     4   9  17  30  50  71  92 121 160 197 234 283
#
# _framework density 15.324583000000001
#
# number of rings (size 3 to 8) (size 9 to 14) (size 15 to 20)
#    0.000    2.250    2.500    1.125    0.000    4.000 
#    0.000    0.000    0.000    0.000    0.000    0.875 
#    0.000    6.000    0.000    0.000    0.000    0.000 
#
# Total GULP energy -178496.368791 kJ/mol
# GULP energy per Si atom -5578.011525 kJ/mol
# Density = 1.528970 g / cm^3
# Si number density = 15.324583 Si / 1000 Ang^3
#
#
#
# Elastic Constant Matrix: (Units=GPa)
#
#
# Indices 1 2 3 4 5 6 
#
# 1 20.8062 34.7708 42.5714 0.0000 0.0000 0.0000
# 2 34.7708 108.7725 82.4844 0.0000 0.0000 0.0000
# 3 42.5714 82.4844 155.3450 0.0000 0.0000 0.0000
# 4 0.0000 0.0000 0.0000 18.8561 0.0000 0.0000
# 5 0.0000 0.0000 0.0000 0.0000 22.9211 0.0000
# 6 0.0000 0.0000 0.0000 0.0000 0.0000 22.9085
#
#
#
# Elastic Compliance Matrix: (Units=1/GPa)
#
#
# Indices 1 2 3 4 5 6 
#
# 1 0.145737 -0.027289 -0.025449 0.000000 0.000000 0.000000
# 2 -0.027289 0.020500 -0.003407 0.000000 0.000000 0.000000
# 3 -0.025449 -0.003407 0.015220 0.000000 0.000000 0.000000
# 4 0.000000 0.000000 0.000000 0.053033 0.000000 0.000000
# 5 0.000000 0.000000 0.000000 0.000000 0.043628 0.000000
# 6 0.000000 0.000000 0.000000 0.000000 0.000000 0.043652
#
#
# Mechanical properties :
#
#
# Convention : Reuss Voigt Hill
#
# Bulk Modulus (GPa) = 14.45732 67.17520 40.81626
# Shear Modulus (GPa) = 10.93815 21.27695 16.10755
#
# Velocity S-wave (km/s) = 2.67454 3.73019 3.24557
# Velocity P-wave (km/s) = 4.35799 7.90459 6.38258
#
# Compressibility (1/GPa) = 0.06916911
#
# Stress axis : x y z
#
# Youngs Moduli (GPa) = 6.86166 48.77994 65.70187
#
# Poissons Ratio (x) = 1.33115 1.67203
# Poissons Ratio (y) = 0.18725 0.22383
# Poissons Ratio (z) = 0.17462 0.16618
#
# Static dielectric constant tensor:
#      x y z
#    x 1.512590 0.000000 0.000000 
#    y 0.000000 1.491710 0.000000 
#    z 0.000000 0.000000 1.499070 
# 
# From -- ./inp_files/18588.got.cif
#   From: 2010.05.17/outbox.cif.g08.bks.cpg/sg46_10_cif.got.tgz:18588.got - 2010.06.03 19:58:25.
