data_PCOD9378623
_publ_section_title
;
Structure prediction by ZEFSAII (Michael W. Deem and Ramdas Pophale) SiO2 
 PCOD9378623
Probable space group: I M A 2
;
_chemical_formula_sum "Si O2"
_cell_formula_units_Z 64
_cell_length_a 8.523085
_cell_length_b 31.168728
_cell_length_c 14.950097
_cell_angle_alpha 90.000000
_cell_angle_beta 90.000000
_cell_angle_gamma 90.000000
_cell_volume 3971.548854
_symmetry_space_group_name_H-M "I M A 2"
_symmetry_group_IT_number 46
_symmetry_cell_setting 'orthorhombic'
loop_
_space_group_symop_operation_xyz
x,y,z
-x,-y,z
1/2-x,y,z
1/2+x,-y,z
1/2+x,1/2+y,1/2+z
1/2-x,1/2-y,1/2+z
-x,1/2+y,1/2+z
x,1/2-y,1/2+z
loop_
_atom_site_type_symbol
_atom_site_label
_atom_site_fract_x
_atom_site_fract_y
_atom_site_fract_z
Si Si1 0.559804 0.823474 0.754440
Si Si2 0.939742 0.866928 0.569754
Si Si3 0.061584 0.274891 0.749054
Si Si4 0.438704 0.368879 0.435169
Si Si5 0.437060 0.547550 0.359845
Si Si6 0.562513 0.205046 0.440927
Si Si7 0.438438 0.047247 0.659230
Si Si8 0.561895 0.291091 0.551583
O O1 0.750000 0.824689 0.755464
O O2 0.510030 0.844033 0.661867
O O3 0.510409 0.774549 0.759151
O O4 0.505817 0.848770 0.840852
O O5 0.750000 0.864961 0.562404
O O6 0.984135 0.916467 0.587174
O O7 0.011337 0.838035 0.492194
O O8 0.250000 0.276951 0.744547
O O9 0.004571 0.296228 0.840663
O O10 0.993732 0.289629 0.654203
O O11 0.250000 0.370335 0.437737
O O12 0.503607 0.417077 0.430334
O O13 0.497717 0.334729 0.507503
O O14 0.500000 0.500000 0.380791
O O15 0.250000 0.547063 0.356659
O O16 0.500386 0.557859 0.259383
O O17 0.750000 0.207467 0.437185
O O18 0.507450 0.248098 0.496181
O O19 0.250000 0.046848 0.664896
O O20 0.500000 0.000000 0.636753
O O21 0.750000 0.291167 0.548196
#
# Coordination Sequence:
#
# PCOD9378623 Si02
#       8
#     8   8   8   8   8   8   8   8
#     4   9  17  29  49  73 101 135 175 216 251 296
#     4  10  19  34  52  73 101 139 181 213 253 311
#     4  11  21  36  55  73  98 141 184 219 257 304
#     4  11  20  35  54  76 103 140 181 217 258 313
#     4  11  21  33  50  75 106 140 174 215 263 314
#     4  11  23  35  50  76 107 137 172 219 266 307
#     4  10  19  32  50  74 104 138 175 217 261 313
#     4  11  23  36  50  76 108 138 173 218 266 311
#
# _framework density 16.114619999999999
#
# number of rings (size 3 to 8) (size 9 to 14) (size 15 to 20)
#    0.000    1.500    3.750    3.750    0.000    2.000 
#    0.000    0.000    0.000    0.000    0.000    0.875 
#    0.000    2.000    0.000    0.000    0.000    0.000 
#
# Total GULP energy -178532.593285 kJ/mol
# GULP energy per Si atom -5579.143540 kJ/mol
# Density = 1.607794 g / cm^3
# Si number density = 16.114620 Si / 1000 Ang^3
#
#
#
# Elastic Constant Matrix: (Units=GPa)
#
#
# Indices 1 2 3 4 5 6 
#
# 1 66.3193 36.7509 25.4676 0.0000 0.0000 0.0000
# 2 36.7509 121.4921 50.2042 0.0000 0.0000 0.0000
# 3 25.4676 50.2042 91.2818 0.0002 0.0000 0.0000
# 4 0.0000 0.0000 0.0002 20.2676 0.0000 0.0000
# 5 0.0000 0.0000 0.0000 0.0000 22.0604 0.0000
# 6 0.0000 0.0000 0.0000 0.0000 0.0000 23.6801
#
#
#
# Elastic Compliance Matrix: (Units=1/GPa)
#
#
# Indices 1 2 3 4 5 6 
#
# 1 0.018621 -0.004511 -0.002714 0.000000 0.000000 0.000000
# 2 -0.004511 0.011745 -0.005201 0.000000 0.000000 0.000000
# 3 -0.002714 -0.005201 0.014573 0.000000 0.000000 0.000000
# 4 0.000000 0.000000 0.000000 0.049340 0.000000 0.000000
# 5 0.000000 0.000000 0.000000 0.000000 0.045330 0.000000
# 6 0.000000 0.000000 0.000000 0.000000 0.000000 0.042230
#
#
# Mechanical properties :
#
#
# Convention : Reuss Voigt Hill
#
# Bulk Modulus (GPa) = 49.78605 55.99319 52.88962
# Shear Modulus (GPa) = 23.43178 24.31297 23.87238
#
# Velocity S-wave (km/s) = 3.81736 3.88848 3.85309
# Velocity P-wave (km/s) = 7.09871 7.41503 7.25859
#
# Compressibility (1/GPa) = 0.02008595
#
# Stress axis : x y z
#
# Youngs Moduli (GPa) = 53.70373 85.14424 68.62118
#
# Poissons Ratio (x) = 0.38410 0.18624
# Poissons Ratio (y) = 0.24227 0.35689
# Poissons Ratio (z) = 0.14576 0.44283
#
# Static dielectric constant tensor:
#      x y z
#    x 1.544730 0.000000 0.000000 
#    y 0.000000 1.560600 0.000000 
#    z 0.000000 0.000000 1.527370 
# 
# From -- ./inp_files/14763.got.cif
#   From: 2010.05.17/outbox.cif.g08.bks.cpg/sg46_8_cif.got.tgz:14763.got - 2010.06.03 19:58:25.
