data_PCOD9378449
_publ_section_title
;
Structure prediction by ZEFSAII (Michael W. Deem and Ramdas Pophale) SiO2 
 PCOD9378449
Probable space group: I M A 2
;
_chemical_formula_sum "Si O2"
_cell_formula_units_Z 64
_cell_length_a 30.390160
_cell_length_b 5.298452
_cell_length_c 20.176937
_cell_angle_alpha 90.000000
_cell_angle_beta 90.000000
_cell_angle_gamma 90.000000
_cell_volume 3248.906619
_symmetry_space_group_name_H-M "I M A 2"
_symmetry_group_IT_number 46
_symmetry_cell_setting 'orthorhombic'
loop_
_space_group_symop_operation_xyz
x,y,z
-x,-y,z
1/2-x,y,z
1/2+x,-y,z
1/2+x,1/2+y,1/2+z
1/2-x,1/2-y,1/2+z
-x,1/2+y,1/2+z
x,1/2-y,1/2+z
loop_
_atom_site_type_symbol
_atom_site_label
_atom_site_fract_x
_atom_site_fract_y
_atom_site_fract_z
Si Si1 0.952635 0.038652 0.495870
Si Si2 0.547613 0.539897 0.406763
Si Si3 0.697368 0.344638 0.213388
Si Si4 0.359202 0.063012 0.894180
Si Si5 0.863313 0.826847 0.530761
Si Si6 0.303375 0.158727 0.291999
Si Si7 0.298753 0.790109 0.460686
Si Si8 0.799402 0.499140 0.595156
O O1 0.953234 0.821035 0.438721
O O2 0.908945 0.977549 0.538340
O O3 0.950526 0.314511 0.462115
O O4 0.000000 0.000000 0.530516
O O5 0.500000 0.500000 0.373203
O O6 0.592511 0.515022 0.364721
O O7 0.750000 0.359516 0.215380
O O8 0.683149 0.613852 0.241598
O O9 0.687839 0.241476 0.139684
O O10 0.685044 0.109095 0.260142
O O11 0.331182 0.275942 0.857354
O O12 0.371386 0.130173 0.970467
O O13 0.326096 0.830374 0.901279
O O14 0.839599 0.694219 0.592459
O O15 0.826523 0.000689 0.497498
O O16 0.250000 0.170241 0.302170
O O17 0.250000 0.871389 0.440646
O O18 0.294068 0.582072 0.518902
O O19 0.750000 0.590093 0.617349
#
# Coordination Sequence:
#
# PCOD9378449 Si02
#       8
#     8   8   8   8   8   8   8   8
#     4   9  17  30  47  69 100 131 160 198 242 294
#     4   9  17  30  48  69  97 131 163 201 242 288
#     4   9  20  36  51  68  92 129 175 214 241 276
#     4  10  20  32  46  72 106 130 166 200 248 311
#     4  10  19  30  48  73 102 133 165 205 250 307
#     4  10  21  34  50  70  97 133 168 204 247 293
#     4  10  19  29  46  71 104 138 162 194 246 300
#     4   9  19  33  48  69  97 132 174 214 245 287
#
# _framework density 19.698936
#
# number of rings (size 3 to 8) (size 9 to 14) (size 15 to 20)
#    0.000    2.500    1.250    0.750    3.500    1.500 
#    0.000    0.000    0.000    0.000    0.000    0.875 
#    3.750    0.000    0.000    0.000    0.000    0.000 
#
# Total GULP energy -178180.676310 kJ/mol
# GULP energy per Si atom -5568.146135 kJ/mol
# Density = 1.965410 g / cm^3
# Si number density = 19.698936 Si / 1000 Ang^3
#
#
#
# Elastic Constant Matrix: (Units=GPa)
#
#
# Indices 1 2 3 4 5 6 
#
# 1 138.6998 13.5869 8.8662 0.0000 0.0000 0.0000
# 2 13.5869 76.6239 15.2707 0.0000 0.0000 0.0000
# 3 8.8662 15.2707 52.8873 0.0000 0.0000 0.0000
# 4 0.0000 0.0000 0.0000 22.2704 0.0000 0.0000
# 5 0.0000 0.0000 0.0000 0.0000 7.4692 0.0000
# 6 0.0000 0.0000 0.0000 0.0000 0.0000 17.4352
#
#
#
# Elastic Compliance Matrix: (Units=1/GPa)
#
#
# Indices 1 2 3 4 5 6 
#
# 1 0.007378 -0.001127 -0.000912 0.000000 0.000000 0.000000
# 2 -0.001127 0.014020 -0.003859 0.000000 0.000000 0.000000
# 3 -0.000912 -0.003859 0.020175 0.000000 0.000000 0.000000
# 4 0.000000 0.000000 0.000000 0.044903 0.000000 0.000000
# 5 0.000000 0.000000 0.000000 0.000000 0.133883 0.000000
# 6 0.000000 0.000000 0.000000 0.000000 0.000000 0.057355
#
#
# Mechanical properties :
#
#
# Convention : Reuss Voigt Hill
#
# Bulk Modulus (GPa) = 33.58136 38.18430 35.88283
# Shear Modulus (GPa) = 16.69808 24.80077 20.74943
#
# Velocity S-wave (km/s) = 2.91463 3.55207 3.24902
# Velocity P-wave (km/s) = 5.33020 6.02071 5.68595
#
# Compressibility (1/GPa) = 0.02977843
#
# Stress axis : x y z
#
# Youngs Moduli (GPa) = 135.52973 71.32846 49.56568
#
# Poissons Ratio (x) = 0.08036 0.04519
# Poissons Ratio (y) = 0.15270 0.19128
# Poissons Ratio (z) = 0.12355 0.27527
#
# Static dielectric constant tensor:
#      x y z
#    x 1.813940 0.000000 0.000000 
#    y 0.000000 1.782940 0.000000 
#    z 0.000000 0.000000 1.733780 
# 
# From -- ./inp_files/22641.got.cif
#   From: 2010.05.17/outbox.cif.g08.bks.cpg/sg46_12_cif.got.tgz:22641.got - 2010.06.03 19:58:25.
