data_PCOD9378633
_publ_section_title
;
Structure prediction by ZEFSAII (Michael W. Deem and Ramdas Pophale) SiO2 
 PCOD9378633
Probable space group: I M A 2
;
_chemical_formula_sum "Si O2"
_cell_formula_units_Z 64
_cell_length_a 8.429256
_cell_length_b 30.894643
_cell_length_c 15.105176
_cell_angle_alpha 90.000000
_cell_angle_beta 90.000000
_cell_angle_gamma 90.000000
_cell_volume 3933.672637
_symmetry_space_group_name_H-M "I M A 2"
_symmetry_group_IT_number 46
_symmetry_cell_setting 'orthorhombic'
loop_
_space_group_symop_operation_xyz
x,y,z
-x,-y,z
1/2-x,y,z
1/2+x,-y,z
1/2+x,1/2+y,1/2+z
1/2-x,1/2-y,1/2+z
-x,1/2+y,1/2+z
x,1/2-y,1/2+z
loop_
_atom_site_type_symbol
_atom_site_label
_atom_site_fract_x
_atom_site_fract_y
_atom_site_fract_z
Si Si1 0.942050 0.202281 0.513630
Si Si2 0.061363 0.451900 0.594184
Si Si3 0.564010 0.278095 0.207317
Si Si4 0.439350 0.635448 0.537568
Si Si5 0.943250 0.211489 0.905334
Si Si6 0.064858 0.184519 0.205645
Si Si7 0.061787 0.547314 0.793740
Si Si8 0.938318 0.630743 0.883639
O O1 0.750000 0.204285 0.515211
O O2 0.001618 0.203418 0.615047
O O3 0.996007 0.245382 0.459154
O O4 0.994403 0.159045 0.463698
O O5 0.250000 0.450595 0.588347
O O6 0.000000 0.500000 0.573226
O O7 0.987152 0.414646 0.532989
O O8 0.012503 0.443234 0.696773
O O9 0.750000 0.289476 0.209600
O O10 0.496731 0.289402 0.304208
O O11 0.543308 0.226611 0.198895
O O12 0.250000 0.638661 0.550345
O O13 0.483564 0.667756 0.457901
O O14 0.527279 0.653998 0.623505
O O15 0.750000 0.214150 0.902404
O O16 0.250000 0.197234 0.204959
O O17 0.031175 0.159432 0.295999
O O18 0.250000 0.546015 0.782478
O O19 0.000000 0.500000 0.820619
O O20 0.014381 0.584405 0.862709
O O21 0.750000 0.625505 0.893197
#
# Coordination Sequence:
#
# PCOD9378633 Si02
#       8
#     8   8   8   8   8   8   8   8
#     4  10  19  32  51  73  96 133 176 211 251 302
#     4  11  21  34  50  74 103 134 167 206 250 301
#     4  10  19  34  51  69  99 134 173 216 253 300
#     4  11  20  33  51  73  99 136 173 208 250 301
#     4   9  18  31  50  74  98 129 171 212 252 298
#     4  11  21  30  45  70 101 134 170 211 252 297
#     4  11  21  34  53  75 102 135 167 206 249 302
#     4  11  22  34  48  72 104 137 171 210 251 300
#
# _framework density 16.269781999999999
#
# number of rings (size 3 to 8) (size 9 to 14) (size 15 to 20)
#    0.000    1.500    3.750    4.125    0.000    1.500 
#    0.000    1.250    0.000    0.000    0.000    0.875 
#    0.000    4.000    0.000    0.000    0.000    0.000 
#
# Total GULP energy -178570.041567 kJ/mol
# GULP energy per Si atom -5580.313799 kJ/mol
# Density = 1.623275 g / cm^3
# Si number density = 16.269782 Si / 1000 Ang^3
#
#
#
# Elastic Constant Matrix: (Units=GPa)
#
#
# Indices 1 2 3 4 5 6 
#
# 1 19.0106 4.0391 9.5072 0.0000 0.0000 0.0000
# 2 4.0391 95.7320 34.5516 0.0000 0.0000 0.0000
# 3 9.5072 34.5516 83.3786 0.0001 0.0000 0.0000
# 4 0.0000 0.0000 0.0001 19.4286 0.0000 0.0000
# 5 0.0000 0.0000 0.0000 0.0000 9.1859 0.0000
# 6 0.0000 0.0000 0.0000 0.0000 0.0000 23.8084
#
#
#
# Elastic Compliance Matrix: (Units=1/GPa)
#
#
# Indices 1 2 3 4 5 6 
#
# 1 0.055784 -0.000068 -0.006333 0.000000 0.000000 0.000000
# 2 -0.000068 0.012283 -0.005082 0.000000 0.000000 0.000000
# 3 -0.006333 -0.005082 0.014822 0.000000 0.000000 0.000000
# 4 0.000000 0.000000 0.000000 0.051471 0.000000 0.000000
# 5 0.000000 0.000000 0.000000 0.000000 0.108862 0.000000
# 6 0.000000 0.000000 0.000000 0.000000 0.000000 0.042002
#
#
# Mechanical properties :
#
#
# Convention : Reuss Voigt Hill
#
# Bulk Modulus (GPa) = 16.68819 32.70190 24.69504
# Shear Modulus (GPa) = 15.23634 20.48614 17.86124
#
# Velocity S-wave (km/s) = 3.06352 3.55230 3.31693
# Velocity P-wave (km/s) = 4.77420 6.08018 5.46633
#
# Compressibility (1/GPa) = 0.05992263
#
# Stress axis : x y z
#
# Youngs Moduli (GPa) = 17.92637 81.41351 67.46915
#
# Poissons Ratio (x) = 0.00554 0.42725
# Poissons Ratio (y) = 0.00122 0.34289
# Poissons Ratio (z) = 0.11352 0.41376
#
# Static dielectric constant tensor:
#      x y z
#    x 1.553070 0.000000 0.000000 
#    y 0.000000 1.543440 0.000000 
#    z 0.000000 0.000000 1.555260 
# 
# From -- ./inp_files/14746.got.cif
#   From: 2010.05.17/outbox.cif.g08.bks.cpg/sg46_8_cif.got.tgz:14746.got - 2010.06.03 19:58:25.
