data_PCOD9378647
_publ_section_title
;
Structure prediction by ZEFSAII (Michael W. Deem and Ramdas Pophale) SiO2 
 PCOD9378647
Probable space group: I M A 2
;
_chemical_formula_sum "Si O2"
_cell_formula_units_Z 64
_cell_length_a 8.622905
_cell_length_b 16.530991
_cell_length_c 23.101227
_cell_angle_alpha 90.000000
_cell_angle_beta 90.000000
_cell_angle_gamma 90.000000
_cell_volume 3292.968213
_symmetry_space_group_name_H-M "I M A 2"
_symmetry_group_IT_number 46
_symmetry_cell_setting 'orthorhombic'
loop_
_space_group_symop_operation_xyz
x,y,z
-x,-y,z
1/2-x,y,z
1/2+x,-y,z
1/2+x,1/2+y,1/2+z
1/2-x,1/2-y,1/2+z
-x,1/2+y,1/2+z
x,1/2-y,1/2+z
loop_
_atom_site_type_symbol
_atom_site_label
_atom_site_fract_x
_atom_site_fract_y
_atom_site_fract_z
Si Si1 0.568208 0.581800 0.539030
Si Si2 0.572094 0.297637 0.954606
Si Si3 0.427964 0.888012 0.917282
Si Si4 0.936009 0.757297 0.573651
Si Si5 0.063204 0.268535 0.200773
Si Si6 0.563029 0.411734 0.283278
Si Si7 0.937105 0.088673 0.224900
Si Si8 0.563403 0.084234 0.359502
O O1 0.500000 0.500000 0.564350
O O2 0.750000 0.581101 0.548267
O O3 0.532294 0.582130 0.470324
O O4 0.502698 0.664924 0.565519
O O5 0.750000 0.322585 0.964628
O O6 0.575364 0.207332 0.929668
O O7 0.501484 0.349322 0.903072
O O8 0.487805 0.301854 0.015714
O O9 0.250000 0.918469 0.923550
O O10 0.480973 0.903579 0.851676
O O11 0.750000 0.752572 0.573618
O O12 0.981950 0.794028 0.635155
O O13 0.250000 0.267723 0.206561
O O14 0.996982 0.333879 0.246744
O O15 0.004213 0.174990 0.203493
O O16 0.500000 0.500000 0.263430
O O17 0.750000 0.411445 0.280655
O O18 0.750000 0.088727 0.218615
O O19 0.982453 0.092906 0.292940
O O20 0.000000 0.000000 0.204353
O O21 0.750000 0.086619 0.359506
O O22 0.500000 0.000000 0.381213
#
# Coordination Sequence:
#
# PCOD9378647 Si02
#       8
#     8   8   8   8   8   8   8   8
#     4  10  19  32  51  77 108 139 171 209 258 316
#     4   9  17  32  54  78 104 136 173 213 262 320
#     4   9  18  33  54  80 109 138 170 213 266 324
#     4   9  21  38  53  73 102 136 178 225 266 312
#     4  11  23  40  59  80 110 149 193 237 280 327
#     4  11  23  39  59  84 113 146 186 232 282 334
#     4  10  20  36  58  86 119 151 185 226 275 332
#     4   9  18  32  51  78 109 137 169 213 265 323
#
# _framework density 19.435354
#
# number of rings (size 3 to 8) (size 9 to 14) (size 15 to 20)
#    0.000    2.250    0.000    2.625    0.000    7.000 
#    0.000    4.375    0.000    1.500    0.000    0.000 
#    0.000    0.000    0.000    0.000    0.000    0.000 
#
# Total GULP energy -178329.191621 kJ/mol
# GULP energy per Si atom -5572.787238 kJ/mol
# Density = 1.939112 g / cm^3
# Si number density = 19.435354 Si / 1000 Ang^3
#
#
#
# Elastic Constant Matrix: (Units=GPa)
#
#
# Indices 1 2 3 4 5 6 
#
# 1 32.2780 19.1926 19.4461 0.0000 0.0000 0.0000
# 2 19.1926 64.0488 35.5365 0.0000 0.0000 0.0000
# 3 19.4461 35.5365 99.5686 0.0000 0.0000 0.0000
# 4 0.0000 0.0000 0.0000 2.8430 0.0000 0.0000
# 5 0.0000 0.0000 0.0000 0.0000 18.6868 0.0000
# 6 0.0000 0.0000 0.0000 0.0000 0.0000 29.8937
#
#
#
# Elastic Compliance Matrix: (Units=1/GPa)
#
#
# Indices 1 2 3 4 5 6 
#
# 1 0.039127 -0.009333 -0.004311 0.000000 0.000000 0.000000
# 2 -0.009333 0.021694 -0.005920 0.000000 0.000000 0.000000
# 3 -0.004311 -0.005920 0.012998 0.000000 0.000000 0.000000
# 4 0.000000 0.000000 0.000000 0.351747 0.000000 0.000000
# 5 0.000000 0.000000 0.000000 0.000000 0.053514 0.000000
# 6 0.000000 0.000000 0.000000 0.000000 0.000000 0.033452
#
#
# Mechanical properties :
#
#
# Convention : Reuss Voigt Hill
#
# Bulk Modulus (GPa) = 28.82482 38.24951 33.53716
# Shear Modulus (GPa) = 8.87746 18.39937 13.63842
#
# Velocity S-wave (km/s) = 2.13953 3.08018 2.65190
# Velocity P-wave (km/s) = 4.57895 5.68974 5.16430
#
# Compressibility (1/GPa) = 0.03469233
#
# Stress axis : x y z
#
# Youngs Moduli (GPa) = 25.55759 46.09477 76.93423
#
# Poissons Ratio (x) = 0.43020 0.33164
# Poissons Ratio (y) = 0.23853 0.45546
# Poissons Ratio (z) = 0.11017 0.27288
#
# Static dielectric constant tensor:
#      x y z
#    x 1.680860 0.000000 0.000000 
#    y 0.000000 1.717010 0.000000 
#    z 0.000000 0.000000 1.695840 
# 
# From -- ./inp_files/23174.got.cif
#   From: 2010.05.17/outbox.cif.g08.bks.cpg/sg46_12_cif.got.tgz:23174.got - 2010.06.03 19:58:25.
