data_PCOD9378357
_publ_section_title
;
Structure prediction by ZEFSAII (Michael W. Deem and Ramdas Pophale) SiO2 
 PCOD9378357
Probable space group: I M A 2
;
_chemical_formula_sum "Si O2"
_cell_formula_units_Z 28
_cell_length_a 5.494507
_cell_length_b 7.154181
_cell_length_c 33.352737
_cell_angle_alpha 90.000000
_cell_angle_beta 90.000000
_cell_angle_gamma 90.000000
_cell_volume 1311.052652
_symmetry_space_group_name_H-M "I M A 2"
_symmetry_group_IT_number 46
_symmetry_cell_setting 'orthorhombic'
loop_
_space_group_symop_operation_xyz
x,y,z
-x,-y,z
1/2-x,y,z
1/2+x,-y,z
1/2+x,1/2+y,1/2+z
1/2-x,1/2-y,1/2+z
-x,1/2+y,1/2+z
x,1/2-y,1/2+z
loop_
_atom_site_type_symbol
_atom_site_label
_atom_site_fract_x
_atom_site_fract_y
_atom_site_fract_z
Si Si1 0.750000 0.701951 0.751471
Si Si2 0.250000 0.122486 0.833392
Si Si3 0.750000 0.781809 0.590542
Si Si4 0.250000 0.117062 0.500612
Si Si5 0.750000 0.618096 0.424319
Si Si6 0.750000 0.287479 0.123744
Si Si7 0.750000 0.275081 0.718344
O O1 0.750000 0.718193 0.799448
O O2 0.750000 0.494606 0.731974
O O3 0.502854 0.795219 0.736268
O O4 0.250000 0.197475 0.878976
O O5 0.500000 0.000000 0.828870
O O6 0.750000 0.773319 0.542681
O O7 0.499657 0.703542 0.607439
O O8 0.750000 0.998574 0.606794
O O9 0.250000 0.237215 0.460453
O O10 0.500000 0.000000 0.501246
O O11 0.500000 0.500000 0.427786
O O12 0.750000 0.266282 0.171378
#
# Coordination Sequence:
#
# PCOD9378357 Si02
#       7
#     4   4   4   4   4   4   4
#     4  10  21  40  57  87 116 163 193 264 301 370
#     4  10  21  42  64  89 121 164 210 245 310 385
#     4  10  19  35  58  84 122 157 205 249 298 365
#     4  12  21  40  68 102 130 163 222 271 321 379
#     4  10  23  43  68  94 135 174 209 262 324 403
#     4  10  18  35  55  81 111 168 197 248 298 364
#     4  10  21  37  60  79 125 155 200 251 320 354
#
# _framework density 21.356884999999998
#
# number of rings (size 3 to 8) (size 9 to 14) (size 15 to 20)
#    0.000    1.714    2.857    2.571    0.000    0.000 
#   20.571    0.000   18.857    0.000    0.000    0.000 
#    0.000    0.000    0.000    0.000    0.000    0.000 
#
# Total GULP energy -78129.430083 kJ/mol
# GULP energy per Si atom -5580.673577 kJ/mol
# Density = 2.130828 g / cm^3
# Si number density = 21.356885 Si / 1000 Ang^3
#
#
#
# Elastic Constant Matrix: (Units=GPa)
#
#
# Indices 1 2 3 4 5 6 
#
# 1 242.7594 3.5608 49.4401 0.0000 0.0000 0.0000
# 2 3.5608 53.5790 5.9187 0.0000 0.0000 0.0000
# 3 49.4401 5.9187 184.3077 0.0000 0.0000 0.0000
# 4 0.0000 0.0000 0.0000 22.4235 0.0000 0.0000
# 5 0.0000 0.0000 0.0000 0.0000 39.1970 0.0000
# 6 0.0000 0.0000 0.0000 0.0000 0.0000 -20.5508
#
#
#
# Elastic Compliance Matrix: (Units=1/GPa)
#
#
# Indices 1 2 3 4 5 6 
#
# 1 0.004359 -0.000161 -0.001164 0.000000 0.000000 0.000000
# 2 -0.000161 0.018736 -0.000558 0.000000 0.000000 0.000000
# 3 -0.001164 -0.000558 0.005756 0.000000 0.000000 0.000000
# 4 0.000000 0.000000 0.000000 0.044596 0.000000 0.000000
# 5 0.000000 0.000000 0.000000 0.000000 0.025512 0.000000
# 6 0.000000 0.000000 0.000000 0.000000 0.000000 -0.048660
#
#
# Mechanical properties :
#
#
# Convention : Reuss Voigt Hill
#
# Bulk Modulus (GPa) = 39.86628 66.49835 53.18232
# Shear Modulus (GPa) = 80.09241 36.32905 58.21073
#
# Velocity S-wave (km/s) = 6.13052 4.12885 5.22641
# Velocity P-wave (km/s) = 8.29568 7.34399 7.83430
#
# Compressibility (1/GPa) = 0.02508385
#
# Stress axis : x y z
#
# Youngs Moduli (GPa) = 229.42433 53.37194 173.73488
#
# Poissons Ratio (x) = 0.00860 0.20224
# Poissons Ratio (y) = 0.03696 0.09703
# Poissons Ratio (z) = 0.26706 0.02981
#
# Static dielectric constant tensor:
#      x y z
#    x 1.844790 0.000000 0.000000 
#    y 0.000000 1.753260 0.000000 
#    z 0.000000 0.000000 1.728630 
# 
# From -- ./inp_files/22668.got.cif
#   From: 2010.05.17/outbox.cif.g08.bks.cpg/sg46_12_cif.got.tgz:22668.got - 2010.06.03 19:58:25.
