data_PCOD9378368
_publ_section_title
;
Structure prediction by ZEFSAII (Michael W. Deem and Ramdas Pophale) SiO2 
 PCOD9378368
Probable space group: I M A 2
;
_chemical_formula_sum "Si O2"
_cell_formula_units_Z 64
_cell_length_a 7.803265
_cell_length_b 15.893022
_cell_length_c 24.685682
_cell_angle_alpha 90.000000
_cell_angle_beta 90.000000
_cell_angle_gamma 90.000000
_cell_volume 3061.455637
_symmetry_space_group_name_H-M "I M A 2"
_symmetry_group_IT_number 46
_symmetry_cell_setting 'orthorhombic'
loop_
_space_group_symop_operation_xyz
x,y,z
-x,-y,z
1/2-x,y,z
1/2+x,-y,z
1/2+x,1/2+y,1/2+z
1/2-x,1/2-y,1/2+z
-x,1/2+y,1/2+z
x,1/2-y,1/2+z
loop_
_atom_site_type_symbol
_atom_site_label
_atom_site_fract_x
_atom_site_fract_y
_atom_site_fract_z
Si Si1 0.544213 0.406676 0.814930
Si Si2 0.039313 0.749054 0.244061
Si Si3 0.544270 0.405988 0.318371
Si Si4 0.040922 0.849905 0.431972
Si Si5 0.950924 0.244473 0.621497
Si Si6 0.051421 0.095083 0.054483
Si Si7 0.457314 0.653091 0.435522
Si Si8 0.456336 0.907285 0.548132
O O1 0.500000 0.500000 0.796367
O O2 0.750000 0.399957 0.816955
O O3 0.482785 0.332437 0.775927
O O4 0.479463 0.390806 0.876133
O O5 0.250000 0.749775 0.244108
O O6 0.984319 0.666771 0.277682
O O7 0.978271 0.749241 0.182183
O O8 0.500000 0.500000 0.300932
O O9 0.750000 0.398732 0.320556
O O10 0.481164 0.389250 0.379777
O O11 0.250000 0.852621 0.431449
O O12 0.993864 0.751466 0.434366
O O13 0.979884 0.894718 0.486576
O O14 0.750000 0.225185 0.628089
O O15 0.023761 0.168479 0.585330
O O16 0.962289 0.331734 0.588932
O O17 0.250000 0.105268 0.065660
O O18 0.000000 0.000000 0.068220
O O19 0.019372 0.110765 0.990680
O O20 0.250000 0.649444 0.436658
O O21 0.250000 0.900008 0.545878
O O22 0.500000 0.000000 0.568353
#
# Coordination Sequence:
#
# PCOD9378368 Si02
#       8
#     8   8   8   8   8   8   8   8
#     4  10  19  34  56  82 111 144 182 226 275 331
#     4   9  19  37  60  82 108 150 196 231 274 334
#     4  10  20  35  58  86 116 151 189 232 281 340
#     4   9  16  31  56  81 109 147 183 220 275 337
#     4  10  21  40  62  82 110 152 198 241 283 335
#     4  12  25  40  60  87 117 149 189 238 293 349
#     4  10  18  35  61  85 115 152 191 232 283 345
#     4  10  20  34  55  81 111 146 185 227 280 335
#
# _framework density 20.905087999999999
#
# number of rings (size 3 to 8) (size 9 to 14) (size 15 to 20)
#    0.000    2.000    2.500    1.875    0.000    3.000 
#    0.000    3.750    0.000    0.000    0.000    0.000 
#    0.000    0.000    0.000    0.000    0.000    0.000 
#
# Total GULP energy -178770.810100 kJ/mol
# GULP energy per Si atom -5586.587816 kJ/mol
# Density = 2.085751 g / cm^3
# Si number density = 20.905088 Si / 1000 Ang^3
#
#
#
# Elastic Constant Matrix: (Units=GPa)
#
#
# Indices 1 2 3 4 5 6 
#
# 1 22.3337 -11.8687 0.5546 0.0000 0.0000 0.0000
# 2 -11.8687 178.4914 83.6281 0.0000 0.0000 0.0000
# 3 0.5546 83.6281 164.2393 0.0000 0.0000 0.0000
# 4 0.0000 0.0000 0.0000 4.9064 0.0000 0.0000
# 5 0.0000 0.0000 0.0000 0.0000 -3.6741 0.0000
# 6 0.0000 0.0000 0.0000 0.0000 0.0000 20.3061
#
#
#
# Elastic Compliance Matrix: (Units=1/GPa)
#
#
# Indices 1 2 3 4 5 6 
#
# 1 0.047069 0.004208 -0.002302 0.000000 0.000000 0.000000
# 2 0.004208 0.007734 -0.003952 0.000000 0.000000 0.000000
# 3 -0.002302 -0.003952 0.008109 0.000000 0.000000 0.000000
# 4 0.000000 0.000000 0.000000 0.203815 0.000000 0.000000
# 5 0.000000 0.000000 0.000000 0.000000 -0.272176 0.000000
# 6 0.000000 0.000000 0.000000 0.000000 0.000000 0.049246
#
#
# Mechanical properties :
#
#
# Convention : Reuss Voigt Hill
#
# Bulk Modulus (GPa) = 17.00090 56.63249 36.81670
# Shear Modulus (GPa) = 74.07864 23.82437 48.95150
#
# Velocity S-wave (km/s) = 5.95925 3.37952 4.84427
# Velocity P-wave (km/s) = 7.44985 6.50979 6.99563
#
# Compressibility (1/GPa) = 0.05882041
#
# Stress axis : x y z
#
# Youngs Moduli (GPa) = 21.24543 129.29779 123.32146
#
# Poissons Ratio (x) = -0.54411 0.28385
# Poissons Ratio (y) = -0.08941 0.48740
# Poissons Ratio (z) = 0.04890 0.51102
#
# Static dielectric constant tensor:
#      x y z
#    x 1.760350 0.000000 0.000000 
#    y 0.000000 1.674890 0.000000 
#    z 0.000000 0.000000 1.740700 
# 
# From -- ./inp_files/23149.got.cif
#   From: 2010.05.17/outbox.cif.g08.bks.cpg/sg46_12_cif.got.tgz:23149.got - 2010.06.03 19:58:25.
