data_PCOD9378323
_publ_section_title
;
Structure prediction by ZEFSAII (Michael W. Deem and Ramdas Pophale) SiO2 
 PCOD9378323
Probable space group: I M A 2
;
_chemical_formula_sum "Si O2"
_cell_formula_units_Z 64
_cell_length_a 7.655968
_cell_length_b 21.200624
_cell_length_c 20.351130
_cell_angle_alpha 90.000000
_cell_angle_beta 90.000000
_cell_angle_gamma 90.000000
_cell_volume 3303.218345
_symmetry_space_group_name_H-M "I M A 2"
_symmetry_group_IT_number 46
_symmetry_cell_setting 'orthorhombic'
loop_
_space_group_symop_operation_xyz
x,y,z
-x,-y,z
1/2-x,y,z
1/2+x,-y,z
1/2+x,1/2+y,1/2+z
1/2-x,1/2-y,1/2+z
-x,1/2+y,1/2+z
x,1/2-y,1/2+z
loop_
_atom_site_type_symbol
_atom_site_label
_atom_site_fract_x
_atom_site_fract_y
_atom_site_fract_z
Si Si1 0.540102 0.430342 0.255680
Si Si2 0.036162 0.812651 0.670122
Si Si3 0.536487 0.113556 0.040626
Si Si4 0.460536 0.739454 0.034472
Si Si5 0.039606 0.692747 0.756515
Si Si6 0.050835 0.255115 0.391008
Si Si7 0.459479 0.569761 0.681153
Si Si8 0.449441 0.897220 0.897259
O O1 0.500000 0.500000 0.230998
O O2 0.750000 0.422602 0.259920
O O3 0.476134 0.374873 0.208158
O O4 0.469110 0.422922 0.330155
O O5 0.250000 0.813202 0.669883
O O6 0.979382 0.803254 0.594988
O O7 0.981328 0.751016 0.711058
O O8 0.750000 0.111451 0.038576
O O9 0.488593 0.187477 0.046963
O O10 0.475716 0.078508 0.106083
O O11 0.472299 0.089953 0.969380
O O12 0.250000 0.738251 0.033553
O O13 0.522967 0.723314 0.961650
O O14 0.250000 0.691835 0.753251
O O15 0.975157 0.626750 0.726808
O O16 0.991591 0.709717 0.830785
O O17 0.250000 0.275669 0.385266
O O18 0.945298 0.320828 0.389786
O O19 0.500000 0.500000 0.705459
O O20 0.250000 0.576080 0.678068
O O21 0.250000 0.920634 0.899652
#
# Coordination Sequence:
#
# PCOD9378323 Si02
#       8
#     8   8   8   8   8   8   8   8
#     4  10  20  33  50  75 105 138 174 214 256 304
#     4   9  16  31  57  80  95 127 181 222 246 293
#     4   8  14  27  49  74  96 128 171 209 242 286
#     4   9  16  31  55  77  98 129 174 218 252 303
#     4  10  18  34  57  77  98 135 181 215 248 304
#     4  11  21  31  48  79 111 133 162 215 272 308
#     4  10  20  33  51  75 105 137 173 214 256 304
#     4   9  17  32  53  71  98 142 184 210 239 298
#
# _framework density 19.375043000000002
#
# number of rings (size 3 to 8) (size 9 to 14) (size 15 to 20)
#    0.000    2.500    2.500    1.875    0.000    1.500 
#    0.000    3.750    0.000    0.750    0.000    1.750 
#    0.000    0.000    0.000    0.000    0.000    0.000 
#
# Total GULP energy -178545.645446 kJ/mol
# GULP energy per Si atom -5579.551420 kJ/mol
# Density = 1.933094 g / cm^3
# Si number density = 19.375043 Si / 1000 Ang^3
#
#
#
# Elastic Constant Matrix: (Units=GPa)
#
#
# Indices 1 2 3 4 5 6 
#
# 1 39.4194 -1.7154 -0.8508 0.0000 0.0000 0.0000
# 2 -1.7154 108.2143 67.9780 0.0000 0.0000 0.0000
# 3 -0.8508 67.9780 129.3497 0.0000 0.0000 0.0000
# 4 0.0000 0.0000 0.0000 23.1060 0.0000 0.0000
# 5 0.0000 0.0000 0.0000 0.0000 436.0882 0.0000
# 6 0.0000 0.0000 0.0000 0.0000 0.0000 10.6545
#
#
#
# Elastic Compliance Matrix: (Units=1/GPa)
#
#
# Indices 1 2 3 4 5 6 
#
# 1 0.025386 0.000444 -0.000066 0.000000 0.000000 0.000000
# 2 0.000444 0.013803 -0.007251 0.000000 0.000000 0.000000
# 3 -0.000066 -0.007251 0.011541 0.000000 0.000000 0.000000
# 4 0.000000 0.000000 0.000000 0.043279 0.000000 0.000000
# 5 0.000000 0.000000 0.000000 0.000000 0.002293 0.000000
# 6 0.000000 0.000000 0.000000 0.000000 0.000000 0.093857
#
#
# Mechanical properties :
#
#
# Convention : Reuss Voigt Hill
#
# Bulk Modulus (GPa) = 27.03900 45.31191 36.17545
# Shear Modulus (GPa) = 23.12313 108.07452 65.59882
#
# Velocity S-wave (km/s) = 3.45838 7.47672 5.82502
# Velocity P-wave (km/s) = 5.47111 9.89811 7.99705
#
# Compressibility (1/GPa) = 0.03698361
#
# Stress axis : x y z
#
# Youngs Moduli (GPa) = 39.39163 72.44861 86.64606
#
# Poissons Ratio (x) = -0.03218 0.00576
# Poissons Ratio (y) = -0.01750 0.62827
# Poissons Ratio (z) = 0.00262 0.52532
#
# Static dielectric constant tensor:
#      x y z
#    x 1.727150 0.000000 0.000000 
#    y 0.000000 1.660690 0.000000 
#    z 0.000000 0.000000 1.694280 
# 
# From -- ./inp_files/21435.got.cif
#   From: 2010.05.17/outbox.cif.g08.bks.cpg/sg46_11_cif.got.tgz:21435.got - 2010.06.03 19:58:25.
