data_PCOD9378307
_publ_section_title
;
Structure prediction by ZEFSAII (Michael W. Deem and Ramdas Pophale) SiO2 
 PCOD9378307
Probable space group: I M A 2
;
_chemical_formula_sum "Si O2"
_cell_formula_units_Z 64
_cell_length_a 20.989985
_cell_length_b 15.436694
_cell_length_c 9.781711
_cell_angle_alpha 90.000000
_cell_angle_beta 90.000000
_cell_angle_gamma 90.000000
_cell_volume 3169.430632
_symmetry_space_group_name_H-M "I M A 2"
_symmetry_group_IT_number 46
_symmetry_cell_setting 'orthorhombic'
loop_
_space_group_symop_operation_xyz
x,y,z
-x,-y,z
1/2-x,y,z
1/2+x,-y,z
1/2+x,1/2+y,1/2+z
1/2-x,1/2-y,1/2+z
-x,1/2+y,1/2+z
x,1/2-y,1/2+z
loop_
_atom_site_type_symbol
_atom_site_label
_atom_site_fract_x
_atom_site_fract_y
_atom_site_fract_z
Si Si1 0.176330 0.931304 0.559380
Si Si2 0.173373 0.458736 0.305137
Si Si3 0.875230 0.653665 0.726962
Si Si4 0.322164 0.628336 0.474630
Si Si5 0.584136 0.223663 0.538962
Si Si6 0.173315 0.218180 0.947525
Si Si7 0.975503 0.155013 0.268968
Si Si8 0.144202 0.540998 0.745703
O O1 0.250000 0.909854 0.591198
O O2 0.129204 0.852859 0.594289
O O3 0.169530 0.946654 0.398398
O O4 0.158209 0.015263 0.649466
O O5 0.250000 0.453498 0.315124
O O6 0.154636 0.542714 0.394540
O O7 0.150189 0.367878 0.364789
O O8 0.847722 0.698959 0.861577
O O9 0.856588 0.711821 0.597292
O O10 0.846649 0.558320 0.704970
O O11 0.950559 0.641698 0.742479
O O12 0.250000 0.648930 0.431409
O O13 0.369190 0.708651 0.461986
O O14 0.322846 0.601698 0.634122
O O15 0.537169 0.186408 0.423775
O O16 0.549300 0.273470 0.660808
O O17 0.250000 0.216934 0.959433
O O18 0.929608 0.072054 0.247002
#
# Coordination Sequence:
#
# PCOD9378307 Si02
#       8
#     8   8   8   8   8   8   8   8
#     4  10  20  34  57  89 124 159 191 241 304 356
#     4   9  19  36  54  81 121 154 188 235 294 360
#     4  12  24  43  64  85 117 157 199 252 301 351
#     4  10  18  33  59  87 121 161 194 241 300 354
#     4  10  20  36  58  88 123 154 203 247 284 351
#     4  11  25  41  63  91 117 150 198 250 311 370
#     4  10  22  40  61  87 117 162 203 240 290 345
#     4  10  22  37  60  87 120 158 204 244 288 352
#
# _framework density 20.192900999999999
#
# number of rings (size 3 to 8) (size 9 to 14) (size 15 to 20)
#    0.000    1.750    1.250    3.000    1.750    1.500 
#    0.000    3.750    0.000    0.000    0.000    0.000 
#    0.000    0.000    0.000    0.000    0.000    0.000 
#
# Total GULP energy -178762.128208 kJ/mol
# GULP energy per Si atom -5586.316507 kJ/mol
# Density = 2.014694 g / cm^3
# Si number density = 20.192901 Si / 1000 Ang^3
#
#
#
# Elastic Constant Matrix: (Units=GPa)
#
#
# Indices 1 2 3 4 5 6 
#
# 1 64.3944 5.0694 2.1936 0.0000 0.0000 0.0000
# 2 5.0694 39.9290 -1.5946 0.0000 0.0000 0.0000
# 3 2.1936 -1.5946 80.2357 0.0000 0.0000 0.0000
# 4 0.0000 0.0000 0.0000 32.2745 0.0000 0.0000
# 5 0.0000 0.0000 0.0000 0.0000 21.8329 0.0000
# 6 0.0000 0.0000 0.0000 0.0000 0.0000 12.0494
#
#
#
# Elastic Compliance Matrix: (Units=1/GPa)
#
#
# Indices 1 2 3 4 5 6 
#
# 1 0.015704 -0.002012 -0.000469 0.000000 0.000000 0.000000
# 2 -0.002012 0.025322 0.000558 0.000000 0.000000 0.000000
# 3 -0.000469 0.000558 0.012487 0.000000 0.000000 0.000000
# 4 0.000000 0.000000 0.000000 0.030984 0.000000 0.000000
# 5 0.000000 0.000000 0.000000 0.000000 0.045802 0.000000
# 6 0.000000 0.000000 0.000000 0.000000 0.000000 0.082992
#
#
# Mechanical properties :
#
#
# Convention : Reuss Voigt Hill
#
# Bulk Modulus (GPa) = 20.13443 21.76618 20.95031
# Shear Modulus (GPa) = 21.39552 25.15741 23.27646
#
# Velocity S-wave (km/s) = 3.25861 3.53350 3.39883
# Velocity P-wave (km/s) = 4.91434 5.23927 5.07941
#
# Compressibility (1/GPa) = 0.04966616
#
# Stress axis : x y z
#
# Youngs Moduli (GPa) = 63.67915 39.49092 80.08192
#
# Poissons Ratio (x) = 0.07947 0.03758
# Poissons Ratio (y) = 0.12815 -0.04471
# Poissons Ratio (z) = 0.02989 -0.02205
#
# Static dielectric constant tensor:
#      x y z
#    x 1.695320 0.000000 0.000000 
#    y 0.000000 1.710600 0.000000 
#    z 0.000000 0.000000 1.717150 
# 
# From -- ./inp_files/7965.got.cif
#   From: 2010.05.17/outbox.cif.g08.bks.cpg/sg46_4_cif.got.tgz:7965.got - 2010.06.03 19:58:25.
