data_PCOD9378595
_publ_section_title
;
Structure prediction by ZEFSAII (Michael W. Deem and Ramdas Pophale) SiO2 
 PCOD9378595
Probable space group: I M A 2
;
_chemical_formula_sum "Si O2"
_cell_formula_units_Z 48
_cell_length_a 8.658999
_cell_length_b 13.788912
_cell_length_c 18.260332
_cell_angle_alpha 90.000000
_cell_angle_beta 90.000000
_cell_angle_gamma 90.000000
_cell_volume 2180.250320
_symmetry_space_group_name_H-M "I M A 2"
_symmetry_group_IT_number 46
_symmetry_cell_setting 'orthorhombic'
loop_
_space_group_symop_operation_xyz
x,y,z
-x,-y,z
1/2-x,y,z
1/2+x,-y,z
1/2+x,1/2+y,1/2+z
1/2-x,1/2-y,1/2+z
-x,1/2+y,1/2+z
x,1/2-y,1/2+z
loop_
_atom_site_type_symbol
_atom_site_label
_atom_site_fract_x
_atom_site_fract_y
_atom_site_fract_z
Si Si1 0.064367 0.188111 0.450650
Si Si2 0.437648 0.599649 0.419050
Si Si3 0.577293 0.365106 0.259032
Si Si4 0.430367 0.099398 0.149162
Si Si5 0.576232 0.137344 0.299346
Si Si6 0.564533 0.685010 0.111291
O O1 0.250000 0.187096 0.442980
O O2 0.020225 0.148217 0.530833
O O3 0.006296 0.300139 0.449548
O O4 0.988620 0.134219 0.381494
O O5 0.500000 0.500000 0.453007
O O6 0.250000 0.603860 0.420553
O O7 0.494660 0.597737 0.334189
O O8 0.750000 0.404984 0.251414
O O9 0.587911 0.250886 0.278260
O O10 0.492969 0.373129 0.181903
O O11 0.250000 0.098178 0.134801
O O12 0.464250 0.099320 0.236312
O O13 0.492722 0.202774 0.120119
O O14 0.500000 0.000000 0.119524
O O15 0.750000 0.096442 0.294425
O O16 0.750000 0.688180 0.114425
#
# Coordination Sequence:
#
# PCOD9378595 Si02
#       6
#     8   8   8   8   8   8
#     4  10  19  32  49  72 100 129 159 196 238 284
#     4  10  20  33  49  72  98 128 162 197 238 285
#     4   8  16  30  48  68  91 120 159 199 236 278
#     4  10  19  32  49  71  98 129 161 198 240 284
#     4   9  17  31  49  70  93 123 163 202 236 279
#     4   9  19  32  48  71  98 127 160 194 236 284
#
# _framework density 22.015820999999999
#
# number of rings (size 3 to 8) (size 9 to 14) (size 15 to 20)
#    0.000    2.667    0.000    3.000    0.000    7.333 
#    0.000    1.667    0.000    1.000    0.000    2.333 
#    0.000    0.000    0.000    0.000    0.000    0.000 
#
# Total GULP energy -133852.203881 kJ/mol
# GULP energy per Si atom -5577.175162 kJ/mol
# Density = 2.196571 g / cm^3
# Si number density = 22.015821 Si / 1000 Ang^3
#
#
#
# Elastic Constant Matrix: (Units=GPa)
#
#
# Indices 1 2 3 4 5 6 
#
# 1 34.5353 -9.9255 15.9378 0.0000 0.0000 0.0000
# 2 -9.9255 28.5108 -14.5322 0.0000 0.0000 0.0000
# 3 15.9378 -14.5322 163.0088 0.0000 0.0000 0.0000
# 4 0.0000 0.0000 0.0000 -2.1837 0.0000 0.0000
# 5 0.0000 0.0000 0.0000 0.0000 20.8372 0.0000
# 6 0.0000 0.0000 0.0000 0.0000 0.0000 16.6033
#
#
#
# Elastic Compliance Matrix: (Units=1/GPa)
#
#
# Indices 1 2 3 4 5 6 
#
# 1 0.032982 0.010307 -0.002306 0.000000 0.000000 0.000000
# 2 0.010307 0.039965 0.002555 0.000000 0.000000 0.000000
# 3 -0.002306 0.002555 0.006588 0.000000 0.000000 0.000000
# 4 0.000000 0.000000 0.000000 -0.457948 0.000000 0.000000
# 5 0.000000 0.000000 0.000000 0.000000 0.047991 0.000000
# 6 0.000000 0.000000 0.000000 0.000000 0.000000 0.060229
#
#
# Mechanical properties :
#
#
# Convention : Reuss Voigt Hill
#
# Bulk Modulus (GPa) = 9.93568 23.22388 16.57978
# Shear Modulus (GPa) = -19.39817 22.68970 1.64576
#
# Velocity S-wave (km/s) = -2.97156 3.21379 0.86554
# Velocity P-wave (km/s) = 2.69272 4.93385 2.92337
#
# Compressibility (1/GPa) = 0.10064735
#
# Stress axis : x y z
#
# Youngs Moduli (GPa) = 30.31929 25.02191 151.79383
#
# Poissons Ratio (x) = -0.25790 0.35002
# Poissons Ratio (y) = -0.31250 -0.38786
# Poissons Ratio (z) = 0.06991 -0.06393
#
# Static dielectric constant tensor:
#      x y z
#    x 1.770720 0.000000 0.000000 
#    y 0.000000 1.875780 0.000000 
#    z 0.000000 0.000000 1.828530 
# 
# From -- ./inp_files/13901.got.cif
#   From: 2010.05.17/outbox.cif.g08.bks.cpg/sg46_7_cif.got.tgz:13901.got - 2010.06.03 19:58:25.
