data_PCOD9378678
_publ_section_title
;
Structure prediction by ZEFSAII (Michael W. Deem and Ramdas Pophale) SiO2 
 PCOD9378678
Probable space group: I M A 2
;
_chemical_formula_sum "Si O2"
_cell_formula_units_Z 56
_cell_length_a 8.785395
_cell_length_b 15.004070
_cell_length_c 22.196372
_cell_angle_alpha 90.000000
_cell_angle_beta 90.000000
_cell_angle_gamma 90.000000
_cell_volume 2925.852100
_symmetry_space_group_name_H-M "I M A 2"
_symmetry_group_IT_number 46
_symmetry_cell_setting 'orthorhombic'
loop_
_space_group_symop_operation_xyz
x,y,z
-x,-y,z
1/2-x,y,z
1/2+x,-y,z
1/2+x,1/2+y,1/2+z
1/2-x,1/2-y,1/2+z
-x,1/2+y,1/2+z
x,1/2-y,1/2+z
loop_
_atom_site_type_symbol
_atom_site_label
_atom_site_fract_x
_atom_site_fract_y
_atom_site_fract_z
Si Si1 0.067844 0.094676 0.631120
Si Si2 0.933252 0.213480 0.529038
Si Si3 0.566949 0.593768 0.271986
Si Si4 0.432363 0.598810 0.913045
Si Si5 0.933098 0.786477 0.305232
Si Si6 0.567819 0.906764 0.192305
Si Si7 0.567953 0.093222 0.058853
O O1 0.250000 0.092374 0.627533
O O2 0.024174 0.105002 0.701316
O O3 0.004605 0.172230 0.589179
O O4 0.000000 0.000000 0.610113
O O5 0.750000 0.208839 0.534111
O O6 0.980673 0.153590 0.472498
O O7 0.974710 0.317467 0.522975
O O8 0.500000 0.500000 0.293464
O O9 0.750000 0.589105 0.274295
O O10 0.518019 0.683289 0.306029
O O11 0.500000 0.500000 0.913362
O O12 0.250000 0.593131 0.912566
O O13 0.488749 0.653641 0.855400
O O14 0.750000 0.790210 0.313240
O O15 0.964970 0.828774 0.239569
O O16 0.750000 0.914497 0.185549
O O17 0.493791 0.893585 0.126935
O O18 0.500000 0.000000 0.216415
O O19 0.750000 0.085640 0.060872
O O20 0.500000 0.000000 0.036168
#
# Coordination Sequence:
#
# PCOD9378678 Si02
#       7
#     8   8   8   8   8   8   8
#     4  10  19  32  54  83 113 144 177 216 265 320
#     4  10  22  38  55  78 108 142 181 224 266 313
#     4   9  19  35  54  80 112 142 176 219 265 316
#     4  11  24  41  59  80 107 139 178 221 265 314
#     4  10  21  37  56  79 108 142 181 223 266 314
#     4  10  19  32  52  80 112 142 175 217 267 321
#     4  10  20  35  55  80 110 141 177 220 266 318
#
# _framework density 19.139723
#
# number of rings (size 3 to 8) (size 9 to 14) (size 15 to 20)
#    0.000    2.000    0.000    4.286    0.000    8.000 
#    0.000    0.714    0.000    3.429    0.000    0.000 
#    0.000    0.000    0.000    0.000    0.000    0.000 
#
# Total GULP energy -156386.263013 kJ/mol
# GULP energy per Si atom -5585.223679 kJ/mol
# Density = 1.909616 g / cm^3
# Si number density = 19.139723 Si / 1000 Ang^3
#
#
#
# Elastic Constant Matrix: (Units=GPa)
#
#
# Indices 1 2 3 4 5 6 
#
# 1 33.7292 47.7877 19.9384 0.0000 0.0000 0.0000
# 2 47.7877 200.3009 55.7424 0.0000 0.0000 0.0000
# 3 19.9384 55.7424 42.0594 0.0000 0.0000 0.0000
# 4 0.0000 0.0000 0.0000 31.5685 0.0000 0.0000
# 5 0.0000 0.0000 0.0000 0.0000 12.8911 0.0000
# 6 0.0000 0.0000 0.0000 0.0000 0.0000 27.9153
#
#
#
# Elastic Compliance Matrix: (Units=1/GPa)
#
#
# Indices 1 2 3 4 5 6 
#
# 1 0.048385 -0.008176 -0.012101 0.000000 0.000000 0.000000
# 2 -0.008176 0.009291 -0.008438 0.000000 0.000000 0.000000
# 3 -0.012101 -0.008438 0.040696 0.000000 0.000000 0.000000
# 4 0.000000 0.000000 0.000000 0.031677 0.000000 0.000000
# 5 0.000000 0.000000 0.000000 0.000000 0.077573 0.000000
# 6 0.000000 0.000000 0.000000 0.000000 0.000000 0.035823
#
#
# Mechanical properties :
#
#
# Convention : Reuss Voigt Hill
#
# Bulk Modulus (GPa) = 24.42510 58.11404 41.26957
# Shear Modulus (GPa) = 15.89705 24.64970 20.27337
#
# Velocity S-wave (km/s) = 2.88510 3.59260 3.25811
# Velocity P-wave (km/s) = 4.88749 6.90203 5.98020
#
# Compressibility (1/GPa) = 0.04094148
#
# Stress axis : x y z
#
# Youngs Moduli (GPa) = 20.66749 107.62582 24.57243
#
# Poissons Ratio (x) = 0.87995 0.29736
# Poissons Ratio (y) = 0.16898 0.20735
# Poissons Ratio (z) = 0.25010 0.90818
#
# Static dielectric constant tensor:
#      x y z
#    x 1.641350 0.000000 0.000000 
#    y 0.000000 1.683950 0.000000 
#    z 0.000000 0.000000 1.645280 
# 
# From -- ./inp_files/21040.got.cif
#   From: 2010.05.17/outbox.cif.g08.bks.cpg/sg46_11_cif.got.tgz:21040.got - 2010.06.03 19:58:25.
