data_PCOD9378616
_publ_section_title
;
Structure prediction by ZEFSAII (Michael W. Deem and Ramdas Pophale) SiO2 
 PCOD9378616
Probable space group: I M A 2
;
_chemical_formula_sum "Si O2"
_cell_formula_units_Z 64
_cell_length_a 13.912108
_cell_length_b 19.780108
_cell_length_c 8.567816
_cell_angle_alpha 90.000000
_cell_angle_beta 90.000000
_cell_angle_gamma 90.000000
_cell_volume 2357.717300
_symmetry_space_group_name_H-M "I M A 2"
_symmetry_group_IT_number 46
_symmetry_cell_setting 'orthorhombic'
loop_
_space_group_symop_operation_xyz
x,y,z
-x,-y,z
1/2-x,y,z
1/2+x,-y,z
1/2+x,1/2+y,1/2+z
1/2-x,1/2-y,1/2+z
-x,1/2+y,1/2+z
x,1/2-y,1/2+z
loop_
_atom_site_type_symbol
_atom_site_label
_atom_site_fract_x
_atom_site_fract_y
_atom_site_fract_z
Si Si1 0.631835 0.523483 0.844980
Si Si2 0.866118 0.149812 0.004022
Si Si3 0.633313 0.654892 0.014755
Si Si4 0.867423 0.783600 0.841737
Si Si5 0.641476 0.904872 0.036287
Si Si6 0.633039 0.269776 0.190089
Si Si7 0.896840 0.023019 0.814116
Si Si8 0.357934 0.604719 0.006259
O O1 0.750000 0.518611 0.842400
O O2 0.599658 0.554743 0.681386
O O3 0.606475 0.578503 0.976925
O O4 0.597883 0.448319 0.885451
O O5 0.750000 0.139009 0.010704
O O6 0.887464 0.199595 0.858382
O O7 0.906502 0.077565 0.954229
O O8 0.896256 0.193248 0.153685
O O9 0.750000 0.655075 0.019673
O O10 0.600830 0.686166 0.177940
O O11 0.605343 0.707267 0.879090
O O12 0.750000 0.785863 0.842484
O O13 0.902133 0.835175 0.975560
O O14 0.750000 0.886845 0.087099
O O15 0.647885 0.956209 0.889998
O O16 0.750000 0.270295 0.177298
O O17 0.598108 0.324748 0.061756
O O18 0.850412 0.061587 0.668695
O O19 0.000000 0.000000 0.759405
O O20 0.250000 0.620542 0.949633
#
# Coordination Sequence:
#
# PCOD9378616 Si02
#       8
#     8   8   8   8   8   8   8   8
#     4   9  17  28  48  76 103 128 165 215 270 323
#     4   9  17  32  55  84 111 136 171 223 278 330
#     4   9  15  24  39  66  98 129 162 206 258 303
#     4   9  16  25  42  65  95 129 164 207 257 304
#     4  10  19  32  50  74 100 131 171 221 272 319
#     4   8  15  27  49  79 107 131 162 208 270 328
#     4  11  22  35  52  74 106 147 183 213 257 327
#     4   9  17  33  55  80 106 135 175 227 277 330
#
# _framework density 27.1449
#
# number of rings (size 3 to 8) (size 9 to 14) (size 15 to 20)
#    0.000    2.750    0.000    3.375    0.000    6.000 
#    0.000    4.375    0.000    9.000    0.000    0.000 
#    0.000    0.000    0.000    0.000    0.000    0.000 
#
# Total GULP energy -179211.116906 kJ/mol
# GULP energy per Si atom -5600.347403 kJ/mol
# Density = 2.708312 g / cm^3
# Si number density = 27.144900 Si / 1000 Ang^3
#
#
#
# Elastic Constant Matrix: (Units=GPa)
#
#
# Indices 1 2 3 4 5 6 
#
# 1 100.2692 27.7970 22.7677 0.0000 0.0000 0.0000
# 2 27.7970 120.6654 6.0009 0.0000 0.0000 0.0000
# 3 22.7677 6.0009 67.7178 0.0000 0.0000 0.0000
# 4 0.0000 0.0000 0.0000 53.1996 0.0000 0.0000
# 5 0.0000 0.0000 0.0000 0.0000 18.6930 0.0000
# 6 0.0000 0.0000 0.0000 0.0000 0.0000 0.2809
#
#
#
# Elastic Compliance Matrix: (Units=1/GPa)
#
#
# Indices 1 2 3 4 5 6 
#
# 1 0.011483 -0.002464 -0.003643 0.000000 0.000000 0.000000
# 2 -0.002464 0.008853 0.000044 0.000000 0.000000 0.000000
# 3 -0.003643 0.000044 0.015988 0.000000 0.000000 0.000000
# 4 0.000000 0.000000 0.000000 0.018797 0.000000 0.000000
# 5 0.000000 0.000000 0.000000 0.000000 0.053496 -0.000001
# 6 0.000000 0.000000 0.000000 0.000000 -0.000001 3.560341
#
#
# Mechanical properties :
#
#
# Convention : Reuss Voigt Hill
#
# Bulk Modulus (GPa) = 41.32451 44.64264 42.98357
# Shear Modulus (GPa) = 1.35533 29.90715 15.63124
#
# Velocity S-wave (km/s) = 0.70737 3.32288 2.40228
# Velocity P-wave (km/s) = 3.99047 5.58603 4.85426
#
# Compressibility (1/GPa) = 0.02419872
#
# Stress axis : x y z
#
# Youngs Moduli (GPa) = 87.08238 112.95780 62.54715
#
# Poissons Ratio (x) = 0.27835 0.22783
# Poissons Ratio (y) = 0.21459 -0.00275
# Poissons Ratio (z) = 0.31720 -0.00497
#
# Static dielectric constant tensor:
#      x y z
#    x 2.142860 0.000000 0.000000 
#    y 0.000000 2.011820 0.000000 
#    z 0.000000 0.000000 2.088620 
# 
# From -- ./inp_files/6956.got.cif
#   From: 2010.05.17/outbox.cif.g08.bks.cpg/sg46_4_cif.got.tgz:6956.got - 2010.06.03 19:58:25.
