data_PCOD9378079
_publ_section_title
;
Structure prediction by ZEFSAII (Michael W. Deem and Ramdas Pophale) SiO2 
 PCOD9378079
Probable space group: I M A 2
;
_chemical_formula_sum "Si O2"
_cell_formula_units_Z 64
_cell_length_a 14.796251
_cell_length_b 19.085142
_cell_length_c 11.903413
_cell_angle_alpha 90.000000
_cell_angle_beta 90.000000
_cell_angle_gamma 90.000000
_cell_volume 3361.387554
_symmetry_space_group_name_H-M "I M A 2"
_symmetry_group_IT_number 46
_symmetry_cell_setting 'orthorhombic'
loop_
_space_group_symop_operation_xyz
x,y,z
-x,-y,z
1/2-x,y,z
1/2+x,-y,z
1/2+x,1/2+y,1/2+z
1/2-x,1/2-y,1/2+z
-x,1/2+y,1/2+z
x,1/2-y,1/2+z
loop_
_atom_site_type_symbol
_atom_site_label
_atom_site_fract_x
_atom_site_fract_y
_atom_site_fract_z
Si Si1 0.851823 0.342559 0.000000
Si Si2 0.352408 0.328379 0.443653
Si Si3 0.985373 0.920820 0.378942
Si Si4 0.349804 0.674843 0.252344
Si Si5 0.467553 0.135346 0.142293
Si Si6 0.043594 0.214780 0.728690
Si Si7 0.147609 0.827381 0.006150
Si Si8 0.146917 0.165736 0.521802
O O1 0.750000 0.359000 0.960463
O O2 0.856604 0.365295 0.132541
O O3 0.861255 0.257659 0.998183
O O4 0.929804 0.375835 0.925031
O O5 0.250000 0.349656 0.419331
O O6 0.397634 0.375036 0.540420
O O7 0.414414 0.323422 0.334827
O O8 0.351039 0.246355 0.480448
O O9 0.978193 0.917422 0.244337
O O10 0.895568 0.885950 0.430932
O O11 0.000000 0.000000 0.416971
O O12 0.250000 0.708566 0.249681
O O13 0.436999 0.722875 0.245196
O O14 0.357245 0.642924 0.377685
O O15 0.428361 0.205929 0.202719
O O16 0.564552 0.147690 0.082214
O O17 0.076089 0.168904 0.623857
O O18 0.250000 0.841761 0.047799
O O19 0.250000 0.147452 0.553609
#
# Coordination Sequence:
#
# PCOD9378079 Si02
#       8
#     8   8   8   8   8   8   8   8
#     4  10  20  35  55  83 116 147 186 231 283 347
#     4  10  20  34  57  87 114 146 182 240 309 345
#     4  12  25  40  56  78 114 165 202 226 270 335
#     4  10  18  29  52  83 115 145 174 223 292 353
#     4  11  21  33  53  80 117 151 186 235 277 346
#     4  11  17  32  59  85 116 141 182 241 306 347
#     4  10  19  31  55  89 119 145 174 228 301 354
#     4  10  21  36  55  83 116 148 191 243 290 342
#
# _framework density 19.039756000000001
#
# number of rings (size 3 to 8) (size 9 to 14) (size 15 to 20)
#    0.000    1.500    5.000    1.875    0.000    2.000 
#    0.000    0.000    0.000    3.000    0.000    1.750 
#    0.000    0.000    0.000    0.000    0.000    0.000 
#
# Total GULP energy -178194.319578 kJ/mol
# GULP energy per Si atom -5568.572487 kJ/mol
# Density = 1.899642 g / cm^3
# Si number density = 19.039756 Si / 1000 Ang^3
#
#
#
# Elastic Constant Matrix: (Units=GPa)
#
#
# Indices 1 2 3 4 5 6 
#
# 1 102.7604 12.8812 26.5612 0.0000 0.0000 0.0000
# 2 12.8812 22.6448 2.9492 0.0000 0.0000 0.0000
# 3 26.5612 2.9492 90.3904 0.0000 0.0000 0.0000
# 4 0.0000 0.0000 0.0000 10.1403 0.0000 0.0000
# 5 0.0000 0.0000 0.0000 0.0000 15.7385 0.0000
# 6 0.0000 0.0000 0.0000 0.0000 0.0000 5.1329
#
#
#
# Elastic Compliance Matrix: (Units=1/GPa)
#
#
# Indices 1 2 3 4 5 6 
#
# 1 0.011293 -0.006017 -0.003122 0.000000 0.000000 0.000000
# 2 -0.006017 0.047555 0.000217 0.000000 0.000000 0.000000
# 3 -0.003122 0.000217 0.011973 0.000000 0.000000 0.000000
# 4 0.000000 0.000000 0.000000 0.098617 0.000000 0.000000
# 5 0.000000 0.000000 0.000000 0.000000 0.063538 0.000000
# 6 0.000000 0.000000 0.000000 0.000000 0.000000 0.194823
#
#
# Mechanical properties :
#
#
# Convention : Reuss Voigt Hill
#
# Bulk Modulus (GPa) = 18.87656 33.39765 26.13710
# Shear Modulus (GPa) = 10.79208 17.76260 14.27734
#
# Velocity S-wave (km/s) = 2.38338 3.05769 2.74135
# Velocity P-wave (km/s) = 4.18447 5.48134 4.87621
#
# Compressibility (1/GPa) = 0.05297576
#
# Stress axis : x y z
#
# Youngs Moduli (GPa) = 88.55362 21.02838 83.51807
#
# Poissons Ratio (x) = 0.12653 0.26074
# Poissons Ratio (y) = 0.53283 -0.01808
# Poissons Ratio (z) = 0.27646 -0.00455
#
# Static dielectric constant tensor:
#      x y z
#    x 1.682660 0.000000 0.000000 
#    y 0.000000 1.630800 0.000000 
#    z 0.000000 0.000000 1.729780 
# 
# From -- ./inp_files/11331.got.cif
#   From: 2010.05.17/outbox.cif.g08.bks.cpg/sg46_6_cif.got.tgz:11331.got - 2010.06.03 19:58:25.
