data_PCOD9378833
_publ_section_title
;
Structure prediction by ZEFSAII (Michael W. Deem and Ramdas Pophale) SiO2 
 PCOD9378833
Probable space group: I M A 2
;
_chemical_formula_sum "Si O2"
_cell_formula_units_Z 56
_cell_length_a 9.025279
_cell_length_b 14.915895
_cell_length_c 21.400646
_cell_angle_alpha 90.000000
_cell_angle_beta 90.000000
_cell_angle_gamma 90.000000
_cell_volume 2880.957402
_symmetry_space_group_name_H-M "I M A 2"
_symmetry_group_IT_number 46
_symmetry_cell_setting 'orthorhombic'
loop_
_space_group_symop_operation_xyz
x,y,z
-x,-y,z
1/2-x,y,z
1/2+x,-y,z
1/2+x,1/2+y,1/2+z
1/2-x,1/2-y,1/2+z
-x,1/2+y,1/2+z
x,1/2-y,1/2+z
loop_
_atom_site_type_symbol
_atom_site_label
_atom_site_fract_x
_atom_site_fract_y
_atom_site_fract_z
Si Si1 0.923646 0.275897 0.784700
Si Si2 0.929058 0.713616 0.558418
Si Si3 0.072295 0.406099 0.298256
Si Si4 0.926337 0.907972 0.530094
Si Si5 0.926775 0.905556 0.381258
Si Si6 0.926831 0.907839 0.945063
Si Si7 0.576834 0.095565 0.165297
O O1 0.750000 0.260161 0.797748
O O2 0.936215 0.345226 0.727657
O O3 0.003140 0.182524 0.768138
O O4 0.002550 0.324065 0.843169
O O5 0.750000 0.711562 0.563697
O O6 0.978134 0.816773 0.562731
O O7 0.967944 0.673375 0.490327
O O8 0.000210 0.650505 0.609875
O O9 0.250000 0.408786 0.291480
O O10 0.034592 0.395716 0.372380
O O11 0.000000 0.500000 0.277445
O O12 0.750000 0.915252 0.537958
O O13 0.953797 0.897075 0.455565
O O14 0.000000 0.000000 0.551343
O O15 0.750000 0.907929 0.371052
O O16 0.000000 0.000000 0.361154
O O17 0.750000 0.917865 0.947902
O O18 0.000000 0.000000 0.967656
O O19 0.750000 0.082300 0.151305
O O20 0.500000 0.000000 0.173490
#
# Coordination Sequence:
#
# PCOD9378833 Si02
#       7
#     8   8   8   8   8   8   8
#     4  11  23  38  56  80 110 146 189 231 273 324
#     4  10  20  36  57  80 109 145 184 224 270 322
#     4  10  20  36  58  84 115 147 181 224 274 327
#     4   9  19  35  55  82 114 145 179 223 272 325
#     4  10  19  33  55  84 116 147 181 223 275 331
#     4   9  18  32  52  81 113 143 176 218 269 325
#     4  11  25  42  59  81 109 141 181 227 271 320
#
# _framework density 19.437984
#
# number of rings (size 3 to 8) (size 9 to 14) (size 15 to 20)
#    0.000    2.000    0.000    3.429    0.000    9.143 
#    0.000    2.143    0.000    1.714    0.000    0.000 
#    0.000    0.000    0.000    0.000    0.000    0.000 
#
# Total GULP energy -156418.479774 kJ/mol
# GULP energy per Si atom -5586.374278 kJ/mol
# Density = 1.939374 g / cm^3
# Si number density = 19.437984 Si / 1000 Ang^3
#
#
#
# Elastic Constant Matrix: (Units=GPa)
#
#
# Indices 1 2 3 4 5 6 
#
# 1 70.7477 67.6067 25.3886 0.0000 0.0000 0.0000
# 2 67.6067 175.8588 21.4994 0.0000 0.0000 0.0000
# 3 25.3886 21.4994 14.3820 0.0000 0.0000 0.0000
# 4 0.0000 0.0000 0.0000 21.4617 0.0000 0.0000
# 5 0.0000 0.0000 0.0000 0.0000 17.0328 0.0000
# 6 0.0000 0.0000 0.0000 0.0000 0.0000 38.4537
#
#
#
# Elastic Compliance Matrix: (Units=1/GPa)
#
#
# Indices 1 2 3 4 5 6 
#
# 1 0.050478 -0.010415 -0.073539 0.000000 0.000000 0.000000
# 2 -0.010415 0.009107 0.004772 0.000000 0.000000 0.000000
# 3 -0.073539 0.004772 0.192216 0.000000 0.000000 0.000000
# 4 0.000000 0.000000 0.000000 0.046595 0.000000 0.000000
# 5 0.000000 0.000000 0.000000 0.000000 0.058710 0.000000
# 6 0.000000 0.000000 0.000000 0.000000 0.000000 0.026005
#
#
# Mechanical properties :
#
#
# Convention : Reuss Voigt Hill
#
# Bulk Modulus (GPa) = 10.70243 54.44197 32.57220
# Shear Modulus (GPa) = 8.73177 25.15588 16.94383
#
# Velocity S-wave (km/s) = 2.12176 3.60135 2.95564
# Velocity P-wave (km/s) = 3.39417 6.73512 5.33302
#
# Compressibility (1/GPa) = 0.09343672
#
# Stress axis : x y z
#
# Youngs Moduli (GPa) = 19.81069 109.80633 5.20247
#
# Poissons Ratio (x) = 1.14365 0.38259
# Poissons Ratio (y) = 0.20633 -0.02483
# Poissons Ratio (z) = 1.45686 -0.52400
#
# Static dielectric constant tensor:
#      x y z
#    x 1.650860 0.000000 0.000000 
#    y 0.000000 1.677380 0.000000 
#    z 0.000000 0.000000 1.681830 
# 
# From -- ./inp_files/21077.got.cif
#   From: 2010.05.17/outbox.cif.g08.bks.cpg/sg46_11_cif.got.tgz:21077.got - 2010.06.03 19:58:25.
