data_PCOD9378437
_publ_section_title
;
Structure prediction by ZEFSAII (Michael W. Deem and Ramdas Pophale) SiO2 
 PCOD9378437
Probable space group: I M A 2
;
_chemical_formula_sum "Si O2"
_cell_formula_units_Z 64
_cell_length_a 8.902309
_cell_length_b 18.803453
_cell_length_c 26.674485
_cell_angle_alpha 90.000000
_cell_angle_beta 90.000000
_cell_angle_gamma 90.000000
_cell_volume 4465.152713
_symmetry_space_group_name_H-M "I M A 2"
_symmetry_group_IT_number 46
_symmetry_cell_setting 'orthorhombic'
loop_
_space_group_symop_operation_xyz
x,y,z
-x,-y,z
1/2-x,y,z
1/2+x,-y,z
1/2+x,1/2+y,1/2+z
1/2-x,1/2-y,1/2+z
-x,1/2+y,1/2+z
x,1/2-y,1/2+z
loop_
_atom_site_type_symbol
_atom_site_label
_atom_site_fract_x
_atom_site_fract_y
_atom_site_fract_z
Si Si1 0.427679 0.161671 0.260930
Si Si2 0.923023 0.204793 0.103422
Si Si3 0.568938 0.077567 0.649803
Si Si4 0.071056 0.336548 0.057322
Si Si5 0.070556 0.922377 0.350745
Si Si6 0.429056 0.077707 0.157561
Si Si7 0.070257 0.076831 0.457516
Si Si8 0.922741 0.288609 0.209877
O O1 0.250000 0.157625 0.270337
O O2 0.517953 0.131258 0.307813
O O3 0.461894 0.112895 0.212032
O O4 0.476123 0.241517 0.246251
O O5 0.750000 0.194047 0.089079
O O6 0.924404 0.247698 0.156318
O O7 0.006534 0.257576 0.065484
O O8 0.003713 0.130947 0.116017
O O9 0.750000 0.074955 0.646585
O O10 0.505152 0.112651 0.598883
O O11 0.529440 0.131801 0.695084
O O12 0.500000 0.000000 0.656438
O O13 0.250000 0.336266 0.065949
O O14 0.041495 0.368796 0.002606
O O15 0.250000 0.927909 0.352739
O O16 0.004617 0.901462 0.404997
O O17 0.000000 0.000000 0.339360
O O18 0.250000 0.074010 0.152511
O O19 0.500000 0.000000 0.154774
O O20 0.250000 0.069331 0.451055
O O21 0.000000 0.000000 0.470679
O O22 0.750000 0.288972 0.227575
#
# Coordination Sequence:
#
# PCOD9378437 Si02
#       8
#     8   8   8   8   8   8   8   8
#     4  10  19  30  45  63  84 112 144 177 213 254
#     4   9  17  29  44  61  84 112 142 177 213 252
#     4  10  19  29  43  63  88 116 146 179 212 252
#     4  10  19  30  45  63  85 114 146 179 215 255
#     4  11  21  32  46  62  84 112 143 180 216 252
#     4  10  19  29  43  63  87 115 146 178 213 254
#     4  10  20  32  45  62  85 112 144 181 216 251
#     4   8  16  29  42  59  83 111 142 175 210 248
#
# _framework density 14.333214999999999
#
# number of rings (size 3 to 8) (size 9 to 14) (size 15 to 20)
#    0.000    2.250    0.000    5.625    0.000    9.000 
#    0.000    0.000    0.000    0.000    0.000    0.000 
#    0.000    1.000    0.000    7.000    0.000    4.875 
#
# Total GULP energy -178443.639210 kJ/mol
# GULP energy per Si atom -5576.363725 kJ/mol
# Density = 1.430059 g / cm^3
# Si number density = 14.333215 Si / 1000 Ang^3
#
#
#
# Elastic Constant Matrix: (Units=GPa)
#
#
# Indices 1 2 3 4 5 6 
#
# 1 93.5350 59.6174 56.1411 0.0000 0.0000 0.0000
# 2 59.6174 116.7818 51.1873 0.0000 0.0000 0.0000
# 3 56.1411 51.1873 72.2146 0.0000 0.0000 0.0000
# 4 0.0000 0.0000 0.0000 22.7222 0.0000 0.0000
# 5 0.0000 0.0000 0.0000 0.0000 20.5794 0.0000
# 6 0.0000 0.0000 0.0000 0.0000 0.0000 27.3717
#
#
#
# Elastic Compliance Matrix: (Units=1/GPa)
#
#
# Indices 1 2 3 4 5 6 
#
# 1 0.022218 -0.005471 -0.013395 0.000000 0.000000 0.000000
# 2 -0.005471 0.013770 -0.005507 0.000000 0.000000 0.000000
# 3 -0.013395 -0.005507 0.028164 0.000000 0.000000 0.000000
# 4 0.000000 0.000000 0.000000 0.044010 0.000000 0.000000
# 5 0.000000 0.000000 0.000000 0.000000 0.048592 0.000000
# 6 0.000000 0.000000 0.000000 0.000000 0.000000 0.036534
#
#
# Mechanical properties :
#
#
# Convention : Reuss Voigt Hill
#
# Bulk Modulus (GPa) = 64.90721 68.49146 66.69934
# Shear Modulus (GPa) = 20.22900 21.84036 21.03468
#
# Velocity S-wave (km/s) = 3.76085 3.90777 3.83502
# Velocity P-wave (km/s) = 8.01508 8.26134 8.13914
#
# Compressibility (1/GPa) = 0.01540661
#
# Stress axis : x y z
#
# Youngs Moduli (GPa) = 45.00808 72.62239 35.50594
#
# Poissons Ratio (x) = 0.39734 0.47559
# Poissons Ratio (y) = 0.24626 0.19553
# Poissons Ratio (z) = 0.60287 0.39992
#
# Static dielectric constant tensor:
#      x y z
#    x 1.480010 0.000000 0.000000 
#    y 0.000000 1.469300 0.000000 
#    z 0.000000 0.000000 1.453230 
# 
# From -- ./inp_files/23295.got.cif
#   From: 2010.05.17/outbox.cif.g08.bks.cpg/sg46_12_cif.got.tgz:23295.got - 2010.06.03 19:58:25.
