data_PCOD9378943
_publ_section_title
;
Structure prediction by ZEFSAII (Michael W. Deem and Ramdas Pophale) SiO2 
 PCOD9378943
Probable space group: I M A 2
;
_chemical_formula_sum "Si O2"
_cell_formula_units_Z 64
_cell_length_a 8.571554
_cell_length_b 29.082009
_cell_length_c 12.777922
_cell_angle_alpha 90.000000
_cell_angle_beta 90.000000
_cell_angle_gamma 90.000000
_cell_volume 3185.254975
_symmetry_space_group_name_H-M "I M A 2"
_symmetry_group_IT_number 46
_symmetry_cell_setting 'orthorhombic'
loop_
_space_group_symop_operation_xyz
x,y,z
-x,-y,z
1/2-x,y,z
1/2+x,-y,z
1/2+x,1/2+y,1/2+z
1/2-x,1/2-y,1/2+z
-x,1/2+y,1/2+z
x,1/2-y,1/2+z
loop_
_atom_site_type_symbol
_atom_site_label
_atom_site_fract_x
_atom_site_fract_y
_atom_site_fract_z
Si Si1 0.068925 0.163427 0.032530
Si Si2 0.431566 0.190660 0.800878
Si Si3 0.437807 0.589784 0.259373
Si Si4 0.068893 0.931887 0.986231
Si Si5 0.064456 0.620695 0.853853
Si Si6 0.068421 0.452775 0.701002
Si Si7 0.438998 0.550950 0.035600
Si Si8 0.937089 0.790830 0.253782
O O1 0.250000 0.145917 0.042328
O O2 0.030953 0.189927 0.137966
O O3 0.064826 0.192952 0.927118
O O4 0.950605 0.122177 0.011273
O O5 0.250000 0.187340 0.768739
O O6 0.509709 0.142987 0.765645
O O7 0.499289 0.238960 0.762192
O O8 0.250000 0.589162 0.261810
O O9 0.488593 0.564124 0.366558
O O10 0.490024 0.565790 0.152451
O O11 0.250000 0.945915 0.995935
O O12 0.964807 0.953179 0.077197
O O13 0.250000 0.623905 0.859517
O O14 0.015929 0.590374 0.753355
O O15 0.998169 0.671653 0.836497
O O16 0.009661 0.590202 0.952975
O O17 0.250000 0.449605 0.722348
O O18 0.000000 0.500000 0.745734
O O19 0.500000 0.500000 0.010646
O O20 0.250000 0.549729 0.033111
O O21 0.750000 0.788522 0.266604
#
# Coordination Sequence:
#
# PCOD9378943 Si02
#       8
#     8   8   8   8   8   8   8   8
#     4   9  17  32  52  75 110 151 187 234 289 341
#     4   9  19  34  54  84 117 154 201 245 293 349
#     4   9  20  39  60  84 118 154 194 243 294 349
#     4  10  19  34  57  83 110 144 186 231 284 344
#     4  11  23  39  59  84 115 152 198 245 294 353
#     4  12  24  38  57  83 115 147 183 232 288 345
#     4  10  23  42  62  86 118 157 200 250 302 358
#     4  10  20  34  55  83 116 155 198 246 296 349
#
# _framework density 20.092583000000001
#
# number of rings (size 3 to 8) (size 9 to 14) (size 15 to 20)
#    0.000    2.000    1.250    2.250    0.000    5.000 
#    0.000    2.500    0.000    0.000    0.000    0.000 
#    0.000    0.000    0.000    0.000    0.000    0.000 
#
# Total GULP energy -178575.102206 kJ/mol
# GULP energy per Si atom -5580.471944 kJ/mol
# Density = 2.004685 g / cm^3
# Si number density = 20.092583 Si / 1000 Ang^3
#
#
#
# Elastic Constant Matrix: (Units=GPa)
#
#
# Indices 1 2 3 4 5 6 
#
# 1 8.6028 -6.9678 4.7896 0.0000 0.0000 0.0000
# 2 -6.9678 56.4862 7.4376 -0.0001 0.0000 0.0000
# 3 4.7896 7.4376 88.1759 -0.0001 0.0001 0.0000
# 4 0.0000 -0.0001 -0.0001 19.4039 0.0000 0.0000
# 5 0.0000 0.0000 0.0001 0.0000 15.8560 0.0000
# 6 0.0000 0.0000 0.0000 0.0000 0.0000 26.0752
#
#
#
# Elastic Compliance Matrix: (Units=1/GPa)
#
#
# Indices 1 2 3 4 5 6 
#
# 1 0.135690 0.017907 -0.008881 0.000000 0.000000 0.000000
# 2 0.017907 0.020266 -0.002682 0.000000 0.000000 0.000000
# 3 -0.008881 -0.002682 0.012050 0.000000 0.000000 0.000000
# 4 0.000000 0.000000 0.000000 0.051536 0.000000 0.000000
# 5 0.000000 0.000000 0.000000 0.000000 0.063067 0.000000
# 6 0.000000 0.000000 0.000000 0.000000 0.000000 0.038351
#
#
# Mechanical properties :
#
#
# Convention : Reuss Voigt Hill
#
# Bulk Modulus (GPa) = 5.53424 18.19817 11.86621
# Shear Modulus (GPa) = 13.56848 22.13408 17.85128
#
# Velocity S-wave (km/s) = 2.60147 3.32264 2.98392
# Velocity P-wave (km/s) = 3.43276 4.87819 4.21786
#
# Compressibility (1/GPa) = 0.18069314
#
# Stress axis : x y z
#
# Youngs Moduli (GPa) = 7.36977 49.34492 82.99034
#
# Poissons Ratio (x) = -0.88363 0.73703
# Poissons Ratio (y) = -0.13197 0.22259
# Poissons Ratio (z) = 0.06545 0.13235
#
# Static dielectric constant tensor:
#      x y z
#    x 1.688910 0.000000 0.000000 
#    y 0.000000 1.717760 0.000000 
#    z 0.000000 0.000000 1.737440 
# 
# From -- ./inp_files/9699.got.cif
#   From: 2010.05.17/outbox.cif.g08.bks.cpg/sg46_5_cif.got.tgz:9699.got - 2010.06.03 19:58:25.
