data_PCOD9378322
_publ_section_title
;
Structure prediction by ZEFSAII (Michael W. Deem and Ramdas Pophale) SiO2 
 PCOD9378322
Probable space group: I M A 2
;
_chemical_formula_sum "Si O2"
_cell_formula_units_Z 56
_cell_length_a 20.792406
_cell_length_b 16.805141
_cell_length_c 9.452985
_cell_angle_alpha 90.000000
_cell_angle_beta 90.000000
_cell_angle_gamma 90.000000
_cell_volume 3303.055539
_symmetry_space_group_name_H-M "I M A 2"
_symmetry_group_IT_number 46
_symmetry_cell_setting 'orthorhombic'
loop_
_space_group_symop_operation_xyz
x,y,z
-x,-y,z
1/2-x,y,z
1/2+x,-y,z
1/2+x,1/2+y,1/2+z
1/2-x,1/2-y,1/2+z
-x,1/2+y,1/2+z
x,1/2-y,1/2+z
loop_
_atom_site_type_symbol
_atom_site_label
_atom_site_fract_x
_atom_site_fract_y
_atom_site_fract_z
Si Si1 0.677616 0.251919 0.005470
Si Si2 0.126648 0.911186 0.028943
Si Si3 0.929755 0.543337 0.346703
Si Si4 0.997982 0.320213 0.475015
Si Si5 0.946406 0.301268 0.168899
Si Si6 0.069587 0.521203 0.053018
Si Si7 0.175926 0.916440 0.344890
O O1 0.750000 0.256161 0.063364
O O2 0.664691 0.161782 0.954899
O O3 0.622193 0.266635 0.120881
O O4 0.670634 0.323845 0.894287
O O5 0.158137 0.924625 0.180799
O O6 0.053315 0.879721 0.048824
O O7 0.119883 0.988579 0.932117
O O8 0.914272 0.540441 0.179676
O O9 0.000000 0.500000 0.353811
O O10 0.941849 0.628187 0.421233
O O11 0.963129 0.291197 0.331740
O O12 0.000518 0.244811 0.577548
O O13 0.941696 0.394010 0.131275
O O14 0.000000 0.500000 0.988286
O O15 0.125683 0.534699 0.940594
O O16 0.250000 0.939773 0.369021
#
# Coordination Sequence:
#
# PCOD9378322 Si02
#       7
#     8   8   8   8   8   8   8
#     4   9  20  31  45  68 102 143 181 216 251 312
#     4  10  19  31  48  67  99 145 184 216 257 309
#     4   9  17  35  50  70 101 140 178 226 279 320
#     4  10  20  32  51  74 105 136 181 232 270 322
#     4  10  19  32  50  75 103 141 178 221 270 323
#     4  10  18  34  57  74 103 143 183 217 273 336
#     4  10  22  35  47  74 109 142 186 228 266 320
#
# _framework density 16.954000000000001
#
# number of rings (size 3 to 8) (size 9 to 14) (size 15 to 20)
#    0.000    2.286    4.286    0.429   12.000    1.714 
#    0.000    2.143    0.000    0.000    0.000    0.000 
#    0.000    5.714    0.000    0.000    0.000    0.000 
#
# Total GULP energy -155958.300297 kJ/mol
# GULP energy per Si atom -5569.939296 kJ/mol
# Density = 1.691541 g / cm^3
# Si number density = 16.954000 Si / 1000 Ang^3
#
#
#
# Elastic Constant Matrix: (Units=GPa)
#
#
# Indices 1 2 3 4 5 6 
#
# 1 85.7590 37.3873 49.1585 0.0000 0.0000 0.0000
# 2 37.3873 42.6113 18.9235 0.0000 0.0000 0.0000
# 3 49.1585 18.9235 81.6691 0.0000 0.0000 0.0000
# 4 0.0000 0.0000 0.0000 26.5475 0.0000 0.0000
# 5 0.0000 0.0000 0.0000 0.0000 17.6216 0.0000
# 6 0.0000 0.0000 0.0000 0.0000 0.0000 27.9988
#
#
#
# Elastic Compliance Matrix: (Units=1/GPa)
#
#
# Indices 1 2 3 4 5 6 
#
# 1 0.025981 -0.017669 -0.011544 0.000000 0.000000 0.000000
# 2 -0.017669 0.038176 0.001790 0.000000 0.000000 0.000000
# 3 -0.011544 0.001790 0.018779 0.000000 0.000000 0.000000
# 4 0.000000 0.000000 0.000000 0.037668 0.000000 0.000000
# 5 0.000000 0.000000 0.000000 0.000000 0.056748 0.000000
# 6 0.000000 0.000000 0.000000 0.000000 0.000000 0.035716
#
#
# Mechanical properties :
#
#
# Convention : Reuss Voigt Hill
#
# Bulk Modulus (GPa) = 35.60228 46.77533 41.18880
# Shear Modulus (GPa) = 18.03240 21.40493 19.71867
#
# Velocity S-wave (km/s) = 3.26484 3.55706 3.41408
# Velocity P-wave (km/s) = 5.93777 6.67231 6.31573
#
# Compressibility (1/GPa) = 0.02808809
#
# Stress axis : x y z
#
# Youngs Moduli (GPa) = 38.48966 26.19444 53.25165
#
# Poissons Ratio (x) = 0.46283 0.61476
# Poissons Ratio (y) = 0.68007 -0.09530
# Poissons Ratio (z) = 0.44434 -0.04688
#
# Static dielectric constant tensor:
#      x y z
#    x 1.585410 0.000000 0.000000 
#    y 0.000000 1.619510 0.000000 
#    z 0.000000 0.000000 1.602030 
# 
# From -- ./inp_files/7504.got.cif
#   From: 2010.05.17/outbox.cif.g08.bks.cpg/sg46_4_cif.got.tgz:7504.got - 2010.06.03 19:58:25.
