data_PCOD9378301
_publ_section_title
;
Structure prediction by ZEFSAII (Michael W. Deem and Ramdas Pophale) SiO2 
 PCOD9378301
Probable space group: I M A 2
;
_chemical_formula_sum "Si O2"
_cell_formula_units_Z 60
_cell_length_a 14.657448
_cell_length_b 24.373717
_cell_length_c 8.708011
_cell_angle_alpha 90.000000
_cell_angle_beta 90.000000
_cell_angle_gamma 90.000000
_cell_volume 3110.993440
_symmetry_space_group_name_H-M "I M A 2"
_symmetry_group_IT_number 46
_symmetry_cell_setting 'orthorhombic'
loop_
_space_group_symop_operation_xyz
x,y,z
-x,-y,z
1/2-x,y,z
1/2+x,-y,z
1/2+x,1/2+y,1/2+z
1/2-x,1/2-y,1/2+z
-x,1/2+y,1/2+z
x,1/2-y,1/2+z
loop_
_atom_site_type_symbol
_atom_site_label
_atom_site_fract_x
_atom_site_fract_y
_atom_site_fract_z
Si Si1 0.143966 0.316040 0.640500
Si Si2 0.853944 0.404984 0.288051
Si Si3 0.500000 0.000000 0.250051
Si Si4 0.147809 0.933692 0.439531
Si Si5 0.351815 0.834862 0.218066
Si Si6 0.994977 0.600282 0.533134
Si Si7 0.423330 0.787624 0.718794
Si Si8 0.447043 0.269775 0.940616
O O1 0.250000 0.326414 0.664345
O O2 0.093129 0.308489 0.806294
O O3 0.128014 0.259309 0.547166
O O4 0.095430 0.362541 0.537276
O O5 0.750000 0.417242 0.345989
O O6 0.943982 0.419038 0.388245
O O7 0.862682 0.339596 0.258094
O O8 0.863366 0.432419 0.121446
O O9 0.576958 0.027391 0.355070
O O10 0.469533 0.048817 0.138531
O O11 0.250000 0.952593 0.402016
O O12 0.142266 0.871361 0.372696
O O13 0.250000 0.843464 0.156019
O O14 0.429510 0.861188 0.114883
O O15 0.369719 0.770084 0.224631
O O16 0.499584 0.777960 0.848861
O O17 0.478822 0.794190 0.559394
#
# Coordination Sequence:
#
# PCOD9378301 Si02
#       8
#     8   8   4   8   8   8   8   8
#     4  11  22  39  59  83 116 160 202 245 291 338
#     4  11  22  36  60  94 129 156 183 231 295 363
#     4  10  24  42  66  80 110 152 198 256 306 342
#     4   9  21  39  62  89 116 153 198 243 296 355
#     4  10  18  33  57  87 126 164 194 225 277 357
#     4  11  22  39  59  87 115 154 200 244 297 349
#     4  11  18  32  56  89 128 160 190 226 279 352
#     4  10  20  34  56  83 121 160 197 239 280 341
#
# _framework density 19.286442999999998
#
# number of rings (size 3 to 8) (size 9 to 14) (size 15 to 20)
#    0.000    1.600    4.000    2.000    1.867    1.600 
#    0.000    4.000    0.000    0.800    0.000    0.000 
#    0.000    0.000    0.000    0.000    0.000    0.000 
#
# Total GULP energy -167189.845362 kJ/mol
# GULP energy per Si atom -5572.994845 kJ/mol
# Density = 1.924255 g / cm^3
# Si number density = 19.286443 Si / 1000 Ang^3
#
#
#
# Elastic Constant Matrix: (Units=GPa)
#
#
# Indices 1 2 3 4 5 6 
#
# 1 102.4954 19.6467 29.6965 -0.0008 -0.0003 0.0005
# 2 19.6467 60.3213 -2.0998 -0.0010 -0.0002 0.0002
# 3 29.6965 -2.0998 74.4186 -0.0039 -0.0019 0.0011
# 4 -0.0008 -0.0010 -0.0039 21.3918 -0.0007 0.0003
# 5 -0.0003 -0.0002 -0.0019 -0.0007 17.7126 0.0002
# 6 0.0005 0.0002 0.0011 0.0003 0.0002 18.3737
#
#
#
# Elastic Compliance Matrix: (Units=1/GPa)
#
#
# Indices 1 2 3 4 5 6 
#
# 1 0.011950 -0.004062 -0.004883 -0.000001 0.000000 0.000000
# 2 -0.004062 0.017975 0.002128 0.000001 0.000000 0.000000
# 3 -0.004883 0.002128 0.015446 0.000003 0.000002 -0.000001
# 4 -0.000001 0.000001 0.000003 0.046747 0.000002 -0.000001
# 5 0.000000 0.000000 0.000002 0.000002 0.056457 -0.000001
# 6 0.000000 0.000000 -0.000001 -0.000001 -0.000001 0.054425
#
#
# Mechanical properties :
#
#
# Convention : Reuss Voigt Hill
#
# Bulk Modulus (GPa) = 31.50915 36.85803 34.18359
# Shear Modulus (GPa) = 22.00567 24.16174 23.08371
#
# Velocity S-wave (km/s) = 3.38152 3.54331 3.46336
# Velocity P-wave (km/s) = 5.62309 5.99103 5.80997
#
# Compressibility (1/GPa) = 0.03173681
#
# Stress axis : x y z
#
# Youngs Moduli (GPa) = 83.68186 55.63281 64.74091
#
# Poissons Ratio (x) = 0.22599 0.31615
# Poissons Ratio (y) = 0.33993 -0.13778
# Poissons Ratio (z) = 0.40864 -0.11840
#
# Static dielectric constant tensor:
#      x y z
#    x 1.694500 0.000000 0.000000 
#    y 0.000000 1.678130 0.000000 
#    z 0.000000 0.000000 1.740010 
# 
# From -- ./inp_files/6039.got.cif
#   From: 2010.05.17/outbox.cif.g08.bks.cpg/sg46_4_cif.got.tgz:6039.got - 2010.06.03 19:58:25.
