data_PCOD9378080
_publ_section_title
;
Structure prediction by ZEFSAII (Michael W. Deem and Ramdas Pophale) SiO2 
 PCOD9378080
Probable space group: I M A 2
;
_chemical_formula_sum "Si O2"
_cell_formula_units_Z 48
_cell_length_a 18.543273
_cell_length_b 13.762280
_cell_length_c 8.879516
_cell_angle_alpha 90.000000
_cell_angle_beta 90.000000
_cell_angle_gamma 90.000000
_cell_volume 2266.032195
_symmetry_space_group_name_H-M "I M A 2"
_symmetry_group_IT_number 46
_symmetry_cell_setting 'orthorhombic'
loop_
_space_group_symop_operation_xyz
x,y,z
-x,-y,z
1/2-x,y,z
1/2+x,-y,z
1/2+x,1/2+y,1/2+z
1/2-x,1/2-y,1/2+z
-x,1/2+y,1/2+z
x,1/2-y,1/2+z
loop_
_atom_site_type_symbol
_atom_site_label
_atom_site_fract_x
_atom_site_fract_y
_atom_site_fract_z
Si Si1 0.250000 0.855998 0.136781
Si Si2 0.097159 0.946879 0.760200
Si Si3 0.750000 0.881858 0.949632
Si Si4 0.539744 0.852458 0.631967
Si Si5 0.750000 0.355956 0.274925
Si Si6 0.750000 0.779194 0.245749
Si Si7 0.409315 0.344931 0.791355
Si Si8 0.623049 0.012201 0.081005
O O1 0.250000 0.751294 0.208838
O O2 0.323650 0.915265 0.170724
O O3 0.250000 0.847663 0.955792
O O4 0.178269 0.913336 0.730750
O O5 0.042732 0.877175 0.671145
O O6 0.081863 0.056575 0.706835
O O7 0.082075 0.938671 0.941057
O O8 0.750000 0.793011 0.066918
O O9 0.680168 0.943467 0.990836
O O10 0.750000 0.833219 0.789117
O O11 0.562799 0.750375 0.704193
O O12 0.555628 0.851495 0.454766
O O13 0.822775 0.829685 0.304355
O O14 0.419987 0.441675 0.691400
#
# Coordination Sequence:
#
# PCOD9378080 Si02
#       8
#     4   8   4   8   4   4   8   8
#     4   9  20  38  63 101 127 155 213 264 314 377
#     4  10  23  43  62  90 127 169 220 270 316 386
#     4   9  16  28  52  89 124 155 197 248 308 377
#     4  11  24  40  60  94 134 167 214 267 326 388
#     4  10  22  41  69  89 123 176 218 266 319 374
#     4  10  18  29  54  91 124 156 198 242 303 388
#     4  11  22  38  64  96 129 170 207 260 329 394
#     4   9  19  38  62  88 124 166 210 261 319 376
#
# _framework density 21.182400000000001
#
# number of rings (size 3 to 8) (size 9 to 14) (size 15 to 20)
#    0.000    2.000    0.000    5.000    0.000    5.333 
#    0.000    8.333    0.000    0.000    0.000    0.000 
#    0.000    1.333    0.000    0.000    0.000    0.000 
#
# Total GULP energy -134134.345771 kJ/mol
# GULP energy per Si atom -5588.931074 kJ/mol
# Density = 2.113419 g / cm^3
# Si number density = 21.182400 Si / 1000 Ang^3
#
#
#
# Elastic Constant Matrix: (Units=GPa)
#
#
# Indices 1 2 3 4 5 6 
#
# 1 126.3342 51.5211 56.3748 0.0000 0.0000 0.0000
# 2 51.5211 99.1381 43.2675 0.0000 0.0000 0.0000
# 3 56.3748 43.2675 106.0412 0.0000 0.0000 0.0000
# 4 0.0000 0.0000 0.0000 48.4394 0.0000 0.0000
# 5 0.0000 0.0000 0.0000 0.0000 29.5431 0.0000
# 6 0.0000 0.0000 0.0000 0.0000 0.0000 24.2569
#
#
#
# Elastic Compliance Matrix: (Units=1/GPa)
#
#
# Indices 1 2 3 4 5 6 
#
# 1 0.011576 -0.004052 -0.004501 0.000000 0.000000 0.000000
# 2 -0.004052 0.013690 -0.003432 0.000000 0.000000 0.000000
# 3 -0.004501 -0.003432 0.013224 0.000000 0.000000 0.000000
# 4 0.000000 0.000000 0.000000 0.020644 0.000000 0.000000
# 5 0.000000 0.000000 0.000000 0.000000 0.033849 0.000000
# 6 0.000000 0.000000 0.000000 0.000000 0.000000 0.041225
#
#
# Mechanical properties :
#
#
# Convention : Reuss Voigt Hill
#
# Bulk Modulus (GPa) = 68.86743 70.42669 69.64706
# Shear Modulus (GPa) = 30.67124 32.47122 31.57123
#
# Velocity S-wave (km/s) = 3.80933 3.91952 3.86482
# Velocity P-wave (km/s) = 7.20626 7.33508 7.27096
#
# Compressibility (1/GPa) = 0.01452065
#
# Stress axis : x y z
#
# Youngs Moduli (GPa) = 86.38230 73.04372 75.62214
#
# Poissons Ratio (x) = 0.29595 0.34039
# Poissons Ratio (y) = 0.34999 0.25954
# Poissons Ratio (z) = 0.38882 0.25069
#
# Static dielectric constant tensor:
#      x y z
#    x 1.807870 0.000000 0.000000 
#    y 0.000000 1.769610 0.000000 
#    z 0.000000 0.000000 1.749980 
# 
# From -- ./inp_files/7347.got.cif
#   From: 2010.05.17/outbox.cif.g08.bks.cpg/sg46_4_cif.got.tgz:7347.got - 2010.06.03 19:58:25.
