data_PCOD9378071
_publ_section_title
;
Structure prediction by ZEFSAII (Michael W. Deem and Ramdas Pophale) SiO2 
 PCOD9378071
Probable space group: I M A 2
;
_chemical_formula_sum "Si O2"
_cell_formula_units_Z 40
_cell_length_a 17.965023
_cell_length_b 7.484134
_cell_length_c 12.818219
_cell_angle_alpha 90.000000
_cell_angle_beta 90.000000
_cell_angle_gamma 90.000000
_cell_volume 1723.443378
_symmetry_space_group_name_H-M "I M A 2"
_symmetry_group_IT_number 46
_symmetry_cell_setting 'orthorhombic'
loop_
_space_group_symop_operation_xyz
x,y,z
-x,-y,z
1/2-x,y,z
1/2+x,-y,z
1/2+x,1/2+y,1/2+z
1/2-x,1/2-y,1/2+z
-x,1/2+y,1/2+z
x,1/2-y,1/2+z
loop_
_atom_site_type_symbol
_atom_site_label
_atom_site_fract_x
_atom_site_fract_y
_atom_site_fract_z
Si Si1 0.336912 0.513788 0.047560
Si Si2 0.910116 0.110694 0.982643
Si Si3 0.052479 0.177334 0.409083
Si Si4 0.912123 0.511444 0.707005
Si Si5 0.837963 0.138181 0.776969
O O1 0.250000 0.495482 0.025639
O O2 0.348652 0.527181 0.171307
O O3 0.367171 0.701809 0.004009
O O4 0.384713 0.362701 0.993124
O O5 0.874563 0.042239 0.875664
O O6 0.994981 0.174221 0.952838
O O7 0.888035 0.998656 0.085979
O O8 0.090942 0.167826 0.293989
O O9 0.000000 0.000000 0.406951
O O10 0.877644 0.331201 0.758363
O O11 0.000000 0.500000 0.689984
O O12 0.750000 0.166706 0.792177
#
# Coordination Sequence:
#
# PCOD9378071 Si02
#       5
#     8   8   8   8   8
#     4   9  17  28  48  73  97 129 166 212 264 301
#     4  10  18  29  49  74 104 131 168 208 251 311
#     4   9  16  31  48  68 101 132 167 205 249 308
#     4  10  18  32  50  72 105 138 172 208 257 309
#     4  10  18  30  50  75 103 128 164 219 265 306
#
# _framework density 23.209350000000001
#
# number of rings (size 3 to 8) (size 9 to 14) (size 15 to 20)
#    0.000    2.400    6.000    0.600    0.000    0.800 
#    0.000    5.000    0.000    1.200    0.000    0.000 
#    0.000    0.000    0.000    0.000    0.000    0.000 
#
# Total GULP energy -111529.524740 kJ/mol
# GULP energy per Si atom -5576.476237 kJ/mol
# Density = 2.315652 g / cm^3
# Si number density = 23.209350 Si / 1000 Ang^3
#
#
#
# Elastic Constant Matrix: (Units=GPa)
#
#
# Indices 1 2 3 4 5 6 
#
# 1 121.2328 28.3548 88.1915 0.0000 0.0000 0.0000
# 2 28.3548 102.0889 56.8273 0.0000 0.0000 0.0000
# 3 88.1915 56.8273 203.3317 0.0000 0.0000 0.0000
# 4 0.0000 0.0000 0.0000 16.6650 0.0000 0.0000
# 5 0.0000 0.0000 0.0000 0.0000 27.7663 0.0000
# 6 0.0000 0.0000 0.0000 0.0000 0.0000 6.6248
#
#
#
# Elastic Compliance Matrix: (Units=1/GPa)
#
#
# Indices 1 2 3 4 5 6 
#
# 1 0.012074 -0.000519 -0.005092 0.000000 0.000000 0.000000
# 2 -0.000519 0.011622 -0.003023 0.000000 0.000000 0.000000
# 3 -0.005092 -0.003023 0.007971 0.000000 0.000000 0.000000
# 4 0.000000 0.000000 0.000000 0.060006 0.000000 0.000000
# 5 0.000000 0.000000 0.000000 0.000000 0.036015 0.000000
# 6 0.000000 0.000000 0.000000 0.000000 0.000000 0.150948
#
#
# Mechanical properties :
#
#
# Convention : Reuss Voigt Hill
#
# Bulk Modulus (GPa) = 69.44545 85.93340 77.68943
# Shear Modulus (GPa) = 16.62758 27.09653 21.86206
#
# Velocity S-wave (km/s) = 2.67950 3.42055 3.07245
# Velocity P-wave (km/s) = 6.28961 7.25989 6.79210
#
# Compressibility (1/GPa) = 0.01439979
#
# Stress axis : x y z
#
# Youngs Moduli (GPa) = 82.82191 86.04118 125.44783
#
# Poissons Ratio (x) = 0.04467 0.63876
# Poissons Ratio (y) = 0.04300 0.37923
# Poissons Ratio (z) = 0.42171 0.26011
#
# Static dielectric constant tensor:
#      x y z
#    x 1.961730 0.000000 0.000000 
#    y 0.000000 2.009490 0.000000 
#    z 0.000000 0.000000 1.958650 
# 
# From -- ./inp_files/11613.got.cif
#   From: 2010.05.17/outbox.cif.g08.bks.cpg/sg46_6_cif.got.tgz:11613.got - 2010.06.03 19:58:25.
