data_PCOD9378985
_publ_section_title
;
Structure prediction by ZEFSAII (Michael W. Deem and Ramdas Pophale) SiO2 
 PCOD9378985
Probable space group: I M A 2
;
_chemical_formula_sum "Si O2"
_cell_formula_units_Z 56
_cell_length_a 17.573932
_cell_length_b 14.061844
_cell_length_c 9.147566
_cell_angle_alpha 90.000000
_cell_angle_beta 90.000000
_cell_angle_gamma 90.000000
_cell_volume 2260.563801
_symmetry_space_group_name_H-M "I M A 2"
_symmetry_group_IT_number 46
_symmetry_cell_setting 'orthorhombic'
loop_
_space_group_symop_operation_xyz
x,y,z
-x,-y,z
1/2-x,y,z
1/2+x,-y,z
1/2+x,1/2+y,1/2+z
1/2-x,1/2-y,1/2+z
-x,1/2+y,1/2+z
x,1/2-y,1/2+z
loop_
_atom_site_type_symbol
_atom_site_label
_atom_site_fract_x
_atom_site_fract_y
_atom_site_fract_z
Si Si1 0.842001 0.155666 0.541560
Si Si2 0.841628 0.627214 0.389255
Si Si3 0.157031 0.290056 0.085535
Si Si4 0.338783 0.536659 0.580618
Si Si5 0.555529 0.237676 0.800057
Si Si6 0.660644 0.955095 0.390702
Si Si7 0.516791 0.117797 0.067870
O O1 0.750000 0.178580 0.551723
O O2 0.892060 0.178232 0.685577
O O3 0.886177 0.203629 0.404379
O O4 0.845931 0.043256 0.500739
O O5 0.750000 0.634194 0.383734
O O6 0.868148 0.670720 0.239561
O O7 0.864061 0.685907 0.533275
O O8 0.856373 0.519896 0.432173
O O9 0.250000 0.291908 0.088424
O O10 0.126733 0.361892 0.962971
O O11 0.250000 0.555225 0.590182
O O12 0.362983 0.482518 0.728674
O O13 0.390697 0.626235 0.577908
O O14 0.502440 0.312542 0.707265
O O15 0.507197 0.167328 0.908650
O O16 0.750000 0.933413 0.373271
O O17 0.500000 0.000000 0.072561
#
# Coordination Sequence:
#
# PCOD9378985 Si02
#       7
#     8   8   8   8   8   8   8
#     4  10  19  34  61 103 144 175 213 273 344 423
#     4   9  17  28  46  74 112 162 214 267 322 383
#     4   9  16  27  43  69 114 166 215 266 322 385
#     4  10  20  36  61  95 134 175 218 270 339 407
#     4  10  23  42  68  99 133 184 235 276 345 423
#     4   9  17  29  49  83 126 168 209 258 326 394
#     4  11  25  48  73  99 141 184 234 293 348 413
#
# _framework density 24.772580999999999
#
# number of rings (size 3 to 8) (size 9 to 14) (size 15 to 20)
#    0.000    2.286    1.429    1.286    2.000    6.286 
#    0.000    5.714    0.000    0.000    0.000    0.000 
#    0.000    0.000    0.000    0.000    0.000    0.000 
#
# Total GULP energy -156128.308592 kJ/mol
# GULP energy per Si atom -5576.011021 kJ/mol
# Density = 2.471620 g / cm^3
# Si number density = 24.772581 Si / 1000 Ang^3
#
#
#
# Elastic Constant Matrix: (Units=GPa)
#
#
# Indices 1 2 3 4 5 6 
#
# 1 85.8253 14.0935 37.9571 0.0000 0.0000 0.0000
# 2 14.0935 84.3050 36.0002 0.0000 0.0000 0.0000
# 3 37.9571 36.0002 123.4452 0.0000 0.0000 0.0000
# 4 0.0000 0.0000 0.0000 34.6792 0.0000 0.0000
# 5 0.0000 0.0000 0.0000 0.0000 40.6925 0.0000
# 6 0.0000 0.0000 0.0000 0.0000 0.0000 17.4481
#
#
#
# Elastic Compliance Matrix: (Units=1/GPa)
#
#
# Indices 1 2 3 4 5 6 
#
# 1 0.013508 -0.000553 -0.003992 0.000000 0.000000 0.000000
# 2 -0.000553 0.013572 -0.003788 0.000000 0.000000 0.000000
# 3 -0.003992 -0.003788 0.010433 0.000000 0.000000 0.000000
# 4 0.000000 0.000000 0.000000 0.028836 0.000000 0.000000
# 5 0.000000 0.000000 0.000000 0.000000 0.024575 0.000000
# 6 0.000000 0.000000 0.000000 0.000000 0.000000 0.057313
#
#
# Mechanical properties :
#
#
# Convention : Reuss Voigt Hill
#
# Bulk Modulus (GPa) = 47.97073 52.18634 50.07854
# Shear Modulus (GPa) = 29.09499 32.26560 30.68030
#
# Velocity S-wave (km/s) = 3.43079 3.61289 3.52302
# Velocity P-wave (km/s) = 5.92455 6.20612 6.06697
#
# Compressibility (1/GPa) = 0.02084604
#
# Stress axis : x y z
#
# Youngs Moduli (GPa) = 74.03031 73.68298 95.85118
#
# Poissons Ratio (x) = 0.04078 0.38264
# Poissons Ratio (y) = 0.04097 0.36306
# Poissons Ratio (z) = 0.29553 0.27909
#
# Static dielectric constant tensor:
#      x y z
#    x 2.029790 0.000000 0.000000 
#    y 0.000000 1.984230 0.000000 
#    z 0.000000 0.000000 2.001520 
# 
# From -- ./inp_files/7429.got.cif
#   From: 2010.05.17/outbox.cif.g08.bks.cpg/sg46_4_cif.got.tgz:7429.got - 2010.06.03 19:58:25.
