data_PCOD9378309
_publ_section_title
;
Structure prediction by ZEFSAII (Michael W. Deem and Ramdas Pophale) SiO2 
 PCOD9378309
Probable space group: I M A 2
;
_chemical_formula_sum "Si O2"
_cell_formula_units_Z 56
_cell_length_a 14.537815
_cell_length_b 9.768888
_cell_length_c 19.386096
_cell_angle_alpha 90.000000
_cell_angle_beta 90.000000
_cell_angle_gamma 90.000000
_cell_volume 2753.180136
_symmetry_space_group_name_H-M "I M A 2"
_symmetry_group_IT_number 46
_symmetry_cell_setting 'orthorhombic'
loop_
_space_group_symop_operation_xyz
x,y,z
-x,-y,z
1/2-x,y,z
1/2+x,-y,z
1/2+x,1/2+y,1/2+z
1/2-x,1/2-y,1/2+z
-x,1/2+y,1/2+z
x,1/2-y,1/2+z
loop_
_atom_site_type_symbol
_atom_site_label
_atom_site_fract_x
_atom_site_fract_y
_atom_site_fract_z
Si Si1 0.144944 0.788743 0.391430
Si Si2 0.644135 0.603871 0.073952
Si Si3 0.645202 0.432789 0.278166
Si Si4 0.398499 0.791023 0.173963
Si Si5 0.100671 0.291915 0.223059
Si Si6 0.389419 0.488277 0.782280
Si Si7 0.054586 0.809059 0.537065
O O1 0.250000 0.759497 0.411770
O O2 0.114000 0.673244 0.336798
O O3 0.083146 0.791376 0.458599
O O4 0.145047 0.931646 0.349428
O O5 0.750000 0.611134 0.046778
O O6 0.648711 0.653872 0.153481
O O7 0.602044 0.451333 0.063382
O O8 0.556737 0.688345 0.042935
O O9 0.750000 0.473435 0.293801
O O10 0.647107 0.342681 0.208076
O O11 0.590374 0.571991 0.268165
O O12 0.504050 0.765921 0.196064
O O13 0.401330 0.797173 0.091723
O O14 0.363027 0.922279 0.214912
O O15 0.139978 0.166632 0.267496
O O16 0.500000 0.500000 0.788973
#
# Coordination Sequence:
#
# PCOD9378309 Si02
#       7
#     8   8   8   8   8   8   8
#     4  10  22  37  55  85 120 159 201 244 295 365
#     4  10  20  33  58  90 116 148 200 255 302 356
#     4  10  19  32  55  84 114 149 198 245 293 351
#     4   9  18  35  57  83 111 153 200 245 292 359
#     4  10  18  33  59  90 116 147 194 253 304 348
#     4   9  20  36  59  85 119 155 200 246 302 359
#     4  10  20  35  59  84 119 161 205 244 301 357
#
# _framework density 20.340114
#
# number of rings (size 3 to 8) (size 9 to 14) (size 15 to 20)
#    0.000    2.286    1.429    1.286    2.000    1.714 
#    0.000    0.000    3.143   12.000    0.000    0.000 
#    0.000    0.000    0.000    0.000    0.000    0.000 
#
# Total GULP energy -155990.107915 kJ/mol
# GULP energy per Si atom -5571.075283 kJ/mol
# Density = 2.029382 g / cm^3
# Si number density = 20.340114 Si / 1000 Ang^3
#
#
#
# Elastic Constant Matrix: (Units=GPa)
#
#
# Indices 1 2 3 4 5 6 
#
# 1 104.5064 14.1511 44.1848 0.0000 0.0000 0.0000
# 2 14.1511 104.1372 41.8651 0.0000 0.0000 0.0000
# 3 44.1848 41.8651 134.8542 0.0000 0.0000 0.0000
# 4 0.0000 0.0000 0.0000 13.3220 0.0000 0.0000
# 5 0.0000 0.0000 0.0000 0.0000 10.7695 0.0000
# 6 0.0000 0.0000 0.0000 0.0000 0.0000 -17.1138
#
#
#
# Elastic Compliance Matrix: (Units=1/GPa)
#
#
# Indices 1 2 3 4 5 6 
#
# 1 0.011108 -0.000053 -0.003623 0.000000 0.000000 0.000000
# 2 -0.000053 0.010972 -0.003389 0.000000 0.000000 0.000000
# 3 -0.003623 -0.003389 0.009655 0.000000 0.000000 0.000000
# 4 0.000000 0.000000 0.000000 0.075064 0.000000 0.000000
# 5 0.000000 0.000000 0.000000 0.000000 0.092855 0.000000
# 6 0.000000 0.000000 0.000000 0.000000 0.000000 -0.058432
#
#
# Mechanical properties :
#
#
# Convention : Reuss Voigt Hill
#
# Bulk Modulus (GPa) = 56.80249 60.43329 58.61789
# Shear Modulus (GPa) = 31.01375 17.61534 24.31455
#
# Velocity S-wave (km/s) = 3.90905 2.94605 3.46120
# Velocity P-wave (km/s) = 6.95422 6.43025 6.69736
#
# Compressibility (1/GPa) = 0.01760486
#
# Stress axis : x y z
#
# Youngs Moduli (GPa) = 90.02721 91.13828 103.57756
#
# Poissons Ratio (x) = 0.00482 0.37526
# Poissons Ratio (y) = 0.00476 0.35102
# Poissons Ratio (z) = 0.32617 0.30887
#
# Static dielectric constant tensor:
#      x y z
#    x 1.809770 0.000000 0.000000 
#    y 0.000000 1.744810 0.000000 
#    z 0.000000 0.000000 1.717430 
# 
# From -- ./inp_files/22033.got.cif
#   From: 2010.05.17/outbox.cif.g08.bks.cpg/sg46_12_cif.got.tgz:22033.got - 2010.06.03 19:58:25.
