data_PCOD9378098
_publ_section_title
;
Structure prediction by ZEFSAII (Michael W. Deem and Ramdas Pophale) SiO2 
 PCOD9378098
Probable space group: I M A 2
;
_chemical_formula_sum "Si O2"
_cell_formula_units_Z 64
_cell_length_a 8.442467
_cell_length_b 15.250005
_cell_length_c 28.404808
_cell_angle_alpha 90.000000
_cell_angle_beta 90.000000
_cell_angle_gamma 90.000000
_cell_volume 3657.052675
_symmetry_space_group_name_H-M "I M A 2"
_symmetry_group_IT_number 46
_symmetry_cell_setting 'orthorhombic'
loop_
_space_group_symop_operation_xyz
x,y,z
-x,-y,z
1/2-x,y,z
1/2+x,-y,z
1/2+x,1/2+y,1/2+z
1/2-x,1/2-y,1/2+z
-x,1/2+y,1/2+z
x,1/2-y,1/2+z
loop_
_atom_site_type_symbol
_atom_site_label
_atom_site_fract_x
_atom_site_fract_y
_atom_site_fract_z
Si Si1 0.558525 0.596438 0.135730
Si Si2 0.441680 0.227032 0.825286
Si Si3 0.058900 0.095454 0.015579
Si Si4 0.556533 0.777851 0.552834
Si Si5 0.941192 0.903614 0.743707
Si Si6 0.937757 0.403513 0.862493
Si Si7 0.439962 0.403137 0.967855
Si Si8 0.941061 0.596087 0.407039
O O1 0.500000 0.500000 0.121176
O O2 0.750000 0.595497 0.135255
O O3 0.503777 0.670257 0.099192
O O4 0.506575 0.611413 0.189716
O O5 0.250000 0.230505 0.825625
O O6 0.492860 0.171711 0.779659
O O7 0.505275 0.325047 0.829354
O O8 0.493659 0.171035 0.871091
O O9 0.250000 0.094397 0.015541
O O10 0.004708 0.177616 0.046635
O O11 0.007472 0.110130 0.961118
O O12 0.000000 0.000000 0.030535
O O13 0.750000 0.777649 0.553375
O O14 0.508497 0.832900 0.506653
O O15 0.750000 0.905286 0.744256
O O16 0.000000 0.000000 0.758356
O O17 0.750000 0.406745 0.864118
O O18 0.000000 0.500000 0.849266
O O19 0.000587 0.384084 0.915289
O O20 0.500000 0.500000 0.980904
O O21 0.250000 0.403889 0.966644
O O22 0.750000 0.595532 0.406570
O O23 0.000000 0.500000 0.392140
#
# Coordination Sequence:
#
# PCOD9378098 Si02
#       8
#     8   8   8   8   8   8   8   8
#     4   9  17  31  49  72  98 126 156 190 233 282
#     4  10  19  32  49  70  95 126 160 194 233 282
#     4   9  17  30  44  61  85 118 154 190 228 269
#     4   9  17  29  48  68  92 127 163 193 232 283
#     4   9  18  31  50  74 101 128 156 192 237 284
#     4  11  22  35  50  69  94 126 160 199 240 282
#     4  10  18  30  47  69  97 128 158 192 232 280
#     4   9  17  28  44  65  93 123 153 188 229 276
#
# _framework density 17.500432
#
# number of rings (size 3 to 8) (size 9 to 14) (size 15 to 20)
#    0.000    2.500    0.000    3.750    0.000    3.000 
#    0.000    5.000    0.000    0.750    0.000    1.750 
#    0.000    0.000    0.000    0.000    0.000    0.000 
#
# Total GULP energy -178526.995705 kJ/mol
# GULP energy per Si atom -5578.968616 kJ/mol
# Density = 1.746060 g / cm^3
# Si number density = 17.500432 Si / 1000 Ang^3
#
#
#
# Elastic Constant Matrix: (Units=GPa)
#
#
# Indices 1 2 3 4 5 6 
#
# 1 22.0393 23.3690 18.8016 0.0000 0.0000 0.0000
# 2 23.3690 167.1479 93.8783 0.0000 0.0000 0.0000
# 3 18.8016 93.8783 80.7225 0.0000 0.0000 0.0000
# 4 0.0000 0.0000 0.0000 30.5306 0.0000 0.0000
# 5 0.0000 0.0000 0.0000 0.0000 -5.7728 0.0000
# 6 0.0000 0.0000 0.0000 0.0000 0.0000 28.8877
#
#
#
# Elastic Compliance Matrix: (Units=1/GPa)
#
#
# Indices 1 2 3 4 5 6 
#
# 1 0.056750 -0.001472 -0.011507 0.000000 0.000000 0.000000
# 2 -0.001472 0.017289 -0.019763 0.000000 0.000000 0.000000
# 3 -0.011507 -0.019763 0.038053 0.000000 0.000000 0.000000
# 4 0.000000 0.000000 0.000000 0.032754 0.000000 0.000000
# 5 0.000000 0.000000 0.000000 0.000000 -0.173226 0.000000
# 6 0.000000 0.000000 0.000000 0.000000 0.000000 0.034617
#
#
# Mechanical properties :
#
#
# Convention : Reuss Voigt Hill
#
# Bulk Modulus (GPa) = 21.45557 60.22307 40.83932
# Shear Modulus (GPa) = 57.30308 19.65316 38.47812
#
# Velocity S-wave (km/s) = 5.72843 3.35477 4.69411
# Velocity P-wave (km/s) = 7.48598 7.03513 7.26405
#
# Compressibility (1/GPa) = 0.04660794
#
# Stress axis : x y z
#
# Youngs Moduli (GPa) = 17.62114 57.84174 26.27942
#
# Poissons Ratio (x) = 0.08512 0.30239
# Poissons Ratio (y) = 0.02593 0.51937
# Poissons Ratio (z) = 0.20276 1.14315
#
# Static dielectric constant tensor:
#      x y z
#    x 1.609990 0.000000 0.000000 
#    y 0.000000 1.588590 0.000000 
#    z 0.000000 0.000000 1.599800 
# 
# From -- ./inp_files/25287.got.cif
#   From: 2010.05.17/outbox.cif.g08.bks.cpg/sg46_13_cif.got.tgz:25287.got - 2010.06.03 19:58:25.
