data_PCOD9378753
_publ_section_title
;
Structure prediction by ZEFSAII (Michael W. Deem and Ramdas Pophale) SiO2 
 PCOD9378753
Probable space group: I M A 2
;
_chemical_formula_sum "Si O2"
_cell_formula_units_Z 64
_cell_length_a 8.725711
_cell_length_b 28.626785
_cell_length_c 14.934663
_cell_angle_alpha 90.000000
_cell_angle_beta 90.000000
_cell_angle_gamma 90.000000
_cell_volume 3730.515324
_symmetry_space_group_name_H-M "I M A 2"
_symmetry_group_IT_number 46
_symmetry_cell_setting 'orthorhombic'
loop_
_space_group_symop_operation_xyz
x,y,z
-x,-y,z
1/2-x,y,z
1/2+x,-y,z
1/2+x,1/2+y,1/2+z
1/2-x,1/2-y,1/2+z
-x,1/2+y,1/2+z
x,1/2-y,1/2+z
loop_
_atom_site_type_symbol
_atom_site_label
_atom_site_fract_x
_atom_site_fract_y
_atom_site_fract_z
Si Si1 0.076857 0.265146 0.594500
Si Si2 0.566583 0.550700 0.840683
Si Si3 0.424028 0.230533 0.388602
Si Si4 0.934455 0.050329 0.142640
Si Si5 0.434677 0.858535 0.032702
Si Si6 0.565705 0.363646 0.949641
Si Si7 0.434854 0.673524 0.336849
Si Si8 0.933372 0.169810 0.644404
O O1 0.250000 0.266563 0.629587
O O2 0.082712 0.248590 0.491075
O O3 0.002743 0.316168 0.591271
O O4 0.980464 0.224133 0.639441
O O5 0.500000 0.500000 0.866403
O O6 0.750000 0.548985 0.838236
O O7 0.502388 0.560563 0.740951
O O8 0.508275 0.590669 0.907051
O O9 0.250000 0.223751 0.356766
O O10 0.513457 0.181808 0.393064
O O11 0.507193 0.273118 0.339866
O O12 0.750000 0.047747 0.149218
O O13 0.976355 0.091804 0.074859
O O14 0.000000 0.000000 0.114781
O O15 0.250000 0.854416 0.034483
O O16 0.485294 0.851287 0.929198
O O17 0.750000 0.366890 0.947988
O O18 0.512632 0.354831 0.052783
O O19 0.250000 0.673824 0.338120
O O20 0.486074 0.651873 0.241841
O O21 0.750000 0.166802 0.641948
#
# Coordination Sequence:
#
# PCOD9378753 Si02
#       8
#     8   8   8   8   8   8   8   8
#     4   9  17  28  44  66  95 127 162 202 240 277
#     4  11  22  37  56  77  99 124 155 198 248 298
#     4   9  17  29  44  67  96 128 164 203 242 280
#     4  10  20  35  54  76  99 125 157 198 246 298
#     4   9  18  32  51  72  97 129 165 200 240 290
#     4  10  19  33  52  74  99 131 167 203 242 290
#     4   9  17  31  49  71  99 134 170 203 238 284
#     4   9  18  31  49  71  99 134 169 201 237 281
#
# _framework density 17.155806999999999
#
# number of rings (size 3 to 8) (size 9 to 14) (size 15 to 20)
#    0.000    2.500    0.000    3.375    0.000    6.000 
#    0.000    1.250    0.000    0.750    0.000    1.750 
#    0.000    0.000    0.000    0.000    0.000    0.000 
#
# Total GULP energy -178352.186207 kJ/mol
# GULP energy per Si atom -5573.505819 kJ/mol
# Density = 1.711676 g / cm^3
# Si number density = 17.155807 Si / 1000 Ang^3
#
#
#
# Elastic Constant Matrix: (Units=GPa)
#
#
# Indices 1 2 3 4 5 6 
#
# 1 50.7267 40.0928 26.0886 0.0000 0.0000 0.0000
# 2 40.0928 130.3209 73.0089 0.0000 0.0000 0.0000
# 3 26.0886 73.0089 93.8880 0.0002 -0.0001 0.0000
# 4 0.0000 0.0000 0.0002 20.3546 0.0000 0.0000
# 5 0.0000 0.0000 -0.0001 0.0000 9.4633 0.0000
# 6 0.0000 0.0000 0.0000 0.0000 0.0000 28.5995
#
#
#
# Elastic Compliance Matrix: (Units=1/GPa)
#
#
# Indices 1 2 3 4 5 6 
#
# 1 0.026217 -0.007060 -0.001795 0.000000 0.000000 0.000000
# 2 -0.007060 0.015498 -0.010090 0.000000 0.000000 0.000000
# 3 -0.001795 -0.010090 0.018996 0.000000 0.000000 0.000000
# 4 0.000000 0.000000 0.000000 0.049129 0.000000 0.000000
# 5 0.000000 0.000000 0.000000 0.000000 0.105671 0.000000
# 6 0.000000 0.000000 0.000000 0.000000 0.000000 0.034966
#
#
# Mechanical properties :
#
#
# Convention : Reuss Voigt Hill
#
# Bulk Modulus (GPa) = 43.81904 61.47956 52.64930
# Shear Modulus (GPa) = 16.89352 20.73317 18.81334
#
# Velocity S-wave (km/s) = 3.14142 3.48015 3.31511
# Velocity P-wave (km/s) = 6.22537 7.21543 6.73861
#
# Compressibility (1/GPa) = 0.02282113
#
# Stress axis : x y z
#
# Youngs Moduli (GPa) = 38.14392 64.52546 52.64386
#
# Poissons Ratio (x) = 0.45554 0.09449
# Poissons Ratio (y) = 0.26929 0.53116
# Poissons Ratio (z) = 0.06846 0.65104
#
# Static dielectric constant tensor:
#      x y z
#    x 1.583780 0.000000 0.000000 
#    y 0.000000 1.548270 0.000000 
#    z 0.000000 0.000000 1.630310 
# 
# From -- ./inp_files/14487.got.cif
#   From: 2010.05.17/outbox.cif.g08.bks.cpg/sg46_8_cif.got.tgz:14487.got - 2010.06.03 19:58:25.
