data_PCOD9378957
_publ_section_title
;
Structure prediction by ZEFSAII (Michael W. Deem and Ramdas Pophale) SiO2 
 PCOD9378957
Probable space group: I M A 2
;
_chemical_formula_sum "Si O2"
_cell_formula_units_Z 64
_cell_length_a 8.803598
_cell_length_b 25.188839
_cell_length_c 15.335198
_cell_angle_alpha 90.000000
_cell_angle_beta 90.000000
_cell_angle_gamma 90.000000
_cell_volume 3400.617155
_symmetry_space_group_name_H-M "I M A 2"
_symmetry_group_IT_number 46
_symmetry_cell_setting 'orthorhombic'
loop_
_space_group_symop_operation_xyz
x,y,z
-x,-y,z
1/2-x,y,z
1/2+x,-y,z
1/2+x,1/2+y,1/2+z
1/2-x,1/2-y,1/2+z
-x,1/2+y,1/2+z
x,1/2-y,1/2+z
loop_
_atom_site_type_symbol
_atom_site_label
_atom_site_fract_x
_atom_site_fract_y
_atom_site_fract_z
Si Si1 0.069446 0.645814 0.023140
Si Si2 0.430397 0.443738 0.901870
Si Si3 0.932054 0.636039 0.400877
Si Si4 0.931244 0.839011 0.710976
Si Si5 0.430987 0.216711 0.191705
Si Si6 0.067812 0.941101 0.045744
Si Si7 0.931850 0.232306 0.000671
Si Si8 0.431615 0.608794 0.733973
O O1 0.250000 0.637976 0.015477
O O2 0.019659 0.644585 0.124246
O O3 0.033812 0.705401 0.989285
O O4 0.982826 0.601989 0.967898
O O5 0.500000 0.500000 0.928644
O O6 0.250000 0.447148 0.898397
O O7 0.495197 0.427970 0.807234
O O8 0.750000 0.634760 0.408348
O O9 0.972061 0.629973 0.298975
O O10 0.003520 0.592970 0.465479
O O11 0.992144 0.693256 0.432086
O O12 0.750000 0.844512 0.695217
O O13 0.959663 0.776091 0.726373
O O14 0.250000 0.208624 0.187005
O O15 0.506467 0.168600 0.243557
O O16 0.502747 0.216306 0.095122
O O17 0.250000 0.943240 0.040106
O O18 0.028549 0.912381 0.137330
O O19 0.000000 0.000000 0.045421
O O20 0.750000 0.225283 0.000665
O O21 0.250000 0.608440 0.742922
#
# Coordination Sequence:
#
# PCOD9378957 Si02
#       8
#     8   8   8   8   8   8   8   8
#     4  10  22  41  64  91 122 160 204 254 310 364
#     4  12  26  44  66  90 121 159 206 259 309 368
#     4  11  22  37  60  89 124 162 206 253 302 362
#     4   9  21  39  59  89 125 163 205 253 305 362
#     4  10  19  34  57  87 123 163 203 244 299 360
#     4  11  24  41  62  87 121 161 205 252 304 362
#     4  10  20  35  56  87 123 160 201 247 299 359
#     4  11  23  39  60  90 126 162 203 250 301 367
#
# _framework density 18.820112000000002
#
# number of rings (size 3 to 8) (size 9 to 14) (size 15 to 20)
#    0.000    1.500    1.250    3.750    1.750    5.500 
#    0.000    0.625    0.000    3.000    0.000    0.000 
#    0.000    0.000    0.000    0.000    0.000    0.000 
#
# Total GULP energy -178888.785802 kJ/mol
# GULP energy per Si atom -5590.274556 kJ/mol
# Density = 1.877728 g / cm^3
# Si number density = 18.820112 Si / 1000 Ang^3
#
#
#
# Elastic Constant Matrix: (Units=GPa)
#
#
# Indices 1 2 3 4 5 6 
#
# 1 69.5824 50.7243 39.9490 0.0000 0.0000 0.0000
# 2 50.7243 97.4850 46.1416 0.0000 0.0000 0.0000
# 3 39.9490 46.1416 79.9928 0.0000 -0.0001 0.0000
# 4 0.0000 0.0000 0.0000 33.9507 0.0000 0.0000
# 5 0.0000 0.0000 -0.0001 0.0000 19.4337 0.0000
# 6 0.0000 0.0000 0.0000 0.0000 0.0000 31.2088
#
#
#
# Elastic Compliance Matrix: (Units=1/GPa)
#
#
# Indices 1 2 3 4 5 6 
#
# 1 0.025760 -0.010062 -0.007061 0.000000 0.000000 0.000000
# 2 -0.010062 0.018040 -0.005381 0.000000 0.000000 0.000000
# 3 -0.007061 -0.005381 0.019131 0.000000 0.000000 0.000000
# 4 0.000000 0.000000 0.000000 0.029454 0.000000 0.000000
# 5 0.000000 0.000000 0.000000 0.000000 0.051457 0.000000
# 6 0.000000 0.000000 0.000000 0.000000 0.000000 0.032042
#
#
# Mechanical properties :
#
#
# Convention : Reuss Voigt Hill
#
# Bulk Modulus (GPa) = 55.79050 57.85442 56.82246
# Shear Modulus (GPa) = 22.03924 24.26834 23.15379
#
# Velocity S-wave (km/s) = 3.42577 3.59484 3.51132
# Velocity P-wave (km/s) = 6.73471 6.93095 6.83353
#
# Compressibility (1/GPa) = 0.01792420
#
# Stress axis : x y z
#
# Youngs Moduli (GPa) = 38.81971 55.43114 52.26988
#
# Poissons Ratio (x) = 0.55773 0.36908
# Poissons Ratio (y) = 0.39059 0.28128
# Poissons Ratio (z) = 0.27411 0.29829
#
# Static dielectric constant tensor:
#      x y z
#    x 1.624600 0.000000 0.000000 
#    y 0.000000 1.635030 0.000000 
#    z 0.000000 0.000000 1.648560 
# 
# From -- ./inp_files/14423.got.cif
#   From: 2010.05.17/outbox.cif.g08.bks.cpg/sg46_8_cif.got.tgz:14423.got - 2010.06.03 19:58:25.
