data_PCOD9378878
_publ_section_title
;
Structure prediction by ZEFSAII (Michael W. Deem and Ramdas Pophale) SiO2 
 PCOD9378878
Probable space group: I M A 2
;
_chemical_formula_sum "Si O2"
_cell_formula_units_Z 64
_cell_length_a 8.774437
_cell_length_b 23.699306
_cell_length_c 19.723783
_cell_angle_alpha 90.000000
_cell_angle_beta 90.000000
_cell_angle_gamma 90.000000
_cell_volume 4101.522557
_symmetry_space_group_name_H-M "I M A 2"
_symmetry_group_IT_number 46
_symmetry_cell_setting 'orthorhombic'
loop_
_space_group_symop_operation_xyz
x,y,z
-x,-y,z
1/2-x,y,z
1/2+x,-y,z
1/2+x,1/2+y,1/2+z
1/2-x,1/2-y,1/2+z
-x,1/2+y,1/2+z
x,1/2-y,1/2+z
loop_
_atom_site_type_symbol
_atom_site_label
_atom_site_fract_x
_atom_site_fract_y
_atom_site_fract_z
Si Si1 0.069179 0.438563 0.133020
Si Si2 0.065576 0.729971 0.346722
Si Si3 0.066121 0.616636 0.998039
Si Si4 0.432777 0.937783 0.352713
Si Si5 0.567310 0.221969 0.143443
Si Si6 0.568630 0.837615 0.268943
Si Si7 0.431509 0.659571 0.219655
Si Si8 0.935214 0.251800 0.996259
O O1 0.250000 0.442407 0.129876
O O2 0.000000 0.500000 0.146099
O O3 0.006291 0.415236 0.061418
O O4 0.018258 0.393485 0.189555
O O5 0.250000 0.736122 0.343815
O O6 0.025703 0.679451 0.295458
O O7 0.018871 0.724459 0.424890
O O8 0.995462 0.787092 0.316213
O O9 0.250000 0.615168 0.005468
O O10 0.018826 0.682342 0.996947
O O11 0.026543 0.587435 0.926859
O O12 0.250000 0.938991 0.348249
O O13 0.498698 0.895308 0.296872
O O14 0.500000 0.000000 0.345925
O O15 0.750000 0.212751 0.147004
O O16 0.485718 0.178747 0.193538
O O17 0.540639 0.285136 0.172891
O O18 0.515194 0.222032 0.065548
O O19 0.750000 0.839015 0.272699
O O20 0.250000 0.648517 0.217308
O O21 0.750000 0.251794 0.997855
#
# Coordination Sequence:
#
# PCOD9378878 Si02
#       8
#     8   8   8   8   8   8   8   8
#     4  12  24  35  49  68  97 133 173 209 246 290
#     4   9  17  32  53  74  97 129 164 201 248 298
#     4  10  19  34  52  71  99 132 169 205 238 287
#     4  11  22  36  53  71  97 132 171 208 247 292
#     4   9  17  31  52  72  97 130 163 200 244 292
#     4  11  21  32  47  71 101 131 167 206 244 288
#     4   9  17  31  50  72  98 128 164 203 246 291
#     4   9  15  29  53  77  98 129 166 198 239 294
#
# _framework density 15.603961999999999
#
# number of rings (size 3 to 8) (size 9 to 14) (size 15 to 20)
#    0.000    2.000    2.500    3.750    0.000    4.000 
#    0.000    0.625    0.000    0.000    0.000    0.875 
#    0.000    4.000    0.000    0.000    0.000    0.000 
#
# Total GULP energy -178565.447043 kJ/mol
# GULP energy per Si atom -5580.170220 kJ/mol
# Density = 1.556845 g / cm^3
# Si number density = 15.603962 Si / 1000 Ang^3
#
#
#
# Elastic Constant Matrix: (Units=GPa)
#
#
# Indices 1 2 3 4 5 6 
#
# 1 44.5014 43.0198 43.9449 0.0000 0.0000 0.0000
# 2 43.0198 97.4709 72.9661 0.0000 0.0000 0.0000
# 3 43.9449 72.9661 150.6939 0.0000 0.0000 0.0000
# 4 0.0000 0.0000 0.0000 17.0604 0.0000 0.0000
# 5 0.0000 0.0000 0.0000 0.0000 14.1604 0.0000
# 6 0.0000 0.0000 0.0000 0.0000 0.0000 24.5924
#
#
#
# Elastic Compliance Matrix: (Units=1/GPa)
#
#
# Indices 1 2 3 4 5 6 
#
# 1 0.041529 -0.014530 -0.005075 0.000000 0.000000 0.000000
# 2 -0.014530 0.021176 -0.006016 0.000000 0.000000 0.000000
# 3 -0.005075 -0.006016 0.011029 0.000000 0.000000 0.000000
# 4 0.000000 0.000000 0.000000 0.058615 0.000000 0.000000
# 5 0.000000 0.000000 0.000000 0.000000 0.070619 0.000000
# 6 0.000000 0.000000 0.000000 0.000000 0.000000 0.040663
#
#
# Mechanical properties :
#
#
# Convention : Reuss Voigt Hill
#
# Bulk Modulus (GPa) = 44.46149 68.05864 56.26006
# Shear Modulus (GPa) = 16.53590 20.01167 18.27378
#
# Velocity S-wave (km/s) = 3.25887 3.58505 3.42584
# Velocity P-wave (km/s) = 6.53574 7.80049 7.19596
#
# Compressibility (1/GPa) = 0.02249137
#
# Stress axis : x y z
#
# Youngs Moduli (GPa) = 24.07945 47.22267 90.66943
#
# Poissons Ratio (x) = 0.68615 0.46016
# Poissons Ratio (y) = 0.34988 0.54550
# Poissons Ratio (z) = 0.12221 0.28411
#
# Static dielectric constant tensor:
#      x y z
#    x 1.519570 0.000000 0.000000 
#    y 0.000000 1.489400 0.000000 
#    z 0.000000 0.000000 1.536820 
# 
# From -- ./inp_files/21468.got.cif
#   From: 2010.05.17/outbox.cif.g08.bks.cpg/sg46_11_cif.got.tgz:21468.got - 2010.06.03 19:58:25.
