data_PCOD9378625
_publ_section_title
;
Structure prediction by ZEFSAII (Michael W. Deem and Ramdas Pophale) SiO2 
 PCOD9378625
Probable space group: I M A 2
;
_chemical_formula_sum "Si O2"
_cell_formula_units_Z 56
_cell_length_a 7.816496
_cell_length_b 24.451244
_cell_length_c 14.298934
_cell_angle_alpha 90.000000
_cell_angle_beta 90.000000
_cell_angle_gamma 90.000000
_cell_volume 2732.855891
_symmetry_space_group_name_H-M "I M A 2"
_symmetry_group_IT_number 46
_symmetry_cell_setting 'orthorhombic'
loop_
_space_group_symop_operation_xyz
x,y,z
-x,-y,z
1/2-x,y,z
1/2+x,-y,z
1/2+x,1/2+y,1/2+z
1/2-x,1/2-y,1/2+z
-x,1/2+y,1/2+z
x,1/2-y,1/2+z
loop_
_atom_site_type_symbol
_atom_site_label
_atom_site_fract_x
_atom_site_fract_y
_atom_site_fract_z
Si Si1 0.949331 0.369200 0.528300
Si Si2 0.953319 0.668043 0.023300
Si Si3 0.459648 0.335469 0.233443
Si Si4 0.043762 0.937706 0.200429
Si Si5 0.449767 0.232399 0.907007
Si Si6 0.454056 0.062037 0.854188
Si Si7 0.954082 0.061835 0.413387
O O1 0.750000 0.355251 0.540544
O O2 0.019662 0.393738 0.625010
O O3 0.037656 0.316444 0.482947
O O4 0.964667 0.416937 0.450767
O O5 0.750000 0.678621 0.029903
O O6 0.021791 0.673222 0.128493
O O7 0.026542 0.713134 0.951984
O O8 0.977540 0.607860 0.982159
O O9 0.250000 0.333947 0.232910
O O10 0.521948 0.291539 0.310136
O O11 0.507135 0.394946 0.274279
O O12 0.250000 0.933906 0.200966
O O13 0.981083 0.929427 0.306676
O O14 0.000000 0.000000 0.172737
O O15 0.250000 0.243028 0.887955
O O16 0.250000 0.066698 0.865454
O O17 0.500000 0.000000 0.833060
O O18 0.750000 0.066397 0.411398
O O19 0.000000 0.000000 0.440815
#
# Coordination Sequence:
#
# PCOD9378625 Si02
#       7
#     8   8   8   8   8   8   8
#     4  10  19  32  51  76 106 139 176 215 258 306
#     4  10  20  36  58  80 103 135 173 211 256 307
#     4   8  17  34  52  74 106 138 170 211 255 305
#     4   9  19  33  50  74 105 139 172 212 259 308
#     4   9  19  35  54  77 106 138 172 212 257 305
#     4  10  19  32  50  74 106 141 177 216 260 306
#     4  10  21  38  56  77 106 136 171 213 258 307
#
# _framework density 20.491382999999999
#
# number of rings (size 3 to 8) (size 9 to 14) (size 15 to 20)
#    0.000    2.571    0.000    2.571    0.000    5.143 
#    0.000    6.429    0.000    0.000    0.000    0.000 
#    0.000    0.000    0.000    0.000    0.000    0.000 
#
# Total GULP energy -156249.809970 kJ/mol
# GULP energy per Si atom -5580.350356 kJ/mol
# Density = 2.044474 g / cm^3
# Si number density = 20.491383 Si / 1000 Ang^3
#
#
#
# Elastic Constant Matrix: (Units=GPa)
#
#
# Indices 1 2 3 4 5 6 
#
# 1 23.5024 -11.6917 -6.2968 0.0000 0.0000 0.0000
# 2 -11.6917 117.2255 82.8518 -0.0001 0.0000 0.0000
# 3 -6.2968 82.8518 123.0829 -0.0003 0.0000 0.0000
# 4 0.0000 -0.0001 -0.0003 -7.6315 0.0000 0.0000
# 5 0.0000 0.0000 0.0000 0.0000 10.3907 0.0000
# 6 0.0000 0.0000 0.0000 0.0000 0.0000 19.6487
#
#
#
# Elastic Compliance Matrix: (Units=1/GPa)
#
#
# Indices 1 2 3 4 5 6 
#
# 1 0.044891 0.005444 -0.001368 0.000000 0.000000 0.000000
# 2 0.005444 0.016932 -0.011119 0.000000 0.000000 0.000000
# 3 -0.001368 -0.011119 0.015539 0.000000 0.000000 0.000000
# 4 0.000000 0.000000 0.000000 -0.131036 0.000000 0.000000
# 5 0.000000 0.000000 0.000000 0.000000 0.096240 0.000000
# 6 0.000000 0.000000 0.000000 0.000000 0.000000 0.050894
#
#
# Mechanical properties :
#
#
# Convention : Reuss Voigt Hill
#
# Bulk Modulus (GPa) = 15.80380 43.72638 29.76509
# Shear Modulus (GPa) = 38.86853 17.74474 28.30663
#
# Velocity S-wave (km/s) = 4.35998 2.94591 3.72074
# Velocity P-wave (km/s) = 5.75109 5.74077 5.74593
#
# Compressibility (1/GPa) = 0.06327593
#
# Stress axis : x y z
#
# Youngs Moduli (GPa) = 22.27638 59.05836 64.35227
#
# Poissons Ratio (x) = -0.32153 0.08804
# Poissons Ratio (y) = -0.12128 0.71555
# Poissons Ratio (z) = 0.03048 0.65669
#
# Static dielectric constant tensor:
#      x y z
#    x 1.758770 0.000000 0.000000 
#    y 0.000000 1.747130 0.000000 
#    z 0.000000 0.000000 1.739320 
# 
# From -- ./inp_files/14156.got.cif
#   From: 2010.05.17/outbox.cif.g08.bks.cpg/sg46_8_cif.got.tgz:14156.got - 2010.06.03 19:58:25.
