data_PCOD9378980
_publ_section_title
;
Structure prediction by ZEFSAII (Michael W. Deem and Ramdas Pophale) SiO2 
 PCOD9378980
Probable space group: I M A 2
;
_chemical_formula_sum "Si O2"
_cell_formula_units_Z 60
_cell_length_a 18.921281
_cell_length_b 18.139742
_cell_length_c 9.194643
_cell_angle_alpha 90.000000
_cell_angle_beta 90.000000
_cell_angle_gamma 90.000000
_cell_volume 3155.851164
_symmetry_space_group_name_H-M "I M A 2"
_symmetry_group_IT_number 46
_symmetry_cell_setting 'orthorhombic'
loop_
_space_group_symop_operation_xyz
x,y,z
-x,-y,z
1/2-x,y,z
1/2+x,-y,z
1/2+x,1/2+y,1/2+z
1/2-x,1/2-y,1/2+z
-x,1/2+y,1/2+z
x,1/2-y,1/2+z
loop_
_atom_site_type_symbol
_atom_site_label
_atom_site_fract_x
_atom_site_fract_y
_atom_site_fract_z
Si Si1 0.405770 0.189354 0.774500
Si Si2 0.404470 0.661416 0.031893
Si Si3 0.456344 0.069198 0.571676
Si Si4 0.377230 0.967919 0.345287
Si Si5 0.522021 0.419668 0.585249
Si Si6 0.874089 0.833867 0.098275
Si Si7 0.929969 0.193690 0.854728
Si Si8 0.250000 0.442736 0.706606
O O1 0.408009 0.113005 0.684607
O O2 0.376512 0.255895 0.679619
O O3 0.487723 0.207590 0.812927
O O4 0.366456 0.179574 0.926182
O O5 0.484644 0.628383 0.023603
O O6 0.392057 0.676491 0.202327
O O7 0.359273 0.596619 0.959829
O O8 0.400950 0.735672 0.939192
O O9 0.500000 0.000000 0.638131
O O10 0.414316 0.033225 0.438447
O O11 0.432664 0.934450 0.229588
O O12 0.311438 0.999676 0.261619
O O13 0.500000 0.500000 0.527638
O O14 0.450591 0.373847 0.616782
O O15 0.566363 0.374567 0.466010
O O16 0.812287 0.884533 0.156963
#
# Coordination Sequence:
#
# PCOD9378980 Si02
#       8
#     8   8   8   8   8   8   8   4
#     4  10  21  38  61  91 130 162 208 262 315 378
#     4  10  19  34  59  94 126 150 200 260 325 371
#     4   9  19  34  63  96 125 160 212 262 315 373
#     4  11  23  40  63  85 126 168 215 262 317 374
#     4  11  20  36  65  92 125 165 208 265 326 373
#     4  11  25  40  63  90 127 168 216 259 322 381
#     4  10  20  32  62 102 127 150 203 265 324 390
#     4  12  28  42  58  90 122 176 222 258 300 392
#
# _framework density 19.012302999999999
#
# number of rings (size 3 to 8) (size 9 to 14) (size 15 to 20)
#    0.000    1.600    1.333    6.000    3.733    8.533 
#    0.000    0.667    0.000    3.200    0.000    0.000 
#    0.000    0.000    0.000    0.000    0.000    0.000 
#
# Total GULP energy -167012.094809 kJ/mol
# GULP energy per Si atom -5567.069827 kJ/mol
# Density = 1.896903 g / cm^3
# Si number density = 19.012303 Si / 1000 Ang^3
#
#
#
# Elastic Constant Matrix: (Units=GPa)
#
#
# Indices 1 2 3 4 5 6 
#
# 1 54.1592 36.8088 42.6509 0.0000 0.0000 0.0000
# 2 36.8088 144.3980 88.2807 0.0000 0.0000 0.0000
# 3 42.6509 88.2807 139.7263 0.0000 0.0000 0.0000
# 4 0.0000 0.0000 0.0000 45.2458 0.0000 0.0000
# 5 0.0000 0.0000 0.0000 0.0000 2.6997 0.0000
# 6 0.0000 0.0000 0.0000 0.0000 0.0000 10.5284
#
#
#
# Elastic Compliance Matrix: (Units=1/GPa)
#
#
# Indices 1 2 3 4 5 6 
#
# 1 0.024973 -0.002779 -0.005867 0.000000 0.000000 0.000000
# 2 -0.002779 0.011593 -0.006476 0.000000 0.000000 0.000000
# 3 -0.005867 -0.006476 0.013040 0.000000 0.000000 0.000000
# 4 0.000000 0.000000 0.000000 0.022102 0.000000 0.000000
# 5 0.000000 0.000000 0.000000 0.000000 0.370408 0.000000
# 6 0.000000 0.000000 0.000000 0.000000 0.000000 0.094981
#
#
# Mechanical properties :
#
#
# Convention : Reuss Voigt Hill
#
# Bulk Modulus (GPa) = 51.65043 74.86271 63.25657
# Shear Modulus (GPa) = 8.71390 23.06432 15.88911
#
# Velocity S-wave (km/s) = 2.14319 3.48677 2.89403
# Velocity P-wave (km/s) = 5.77496 7.46134 6.67164
#
# Compressibility (1/GPa) = 0.01936092
#
# Stress axis : x y z
#
# Youngs Moduli (GPa) = 40.04281 86.25736 76.68882
#
# Poissons Ratio (x) = 0.23970 0.44995
# Poissons Ratio (y) = 0.11128 0.49667
# Poissons Ratio (z) = 0.23494 0.55864
#
# Static dielectric constant tensor:
#      x y z
#    x 1.619350 0.000000 0.000000 
#    y 0.000000 1.683740 0.000000 
#    z 0.000000 0.000000 1.701820 
# 
# From -- ./inp_files/6796.got.cif
#   From: 2010.05.17/outbox.cif.g08.bks.cpg/sg46_4_cif.got.tgz:6796.got - 2010.06.03 19:58:25.
