data_PCOD9378049
_publ_section_title
;
Structure prediction by ZEFSAII (Michael W. Deem and Ramdas Pophale) SiO2 
 PCOD9378049
Probable space group: I M A 2
;
_chemical_formula_sum "Si O2"
_cell_formula_units_Z 56
_cell_length_a 8.666279
_cell_length_b 18.925945
_cell_length_c 21.351525
_cell_angle_alpha 90.000000
_cell_angle_beta 90.000000
_cell_angle_gamma 90.000000
_cell_volume 3502.024172
_symmetry_space_group_name_H-M "I M A 2"
_symmetry_group_IT_number 46
_symmetry_cell_setting 'orthorhombic'
loop_
_space_group_symop_operation_xyz
x,y,z
-x,-y,z
1/2-x,y,z
1/2+x,-y,z
1/2+x,1/2+y,1/2+z
1/2-x,1/2-y,1/2+z
-x,1/2+y,1/2+z
x,1/2-y,1/2+z
loop_
_atom_site_type_symbol
_atom_site_label
_atom_site_fract_x
_atom_site_fract_y
_atom_site_fract_z
Si Si1 0.072489 0.210599 0.324070
Si Si2 0.572880 0.711631 0.188413
Si Si3 0.066075 0.577233 0.761972
Si Si4 0.936807 0.578104 0.256914
Si Si5 0.937547 0.853317 0.135963
Si Si6 0.066286 0.653795 0.380466
Si Si7 0.064698 0.420923 0.502411
O O1 0.250000 0.201783 0.343469
O O2 0.074049 0.249283 0.256042
O O3 0.993050 0.135836 0.311189
O O4 0.985890 0.265478 0.368719
O O5 0.750000 0.700111 0.168496
O O6 0.506453 0.634775 0.204553
O O7 0.506088 0.771918 0.143246
O O8 0.250000 0.575901 0.761022
O O9 0.000000 0.500000 0.775600
O O10 0.005019 0.602147 0.693693
O O11 0.750000 0.578554 0.257259
O O12 0.000000 0.500000 0.246580
O O13 0.994104 0.607379 0.323956
O O14 0.750000 0.853044 0.142631
O O15 0.976552 0.887102 0.069530
O O16 0.250000 0.648182 0.377374
O O17 0.003845 0.624217 0.445650
O O18 0.250000 0.422389 0.497334
O O19 0.000000 0.500000 0.498843
#
# Coordination Sequence:
#
# PCOD9378049 Si02
#       7
#     8   8   8   8   8   8   8
#     4   9  17  32  50  68  92 121 155 193 236 283
#     4   7  13  27  46  65  86 115 148 186 231 278
#     4  11  20  30  47  72 100 128 158 194 238 282
#     4  10  18  29  46  68  95 123 153 191 235 281
#     4   9  18  33  50  67  91 125 163 200 238 281
#     4  11  21  33  48  67  93 124 159 195 235 282
#     4  11  22  34  48  67  93 126 163 199 236 279
#
# _framework density 15.990753
#
# number of rings (size 3 to 8) (size 9 to 14) (size 15 to 20)
#    0.000    2.286    0.000    6.429    0.000    2.286 
#    0.000    0.714    0.000    0.000    0.000    1.000 
#    0.000    4.571    0.000    0.000    0.000    0.000 
#
# Total GULP energy -156079.193166 kJ/mol
# GULP energy per Si atom -5574.256899 kJ/mol
# Density = 1.595436 g / cm^3
# Si number density = 15.990753 Si / 1000 Ang^3
#
#
#
# Elastic Constant Matrix: (Units=GPa)
#
#
# Indices 1 2 3 4 5 6 
#
# 1 79.7450 50.0669 31.7388 0.0000 0.0000 0.0000
# 2 50.0669 169.3978 61.7640 0.0000 0.0000 0.0000
# 3 31.7388 61.7640 67.9603 0.0000 0.0000 0.0000
# 4 0.0000 0.0000 0.0000 25.8790 0.0000 0.0000
# 5 0.0000 0.0000 0.0000 0.0000 16.0690 0.0000
# 6 0.0000 0.0000 0.0000 0.0000 0.0000 23.3200
#
#
#
# Elastic Compliance Matrix: (Units=1/GPa)
#
#
# Indices 1 2 3 4 5 6 
#
# 1 0.016408 -0.003074 -0.004869 0.000000 0.000000 0.000000
# 2 -0.003074 0.009405 -0.007112 0.000000 0.000000 0.000000
# 3 -0.004869 -0.007112 0.023452 0.000000 0.000000 0.000000
# 4 0.000000 0.000000 0.000000 0.038641 0.000000 0.000000
# 5 0.000000 0.000000 0.000000 0.000000 0.062232 0.000000
# 6 0.000000 0.000000 0.000000 0.000000 0.000000 0.042882
#
#
# Mechanical properties :
#
#
# Convention : Reuss Voigt Hill
#
# Bulk Modulus (GPa) = 52.20614 67.13806 59.67210
# Shear Modulus (GPa) = 21.78523 24.62250 23.20386
#
# Velocity S-wave (km/s) = 3.69503 3.92828 3.81344
# Velocity P-wave (km/s) = 7.13603 7.91529 7.53574
#
# Compressibility (1/GPa) = 0.01915484
#
# Stress axis : x y z
#
# Youngs Moduli (GPa) = 60.94614 106.32821 42.64111
#
# Poissons Ratio (x) = 0.32688 0.20761
# Poissons Ratio (y) = 0.18736 0.30325
# Poissons Ratio (z) = 0.29674 0.75616
#
# Static dielectric constant tensor:
#      x y z
#    x 1.541490 0.000000 0.000000 
#    y 0.000000 1.557040 0.000000 
#    z 0.000000 0.000000 1.512230 
# 
# From -- ./inp_files/21234.got.cif
#   From: 2010.05.17/outbox.cif.g08.bks.cpg/sg46_11_cif.got.tgz:21234.got - 2010.06.03 19:58:25.
