data_PCOD9378708
_publ_section_title
;
Structure prediction by ZEFSAII (Michael W. Deem and Ramdas Pophale) SiO2 
 PCOD9378708
Probable space group: I M A 2
;
_chemical_formula_sum "Si O2"
_cell_formula_units_Z 64
_cell_length_a 9.136708
_cell_length_b 33.403121
_cell_length_c 12.024413
_cell_angle_alpha 90.000000
_cell_angle_beta 90.000000
_cell_angle_gamma 90.000000
_cell_volume 3669.785469
_symmetry_space_group_name_H-M "I M A 2"
_symmetry_group_IT_number 46
_symmetry_cell_setting 'orthorhombic'
loop_
_space_group_symop_operation_xyz
x,y,z
-x,-y,z
1/2-x,y,z
1/2+x,-y,z
1/2+x,1/2+y,1/2+z
1/2-x,1/2-y,1/2+z
-x,1/2+y,1/2+z
x,1/2-y,1/2+z
loop_
_atom_site_type_symbol
_atom_site_label
_atom_site_fract_x
_atom_site_fract_y
_atom_site_fract_z
Si Si1 0.075293 0.042996 0.224430
Si Si2 0.415950 0.816150 0.262078
Si Si3 0.917266 0.399284 0.896316
Si Si4 0.425599 0.456823 0.468632
Si Si5 0.574839 0.722988 0.961024
Si Si6 0.573834 0.812980 0.031605
Si Si7 0.426659 0.142712 0.593890
Si Si8 0.928068 0.876953 0.845437
O O1 0.250000 0.040395 0.237105
O O2 0.006775 0.070996 0.317962
O O3 0.045410 0.056436 0.096747
O O4 0.000000 0.000000 0.234636
O O5 0.250000 0.803131 0.240218
O O6 0.412591 0.857568 0.329481
O O7 0.498273 0.785784 0.343943
O O8 0.501288 0.822855 0.148469
O O9 0.750000 0.412983 0.913531
O O10 0.997689 0.388854 0.011327
O O11 0.500000 0.500000 0.450131
O O12 0.250000 0.461735 0.458396
O O13 0.474173 0.421061 0.387101
O O14 0.750000 0.721322 0.945284
O O15 0.536832 0.767057 0.003093
O O16 0.536744 0.687289 0.047610
O O17 0.750000 0.815846 0.041352
O O18 0.526389 0.843482 0.934944
O O19 0.250000 0.138794 0.586954
O O20 0.472602 0.134913 0.720799
O O21 0.750000 0.877170 0.846084
#
# Coordination Sequence:
#
# PCOD9378708 Si02
#       8
#     8   8   8   8   8   8   8   8
#     4  10  19  32  54  82 110 137 171 216 270 322
#     4  10  21  35  51  73 105 140 173 214 266 323
#     4  10  20  35  53  74 103 139 178 217 260 313
#     4   9  18  33  53  78 107 139 171 213 265 317
#     4   9  19  33  54  78 101 134 177 224 268 315
#     4  10  20  33  55  81 105 133 176 229 270 320
#     4   9  18  34  54  75 102 139 179 218 267 321
#     4   9  18  33  54  79 106 137 177 223 270 319
#
# _framework density 17.439710999999999
#
# number of rings (size 3 to 8) (size 9 to 14) (size 15 to 20)
#    0.000    2.500    0.000    1.875    1.750    3.500 
#    0.000    2.500    0.000    1.500    0.000    0.000 
#    0.000    0.000    0.000    0.000    0.000    0.000 
#
# Total GULP energy -178447.264814 kJ/mol
# GULP energy per Si atom -5576.477025 kJ/mol
# Density = 1.740002 g / cm^3
# Si number density = 17.439711 Si / 1000 Ang^3
#
#
#
# Elastic Constant Matrix: (Units=GPa)
#
#
# Indices 1 2 3 4 5 6 
#
# 1 35.9860 31.0553 44.4924 0.0001 0.0000 0.0000
# 2 31.0553 75.9678 61.8401 0.0005 0.0001 0.0000
# 3 44.4924 61.8401 155.9484 0.0004 -0.0001 0.0002
# 4 0.0001 0.0005 0.0004 14.6883 0.0001 0.0001
# 5 0.0000 0.0001 -0.0001 0.0001 10.0508 0.0001
# 6 0.0000 0.0000 0.0002 0.0001 0.0001 19.5262
#
#
#
# Elastic Compliance Matrix: (Units=1/GPa)
#
#
# Indices 1 2 3 4 5 6 
#
# 1 0.050516 -0.013170 -0.009190 0.000000 0.000000 0.000000
# 2 -0.013170 0.022871 -0.005312 -0.000001 0.000000 0.000000
# 3 -0.009190 -0.005312 0.011141 0.000000 0.000000 0.000000
# 4 0.000000 -0.000001 0.000000 0.068081 -0.000001 0.000000
# 5 0.000000 0.000000 0.000000 -0.000001 0.099494 0.000000
# 6 0.000000 0.000000 0.000000 0.000000 0.000000 0.051213
#
#
# Mechanical properties :
#
#
# Convention : Reuss Voigt Hill
#
# Bulk Modulus (GPa) = 34.26473 60.29754 47.28113
# Shear Modulus (GPa) = 13.57259 17.55402 15.56331
#
# Velocity S-wave (km/s) = 2.79275 3.17607 2.99056
# Velocity P-wave (km/s) = 5.48539 6.93540 6.25257
#
# Compressibility (1/GPa) = 0.02918453
#
# Stress axis : x y z
#
# Youngs Moduli (GPa) = 19.79566 43.72261 89.76041
#
# Poissons Ratio (x) = 0.57582 0.82489
# Poissons Ratio (y) = 0.26071 0.47682
# Poissons Ratio (z) = 0.18192 0.23226
#
# Static dielectric constant tensor:
#      x y z
#    x 1.590160 0.000000 0.000000 
#    y 0.000000 1.593500 0.000000 
#    z 0.000000 0.000000 1.576290 
# 
# From -- ./inp_files/9804.got.cif
#   From: 2010.05.17/outbox.cif.g08.bks.cpg/sg46_5_cif.got.tgz:9804.got - 2010.06.03 19:58:25.
