data_PCOD9378934
_publ_section_title
;
Structure prediction by ZEFSAII (Michael W. Deem and Ramdas Pophale) SiO2 
 PCOD9378934
Probable space group: I M A 2
;
_chemical_formula_sum "Si O2"
_cell_formula_units_Z 64
_cell_length_a 20.387472
_cell_length_b 9.012157
_cell_length_c 17.543921
_cell_angle_alpha 90.000000
_cell_angle_beta 90.000000
_cell_angle_gamma 90.000000
_cell_volume 3223.434053
_symmetry_space_group_name_H-M "I M A 2"
_symmetry_group_IT_number 46
_symmetry_cell_setting 'orthorhombic'
loop_
_space_group_symop_operation_xyz
x,y,z
-x,-y,z
1/2-x,y,z
1/2+x,-y,z
1/2+x,1/2+y,1/2+z
1/2-x,1/2-y,1/2+z
-x,1/2+y,1/2+z
x,1/2-y,1/2+z
loop_
_atom_site_type_symbol
_atom_site_label
_atom_site_fract_x
_atom_site_fract_y
_atom_site_fract_z
Si Si1 0.670674 0.615649 0.361360
Si Si2 0.570778 0.993315 0.225350
Si Si3 0.325763 0.516965 0.206906
Si Si4 0.123125 0.250000 0.611360
Si Si5 0.902237 0.250000 0.611360
Si Si6 0.929222 0.993315 0.497370
Si Si7 0.174237 0.983035 0.015814
Si Si8 0.170126 0.469404 0.861360
O O1 0.750000 0.601053 0.361360
O O2 0.644561 0.535751 0.286624
O O3 0.644561 0.535751 0.436096
O O4 0.660039 0.791062 0.361360
O O5 0.584604 0.841127 0.177574
O O6 0.630701 0.019933 0.284957
O O7 0.500000 0.000000 0.265658
O O8 0.564117 0.122699 0.161570
O O9 0.250000 0.551097 0.217265
O O10 0.334087 0.376773 0.151236
O O11 0.359903 0.657242 0.170993
O O12 0.084604 0.158873 0.545146
O O13 0.165913 0.376772 0.571484
O O14 0.859903 0.342758 0.551728
O O15 0.935883 0.122699 0.561151
O O16 0.869299 0.019933 0.437763
O O17 0.000000 0.000000 0.457063
O O18 0.250000 0.948903 0.005455
O O19 0.250000 0.499254 0.861360
#
# Coordination Sequence:
#
# PCOD9378934 Si02
#       8
#     8   8   8   8   8   8   8   8
#     4   9  18  34  57  85 120 157 199 247 300 363
#     4  11  23  42  64  90 128 169 210 256 311 368
#     4  10  19  34  56  86 124 160 200 256 313 363
#     4  10  20  34  60  86 117 166 215 252 293 374
#     4  10  24  38  58  92 125 162 209 254 313 370
#     4  11  23  42  64  90 128 169 210 256 311 368
#     4  10  19  34  56  86 124 160 200 256 313 363
#     4  11  23  40  65  95 122 161 215 261 306 371
#
# _framework density 19.854603999999998
#
# number of rings (size 3 to 8) (size 9 to 14) (size 15 to 20)
#    0.000    1.750    2.500    1.875    0.000    6.000 
#    0.000    1.250    0.000    1.500    0.000    0.000 
#    0.000    0.000    0.000    0.000    0.000    0.000 
#
# Total GULP energy -178270.420796 kJ/mol
# GULP energy per Si atom -5570.950650 kJ/mol
# Density = 1.980941 g / cm^3
# Si number density = 19.854604 Si / 1000 Ang^3
#
#
#
# Elastic Constant Matrix: (Units=GPa)
#
#
# Indices 1 2 3 4 5 6 
#
# 1 81.8650 -0.7553 23.2021 0.0000 0.0000 0.0000
# 2 -0.7553 72.2546 5.3023 0.0000 0.0000 0.0000
# 3 23.2021 5.3023 88.0473 0.0000 0.0000 0.0000
# 4 0.0000 0.0000 0.0000 34.7639 0.0000 0.0000
# 5 0.0000 0.0000 0.0000 0.0000 2.3131 0.0000
# 6 0.0000 0.0000 0.0000 0.0000 0.0000 -0.8968
#
#
#
# Elastic Compliance Matrix: (Units=1/GPa)
#
#
# Indices 1 2 3 4 5 6 
#
# 1 0.013212 0.000395 -0.003506 0.000000 0.000000 0.000000
# 2 0.000395 0.013913 -0.000942 0.000000 0.000000 0.000000
# 3 -0.003506 -0.000942 0.012338 0.000000 0.000000 0.000000
# 4 0.000000 0.000000 0.000000 0.028765 0.000000 0.000000
# 5 0.000000 0.000000 0.000000 0.000000 0.432320 0.000000
# 6 0.000000 0.000000 0.000000 0.000000 0.000000 -1.115017
#
#
# Mechanical properties :
#
#
# Convention : Reuss Voigt Hill
#
# Bulk Modulus (GPa) = 31.88855 33.07392 32.48123
# Shear Modulus (GPa) = -8.39052 21.53056 6.57002
#
# Velocity S-wave (km/s) = -2.05795 3.29661 1.82106
# Velocity P-wave (km/s) = 3.23250 5.58430 4.56254
#
# Compressibility (1/GPa) = 0.03135922
#
# Stress axis : x y z
#
# Youngs Moduli (GPa) = 75.68639 71.87412 81.05021
#
# Poissons Ratio (x) = -0.02842 0.28412
# Poissons Ratio (y) = -0.02992 0.07635
# Poissons Ratio (z) = 0.26532 0.06771
#
# Static dielectric constant tensor:
#      x y z
#    x 1.699640 0.000000 0.000000 
#    y 0.000000 1.672220 0.000000 
#    z 0.000000 0.000000 1.749460 
# 
# From -- ./inp_files/20237.got.cif
#   From: 2010.05.17/outbox.cif.g08.bks.cpg/sg46_11_cif.got.tgz:20237.got - 2010.06.03 19:58:25.
