data_PCOD9378600
_publ_section_title
;
Structure prediction by ZEFSAII (Michael W. Deem and Ramdas Pophale) SiO2 
 PCOD9378600
Probable space group: I M A 2
;
_chemical_formula_sum "Si O2"
_cell_formula_units_Z 64
_cell_length_a 8.768302
_cell_length_b 30.741893
_cell_length_c 14.850187
_cell_angle_alpha 90.000000
_cell_angle_beta 90.000000
_cell_angle_gamma 90.000000
_cell_volume 4002.930304
_symmetry_space_group_name_H-M "I M A 2"
_symmetry_group_IT_number 46
_symmetry_cell_setting 'orthorhombic'
loop_
_space_group_symop_operation_xyz
x,y,z
-x,-y,z
1/2-x,y,z
1/2+x,-y,z
1/2+x,1/2+y,1/2+z
1/2-x,1/2-y,1/2+z
-x,1/2+y,1/2+z
x,1/2-y,1/2+z
loop_
_atom_site_type_symbol
_atom_site_label
_atom_site_fract_x
_atom_site_fract_y
_atom_site_fract_z
Si Si1 0.073541 0.777478 0.972980
Si Si2 0.432321 0.547233 0.082105
Si Si3 0.568458 0.637062 0.806562
Si Si4 0.929371 0.632268 0.154605
Si Si5 0.569107 0.706718 0.659766
Si Si6 0.066354 0.710435 0.266882
Si Si7 0.423931 0.673672 0.984697
Si Si8 0.931889 0.546120 0.883216
O O1 0.250000 0.791651 0.977910
O O2 0.017883 0.786008 0.871460
O O3 0.070431 0.725566 0.987411
O O4 0.983339 0.796900 0.056836
O O5 0.500000 0.500000 0.105891
O O6 0.250000 0.545795 0.080927
O O7 0.492553 0.585153 0.147048
O O8 0.493038 0.556633 0.980399
O O9 0.750000 0.643108 0.824439
O O10 0.532873 0.663005 0.715736
O O11 0.472558 0.658717 0.886229
O O12 0.539021 0.585610 0.814677
O O13 0.750000 0.628076 0.170190
O O14 0.003791 0.666028 0.224121
O O15 0.962383 0.653955 0.057456
O O16 0.750000 0.713892 0.663080
O O17 0.492286 0.748061 0.709730
O O18 0.250000 0.710956 0.263039
O O19 0.250000 0.659653 0.005731
O O20 0.750000 0.542093 0.896760
O O21 0.000000 0.500000 0.853820
#
# Coordination Sequence:
#
# PCOD9378600 Si02
#       8
#     8   8   8   8   8   8   8   8
#     4  10  22  37  52  72 103 138 175 220 260 301
#     4  11  21  34  52  76 105 138 173 211 257 309
#     4  10  21  34  49  73 105 139 175 213 257 307
#     4  12  23  35  51  76 105 139 176 215 258 309
#     4  11  22  34  52  76 102 136 174 214 260 310
#     4  11  22  37  53  73 101 136 176 216 258 306
#     4  11  20  31  50  74 102 139 177 214 254 301
#     4  10  19  32  49  72 104 137 172 214 257 307
#
# _framework density 15.988288000000001
#
# number of rings (size 3 to 8) (size 9 to 14) (size 15 to 20)
#    0.000    1.250    3.750    4.500    0.000    2.500 
#    0.000    0.000    0.000    0.000    0.000    0.875 
#    0.000    4.000    0.000    0.000    0.000    0.000 
#
# Total GULP energy -178670.502030 kJ/mol
# GULP energy per Si atom -5583.453188 kJ/mol
# Density = 1.595190 g / cm^3
# Si number density = 15.988288 Si / 1000 Ang^3
#
#
#
# Elastic Constant Matrix: (Units=GPa)
#
#
# Indices 1 2 3 4 5 6 
#
# 1 78.3180 43.1639 34.7612 0.0000 0.0000 0.0000
# 2 43.1639 103.2656 39.6110 0.0000 0.0000 0.0000
# 3 34.7612 39.6110 85.3748 0.0001 -0.0001 0.0000
# 4 0.0000 0.0000 0.0001 22.9761 0.0000 0.0000
# 5 0.0000 0.0000 -0.0001 0.0000 19.9593 0.0000
# 6 0.0000 0.0000 0.0000 0.0000 0.0000 15.5407
#
#
#
# Elastic Compliance Matrix: (Units=1/GPa)
#
#
# Indices 1 2 3 4 5 6 
#
# 1 0.018001 -0.005733 -0.004669 0.000000 0.000000 0.000000
# 2 -0.005733 0.013606 -0.003979 0.000000 0.000000 0.000000
# 3 -0.004669 -0.003979 0.015460 0.000000 0.000000 0.000000
# 4 0.000000 0.000000 0.000000 0.043523 0.000000 0.000000
# 5 0.000000 0.000000 0.000000 0.000000 0.050102 0.000000
# 6 0.000000 0.000000 0.000000 0.000000 0.000000 0.064347
#
#
# Mechanical properties :
#
#
# Convention : Reuss Voigt Hill
#
# Bulk Modulus (GPa) = 54.62892 55.78118 55.20505
# Shear Modulus (GPa) = 20.84178 21.65671 21.24925
#
# Velocity S-wave (km/s) = 3.61441 3.68439 3.64957
# Velocity P-wave (km/s) = 7.18755 7.28452 7.23620
#
# Compressibility (1/GPa) = 0.01830532
#
# Stress axis : x y z
#
# Youngs Moduli (GPa) = 55.55390 73.49581 64.68273
#
# Poissons Ratio (x) = 0.42135 0.30202
# Poissons Ratio (y) = 0.31849 0.25734
# Poissons Ratio (z) = 0.25939 0.29241
#
# Static dielectric constant tensor:
#      x y z
#    x 1.542190 0.000000 0.000000 
#    y 0.000000 1.544320 0.000000 
#    z 0.000000 0.000000 1.520130 
# 
# From -- ./inp_files/14779.got.cif
#   From: 2010.05.17/outbox.cif.g08.bks.cpg/sg46_8_cif.got.tgz:14779.got - 2010.06.03 19:58:25.
