data_PCOD9378601
_publ_section_title
;
Structure prediction by ZEFSAII (Michael W. Deem and Ramdas Pophale) SiO2 
 PCOD9378601
Probable space group: I M A 2
;
_chemical_formula_sum "Si O2"
_cell_formula_units_Z 64
_cell_length_a 8.729864
_cell_length_b 15.229942
_cell_length_c 27.917174
_cell_angle_alpha 90.000000
_cell_angle_beta 90.000000
_cell_angle_gamma 90.000000
_cell_volume 3711.736869
_symmetry_space_group_name_H-M "I M A 2"
_symmetry_group_IT_number 46
_symmetry_cell_setting 'orthorhombic'
loop_
_space_group_symop_operation_xyz
x,y,z
-x,-y,z
1/2-x,y,z
1/2+x,-y,z
1/2+x,1/2+y,1/2+z
1/2-x,1/2-y,1/2+z
-x,1/2+y,1/2+z
x,1/2-y,1/2+z
loop_
_atom_site_type_symbol
_atom_site_label
_atom_site_fract_x
_atom_site_fract_y
_atom_site_fract_z
Si Si1 0.433966 0.773841 0.744400
Si Si2 0.934089 0.904669 0.822497
Si Si3 0.435431 0.277828 0.971905
Si Si4 0.434005 0.406354 0.434538
Si Si5 0.933869 0.594923 0.775928
Si Si6 0.433571 0.594845 0.050705
Si Si7 0.434069 0.094079 0.386896
Si Si8 0.565880 0.405892 0.161556
O O1 0.250000 0.770408 0.746321
O O2 0.496642 0.829267 0.789428
O O3 0.501019 0.676268 0.746353
O O4 0.481311 0.828713 0.697310
O O5 0.750000 0.904643 0.818283
O O6 0.974768 0.891449 0.878506
O O7 0.000000 0.000000 0.808264
O O8 0.250000 0.279917 0.974748
O O9 0.484731 0.177158 0.965388
O O10 0.480967 0.330906 0.923863
O O11 0.503557 0.329348 0.016679
O O12 0.500000 0.500000 0.449520
O O13 0.250000 0.410551 0.436358
O O14 0.750000 0.593327 0.773613
O O15 0.980318 0.610013 0.831810
O O16 0.000000 0.500000 0.761896
O O17 0.500000 0.500000 0.035769
O O18 0.250000 0.591615 0.048069
O O19 0.479779 0.608956 0.106259
O O20 0.250000 0.089319 0.387570
O O21 0.500000 0.000000 0.401900
O O22 0.500000 0.500000 0.177037
O O23 0.750000 0.411592 0.162919
#
# Coordination Sequence:
#
# PCOD9378601 Si02
#       8
#     8   8   8   8   8   8   8   8
#     4  11  21  33  51  75 100 131 169 208 247 293
#     4  10  19  32  49  73 104 136 167 203 245 293
#     4  10  19  32  50  73  99 129 164 203 243 289
#     4   9  19  34  50  69  99 134 168 205 245 287
#     4  10  20  35  52  72 100 135 170 207 247 290
#     4  10  20  35  53  75 101 129 159 197 244 295
#     4   9  18  31  47  69 100 132 162 196 239 287
#     4   9  20  36  53  74 102 130 159 197 244 294
#
# _framework density 17.242601000000001
#
# number of rings (size 3 to 8) (size 9 to 14) (size 15 to 20)
#    0.000    2.250    0.000    3.000    0.000    7.500 
#    0.000    1.250    0.000    0.750    0.000    1.750 
#    0.000    0.000    0.000    0.000    0.000    0.000 
#
# Total GULP energy -178631.178812 kJ/mol
# GULP energy per Si atom -5582.224338 kJ/mol
# Density = 1.720336 g / cm^3
# Si number density = 17.242601 Si / 1000 Ang^3
#
#
#
# Elastic Constant Matrix: (Units=GPa)
#
#
# Indices 1 2 3 4 5 6 
#
# 1 32.5144 43.5215 27.0609 0.0000 0.0000 0.0000
# 2 43.5215 179.2321 82.8077 0.0000 0.0000 0.0000
# 3 27.0609 82.8077 71.2992 0.0000 0.0000 0.0000
# 4 0.0000 0.0000 0.0000 29.0378 0.0000 0.0000
# 5 0.0000 0.0000 0.0000 0.0000 16.6525 0.0000
# 6 0.0000 0.0000 0.0000 0.0000 0.0000 32.3716
#
#
#
# Elastic Compliance Matrix: (Units=1/GPa)
#
#
# Indices 1 2 3 4 5 6 
#
# 1 0.048821 -0.007108 -0.010274 0.000000 0.000000 0.000000
# 2 -0.007108 0.013075 -0.012487 0.000000 0.000000 0.000000
# 3 -0.010274 -0.012487 0.032428 0.000000 0.000000 0.000000
# 4 0.000000 0.000000 0.000000 0.034438 0.000000 0.000000
# 5 0.000000 0.000000 0.000000 0.000000 0.060051 0.000000
# 6 0.000000 0.000000 0.000000 0.000000 0.000000 0.030891
#
#
# Mechanical properties :
#
#
# Convention : Reuss Voigt Hill
#
# Bulk Modulus (GPa) = 28.91492 65.53621 47.22556
# Shear Modulus (GPa) = 17.18392 24.25609 20.72000
#
# Velocity S-wave (km/s) = 3.16032 3.75474 3.47028
# Velocity P-wave (km/s) = 5.48841 7.54243 6.59587
#
# Compressibility (1/GPa) = 0.03458423
#
# Stress axis : x y z
#
# Youngs Moduli (GPa) = 20.48315 76.48432 30.83786
#
# Poissons Ratio (x) = 0.54364 0.31683
# Poissons Ratio (y) = 0.14559 0.38508
# Poissons Ratio (z) = 0.21045 0.95508
#
# Static dielectric constant tensor:
#      x y z
#    x 1.581800 0.000000 0.000000 
#    y 0.000000 1.572500 0.000000 
#    z 0.000000 0.000000 1.584920 
# 
# From -- ./inp_files/23196.got.cif
#   From: 2010.05.17/outbox.cif.g08.bks.cpg/sg46_12_cif.got.tgz:23196.got - 2010.06.03 19:58:25.
