data_PCOD9378526
_publ_section_title
;
Structure prediction by ZEFSAII (Michael W. Deem and Ramdas Pophale) SiO2 
 PCOD9378526
Probable space group: I M A 2
;
_chemical_formula_sum "Si O2"
_cell_formula_units_Z 64
_cell_length_a 8.702275
_cell_length_b 14.884069
_cell_length_c 28.888255
_cell_angle_alpha 90.000000
_cell_angle_beta 90.000000
_cell_angle_gamma 90.000000
_cell_volume 3741.758785
_symmetry_space_group_name_H-M "I M A 2"
_symmetry_group_IT_number 46
_symmetry_cell_setting 'orthorhombic'
loop_
_space_group_symop_operation_xyz
x,y,z
-x,-y,z
1/2-x,y,z
1/2+x,-y,z
1/2+x,1/2+y,1/2+z
1/2-x,1/2-y,1/2+z
-x,1/2+y,1/2+z
x,1/2-y,1/2+z
loop_
_atom_site_type_symbol
_atom_site_label
_atom_site_fract_x
_atom_site_fract_y
_atom_site_fract_z
Si Si1 0.435079 0.213758 0.140690
Si Si2 0.065426 0.786000 0.866403
Si Si3 0.430882 0.169240 0.240312
Si Si4 0.935730 0.598931 0.555114
Si Si5 0.930022 0.906256 0.337453
Si Si6 0.065594 0.099526 0.948950
Si Si7 0.067876 0.407955 0.175957
Si Si8 0.928695 0.147857 0.769417
O O1 0.250000 0.220358 0.136291
O O2 0.462977 0.152248 0.186348
O O3 0.492885 0.168567 0.093853
O O4 0.489775 0.314897 0.152644
O O5 0.250000 0.783881 0.866699
O O6 0.018843 0.849942 0.822745
O O7 0.005020 0.685024 0.857160
O O8 0.000962 0.829439 0.912842
O O9 0.250000 0.200355 0.242350
O O10 0.446396 0.098281 0.281298
O O11 0.545017 0.248699 0.254706
O O12 0.750000 0.595373 0.557282
O O13 0.977234 0.622187 0.502164
O O14 0.000000 0.500000 0.564969
O O15 0.750000 0.903315 0.348031
O O16 0.000000 0.000000 0.354174
O O17 0.250000 0.097132 0.945518
O O18 0.000000 0.000000 0.939206
O O19 0.250000 0.410019 0.171764
O O20 0.000000 0.500000 0.156388
O O21 0.023922 0.402770 0.230297
O O22 0.750000 0.122423 0.766556
#
# Coordination Sequence:
#
# PCOD9378526 Si02
#       8
#     8   8   8   8   8   8   8   8
#     4   8  15  30  50  70  95 128 162 195 237 286
#     4  10  20  34  52  73  98 129 166 207 248 293
#     4   8  15  28  45  65  93 129 163 195 232 274
#     4   9  18  33  52  74  98 124 156 195 242 293
#     4  10  19  31  48  72 103 137 171 204 240 285
#     4  10  20  34  53  75  98 125 158 200 250 301
#     4  10  19  31  48  69  97 132 165 198 235 280
#     4   9  17  29  45  66  92 122 158 198 236 276
#
# _framework density 17.104257
#
# number of rings (size 3 to 8) (size 9 to 14) (size 15 to 20)
#    0.000    2.750    0.000    2.625    0.000    3.500 
#    0.000    3.125    0.000    0.750    0.000    1.750 
#    0.000    0.000    0.000    0.000    0.000    0.000 
#
# Total GULP energy -178150.478961 kJ/mol
# GULP energy per Si atom -5567.202468 kJ/mol
# Density = 1.706533 g / cm^3
# Si number density = 17.104257 Si / 1000 Ang^3
#
#
#
# Elastic Constant Matrix: (Units=GPa)
#
#
# Indices 1 2 3 4 5 6 
#
# 1 35.2441 31.3889 30.3912 0.0000 0.0000 0.0000
# 2 31.3889 98.4125 73.6077 0.0000 0.0000 0.0000
# 3 30.3912 73.6077 119.3726 0.0000 0.0000 0.0000
# 4 0.0000 0.0000 0.0000 21.5972 0.0000 0.0000
# 5 0.0000 0.0000 0.0000 0.0000 14.8215 0.0000
# 6 0.0000 0.0000 0.0000 0.0000 0.0000 26.3058
#
#
#
# Elastic Compliance Matrix: (Units=1/GPa)
#
#
# Indices 1 2 3 4 5 6 
#
# 1 0.040834 -0.009741 -0.004389 0.000000 0.000000 0.000000
# 2 -0.009741 0.021183 -0.010582 0.000000 0.000000 0.000000
# 3 -0.004389 -0.010582 0.016020 0.000000 0.000000 0.000000
# 4 0.000000 0.000000 0.000000 0.046302 0.000000 0.000000
# 5 0.000000 0.000000 0.000000 0.000000 0.067470 0.000000
# 6 0.000000 0.000000 0.000000 0.000000 0.000000 0.038014
#
#
# Mechanical properties :
#
#
# Convention : Reuss Voigt Hill
#
# Bulk Modulus (GPa) = 34.95043 58.20052 46.57548
# Shear Modulus (GPa) = 17.31392 20.38767 18.85079
#
# Velocity S-wave (km/s) = 3.18505 3.45623 3.32341
# Velocity P-wave (km/s) = 5.83131 7.07306 6.48199
#
# Compressibility (1/GPa) = 0.02861195
#
# Stress axis : x y z
#
# Youngs Moduli (GPa) = 24.48936 47.20772 62.42331
#
# Poissons Ratio (x) = 0.45985 0.27400
# Poissons Ratio (y) = 0.23855 0.66056
# Poissons Ratio (z) = 0.10749 0.49955
#
# Static dielectric constant tensor:
#      x y z
#    x 1.580880 0.000000 0.000000 
#    y 0.000000 1.584880 0.000000 
#    z 0.000000 0.000000 1.598370 
# 
# From -- ./inp_files/25282.got.cif
#   From: 2010.05.17/outbox.cif.g08.bks.cpg/sg46_13_cif.got.tgz:25282.got - 2010.06.03 19:58:25.
