data_PCOD9378786
_publ_section_title
;
Structure prediction by ZEFSAII (Michael W. Deem and Ramdas Pophale) SiO2 
 PCOD9378786
Probable space group: I M A 2
;
_chemical_formula_sum "Si O2"
_cell_formula_units_Z 64
_cell_length_a 7.951173
_cell_length_b 26.044279
_cell_length_c 15.461791
_cell_angle_alpha 90.000000
_cell_angle_beta 90.000000
_cell_angle_gamma 90.000000
_cell_volume 3201.867386
_symmetry_space_group_name_H-M "I M A 2"
_symmetry_group_IT_number 46
_symmetry_cell_setting 'orthorhombic'
loop_
_space_group_symop_operation_xyz
x,y,z
-x,-y,z
1/2-x,y,z
1/2+x,-y,z
1/2+x,1/2+y,1/2+z
1/2-x,1/2-y,1/2+z
-x,1/2+y,1/2+z
x,1/2-y,1/2+z
loop_
_atom_site_type_symbol
_atom_site_label
_atom_site_fract_x
_atom_site_fract_y
_atom_site_fract_z
Si Si1 0.547334 0.393816 0.426800
Si Si2 0.450587 0.440909 0.242484
Si Si3 0.448046 0.780840 0.900935
Si Si4 0.951178 0.764069 0.704169
Si Si5 0.547556 0.861977 0.598319
Si Si6 0.547304 0.057716 0.103671
Si Si7 0.046688 0.650577 0.723146
Si Si8 0.547843 0.331389 0.917840
O O1 0.750000 0.391236 0.432579
O O2 0.506911 0.418154 0.334371
O O3 0.480617 0.335282 0.431354
O O4 0.486238 0.427603 0.507285
O O5 0.500000 0.500000 0.234142
O O6 0.250000 0.437663 0.241182
O O7 0.515669 0.405782 0.163606
O O8 0.250000 0.781314 0.922353
O O9 0.468299 0.777362 0.797102
O O10 0.519670 0.726652 0.933952
O O11 0.750000 0.768105 0.713839
O O12 0.008924 0.806789 0.636091
O O13 0.995780 0.705398 0.682870
O O14 0.750000 0.862549 0.600767
O O15 0.495455 0.866286 0.499043
O O16 0.750000 0.060295 0.103022
O O17 0.486262 0.101708 0.169288
O O18 0.500000 0.000000 0.127186
O O19 0.250000 0.649416 0.723595
O O20 0.987902 0.650960 0.823163
O O21 0.750000 0.327983 0.912049
#
# Coordination Sequence:
#
# PCOD9378786 Si02
#       8
#     8   8   8   8   8   8   8   8
#     4  10  20  35  57  85 114 149 186 223 275 333
#     4  11  23  40  58  80 113 150 190 233 278 330
#     4   9  18  33  53  82 115 147 185 221 267 330
#     4  10  19  33  53  81 113 146 181 222 277 332
#     4  10  22  37  53  80 116 148 182 228 280 329
#     4  10  22  39  59  82 112 146 188 236 280 331
#     4   9  20  39  59  81 110 146 187 234 279 329
#     4   9  19  34  56  83 111 145 186 228 272 327
#
# _framework density 19.988334999999999
#
# number of rings (size 3 to 8) (size 9 to 14) (size 15 to 20)
#    0.000    2.250    1.250    1.875    1.750    6.000 
#    0.000    0.625    0.000    3.000    0.000    0.000 
#    0.000    0.000    0.000    0.000    0.000    0.000 
#
# Total GULP energy -178621.367968 kJ/mol
# GULP energy per Si atom -5581.917749 kJ/mol
# Density = 1.994284 g / cm^3
# Si number density = 19.988335 Si / 1000 Ang^3
#
#
#
# Elastic Constant Matrix: (Units=GPa)
#
#
# Indices 1 2 3 4 5 6 
#
# 1 17.3103 10.5206 5.5834 0.0000 0.0000 0.0000
# 2 10.5206 151.1436 73.6482 0.0000 0.0000 0.0000
# 3 5.5834 73.6482 101.1259 0.0000 0.0000 0.0000
# 4 0.0000 0.0000 0.0000 30.5547 0.0000 0.0000
# 5 0.0000 0.0000 0.0000 0.0000 42.6123 0.0000
# 6 0.0000 0.0000 0.0000 0.0000 0.0000 15.5298
#
#
#
# Elastic Compliance Matrix: (Units=1/GPa)
#
#
# Indices 1 2 3 4 5 6 
#
# 1 0.060332 -0.003994 -0.000423 0.000000 0.000000 0.000000
# 2 -0.003994 0.010520 -0.007441 0.000000 0.000000 0.000000
# 3 -0.000423 -0.007441 0.015331 0.000000 0.000000 0.000000
# 4 0.000000 0.000000 0.000000 0.032728 0.000000 0.000000
# 5 0.000000 0.000000 0.000000 0.000000 0.023467 0.000000
# 6 0.000000 0.000000 0.000000 0.000000 0.000000 0.064392
#
#
# Mechanical properties :
#
#
# Convention : Reuss Voigt Hill
#
# Bulk Modulus (GPa) = 16.00791 49.89824 32.95308
# Shear Modulus (GPa) = 19.89580 29.72786 24.81183
#
# Velocity S-wave (km/s) = 3.15837 3.86069 3.52705
# Velocity P-wave (km/s) = 4.61806 6.70008 5.75402
#
# Compressibility (1/GPa) = 0.06246912
#
# Stress axis : x y z
#
# Youngs Moduli (GPa) = 16.57482 95.05684 65.22656
#
# Poissons Ratio (x) = 0.37962 0.02757
# Poissons Ratio (y) = 0.06619 0.48535
# Poissons Ratio (z) = 0.00701 0.70732
#
# Static dielectric constant tensor:
#      x y z
#    x 1.718650 0.000000 0.000000 
#    y 0.000000 1.703920 0.000000 
#    z 0.000000 0.000000 1.705640 
# 
# From -- ./inp_files/14499.got.cif
#   From: 2010.05.17/outbox.cif.g08.bks.cpg/sg46_8_cif.got.tgz:14499.got - 2010.06.03 19:58:25.
