data_PCOD9378430
_publ_section_title
;
Structure prediction by ZEFSAII (Michael W. Deem and Ramdas Pophale) SiO2 
 PCOD9378430
Probable space group: I M A 2
;
_chemical_formula_sum "Si O2"
_cell_formula_units_Z 64
_cell_length_a 8.920743
_cell_length_b 35.188079
_cell_length_c 14.004040
_cell_angle_alpha 90.000000
_cell_angle_beta 90.000000
_cell_angle_gamma 90.000000
_cell_volume 4395.921503
_symmetry_space_group_name_H-M "I M A 2"
_symmetry_group_IT_number 46
_symmetry_cell_setting 'orthorhombic'
loop_
_space_group_symop_operation_xyz
x,y,z
-x,-y,z
1/2-x,y,z
1/2+x,-y,z
1/2+x,1/2+y,1/2+z
1/2-x,1/2-y,1/2+z
-x,1/2+y,1/2+z
x,1/2-y,1/2+z
loop_
_atom_site_type_symbol
_atom_site_label
_atom_site_fract_x
_atom_site_fract_y
_atom_site_fract_z
Si Si1 0.070572 0.119043 0.804970
Si Si2 0.423443 0.960864 0.799791
Si Si3 0.928636 0.190833 0.704275
Si Si4 0.571777 0.771329 0.524486
Si Si5 0.573082 0.690238 0.621035
Si Si6 0.070040 0.263118 0.806208
Si Si7 0.930303 0.378885 0.515252
Si Si8 0.578761 0.461745 0.532153
O O1 0.250000 0.119859 0.807056
O O2 0.011818 0.077410 0.773987
O O3 0.005532 0.152062 0.738364
O O4 0.006248 0.126110 0.911727
O O5 0.250000 0.958688 0.770143
O O6 0.424504 0.962151 0.916030
O O7 0.500000 0.000000 0.766734
O O8 0.750000 0.187818 0.710001
O O9 0.981289 0.202835 0.598294
O O10 0.986913 0.224996 0.772479
O O11 0.750000 0.778881 0.536442
O O12 0.547878 0.727533 0.555760
O O13 0.531789 0.774926 0.413583
O O14 0.750000 0.680828 0.615502
O O15 0.538101 0.704462 0.727959
O O16 0.477481 0.655415 0.582851
O O17 0.250000 0.255657 0.802325
O O18 0.750000 0.380499 0.502436
O O19 0.981875 0.419913 0.556305
O O20 0.500000 0.500000 0.565884
O O21 0.750000 0.463495 0.563429
#
# Coordination Sequence:
#
# PCOD9378430 Si02
#       8
#     8   8   8   8   8   8   8   8
#     4  11  20  30  44  61  85 118 151 183 218 255
#     4   9  16  27  41  60  85 113 145 177 212 255
#     4  11  21  31  45  66  89 112 143 182 219 258
#     4   9  18  33  49  63  83 112 144 178 215 256
#     4   9  17  28  44  66  87 112 146 177 211 257
#     4   9  18  33  50  65  85 114 146 179 215 259
#     4  10  19  29  41  61  88 115 145 182 219 256
#     4   8  15  25  37  54  78 108 140 172 207 248
#
# _framework density 14.558949
#
# number of rings (size 3 to 8) (size 9 to 14) (size 15 to 20)
#    0.000    2.500    0.000    5.250    0.000    7.000 
#    0.000    0.000    0.000    0.000    0.000    0.000 
#    0.000    1.000    0.000    6.500    0.000    5.500 
#
# Total GULP energy -178349.231076 kJ/mol
# GULP energy per Si atom -5573.413471 kJ/mol
# Density = 1.452581 g / cm^3
# Si number density = 14.558949 Si / 1000 Ang^3
#
#
#
# Elastic Constant Matrix: (Units=GPa)
#
#
# Indices 1 2 3 4 5 6 
#
# 1 91.6989 68.3629 39.2849 0.0000 0.0000 0.0000
# 2 68.3629 124.7504 49.1125 0.0000 0.0000 0.0000
# 3 39.2849 49.1125 74.4162 0.0000 -0.0001 0.0000
# 4 0.0000 0.0000 0.0000 15.9009 0.0000 0.0000
# 5 0.0000 0.0000 -0.0001 0.0000 14.0063 0.0000
# 6 0.0000 0.0000 0.0000 0.0000 0.0000 28.3994
#
#
#
# Elastic Compliance Matrix: (Units=1/GPa)
#
#
# Indices 1 2 3 4 5 6 
#
# 1 0.019434 -0.008931 -0.004365 0.000000 0.000000 0.000000
# 2 -0.008931 0.014934 -0.005141 0.000000 0.000000 0.000000
# 3 -0.004365 -0.005141 0.019135 0.000000 0.000000 0.000000
# 4 0.000000 0.000000 0.000000 0.062889 0.000000 0.000000
# 5 0.000000 0.000000 0.000000 0.000000 0.071396 0.000000
# 6 0.000000 0.000000 0.000000 0.000000 0.000000 0.035212
#
#
# Mechanical properties :
#
#
# Convention : Reuss Voigt Hill
#
# Bulk Modulus (GPa) = 60.13787 67.15401 63.64594
# Shear Modulus (GPa) = 18.83817 20.60167 19.71992
#
# Velocity S-wave (km/s) = 3.60102 3.76580 3.68433
# Velocity P-wave (km/s) = 7.66067 8.07057 7.86829
#
# Compressibility (1/GPa) = 0.01662846
#
# Stress axis : x y z
#
# Youngs Moduli (GPa) = 51.45748 66.95963 52.25939
#
# Poissons Ratio (x) = 0.59803 0.22810
# Poissons Ratio (y) = 0.45958 0.26869
# Poissons Ratio (z) = 0.22460 0.34427
#
# Static dielectric constant tensor:
#      x y z
#    x 1.490850 0.000000 0.000000 
#    y 0.000000 1.484710 0.000000 
#    z 0.000000 0.000000 1.461730 
# 
# From -- ./inp_files/14773.got.cif
#   From: 2010.05.17/outbox.cif.g08.bks.cpg/sg46_8_cif.got.tgz:14773.got - 2010.06.03 19:58:25.
