data_PCOD9378409
_publ_section_title
;
Structure prediction by ZEFSAII (Michael W. Deem and Ramdas Pophale) SiO2 
 PCOD9378409
Probable space group: I M A 2
;
_chemical_formula_sum "Si O2"
_cell_formula_units_Z 60
_cell_length_a 18.405550
_cell_length_b 25.781804
_cell_length_c 5.270622
_cell_angle_alpha 90.000000
_cell_angle_beta 90.000000
_cell_angle_gamma 90.000000
_cell_volume 2501.059206
_symmetry_space_group_name_H-M "I M A 2"
_symmetry_group_IT_number 46
_symmetry_cell_setting 'orthorhombic'
loop_
_space_group_symop_operation_xyz
x,y,z
-x,-y,z
1/2-x,y,z
1/2+x,-y,z
1/2+x,1/2+y,1/2+z
1/2-x,1/2-y,1/2+z
-x,1/2+y,1/2+z
x,1/2-y,1/2+z
loop_
_atom_site_type_symbol
_atom_site_label
_atom_site_fract_x
_atom_site_fract_y
_atom_site_fract_z
Si Si1 0.575573 0.617979 0.591380
Si Si2 0.051054 0.267726 0.804436
Si Si3 0.333210 0.872731 0.576725
Si Si4 0.168301 0.092779 0.597654
Si Si5 0.000000 0.500000 0.106007
Si Si6 0.146095 0.984450 0.828914
Si Si7 0.428626 0.923570 0.214464
Si Si8 0.114512 0.725121 0.354162
O O1 0.554309 0.674246 0.701485
O O2 0.622572 0.618225 0.331983
O O3 0.495038 0.593867 0.535987
O O4 0.623385 0.593332 0.828134
O O5 0.086821 0.234657 0.580236
O O6 0.970994 0.242036 0.855261
O O7 0.250000 0.858643 0.523167
O O8 0.334301 0.931600 0.683873
O O9 0.386728 0.875354 0.337288
O O10 0.368955 0.833467 0.775997
O O11 0.250000 0.115112 0.558537
O O12 0.181548 0.034438 0.705876
O O13 0.026098 0.546273 0.928346
O O14 0.065982 0.493810 0.289526
O O15 0.135285 0.961788 0.112189
O O16 0.146312 0.741443 0.622162
#
# Coordination Sequence:
#
# PCOD9378409 Si02
#       8
#     8   8   8   8   4   8   8   8
#     4  12  25  45  77 110 146 191 251 310 368 442
#     4  10  21  39  71 107 135 175 233 303 370 429
#     4  11  27  44  67 102 148 198 246 303 367 440
#     4  12  27  48  73 107 154 201 242 295 376 458
#     4  10  18  38  58  98 132 172 242 292 346 396
#     4  11  24  41  66 101 148 195 244 294 362 433
#     4  11  23  39  68  98 139 192 248 305 349 417
#     4  10  23  44  68  99 135 185 239 303 361 425
#
# _framework density 23.989837000000001
#
# number of rings (size 3 to 8) (size 9 to 14) (size 15 to 20)
#    0.000    1.067    1.333    5.200    9.333    1.600 
#    0.000    0.000    0.000    8.000    0.000    0.000 
#    0.000    0.000    0.000    0.000    0.000    0.000 
#
# Total GULP energy -167135.788271 kJ/mol
# GULP energy per Si atom -5571.192942 kJ/mol
# Density = 2.393524 g / cm^3
# Si number density = 23.989837 Si / 1000 Ang^3
#
#
#
# Elastic Constant Matrix: (Units=GPa)
#
#
# Indices 1 2 3 4 5 6 
#
# 1 125.8259 20.8597 22.8441 0.0000 0.0000 0.0000
# 2 20.8597 103.2869 0.3920 0.0000 0.0000 0.0000
# 3 22.8441 0.3920 94.9498 0.0000 0.0000 0.0000
# 4 0.0000 0.0000 0.0000 65.1982 0.0000 0.0000
# 5 0.0000 0.0000 0.0000 0.0000 0.4137 0.0000
# 6 0.0000 0.0000 0.0000 0.0000 0.0000 16.2015
#
#
#
# Elastic Compliance Matrix: (Units=1/GPa)
#
#
# Indices 1 2 3 4 5 6 
#
# 1 0.008609 -0.001731 -0.002064 0.000000 0.000000 0.000000
# 2 -0.001731 0.010030 0.000375 0.000000 0.000000 0.000000
# 3 -0.002064 0.000375 0.011027 0.000000 0.000000 0.000000
# 4 0.000000 0.000000 0.000000 0.015338 0.000000 0.000000
# 5 0.000000 0.000000 0.000000 0.000000 2.417235 0.000000
# 6 0.000000 0.000000 0.000000 0.000000 0.000000 0.061723
#
#
# Mechanical properties :
#
#
# Convention : Reuss Voigt Hill
#
# Bulk Modulus (GPa) = 43.80956 45.80600 44.80778
# Shear Modulus (GPa) = 1.96974 35.02712 18.49843
#
# Velocity S-wave (km/s) = 0.90711 3.82525 2.77987
# Velocity P-wave (km/s) = 4.40437 6.21654 5.38720
#
# Compressibility (1/GPa) = 0.02282607
#
# Stress axis : x y z
#
# Youngs Moduli (GPa) = 116.15493 99.70176 90.68687
#
# Poissons Ratio (x) = 0.17257 0.18719
# Poissons Ratio (y) = 0.20105 -0.03401
# Poissons Ratio (z) = 0.23976 -0.03739
#
# Static dielectric constant tensor:
#      x y z
#    x 1.947280 0.000000 0.000000 
#    y 0.000000 1.833720 0.000000 
#    z 0.000000 0.000000 2.004740 
# 
# From -- ./inp_files/1816.got.cif
#   From: 2010.05.17/outbox.cif.g08.bks.cpg/sg46_1_cif.got.tgz:1816.got - 2010.06.03 19:58:25.
