data_PCOD9378402
_publ_section_title
;
Structure prediction by ZEFSAII (Michael W. Deem and Ramdas Pophale) SiO2 
 PCOD9378402
Probable space group: I M A 2
;
_chemical_formula_sum "Si O2"
_cell_formula_units_Z 60
_cell_length_a 16.088325
_cell_length_b 10.550470
_cell_length_c 19.521172
_cell_angle_alpha 90.000000
_cell_angle_beta 90.000000
_cell_angle_gamma 90.000000
_cell_volume 3313.511832
_symmetry_space_group_name_H-M "I M A 2"
_symmetry_group_IT_number 46
_symmetry_cell_setting 'orthorhombic'
loop_
_space_group_symop_operation_xyz
x,y,z
-x,-y,z
1/2-x,y,z
1/2+x,-y,z
1/2+x,1/2+y,1/2+z
1/2-x,1/2-y,1/2+z
-x,1/2+y,1/2+z
x,1/2-y,1/2+z
loop_
_atom_site_type_symbol
_atom_site_label
_atom_site_fract_x
_atom_site_fract_y
_atom_site_fract_z
Si Si1 0.154695 0.986411 0.615800
Si Si2 0.418876 0.591302 0.403947
Si Si3 0.953682 0.701440 0.914652
Si Si4 0.500000 0.000000 0.524072
Si Si5 0.969104 0.643446 0.758530
Si Si6 0.346739 0.102537 0.993974
Si Si7 0.847500 0.710168 0.636568
Si Si8 0.423868 0.602297 0.251549
O O1 0.250000 0.960297 0.592505
O O2 0.145903 0.139271 0.622327
O O3 0.075308 0.944885 0.570059
O O4 0.138513 0.926152 0.690235
O O5 0.500000 0.500000 0.403432
O O6 0.456547 0.729490 0.415551
O O7 0.363834 0.537243 0.464945
O O8 0.384330 0.583832 0.326972
O O9 0.956006 0.597286 0.972955
O O10 0.939734 0.654806 0.837590
O O11 0.886397 0.803646 0.938392
O O12 0.898117 0.674429 0.703771
O O13 0.000000 0.500000 0.747754
O O14 0.036978 0.756479 0.748920
O O15 0.250000 0.127682 0.997740
O O16 0.380758 0.135510 0.069398
O O17 0.750000 0.680871 0.645952
O O18 0.500000 0.500000 0.245513
#
# Coordination Sequence:
#
# PCOD9378402 Si02
#       8
#     8   8   8   4   8   8   8   8
#     4  11  22  37  61  90 116 155 204 246 297 354
#     4   8  18  34  55  82 112 144 190 235 287 344
#     4  10  21  36  58  85 113 150 196 235 293 363
#     4  12  20  38  62  82 120 156 188 246 296 346
#     4  11  22  38  60  87 115 158 200 238 297 363
#     4  10  20  36  58  86 116 148 193 248 295 345
#     4  10  21  37  56  84 118 150 196 248 293 350
#     4  10  18  37  59  85 117 153 195 245 294 347
#
# _framework density 18.107676999999999
#
# number of rings (size 3 to 8) (size 9 to 14) (size 15 to 20)
#    0.000    1.867    4.000    0.800    0.000    2.667 
#    0.000    1.333    0.000    1.600    0.000    0.000 
#    0.000    0.000    0.000    0.000    0.000    0.000 
#
# Total GULP energy -167144.106867 kJ/mol
# GULP energy per Si atom -5571.470229 kJ/mol
# Density = 1.806646 g / cm^3
# Si number density = 18.107677 Si / 1000 Ang^3
#
#
#
# Elastic Constant Matrix: (Units=GPa)
#
#
# Indices 1 2 3 4 5 6 
#
# 1 54.3187 1.6787 37.6150 0.0000 0.0000 0.0000
# 2 1.6787 53.9830 17.9177 0.0000 0.0000 0.0000
# 3 37.6150 17.9177 108.8368 0.0000 0.0000 0.0000
# 4 0.0000 0.0000 0.0000 21.3167 0.0000 0.0000
# 5 0.0000 0.0000 0.0000 0.0000 19.0154 0.0000
# 6 0.0000 0.0000 0.0000 0.0000 0.0000 19.2015
#
#
#
# Elastic Compliance Matrix: (Units=1/GPa)
#
#
# Indices 1 2 3 4 5 6 
#
# 1 0.024438 0.002162 -0.008802 0.000000 0.000000 0.000000
# 2 0.002162 0.019786 -0.004004 0.000000 0.000000 0.000000
# 3 -0.008802 -0.004004 0.012889 0.000000 0.000000 0.000000
# 4 0.000000 0.000000 0.000000 0.046912 0.000000 0.000000
# 5 0.000000 0.000000 0.000000 0.000000 0.052589 0.000000
# 6 0.000000 0.000000 0.000000 0.000000 0.000000 0.052079
#
#
# Mechanical properties :
#
#
# Convention : Reuss Voigt Hill
#
# Bulk Modulus (GPa) = 27.91407 36.84016 32.37711
# Shear Modulus (GPa) = 20.66757 22.56853 21.61805
#
# Velocity S-wave (km/s) = 3.38208 3.53420 3.45898
# Velocity P-wave (km/s) = 5.54079 6.08632 5.81995
#
# Compressibility (1/GPa) = 0.03582422
#
# Stress axis : x y z
#
# Youngs Moduli (GPa) = 40.91936 50.54005 77.58337
#
# Poissons Ratio (x) = -0.10925 0.68289
# Poissons Ratio (y) = -0.08845 0.31068
# Poissons Ratio (z) = 0.36017 0.20239
#
# Static dielectric constant tensor:
#      x y z
#    x 1.625830 0.000000 0.000000 
#    y 0.000000 1.752810 0.000000 
#    z 0.000000 0.000000 1.635740 
# 
# From -- ./inp_files/16714.got.cif
#   From: 2010.05.17/outbox.cif.g08.bks.cpg/sg46_9_cif.got.tgz:16714.got - 2010.06.03 19:58:25.
