data_PCOD9378622
_publ_section_title
;
Structure prediction by ZEFSAII (Michael W. Deem and Ramdas Pophale) SiO2 
 PCOD9378622
Probable space group: I M A 2
;
_chemical_formula_sum "Si O2"
_cell_formula_units_Z 56
_cell_length_a 8.287045
_cell_length_b 24.723053
_cell_length_c 14.221053
_cell_angle_alpha 90.000000
_cell_angle_beta 90.000000
_cell_angle_gamma 90.000000
_cell_volume 2913.624310
_symmetry_space_group_name_H-M "I M A 2"
_symmetry_group_IT_number 46
_symmetry_cell_setting 'orthorhombic'
loop_
_space_group_symop_operation_xyz
x,y,z
-x,-y,z
1/2-x,y,z
1/2+x,-y,z
1/2+x,1/2+y,1/2+z
1/2-x,1/2-y,1/2+z
-x,1/2+y,1/2+z
x,1/2-y,1/2+z
loop_
_atom_site_type_symbol
_atom_site_label
_atom_site_fract_x
_atom_site_fract_y
_atom_site_fract_z
Si Si1 0.552069 0.833441 0.355530
Si Si2 0.057177 0.939327 0.671603
Si Si3 0.444131 0.334290 0.067745
Si Si4 0.556487 0.060498 0.038938
Si Si5 0.557510 0.939830 0.250773
Si Si6 0.555071 0.376214 0.357989
Si Si7 0.444016 0.227514 0.750386
O O1 0.750000 0.833346 0.355594
O O2 0.498142 0.823312 0.462364
O O3 0.498715 0.891863 0.317950
O O4 0.497981 0.785486 0.286462
O O5 0.250000 0.937571 0.666845
O O6 0.007698 0.918589 0.775834
O O7 0.988407 0.894818 0.600159
O O8 0.000000 0.000000 0.654309
O O9 0.250000 0.330133 0.067002
O O10 0.505862 0.293980 0.149477
O O11 0.750000 0.060758 0.040930
O O12 0.500284 0.102084 0.959006
O O13 0.500000 0.000000 0.013576
O O14 0.494555 0.071938 0.143586
O O15 0.750000 0.940335 0.253446
O O16 0.500000 0.000000 0.275903
O O17 0.750000 0.373247 0.358509
O O18 0.488010 0.318565 0.325960
O O19 0.250000 0.230192 0.744087
#
# Coordination Sequence:
#
# PCOD9378622 Si02
#       7
#     8   8   8   8   8   8   8
#     4   9  19  35  55  78 102 132 168 207 251 299
#     4  10  19  32  50  74 104 136 172 210 252 300
#     4   9  18  34  53  74 103 134 167 208 251 298
#     4  10  19  32  50  74 104 136 171 209 253 301
#     4  10  20  35  53  74 102 133 169 211 253 297
#     4   9  19  33  49  73 106 138 167 207 255 302
#     4   9  18  33  54  77 100 131 171 210 248 295
#
# _framework density 19.220047999999998
#
# number of rings (size 3 to 8) (size 9 to 14) (size 15 to 20)
#    0.000    2.571    0.000    2.571    0.000    3.429 
#    0.000    7.857    0.000    3.429    0.000    0.000 
#    0.000    0.000    0.000    0.000    0.000    0.000 
#
# Total GULP energy -156219.544814 kJ/mol
# GULP energy per Si atom -5579.269458 kJ/mol
# Density = 1.917630 g / cm^3
# Si number density = 19.220048 Si / 1000 Ang^3
#
#
#
# Elastic Constant Matrix: (Units=GPa)
#
#
# Indices 1 2 3 4 5 6 
#
# 1 15.7643 9.3957 13.5291 0.0000 0.0000 0.0000
# 2 9.3957 134.5078 94.2231 0.0000 0.0000 0.0000
# 3 13.5291 94.2231 116.5360 0.0000 0.0000 0.0000
# 4 0.0000 0.0000 0.0000 18.9670 0.0000 0.0000
# 5 0.0000 0.0000 0.0000 0.0000 16.4597 0.0000
# 6 0.0000 0.0000 0.0000 0.0000 0.0000 22.5994
#
#
#
# Elastic Compliance Matrix: (Units=1/GPa)
#
#
# Indices 1 2 3 4 5 6 
#
# 1 0.070657 0.001869 -0.009714 0.000000 0.000000 0.000000
# 2 0.001869 0.017195 -0.014119 0.000000 0.000000 0.000000
# 3 -0.009714 -0.014119 0.021125 0.000000 0.000000 0.000000
# 4 0.000000 0.000000 0.000000 0.052723 0.000000 0.000000
# 5 0.000000 0.000000 0.000000 0.000000 0.060754 0.000000
# 6 0.000000 0.000000 0.000000 0.000000 0.000000 0.044249
#
#
# Mechanical properties :
#
#
# Convention : Reuss Voigt Hill
#
# Bulk Modulus (GPa) = 15.37327 55.67820 35.52573
# Shear Modulus (GPa) = 15.04598 21.58257 18.31428
#
# Velocity S-wave (km/s) = 2.80094 3.35464 3.09021
# Velocity P-wave (km/s) = 4.29840 6.63600 5.59074
#
# Compressibility (1/GPa) = 0.06504798
#
# Stress axis : x y z
#
# Youngs Moduli (GPa) = 14.15281 58.15768 47.33767
#
# Poissons Ratio (x) = -0.10872 0.45985
# Poissons Ratio (y) = -0.02646 0.66838
# Poissons Ratio (z) = 0.13749 0.82115
#
# Static dielectric constant tensor:
#      x y z
#    x 1.671050 0.000000 0.000000 
#    y 0.000000 1.648950 0.000000 
#    z 0.000000 0.000000 1.674910 
# 
# From -- ./inp_files/14206.got.cif
#   From: 2010.05.17/outbox.cif.g08.bks.cpg/sg46_8_cif.got.tgz:14206.got - 2010.06.03 19:58:25.
