data_PCOD9378546
_publ_section_title
;
Structure prediction by ZEFSAII (Michael W. Deem and Ramdas Pophale) SiO2 
 PCOD9378546
Probable space group: I M A 2
;
_chemical_formula_sum "Si O2"
_cell_formula_units_Z 64
_cell_length_a 8.691085
_cell_length_b 23.771997
_cell_length_c 19.709897
_cell_angle_alpha 90.000000
_cell_angle_beta 90.000000
_cell_angle_gamma 90.000000
_cell_volume 4072.152361
_symmetry_space_group_name_H-M "I M A 2"
_symmetry_group_IT_number 46
_symmetry_cell_setting 'orthorhombic'
loop_
_space_group_symop_operation_xyz
x,y,z
-x,-y,z
1/2-x,y,z
1/2+x,-y,z
1/2+x,1/2+y,1/2+z
1/2-x,1/2-y,1/2+z
-x,1/2+y,1/2+z
x,1/2-y,1/2+z
loop_
_atom_site_type_symbol
_atom_site_label
_atom_site_fract_x
_atom_site_fract_y
_atom_site_fract_z
Si Si1 0.934871 0.062121 0.246010
Si Si2 0.565277 0.881783 0.382315
Si Si3 0.566043 0.232643 0.028535
Si Si4 0.933504 0.062371 0.518919
Si Si5 0.434539 0.340483 0.106133
Si Si6 0.065080 0.834317 0.158064
Si Si7 0.564608 0.772836 0.735979
Si Si8 0.064994 0.248660 0.885307
O O1 0.750000 0.059908 0.248813
O O2 0.982932 0.105233 0.186359
O O3 0.996760 0.088217 0.316236
O O4 0.000000 0.000000 0.236527
O O5 0.750000 0.887191 0.381911
O O6 0.499097 0.910433 0.449729
O O7 0.527434 0.815344 0.381934
O O8 0.750000 0.240237 0.030648
O O9 0.511709 0.223574 0.952138
O O10 0.487371 0.289322 0.057352
O O11 0.522894 0.183350 0.081517
O O12 0.750000 0.060606 0.515331
O O13 0.987844 0.103118 0.579404
O O14 0.000000 0.000000 0.526565
O O15 0.250000 0.345714 0.102181
O O16 0.479503 0.320894 0.182051
O O17 0.250000 0.831619 0.162664
O O18 0.997977 0.785732 0.206275
O O19 0.750000 0.769470 0.735439
O O20 0.515843 0.778660 0.813924
O O21 0.250000 0.244208 0.891480
#
# Coordination Sequence:
#
# PCOD9378546 Si02
#       8
#     8   8   8   8   8   8   8   8
#     4  11  22  35  50  69  97 132 171 208 245 287
#     4  11  21  34  50  70 101 134 170 204 236 283
#     4  10  19  31  49  72  98 128 161 200 247 293
#     4  12  24  37  52  70  97 132 171 206 243 286
#     4  10  19  33  51  72  97 127 162 202 245 288
#     4   9  19  33  48  69  96 126 162 204 245 288
#     4   9  18  32  51  72  97 127 160 198 241 290
#     4  10  19  31  49  74 102 132 163 197 239 290
#
# _framework density 15.716504
#
# number of rings (size 3 to 8) (size 9 to 14) (size 15 to 20)
#    0.000    1.750    2.500    3.000    0.000    2.500 
#    0.000    0.000    0.000    0.000    0.000    0.875 
#    0.000    4.000    0.000    0.000    0.000    0.000 
#
# Total GULP energy -178611.635406 kJ/mol
# GULP energy per Si atom -5581.613606 kJ/mol
# Density = 1.568073 g / cm^3
# Si number density = 15.716504 Si / 1000 Ang^3
#
#
#
# Elastic Constant Matrix: (Units=GPa)
#
#
# Indices 1 2 3 4 5 6 
#
# 1 45.8615 34.8994 36.1355 0.0000 0.0000 0.0000
# 2 34.8994 88.1489 64.4839 0.0000 0.0000 0.0000
# 3 36.1355 64.4839 144.1829 0.0000 0.0000 0.0000
# 4 0.0000 0.0000 0.0000 19.7970 0.0000 0.0000
# 5 0.0000 0.0000 0.0000 0.0000 14.4243 0.0000
# 6 0.0000 0.0000 0.0000 0.0000 0.0000 18.8388
#
#
#
# Elastic Compliance Matrix: (Units=1/GPa)
#
#
# Indices 1 2 3 4 5 6 
#
# 1 0.032378 -0.010230 -0.003540 0.000000 0.000000 0.000000
# 2 -0.010230 0.020093 -0.006422 0.000000 0.000000 0.000000
# 3 -0.003540 -0.006422 0.010695 0.000000 0.000000 0.000000
# 4 0.000000 0.000000 0.000000 0.050513 0.000000 0.000000
# 5 0.000000 0.000000 0.000000 0.000000 0.069327 0.000000
# 6 0.000000 0.000000 0.000000 0.000000 0.000000 0.053082
#
#
# Mechanical properties :
#
#
# Convention : Reuss Voigt Hill
#
# Bulk Modulus (GPa) = 43.89303 61.02565 52.45934
# Shear Modulus (GPa) = 17.60157 20.12367 18.86262
#
# Velocity S-wave (km/s) = 3.35018 3.58217 3.46812
# Velocity P-wave (km/s) = 6.55390 7.48482 7.03478
#
# Compressibility (1/GPa) = 0.02278266
#
# Stress axis : x y z
#
# Youngs Moduli (GPa) = 30.88491 49.76929 93.50079
#
# Poissons Ratio (x) = 0.50912 0.33096
# Poissons Ratio (y) = 0.31594 0.60050
# Poissons Ratio (z) = 0.10932 0.31964
#
# Static dielectric constant tensor:
#      x y z
#    x 1.531260 0.000000 0.000000 
#    y 0.000000 1.501180 0.000000 
#    z 0.000000 0.000000 1.536850 
# 
# From -- ./inp_files/18619.got.cif
#   From: 2010.05.17/outbox.cif.g08.bks.cpg/sg46_10_cif.got.tgz:18619.got - 2010.06.03 19:58:25.
