data_PCOD9378845
_publ_section_title
;
Structure prediction by ZEFSAII (Michael W. Deem and Ramdas Pophale) SiO2 
 PCOD9378845
Probable space group: I M A 2
;
_chemical_formula_sum "Si O2"
_cell_formula_units_Z 64
_cell_length_a 8.702671
_cell_length_b 28.756781
_cell_length_c 12.975728
_cell_angle_alpha 90.000000
_cell_angle_beta 90.000000
_cell_angle_gamma 90.000000
_cell_volume 3247.316123
_symmetry_space_group_name_H-M "I M A 2"
_symmetry_group_IT_number 46
_symmetry_cell_setting 'orthorhombic'
loop_
_space_group_symop_operation_xyz
x,y,z
-x,-y,z
1/2-x,y,z
1/2+x,-y,z
1/2+x,1/2+y,1/2+z
1/2-x,1/2-y,1/2+z
-x,1/2+y,1/2+z
x,1/2-y,1/2+z
loop_
_atom_site_type_symbol
_atom_site_label
_atom_site_fract_x
_atom_site_fract_y
_atom_site_fract_z
Si Si1 0.435581 0.051125 0.977590
Si Si2 0.067809 0.047146 0.325281
Si Si3 0.564751 0.621286 0.658551
Si Si4 0.934229 0.590658 0.254821
Si Si5 0.935146 0.205265 0.267427
Si Si6 0.575986 0.431264 0.040434
Si Si7 0.936471 0.191691 0.709207
Si Si8 0.425254 0.678015 0.988208
O O1 0.250000 0.048751 0.981854
O O2 0.480497 0.066231 0.861620
O O3 0.500000 0.000000 0.001907
O O4 0.483602 0.091302 0.058699
O O5 0.250000 0.045653 0.319301
O O6 0.013493 0.090823 0.257912
O O7 0.017375 0.049633 0.443907
O O8 0.000000 0.000000 0.279279
O O9 0.750000 0.623554 0.657499
O O10 0.501217 0.672883 0.676938
O O11 0.750000 0.590583 0.247551
O O12 0.002499 0.565530 0.153378
O O13 0.992812 0.644185 0.252722
O O14 0.750000 0.200203 0.262293
O O15 0.970614 0.259911 0.263998
O O16 0.996460 0.186789 0.377424
O O17 0.750000 0.449717 0.040620
O O18 0.582060 0.376373 0.014337
O O19 0.750000 0.185438 0.706387
O O20 0.995008 0.198801 0.591747
O O21 0.250000 0.696116 0.980875
#
# Coordination Sequence:
#
# PCOD9378845 Si02
#       8
#     8   8   8   8   8   8   8   8
#     4  10  23  42  62  85 117 157 199 249 300 356
#     4  11  22  35  55  83 113 145 185 231 283 347
#     4  10  22  39  57  82 116 150 192 243 294 351
#     4  10  21  38  59  83 116 153 196 242 292 351
#     4  10  19  33  56  83 113 152 199 243 291 349
#     4  10  19  35  58  81 111 145 182 231 288 342
#     4   9  19  34  54  83 116 153 197 245 293 345
#     4   8  15  30  50  74 107 143 178 226 282 333
#
# _framework density 19.708583000000001
#
# number of rings (size 3 to 8) (size 9 to 14) (size 15 to 20)
#    0.000    2.250    1.250    2.250    0.000    4.000 
#    0.000    2.500    0.000    0.000    0.000    0.000 
#    0.000    0.000    0.000    0.000    0.000    0.000 
#
# Total GULP energy -178436.933968 kJ/mol
# GULP energy per Si atom -5576.154186 kJ/mol
# Density = 1.966373 g / cm^3
# Si number density = 19.708583 Si / 1000 Ang^3
#
#
#
# Elastic Constant Matrix: (Units=GPa)
#
#
# Indices 1 2 3 4 5 6 
#
# 1 27.6973 6.3501 10.7091 -0.0001 0.0000 0.0000
# 2 6.3501 43.7217 6.8245 0.0001 0.0000 0.0001
# 3 10.7091 6.8245 87.6605 0.0000 0.0000 0.0001
# 4 -0.0001 0.0001 0.0000 16.3641 0.0000 0.0001
# 5 0.0000 0.0000 0.0000 0.0000 18.9780 0.0000
# 6 0.0000 0.0001 0.0001 0.0001 0.0000 25.8903
#
#
#
# Elastic Compliance Matrix: (Units=1/GPa)
#
#
# Indices 1 2 3 4 5 6 
#
# 1 0.038934 -0.004973 -0.004369 0.000000 0.000000 0.000000
# 2 -0.004973 0.023788 -0.001244 0.000000 0.000000 0.000000
# 3 -0.004369 -0.001244 0.012038 0.000000 0.000000 0.000000
# 4 0.000000 0.000000 0.000000 0.061109 0.000000 0.000000
# 5 0.000000 0.000000 0.000000 0.000000 0.052693 0.000000
# 6 0.000000 0.000000 0.000000 0.000000 0.000000 0.038624
#
#
# Mechanical properties :
#
#
# Convention : Reuss Voigt Hill
#
# Bulk Modulus (GPa) = 18.66095 22.98298 20.82197
# Shear Modulus (GPa) = 18.78126 21.25954 20.02040
#
# Velocity S-wave (km/s) = 3.09034 3.28791 3.19065
# Velocity P-wave (km/s) = 4.71408 5.10887 4.91544
#
# Compressibility (1/GPa) = 0.05358783
#
# Stress axis : x y z
#
# Youngs Moduli (GPa) = 25.68444 42.03728 83.06825
#
# Poissons Ratio (x) = 0.20904 0.36295
# Poissons Ratio (y) = 0.12772 0.10337
# Poissons Ratio (z) = 0.11222 0.05231
#
# Static dielectric constant tensor:
#      x y z
#    x 1.682580 0.000000 0.000000 
#    y 0.000000 1.718250 0.000000 
#    z 0.000000 0.000000 1.719510 
# 
# From -- ./inp_files/9743.got.cif
#   From: 2010.05.17/outbox.cif.g08.bks.cpg/sg46_5_cif.got.tgz:9743.got - 2010.06.03 19:58:25.
