data_PCOD9378291
_publ_section_title
;
Structure prediction by ZEFSAII (Michael W. Deem and Ramdas Pophale) SiO2 
 PCOD9378291
Probable space group: I M A 2
;
_chemical_formula_sum "Si O2"
_cell_formula_units_Z 48
_cell_length_a 16.875476
_cell_length_b 17.065224
_cell_length_c 8.793751
_cell_angle_alpha 90.000000
_cell_angle_beta 90.000000
_cell_angle_gamma 90.000000
_cell_volume 2532.457636
_symmetry_space_group_name_H-M "I M A 2"
_symmetry_group_IT_number 46
_symmetry_cell_setting 'orthorhombic'
loop_
_space_group_symop_operation_xyz
x,y,z
-x,-y,z
1/2-x,y,z
1/2+x,-y,z
1/2+x,1/2+y,1/2+z
1/2-x,1/2-y,1/2+z
-x,1/2+y,1/2+z
x,1/2-y,1/2+z
loop_
_atom_site_type_symbol
_atom_site_label
_atom_site_fract_x
_atom_site_fract_y
_atom_site_fract_z
Si Si1 0.594192 0.492121 0.684370
Si Si2 0.157065 0.156328 0.113008
Si Si3 0.453961 0.818599 0.630015
Si Si4 0.659615 0.328203 0.674923
Si Si5 0.436227 0.250710 0.870665
Si Si6 0.659528 0.421022 0.974246
O O1 0.500000 0.500000 0.685293
O O2 0.634521 0.565205 0.603768
O O3 0.620529 0.408621 0.614232
O O4 0.627178 0.487261 0.858784
O O5 0.250000 0.165699 0.139687
O O6 0.105449 0.192873 0.249682
O O7 0.128397 0.203098 0.965377
O O8 0.392830 0.746252 0.640940
O O9 0.507805 0.809769 0.779162
O O10 0.510661 0.801817 0.485950
O O11 0.402492 0.896427 0.602612
O O12 0.750000 0.319573 0.623143
O O13 0.661105 0.346785 0.856446
O O14 0.750000 0.436104 0.022511
#
# Coordination Sequence:
#
# PCOD9378291 Si02
#       6
#     8   8   8   8   8   8
#     4  10  18  33  56  82 107 141 190 232 278 333
#     4  11  21  38  58  82 112 147 190 244 287 333
#     4  11  17  35  53  82 117 147 182 230 276 332
#     4   9  18  31  51  84 113 145 185 225 276 338
#     4  10  22  32  55  84 108 146 192 231 283 336
#     4   9  18  31  51  84 112 144 186 224 272 334
#
# _framework density 18.95392
#
# number of rings (size 3 to 8) (size 9 to 14) (size 15 to 20)
#    1.000    1.000    1.667    5.000    0.000    0.000 
#    0.000    0.000    0.000   15.000    0.000   18.667 
#    0.000    0.000    0.000    0.000    0.000    0.000 
#
# Total GULP energy -133774.159152 kJ/mol
# GULP energy per Si atom -5573.923298 kJ/mol
# Density = 1.891078 g / cm^3
# Si number density = 18.953920 Si / 1000 Ang^3
#
#
#
# Elastic Constant Matrix: (Units=GPa)
#
#
# Indices 1 2 3 4 5 6 
#
# 1 104.8795 -5.9360 -4.2462 0.0000 0.0000 0.0000
# 2 -5.9360 23.0764 -14.8609 0.0000 0.0000 0.0000
# 3 -4.2462 -14.8609 23.7662 0.0000 0.0000 0.0000
# 4 0.0000 0.0000 0.0000 23.0882 0.0000 0.0000
# 5 0.0000 0.0000 0.0000 0.0000 23.9132 0.0000
# 6 0.0000 0.0000 0.0000 0.0000 0.0000 20.5667
#
#
#
# Elastic Compliance Matrix: (Units=1/GPa)
#
#
# Indices 1 2 3 4 5 6 
#
# 1 0.010125 0.006311 0.005755 0.000000 0.000000 0.000000
# 2 0.006311 0.076481 0.048951 0.000000 0.000000 0.000000
# 3 0.005755 0.048951 0.073713 0.000000 0.000000 0.000000
# 4 0.000000 0.000000 0.000000 0.043312 0.000000 0.000000
# 5 0.000000 0.000000 0.000000 0.000000 0.041818 0.000000
# 6 0.000000 0.000000 0.000000 0.000000 0.000000 0.048622
#
#
# Mechanical properties :
#
#
# Convention : Reuss Voigt Hill
#
# Bulk Modulus (GPa) = 3.54169 11.29289 7.41729
# Shear Modulus (GPa) = 18.78593 25.29796 22.04195
#
# Velocity S-wave (km/s) = 3.15165 3.65733 3.41387
# Velocity P-wave (km/s) = 3.88799 4.87911 4.41148
#
# Compressibility (1/GPa) = 0.28235134
#
# Stress axis : x y z
#
# Youngs Moduli (GPa) = 98.76633 13.07513 13.56609
#
# Poissons Ratio (x) = -0.08251 -0.07807
# Poissons Ratio (y) = -0.62327 -0.66407
# Poissons Ratio (z) = -0.56839 -0.64004
#
# Static dielectric constant tensor:
#      x y z
#    x 1.652670 0.000000 0.000000 
#    y 0.000000 1.635770 0.000000 
#    z 0.000000 0.000000 1.669380 
# 
# From -- ./inp_files/6698.got.cif
#   From: 2010.05.17/outbox.cif.g08.bks.cpg/sg46_4_cif.got.tgz:6698.got - 2010.06.03 19:58:25.
