data_PCOD9378161
_publ_section_title
;
Structure prediction by ZEFSAII (Michael W. Deem and Ramdas Pophale) SiO2 
 PCOD9378161
Probable space group: I M A 2
;
_chemical_formula_sum "Si O2"
_cell_formula_units_Z 64
_cell_length_a 8.617112
_cell_length_b 23.865155
_cell_length_c 19.705188
_cell_angle_alpha 90.000000
_cell_angle_beta 90.000000
_cell_angle_gamma 90.000000
_cell_volume 4052.346562
_symmetry_space_group_name_H-M "I M A 2"
_symmetry_group_IT_number 46
_symmetry_cell_setting 'orthorhombic'
loop_
_space_group_symop_operation_xyz
x,y,z
-x,-y,z
1/2-x,y,z
1/2+x,-y,z
1/2+x,1/2+y,1/2+z
1/2-x,1/2-y,1/2+z
-x,1/2+y,1/2+z
x,1/2-y,1/2+z
loop_
_atom_site_type_symbol
_atom_site_label
_atom_site_fract_x
_atom_site_fract_y
_atom_site_fract_z
Si Si1 0.063784 0.937772 0.082780
Si Si2 0.436504 0.772293 0.873647
Si Si3 0.436871 0.748727 0.723706
Si Si4 0.936243 0.727014 0.081162
Si Si5 0.936087 0.837529 0.997445
Si Si6 0.063523 0.562366 0.865411
Si Si7 0.438756 0.880959 0.223803
Si Si8 0.563416 0.662955 0.949076
O O1 0.250000 0.938738 0.082348
O O2 0.011111 0.913087 0.155911
O O3 0.000000 0.000000 0.073600
O O4 0.004349 0.894832 0.025959
O O5 0.250000 0.772956 0.877500
O O6 0.484311 0.776169 0.795025
O O7 0.504633 0.819095 0.923563
O O8 0.495761 0.712558 0.902025
O O9 0.250000 0.747769 0.722311
O O10 0.495681 0.778006 0.655795
O O11 0.490859 0.683691 0.723158
O O12 0.750000 0.727614 0.085516
O O13 0.985035 0.786696 0.048041
O O14 0.980593 0.680053 0.025970
O O15 0.750000 0.839559 0.997225
O O16 0.250000 0.561957 0.866687
O O17 0.012298 0.587715 0.792406
O O18 0.000000 0.500000 0.873275
O O19 0.001199 0.604503 0.922527
O O20 0.250000 0.880252 0.223896
O O21 0.750000 0.664072 0.944312
#
# Coordination Sequence:
#
# PCOD9378161 Si02
#       8
#     8   8   8   8   8   8   8   8
#     4  11  21  34  51  70  98 135 173 210 249 290
#     4  10  19  32  51  73  99 130 164 205 251 299
#     4  10  18  31  50  74 100 130 167 202 243 298
#     4   9  19  32  48  71  99 127 162 205 250 295
#     4  10  20  34  49  71  99 129 168 209 248 295
#     4  11  21  35  51  71  99 134 174 210 248 291
#     4   9  18  32  47  69 100 134 172 207 239 287
#     4  10  20  34  49  71  99 130 168 209 248 293
#
# _framework density 15.793317999999999
#
# number of rings (size 3 to 8) (size 9 to 14) (size 15 to 20)
#    0.000    2.000    2.500    3.000    0.000    3.500 
#    0.000    1.875    0.000    0.000    0.000    0.875 
#    0.000    2.000    0.000    0.000    0.000    0.000 
#
# Total GULP energy -178571.928725 kJ/mol
# GULP energy per Si atom -5580.372773 kJ/mol
# Density = 1.575737 g / cm^3
# Si number density = 15.793318 Si / 1000 Ang^3
#
#
#
# Elastic Constant Matrix: (Units=GPa)
#
#
# Indices 1 2 3 4 5 6 
#
# 1 40.8665 26.8799 36.2003 0.0000 0.0000 0.0000
# 2 26.8799 98.8012 73.2246 0.0000 0.0000 0.0000
# 3 36.2003 73.2246 155.1952 0.0000 0.0000 0.0000
# 4 0.0000 0.0000 0.0000 20.4889 0.0000 0.0000
# 5 0.0000 0.0000 0.0000 0.0000 15.5031 0.0000
# 6 0.0000 0.0000 0.0000 0.0000 0.0000 24.1753
#
#
#
# Elastic Compliance Matrix: (Units=1/GPa)
#
#
# Indices 1 2 3 4 5 6 
#
# 1 0.032333 -0.004932 -0.005215 0.000000 0.000000 0.000000
# 2 -0.004932 0.016316 -0.006548 0.000000 0.000000 0.000000
# 3 -0.005215 -0.006548 0.010749 0.000000 0.000000 0.000000
# 4 0.000000 0.000000 0.000000 0.048807 0.000000 0.000000
# 5 0.000000 0.000000 0.000000 0.000000 0.064503 0.000000
# 6 0.000000 0.000000 0.000000 0.000000 0.000000 0.041365
#
#
# Mechanical properties :
#
#
# Convention : Reuss Voigt Hill
#
# Bulk Modulus (GPa) = 38.44753 63.05251 50.75002
# Shear Modulus (GPa) = 19.52117 22.60399 21.06258
#
# Velocity S-wave (km/s) = 3.51955 3.78727 3.65586
# Velocity P-wave (km/s) = 6.39635 7.68992 7.07277
#
# Compressibility (1/GPa) = 0.02600947
#
# Stress axis : x y z
#
# Youngs Moduli (GPa) = 30.92785 61.29012 93.02839
#
# Poissons Ratio (x) = 0.30225 0.48516
# Poissons Ratio (y) = 0.15252 0.60914
# Poissons Ratio (z) = 0.16129 0.40132
#
# Static dielectric constant tensor:
#      x y z
#    x 1.534330 0.000000 0.000000 
#    y 0.000000 1.499790 0.000000 
#    z 0.000000 0.000000 1.532230 
# 
# From -- ./inp_files/18564.got.cif
#   From: 2010.05.17/outbox.cif.g08.bks.cpg/sg46_10_cif.got.tgz:18564.got - 2010.06.03 19:58:25.
