data_PCOD9378369
_publ_section_title
;
Structure prediction by ZEFSAII (Michael W. Deem and Ramdas Pophale) SiO2 
 PCOD9378369
Probable space group: I M A 2
;
_chemical_formula_sum "Si O2"
_cell_formula_units_Z 64
_cell_length_a 8.113201
_cell_length_b 24.518321
_cell_length_c 16.014323
_cell_angle_alpha 90.000000
_cell_angle_beta 90.000000
_cell_angle_gamma 90.000000
_cell_volume 3185.602224
_symmetry_space_group_name_H-M "I M A 2"
_symmetry_group_IT_number 46
_symmetry_cell_setting 'orthorhombic'
loop_
_space_group_symop_operation_xyz
x,y,z
-x,-y,z
1/2-x,y,z
1/2+x,-y,z
1/2+x,1/2+y,1/2+z
1/2-x,1/2-y,1/2+z
-x,1/2+y,1/2+z
x,1/2-y,1/2+z
loop_
_atom_site_type_symbol
_atom_site_label
_atom_site_fract_x
_atom_site_fract_y
_atom_site_fract_z
Si Si1 0.551396 0.633852 0.979220
Si Si2 0.550197 0.750112 0.912066
Si Si3 0.446479 0.753615 0.219172
Si Si4 0.550496 0.937325 0.321843
Si Si5 0.048077 0.131489 0.976364
Si Si6 0.053763 0.864404 0.662822
Si Si7 0.446364 0.371340 0.661180
Si Si8 0.553781 0.562380 0.318200
O O1 0.750000 0.634035 0.977138
O O2 0.495061 0.695711 0.960009
O O3 0.492880 0.594935 0.904347
O O4 0.497887 0.616617 0.071138
O O5 0.750000 0.749586 0.908779
O O6 0.486788 0.748138 0.817457
O O7 0.498699 0.806400 0.955348
O O8 0.250000 0.756706 0.207977
O O9 0.510331 0.697138 0.179400
O O10 0.523602 0.807758 0.180134
O O11 0.750000 0.934187 0.321497
O O12 0.487911 0.906892 0.238359
O O13 0.500000 0.000000 0.323250
O O14 0.250000 0.130726 0.976876
O O15 0.989994 0.092542 0.901717
O O16 0.989669 0.115363 0.068682
O O17 0.250000 0.861764 0.666300
O O18 0.997207 0.903758 0.736749
O O19 0.250000 0.380173 0.659414
O O20 0.500000 0.500000 0.313725
O O21 0.750000 0.563865 0.322616
#
# Coordination Sequence:
#
# PCOD9378369 Si02
#       8
#     8   8   8   8   8   8   8   8
#     4  10  21  38  61  89 116 153 199 244 292 348
#     4  10  18  35  61  88 116 152 195 237 289 352
#     4  11  22  35  56  89 124 155 189 237 298 351
#     4  10  22  39  60  85 115 152 196 242 290 341
#     4   9  19  35  62  91 113 148 195 239 288 343
#     4  11  24  40  59  88 122 158 194 239 299 356
#     4  10  20  39  63  87 117 155 198 240 283 350
#     4  11  23  41  63  87 117 155 201 248 294 347
#
# _framework density 20.090392999999999
#
# number of rings (size 3 to 8) (size 9 to 14) (size 15 to 20)
#    0.000    1.750    2.500    1.875    0.000    5.000 
#    0.000    3.125    0.000    0.000    0.000    0.000 
#    0.000    0.000    0.000    0.000    0.000    0.000 
#
# Total GULP energy -178805.830293 kJ/mol
# GULP energy per Si atom -5587.682197 kJ/mol
# Density = 2.004467 g / cm^3
# Si number density = 20.090393 Si / 1000 Ang^3
#
#
#
# Elastic Constant Matrix: (Units=GPa)
#
#
# Indices 1 2 3 4 5 6 
#
# 1 10.8301 5.0979 9.3458 0.0000 0.0000 0.0000
# 2 5.0979 152.0456 89.6328 0.0000 -0.0001 0.0000
# 3 9.3458 89.6328 200.9993 0.0000 -0.0002 -0.0001
# 4 0.0000 0.0000 0.0000 1.6862 0.0000 0.0000
# 5 0.0000 -0.0001 -0.0002 0.0000 5.3066 0.0000
# 6 0.0000 0.0000 -0.0001 0.0000 0.0000 16.1853
#
#
#
# Elastic Compliance Matrix: (Units=1/GPa)
#
#
# Indices 1 2 3 4 5 6 
#
# 1 0.096266 -0.000799 -0.004120 0.000000 0.000000 0.000000
# 2 -0.000799 0.008929 -0.003945 0.000000 0.000000 0.000000
# 3 -0.004120 -0.003945 0.006926 0.000000 0.000000 0.000000
# 4 0.000000 0.000000 0.000000 0.593055 0.000005 0.000001
# 5 0.000000 0.000000 0.000000 0.000005 0.188446 0.000000
# 6 0.000000 0.000000 0.000000 0.000001 0.000000 0.061784
#
#
# Mechanical properties :
#
#
# Convention : Reuss Voigt Hill
#
# Bulk Modulus (GPa) = 10.59388 63.55868 37.07628
# Shear Modulus (GPa) = 4.97711 21.95551 13.46631
#
# Velocity S-wave (km/s) = 1.57567 3.30939 2.59180
# Velocity P-wave (km/s) = 2.93170 6.80498 5.23940
#
# Compressibility (1/GPa) = 0.09439410
#
# Stress axis : x y z
#
# Youngs Moduli (GPa) = 10.38787 111.99193 144.38804
#
# Poissons Ratio (x) = 0.08949 0.59484
# Poissons Ratio (y) = 0.00830 0.56957
# Poissons Ratio (z) = 0.04280 0.44177
#
# Static dielectric constant tensor:
#      x y z
#    x 1.707010 0.000000 0.000000 
#    y 0.000000 1.676640 0.000000 
#    z 0.000000 0.000000 1.711720 
# 
# From -- ./inp_files/14515.got.cif
#   From: 2010.05.17/outbox.cif.g08.bks.cpg/sg46_8_cif.got.tgz:14515.got - 2010.06.03 19:58:25.
