data_PCOD9378018
_publ_section_title
;
Structure prediction by ZEFSAII (Michael W. Deem and Ramdas Pophale) SiO2 
 PCOD9378018
Probable space group: I M A 2
;
_chemical_formula_sum "Si O2"
_cell_formula_units_Z 64
_cell_length_a 8.848542
_cell_length_b 19.289524
_cell_length_c 21.812922
_cell_angle_alpha 90.000000
_cell_angle_beta 90.000000
_cell_angle_gamma 90.000000
_cell_volume 3723.120340
_symmetry_space_group_name_H-M "I M A 2"
_symmetry_group_IT_number 46
_symmetry_cell_setting 'orthorhombic'
loop_
_space_group_symop_operation_xyz
x,y,z
-x,-y,z
1/2-x,y,z
1/2+x,-y,z
1/2+x,1/2+y,1/2+z
1/2-x,1/2-y,1/2+z
-x,1/2+y,1/2+z
x,1/2-y,1/2+z
loop_
_atom_site_type_symbol
_atom_site_label
_atom_site_fract_x
_atom_site_fract_y
_atom_site_fract_z
Si Si1 0.923436 0.429535 0.854510
Si Si2 0.567591 0.924772 0.538622
Si Si3 0.571813 0.818010 0.433704
Si Si4 0.430852 0.073985 0.800779
Si Si5 0.067176 0.775173 0.217391
Si Si6 0.430722 0.788291 0.850250
Si Si7 0.568331 0.636583 0.169345
Si Si8 0.422316 0.928529 0.206740
O O1 0.750000 0.420735 0.875946
O O2 0.918554 0.431233 0.781038
O O3 0.000000 0.500000 0.876396
O O4 0.030559 0.369829 0.878575
O O5 0.750000 0.929863 0.534912
O O6 0.521289 0.862300 0.492976
O O7 0.523644 0.902673 0.607475
O O8 0.500000 0.000000 0.523543
O O9 0.750000 0.805493 0.438512
O O10 0.488654 0.748747 0.411776
O O11 0.250000 0.072638 0.805442
O O12 0.497665 0.136395 0.840845
O O13 0.471872 0.093245 0.730233
O O14 0.500000 0.000000 0.816683
O O15 0.250000 0.777251 0.215666
O O16 0.026517 0.755125 0.288035
O O17 0.011619 0.851287 0.196025
O O18 0.005862 0.712053 0.176860
O O19 0.250000 0.791801 0.850824
O O20 0.750000 0.644895 0.168618
O O21 0.250000 0.929402 0.184274
O O22 0.500000 0.000000 0.185958
#
# Coordination Sequence:
#
# PCOD9378018 Si02
#       8
#     8   8   8   8   8   8   8   8
#     4  10  18  29  42  61  90 126 163 200 237 281
#     4  10  22  37  51  71 101 135 174 213 247 288
#     4  11  21  32  47  68  96 132 169 206 245 292
#     4  10  19  32  52  78 103 130 164 204 253 307
#     4   9  17  31  48  69  96 126 162 205 253 300
#     4  10  19  33  50  70  99 131 163 205 252 302
#     4   9  19  34  51  72  98 130 170 211 251 296
#     4   9  17  28  41  63  93 124 157 194 237 287
#
# _framework density 17.189882000000001
#
# number of rings (size 3 to 8) (size 9 to 14) (size 15 to 20)
#    0.000    2.250    1.250    2.250    0.000    4.500 
#    0.000    0.000    0.000    0.000    0.000    0.875 
#    0.000    2.000    0.000    0.000    0.000    0.000 
#
# Total GULP energy -178330.587956 kJ/mol
# GULP energy per Si atom -5572.830874 kJ/mol
# Density = 1.715076 g / cm^3
# Si number density = 17.189882 Si / 1000 Ang^3
#
#
#
# Elastic Constant Matrix: (Units=GPa)
#
#
# Indices 1 2 3 4 5 6 
#
# 1 28.7351 35.0428 17.4310 0.0000 0.0000 0.0000
# 2 35.0428 150.7745 37.5797 0.0000 0.0000 0.0000
# 3 17.4310 37.5797 56.4721 0.0000 0.0000 0.0000
# 4 0.0000 0.0000 0.0000 24.0619 0.0000 0.0000
# 5 0.0000 0.0000 0.0000 0.0000 12.8814 0.0000
# 6 0.0000 0.0000 0.0000 0.0000 0.0000 32.1342
#
#
#
# Elastic Compliance Matrix: (Units=1/GPa)
#
#
# Indices 1 2 3 4 5 6 
#
# 1 0.052673 -0.009818 -0.009725 0.000000 0.000000 0.000000
# 2 -0.009818 0.009781 -0.003478 0.000000 0.000000 0.000000
# 3 -0.009725 -0.003478 0.023024 0.000000 0.000000 0.000000
# 4 0.000000 0.000000 0.000000 0.041560 0.000000 0.000000
# 5 0.000000 0.000000 0.000000 0.000000 0.077631 0.000000
# 6 0.000000 0.000000 0.000000 0.000000 0.000000 0.031120
#
#
# Mechanical properties :
#
#
# Convention : Reuss Voigt Hill
#
# Bulk Modulus (GPa) = 25.35764 46.23207 35.79485
# Shear Modulus (GPa) = 16.95042 23.54405 20.24724
#
# Velocity S-wave (km/s) = 3.14358 3.70489 3.43572
# Velocity P-wave (km/s) = 5.28769 6.72718 6.05039
#
# Compressibility (1/GPa) = 0.03943585
#
# Stress axis : x y z
#
# Youngs Moduli (GPa) = 18.98489 102.23495 43.43238
#
# Poissons Ratio (x) = 1.00379 0.42237
# Poissons Ratio (y) = 0.18640 0.15108
# Poissons Ratio (z) = 0.18462 0.35562
#
# Static dielectric constant tensor:
#      x y z
#    x 1.579810 0.000000 0.000000 
#    y 0.000000 1.587120 0.000000 
#    z 0.000000 0.000000 1.584330 
# 
# From -- ./inp_files/21285.got.cif
#   From: 2010.05.17/outbox.cif.g08.bks.cpg/sg46_11_cif.got.tgz:21285.got - 2010.06.03 19:58:25.
