data_PCOD9378277
_publ_section_title
;
Structure prediction by ZEFSAII (Michael W. Deem and Ramdas Pophale) SiO2 
 PCOD9378277
Probable space group: I M A 2
;
_chemical_formula_sum "Si O2"
_cell_formula_units_Z 64
_cell_length_a 13.671799
_cell_length_b 14.729169
_cell_length_c 17.969866
_cell_angle_alpha 90.000000
_cell_angle_beta 90.000000
_cell_angle_gamma 90.000000
_cell_volume 3618.668073
_symmetry_space_group_name_H-M "I M A 2"
_symmetry_group_IT_number 46
_symmetry_cell_setting 'orthorhombic'
loop_
_space_group_symop_operation_xyz
x,y,z
-x,-y,z
1/2-x,y,z
1/2+x,-y,z
1/2+x,1/2+y,1/2+z
1/2-x,1/2-y,1/2+z
-x,1/2+y,1/2+z
x,1/2-y,1/2+z
loop_
_atom_site_type_symbol
_atom_site_label
_atom_site_fract_x
_atom_site_fract_y
_atom_site_fract_z
Si Si1 0.360291 0.565075 0.280430
Si Si2 0.502579 0.782098 0.203467
Si Si3 0.432146 0.135574 0.807727
Si Si4 0.964352 0.103124 0.473089
Si Si5 0.637212 0.704196 0.906962
Si Si6 0.636493 0.162843 0.621475
Si Si7 0.635340 0.124467 0.315922
Si Si8 0.137035 0.422258 0.759170
O O1 0.250000 0.590967 0.304145
O O2 0.453827 0.609614 0.320951
O O3 0.375470 0.457356 0.291062
O O4 0.370777 0.597342 0.194193
O O5 0.568586 0.699736 0.234440
O O6 0.435982 0.747204 0.136926
O O7 0.425546 0.803454 0.269344
O O8 0.568607 0.871708 0.199849
O O9 0.389312 0.197204 0.873682
O O10 0.902351 0.115901 0.547410
O O11 0.899151 0.123331 0.400610
O O12 0.058951 0.168545 0.466408
O O13 0.000000 0.000000 0.468053
O O14 0.750000 0.700946 0.931502
O O15 0.627180 0.635077 0.836190
O O16 0.750000 0.189575 0.614885
O O17 0.750000 0.141517 0.310376
O O18 0.614092 0.025783 0.279659
O O19 0.250000 0.417548 0.736309
#
# Coordination Sequence:
#
# PCOD9378277 Si02
#       8
#     8   8   8   8   8   8   8   8
#     4   9  18  33  52  76 106 140 180 221 271 321
#     4  10  18  33  52  76 106 142 183 222 265 315
#     4   9  17  30  52  76 105 136 177 225 264 310
#     4  12  22  35  53  77 114 151 178 213 263 327
#     4  10  19  33  51  77 109 140 177 223 267 314
#     4  10  23  37  51  76 112 148 181 218 263 322
#     4  11  19  32  55  83 110 140 180 226 274 318
#     4   9  17  30  51  81 108 132 174 227 273 315
#
# _framework density 17.686066
#
# number of rings (size 3 to 8) (size 9 to 14) (size 15 to 20)
#    0.000    2.000    3.750    1.500    3.500    1.500 
#    0.000    0.625    0.000    0.000    6.500    0.000 
#    0.000    0.000    0.000    0.000    0.000    0.000 
#
# Total GULP energy -178399.257841 kJ/mol
# GULP energy per Si atom -5574.976808 kJ/mol
# Density = 1.764581 g / cm^3
# Si number density = 17.686066 Si / 1000 Ang^3
#
#
#
# Elastic Constant Matrix: (Units=GPa)
#
#
# Indices 1 2 3 4 5 6 
#
# 1 85.1027 10.5120 5.6017 0.0000 0.0000 0.0000
# 2 10.5120 64.1163 6.7571 0.0000 0.0000 0.0000
# 3 5.6017 6.7571 25.1647 0.0000 0.0000 0.0000
# 4 0.0000 0.0000 0.0000 6.4783 0.0000 0.0000
# 5 0.0000 0.0000 0.0000 0.0000 26.7740 0.0000
# 6 0.0000 0.0000 0.0000 0.0000 0.0000 23.4110
#
#
#
# Elastic Compliance Matrix: (Units=1/GPa)
#
#
# Indices 1 2 3 4 5 6 
#
# 1 0.012113 -0.001751 -0.002226 0.000000 0.000000 0.000000
# 2 -0.001751 0.016304 -0.003988 0.000000 0.000000 0.000000
# 3 -0.002226 -0.003988 0.041305 0.000000 0.000000 0.000000
# 4 0.000000 0.000000 0.000000 0.154362 0.000000 0.000000
# 5 0.000000 0.000000 0.000000 0.000000 0.037350 0.000000
# 6 0.000000 0.000000 0.000000 0.000000 0.000000 0.042715
#
#
# Mechanical properties :
#
#
# Convention : Reuss Voigt Hill
#
# Bulk Modulus (GPa) = 18.59052 24.45836 21.52444
# Shear Modulus (GPa) = 14.79245 21.43352 18.11299
#
# Velocity S-wave (km/s) = 2.89518 3.48499 3.20369
# Velocity P-wave (km/s) = 4.65943 5.48204 5.08739
#
# Compressibility (1/GPa) = 0.05379085
#
# Stress axis : x y z
#
# Youngs Moduli (GPa) = 82.55331 61.33430 24.21039
#
# Poissons Ratio (x) = 0.10742 0.05390
# Poissons Ratio (y) = 0.14458 0.09655
# Poissons Ratio (z) = 0.18378 0.24460
#
# Static dielectric constant tensor:
#      x y z
#    x 1.641920 0.000000 0.000000 
#    y 0.000000 1.622490 0.000000 
#    z 0.000000 0.000000 1.566720 
# 
# From -- ./inp_files/19743.got.cif
#   From: 2010.05.17/outbox.cif.g08.bks.cpg/sg46_10_cif.got.tgz:19743.got - 2010.06.03 19:58:25.
