data_PCOD9378984
_publ_section_title
;
Structure prediction by ZEFSAII (Michael W. Deem and Ramdas Pophale) SiO2 
 PCOD9378984
Probable space group: I M A 2
;
_chemical_formula_sum "Si O2"
_cell_formula_units_Z 64
_cell_length_a 15.234766
_cell_length_b 7.520200
_cell_length_c 24.144198
_cell_angle_alpha 90.000000
_cell_angle_beta 90.000000
_cell_angle_gamma 90.000000
_cell_volume 2766.164241
_symmetry_space_group_name_H-M "I M A 2"
_symmetry_group_IT_number 46
_symmetry_cell_setting 'orthorhombic'
loop_
_space_group_symop_operation_xyz
x,y,z
-x,-y,z
1/2-x,y,z
1/2+x,-y,z
1/2+x,1/2+y,1/2+z
1/2-x,1/2-y,1/2+z
-x,1/2+y,1/2+z
x,1/2-y,1/2+z
loop_
_atom_site_type_symbol
_atom_site_label
_atom_site_fract_x
_atom_site_fract_y
_atom_site_fract_z
Si Si1 0.654031 0.752598 0.783010
Si Si2 0.533308 0.291625 0.162310
Si Si3 0.849942 0.253226 0.053228
Si Si4 0.488841 0.687833 0.467691
Si Si5 0.349659 0.821890 0.265392
Si Si6 0.346001 0.274396 0.661729
Si Si7 0.345149 0.337069 0.034138
Si Si8 0.985749 0.202472 0.348671
O O1 0.750000 0.790968 0.807935
O O2 0.652252 0.538446 0.769801
O O3 0.652403 0.832069 0.720432
O O4 0.571536 0.796710 0.821922
O O5 0.500000 0.500000 0.160846
O O6 0.596182 0.259950 0.109974
O O7 0.588724 0.242302 0.215933
O O8 0.446921 0.165565 0.160923
O O9 0.750000 0.191562 0.060884
O O10 0.848662 0.451395 0.027835
O O11 0.908230 0.151780 0.008859
O O12 0.500000 0.500000 0.438371
O O13 0.570596 0.754989 0.504374
O O14 0.476272 0.807786 0.414406
O O15 0.250000 0.762636 0.258059
O O16 0.395072 0.742837 0.320160
O O17 0.250000 0.371206 0.663804
O O18 0.344341 0.187259 0.600744
O O19 0.250000 0.270351 0.013382
O O20 0.000000 0.000000 0.329743
#
# Coordination Sequence:
#
# PCOD9378984 Si02
#       8
#     8   8   8   8   8   8   8   8
#     4   9  19  38  62  91 123 159 204 250 301 360
#     4  12  21  35  61  90 128 158 199 243 301 362
#     4  11  23  42  66  92 123 166 212 254 301 367
#     4  12  26  42  62  90 126 160 204 262 325 375
#     4  10  22  38  60  90 122 160 202 249 300 360
#     4  10  19  34  60  93 125 153 192 243 298 355
#     4  10  21  41  66  91 121 163 212 253 298 367
#     4  10  21  40  64  85 116 161 216 260 302 361
#
# _framework density 23.136731999999999
#
# number of rings (size 3 to 8) (size 9 to 14) (size 15 to 20)
#    0.000    1.500    3.750    1.500    0.000    3.500 
#    0.000    3.750    0.000    0.000    0.000    0.000 
#    0.000    0.000    0.000    0.000    0.000    0.000 
#
# Total GULP energy -178385.908350 kJ/mol
# GULP energy per Si atom -5574.559636 kJ/mol
# Density = 2.308407 g / cm^3
# Si number density = 23.136732 Si / 1000 Ang^3
#
#
#
# Elastic Constant Matrix: (Units=GPa)
#
#
# Indices 1 2 3 4 5 6 
#
# 1 194.8571 5.8839 46.8291 0.0000 0.0000 0.0000
# 2 5.8839 36.2299 -7.9585 0.0000 0.0000 0.0000
# 3 46.8291 -7.9585 107.0465 0.0000 0.0000 0.0000
# 4 0.0000 0.0000 0.0000 14.7690 0.0000 0.0000
# 5 0.0000 0.0000 0.0000 0.0000 12.8026 0.0000
# 6 0.0000 0.0000 0.0000 0.0000 0.0000 -0.7843
#
#
#
# Elastic Compliance Matrix: (Units=1/GPa)
#
#
# Indices 1 2 3 4 5 6 
#
# 1 0.005817 -0.001529 -0.002658 0.000000 0.000000 0.000000
# 2 -0.001529 0.028462 0.002785 0.000000 0.000000 0.000000
# 3 -0.002658 0.002785 0.010712 0.000000 0.000000 0.000000
# 4 0.000000 0.000000 0.000000 0.067709 0.000000 0.000000
# 5 0.000000 0.000000 0.000000 0.000000 0.078109 0.000000
# 6 0.000000 0.000000 0.000000 0.000000 0.000000 -1.274988
#
#
# Mechanical properties :
#
#
# Convention : Reuss Voigt Hill
#
# Bulk Modulus (GPa) = 23.70476 47.51582 35.61029
# Shear Modulus (GPa) = -4.68466 24.91606 10.11570
#
# Velocity S-wave (km/s) = -1.42449 3.28518 2.09323
# Velocity P-wave (km/s) = 2.74994 5.91367 4.61160
#
# Compressibility (1/GPa) = 0.04218561
#
# Stress axis : x y z
#
# Youngs Moduli (GPa) = 171.90993 35.13518 93.35572
#
# Poissons Ratio (x) = 0.05371 0.24818
# Poissons Ratio (y) = 0.26279 -0.25997
# Poissons Ratio (z) = 0.45700 -0.09784
#
# Static dielectric constant tensor:
#      x y z
#    x 1.914050 0.000000 0.000000 
#    y 0.000000 1.943680 0.000000 
#    z 0.000000 0.000000 1.803380 
# 
# From -- ./inp_files/23657.got.cif
#   From: 2010.05.17/outbox.cif.g08.bks.cpg/sg46_12_cif.got.tgz:23657.got - 2010.06.03 19:58:25.
