data_PCOD9378003
_publ_section_title
;
Structure prediction by ZEFSAII (Michael W. Deem and Ramdas Pophale) SiO2 
 PCOD9378003
Probable space group: I M A 2
;
_chemical_formula_sum "Si O2"
_cell_formula_units_Z 56
_cell_length_a 8.626589
_cell_length_b 19.050176
_cell_length_c 21.556212
_cell_angle_alpha 90.000000
_cell_angle_beta 90.000000
_cell_angle_gamma 90.000000
_cell_volume 3542.505603
_symmetry_space_group_name_H-M "I M A 2"
_symmetry_group_IT_number 46
_symmetry_cell_setting 'orthorhombic'
loop_
_space_group_symop_operation_xyz
x,y,z
-x,-y,z
1/2-x,y,z
1/2+x,-y,z
1/2+x,1/2+y,1/2+z
1/2-x,1/2-y,1/2+z
-x,1/2+y,1/2+z
x,1/2-y,1/2+z
loop_
_atom_site_type_symbol
_atom_site_label
_atom_site_fract_x
_atom_site_fract_y
_atom_site_fract_z
Si Si1 0.062185 0.150850 0.531200
Si Si2 0.436559 0.652773 0.781803
Si Si3 0.435378 0.422811 0.658264
Si Si4 0.433964 0.791701 0.720219
Si Si5 0.436897 0.215973 0.098344
Si Si6 0.064909 0.422537 0.160138
Si Si7 0.063214 0.421094 0.904105
O O1 0.250000 0.147282 0.530389
O O2 0.020878 0.232907 0.541523
O O3 0.011539 0.107946 0.592732
O O4 0.007998 0.116393 0.467554
O O5 0.250000 0.648506 0.781682
O O6 0.498400 0.608766 0.722644
O O7 0.481162 0.734810 0.772150
O O8 0.503783 0.620524 0.844255
O O9 0.500000 0.500000 0.647127
O O10 0.250000 0.426184 0.663834
O O11 0.474584 0.366161 0.604216
O O12 0.250000 0.801076 0.723223
O O13 0.481207 0.751571 0.657122
O O14 0.512160 0.867256 0.712600
O O15 0.250000 0.222044 0.106605
O O16 0.250000 0.424438 0.158866
O O17 0.000000 0.500000 0.169385
O O18 0.250000 0.422640 0.903516
O O19 0.000000 0.500000 0.902243
#
# Coordination Sequence:
#
# PCOD9378003 Si02
#       7
#     8   8   8   8   8   8   8
#     4   8  16  30  46  64  87 117 150 183 216 256
#     4  10  20  33  46  62  88 119 152 186 219 258
#     4  10  18  28  45  67  91 117 145 180 222 266
#     4   9  17  29  45  64  86 113 145 183 224 264
#     4   8  15  29  46  63  85 114 146 180 220 265
#     4  10  18  29  46  68  94 119 146 180 220 264
#     4  11  21  32  46  64  89 119 152 184 215 255
#
# _framework density 15.808020000000001
#
# number of rings (size 3 to 8) (size 9 to 14) (size 15 to 20)
#    0.000    2.571    0.000    3.857    0.000    2.286 
#    0.000    6.429    0.000    0.000    0.000    1.000 
#    0.000    4.571    0.000    0.000    0.000    0.000 
#
# Total GULP energy -155922.989679 kJ/mol
# GULP energy per Si atom -5568.678203 kJ/mol
# Density = 1.577204 g / cm^3
# Si number density = 15.808020 Si / 1000 Ang^3
#
#
#
# Elastic Constant Matrix: (Units=GPa)
#
#
# Indices 1 2 3 4 5 6 
#
# 1 41.6244 45.3449 23.4459 0.0000 0.0000 0.0000
# 2 45.3449 176.3247 71.6574 0.0000 0.0000 0.0000
# 3 23.4459 71.6574 77.3976 0.0000 0.0000 0.0000
# 4 0.0000 0.0000 0.0000 24.1905 0.0000 0.0000
# 5 0.0000 0.0000 0.0000 0.0000 9.4097 0.0000
# 6 0.0000 0.0000 0.0000 0.0000 0.0000 17.3655
#
#
#
# Elastic Compliance Matrix: (Units=1/GPa)
#
#
# Indices 1 2 3 4 5 6 
#
# 1 0.033966 -0.007300 -0.003530 0.000000 0.000000 0.000000
# 2 -0.007300 0.010661 -0.007659 0.000000 0.000000 0.000000
# 3 -0.003530 -0.007659 0.021081 0.000000 0.000000 0.000000
# 4 0.000000 0.000000 0.000000 0.041339 0.000000 0.000000
# 5 0.000000 0.000000 0.000000 0.000000 0.106273 0.000000
# 6 0.000000 0.000000 0.000000 0.000000 0.000000 0.057585
#
#
# Mechanical properties :
#
#
# Convention : Reuss Voigt Hill
#
# Bulk Modulus (GPa) = 34.80889 64.02704 49.41796
# Shear Modulus (GPa) = 15.74997 20.51970 18.13484
#
# Velocity S-wave (km/s) = 3.15989 3.60676 3.39070
# Velocity P-wave (km/s) = 5.94817 7.61156 6.83069
#
# Compressibility (1/GPa) = 0.02872829
#
# Stress axis : x y z
#
# Youngs Moduli (GPa) = 29.44164 93.79640 47.43606
#
# Poissons Ratio (x) = 0.68472 0.16747
# Poissons Ratio (y) = 0.21493 0.36333
# Poissons Ratio (z) = 0.10394 0.71841
#
# Static dielectric constant tensor:
#      x y z
#    x 1.534740 0.000000 0.000000 
#    y 0.000000 1.560020 0.000000 
#    z 0.000000 0.000000 1.515690 
# 
# From -- ./inp_files/21217.got.cif
#   From: 2010.05.17/outbox.cif.g08.bks.cpg/sg46_11_cif.got.tgz:21217.got - 2010.06.03 19:58:25.
