data_PCOD9378351
_publ_section_title
;
Structure prediction by ZEFSAII (Michael W. Deem and Ramdas Pophale) SiO2 
 PCOD9378351
Probable space group: I M A 2
;
_chemical_formula_sum "Si O2"
_cell_formula_units_Z 40
_cell_length_a 16.810794
_cell_length_b 19.035215
_cell_length_c 4.939395
_cell_angle_alpha 90.000000
_cell_angle_beta 90.000000
_cell_angle_gamma 90.000000
_cell_volume 1580.591968
_symmetry_space_group_name_H-M "I M A 2"
_symmetry_group_IT_number 46
_symmetry_cell_setting 'orthorhombic'
loop_
_space_group_symop_operation_xyz
x,y,z
-x,-y,z
1/2-x,y,z
1/2+x,-y,z
1/2+x,1/2+y,1/2+z
1/2-x,1/2-y,1/2+z
-x,1/2+y,1/2+z
x,1/2-y,1/2+z
loop_
_atom_site_type_symbol
_atom_site_label
_atom_site_fract_x
_atom_site_fract_y
_atom_site_fract_z
Si Si1 0.392420 0.023468 0.930480
Si Si2 0.338965 0.160151 0.202090
Si Si3 0.660546 0.442407 0.902589
Si Si4 0.555848 0.659117 0.231539
Si Si5 0.620249 0.207578 0.635975
O O1 0.461155 0.077866 0.828760
O O2 0.355180 0.989761 0.665438
O O3 0.336843 0.082064 0.073815
O O4 0.400100 0.965574 0.166084
O O5 0.250000 0.189138 0.218171
O O6 0.382164 0.153306 0.487263
O O7 0.398156 0.195404 0.983003
O O8 0.750000 0.451484 0.797283
O O9 0.652625 0.363399 0.009122
O O10 0.474781 0.695168 0.146850
O O11 0.642970 0.228371 0.939057
#
# Coordination Sequence:
#
# PCOD9378351 Si02
#       5
#     8   8   8   8   8
#     4  10  21  37  65 101 137 159 200 273 352 408
#     4  10  18  34  63  99 134 165 198 255 340 414
#     4  12  24  41  69 103 133 168 219 277 340 405
#     4  10  22  39  64  98 128 178 217 268 336 405
#     4  12  28  49  66  87 133 192 238 276 315 377
#
# _framework density 25.306975000000001
#
# number of rings (size 3 to 8) (size 9 to 14) (size 15 to 20)
#    1.200    0.000    2.000    4.800    0.000    1.600 
#    3.600    0.000    0.000   12.000    0.000    0.000 
#    0.000    0.000    0.000    0.000    0.000    0.000 
#
# Total GULP energy -111867.706412 kJ/mol
# GULP energy per Si atom -5593.385321 kJ/mol
# Density = 2.524937 g / cm^3
# Si number density = 25.306975 Si / 1000 Ang^3
#
#
#
# Elastic Constant Matrix: (Units=GPa)
#
#
# Indices 1 2 3 4 5 6 
#
# 1 78.5374 14.2732 36.7588 0.0000 0.0000 0.0000
# 2 14.2732 112.4096 30.0503 0.0000 0.0000 0.0000
# 3 36.7588 30.0503 165.1233 0.0000 0.0000 0.0000
# 4 0.0000 0.0000 0.0000 42.2685 0.0000 0.0000
# 5 0.0000 0.0000 0.0000 0.0000 15.3563 0.0000
# 6 0.0000 0.0000 0.0000 0.0000 0.0000 19.5774
#
#
#
# Elastic Compliance Matrix: (Units=1/GPa)
#
#
# Indices 1 2 3 4 5 6 
#
# 1 0.014323 -0.001016 -0.003004 0.000000 0.000000 0.000000
# 2 -0.001016 0.009423 -0.001489 0.000000 0.000000 0.000000
# 3 -0.003004 -0.001489 0.006996 0.000000 0.000000 0.000000
# 4 0.000000 0.000000 0.000000 0.023658 0.000000 0.000000
# 5 0.000000 0.000000 0.000000 0.000000 0.065120 0.000000
# 6 0.000000 0.000000 0.000000 0.000000 0.000000 0.051079
#
#
# Mechanical properties :
#
#
# Convention : Reuss Voigt Hill
#
# Bulk Modulus (GPa) = 50.69561 57.58164 54.13863
# Shear Modulus (GPa) = 26.56876 33.77297 30.17086
#
# Velocity S-wave (km/s) = 3.24367 3.65709 3.45656
# Velocity P-wave (km/s) = 5.83989 6.37456 6.11307
#
# Compressibility (1/GPa) = 0.01972557
#
# Stress axis : x y z
#
# Youngs Moduli (GPa) = 69.81654 106.12336 142.94527
#
# Poissons Ratio (x) = 0.10779 0.42937
# Poissons Ratio (y) = 0.07091 0.21281
# Poissons Ratio (z) = 0.20971 0.15799
#
# Static dielectric constant tensor:
#      x y z
#    x 1.964260 0.000000 0.000000 
#    y 0.000000 2.107420 0.000000 
#    z 0.000000 0.000000 1.933590 
# 
# From -- ./inp_files/1579.got.cif
#   From: 2010.05.17/outbox.cif.g08.bks.cpg/sg46_1_cif.got.tgz:1579.got - 2010.06.03 19:58:25.
