data_PCOD9378877
_publ_section_title
;
Structure prediction by ZEFSAII (Michael W. Deem and Ramdas Pophale) SiO2 
 PCOD9378877
Probable space group: I M A 2
;
_chemical_formula_sum "Si O2"
_cell_formula_units_Z 48
_cell_length_a 7.908780
_cell_length_b 33.942387
_cell_length_c 7.312815
_cell_angle_alpha 90.000000
_cell_angle_beta 90.000000
_cell_angle_gamma 90.000000
_cell_volume 1963.073057
_symmetry_space_group_name_H-M "I M A 2"
_symmetry_group_IT_number 46
_symmetry_cell_setting 'orthorhombic'
loop_
_space_group_symop_operation_xyz
x,y,z
-x,-y,z
1/2-x,y,z
1/2+x,-y,z
1/2+x,1/2+y,1/2+z
1/2-x,1/2-y,1/2+z
-x,1/2+y,1/2+z
x,1/2-y,1/2+z
loop_
_atom_site_type_symbol
_atom_site_label
_atom_site_fract_x
_atom_site_fract_y
_atom_site_fract_z
Si Si1 0.059481 0.708383 0.446250
Si Si2 0.546812 0.374822 0.406454
Si Si3 0.453265 0.541699 0.379903
Si Si4 0.046057 0.957213 0.455809
Si Si5 0.549600 0.371431 0.965205
Si Si6 0.060750 0.207986 0.557490
O O1 0.250000 0.712277 0.521704
O O2 0.982085 0.665632 0.493843
O O3 0.959231 0.748209 0.481781
O O4 0.066582 0.705677 0.226277
O O5 0.750000 0.373198 0.436017
O O6 0.484000 0.417644 0.467191
O O7 0.522375 0.374723 0.186120
O O8 0.500000 0.500000 0.463937
O O9 0.250000 0.544029 0.376466
O O10 0.512796 0.541008 0.168421
O O11 0.250000 0.955272 0.453641
O O12 0.988218 0.913756 0.388787
O O13 0.000000 0.000000 0.375554
O O14 0.750000 0.369045 0.929358
O O15 0.474169 0.328488 0.922099
O O16 0.250000 0.202778 0.629280
#
# Coordination Sequence:
#
# PCOD9378877 Si02
#       6
#     8   8   8   8   8   8
#     4  10  19  34  52  67  88 125 162 189 226 283
#     4   7  12  23  39  55  75 106 146 181 209 251
#     4   8  12  19  30  48  73 102 134 170 208 250
#     4   8  13  20  32  50  75 106 142 178 214 259
#     4   8  14  26  40  55  79 116 152 179 216 275
#     4  11  21  32  47  71  97 119 150 199 243 272
#
# _framework density 24.451459
#
# number of rings (size 3 to 8) (size 9 to 14) (size 15 to 20)
#    0.000    3.333    0.000    5.000    0.000    0.667 
#    0.000    9.167    0.000    0.000    0.000    0.000 
#    0.000    1.333    0.000    8.333    0.000   10.000 
#
# Total GULP energy -133688.980786 kJ/mol
# GULP energy per Si atom -5570.374199 kJ/mol
# Density = 2.439581 g / cm^3
# Si number density = 24.451459 Si / 1000 Ang^3
#
#
#
# Elastic Constant Matrix: (Units=GPa)
#
#
# Indices 1 2 3 4 5 6 
#
# 1 45.7743 12.0826 -14.7569 0.0013 -0.0006 0.0001
# 2 12.0826 270.5185 -14.7312 0.0036 -0.0009 -0.0016
# 3 -14.7569 -14.7312 55.2747 -0.0048 -0.0008 -0.0011
# 4 0.0013 0.0036 -0.0048 -2.9695 -0.0004 -0.0003
# 5 -0.0006 -0.0009 -0.0008 -0.0004 3.3550 -0.0001
# 6 0.0001 -0.0016 -0.0011 -0.0003 -0.0001 27.7712
#
#
#
# Elastic Compliance Matrix: (Units=1/GPa)
#
#
# Indices 1 2 3 4 5 6 
#
# 1 0.024047 -0.000735 0.006224 0.000000 0.000006 0.000000
# 2 -0.000735 0.003774 0.000809 0.000003 0.000001 0.000000
# 3 0.006224 0.000809 0.019969 -0.000029 0.000006 0.000001
# 4 0.000000 0.000003 -0.000029 -0.336756 -0.000039 -0.000003
# 5 0.000006 0.000001 0.000006 -0.000039 0.298062 0.000001
# 6 0.000000 0.000000 0.000001 -0.000003 0.000001 0.036009
#
#
# Mechanical properties :
#
#
# Convention : Reuss Voigt Hill
#
# Bulk Modulus (GPa) = 16.56020 37.41740 26.98880
# Shear Modulus (GPa) = 94.99349 31.56287 63.27818
#
# Velocity S-wave (km/s) = 6.23972 3.59672 5.09267
# Velocity P-wave (km/s) = 7.66157 5.70828 6.75589
#
# Compressibility (1/GPa) = 0.06038576
#
# Stress axis : x y z
#
# Youngs Moduli (GPa) = 41.58547 265.00482 50.07808
#
# Poissons Ratio (x) = 0.19481 -0.31169
# Poissons Ratio (y) = 0.03057 -0.04053
# Poissons Ratio (z) = -0.25883 -0.21450
#
# Static dielectric constant tensor:
#      x y z
#    x 1.878240 0.000000 0.000000 
#    y 0.000000 2.086450 -0.000010 
#    z 0.000000 -0.000010 2.115470 
# 
# From -- ./inp_files/9567.got.cif
#   From: 2010.05.17/outbox.cif.g08.bks.cpg/sg46_5_cif.got.tgz:9567.got - 2010.06.03 19:58:25.
