data_PCOD9378029
_publ_section_title
;
Structure prediction by ZEFSAII (Michael W. Deem and Ramdas Pophale) SiO2 
 PCOD9378029
Probable space group: I M A 2
;
_chemical_formula_sum "Si O2"
_cell_formula_units_Z 64
_cell_length_a 8.545057
_cell_length_b 18.890707
_cell_length_c 26.942169
_cell_angle_alpha 90.000000
_cell_angle_beta 90.000000
_cell_angle_gamma 90.000000
_cell_volume 4349.063333
_symmetry_space_group_name_H-M "I M A 2"
_symmetry_group_IT_number 46
_symmetry_cell_setting 'orthorhombic'
loop_
_space_group_symop_operation_xyz
x,y,z
-x,-y,z
1/2-x,y,z
1/2+x,-y,z
1/2+x,1/2+y,1/2+z
1/2-x,1/2-y,1/2+z
-x,1/2+y,1/2+z
x,1/2-y,1/2+z
loop_
_atom_site_type_symbol
_atom_site_label
_atom_site_fract_x
_atom_site_fract_y
_atom_site_fract_z
Si Si1 0.062632 0.079546 0.281160
Si Si2 0.063078 0.421928 0.971038
Si Si3 0.561602 0.579065 0.267981
Si Si4 0.935985 0.789779 0.826442
Si Si5 0.938059 0.669492 0.170932
Si Si6 0.437124 0.921276 0.581165
Si Si7 0.564156 0.161054 0.378542
Si Si8 0.563535 0.291168 0.730259
O O1 0.250000 0.081075 0.279647
O O2 0.006065 0.115042 0.332963
O O3 0.992362 0.128432 0.237223
O O4 0.000000 0.000000 0.278593
O O5 0.250000 0.424307 0.973741
O O6 0.000000 0.500000 0.957140
O O7 0.007153 0.367523 0.929416
O O8 0.994499 0.405584 0.025366
O O9 0.500000 0.500000 0.271170
O O10 0.750000 0.577929 0.267801
O O11 0.512992 0.630321 0.313554
O O12 0.513088 0.617101 0.216390
O O13 0.750000 0.788151 0.835000
O O14 0.020588 0.742749 0.867637
O O15 0.974646 0.748838 0.775201
O O16 0.750000 0.675092 0.171645
O O17 0.995712 0.634212 0.120435
O O18 0.012607 0.746053 0.182533
O O19 0.750000 0.077822 0.582754
O O20 0.500000 0.000000 0.593663
O O21 0.750000 0.152236 0.378358
O O22 0.750000 0.286985 0.737424
#
# Coordination Sequence:
#
# PCOD9378029 Si02
#       8
#     8   8   8   8   8   8   8   8
#     4  11  20  31  45  64  89 118 149 183 219 262
#     4  11  21  34  48  64  87 116 147 184 222 260
#     4   9  18  28  42  62  87 115 147 180 214 255
#     4   9  17  30  43  60  85 115 146 180 218 260
#     4  10  19  32  46  63  87 119 152 184 220 261
#     4  11  21  33  47  66  89 116 149 187 223 260
#     4  11  20  31  46  65  86 114 149 184 220 263
#     4  10  18  29  44  64  86 113 146 182 220 261
#
# _framework density 14.715812
#
# number of rings (size 3 to 8) (size 9 to 14) (size 15 to 20)
#    0.000    1.750    0.000   10.125    0.000    4.000 
#    0.000    0.000    0.000    0.000    0.000    0.000 
#    0.000    1.000    0.000    8.500    0.000    5.750 
#
# Total GULP energy -178514.175789 kJ/mol
# GULP energy per Si atom -5578.567993 kJ/mol
# Density = 1.468232 g / cm^3
# Si number density = 14.715812 Si / 1000 Ang^3
#
#
#
# Elastic Constant Matrix: (Units=GPa)
#
#
# Indices 1 2 3 4 5 6 
#
# 1 76.9872 22.9468 17.6806 0.0000 0.0000 0.0000
# 2 22.9468 94.3125 35.9603 0.0000 0.0000 0.0000
# 3 17.6806 35.9603 57.3271 0.0000 0.0000 0.0000
# 4 0.0000 0.0000 0.0000 26.1869 0.0000 0.0000
# 5 0.0000 0.0000 0.0000 0.0000 37.3225 0.0000
# 6 0.0000 0.0000 0.0000 0.0000 0.0000 25.9049
#
#
#
# Elastic Compliance Matrix: (Units=1/GPa)
#
#
# Indices 1 2 3 4 5 6 
#
# 1 0.014373 -0.002375 -0.002943 0.000000 0.000000 0.000000
# 2 -0.002375 0.014329 -0.008256 0.000000 0.000000 0.000000
# 3 -0.002943 -0.008256 0.023530 0.000000 0.000000 0.000000
# 4 0.000000 0.000000 0.000000 0.038187 0.000000 0.000000
# 5 0.000000 0.000000 0.000000 0.000000 0.026793 0.000000
# 6 0.000000 0.000000 0.000000 0.000000 0.000000 0.038603
#
#
# Mechanical properties :
#
#
# Convention : Reuss Voigt Hill
#
# Bulk Modulus (GPa) = 39.86544 42.42245 41.14395
# Shear Modulus (GPa) = 26.13371 28.01880 27.07626
#
# Velocity S-wave (km/s) = 4.21871 4.36821 4.29411
# Velocity P-wave (km/s) = 7.13295 7.37103 7.25297
#
# Compressibility (1/GPa) = 0.02508438
#
# Stress axis : x y z
#
# Youngs Moduli (GPa) = 69.57523 69.79018 42.49873
#
# Poissons Ratio (x) = 0.16574 0.12508
# Poissons Ratio (y) = 0.16523 0.35086
# Poissons Ratio (z) = 0.20477 0.57617
#
# Static dielectric constant tensor:
#      x y z
#    x 1.465550 0.000000 0.000000 
#    y 0.000000 1.505630 0.000000 
#    z 0.000000 0.000000 1.477600 
# 
# From -- ./inp_files/24405.got.cif
#   From: 2010.05.17/outbox.cif.g08.bks.cpg/sg46_13_cif.got.tgz:24405.got - 2010.06.03 19:58:25.
