data_PCOD9378806
_publ_section_title
;
Structure prediction by ZEFSAII (Michael W. Deem and Ramdas Pophale) SiO2 
 PCOD9378806
Probable space group: I M A 2
;
_chemical_formula_sum "Si O2"
_cell_formula_units_Z 64
_cell_length_a 8.694539
_cell_length_b 20.110994
_cell_length_c 21.072154
_cell_angle_alpha 90.000000
_cell_angle_beta 90.000000
_cell_angle_gamma 90.000000
_cell_volume 3684.588802
_symmetry_space_group_name_H-M "I M A 2"
_symmetry_group_IT_number 46
_symmetry_cell_setting 'orthorhombic'
loop_
_space_group_symop_operation_xyz
x,y,z
-x,-y,z
1/2-x,y,z
1/2+x,-y,z
1/2+x,1/2+y,1/2+z
1/2-x,1/2-y,1/2+z
-x,1/2+y,1/2+z
x,1/2-y,1/2+z
loop_
_atom_site_type_symbol
_atom_site_label
_atom_site_fract_x
_atom_site_fract_y
_atom_site_fract_z
Si Si1 0.434702 0.295047 0.919790
Si Si2 0.564583 0.711291 0.672197
Si Si3 0.564689 0.707040 0.297260
Si Si4 0.566225 0.429507 0.870059
Si Si5 0.434298 0.713474 0.537359
Si Si6 0.565390 0.430005 0.490085
Si Si7 0.065337 0.430159 0.727487
Si Si8 0.933838 0.070387 0.841547
O O1 0.250000 0.300436 0.919662
O O2 0.481280 0.250668 0.858602
O O3 0.507943 0.367416 0.910657
O O4 0.491956 0.258449 0.982759
O O5 0.750000 0.714533 0.666432
O O6 0.518883 0.755272 0.732973
O O7 0.487734 0.733628 0.607180
O O8 0.523024 0.634631 0.687248
O O9 0.750000 0.702818 0.297887
O O10 0.496106 0.633896 0.304447
O O11 0.500000 0.500000 0.893313
O O12 0.750000 0.431905 0.867765
O O13 0.500825 0.420994 0.798506
O O14 0.250000 0.716192 0.531628
O O15 0.484372 0.636725 0.525665
O O16 0.500000 0.500000 0.514027
O O17 0.750000 0.433623 0.492357
O O18 0.519017 0.422595 0.415902
O O19 0.250000 0.433880 0.731768
O O20 0.000000 0.500000 0.702597
O O21 0.750000 0.068986 0.839298
O O22 0.000000 0.000000 0.818833
#
# Coordination Sequence:
#
# PCOD9378806 Si02
#       8
#     8   8   8   8   8   8   8   8
#     4  11  21  37  60  84 111 147 187 231 283 333
#     4  10  22  39  55  77 111 151 191 229 279 338
#     4  10  20  36  58  82 110 144 187 232 277 328
#     4  11  21  34  56  85 116 146 184 232 281 331
#     4  11  23  38  54  81 114 147 190 234 280 333
#     4   9  19  33  50  75 109 145 184 225 265 323
#     4  10  19  34  53  78 112 150 192 231 276 332
#     4  10  19  33  54  82 113 142 180 226 278 327
#
# _framework density 17.369645999999999
#
# number of rings (size 3 to 8) (size 9 to 14) (size 15 to 20)
#    0.000    1.750    2.500    3.375    0.000    4.000 
#    0.000    2.500    0.000    0.750    0.000    1.750 
#    0.000    0.000    0.000    0.000    0.000    0.000 
#
# Total GULP energy -178727.403852 kJ/mol
# GULP energy per Si atom -5585.231370 kJ/mol
# Density = 1.733011 g / cm^3
# Si number density = 17.369646 Si / 1000 Ang^3
#
#
#
# Elastic Constant Matrix: (Units=GPa)
#
#
# Indices 1 2 3 4 5 6 
#
# 1 52.2333 41.2395 36.0471 0.0000 0.0000 0.0000
# 2 41.2395 133.5680 63.9150 0.0000 0.0000 0.0000
# 3 36.0471 63.9150 103.5181 0.0000 0.0000 0.0000
# 4 0.0000 0.0000 0.0000 21.8302 0.0000 0.0000
# 5 0.0000 0.0000 0.0000 0.0000 19.9876 0.0000
# 6 0.0000 0.0000 0.0000 0.0000 0.0000 32.4803
#
#
#
# Elastic Compliance Matrix: (Units=1/GPa)
#
#
# Indices 1 2 3 4 5 6 
#
# 1 0.027893 -0.005627 -0.006239 0.000000 0.000000 0.000000
# 2 -0.005627 0.011761 -0.005303 0.000000 0.000000 0.000000
# 3 -0.006239 -0.005303 0.015107 0.000000 0.000000 0.000000
# 4 0.000000 0.000000 0.000000 0.045808 0.000000 0.000000
# 5 0.000000 0.000000 0.000000 0.000000 0.050031 0.000000
# 6 0.000000 0.000000 0.000000 0.000000 0.000000 0.030788
#
#
# Mechanical properties :
#
#
# Convention : Reuss Voigt Hill
#
# Bulk Modulus (GPa) = 48.95997 63.52474 56.24235
# Shear Modulus (GPa) = 22.46871 24.73414 23.60143
#
# Velocity S-wave (km/s) = 3.60051 3.77767 3.69015
# Velocity P-wave (km/s) = 6.74783 7.46186 7.11381
#
# Compressibility (1/GPa) = 0.02042485
#
# Stress axis : x y z
#
# Youngs Moduli (GPa) = 35.85176 85.02380 66.19639
#
# Poissons Ratio (x) = 0.47839 0.41298
# Poissons Ratio (y) = 0.20172 0.35101
# Poissons Ratio (z) = 0.22367 0.45084
#
# Static dielectric constant tensor:
#      x y z
#    x 1.581110 0.000000 0.000000 
#    y 0.000000 1.587410 0.000000 
#    z 0.000000 0.000000 1.575410 
# 
# From -- ./inp_files/21309.got.cif
#   From: 2010.05.17/outbox.cif.g08.bks.cpg/sg46_11_cif.got.tgz:21309.got - 2010.06.03 19:58:25.
