data_PCOD9378477
_publ_section_title
;
Structure prediction by ZEFSAII (Michael W. Deem and Ramdas Pophale) SiO2 
 PCOD9378477
Probable space group: I M A 2
;
_chemical_formula_sum "Si O2"
_cell_formula_units_Z 48
_cell_length_a 9.009799
_cell_length_b 24.353162
_cell_length_c 14.074836
_cell_angle_alpha 90.000000
_cell_angle_beta 90.000000
_cell_angle_gamma 90.000000
_cell_volume 3088.259623
_symmetry_space_group_name_H-M "I M A 2"
_symmetry_group_IT_number 46
_symmetry_cell_setting 'orthorhombic'
loop_
_space_group_symop_operation_xyz
x,y,z
-x,-y,z
1/2-x,y,z
1/2+x,-y,z
1/2+x,1/2+y,1/2+z
1/2-x,1/2-y,1/2+z
-x,1/2+y,1/2+z
x,1/2-y,1/2+z
loop_
_atom_site_type_symbol
_atom_site_label
_atom_site_fract_x
_atom_site_fract_y
_atom_site_fract_z
Si Si1 0.572636 0.941993 0.037920
Si Si2 0.573043 0.338354 0.634351
Si Si3 0.928395 0.271345 0.818224
Si Si4 0.427831 0.722797 0.036001
Si Si5 0.071876 0.169020 0.713620
Si Si6 0.071897 0.442416 0.315825
O O1 0.750000 0.945639 0.044767
O O2 0.512186 0.891628 0.099212
O O3 0.500000 0.000000 0.065741
O O4 0.532895 0.932286 0.926680
O O5 0.750000 0.348068 0.628424
O O6 0.536871 0.318471 0.741224
O O7 0.538503 0.285341 0.568559
O O8 0.750000 0.262502 0.814187
O O9 0.007208 0.216134 0.782455
O O10 0.968369 0.285038 0.926235
O O11 0.250000 0.715814 0.046488
O O12 0.509275 0.683079 0.109648
O O13 0.250000 0.171975 0.713636
O O14 0.026120 0.109505 0.752790
O O15 0.250000 0.447332 0.310850
O O16 0.000000 0.500000 0.286806
#
# Coordination Sequence:
#
# PCOD9378477 Si02
#       6
#     8   8   8   8   8   8
#     4  10  19  31  47  67  92 121 152 186 228 274
#     4   9  17  29  46  69  94 119 151 189 226 267
#     4   9  18  32  49  69  94 125 159 190 224 272
#     4   9  18  32  49  69  94 126 159 188 224 273
#     4  10  19  30  46  71  99 122 151 192 234 275
#     4   9  19  32  46  67  93 121 152 187 227 273
#
# _framework density 15.542735
#
# number of rings (size 3 to 8) (size 9 to 14) (size 15 to 20)
#    0.000    2.667    0.000    3.000    0.000    5.333 
#    0.000    0.000    0.000    1.000    0.000    2.333 
#    0.000    0.000    0.000    0.000    0.000    0.000 
#
# Total GULP energy -133817.370553 kJ/mol
# GULP energy per Si atom -5575.723773 kJ/mol
# Density = 1.550736 g / cm^3
# Si number density = 15.542735 Si / 1000 Ang^3
#
#
#
# Elastic Constant Matrix: (Units=GPa)
#
#
# Indices 1 2 3 4 5 6 
#
# 1 34.8715 56.0755 45.1752 0.0000 0.0000 0.0000
# 2 56.0755 146.9035 85.6205 0.0000 0.0000 0.0000
# 3 45.1752 85.6205 126.2253 0.0000 0.0000 0.0000
# 4 0.0000 0.0000 0.0000 21.1181 0.0000 0.0000
# 5 0.0000 0.0000 0.0000 0.0000 22.9007 0.0000
# 6 0.0000 0.0000 0.0000 0.0000 0.0000 30.2940
#
#
#
# Elastic Compliance Matrix: (Units=1/GPa)
#
#
# Indices 1 2 3 4 5 6 
#
# 1 0.087552 -0.025068 -0.014330 0.000000 0.000000 0.000000
# 2 -0.025068 0.018435 -0.003533 0.000000 0.000000 0.000000
# 3 -0.014330 -0.003533 0.015448 0.000000 0.000000 0.000000
# 4 0.000000 0.000000 0.000000 0.047353 0.000000 0.000000
# 5 0.000000 0.000000 0.000000 0.000000 0.043667 0.000000
# 6 0.000000 0.000000 0.000000 0.000000 0.000000 0.033010
#
#
# Mechanical properties :
#
#
# Convention : Reuss Voigt Hill
#
# Bulk Modulus (GPa) = 28.11204 75.74916 51.93060
# Shear Modulus (GPa) = 14.56944 22.93786 18.75365
#
# Velocity S-wave (km/s) = 3.06499 3.84577 3.47736
# Velocity P-wave (km/s) = 5.53640 8.28021 7.04321
#
# Compressibility (1/GPa) = 0.03557194
#
# Stress axis : x y z
#
# Youngs Moduli (GPa) = 11.42183 54.24371 64.73397
#
# Poissons Ratio (x) = 1.35976 0.92766
# Poissons Ratio (y) = 0.28632 0.22873
# Poissons Ratio (z) = 0.16368 0.19166
#
# Static dielectric constant tensor:
#      x y z
#    x 1.519880 0.000000 0.000000 
#    y 0.000000 1.488590 0.000000 
#    z 0.000000 0.000000 1.516990 
# 
# From -- ./inp_files/14015.got.cif
#   From: 2010.05.17/outbox.cif.g08.bks.cpg/sg46_8_cif.got.tgz:14015.got - 2010.06.03 19:58:25.
