data_PCOD9378101
_publ_section_title
;
Structure prediction by ZEFSAII (Michael W. Deem and Ramdas Pophale) SiO2 
 PCOD9378101
Probable space group: I M A 2
;
_chemical_formula_sum "Si O2"
_cell_formula_units_Z 56
_cell_length_a 8.679836
_cell_length_b 14.648871
_cell_length_c 24.770336
_cell_angle_alpha 90.000000
_cell_angle_beta 90.000000
_cell_angle_gamma 90.000000
_cell_volume 3149.543215
_symmetry_space_group_name_H-M "I M A 2"
_symmetry_group_IT_number 46
_symmetry_cell_setting 'orthorhombic'
loop_
_space_group_symop_operation_xyz
x,y,z
-x,-y,z
1/2-x,y,z
1/2+x,-y,z
1/2+x,1/2+y,1/2+z
1/2-x,1/2-y,1/2+z
-x,1/2+y,1/2+z
x,1/2-y,1/2+z
loop_
_atom_site_type_symbol
_atom_site_label
_atom_site_fract_x
_atom_site_fract_y
_atom_site_fract_z
Si Si1 0.564387 0.395894 0.467820
Si Si2 0.078719 0.590827 0.187157
Si Si3 0.069164 0.258674 0.377545
Si Si4 0.938943 0.206884 0.195965
Si Si5 0.435686 0.896846 0.307268
Si Si6 0.077098 0.909540 0.815168
Si Si7 0.435083 0.899216 0.088786
O O1 0.500000 0.500000 0.460312
O O2 0.750000 0.400877 0.464269
O O3 0.502186 0.319702 0.426143
O O4 0.520434 0.365676 0.528913
O O5 0.250000 0.597482 0.163455
O O6 0.002195 0.690178 0.186030
O O7 0.092674 0.576925 0.251591
O O8 0.000000 0.500000 0.164911
O O9 0.250000 0.246963 0.386175
O O10 0.993881 0.163538 0.358218
O O11 0.032247 0.325552 0.327354
O O12 0.750000 0.213239 0.199206
O O13 0.983925 0.154921 0.251229
O O14 0.984836 0.153543 0.142177
O O15 0.250000 0.899008 0.308087
O O16 0.500000 0.000000 0.307822
O O17 0.250000 0.893273 0.836415
O O18 0.000000 0.000000 0.838676
O O19 0.250000 0.901021 0.089918
O O20 0.500000 0.000000 0.092950
#
# Coordination Sequence:
#
# PCOD9378101 Si02
#       7
#     8   8   8   8   8   8   8
#     4  10  20  35  55  81 110 141 178 223 273 325
#     4   9  17  30  47  70 102 138 170 208 254 306
#     4  12  23  35  52  75 104 141 180 220 265 317
#     4   9  17  33  55  78 108 144 177 214 266 320
#     4  11  22  38  56  79 110 142 178 221 268 320
#     4  10  18  30  47  71 102 137 170 210 257 311
#     4   9  18  33  55  80 107 140 178 219 266 318
#
# _framework density 17.780356000000001
#
# number of rings (size 3 to 8) (size 9 to 14) (size 15 to 20)
#    0.000    2.000    1.429    3.429    0.000    1.143 
#    0.000    1.429    0.000    0.857    0.000    2.000 
#    0.000    0.000    0.000    0.000    0.000    0.000 
#
# Total GULP energy -155901.514063 kJ/mol
# GULP energy per Si atom -5567.911217 kJ/mol
# Density = 1.773989 g / cm^3
# Si number density = 17.780356 Si / 1000 Ang^3
#
#
#
# Elastic Constant Matrix: (Units=GPa)
#
#
# Indices 1 2 3 4 5 6 
#
# 1 60.2929 42.1950 32.2321 0.0000 0.0000 0.0000
# 2 42.1950 145.4385 56.4457 0.0000 0.0000 0.0000
# 3 32.2321 56.4457 96.7483 0.0000 0.0000 0.0000
# 4 0.0000 0.0000 0.0000 843.8376 0.0000 0.0000
# 5 0.0000 0.0000 0.0000 0.0000 9.0149 0.0000
# 6 0.0000 0.0000 0.0000 0.0000 0.0000 26.4235
#
#
#
# Elastic Compliance Matrix: (Units=1/GPa)
#
#
# Indices 1 2 3 4 5 6 
#
# 1 0.022375 -0.004652 -0.004740 0.000000 0.000000 0.000000
# 2 -0.004652 0.009855 -0.004200 0.000000 0.000000 0.000000
# 3 -0.004740 -0.004200 0.014366 0.000000 0.000000 0.000000
# 4 0.000000 0.000000 0.000000 0.001185 0.000000 0.000000
# 5 0.000000 0.000000 0.000000 0.000000 0.110928 0.000000
# 6 0.000000 0.000000 0.000000 0.000000 0.000000 0.037845
#
#
# Mechanical properties :
#
#
# Convention : Reuss Voigt Hill
#
# Bulk Modulus (GPa) = 51.51486 62.69170 57.10328
# Shear Modulus (GPa) = 21.71926 187.29565 104.50745
#
# Velocity S-wave (km/s) = 3.49883 10.27459 7.67493
# Velocity P-wave (km/s) = 6.73485 13.26996 10.52260
#
# Compressibility (1/GPa) = 0.01941187
#
# Stress axis : x y z
#
# Youngs Moduli (GPa) = 44.69191 101.46638 69.60910
#
# Poissons Ratio (x) = 0.47200 0.32998
# Poissons Ratio (y) = 0.20790 0.29237
# Poissons Ratio (z) = 0.21186 0.42618
#
# Static dielectric constant tensor:
#      x y z
#    x 1.639520 0.000000 0.000000 
#    y 0.000000 1.624800 0.000000 
#    z 0.000000 0.000000 1.640390 
# 
# From -- ./inp_files/25239.got.cif
#   From: 2010.05.17/outbox.cif.g08.bks.cpg/sg46_13_cif.got.tgz:25239.got - 2010.06.03 19:58:25.
