data_PCOD9378703
_publ_section_title
;
Structure prediction by ZEFSAII (Michael W. Deem and Ramdas Pophale) SiO2 
 PCOD9378703
Probable space group: I M A 2
;
_chemical_formula_sum "Si O2"
_cell_formula_units_Z 28
_cell_length_a 7.265284
_cell_length_b 7.328303
_cell_length_c 20.456377
_cell_angle_alpha 90.000000
_cell_angle_beta 90.000000
_cell_angle_gamma 90.000000
_cell_volume 1089.142567
_symmetry_space_group_name_H-M "I M A 2"
_symmetry_group_IT_number 46
_symmetry_cell_setting 'orthorhombic'
loop_
_space_group_symop_operation_xyz
x,y,z
-x,-y,z
1/2-x,y,z
1/2+x,-y,z
1/2+x,1/2+y,1/2+z
1/2-x,1/2-y,1/2+z
-x,1/2+y,1/2+z
x,1/2-y,1/2+z
loop_
_atom_site_type_symbol
_atom_site_label
_atom_site_fract_x
_atom_site_fract_y
_atom_site_fract_z
Si Si1 0.467128 0.716562 0.040970
Si Si2 0.750000 0.656398 0.796219
Si Si3 0.530789 0.220103 0.685549
Si Si4 0.967625 0.204085 0.897070
O O1 0.500000 0.500000 0.037251
O O2 0.250000 0.750302 0.042042
O O3 0.532220 0.776378 0.112399
O O4 0.533718 0.795288 0.972459
O O5 0.589752 0.685377 0.739983
O O6 0.591542 0.669181 0.853469
O O7 0.750000 0.252923 0.694349
O O8 0.500000 0.000000 0.690263
O O9 0.750000 0.245981 0.893819
O O10 0.000000 0.000000 0.870192
#
# Coordination Sequence:
#
# PCOD9378703 Si02
#       4
#     8   4   8   8
#     4   9  21  38  59  85 111 145 193 237 274 327
#     4  12  22  32  56  80 124 144 184 226 294 332
#     4  10  19  32  53  83 110 141 187 239 278 320
#     4  11  23  37  55  89 116 149 186 229 284 335
#
# _framework density 25.708297000000002
#
# number of rings (size 3 to 8) (size 9 to 14) (size 15 to 20)
#    0.000    1.714    2.857    1.714    4.000    0.000 
#    0.000    0.000    0.000    1.714    7.429    0.000 
#    0.000    0.000    0.000    0.000    0.000    0.000 
#
# Total GULP energy -77934.435766 kJ/mol
# GULP energy per Si atom -5566.745412 kJ/mol
# Density = 2.564978 g / cm^3
# Si number density = 25.708297 Si / 1000 Ang^3
#
#
#
# Elastic Constant Matrix: (Units=GPa)
#
#
# Indices 1 2 3 4 5 6 
#
# 1 221.1625 23.3043 98.4102 0.0000 0.0000 0.0000
# 2 23.3043 93.9000 23.7762 0.0000 0.0000 0.0000
# 3 98.4102 23.7762 235.1024 0.0000 0.0000 0.0000
# 4 0.0000 0.0000 0.0000 -28.3376 0.0000 0.0000
# 5 0.0000 0.0000 0.0000 0.0000 51.3343 0.0000
# 6 0.0000 0.0000 0.0000 0.0000 0.0000 11.5962
#
#
#
# Elastic Compliance Matrix: (Units=1/GPa)
#
#
# Indices 1 2 3 4 5 6 
#
# 1 0.005617 -0.000820 -0.002268 0.000000 0.000000 0.000000
# 2 -0.000820 0.011049 -0.000774 0.000000 0.000000 0.000000
# 3 -0.002268 -0.000774 0.005281 0.000000 0.000000 0.000000
# 4 0.000000 0.000000 0.000000 -0.035289 0.000000 0.000000
# 5 0.000000 0.000000 0.000000 0.000000 0.019480 0.000000
# 6 0.000000 0.000000 0.000000 0.000000 0.000000 0.086235
#
#
# Mechanical properties :
#
#
# Convention : Reuss Voigt Hill
#
# Bulk Modulus (GPa) = 70.30934 93.46068 81.88501
# Shear Modulus (GPa) = 47.69170 33.89687 40.79428
#
# Velocity S-wave (km/s) = 4.31177 3.63508 3.98780
# Velocity P-wave (km/s) = 7.22473 7.35198 7.28863
#
# Compressibility (1/GPa) = 0.01422286
#
# Stress axis : x y z
#
# Youngs Moduli (GPa) = 178.02105 90.50486 189.34749
#
# Poissons Ratio (x) = 0.07419 0.42952
# Poissons Ratio (y) = 0.14593 0.14661
# Poissons Ratio (z) = 0.40383 0.07008
#
# Static dielectric constant tensor:
#      x y z
#    x 1.985980 0.000000 0.000000 
#    y 0.000000 2.085610 0.000000 
#    z 0.000000 0.000000 1.984230 
# 
# From -- ./inp_files/17881.got.cif
#   From: 2010.05.17/outbox.cif.g08.bks.cpg/sg46_9_cif.got.tgz:17881.got - 2010.06.03 19:58:25.
