data_PCOD9378260
_publ_section_title
;
Structure prediction by ZEFSAII (Michael W. Deem and Ramdas Pophale) SiO2 
 PCOD9378260
Probable space group: I M A 2
;
_chemical_formula_sum "Si O2"
_cell_formula_units_Z 64
_cell_length_a 14.597506
_cell_length_b 9.643345
_cell_length_c 22.471976
_cell_angle_alpha 90.000000
_cell_angle_beta 90.000000
_cell_angle_gamma 90.000000
_cell_volume 3163.352792
_symmetry_space_group_name_H-M "I M A 2"
_symmetry_group_IT_number 46
_symmetry_cell_setting 'orthorhombic'
loop_
_space_group_symop_operation_xyz
x,y,z
-x,-y,z
1/2-x,y,z
1/2+x,-y,z
1/2+x,1/2+y,1/2+z
1/2-x,1/2-y,1/2+z
-x,1/2+y,1/2+z
x,1/2-y,1/2+z
loop_
_atom_site_type_symbol
_atom_site_label
_atom_site_fract_x
_atom_site_fract_y
_atom_site_fract_z
Si Si1 0.982877 0.650792 0.018130
Si Si2 0.359330 0.412719 0.326818
Si Si3 0.139923 0.385731 0.461560
Si Si4 0.859282 0.819287 0.238880
Si Si5 0.641889 0.140783 0.050963
Si Si6 0.139346 0.609922 0.690110
Si Si7 0.409910 0.909530 0.718441
Si Si8 0.850608 0.886303 0.628155
O O1 0.928032 0.620744 0.079128
O O2 0.000000 0.500000 0.989937
O O3 0.076171 0.732647 0.033173
O O4 0.917846 0.752452 0.980821
O O5 0.250000 0.398357 0.328194
O O6 0.388910 0.426564 0.394577
O O7 0.397003 0.276339 0.292249
O O8 0.378533 0.541677 0.283517
O O9 0.250000 0.359059 0.462430
O O10 0.122948 0.510864 0.507619
O O11 0.750000 0.832442 0.249769
O O12 0.866722 0.730184 0.178383
O O13 0.891638 0.973266 0.225101
O O14 0.750000 0.176101 0.045757
O O15 0.624284 0.096642 0.119267
O O16 0.250000 0.628308 0.698450
O O17 0.087712 0.746382 0.712255
O O18 0.500000 0.000000 0.707960
O O19 0.348526 0.970184 0.664894
O O20 0.750000 0.861591 0.601229
#
# Coordination Sequence:
#
# PCOD9378260 Si02
#       8
#     8   8   8   8   8   8   8   8
#     4  12  24  37  58  88 119 150 194 249 304 355
#     4   9  19  39  61  79 105 148 196 237 285 348
#     4  10  22  42  64  83 111 157 206 246 293 357
#     4   8  16  31  55  84 111 142 182 229 279 333
#     4  10  22  39  60  87 120 158 196 238 291 357
#     4  10  18  32  55  84 114 141 179 232 287 336
#     4  11  21  33  52  83 120 156 193 233 286 348
#     4  10  19  35  57  82 118 160 196 230 282 354
#
# _framework density 20.231698000000002
#
# number of rings (size 3 to 8) (size 9 to 14) (size 15 to 20)
#    0.000    2.000    0.000    5.250    0.000    5.000 
#    0.000    7.500    0.000    4.500    0.000    0.000 
#    0.000    0.000    0.000    0.000    0.000    0.000 
#
# Total GULP energy -178760.882259 kJ/mol
# GULP energy per Si atom -5586.277571 kJ/mol
# Density = 2.018565 g / cm^3
# Si number density = 20.231698 Si / 1000 Ang^3
#
#
#
# Elastic Constant Matrix: (Units=GPa)
#
#
# Indices 1 2 3 4 5 6 
#
# 1 77.2033 36.9235 26.0538 0.0000 0.0000 0.0000
# 2 36.9235 156.7036 57.0078 0.0000 0.0000 0.0000
# 3 26.0538 57.0078 122.7858 0.0000 0.0000 0.0000
# 4 0.0000 0.0000 0.0000 6.1515 0.0000 0.0000
# 5 0.0000 0.0000 0.0000 0.0000 22.4514 0.0000
# 6 0.0000 0.0000 0.0000 0.0000 0.0000 28.1281
#
#
#
# Elastic Compliance Matrix: (Units=1/GPa)
#
#
# Indices 1 2 3 4 5 6 
#
# 1 0.014938 -0.002848 -0.001848 0.000000 0.000000 0.000000
# 2 -0.002848 0.008221 -0.003213 0.000000 0.000000 0.000000
# 3 -0.001848 -0.003213 0.010028 0.000000 0.000000 0.000000
# 4 0.000000 0.000000 0.000000 0.162562 0.000000 0.000000
# 5 0.000000 0.000000 0.000000 0.000000 0.044541 0.000000
# 6 0.000000 0.000000 0.000000 0.000000 0.000000 0.035552
#
#
# Mechanical properties :
#
#
# Convention : Reuss Voigt Hill
#
# Bulk Modulus (GPa) = 57.56603 66.29587 61.93095
# Shear Modulus (GPa) = 16.80961 27.12670 21.96816
#
# Velocity S-wave (km/s) = 2.88558 3.66567 3.29877
# Velocity P-wave (km/s) = 6.29423 7.12430 6.72209
#
# Compressibility (1/GPa) = 0.01737136
#
# Stress axis : x y z
#
# Youngs Moduli (GPa) = 66.94208 121.63595 99.72129
#
# Poissons Ratio (x) = 0.34638 0.18424
# Poissons Ratio (y) = 0.19063 0.32038
# Poissons Ratio (z) = 0.12368 0.39079
#
# Static dielectric constant tensor:
#      x y z
#    x 1.801340 0.000000 0.000000 
#    y 0.000000 1.737550 0.000000 
#    z 0.000000 0.000000 1.703150 
# 
# From -- ./inp_files/23680.got.cif
#   From: 2010.05.17/outbox.cif.g08.bks.cpg/sg46_12_cif.got.tgz:23680.got - 2010.06.03 19:58:25.
