data_PCOD9378899
_publ_section_title
;
Structure prediction by ZEFSAII (Michael W. Deem and Ramdas Pophale) SiO2 
 PCOD9378899
Probable space group: I M A 2
;
_chemical_formula_sum "Si O2"
_cell_formula_units_Z 48
_cell_length_a 14.033223
_cell_length_b 9.413140
_cell_length_c 13.866073
_cell_angle_alpha 90.000000
_cell_angle_beta 90.000000
_cell_angle_gamma 90.000000
_cell_volume 1831.662385
_symmetry_space_group_name_H-M "I M A 2"
_symmetry_group_IT_number 46
_symmetry_cell_setting 'orthorhombic'
loop_
_space_group_symop_operation_xyz
x,y,z
-x,-y,z
1/2-x,y,z
1/2+x,-y,z
1/2+x,1/2+y,1/2+z
1/2-x,1/2-y,1/2+z
-x,1/2+y,1/2+z
x,1/2-y,1/2+z
loop_
_atom_site_type_symbol
_atom_site_label
_atom_site_fract_x
_atom_site_fract_y
_atom_site_fract_z
Si Si1 0.933044 0.673599 0.930800
Si Si2 0.359374 0.449283 0.346856
Si Si3 0.110326 0.038213 0.238479
Si Si4 0.425145 0.176448 0.648977
Si Si5 0.352585 0.743431 0.152335
Si Si6 0.643712 0.239646 0.426252
O O1 0.918998 0.843464 0.915383
O O2 0.873406 0.604977 0.843936
O O3 0.046691 0.650146 0.914423
O O4 0.907609 0.628727 0.039285
O O5 0.250000 0.413470 0.365646
O O6 0.385038 0.414261 0.236827
O O7 0.369647 0.615798 0.366677
O O8 0.122176 0.168081 0.164080
O O9 0.154461 0.888790 0.212052
O O10 0.000000 0.000000 0.231250
O O11 0.539856 0.184708 0.665496
O O12 0.250000 0.665527 0.168527
O O13 0.354690 0.779883 0.038855
O O14 0.750000 0.180914 0.406413
#
# Coordination Sequence:
#
# PCOD9378899 Si02
#       6
#     8   8   8   8   8   8
#     4  10  19  34  55  79 108 143 183 229 276 324
#     4  10  20  33  52  80 111 145 185 228 275 324
#     4   9  18  32  49  76 108 141 179 217 265 321
#     4   9  19  34  53  80 111 143 183 228 274 326
#     4   9  17  33  59  86 110 141 184 232 278 326
#     4   9  18  34  59  87 111 139 181 232 280 327
#
# _framework density 26.205704000000001
#
# number of rings (size 3 to 8) (size 9 to 14) (size 15 to 20)
#    0.000    2.667    0.000    1.500    0.000    6.000 
#    0.000   10.833    0.000    2.000    0.000    4.667 
#    0.000    0.000    0.000    0.000    0.000    0.000 
#
# Total GULP energy -134316.624113 kJ/mol
# GULP energy per Si atom -5596.526005 kJ/mol
# Density = 2.614606 g / cm^3
# Si number density = 26.205704 Si / 1000 Ang^3
#
#
#
# Elastic Constant Matrix: (Units=GPa)
#
#
# Indices 1 2 3 4 5 6 
#
# 1 121.7034 -9.0422 20.0445 0.0000 0.0000 0.0000
# 2 -9.0422 52.4263 15.5402 0.0000 0.0000 0.0000
# 3 20.0445 15.5402 126.7540 0.0000 0.0000 0.0000
# 4 0.0000 0.0000 0.0000 33.5660 0.0000 0.0000
# 5 0.0000 0.0000 0.0000 0.0000 31.6153 0.0000
# 6 0.0000 0.0000 0.0000 0.0000 0.0000 31.0820
#
#
#
# Elastic Compliance Matrix: (Units=1/GPa)
#
#
# Indices 1 2 3 4 5 6 
#
# 1 0.008627 0.001964 -0.001605 0.000000 0.000000 0.000000
# 2 0.001964 0.020241 -0.002792 0.000000 0.000000 0.000000
# 3 -0.001605 -0.002792 0.008485 0.000000 0.000000 0.000000
# 4 0.000000 0.000000 0.000000 0.029792 0.000000 0.000000
# 5 0.000000 0.000000 0.000000 0.000000 0.031630 0.000000
# 6 0.000000 0.000000 0.000000 0.000000 0.000000 0.032173
#
#
# Mechanical properties :
#
#
# Convention : Reuss Voigt Hill
#
# Bulk Modulus (GPa) = 30.78220 39.32986 35.05603
# Shear Modulus (GPa) = 34.09622 37.54208 35.81915
#
# Velocity S-wave (km/s) = 3.61099 3.78907 3.70110
# Velocity P-wave (km/s) = 5.39977 5.84666 5.62765
#
# Compressibility (1/GPa) = 0.03248631
#
# Stress axis : x y z
#
# Youngs Moduli (GPa) = 115.91602 49.40535 117.84928
#
# Poissons Ratio (x) = -0.09702 0.18915
# Poissons Ratio (y) = -0.22762 0.32904
# Poissons Ratio (z) = 0.18604 0.13794
#
# Static dielectric constant tensor:
#      x y z
#    x 2.022120 0.000000 0.000000 
#    y 0.000000 2.138920 0.000000 
#    z 0.000000 0.000000 2.024180 
# 
# From -- ./inp_files/11080.got.cif
#   From: 2010.05.17/outbox.cif.g08.bks.cpg/sg46_6_cif.got.tgz:11080.got - 2010.06.03 19:58:25.
