data_PCOD9378835
_publ_section_title
;
Structure prediction by ZEFSAII (Michael W. Deem and Ramdas Pophale) SiO2 
 PCOD9378835
Probable space group: I M A 2
;
_chemical_formula_sum "Si O2"
_cell_formula_units_Z 56
_cell_length_a 8.816905
_cell_length_b 15.668845
_cell_length_c 20.375072
_cell_angle_alpha 90.000000
_cell_angle_beta 90.000000
_cell_angle_gamma 90.000000
_cell_volume 2814.830823
_symmetry_space_group_name_H-M "I M A 2"
_symmetry_group_IT_number 46
_symmetry_cell_setting 'orthorhombic'
loop_
_space_group_symop_operation_xyz
x,y,z
-x,-y,z
1/2-x,y,z
1/2+x,-y,z
1/2+x,1/2+y,1/2+z
1/2-x,1/2-y,1/2+z
-x,1/2+y,1/2+z
x,1/2-y,1/2+z
loop_
_atom_site_type_symbol
_atom_site_label
_atom_site_fract_x
_atom_site_fract_y
_atom_site_fract_z
Si Si1 0.425328 0.085606 0.805960
Si Si2 0.425162 0.076846 0.066237
Si Si3 0.921860 0.379953 0.434514
Si Si4 0.075567 0.250206 0.645625
Si Si5 0.432822 0.405636 0.051283
Si Si6 0.069368 0.731497 0.781206
Si Si7 0.073189 0.823964 0.421100
O O1 0.250000 0.090068 0.789277
O O2 0.452936 0.086513 0.884090
O O3 0.513040 0.171026 0.787302
O O4 0.500000 0.000000 0.778331
O O5 0.250000 0.058134 0.050345
O O6 0.424850 0.170524 0.096632
O O7 0.500000 0.000000 0.107844
O O8 0.536617 0.084881 0.004675
O O9 0.750000 0.401804 0.412848
O O10 0.930570 0.277159 0.437097
O O11 0.250000 0.232643 0.665829
O O12 0.020016 0.165499 0.606406
O O13 0.986962 0.286711 0.708408
O O14 0.500000 0.500000 0.063741
O O15 0.250000 0.408808 0.052198
O O16 0.486237 0.373369 0.978860
O O17 0.250000 0.729383 0.785229
O O18 0.015211 0.676630 0.844888
O O19 0.250000 0.851624 0.422154
#
# Coordination Sequence:
#
# PCOD9378835 Si02
#       7
#     8   8   8   8   8   8   8
#     4  11  21  34  53  79 115 153 193 240 293 354
#     4  11  22  37  57  85 118 153 197 243 298 360
#     4  10  19  33  55  84 117 151 189 235 292 351
#     4  10  23  42  61  87 124 164 208 255 311 378
#     4  11  23  40  64  94 126 165 214 263 317 374
#     4  10  22  39  61  87 117 158 204 252 313 375
#     4   9  19  37  60  88 119 154 201 250 302 364
#
# _framework density 19.894624
#
# number of rings (size 3 to 8) (size 9 to 14) (size 15 to 20)
#    0.000    1.714    1.429    4.286    0.000    5.714 
#    0.000    2.143    0.000    1.714    0.000    0.000 
#    0.000    0.000    0.000    0.000    0.000    0.000 
#
# Total GULP energy -156080.796882 kJ/mol
# GULP energy per Si atom -5574.314174 kJ/mol
# Density = 1.984934 g / cm^3
# Si number density = 19.894624 Si / 1000 Ang^3
#
#
#
# Elastic Constant Matrix: (Units=GPa)
#
#
# Indices 1 2 3 4 5 6 
#
# 1 60.2844 15.1030 21.6340 0.0000 0.0000 0.0000
# 2 15.1030 68.7779 3.4122 0.0000 0.0000 0.0000
# 3 21.6340 3.4122 60.4658 0.0000 0.0000 0.0000
# 4 0.0000 0.0000 0.0000 1.7946 0.0000 0.0000
# 5 0.0000 0.0000 0.0000 0.0000 13.3307 0.0000
# 6 0.0000 0.0000 0.0000 0.0000 0.0000 31.7943
#
#
#
# Elastic Compliance Matrix: (Units=1/GPa)
#
#
# Indices 1 2 3 4 5 6 
#
# 1 0.020107 -0.004070 -0.006964 0.000000 0.000000 0.000000
# 2 -0.004070 0.015404 0.000587 0.000000 0.000000 0.000000
# 3 -0.006964 0.000587 0.018997 0.000000 0.000000 0.000000
# 4 0.000000 0.000000 0.000000 0.557230 0.000000 0.000000
# 5 0.000000 0.000000 0.000000 0.000000 0.075015 0.000000
# 6 0.000000 0.000000 0.000000 0.000000 0.000000 0.031452
#
#
# Mechanical properties :
#
#
# Convention : Reuss Voigt Hill
#
# Bulk Modulus (GPa) = 29.75008 29.98072 29.86540
# Shear Modulus (GPa) = 6.66396 19.34251 13.00324
#
# Velocity S-wave (km/s) = 1.83219 3.12147 2.55934
# Velocity P-wave (km/s) = 4.41159 5.30037 4.87627
#
# Compressibility (1/GPa) = 0.03361335
#
# Stress axis : x y z
#
# Youngs Moduli (GPa) = 49.73419 64.91770 52.64014
#
# Poissons Ratio (x) = 0.26420 0.36660
# Poissons Ratio (y) = 0.20241 -0.03089
# Poissons Ratio (z) = 0.34637 -0.03810
#
# Static dielectric constant tensor:
#      x y z
#    x 1.698990 0.000000 0.000000 
#    y 0.000000 1.780270 0.000000 
#    z 0.000000 0.000000 1.809640 
# 
# From -- ./inp_files/21083.got.cif
#   From: 2010.05.17/outbox.cif.g08.bks.cpg/sg46_11_cif.got.tgz:21083.got - 2010.06.03 19:58:25.
