data_PCOD9378719
_publ_section_title
;
Structure prediction by ZEFSAII (Michael W. Deem and Ramdas Pophale) SiO2 
 PCOD9378719
Probable space group: I M A 2
;
_chemical_formula_sum "Si O2"
_cell_formula_units_Z 64
_cell_length_a 9.265851
_cell_length_b 32.775815
_cell_length_c 11.909432
_cell_angle_alpha 90.000000
_cell_angle_beta 90.000000
_cell_angle_gamma 90.000000
_cell_volume 3616.844695
_symmetry_space_group_name_H-M "I M A 2"
_symmetry_group_IT_number 46
_symmetry_cell_setting 'orthorhombic'
loop_
_space_group_symop_operation_xyz
x,y,z
-x,-y,z
1/2-x,y,z
1/2+x,-y,z
1/2+x,1/2+y,1/2+z
1/2-x,1/2-y,1/2+z
-x,1/2+y,1/2+z
x,1/2-y,1/2+z
loop_
_atom_site_type_symbol
_atom_site_label
_atom_site_fract_x
_atom_site_fract_y
_atom_site_fract_z
Si Si1 0.087180 0.687186 0.118610
Si Si2 0.082005 0.280768 0.915608
Si Si3 0.923263 0.624720 0.548100
Si Si4 0.076535 0.648953 0.777951
Si Si5 0.078620 0.043062 0.659824
Si Si6 0.077133 0.043415 0.916642
Si Si7 0.416565 0.186540 0.845069
Si Si8 0.912684 0.100308 0.493867
O O1 0.250000 0.703597 0.124711
O O2 0.092322 0.643663 0.056997
O O3 0.019716 0.680819 0.239855
O O4 0.987151 0.714485 0.038752
O O5 0.250000 0.293277 0.917628
O O6 0.074188 0.233814 0.879950
O O7 0.995600 0.310432 0.830937
O O8 0.750000 0.625357 0.569357
O O9 0.962565 0.579762 0.501403
O O10 0.951857 0.657126 0.448758
O O11 0.008689 0.637691 0.658822
O O12 0.250000 0.654113 0.773005
O O13 0.046819 0.612426 0.867075
O O14 0.250000 0.038569 0.651496
O O15 0.045255 0.057226 0.787884
O O16 0.019782 0.072497 0.563827
O O17 0.000000 0.000000 0.647241
O O18 0.250000 0.037474 0.923539
O O19 0.000000 0.000000 0.936186
O O20 0.250000 0.177677 0.812387
O O21 0.750000 0.082847 0.495304
#
# Coordination Sequence:
#
# PCOD9378719 Si02
#       8
#     8   8   8   8   8   8   8   8
#     4  10  21  36  55  80 109 140 178 227 279 329
#     4  10  21  37  57  79 108 147 187 230 281 335
#     4  10  21  38  58  83 113 149 193 237 281 338
#     4  10  22  39  57  80 111 148 189 235 285 337
#     4  10  19  32  55  85 114 143 178 224 279 333
#     4   9  19  35  56  83 115 147 182 229 282 337
#     4  10  22  37  56  81 110 144 187 233 276 333
#     4   9  19  36  54  75 107 142 179 223 272 328
#
# _framework density 17.694983000000001
#
# number of rings (size 3 to 8) (size 9 to 14) (size 15 to 20)
#    0.000    2.250    0.000    3.000    1.750    6.500 
#    0.000    0.625    0.000    1.500    0.000    0.000 
#    0.000    0.000    0.000    0.000    0.000    0.000 
#
# Total GULP energy -178553.341371 kJ/mol
# GULP energy per Si atom -5579.791918 kJ/mol
# Density = 1.765471 g / cm^3
# Si number density = 17.694983 Si / 1000 Ang^3
#
#
#
# Elastic Constant Matrix: (Units=GPa)
#
#
# Indices 1 2 3 4 5 6 
#
# 1 86.1756 39.5676 72.8615 0.0001 0.0000 0.0001
# 2 39.5676 59.0330 45.5751 0.0002 0.0001 0.0000
# 3 72.8615 45.5751 129.6493 0.0001 -0.0006 0.0002
# 4 0.0001 0.0002 0.0001 9.7988 0.0000 0.0000
# 5 0.0000 0.0001 -0.0006 0.0000 27.7080 -0.0001
# 6 0.0001 0.0000 0.0002 0.0000 -0.0001 20.5157
#
#
#
# Elastic Compliance Matrix: (Units=1/GPa)
#
#
# Indices 1 2 3 4 5 6 
#
# 1 0.024570 -0.007971 -0.011006 0.000000 0.000000 0.000000
# 2 -0.007971 0.025835 -0.004602 0.000000 0.000000 0.000000
# 3 -0.011006 -0.004602 0.015516 0.000000 0.000000 0.000000
# 4 0.000000 0.000000 0.000000 0.102054 0.000000 0.000000
# 5 0.000000 0.000000 0.000000 0.000000 0.036091 0.000000
# 6 0.000000 0.000000 0.000000 0.000000 0.000000 0.048743
#
#
# Mechanical properties :
#
#
# Convention : Reuss Voigt Hill
#
# Bulk Modulus (GPa) = 53.29687 65.65181 59.47434
# Shear Modulus (GPa) = 16.32807 19.39472 17.86139
#
# Velocity S-wave (km/s) = 3.04098 3.31427 3.18056
# Velocity P-wave (km/s) = 6.52037 7.19919 6.86817
#
# Compressibility (1/GPa) = 0.01876283
#
# Stress axis : x y z
#
# Youngs Moduli (GPa) = 40.70071 38.70646 64.44987
#
# Poissons Ratio (x) = 0.30854 0.70932
# Poissons Ratio (y) = 0.32444 0.29660
# Poissons Ratio (z) = 0.44794 0.17813
#
# Static dielectric constant tensor:
#      x y z
#    x 1.603630 0.000000 0.000000 
#    y 0.000000 1.591090 0.000000 
#    z 0.000000 0.000000 1.593890 
# 
# From -- ./inp_files/9746.got.cif
#   From: 2010.05.17/outbox.cif.g08.bks.cpg/sg46_5_cif.got.tgz:9746.got - 2010.06.03 19:58:25.
