data_PCOD9378482
_publ_section_title
;
Structure prediction by ZEFSAII (Michael W. Deem and Ramdas Pophale) SiO2 
 PCOD9378482
Probable space group: I M A 2
;
_chemical_formula_sum "Si O2"
_cell_formula_units_Z 48
_cell_length_a 17.695019
_cell_length_b 7.260768
_cell_length_c 16.705876
_cell_angle_alpha 90.000000
_cell_angle_beta 90.000000
_cell_angle_gamma 90.000000
_cell_volume 2146.361388
_symmetry_space_group_name_H-M "I M A 2"
_symmetry_group_IT_number 46
_symmetry_cell_setting 'orthorhombic'
loop_
_space_group_symop_operation_xyz
x,y,z
-x,-y,z
1/2-x,y,z
1/2+x,-y,z
1/2+x,1/2+y,1/2+z
1/2-x,1/2-y,1/2+z
-x,1/2+y,1/2+z
x,1/2-y,1/2+z
loop_
_atom_site_type_symbol
_atom_site_label
_atom_site_fract_x
_atom_site_fract_y
_atom_site_fract_z
Si Si1 0.162719 0.976838 0.833640
Si Si2 0.088876 0.536515 0.667762
Si Si3 0.589292 0.474589 0.171156
Si Si4 0.658689 0.436462 0.506126
Si Si5 0.162255 0.527640 0.832279
Si Si6 0.090311 0.973370 0.497690
O O1 0.250000 0.025515 0.825010
O O2 0.121202 0.045966 0.754746
O O3 0.157845 0.752356 0.834698
O O4 0.137524 0.034542 0.922577
O O5 0.104129 0.755774 0.670795
O O6 0.132516 0.471095 0.588495
O O7 0.118337 0.465518 0.752970
O O8 0.000000 0.500000 0.659070
O O9 0.500000 0.500000 0.172489
O O10 0.616338 0.548532 0.084768
O O11 0.750000 0.407087 0.505944
O O12 0.614552 0.241653 0.502431
O O13 0.250000 0.479217 0.826364
O O14 0.128046 0.458849 0.915896
O O15 0.000000 0.000000 0.492331
#
# Coordination Sequence:
#
# PCOD9378482 Si02
#       6
#     8   8   8   8   8   8
#     4   8  15  27  45  67  89 114 153 197 230 264
#     4  10  19  30  47  71  95 121 155 199 240 278
#     4   9  18  30  45  67  93 120 150 187 232 282
#     4   9  17  30  47  69  94 123 160 201 237 279
#     4   9  16  27  44  67  92 121 155 193 234 280
#     4   9  16  26  42  67  97 121 149 195 240 277
#
# _framework density 22.363430000000001
#
# number of rings (size 3 to 8) (size 9 to 14) (size 15 to 20)
#    0.000    3.000    0.000    2.500    0.000    5.333 
#    0.000    0.000    0.000    2.000    0.000   21.000 
#    0.000    0.000    0.000    0.000    0.000    0.000 
#
# Total GULP energy -133856.333345 kJ/mol
# GULP energy per Si atom -5577.347223 kJ/mol
# Density = 2.231253 g / cm^3
# Si number density = 22.363430 Si / 1000 Ang^3
#
#
#
# Elastic Constant Matrix: (Units=GPa)
#
#
# Indices 1 2 3 4 5 6 
#
# 1 85.7736 2.3332 87.0729 0.0000 0.0000 0.0000
# 2 2.3332 97.6241 13.6749 0.0000 0.0000 0.0000
# 3 87.0729 13.6749 291.6003 0.0000 0.0000 0.0000
# 4 0.0000 0.0000 0.0000 -26.0378 0.0000 0.0000
# 5 0.0000 0.0000 0.0000 0.0000 51.2421 0.0000
# 6 0.0000 0.0000 0.0000 0.0000 0.0000 15.0926
#
#
#
# Elastic Compliance Matrix: (Units=1/GPa)
#
#
# Indices 1 2 3 4 5 6 
#
# 1 0.016739 0.000302 -0.005012 0.000000 0.000000 0.000000
# 2 0.000302 0.010317 -0.000574 0.000000 0.000000 0.000000
# 3 -0.005012 -0.000574 0.004953 0.000000 0.000000 0.000000
# 4 0.000000 0.000000 0.000000 -0.038406 0.000000 0.000000
# 5 0.000000 0.000000 0.000000 0.000000 0.019515 0.000000
# 6 0.000000 0.000000 0.000000 0.000000 0.000000 0.066257
#
#
# Mechanical properties :
#
#
# Convention : Reuss Voigt Hill
#
# Bulk Modulus (GPa) = 46.64270 75.68446 61.16358
# Shear Modulus (GPa) = 51.49841 32.85386 42.17614
#
# Velocity S-wave (km/s) = 4.80395 3.83703 4.34745
# Velocity P-wave (km/s) = 7.18836 7.31757 7.25325
#
# Compressibility (1/GPa) = 0.02143958
#
# Stress axis : x y z
#
# Youngs Moduli (GPa) = 59.74173 96.93160 201.89815
#
# Poissons Ratio (x) = -0.02928 1.01200
# Poissons Ratio (y) = -0.01805 0.11589
# Poissons Ratio (z) = 0.29945 0.05564
#
# Static dielectric constant tensor:
#      x y z
#    x 1.727990 0.000000 0.000000 
#    y 0.000000 1.820570 0.000000 
#    z 0.000000 0.000000 1.882500 
# 
# From -- ./inp_files/15860.got.cif
#   From: 2010.05.17/outbox.cif.g08.bks.cpg/sg46_8_cif.got.tgz:15860.got - 2010.06.03 19:58:25.
