data_PCOD9378779
_publ_section_title
;
Structure prediction by ZEFSAII (Michael W. Deem and Ramdas Pophale) SiO2 
 PCOD9378779
Probable space group: I M A 2
;
_chemical_formula_sum "Si O2"
_cell_formula_units_Z 64
_cell_length_a 8.600577
_cell_length_b 21.203782
_cell_length_c 20.135591
_cell_angle_alpha 90.000000
_cell_angle_beta 90.000000
_cell_angle_gamma 90.000000
_cell_volume 3672.022216
_symmetry_space_group_name_H-M "I M A 2"
_symmetry_group_IT_number 46
_symmetry_cell_setting 'orthorhombic'
loop_
_space_group_symop_operation_xyz
x,y,z
-x,-y,z
1/2-x,y,z
1/2+x,-y,z
1/2+x,1/2+y,1/2+z
1/2-x,1/2-y,1/2+z
-x,1/2+y,1/2+z
x,1/2-y,1/2+z
loop_
_atom_site_type_symbol
_atom_site_label
_atom_site_fract_x
_atom_site_fract_y
_atom_site_fract_z
Si Si1 0.063939 0.114870 0.986620
Si Si2 0.436046 0.743399 0.984532
Si Si3 0.562917 0.187225 0.624200
Si Si4 0.936203 0.734883 0.843633
Si Si5 0.562046 0.188566 0.207659
Si Si6 0.935818 0.566793 0.199695
Si Si7 0.064293 0.566868 0.623496
Si Si8 0.561385 0.882534 0.839581
O O1 0.250000 0.109156 0.989961
O O2 0.010197 0.094790 0.912536
O O3 0.016820 0.188443 0.992469
O O4 0.990010 0.078697 0.048033
O O5 0.250000 0.753104 0.985063
O O6 0.489706 0.716310 0.913951
O O7 0.477245 0.700655 0.047626
O O8 0.750000 0.182070 0.628984
O O9 0.515370 0.249119 0.666233
O O10 0.488646 0.125088 0.654789
O O11 0.750000 0.732523 0.848397
O O12 0.981726 0.808621 0.832470
O O13 0.994637 0.695286 0.781196
O O14 0.750000 0.188098 0.210822
O O15 0.511399 0.126020 0.168313
O O16 0.750000 0.564773 0.201241
O O17 0.994428 0.580329 0.275088
O O18 0.000000 0.500000 0.176303
O O19 0.250000 0.565798 0.624627
O O20 0.000000 0.500000 0.647121
O O21 0.750000 0.884570 0.839734
#
# Coordination Sequence:
#
# PCOD9378779 Si02
#       8
#     8   8   8   8   8   8   8   8
#     4  10  19  33  53  79 112 148 187 229 271 321
#     4  10  19  34  55  82 114 146 181 225 277 329
#     4  10  20  36  57  82 109 142 185 230 276 326
#     4  10  19  33  54  84 113 140 182 228 275 327
#     4  10  20  36  57  81 110 143 184 230 280 330
#     4  11  22  37  54  77 110 147 186 228 277 326
#     4  11  23  39  55  79 112 149 190 231 280 335
#     4   8  17  32  49  74 108 143 180 221 261 316
#
# _framework density 17.429089999999999
#
# number of rings (size 3 to 8) (size 9 to 14) (size 15 to 20)
#    0.000    2.000    2.500    2.625    0.000    2.500 
#    0.000    3.125    0.000    0.750    0.000    3.500 
#    0.000    0.000    0.000    0.000    0.000    0.000 
#
# Total GULP energy -178622.095537 kJ/mol
# GULP energy per Si atom -5581.940486 kJ/mol
# Density = 1.738942 g / cm^3
# Si number density = 17.429090 Si / 1000 Ang^3
#
#
#
# Elastic Constant Matrix: (Units=GPa)
#
#
# Indices 1 2 3 4 5 6 
#
# 1 32.3363 26.7959 26.1888 0.0000 0.0000 0.0000
# 2 26.7959 110.7664 58.9798 0.0000 0.0000 0.0000
# 3 26.1888 58.9798 116.1576 0.0000 0.0000 0.0000
# 4 0.0000 0.0000 0.0000 19.1907 0.0000 0.0000
# 5 0.0000 0.0000 0.0000 0.0000 25.8702 0.0000
# 6 0.0000 0.0000 0.0000 0.0000 0.0000 24.6793
#
#
#
# Elastic Compliance Matrix: (Units=1/GPa)
#
#
# Indices 1 2 3 4 5 6 
#
# 1 0.041361 -0.006908 -0.005818 0.000000 0.000000 0.000000
# 2 -0.006908 0.013527 -0.005311 0.000000 0.000000 0.000000
# 3 -0.005818 -0.005311 0.012617 0.000000 0.000000 0.000000
# 4 0.000000 0.000000 0.000000 0.052109 0.000000 0.000000
# 5 0.000000 0.000000 0.000000 0.000000 0.038654 0.000000
# 6 0.000000 0.000000 0.000000 0.000000 0.000000 0.040520
#
#
# Mechanical properties :
#
#
# Convention : Reuss Voigt Hill
#
# Bulk Modulus (GPa) = 31.81461 53.68770 42.75115
# Shear Modulus (GPa) = 20.37995 23.76776 22.07386
#
# Velocity S-wave (km/s) = 3.42322 3.69681 3.56265
# Velocity P-wave (km/s) = 5.82391 7.00659 6.44245
#
# Compressibility (1/GPa) = 0.03143210
#
# Stress axis : x y z
#
# Youngs Moduli (GPa) = 24.17734 73.92560 79.25620
#
# Poissons Ratio (x) = 0.51069 0.46108
# Poissons Ratio (y) = 0.16702 0.42093
# Poissons Ratio (z) = 0.14065 0.39262
#
# Static dielectric constant tensor:
#      x y z
#    x 1.587050 0.000000 0.000000 
#    y 0.000000 1.576080 0.000000 
#    z 0.000000 0.000000 1.600850 
# 
# From -- ./inp_files/18526.got.cif
#   From: 2010.05.17/outbox.cif.g08.bks.cpg/sg46_10_cif.got.tgz:18526.got - 2010.06.03 19:58:25.
