data_PCOD9378206
_publ_section_title
;
Structure prediction by ZEFSAII (Michael W. Deem and Ramdas Pophale) SiO2 
 PCOD9378206
Probable space group: I M A 2
;
_chemical_formula_sum "Si O2"
_cell_formula_units_Z 56
_cell_length_a 17.273777
_cell_length_b 9.314719
_cell_length_c 17.278912
_cell_angle_alpha 90.000000
_cell_angle_beta 90.000000
_cell_angle_gamma 90.000000
_cell_volume 2780.183486
_symmetry_space_group_name_H-M "I M A 2"
_symmetry_group_IT_number 46
_symmetry_cell_setting 'orthorhombic'
loop_
_space_group_symop_operation_xyz
x,y,z
-x,-y,z
1/2-x,y,z
1/2+x,-y,z
1/2+x,1/2+y,1/2+z
1/2-x,1/2-y,1/2+z
-x,1/2+y,1/2+z
x,1/2-y,1/2+z
loop_
_atom_site_type_symbol
_atom_site_label
_atom_site_fract_x
_atom_site_fract_y
_atom_site_fract_z
Si Si1 0.081217 0.800146 0.030540
Si Si2 0.659404 0.421283 0.131795
Si Si3 0.431728 0.608902 0.884738
Si Si4 0.461397 0.643443 0.267555
Si Si5 0.342390 0.408493 0.535735
Si Si6 0.341820 0.399005 0.986386
Si Si7 0.542098 0.642909 0.662667
O O1 0.148374 0.722546 0.080382
O O2 0.011302 0.822125 0.088926
O O3 0.114780 0.951547 0.003579
O O4 0.052681 0.699091 0.962488
O O5 0.750000 0.443216 0.151424
O O6 0.602763 0.406152 0.204688
O O7 0.629925 0.540215 0.069857
O O8 0.500000 0.500000 0.865021
O O9 0.422743 0.734271 0.821607
O O10 0.366075 0.498664 0.914773
O O11 0.500000 0.500000 0.303420
O O12 0.529996 0.729485 0.222753
O O13 0.250000 0.425449 0.536635
O O14 0.362258 0.268141 0.485067
O O15 0.375082 0.386899 0.623690
O O16 0.250000 0.408532 0.992264
O O17 0.500000 0.500000 0.694732
#
# Coordination Sequence:
#
# PCOD9378206 Si02
#       7
#     8   8   8   8   8   8   8
#     4   9  19  34  57  84 110 143 186 234 278 327
#     4   9  18  36  59  84 111 145 186 231 282 336
#     4  11  23  38  56  77 109 151 190 231 279 333
#     4  11  23  36  54  80 113 150 192 236 278 331
#     4  10  18  31  57  91 118 142 179 231 280 330
#     4   9  19  35  58  85 113 144 183 227 276 332
#     4   9  18  34  54  79 111 145 182 226 277 331
#
# _framework density 20.142555000000002
#
# number of rings (size 3 to 8) (size 9 to 14) (size 15 to 20)
#    0.000    2.286    0.000    2.571    0.000    8.000 
#    0.000    0.000    0.000    3.429    0.000    0.000 
#    0.000    0.000    0.000    0.000    0.000    0.000 
#
# Total GULP energy -156019.803696 kJ/mol
# GULP energy per Si atom -5572.135846 kJ/mol
# Density = 2.009671 g / cm^3
# Si number density = 20.142555 Si / 1000 Ang^3
#
#
#
# Elastic Constant Matrix: (Units=GPa)
#
#
# Indices 1 2 3 4 5 6 
#
# 1 35.0966 8.7458 11.3288 0.0000 0.0000 0.0000
# 2 8.7458 134.4898 30.9471 0.0000 0.0000 0.0000
# 3 11.3288 30.9471 54.9369 0.0000 0.0000 0.0000
# 4 0.0000 0.0000 0.0000 21.0389 0.0000 0.0000
# 5 0.0000 0.0000 0.0000 0.0000 11.1511 0.0000
# 6 0.0000 0.0000 0.0000 0.0000 0.0000 22.6509
#
#
#
# Elastic Compliance Matrix: (Units=1/GPa)
#
#
# Indices 1 2 3 4 5 6 
#
# 1 0.030569 -0.000617 -0.005956 0.000000 0.000000 0.000000
# 2 -0.000617 0.008555 -0.004692 0.000000 0.000000 0.000000
# 3 -0.005956 -0.004692 0.022074 0.000000 0.000000 0.000000
# 4 0.000000 0.000000 0.000000 0.047531 0.000000 0.000000
# 5 0.000000 0.000000 0.000000 0.000000 0.089678 0.000000
# 6 0.000000 0.000000 0.000000 0.000000 0.000000 0.044148
#
#
# Mechanical properties :
#
#
# Convention : Reuss Voigt Hill
#
# Bulk Modulus (GPa) = 25.86144 36.28518 31.07331
# Shear Modulus (GPa) = 17.98718 22.53494 20.26106
#
# Velocity S-wave (km/s) = 2.99154 3.34843 3.17501
# Velocity P-wave (km/s) = 4.97991 5.74479 5.37597
#
# Compressibility (1/GPa) = 0.03866761
#
# Stress axis : x y z
#
# Youngs Moduli (GPa) = 32.71272 116.88608 45.30203
#
# Poissons Ratio (x) = 0.07216 0.26982
# Poissons Ratio (y) = 0.02020 0.21256
# Poissons Ratio (z) = 0.19484 0.54844
#
# Static dielectric constant tensor:
#      x y z
#    x 1.724770 0.000000 0.000000 
#    y 0.000000 1.788010 0.000000 
#    z 0.000000 0.000000 1.716430 
# 
# From -- ./inp_files/20157.got.cif
#   From: 2010.05.17/outbox.cif.g08.bks.cpg/sg46_11_cif.got.tgz:20157.got - 2010.06.03 19:58:25.
