data_PCOD9378251
_publ_section_title
;
Structure prediction by ZEFSAII (Michael W. Deem and Ramdas Pophale) SiO2 
 PCOD9378251
Probable space group: I M A 2
;
_chemical_formula_sum "Si O2"
_cell_formula_units_Z 56
_cell_length_a 23.025104
_cell_length_b 5.389858
_cell_length_c 18.747152
_cell_angle_alpha 90.000000
_cell_angle_beta 90.000000
_cell_angle_gamma 90.000000
_cell_volume 2326.559826
_symmetry_space_group_name_H-M "I M A 2"
_symmetry_group_IT_number 46
_symmetry_cell_setting 'orthorhombic'
loop_
_space_group_symop_operation_xyz
x,y,z
-x,-y,z
1/2-x,y,z
1/2+x,-y,z
1/2+x,1/2+y,1/2+z
1/2-x,1/2-y,1/2+z
-x,1/2+y,1/2+z
x,1/2-y,1/2+z
loop_
_atom_site_type_symbol
_atom_site_label
_atom_site_fract_x
_atom_site_fract_y
_atom_site_fract_z
Si Si1 0.750000 0.258246 0.649390
Si Si2 0.250000 0.238451 0.742352
Si Si3 0.370555 0.305108 0.254827
Si Si4 0.367171 0.979506 0.114300
Si Si5 0.947698 0.182652 0.686133
Si Si6 0.817727 0.227856 0.399035
Si Si7 0.684546 0.730321 0.491348
Si Si8 0.060313 0.549177 0.833934
O O1 0.750000 0.487173 0.707428
O O2 0.809725 0.307953 0.606768
O O3 0.750000 0.984066 0.683614
O O4 0.192830 0.187715 0.787434
O O5 0.389937 0.536178 0.209227
O O6 0.415968 0.222401 0.312971
O O7 0.366027 0.096054 0.193554
O O8 0.428465 0.841377 0.118270
O O9 0.360466 0.188607 0.055240
O O10 0.960219 0.320754 0.760304
O O11 0.000000 0.000000 0.670517
O O12 0.750000 0.212906 0.368269
O O13 0.821651 0.987653 0.450416
O O14 0.879595 0.192744 0.356348
O O15 0.820787 0.487216 0.441355
O O16 0.750000 0.729414 0.522134
O O17 0.000000 0.500000 0.876751
#
# Coordination Sequence:
#
# PCOD9378251 Si02
#       8
#     4   4   8   8   8   8   8   8
#     4  10  18  32  54  88 121 161 198 242 305 388
#     4  10  20  34  52  92 129 155 196 256 315 378
#     4  10  22  37  61  95 129 162 211 266 328 402
#     4  10  21  36  63  95 131 166 209 264 332 409
#     4  11  22  39  63  94 131 174 220 267 335 408
#     4  10  25  45  68  99 128 170 232 289 331 384
#     4  10  22  43  69  96 132 173 218 275 341 398
#     4  11  24  43  66  90 127 180 222 273 334 403
#
# _framework density 24.069873000000001
#
# number of rings (size 3 to 8) (size 9 to 14) (size 15 to 20)
#    0.000    1.714    3.571    0.000    5.000    0.000 
#    2.571    0.714    3.143    0.000    0.000    0.000 
#    0.000    0.000    0.000    0.000    0.000    0.000 
#
# Total GULP energy -156184.546562 kJ/mol
# GULP energy per Si atom -5578.019520 kJ/mol
# Density = 2.401509 g / cm^3
# Si number density = 24.069873 Si / 1000 Ang^3
#
#
#
# Elastic Constant Matrix: (Units=GPa)
#
#
# Indices 1 2 3 4 5 6 
#
# 1 167.9746 22.4906 35.8651 0.0000 0.0000 0.0000
# 2 22.4906 100.5258 25.4367 0.0000 0.0000 0.0000
# 3 35.8651 25.4367 47.0749 0.0000 0.0000 0.0000
# 4 0.0000 0.0000 0.0000 23.8249 0.0000 0.0000
# 5 0.0000 0.0000 0.0000 0.0000 15.4649 0.0000
# 6 0.0000 0.0000 0.0000 0.0000 0.0000 39.5249
#
#
#
# Elastic Compliance Matrix: (Units=1/GPa)
#
#
# Indices 1 2 3 4 5 6 
#
# 1 0.007115 -0.000255 -0.005283 0.000000 0.000000 0.000000
# 2 -0.000255 0.011532 -0.006037 0.000000 0.000000 0.000000
# 3 -0.005283 -0.006037 0.028530 0.000000 0.000000 0.000000
# 4 0.000000 0.000000 0.000000 0.041973 0.000000 0.000000
# 5 0.000000 0.000000 0.000000 0.000000 0.064663 0.000000
# 6 0.000000 0.000000 0.000000 0.000000 0.000000 0.025301
#
#
# Mechanical properties :
#
#
# Convention : Reuss Voigt Hill
#
# Bulk Modulus (GPa) = 41.61991 53.68446 47.65219
# Shear Modulus (GPa) = 23.77850 31.21511 27.49680
#
# Velocity S-wave (km/s) = 3.14649 3.60509 3.38357
# Velocity P-wave (km/s) = 5.52534 6.29928 5.92496
#
# Compressibility (1/GPa) = 0.02402696
#
# Stress axis : x y z
#
# Youngs Moduli (GPa) = 140.53841 86.71242 35.05080
#
# Poissons Ratio (x) = 0.02212 0.18518
# Poissons Ratio (y) = 0.03585 0.21161
# Poissons Ratio (z) = 0.74250 0.52349
#
# Static dielectric constant tensor:
#      x y z
#    x 2.032130 0.000000 0.000000 
#    y 0.000000 2.020060 0.000000 
#    z 0.000000 0.000000 1.924390 
# 
# From -- ./inp_files/22553.got.cif
#   From: 2010.05.17/outbox.cif.g08.bks.cpg/sg46_12_cif.got.tgz:22553.got - 2010.06.03 19:58:25.
