data_PCOD9378645
_publ_section_title
;
Structure prediction by ZEFSAII (Michael W. Deem and Ramdas Pophale) SiO2 
 PCOD9378645
Probable space group: I M A 2
;
_chemical_formula_sum "Si O2"
_cell_formula_units_Z 64
_cell_length_a 7.690140
_cell_length_b 17.117009
_cell_length_c 22.510700
_cell_angle_alpha 90.000000
_cell_angle_beta 90.000000
_cell_angle_gamma 90.000000
_cell_volume 2963.132865
_symmetry_space_group_name_H-M "I M A 2"
_symmetry_group_IT_number 46
_symmetry_cell_setting 'orthorhombic'
loop_
_space_group_symop_operation_xyz
x,y,z
-x,-y,z
1/2-x,y,z
1/2+x,-y,z
1/2+x,1/2+y,1/2+z
1/2-x,1/2-y,1/2+z
-x,1/2+y,1/2+z
x,1/2-y,1/2+z
loop_
_atom_site_type_symbol
_atom_site_label
_atom_site_fract_x
_atom_site_fract_y
_atom_site_fract_z
Si Si1 0.043467 0.416118 0.329510
Si Si2 0.461090 0.276701 0.415136
Si Si3 0.457274 0.583325 0.010010
Si Si4 0.451446 0.247943 0.047856
Si Si5 0.549554 0.238392 0.176602
Si Si6 0.540083 0.085929 0.247296
Si Si7 0.443962 0.911083 0.694762
Si Si8 0.549874 0.107917 0.378827
O O1 0.250000 0.410203 0.317420
O O2 0.993223 0.350040 0.375476
O O3 0.000000 0.500000 0.355904
O O4 0.948452 0.411164 0.266483
O O5 0.250000 0.267404 0.415534
O O6 0.517575 0.281010 0.483772
O O7 0.542080 0.201044 0.384681
O O8 0.500000 0.500000 0.037498
O O9 0.250000 0.594334 0.007395
O O10 0.533180 0.657938 0.042920
O O11 0.529348 0.582418 0.942057
O O12 0.250000 0.226272 0.053334
O O13 0.544864 0.219395 0.106783
O O14 0.750000 0.246802 0.196907
O O15 0.476393 0.164172 0.213184
O O16 0.468608 0.326241 0.181270
O O17 0.750000 0.092175 0.249484
O O18 0.471249 0.086191 0.315402
O O19 0.500000 0.000000 0.221236
O O20 0.250000 0.904911 0.669391
O O21 0.500000 0.000000 0.678657
O O22 0.750000 0.080671 0.378615
#
# Coordination Sequence:
#
# PCOD9378645 Si02
#       8
#     8   8   8   8   8   8   8   8
#     4  10  19  32  51  77 107 134 166 209 259 315
#     4   9  19  34  52  76 104 134 170 214 260 310
#     4  10  19  32  52  79 110 140 171 208 256 314
#     4  10  21  37  55  74 100 136 179 222 263 310
#     4  10  22  39  56  76 107 145 183 225 270 316
#     4  10  21  37  56  80 109 141 180 224 270 319
#     4  10  20  35  56  82 112 142 174 214 262 319
#     4   9  18  32  53  80 108 138 169 206 258 319
#
# _framework density 21.598763000000002
#
# number of rings (size 3 to 8) (size 9 to 14) (size 15 to 20)
#    0.000    2.250    0.000    3.375    0.000    5.500 
#    0.000    1.875    0.000    3.000    0.000    0.000 
#    0.000    0.000    0.000    0.000    0.000    0.000 
#
# Total GULP energy -178499.357595 kJ/mol
# GULP energy per Si atom -5578.104925 kJ/mol
# Density = 2.154960 g / cm^3
# Si number density = 21.598763 Si / 1000 Ang^3
#
#
#
# Elastic Constant Matrix: (Units=GPa)
#
#
# Indices 1 2 3 4 5 6 
#
# 1 43.6537 2.8629 -0.8039 0.0000 0.0000 0.0000
# 2 2.8629 128.7978 57.7424 0.0000 0.0000 0.0000
# 3 -0.8039 57.7424 96.6345 0.0000 0.0000 0.0000
# 4 0.0000 0.0000 0.0000 -4.2074 0.0000 0.0000
# 5 0.0000 0.0000 0.0000 0.0000 17.3690 0.0000
# 6 0.0000 0.0000 0.0000 0.0000 0.0000 18.8745
#
#
#
# Elastic Compliance Matrix: (Units=1/GPa)
#
#
# Indices 1 2 3 4 5 6 
#
# 1 0.022973 -0.000815 0.000678 0.000000 0.000000 0.000000
# 2 -0.000815 0.010634 -0.006361 0.000000 0.000000 0.000000
# 3 0.000678 -0.006361 0.014155 0.000000 0.000000 0.000000
# 4 0.000000 0.000000 0.000000 -0.237679 0.000000 0.000000
# 5 0.000000 0.000000 0.000000 0.000000 0.057574 0.000000
# 6 0.000000 0.000000 0.000000 0.000000 0.000000 0.052981
#
#
# Mechanical properties :
#
#
# Convention : Reuss Voigt Hill
#
# Bulk Modulus (GPa) = 28.76297 43.18765 35.97531
# Shear Modulus (GPa) = -91.27846 20.35955 -35.45945
#
# Velocity S-wave (km/s) = -6.50790 3.07355 -4.05623
# Velocity P-wave (km/s) = 6.56692 5.71266 2.29019
#
# Compressibility (1/GPa) = 0.03476692
#
# Stress axis : x y z
#
# Youngs Moduli (GPa) = 43.52846 94.03876 70.64766
#
# Poissons Ratio (x) = 0.07660 -0.04789
# Poissons Ratio (y) = 0.03546 0.44938
# Poissons Ratio (z) = -0.02950 0.59817
#
# Static dielectric constant tensor:
#      x y z
#    x 1.753410 0.000000 0.000000 
#    y 0.000000 1.805530 0.000000 
#    z 0.000000 0.000000 1.782490 
# 
# From -- ./inp_files/21349.got.cif
#   From: 2010.05.17/outbox.cif.g08.bks.cpg/sg46_11_cif.got.tgz:21349.got - 2010.06.03 19:58:25.
