data_PCOD9378131
_publ_section_title
;
Structure prediction by ZEFSAII (Michael W. Deem and Ramdas Pophale) SiO2 
 PCOD9378131
Probable space group: I M A 2
;
_chemical_formula_sum "Si O2"
_cell_formula_units_Z 40
_cell_length_a 16.798829
_cell_length_b 16.266128
_cell_length_c 5.310006
_cell_angle_alpha 90.000000
_cell_angle_beta 90.000000
_cell_angle_gamma 90.000000
_cell_volume 1450.969243
_symmetry_space_group_name_H-M "I M A 2"
_symmetry_group_IT_number 46
_symmetry_cell_setting 'orthorhombic'
loop_
_space_group_symop_operation_xyz
x,y,z
-x,-y,z
1/2-x,y,z
1/2+x,-y,z
1/2+x,1/2+y,1/2+z
1/2-x,1/2-y,1/2+z
-x,1/2+y,1/2+z
x,1/2-y,1/2+z
loop_
_atom_site_type_symbol
_atom_site_label
_atom_site_fract_x
_atom_site_fract_y
_atom_site_fract_z
Si Si1 0.920446 0.449197 0.607300
Si Si2 0.750000 0.052958 0.998954
Si Si3 0.582240 0.157312 0.609120
Si Si4 0.656374 0.858269 0.004669
Si Si5 0.750000 0.159967 0.498377
Si Si6 0.408276 0.175720 0.507153
O O1 0.834096 0.491154 0.551342
O O2 0.919644 0.379143 0.389623
O O3 0.000000 0.500000 0.564911
O O4 0.918245 0.413213 0.890598
O O5 0.750000 0.123499 0.216771
O O6 0.750000 0.087762 0.714457
O O7 0.665796 0.202850 0.555912
O O8 0.498869 0.201510 0.561367
O O9 0.750000 0.869229 0.036519
O O10 0.602239 0.873090 0.249220
O O11 0.643356 0.757657 0.980376
O O12 0.621925 0.881723 0.732043
#
# Coordination Sequence:
#
# PCOD9378131 Si02
#       6
#     8   4   8   8   4   8
#     4  10  19  33  53  71  99 131 167 200 260 303
#     4   8  16  30  50  66  89 124 166 196 229 296
#     4  10  19  32  52  77  96 126 167 213 244 290
#     4  10  19  33  53  71  98 144 172 197 241 307
#     4   8  16  30  48  72  89 122 160 202 229 286
#     4  10  18  30  51  75  98 123 174 208 240 283
#
# _framework density 27.567777
#
# number of rings (size 3 to 8) (size 9 to 14) (size 15 to 20)
#    0.000    2.400    0.000    4.800    0.000    0.000 
#    0.000    0.000   17.600    4.800    0.000    0.000 
#    0.000    0.000    0.000    0.000    0.000    0.000 
#
# Total GULP energy -111968.752856 kJ/mol
# GULP energy per Si atom -5598.437643 kJ/mol
# Density = 2.750503 g / cm^3
# Si number density = 27.567777 Si / 1000 Ang^3
#
#
#
# Elastic Constant Matrix: (Units=GPa)
#
#
# Indices 1 2 3 4 5 6 
#
# 1 216.4830 47.4477 0.6118 0.0000 0.0000 0.0000
# 2 47.4477 35.5108 19.4177 0.0000 0.0000 0.0000
# 3 0.6118 19.4177 184.6092 0.0000 0.0000 0.0000
# 4 0.0000 0.0000 0.0000 47.1384 0.0000 0.0000
# 5 0.0000 0.0000 0.0000 0.0000 39.0282 0.0000
# 6 0.0000 0.0000 0.0000 0.0000 0.0000 127.4376
#
#
#
# Elastic Compliance Matrix: (Units=1/GPa)
#
#
# Indices 1 2 3 4 5 6 
#
# 1 0.006694 -0.009477 0.000975 0.000000 0.000000 0.000000
# 2 -0.009477 0.043295 -0.004523 0.000000 0.000000 0.000000
# 3 0.000975 -0.004523 0.005889 0.000000 0.000000 0.000000
# 4 0.000000 0.000000 0.000000 0.021214 0.000000 0.000000
# 5 0.000000 0.000000 0.000000 0.000000 0.025622 0.000000
# 6 0.000000 0.000000 0.000000 0.000000 0.000000 0.007847
#
#
# Mechanical properties :
#
#
# Convention : Reuss Voigt Hill
#
# Bulk Modulus (GPa) = 33.52395 63.50638 48.51517
# Shear Modulus (GPa) = 34.11711 67.32923 50.72317
#
# Velocity S-wave (km/s) = 3.52173 4.94734 4.29411
# Velocity P-wave (km/s) = 5.35945 7.46468 6.49789
#
# Compressibility (1/GPa) = 0.02982942
#
# Stress axis : x y z
#
# Youngs Moduli (GPa) = 149.39732 23.09710 169.79909
#
# Poissons Ratio (x) = 0.21888 -0.16548
# Poissons Ratio (y) = 1.41577 0.76792
# Poissons Ratio (z) = -0.14560 0.10446
#
# Static dielectric constant tensor:
#      x y z
#    x 2.110190 0.000000 0.000000 
#    y 0.000000 2.404960 0.000000 
#    z 0.000000 0.000000 2.227650 
# 
# From -- ./inp_files/1226.got.cif
#   From: 2010.05.17/outbox.cif.g08.bks.cpg/sg46_1_cif.got.tgz:1226.got - 2010.06.03 19:58:25.
