data_PCOD9378107
_publ_section_title
;
Structure prediction by ZEFSAII (Michael W. Deem and Ramdas Pophale) SiO2 
 PCOD9378107
Probable space group: I M A 2
;
_chemical_formula_sum "Si O2"
_cell_formula_units_Z 56
_cell_length_a 7.761480
_cell_length_b 19.571078
_cell_length_c 19.024263
_cell_angle_alpha 90.000000
_cell_angle_beta 90.000000
_cell_angle_gamma 90.000000
_cell_volume 2889.795642
_symmetry_space_group_name_H-M "I M A 2"
_symmetry_group_IT_number 46
_symmetry_cell_setting 'orthorhombic'
loop_
_space_group_symop_operation_xyz
x,y,z
-x,-y,z
1/2-x,y,z
1/2+x,-y,z
1/2+x,1/2+y,1/2+z
1/2-x,1/2-y,1/2+z
-x,1/2+y,1/2+z
x,1/2-y,1/2+z
loop_
_atom_site_type_symbol
_atom_site_label
_atom_site_fract_x
_atom_site_fract_y
_atom_site_fract_z
Si Si1 0.538298 0.798508 0.333710
Si Si2 0.042088 0.078852 0.049271
Si Si3 0.543174 0.795267 0.953997
Si Si4 0.955295 0.926610 0.584757
Si Si5 0.948221 0.221267 0.591321
Si Si6 0.543923 0.573030 0.924893
Si Si7 0.444587 0.341940 0.682058
O O1 0.750000 0.795043 0.330843
O O2 0.482134 0.731182 0.377569
O O3 0.484350 0.863004 0.380686
O O4 0.476048 0.817323 0.255610
O O5 0.250000 0.085369 0.051447
O O6 0.977485 0.103629 0.126613
O O7 0.980554 0.134032 0.990390
O O8 0.000000 0.000000 0.035152
O O9 0.750000 0.800488 0.949833
O O10 0.500952 0.735721 0.010635
O O11 0.750000 0.920557 0.583278
O O12 0.025596 0.927688 0.504481
O O13 0.026621 0.856399 0.614955
O O14 0.000000 0.000000 0.617215
O O15 0.750000 0.240890 0.599341
O O16 0.060147 0.273183 0.636152
O O17 0.500000 0.500000 0.891848
O O18 0.750000 0.578231 0.929752
O O19 0.250000 0.366205 0.698235
#
# Coordination Sequence:
#
# PCOD9378107 Si02
#       7
#     8   8   8   8   8   8   8
#     4   9  16  31  53  73  95 129 172 209 249 301
#     4   9  18  31  50  74 101 130 166 206 252 303
#     4   9  17  33  54  74  95 128 170 215 257 302
#     4  10  18  30  48  71  99 128 162 202 244 291
#     4  11  20  31  48  72 100 130 166 208 253 300
#     4   9  17  28  44  68  98 129 158 193 233 284
#     4   9  19  34  52  72  96 132 172 208 253 310
#
# _framework density 19.378533000000001
#
# number of rings (size 3 to 8) (size 9 to 14) (size 15 to 20)
#    0.000    2.571    1.429    2.571    0.000    3.429 
#    0.000    1.429    0.000    0.857    0.000    2.000 
#    0.000    0.000    0.000    0.000    0.000    0.000 
#
# Total GULP energy -155893.740897 kJ/mol
# GULP energy per Si atom -5567.633603 kJ/mol
# Density = 1.933443 g / cm^3
# Si number density = 19.378533 Si / 1000 Ang^3
#
#
#
# Elastic Constant Matrix: (Units=GPa)
#
#
# Indices 1 2 3 4 5 6 
#
# 1 36.1480 -2.1750 3.9172 0.0000 0.0000 0.0000
# 2 -2.1750 126.1479 26.6064 0.0000 0.0000 0.0000
# 3 3.9172 26.6064 58.2084 0.0000 0.0000 0.0000
# 4 0.0000 0.0000 0.0000 13.9273 0.0000 0.0000
# 5 0.0000 0.0000 0.0000 0.0000 0.4026 0.0000
# 6 0.0000 0.0000 0.0000 0.0000 0.0000 23.4912
#
#
#
# Elastic Compliance Matrix: (Units=1/GPa)
#
#
# Indices 1 2 3 4 5 6 
#
# 1 0.027975 0.000973 -0.002327 0.000000 0.000000 0.000000
# 2 0.000973 0.008807 -0.004091 0.000000 0.000000 0.000000
# 3 -0.002327 -0.004091 0.019206 0.000000 0.000000 0.000000
# 4 0.000000 0.000000 0.000000 0.071801 0.000000 0.000000
# 5 0.000000 0.000000 0.000000 0.000000 2.483931 0.000000
# 6 0.000000 0.000000 0.000000 0.000000 0.000000 0.042569
#
#
# Mechanical properties :
#
#
# Convention : Reuss Voigt Hill
#
# Bulk Modulus (GPa) = 22.17422 30.80017 26.48719
# Shear Modulus (GPa) = 1.86552 20.37459 11.12006
#
# Velocity S-wave (km/s) = 0.98222 3.24605 2.39808
# Velocity P-wave (km/s) = 3.57126 5.47518 4.62231
#
# Compressibility (1/GPa) = 0.04509742
#
# Stress axis : x y z
#
# Youngs Moduli (GPa) = 35.74645 113.54822 52.06647
#
# Poissons Ratio (x) = -0.11051 0.12118
# Poissons Ratio (y) = -0.03479 0.21300
# Poissons Ratio (z) = 0.08320 0.46452
#
# Static dielectric constant tensor:
#      x y z
#    x 1.729720 0.000000 0.000000 
#    y 0.000000 1.695760 0.000000 
#    z 0.000000 0.000000 1.705400 
# 
# From -- ./inp_files/21211.got.cif
#   From: 2010.05.17/outbox.cif.g08.bks.cpg/sg46_11_cif.got.tgz:21211.got - 2010.06.03 19:58:25.
