data_PCOD9378998
_publ_section_title
;
Structure prediction by ZEFSAII (Michael W. Deem and Ramdas Pophale) SiO2 
 PCOD9378998
Probable space group: I M A 2
;
_chemical_formula_sum "Si O2"
_cell_formula_units_Z 48
_cell_length_a 15.255191
_cell_length_b 5.122612
_cell_length_c 28.827178
_cell_angle_alpha 90.000000
_cell_angle_beta 90.000000
_cell_angle_gamma 90.000000
_cell_volume 2252.740889
_symmetry_space_group_name_H-M "I M A 2"
_symmetry_group_IT_number 46
_symmetry_cell_setting 'orthorhombic'
loop_
_space_group_symop_operation_xyz
x,y,z
-x,-y,z
1/2-x,y,z
1/2+x,-y,z
1/2+x,1/2+y,1/2+z
1/2-x,1/2-y,1/2+z
-x,1/2+y,1/2+z
x,1/2-y,1/2+z
loop_
_atom_site_type_symbol
_atom_site_label
_atom_site_fract_x
_atom_site_fract_y
_atom_site_fract_z
Si Si1 0.642332 0.346278 0.729480
Si Si2 0.098234 0.387129 0.578389
Si Si3 0.354711 0.153294 0.781919
Si Si4 0.349846 0.879766 0.632079
Si Si5 0.062431 0.251496 0.878847
Si Si6 0.063289 0.249581 0.480531
O O1 0.750000 0.356717 0.727623
O O2 0.611718 0.630190 0.745561
O O3 0.612806 0.239098 0.679747
O O4 0.614431 0.134078 0.767751
O O5 0.151189 0.634866 0.597050
O O6 0.120946 0.292783 0.526323
O O7 0.000000 0.500000 0.577498
O O8 0.103962 0.133756 0.611103
O O9 0.250000 0.148792 0.777411
O O10 0.377338 0.231366 0.834038
O O11 0.250000 0.966504 0.641516
O O12 0.106844 0.271265 0.929790
O O13 0.000000 0.500000 0.874710
O O14 0.000000 0.000000 0.878300
O O15 0.000000 0.500000 0.477692
O O16 0.000000 0.000000 0.487775
#
# Coordination Sequence:
#
# PCOD9378998 Si02
#       6
#     8   8   8   8   8   8
#     4   9  19  35  55  75 105 147 181 207 262 335
#     4  11  21  37  59  83 111 145 186 230 273 326
#     4  10  19  35  56  78 104 140 180 219 261 317
#     4  11  22  38  58  82 111 148 188 228 272 326
#     4  10  20  35  56  80 106 138 177 220 267 319
#     4   9  18  34  56  78 105 144 179 210 266 339
#
# _framework density 21.307376000000001
#
# number of rings (size 3 to 8) (size 9 to 14) (size 15 to 20)
#    0.000    2.000    0.000    5.000    0.000    2.667 
#    0.000   10.000    0.000    2.000    0.000    0.000 
#    0.000    0.000    0.000    0.000    0.000    0.000 
#
# Total GULP energy -133994.632519 kJ/mol
# GULP energy per Si atom -5583.109688 kJ/mol
# Density = 2.125888 g / cm^3
# Si number density = 21.307376 Si / 1000 Ang^3
#
#
#
# Elastic Constant Matrix: (Units=GPa)
#
#
# Indices 1 2 3 4 5 6 
#
# 1 16.9001 3.8881 4.5516 0.0000 0.0000 0.0000
# 2 3.8881 129.8232 8.1998 0.0000 0.0000 0.0000
# 3 4.5516 8.1998 100.2463 0.0000 0.0000 0.0000
# 4 0.0000 0.0000 0.0000 35.9211 0.0000 0.0000
# 5 0.0000 0.0000 0.0000 0.0000 27.9233 0.0000
# 6 0.0000 0.0000 0.0000 0.0000 0.0000 17.2392
#
#
#
# Elastic Compliance Matrix: (Units=1/GPa)
#
#
# Indices 1 2 3 4 5 6 
#
# 1 0.060249 -0.001640 -0.002601 0.000000 0.000000 0.000000
# 2 -0.001640 0.007787 -0.000563 0.000000 0.000000 0.000000
# 3 -0.002601 -0.000563 0.010140 0.000000 0.000000 0.000000
# 4 0.000000 0.000000 0.000000 0.027839 0.000000 0.000000
# 5 0.000000 0.000000 0.000000 0.000000 0.035812 0.000000
# 6 0.000000 0.000000 0.000000 0.000000 0.000000 0.058007
#
#
# Mechanical properties :
#
#
# Convention : Reuss Voigt Hill
#
# Bulk Modulus (GPa) = 14.58400 31.13871 22.86136
# Shear Modulus (GPa) = 21.52398 31.57206 26.54802
#
# Velocity S-wave (km/s) = 3.18176 3.85352 3.53364
# Velocity P-wave (km/s) = 4.51193 5.86901 5.23463
#
# Compressibility (1/GPa) = 0.06856829
#
# Stress axis : x y z
#
# Youngs Moduli (GPa) = 16.59769 128.41199 98.62365
#
# Poissons Ratio (x) = 0.21061 0.25656
# Poissons Ratio (y) = 0.02722 0.05548
# Poissons Ratio (z) = 0.04318 0.07223
#
# Static dielectric constant tensor:
#      x y z
#    x 1.909700 0.000000 0.000000 
#    y 0.000000 1.741900 0.000000 
#    z 0.000000 0.000000 1.824910 
# 
# From -- ./inp_files/23743.got.cif
#   From: 2010.05.17/outbox.cif.g08.bks.cpg/sg46_12_cif.got.tgz:23743.got - 2010.06.03 19:58:25.
