data_PCOD9378306
_publ_section_title
;
Structure prediction by ZEFSAII (Michael W. Deem and Ramdas Pophale) SiO2 
 PCOD9378306
Probable space group: I M A 2
;
_chemical_formula_sum "Si O2"
_cell_formula_units_Z 48
_cell_length_a 8.263009
_cell_length_b 21.065718
_cell_length_c 15.004723
_cell_angle_alpha 90.000000
_cell_angle_beta 90.000000
_cell_angle_gamma 90.000000
_cell_volume 2611.815376
_symmetry_space_group_name_H-M "I M A 2"
_symmetry_group_IT_number 46
_symmetry_cell_setting 'orthorhombic'
loop_
_space_group_symop_operation_xyz
x,y,z
-x,-y,z
1/2-x,y,z
1/2+x,-y,z
1/2+x,1/2+y,1/2+z
1/2-x,1/2-y,1/2+z
-x,1/2+y,1/2+z
x,1/2-y,1/2+z
loop_
_atom_site_type_symbol
_atom_site_label
_atom_site_fract_x
_atom_site_fract_y
_atom_site_fract_z
Si Si1 0.445336 0.811465 0.954900
Si Si2 0.947697 0.270338 0.261162
Si Si3 0.552204 0.311783 0.068231
Si Si4 0.445448 0.622718 0.758593
Si Si5 0.941473 0.570319 0.569691
Si Si6 0.054566 0.570426 0.949011
O O1 0.250000 0.809928 0.954388
O O2 0.501426 0.802244 0.853266
O O3 0.498825 0.750628 0.013114
O O4 0.497188 0.875935 0.002147
O O5 0.750000 0.270424 0.261531
O O6 0.000364 0.304459 0.170429
O O7 0.997418 0.196426 0.258699
O O8 0.750000 0.311857 0.067719
O O9 0.499041 0.375198 0.017519
O O10 0.250000 0.622740 0.759362
O O11 0.499735 0.588488 0.668889
O O12 0.501675 0.588878 0.849211
O O13 0.750000 0.571046 0.569655
O O14 0.000000 0.500000 0.546239
O O15 0.250000 0.572067 0.948048
O O16 0.000000 0.500000 0.972593
#
# Coordination Sequence:
#
# PCOD9378306 Si02
#       6
#     8   8   8   8   8   8
#     4  10  18  34  60  84 108 142 185 229 272 326
#     4   9  16  29  57  89 109 136 180 230 272 320
#     4   9  16  30  55  82 109 142 184 221 261 324
#     4  10  18  33  58  85 112 142 181 225 275 332
#     4  12  25  39  55  80 113 149 185 229 283 333
#     4  10  20  33  52  80 112 147 182 220 266 323
#
# _framework density 18.378022000000001
#
# number of rings (size 3 to 8) (size 9 to 14) (size 15 to 20)
#    0.000    2.000    3.333    2.000    0.000    2.000 
#    0.000    2.500    0.000    2.000    0.000    0.000 
#    0.000    0.000    0.000    0.000    0.000    0.000 
#
# Total GULP energy -133990.231908 kJ/mol
# GULP energy per Si atom -5582.926329 kJ/mol
# Density = 1.833619 g / cm^3
# Si number density = 18.378022 Si / 1000 Ang^3
#
#
#
# Elastic Constant Matrix: (Units=GPa)
#
#
# Indices 1 2 3 4 5 6 
#
# 1 12.2655 15.0436 17.9979 0.0000 0.0000 0.0000
# 2 15.0436 183.2657 104.3107 0.0000 0.0000 0.0000
# 3 17.9979 104.3107 171.2276 0.0000 0.0000 0.0000
# 4 0.0000 0.0000 0.0000 29.5989 0.0000 0.0000
# 5 0.0000 0.0000 0.0000 0.0000 8.9064 0.0000
# 6 0.0000 0.0000 0.0000 0.0000 0.0000 24.8389
#
#
#
# Elastic Compliance Matrix: (Units=1/GPa)
#
#
# Indices 1 2 3 4 5 6 
#
# 1 0.097706 -0.003329 -0.008242 0.000000 0.000000 0.000000
# 2 -0.003329 0.008466 -0.004808 0.000000 0.000000 0.000000
# 3 -0.008242 -0.004808 0.009635 0.000000 0.000000 0.000000
# 4 0.000000 0.000000 0.000000 0.033785 0.000000 0.000000
# 5 0.000000 0.000000 0.000000 0.000000 0.112279 0.000000
# 6 0.000000 0.000000 0.000000 0.000000 0.000000 0.040259
#
#
# Mechanical properties :
#
#
# Convention : Reuss Voigt Hill
#
# Bulk Modulus (GPa) = 12.04089 71.27370 41.65729
# Shear Modulus (GPa) = 13.79037 27.96263 20.87650
#
# Velocity S-wave (km/s) = 2.74227 3.90491 3.37404
# Velocity P-wave (km/s) = 4.07341 7.69398 6.15589
#
# Compressibility (1/GPa) = 0.08305035
#
# Stress axis : x y z
#
# Youngs Moduli (GPa) = 10.23475 118.11619 103.78535
#
# Poissons Ratio (x) = 0.39324 0.85539
# Poissons Ratio (y) = 0.03407 0.49896
# Poissons Ratio (z) = 0.08435 0.56786
#
# Static dielectric constant tensor:
#      x y z
#    x 1.643900 0.000000 0.000000 
#    y 0.000000 1.581500 0.000000 
#    z 0.000000 0.000000 1.634300 
# 
# From -- ./inp_files/13876.got.cif
#   From: 2010.05.17/outbox.cif.g08.bks.cpg/sg46_7_cif.got.tgz:13876.got - 2010.06.03 19:58:25.
