data_PCOD9378893
_publ_section_title
;
Structure prediction by ZEFSAII (Michael W. Deem and Ramdas Pophale) SiO2 
 PCOD9378893
Probable space group: I M A 2
;
_chemical_formula_sum "Si O2"
_cell_formula_units_Z 64
_cell_length_a 8.698899
_cell_length_b 14.847522
_cell_length_c 28.762825
_cell_angle_alpha 90.000000
_cell_angle_beta 90.000000
_cell_angle_gamma 90.000000
_cell_volume 3714.922900
_symmetry_space_group_name_H-M "I M A 2"
_symmetry_group_IT_number 46
_symmetry_cell_setting 'orthorhombic'
loop_
_space_group_symop_operation_xyz
x,y,z
-x,-y,z
1/2-x,y,z
1/2+x,-y,z
1/2+x,1/2+y,1/2+z
1/2-x,1/2-y,1/2+z
-x,1/2+y,1/2+z
x,1/2-y,1/2+z
loop_
_atom_site_type_symbol
_atom_site_label
_atom_site_fract_x
_atom_site_fract_y
_atom_site_fract_z
Si Si1 0.569554 0.407023 0.311830
Si Si2 0.567548 0.216442 0.009810
Si Si3 0.929682 0.172546 0.907815
Si Si4 0.935660 0.593233 0.975815
Si Si5 0.933325 0.599738 0.592313
Si Si6 0.934836 0.208108 0.283466
Si Si7 0.935231 0.400203 0.692817
Si Si8 0.571991 0.647221 0.875603
O O1 0.500000 0.500000 0.294299
O O2 0.750000 0.408852 0.301816
O O3 0.552091 0.401482 0.368045
O O4 0.509528 0.311092 0.292071
O O5 0.750000 0.222688 0.018100
O O6 0.486232 0.168049 0.052522
O O7 0.545452 0.157853 0.962316
O O8 0.501629 0.316156 0.999217
O O9 0.750000 0.204676 0.903254
O O10 0.046071 0.250300 0.892533
O O11 0.750000 0.595428 0.977193
O O12 0.986663 0.596232 0.921359
O O13 0.000000 0.500000 0.996120
O O14 0.750000 0.594312 0.594647
O O15 0.000000 0.500000 0.582459
O O16 0.999749 0.627307 0.642616
O O17 0.750000 0.210883 0.284976
O O18 0.982004 0.166265 0.234406
O O19 0.987926 0.145120 0.326284
O O20 0.750000 0.403976 0.690676
O O21 0.000000 0.500000 0.702400
O O22 0.750000 0.625819 0.868753
#
# Coordination Sequence:
#
# PCOD9378893 Si02
#       8
#     8   8   8   8   8   8   8   8
#     4   9  17  30  46  69  99 133 168 201 238 284
#     4  10  19  34  55  77 102 136 173 213 259 306
#     4   8  16  30  46  65  95 131 166 201 243 290
#     4  10  20  33  49  74 106 142 179 215 253 300
#     4  11  22  37  56  79 105 131 163 207 257 314
#     4   9  19  34  51  70  99 135 168 204 253 308
#     4  10  20  36  56  77  99 126 161 205 257 311
#     4   9  17  28  45  69  97 128 168 210 245 285
#
# _framework density 17.227813999999999
#
# number of rings (size 3 to 8) (size 9 to 14) (size 15 to 20)
#    0.000    2.500    0.000    4.125    0.000    6.000 
#    0.000    3.750    0.000    0.750    0.000    3.500 
#    0.000    0.000    0.000    0.000    0.000    0.000 
#
# Total GULP energy -178224.589749 kJ/mol
# GULP energy per Si atom -5569.518430 kJ/mol
# Density = 1.718860 g / cm^3
# Si number density = 17.227814 Si / 1000 Ang^3
#
#
#
# Elastic Constant Matrix: (Units=GPa)
#
#
# Indices 1 2 3 4 5 6 
#
# 1 50.7712 34.6492 42.7230 0.0000 0.0000 0.0000
# 2 34.6492 85.6747 69.8687 0.0000 0.0000 0.0000
# 3 42.7230 69.8687 128.2500 0.0000 0.0000 0.0000
# 4 0.0000 0.0000 0.0000 20.8510 0.0000 0.0000
# 5 0.0000 0.0000 0.0000 0.0000 21.7567 0.0000
# 6 0.0000 0.0000 0.0000 0.0000 0.0000 23.8093
#
#
#
# Elastic Compliance Matrix: (Units=1/GPa)
#
#
# Indices 1 2 3 4 5 6 
#
# 1 0.029567 -0.007063 -0.006001 0.000000 0.000000 0.000000
# 2 -0.007063 0.022691 -0.010009 0.000000 0.000000 0.000000
# 3 -0.006001 -0.010009 0.015249 0.000000 0.000000 0.000000
# 4 0.000000 0.000000 0.000000 0.047959 0.000000 0.000000
# 5 0.000000 0.000000 0.000000 0.000000 0.045963 0.000000
# 6 0.000000 0.000000 0.000000 0.000000 0.000000 0.042000
#
#
# Mechanical properties :
#
#
# Convention : Reuss Voigt Hill
#
# Bulk Modulus (GPa) = 46.81697 62.13086 54.47391
# Shear Modulus (GPa) = 19.47828 21.11371 20.29600
#
# Velocity S-wave (km/s) = 3.36613 3.50460 3.43606
# Velocity P-wave (km/s) = 6.50707 7.24699 6.88697
#
# Compressibility (1/GPa) = 0.02135978
#
# Stress axis : x y z
#
# Youngs Moduli (GPa) = 33.82187 44.07044 65.57802
#
# Poissons Ratio (x) = 0.31129 0.39355
# Poissons Ratio (y) = 0.23890 0.65635
# Poissons Ratio (z) = 0.20297 0.44109
#
# Static dielectric constant tensor:
#      x y z
#    x 1.586760 0.000000 0.000000 
#    y 0.000000 1.590630 0.000000 
#    z 0.000000 0.000000 1.590690 
# 
# From -- ./inp_files/25313.got.cif
#   From: 2010.05.17/outbox.cif.g08.bks.cpg/sg46_13_cif.got.tgz:25313.got - 2010.06.03 19:58:25.
