data_PCOD9378603
_publ_section_title
;
Structure prediction by ZEFSAII (Michael W. Deem and Ramdas Pophale) SiO2 
 PCOD9378603
Probable space group: I M A 2
;
_chemical_formula_sum "Si O2"
_cell_formula_units_Z 64
_cell_length_a 8.614774
_cell_length_b 14.818204
_cell_length_c 28.801074
_cell_angle_alpha 90.000000
_cell_angle_beta 90.000000
_cell_angle_gamma 90.000000
_cell_volume 3676.614884
_symmetry_space_group_name_H-M "I M A 2"
_symmetry_group_IT_number 46
_symmetry_cell_setting 'orthorhombic'
loop_
_space_group_symop_operation_xyz
x,y,z
-x,-y,z
1/2-x,y,z
1/2+x,-y,z
1/2+x,1/2+y,1/2+z
1/2-x,1/2-y,1/2+z
-x,1/2+y,1/2+z
x,1/2-y,1/2+z
loop_
_atom_site_type_symbol
_atom_site_label
_atom_site_fract_x
_atom_site_fract_y
_atom_site_fract_z
Si Si1 0.438835 0.284417 0.024160
Si Si2 0.925366 0.855580 0.429880
Si Si3 0.563231 0.600468 0.217617
Si Si4 0.933405 0.094380 0.990780
Si Si5 0.074238 0.352061 0.395400
Si Si6 0.563110 0.599637 0.111321
Si Si7 0.064967 0.785525 0.801694
Si Si8 0.562237 0.906696 0.331686
O O1 0.250000 0.282856 0.021385
O O2 0.486903 0.328468 0.072657
O O3 0.496000 0.347200 0.981034
O O4 0.496731 0.183072 0.015377
O O5 0.750000 0.891973 0.434991
O O6 0.915037 0.751675 0.412913
O O7 0.999708 0.902096 0.385225
O O8 0.500000 0.500000 0.227241
O O9 0.750000 0.600593 0.221096
O O10 0.518363 0.622499 0.164288
O O11 0.492834 0.669160 0.254490
O O12 0.750000 0.095856 0.995219
O O13 0.979943 0.100896 0.936333
O O14 0.000000 0.000000 0.009099
O O15 0.250000 0.387957 0.392511
O O16 0.996819 0.345343 0.345116
O O17 0.500000 0.500000 0.100608
O O18 0.750000 0.595713 0.109975
O O19 0.250000 0.781506 0.803683
O O20 0.996456 0.684718 0.807692
O O21 0.750000 0.905151 0.332557
O O22 0.500000 0.000000 0.310880
#
# Coordination Sequence:
#
# PCOD9378603 Si02
#       8
#     8   8   8   8   8   8   8   8
#     4   9  17  33  53  75 103 138 174 212 255 301
#     4   7  13  26  45  66  94 129 164 199 240 283
#     4  10  20  36  55  78 104 133 168 212 263 316
#     4  11  21  33  50  75 105 141 178 214 253 302
#     4   9  17  32  50  70  98 132 167 209 252 296
#     4   9  19  34  55  79 105 134 168 210 260 312
#     4  11  21  34  53  78 104 136 175 216 261 314
#     4  10  19  32  49  73 105 143 179 214 252 298
#
# _framework density 17.407315000000001
#
# number of rings (size 3 to 8) (size 9 to 14) (size 15 to 20)
#    0.000    2.500    0.000    4.875    0.000    2.000 
#    0.000    3.125    0.000    0.750    0.000    3.500 
#    0.000    0.000    0.000    0.000    0.000    0.000 
#
# Total GULP energy -178351.414669 kJ/mol
# GULP energy per Si atom -5573.481708 kJ/mol
# Density = 1.736770 g / cm^3
# Si number density = 17.407315 Si / 1000 Ang^3
#
#
#
# Elastic Constant Matrix: (Units=GPa)
#
#
# Indices 1 2 3 4 5 6 
#
# 1 70.6519 27.6147 37.8467 0.0000 0.0000 0.0000
# 2 27.6147 100.0752 76.1933 0.0000 0.0000 0.0000
# 3 37.8467 76.1933 121.6558 0.0000 0.0000 0.0000
# 4 0.0000 0.0000 0.0000 23.3964 0.0000 0.0000
# 5 0.0000 0.0000 0.0000 0.0000 18.1115 0.0000
# 6 0.0000 0.0000 0.0000 0.0000 0.0000 24.3398
#
#
#
# Elastic Compliance Matrix: (Units=1/GPa)
#
#
# Indices 1 2 3 4 5 6 
#
# 1 0.017069 -0.001275 -0.004511 0.000000 0.000000 0.000000
# 2 -0.001275 0.019196 -0.011626 0.000000 0.000000 0.000000
# 3 -0.004511 -0.011626 0.016905 0.000000 0.000000 0.000000
# 4 0.000000 0.000000 0.000000 0.042742 0.000000 0.000000
# 5 0.000000 0.000000 0.000000 0.000000 0.055214 0.000000
# 6 0.000000 0.000000 0.000000 0.000000 0.000000 0.041085
#
#
# Mechanical properties :
#
#
# Convention : Reuss Voigt Hill
#
# Bulk Modulus (GPa) = 54.51144 63.96579 59.23861
# Shear Modulus (GPa) = 21.44557 23.21809 22.33183
#
# Velocity S-wave (km/s) = 3.51377 3.65610 3.58564
# Velocity P-wave (km/s) = 6.91703 7.39250 7.15872
#
# Compressibility (1/GPa) = 0.01834477
#
# Stress axis : x y z
#
# Youngs Moduli (GPa) = 58.58571 52.09536 59.15582
#
# Poissons Ratio (x) = 0.06643 0.26688
# Poissons Ratio (y) = 0.07471 0.68772
# Poissons Ratio (z) = 0.26431 0.60564
#
# Static dielectric constant tensor:
#      x y z
#    x 1.597290 0.000000 0.000000 
#    y 0.000000 1.591710 0.000000 
#    z 0.000000 0.000000 1.603890 
# 
# From -- ./inp_files/25311.got.cif
#   From: 2010.05.17/outbox.cif.g08.bks.cpg/sg46_13_cif.got.tgz:25311.got - 2010.06.03 19:58:25.
