data_PCOD9378055
_publ_section_title
;
Structure prediction by ZEFSAII (Michael W. Deem and Ramdas Pophale) SiO2 
 PCOD9378055
Probable space group: I M A 2
;
_chemical_formula_sum "Si O2"
_cell_formula_units_Z 56
_cell_length_a 8.563938
_cell_length_b 18.907260
_cell_length_c 21.360405
_cell_angle_alpha 90.000000
_cell_angle_beta 90.000000
_cell_angle_gamma 90.000000
_cell_volume 3458.689645
_symmetry_space_group_name_H-M "I M A 2"
_symmetry_group_IT_number 46
_symmetry_cell_setting 'orthorhombic'
loop_
_space_group_symop_operation_xyz
x,y,z
-x,-y,z
1/2-x,y,z
1/2+x,-y,z
1/2+x,1/2+y,1/2+z
1/2-x,1/2-y,1/2+z
-x,1/2+y,1/2+z
x,1/2-y,1/2+z
loop_
_atom_site_type_symbol
_atom_site_label
_atom_site_fract_x
_atom_site_fract_y
_atom_site_fract_z
Si Si1 0.061888 0.078577 0.711530
Si Si2 0.938473 0.659901 0.338499
Si Si3 0.935325 0.213459 0.272132
Si Si4 0.563653 0.578922 0.718513
Si Si5 0.435306 0.284214 0.146573
Si Si6 0.565008 0.149761 0.091567
Si Si7 0.937442 0.579581 0.465864
O O1 0.250000 0.077278 0.711621
O O2 0.013345 0.110974 0.779113
O O3 0.013482 0.134855 0.657856
O O4 0.000000 0.000000 0.703124
O O5 0.750000 0.667463 0.335864
O O6 0.980936 0.622013 0.403005
O O7 0.015848 0.736666 0.329460
O O8 0.750000 0.217329 0.261488
O O9 0.989964 0.132532 0.269410
O O10 0.026972 0.248579 0.213704
O O11 0.500000 0.500000 0.725487
O O12 0.750000 0.580394 0.722542
O O13 0.512601 0.608714 0.650230
O O14 0.250000 0.282119 0.135390
O O15 0.519524 0.232457 0.098173
O O16 0.750000 0.141773 0.097254
O O17 0.505239 0.117097 0.027194
O O18 0.750000 0.578135 0.470163
O O19 0.000000 0.500000 0.462140
#
# Coordination Sequence:
#
# PCOD9378055 Si02
#       7
#     8   8   8   8   8   8   8
#     4   9  17  28  45  69  95 121 151 189 231 275
#     4   9  19  34  48  65  93 129 162 192 229 274
#     4  10  18  29  47  70  93 120 155 193 235 280
#     4  11  20  32  49  70  97 125 156 194 238 283
#     4   9  17  31  47  65  91 123 157 192 234 281
#     4  11  21  33  48  68  94 125 162 198 236 281
#     4  11  22  35  50  69  96 129 164 198 233 274
#
# _framework density 16.191103999999999
#
# number of rings (size 3 to 8) (size 9 to 14) (size 15 to 20)
#    0.000    2.000    0.000    8.143    0.000    4.000 
#    0.000    0.000    0.000    0.000    0.000    1.000 
#    0.000    4.571    0.000    0.000    0.000    0.000 
#
# Total GULP energy -156154.271668 kJ/mol
# GULP energy per Si atom -5576.938274 kJ/mol
# Density = 1.615425 g / cm^3
# Si number density = 16.191104 Si / 1000 Ang^3
#
#
#
# Elastic Constant Matrix: (Units=GPa)
#
#
# Indices 1 2 3 4 5 6 
#
# 1 44.9633 27.3225 23.4894 0.0000 0.0000 0.0000
# 2 27.3225 155.5827 59.5051 0.0000 0.0000 0.0000
# 3 23.4894 59.5051 69.4057 0.0000 0.0000 0.0000
# 4 0.0000 0.0000 0.0000 26.1400 0.0000 0.0000
# 5 0.0000 0.0000 0.0000 0.0000 10.5924 0.0000
# 6 0.0000 0.0000 0.0000 0.0000 0.0000 31.2758
#
#
#
# Elastic Compliance Matrix: (Units=1/GPa)
#
#
# Indices 1 2 3 4 5 6 
#
# 1 0.027382 -0.001881 -0.007654 0.000000 0.000000 0.000000
# 2 -0.001881 0.009693 -0.007673 0.000000 0.000000 0.000000
# 3 -0.007654 -0.007673 0.023577 0.000000 0.000000 0.000000
# 4 0.000000 0.000000 0.000000 0.038256 0.000000 0.000000
# 5 0.000000 0.000000 0.000000 0.000000 0.094408 0.000000
# 6 0.000000 0.000000 0.000000 0.000000 0.000000 0.031974
#
#
# Mechanical properties :
#
#
# Convention : Reuss Voigt Hill
#
# Bulk Modulus (GPa) = 38.11775 54.50950 46.31362
# Shear Modulus (GPa) = 18.62537 24.24396 21.43467
#
# Velocity S-wave (km/s) = 3.39535 3.87378 3.64243
# Velocity P-wave (km/s) = 6.24218 7.33128 6.80854
#
# Compressibility (1/GPa) = 0.02623450
#
# Stress axis : x y z
#
# Youngs Moduli (GPa) = 36.52010 103.17164 42.41381
#
# Poissons Ratio (x) = 0.19409 0.32465
# Poissons Ratio (y) = 0.06870 0.32545
# Poissons Ratio (z) = 0.27953 0.79167
#
# Static dielectric constant tensor:
#      x y z
#    x 1.549270 0.000000 0.000000 
#    y 0.000000 1.572850 0.000000 
#    z 0.000000 0.000000 1.530510 
# 
# From -- ./inp_files/21225.got.cif
#   From: 2010.05.17/outbox.cif.g08.bks.cpg/sg46_11_cif.got.tgz:21225.got - 2010.06.03 19:58:25.
