data_PCOD9378995
_publ_section_title
;
Structure prediction by ZEFSAII (Michael W. Deem and Ramdas Pophale) SiO2 
 PCOD9378995
Probable space group: I M A 2
;
_chemical_formula_sum "Si O2"
_cell_formula_units_Z 60
_cell_length_a 9.480559
_cell_length_b 19.193032
_cell_length_c 18.657193
_cell_angle_alpha 90.000000
_cell_angle_beta 90.000000
_cell_angle_gamma 90.000000
_cell_volume 3394.875381
_symmetry_space_group_name_H-M "I M A 2"
_symmetry_group_IT_number 46
_symmetry_cell_setting 'orthorhombic'
loop_
_space_group_symop_operation_xyz
x,y,z
-x,-y,z
1/2-x,y,z
1/2+x,-y,z
1/2+x,1/2+y,1/2+z
1/2-x,1/2-y,1/2+z
-x,1/2+y,1/2+z
x,1/2-y,1/2+z
loop_
_atom_site_type_symbol
_atom_site_label
_atom_site_fract_x
_atom_site_fract_y
_atom_site_fract_z
Si Si1 0.909813 0.122887 0.487600
Si Si2 0.582858 0.433070 0.626966
Si Si3 0.911391 0.824050 0.036675
Si Si4 0.000000 0.500000 0.887841
Si Si5 0.581935 0.268532 0.408737
Si Si6 0.914374 0.736701 0.266313
Si Si7 0.591041 0.825990 0.612931
Si Si8 0.593934 0.905250 0.259632
O O1 0.750000 0.134561 0.510865
O O2 0.945779 0.188846 0.435903
O O3 0.002715 0.125198 0.559645
O O4 0.920189 0.053091 0.440656
O O5 0.500000 0.500000 0.597726
O O6 0.750000 0.435574 0.618245
O O7 0.509927 0.368528 0.588282
O O8 0.536114 0.427480 0.709899
O O9 0.750000 0.850207 0.031502
O O10 0.903706 0.747285 0.070660
O O11 0.991788 0.816666 0.961828
O O12 0.082030 0.447122 0.834193
O O13 0.750000 0.280230 0.413165
O O14 0.520970 0.279614 0.329963
O O15 0.750000 0.718183 0.281874
O O16 0.955995 0.697467 0.192636
O O17 0.914168 0.821330 0.261938
O O18 0.750000 0.853562 0.619375
O O19 0.750000 0.921812 0.227776
#
# Coordination Sequence:
#
# PCOD9378995 Si02
#       8
#     8   8   8   4   8   8   8   8
#     4  10  22  36  51  79 113 149 191 231 277 337
#     4  12  24  36  53  78 111 148 186 225 272 334
#     4  10  19  36  56  77 107 145 185 231 280 333
#     4  12  22  36  56  80 118 160 194 230 278 350
#     4  10  20  34  52  81 112 141 182 231 286 336
#     4  10  19  35  55  80 108 141 185 231 279 336
#     4   9  19  35  56  78 105 145 192 236 282 333
#     4  11  22  35  52  77 112 153 190 226 273 329
#
# _framework density 17.673697000000001
#
# number of rings (size 3 to 8) (size 9 to 14) (size 15 to 20)
#    0.000    1.600    3.333    2.400    0.000    3.733 
#    0.000    0.000    0.000    0.000    1.733    0.000 
#    0.000    0.000    0.000    0.000    0.000    0.000 
#
# Total GULP energy -167152.153578 kJ/mol
# GULP energy per Si atom -5571.738453 kJ/mol
# Density = 1.763347 g / cm^3
# Si number density = 17.673697 Si / 1000 Ang^3
#
#
#
# Elastic Constant Matrix: (Units=GPa)
#
#
# Indices 1 2 3 4 5 6 
#
# 1 119.7016 22.8324 58.5408 0.0000 0.0000 0.0000
# 2 22.8324 36.3682 21.4761 0.0000 0.0000 0.0000
# 3 58.5408 21.4761 123.9533 0.0000 0.0000 0.0000
# 4 0.0000 0.0000 0.0000 30.7294 0.0000 0.0000
# 5 0.0000 0.0000 0.0000 0.0000 30.0329 0.0000
# 6 0.0000 0.0000 0.0000 0.0000 0.0000 13.2580
#
#
#
# Elastic Compliance Matrix: (Units=1/GPa)
#
#
# Indices 1 2 3 4 5 6 
#
# 1 0.011478 -0.004461 -0.004648 0.000000 0.000000 0.000000
# 2 -0.004461 0.032365 -0.003500 0.000000 0.000000 0.000000
# 3 -0.004648 -0.003500 0.010869 0.000000 0.000000 0.000000
# 4 0.000000 0.000000 0.000000 0.032542 0.000000 0.000000
# 5 0.000000 0.000000 0.000000 0.000000 0.033297 0.000000
# 6 0.000000 0.000000 0.000000 0.000000 0.000000 0.075426
#
#
# Mechanical properties :
#
#
# Convention : Reuss Voigt Hill
#
# Bulk Modulus (GPa) = 33.90712 53.96907 43.93809
# Shear Modulus (GPa) = 21.64242 26.61564 24.12903
#
# Velocity S-wave (km/s) = 3.50316 3.88486 3.69894
# Velocity P-wave (km/s) = 5.96570 7.12219 6.56944
#
# Compressibility (1/GPa) = 0.02949233
#
# Stress axis : x y z
#
# Youngs Moduli (GPa) = 87.12159 30.89798 92.00324
#
# Poissons Ratio (x) = 0.13785 0.42763
# Poissons Ratio (y) = 0.38869 0.32205
# Poissons Ratio (z) = 0.40494 0.10816
#
# Static dielectric constant tensor:
#      x y z
#    x 1.617040 0.000000 0.000000 
#    y 0.000000 1.633010 0.000000 
#    z 0.000000 0.000000 1.623250 
# 
# From -- ./inp_files/18352.got.cif
#   From: 2010.05.17/outbox.cif.g08.bks.cpg/sg46_10_cif.got.tgz:18352.got - 2010.06.03 19:58:25.
