data_PCOD9378120
_publ_section_title
;
Structure prediction by ZEFSAII (Michael W. Deem and Ramdas Pophale) SiO2 
 PCOD9378120
Probable space group: I M A 2
;
_chemical_formula_sum "Si O2"
_cell_formula_units_Z 48
_cell_length_a 33.982423
_cell_length_b 8.985984
_cell_length_c 8.128814
_cell_angle_alpha 90.000000
_cell_angle_beta 90.000000
_cell_angle_gamma 90.000000
_cell_volume 2482.259428
_symmetry_space_group_name_H-M "I M A 2"
_symmetry_group_IT_number 46
_symmetry_cell_setting 'orthorhombic'
loop_
_space_group_symop_operation_xyz
x,y,z
-x,-y,z
1/2-x,y,z
1/2+x,-y,z
1/2+x,1/2+y,1/2+z
1/2-x,1/2-y,1/2+z
-x,1/2+y,1/2+z
x,1/2-y,1/2+z
loop_
_atom_site_type_symbol
_atom_site_label
_atom_site_fract_x
_atom_site_fract_y
_atom_site_fract_z
Si Si1 0.169508 0.325002 0.278200
Si Si2 0.419897 0.827466 0.890192
Si Si3 0.880857 0.617522 0.977144
Si Si4 0.455183 0.959952 0.578029
Si Si5 0.630596 0.120156 0.191286
Si Si6 0.795309 0.963029 0.089687
O O1 0.133207 0.269833 0.393179
O O2 0.191494 0.180127 0.201221
O O3 0.197402 0.414482 0.400629
O O4 0.149638 0.408103 0.125745
O O5 0.448247 0.915696 0.768517
O O6 0.383907 0.772889 0.772929
O O7 0.441621 0.682668 0.967943
O O8 0.399705 0.909633 0.042691
O O9 0.874924 0.497766 0.835288
O O10 0.925119 0.594557 0.038098
O O11 0.500000 0.000000 0.545148
O O12 0.674797 0.097313 0.129543
O O13 0.750000 0.997270 0.120151
#
# Coordination Sequence:
#
# PCOD9378120 Si02
#       6
#     8   8   8   8   8   8
#     4   9  18  31  49  74 107 138 165 200 249 306
#     4   9  19  37  54  71  99 134 168 205 250 302
#     4   9  18  32  51  74 101 138 171 198 246 309
#     4  10  20  34  53  77 101 129 167 211 251 290
#     4   9  18  34  55  71  95 136 172 201 247 306
#     4  10  18  30  49  77 104 131 166 209 250 291
#
# _framework density 19.337221
#
# number of rings (size 3 to 8) (size 9 to 14) (size 15 to 20)
#    0.000    2.667    0.000    1.500    0.000    1.333 
#    0.000    9.167    0.000    0.000    0.000    0.000 
#    0.000    0.000    0.000    0.000    0.000    0.000 
#
# Total GULP energy -133750.306122 kJ/mol
# GULP energy per Si atom -5572.929422 kJ/mol
# Density = 1.929321 g / cm^3
# Si number density = 19.337221 Si / 1000 Ang^3
#
#
#
# Elastic Constant Matrix: (Units=GPa)
#
#
# Indices 1 2 3 4 5 6 
#
# 1 149.5001 24.9265 37.7464 0.0000 0.0000 0.0000
# 2 24.9265 25.3417 15.7586 0.0000 0.0000 0.0000
# 3 37.7464 15.7586 111.0665 0.0000 0.0000 0.0000
# 4 0.0000 0.0000 0.0000 26.6070 0.0000 0.0000
# 5 0.0000 0.0000 0.0000 0.0000 23.5609 0.0000
# 6 0.0000 0.0000 0.0000 0.0000 0.0000 27.8065
#
#
#
# Elastic Compliance Matrix: (Units=1/GPa)
#
#
# Indices 1 2 3 4 5 6 
#
# 1 0.008327 -0.007053 -0.001829 0.000000 0.000000 0.000000
# 2 -0.007053 0.049253 -0.004591 0.000000 0.000000 0.000000
# 3 -0.001829 -0.004591 0.010277 0.000000 0.000000 0.000000
# 4 0.000000 0.000000 0.000000 0.037584 0.000000 0.000000
# 5 0.000000 0.000000 0.000000 0.000000 0.042443 0.000000
# 6 0.000000 0.000000 0.000000 0.000000 0.000000 0.035963
#
#
# Mechanical properties :
#
#
# Convention : Reuss Voigt Hill
#
# Bulk Modulus (GPa) = 24.44402 49.19682 36.82042
# Shear Modulus (GPa) = 22.27869 29.42668 25.85268
#
# Velocity S-wave (km/s) = 3.39796 3.90521 3.66038
# Velocity P-wave (km/s) = 5.29747 6.76986 6.07841
#
# Compressibility (1/GPa) = 0.04090981
#
# Stress axis : x y z
#
# Youngs Moduli (GPa) = 120.09503 20.30333 97.30753
#
# Poissons Ratio (x) = 0.14320 0.17799
# Poissons Ratio (y) = 0.84701 0.44677
# Poissons Ratio (z) = 0.21968 0.09322
#
# Static dielectric constant tensor:
#      x y z
#    x 1.667740 0.000000 0.000000 
#    y 0.000000 1.735470 0.000000 
#    z 0.000000 0.000000 1.708320 
# 
# From -- ./inp_files/7837.got.cif
#   From: 2010.05.17/outbox.cif.g08.bks.cpg/sg46_4_cif.got.tgz:7837.got - 2010.06.03 19:58:25.
