data_PCOD9378328
_publ_section_title
;
Structure prediction by ZEFSAII (Michael W. Deem and Ramdas Pophale) SiO2 
 PCOD9378328
Probable space group: I M A 2
;
_chemical_formula_sum "Si O2"
_cell_formula_units_Z 48
_cell_length_a 13.683415
_cell_length_b 9.423454
_cell_length_c 13.171383
_cell_angle_alpha 90.000000
_cell_angle_beta 90.000000
_cell_angle_gamma 90.000000
_cell_volume 1698.384400
_symmetry_space_group_name_H-M "I M A 2"
_symmetry_group_IT_number 46
_symmetry_cell_setting 'orthorhombic'
loop_
_space_group_symop_operation_xyz
x,y,z
-x,-y,z
1/2-x,y,z
1/2+x,-y,z
1/2+x,1/2+y,1/2+z
1/2-x,1/2-y,1/2+z
-x,1/2+y,1/2+z
x,1/2-y,1/2+z
loop_
_atom_site_type_symbol
_atom_site_label
_atom_site_fract_x
_atom_site_fract_y
_atom_site_fract_z
Si Si1 0.854451 0.564104 0.634700
Si Si2 0.637356 0.891736 0.819768
Si Si3 0.576331 0.294210 0.348210
Si Si4 0.140394 0.012297 0.589213
Si Si5 0.054210 0.777692 0.115527
Si Si6 0.615717 0.995875 0.371800
O O1 0.750000 0.621912 0.601660
O O2 0.872576 0.406317 0.590117
O O3 0.852534 0.554955 0.759313
O O4 0.948015 0.654120 0.603254
O O5 0.750000 0.845041 0.836370
O O6 0.623928 0.052547 0.858976
O O7 0.621954 0.905613 0.695983
O O8 0.541791 0.811690 0.865606
O O9 0.577134 0.251116 0.231627
O O10 0.637972 0.163131 0.391103
O O11 0.250000 0.953233 0.606749
O O12 0.066241 0.880523 0.575419
O O13 0.143235 0.080814 0.476819
O O14 0.500000 0.000000 0.361110
#
# Coordination Sequence:
#
# PCOD9378328 Si02
#       6
#     8   8   8   8   8   8
#     4  10  18  34  57  82 113 151 201 236 280 347
#     4   9  19  35  58  83 108 147 198 236 275 336
#     4   9  18  35  54  81 112 150 189 230 285 335
#     4  10  21  35  58  87 116 150 187 238 292 344
#     4   9  18  34  53  83 111 152 192 235 288 333
#     4  11  21  36  55  85 122 151 186 237 296 344
#
# _framework density 28.262155
#
# number of rings (size 3 to 8) (size 9 to 14) (size 15 to 20)
#    0.000    2.333    3.333    1.000    4.667    5.333 
#    0.000    3.333    0.000    3.000    0.000    0.000 
#    0.000    0.000    0.000    0.000    0.000    0.000 
#
# Total GULP energy -134134.192810 kJ/mol
# GULP energy per Si atom -5588.924700 kJ/mol
# Density = 2.819783 g / cm^3
# Si number density = 28.262155 Si / 1000 Ang^3
#
#
#
# Elastic Constant Matrix: (Units=GPa)
#
#
# Indices 1 2 3 4 5 6 
#
# 1 178.0946 23.9001 11.4411 0.0000 0.0000 0.0000
# 2 23.9001 114.8408 21.7406 0.0000 0.0000 0.0000
# 3 11.4411 21.7406 163.2305 0.0000 0.0000 0.0000
# 4 0.0000 0.0000 0.0000 19.5029 0.0000 0.0000
# 5 0.0000 0.0000 0.0000 0.0000 -6.7550 0.0000
# 6 0.0000 0.0000 0.0000 0.0000 0.0000 12.8401
#
#
#
# Elastic Compliance Matrix: (Units=1/GPa)
#
#
# Indices 1 2 3 4 5 6 
#
# 1 0.005786 -0.001157 -0.000252 0.000000 0.000000 0.000000
# 2 -0.001157 0.009164 -0.001139 0.000000 0.000000 0.000000
# 3 -0.000252 -0.001139 0.006296 0.000000 0.000000 0.000000
# 4 0.000000 0.000000 0.000000 0.051274 0.000000 0.000000
# 5 0.000000 0.000000 0.000000 0.000000 -0.148039 0.000000
# 6 0.000000 0.000000 0.000000 0.000000 0.000000 0.077881
#
#
# Mechanical properties :
#
#
# Convention : Reuss Voigt Hill
#
# Bulk Modulus (GPa) = 61.91595 63.36995 62.64295
# Shear Modulus (GPa) = 389.35160 31.72321 210.53741
#
# Velocity S-wave (km/s) = 11.75004 3.35395 8.64038
# Velocity P-wave (km/s) = 14.35409 6.12124 11.03425
#
# Compressibility (1/GPa) = 0.01615093
#
# Stress axis : x y z
#
# Youngs Moduli (GPa) = 172.81999 109.12108 158.83845
#
# Poissons Ratio (x) = 0.12621 0.03995
# Poissons Ratio (y) = 0.19989 0.18100
# Poissons Ratio (z) = 0.04347 0.12434
#
# Static dielectric constant tensor:
#      x y z
#    x 2.270240 0.000000 0.000000 
#    y 0.000000 2.330170 0.000000 
#    z 0.000000 0.000000 2.229450 
# 
# From -- ./inp_files/15853.got.cif
#   From: 2010.05.17/outbox.cif.g08.bks.cpg/sg46_8_cif.got.tgz:15853.got - 2010.06.03 19:58:25.
