data_PCOD9378651
_publ_section_title
;
Structure prediction by ZEFSAII (Michael W. Deem and Ramdas Pophale) SiO2 
 PCOD9378651
Probable space group: I M A 2
;
_chemical_formula_sum "Si O2"
_cell_formula_units_Z 64
_cell_length_a 7.866297
_cell_length_b 20.903377
_cell_length_c 16.274003
_cell_angle_alpha 90.000000
_cell_angle_beta 90.000000
_cell_angle_gamma 90.000000
_cell_volume 2675.969657
_symmetry_space_group_name_H-M "I M A 2"
_symmetry_group_IT_number 46
_symmetry_cell_setting 'orthorhombic'
loop_
_space_group_symop_operation_xyz
x,y,z
-x,-y,z
1/2-x,y,z
1/2+x,-y,z
1/2+x,1/2+y,1/2+z
1/2-x,1/2-y,1/2+z
-x,1/2+y,1/2+z
x,1/2-y,1/2+z
loop_
_atom_site_type_symbol
_atom_site_label
_atom_site_fract_x
_atom_site_fract_y
_atom_site_fract_z
Si Si1 0.545063 0.425108 0.979180
Si Si2 0.549750 0.711286 0.366084
Si Si3 0.944720 0.311785 0.533806
Si Si4 0.047077 0.068817 0.818385
Si Si5 0.451106 0.623406 0.154723
Si Si6 0.955296 0.073769 0.123010
Si Si7 0.556551 0.740679 0.704147
Si Si8 0.454360 0.924494 0.303156
O O1 0.500000 0.500000 0.982263
O O2 0.750000 0.419513 0.978401
O O3 0.480679 0.399228 0.890890
O O4 0.486549 0.394671 0.064162
O O5 0.750000 0.710869 0.349044
O O6 0.527094 0.728280 0.461249
O O7 0.486158 0.637139 0.357066
O O8 0.478549 0.759572 0.296457
O O9 0.750000 0.316664 0.509032
O O10 0.022590 0.382054 0.549783
O O11 0.955491 0.283967 0.625377
O O12 0.250000 0.071454 0.816486
O O13 0.974878 0.070765 0.725362
O O14 0.000000 0.000000 0.856965
O O15 0.250000 0.639049 0.150215
O O16 0.554848 0.683305 0.187718
O O17 0.750000 0.079000 0.122552
O O18 0.015865 0.097890 0.213540
O O19 0.000000 0.000000 0.114258
O O20 0.750000 0.716755 0.700571
O O21 0.250000 0.918472 0.302526
O O22 0.500000 0.000000 0.303287
#
# Coordination Sequence:
#
# PCOD9378651 Si02
#       8
#     8   8   8   8   8   8   8   8
#     4   9  17  27  44  71 105 144 186 231 280 336
#     4   9  21  41  62  84 115 156 198 244 296 349
#     4  11  23  39  62  92 119 151 194 242 297 353
#     4  10  20  34  54  82 116 156 198 240 297 358
#     4  10  19  32  51  78 111 147 194 245 296 351
#     4   9  19  35  56  83 115 149 186 228 282 343
#     4  10  22  42  63  82 113 153 195 245 296 351
#     4   8  14  28  46  66 100 140 176 217 264 319
#
# _framework density 23.916564999999999
#
# number of rings (size 3 to 8) (size 9 to 14) (size 15 to 20)
#    0.000    2.500    0.000    2.625    0.000    6.500 
#    2.250    2.500    0.000    0.000    0.000    0.000 
#    0.000    0.000    0.000    0.000    0.000    0.000 
#
# Total GULP energy -178491.918877 kJ/mol
# GULP energy per Si atom -5577.872465 kJ/mol
# Density = 2.386213 g / cm^3
# Si number density = 23.916565 Si / 1000 Ang^3
#
#
#
# Elastic Constant Matrix: (Units=GPa)
#
#
# Indices 1 2 3 4 5 6 
#
# 1 59.1860 3.0259 7.5257 0.0000 0.0000 0.0000
# 2 3.0259 27.7751 9.8718 0.0000 0.0000 0.0000
# 3 7.5257 9.8718 147.1481 0.0000 0.0000 0.0000
# 4 0.0000 0.0000 0.0000 26.0128 0.0000 0.0000
# 5 0.0000 0.0000 0.0000 0.0000 16.7318 0.0000
# 6 0.0000 0.0000 0.0000 0.0000 0.0000 24.9342
#
#
#
# Elastic Compliance Matrix: (Units=1/GPa)
#
#
# Indices 1 2 3 4 5 6 
#
# 1 0.017075 -0.001588 -0.000767 0.000000 0.000000 0.000000
# 2 -0.001588 0.037031 -0.002403 0.000000 0.000000 0.000000
# 3 -0.000767 -0.002403 0.006996 0.000000 0.000000 0.000000
# 4 0.000000 0.000000 0.000000 0.038443 0.000000 0.000000
# 5 0.000000 0.000000 0.000000 0.000000 0.059766 0.000000
# 6 0.000000 0.000000 0.000000 0.000000 0.000000 0.040105
#
#
# Mechanical properties :
#
#
# Convention : Reuss Voigt Hill
#
# Bulk Modulus (GPa) = 19.38493 30.55068 24.96781
# Shear Modulus (GPa) = 22.11153 27.78149 24.94651
#
# Velocity S-wave (km/s) = 3.04390 3.41192 3.23315
# Velocity P-wave (km/s) = 4.52511 5.32196 4.93963
#
# Compressibility (1/GPa) = 0.05158646
#
# Stress axis : x y z
#
# Youngs Moduli (GPa) = 58.56670 27.00472 142.93253
#
# Poissons Ratio (x) = 0.04287 0.10959
# Poissons Ratio (y) = 0.09298 0.34348
# Poissons Ratio (z) = 0.04491 0.06490
#
# Static dielectric constant tensor:
#      x y z
#    x 1.851110 0.000000 0.000000 
#    y 0.000000 1.993010 0.000000 
#    z 0.000000 0.000000 2.002940 
# 
# From -- ./inp_files/14528.got.cif
#   From: 2010.05.17/outbox.cif.g08.bks.cpg/sg46_8_cif.got.tgz:14528.got - 2010.06.03 19:58:25.
