data_PCOD9378145
_publ_section_title
;
Structure prediction by ZEFSAII (Michael W. Deem and Ramdas Pophale) SiO2 
 PCOD9378145
Probable space group: I M A 2
;
_chemical_formula_sum "Si O2"
_cell_formula_units_Z 64
_cell_length_a 19.329372
_cell_length_b 10.081990
_cell_length_c 19.449962
_cell_angle_alpha 90.000000
_cell_angle_beta 90.000000
_cell_angle_gamma 90.000000
_cell_volume 3790.380104
_symmetry_space_group_name_H-M "I M A 2"
_symmetry_group_IT_number 46
_symmetry_cell_setting 'orthorhombic'
loop_
_space_group_symop_operation_xyz
x,y,z
-x,-y,z
1/2-x,y,z
1/2+x,-y,z
1/2+x,1/2+y,1/2+z
1/2-x,1/2-y,1/2+z
-x,1/2+y,1/2+z
x,1/2-y,1/2+z
loop_
_atom_site_type_symbol
_atom_site_label
_atom_site_fract_x
_atom_site_fract_y
_atom_site_fract_z
Si Si1 0.405623 0.895823 0.500000
Si Si2 0.079258 0.050470 0.965674
Si Si3 0.669410 0.347910 0.557284
Si Si4 0.937811 0.819978 0.543448
Si Si5 0.945909 0.376114 0.845106
Si Si6 0.042773 0.127373 0.820224
Si Si7 0.097554 0.597573 0.699569
Si Si8 0.439936 0.296171 0.691057
O O1 0.348821 0.797208 0.528854
O O2 0.480825 0.845159 0.527296
O O3 0.409877 0.894913 0.417734
O O4 0.398943 0.046254 0.523948
O O5 0.088215 0.072218 0.883636
O O6 0.085190 0.194165 0.999551
O O7 0.000000 0.000000 0.973802
O O8 0.126676 0.949040 0.008163
O O9 0.750000 0.378028 0.553317
O O10 0.644154 0.354227 0.636630
O O11 0.926607 0.783624 0.622229
O O12 0.893529 0.371521 0.780615
O O13 0.000000 0.500000 0.833955
O O14 0.989902 0.239884 0.849001
O O15 0.076437 0.205621 0.756939
O O16 0.000000 0.000000 0.793956
O O17 0.096687 0.438264 0.693217
O O18 0.021163 0.661676 0.689141
#
# Coordination Sequence:
#
# PCOD9378145 Si02
#       8
#     8   8   8   8   8   8   8   8
#     4  11  21  33  54  89 121 151 185 247 303 362
#     4  11  18  36  59  87 116 150 199 254 291 344
#     4  12  25  41  59  83 121 168 208 241 294 364
#     4  11  19  29  58  88 116 140 189 248 302 340
#     4  11  17  32  55  91 118 145 186 245 309 352
#     4  10  19  27  47  85 124 141 174 242 305 349
#     4  10  19  33  56  81 118 152 192 239 293 355
#     4  10  18  30  52  89 116 143 186 250 300 339
#
# _framework density 16.88485
#
# number of rings (size 3 to 8) (size 9 to 14) (size 15 to 20)
#    0.000    1.250    8.750    0.750    1.750    0.000 
#    0.000    1.250    0.000    0.750    0.000    0.000 
#    0.000    0.000    0.000    0.000    0.000    0.000 
#
# Total GULP energy -178381.254676 kJ/mol
# GULP energy per Si atom -5574.414209 kJ/mol
# Density = 1.684642 g / cm^3
# Si number density = 16.884850 Si / 1000 Ang^3
#
#
#
# Elastic Constant Matrix: (Units=GPa)
#
#
# Indices 1 2 3 4 5 6 
#
# 1 40.2750 4.1803 19.9974 0.0000 0.0000 0.0000
# 2 4.1803 91.2538 27.3807 0.0000 0.0000 0.0000
# 3 19.9974 27.3807 149.5264 0.0000 0.0000 0.0000
# 4 0.0000 0.0000 0.0000 38.6278 0.0000 0.0000
# 5 0.0000 0.0000 0.0000 0.0000 2.4754 0.0000
# 6 0.0000 0.0000 0.0000 0.0000 0.0000 10.9012
#
#
#
# Elastic Compliance Matrix: (Units=1/GPa)
#
#
# Indices 1 2 3 4 5 6 
#
# 1 0.026598 -0.000160 -0.003528 0.000000 0.000000 0.000000
# 2 -0.000160 0.011597 -0.002102 0.000000 0.000000 0.000000
# 3 -0.003528 -0.002102 0.007545 0.000000 0.000000 0.000000
# 4 0.000000 0.000000 0.000000 0.025888 0.000000 0.000000
# 5 0.000000 0.000000 0.000000 0.000000 0.403981 0.000000
# 6 0.000000 0.000000 0.000000 0.000000 0.000000 0.091733
#
#
# Mechanical properties :
#
#
# Convention : Reuss Voigt Hill
#
# Bulk Modulus (GPa) = 29.27497 42.68578 35.98037
# Shear Modulus (GPa) = 8.47017 25.70066 17.08542
#
# Velocity S-wave (km/s) = 2.24217 3.90566 3.18445
# Velocity P-wave (km/s) = 4.90701 6.75828 5.90563
#
# Compressibility (1/GPa) = 0.03415888
#
# Stress axis : x y z
#
# Youngs Moduli (GPa) = 37.59743 86.23286 132.54656
#
# Poissons Ratio (x) = 0.01379 0.46760
# Poissons Ratio (y) = 0.00601 0.27863
# Poissons Ratio (z) = 0.13264 0.18127
#
# Static dielectric constant tensor:
#      x y z
#    x 1.543660 0.000000 0.000000 
#    y 0.000000 1.567250 0.000000 
#    z 0.000000 0.000000 1.612610 
# 
# From -- ./inp_files/22480.got.cif
#   From: 2010.05.17/outbox.cif.g08.bks.cpg/sg46_12_cif.got.tgz:22480.got - 2010.06.03 19:58:25.
