data_PCOD9378185
_publ_section_title
;
Structure prediction by ZEFSAII (Michael W. Deem and Ramdas Pophale) SiO2 
 PCOD9378185
Probable space group: I M A 2
;
_chemical_formula_sum "Si O2"
_cell_formula_units_Z 48
_cell_length_a 8.582436
_cell_length_b 9.538486
_cell_length_c 31.975698
_cell_angle_alpha 90.000000
_cell_angle_beta 90.000000
_cell_angle_gamma 90.000000
_cell_volume 2617.640815
_symmetry_space_group_name_H-M "I M A 2"
_symmetry_group_IT_number 46
_symmetry_cell_setting 'orthorhombic'
loop_
_space_group_symop_operation_xyz
x,y,z
-x,-y,z
1/2-x,y,z
1/2+x,-y,z
1/2+x,1/2+y,1/2+z
1/2-x,1/2-y,1/2+z
-x,1/2+y,1/2+z
x,1/2-y,1/2+z
loop_
_atom_site_type_symbol
_atom_site_label
_atom_site_fract_x
_atom_site_fract_y
_atom_site_fract_z
Si Si1 0.062247 0.842204 0.614070
Si Si2 0.437487 0.841843 0.287128
Si Si3 0.936325 0.159226 0.462077
Si Si4 0.063794 0.340245 0.874130
Si Si5 0.436244 0.157809 0.038661
Si Si6 0.937446 0.344409 0.209024
O O1 0.250000 0.842762 0.610713
O O2 0.017160 0.802521 0.661757
O O3 0.991578 0.736879 0.580528
O O4 0.000000 0.000000 0.606565
O O5 0.250000 0.844662 0.289393
O O6 0.502570 0.778136 0.330512
O O7 0.488772 0.756868 0.246222
O O8 0.500000 0.000000 0.283736
O O9 0.750000 0.153578 0.461544
O O10 0.997904 0.217975 0.417615
O O11 0.996412 0.254130 0.499783
O O12 0.000000 0.000000 0.466989
O O13 0.250000 0.341373 0.874854
O O14 0.000000 0.500000 0.873646
O O15 0.250000 0.156741 0.036580
O O16 0.500000 0.000000 0.037923
O O17 0.750000 0.348120 0.209765
O O18 0.000000 0.500000 0.216260
#
# Coordination Sequence:
#
# PCOD9378185 Si02
#       6
#     8   8   8   8   8   8
#     4  10  20  38  60  84 110 144 186 229 272 324
#     4  10  19  33  52  79 110 144 182 225 272 323
#     4  11  21  37  60  85 111 145 185 228 271 323
#     4  10  18  31  52  80 109 142 182 227 271 319
#     4  12  25  41  58  82 113 146 180 224 277 331
#     4   9  20  36  56  80 110 143 182 225 270 320
#
# _framework density 18.337122000000001
#
# number of rings (size 3 to 8) (size 9 to 14) (size 15 to 20)
#    0.000    1.667    0.000    8.000    0.000    2.667 
#    0.000    2.500    0.000    2.000    0.000    0.000 
#    0.000    0.000    0.000    0.000    0.000    0.000 
#
# Total GULP energy -134028.535566 kJ/mol
# GULP energy per Si atom -5584.522315 kJ/mol
# Density = 1.829539 g / cm^3
# Si number density = 18.337122 Si / 1000 Ang^3
#
#
#
# Elastic Constant Matrix: (Units=GPa)
#
#
# Indices 1 2 3 4 5 6 
#
# 1 141.1190 44.0368 72.6443 0.0000 0.0000 0.0000
# 2 44.0368 84.7598 100.8393 0.0000 0.0000 0.0000
# 3 72.6443 100.8393 204.1997 0.0000 0.0000 0.0000
# 4 0.0000 0.0000 0.0000 26.3809 0.0000 0.0000
# 5 0.0000 0.0000 0.0000 0.0000 25.9413 0.0000
# 6 0.0000 0.0000 0.0000 0.0000 0.0000 27.7068
#
#
#
# Elastic Compliance Matrix: (Units=1/GPa)
#
#
# Indices 1 2 3 4 5 6 
#
# 1 0.008821 -0.002059 -0.002121 0.000000 0.000000 0.000000
# 2 -0.002059 0.029083 -0.013629 0.000000 0.000000 0.000000
# 3 -0.002121 -0.013629 0.012382 0.000000 0.000000 0.000000
# 4 0.000000 0.000000 0.000000 0.037906 0.000000 0.000000
# 5 0.000000 0.000000 0.000000 0.000000 0.038549 0.000000
# 6 0.000000 0.000000 0.000000 0.000000 0.000000 0.036092
#
#
# Mechanical properties :
#
#
# Convention : Reuss Voigt Hill
#
# Bulk Modulus (GPa) = 68.18304 96.12438 82.15371
# Shear Modulus (GPa) = 24.58925 30.17632 27.38278
#
# Velocity S-wave (km/s) = 3.66588 4.06105 3.86851
# Velocity P-wave (km/s) = 7.42846 8.63273 8.05313
#
# Compressibility (1/GPa) = 0.01466640
#
# Stress axis : x y z
#
# Youngs Moduli (GPa) = 113.36973 34.38456 80.76123
#
# Poissons Ratio (x) = 0.07081 0.17129
# Poissons Ratio (y) = 0.23348 1.10071
# Poissons Ratio (z) = 0.24045 0.46863
#
# Static dielectric constant tensor:
#      x y z
#    x 1.614110 0.000000 0.000000 
#    y 0.000000 1.621950 0.000000 
#    z 0.000000 0.000000 1.666500 
# 
# From -- ./inp_files/25013.got.cif
#   From: 2010.05.17/outbox.cif.g08.bks.cpg/sg46_13_cif.got.tgz:25013.got - 2010.06.03 19:58:25.
