data_PCOD9378390
_publ_section_title
;
Structure prediction by ZEFSAII (Michael W. Deem and Ramdas Pophale) SiO2 
 PCOD9378390
Probable space group: I M A 2
;
_chemical_formula_sum "Si O2"
_cell_formula_units_Z 64
_cell_length_a 14.795390
_cell_length_b 10.042511
_cell_length_c 18.919086
_cell_angle_alpha 90.000000
_cell_angle_beta 90.000000
_cell_angle_gamma 90.000000
_cell_volume 2811.052036
_symmetry_space_group_name_H-M "I M A 2"
_symmetry_group_IT_number 46
_symmetry_cell_setting 'orthorhombic'
loop_
_space_group_symop_operation_xyz
x,y,z
-x,-y,z
1/2-x,y,z
1/2+x,-y,z
1/2+x,1/2+y,1/2+z
1/2-x,1/2-y,1/2+z
-x,1/2+y,1/2+z
x,1/2-y,1/2+z
loop_
_atom_site_type_symbol
_atom_site_label
_atom_site_fract_x
_atom_site_fract_y
_atom_site_fract_z
Si Si1 0.142481 0.811270 0.395530
Si Si2 0.601019 0.941407 0.774648
Si Si3 0.139131 0.862905 0.240172
Si Si4 0.393165 0.516778 0.429571
Si Si5 0.644131 0.804522 0.047189
Si Si6 0.139817 0.336437 0.707502
Si Si7 0.638549 0.518526 0.007654
Si Si8 0.353274 0.629958 0.147159
O O1 0.250000 0.829252 0.389022
O O2 0.107342 0.806474 0.315569
O O3 0.127823 0.672355 0.434869
O O4 0.107525 0.935166 0.440318
O O5 0.641039 0.966467 0.852770
O O6 0.605062 0.787205 0.753251
O O7 0.500000 0.000000 0.775250
O O8 0.647532 0.025611 0.712068
O O9 0.250000 0.856385 0.237940
O O10 0.105755 0.766091 0.177808
O O11 0.114056 0.016760 0.233601
O O12 0.500000 0.500000 0.428008
O O13 0.361945 0.429434 0.495385
O O14 0.750000 0.778669 0.058371
O O15 0.608209 0.824056 0.126156
O O16 0.607089 0.670783 0.010997
O O17 0.250000 0.329577 0.710088
O O18 0.750000 0.518166 0.006537
O O19 0.607706 0.442121 0.078629
O O20 0.250000 0.661598 0.127412
#
# Coordination Sequence:
#
# PCOD9378390 Si02
#       8
#     8   8   8   8   8   8   8   8
#     4  10  20  37  60  89 118 153 200 248 300 360
#     4  11  23  40  60  83 121 162 203 247 296 363
#     4   9  19  33  58  91 118 146 195 250 302 358
#     4  11  25  42  58  82 125 165 206 247 298 365
#     4  10  21  39  63  93 122 154 199 252 307 362
#     4  10  21  39  64  94 123 151 198 261 306 355
#     4   9  19  34  58  91 120 146 191 249 302 356
#     4  10  18  36  61  85 115 153 196 246 297 353
#
# _framework density 22.767275999999999
#
# number of rings (size 3 to 8) (size 9 to 14) (size 15 to 20)
#    0.000    2.000    2.500    0.750    3.500    1.500 
#    2.250    1.250    0.000    0.000    0.000    0.000 
#    0.000    0.000    0.000    0.000    0.000    0.000 
#
# Total GULP energy -178846.211900 kJ/mol
# GULP energy per Si atom -5588.944122 kJ/mol
# Density = 2.271546 g / cm^3
# Si number density = 22.767276 Si / 1000 Ang^3
#
#
#
# Elastic Constant Matrix: (Units=GPa)
#
#
# Indices 1 2 3 4 5 6 
#
# 1 47.3894 -1.4822 5.8309 0.0000 0.0000 0.0000
# 2 -1.4822 148.4898 6.1470 0.0000 0.0000 0.0000
# 3 5.8309 6.1470 28.0773 0.0000 0.0000 0.0000
# 4 0.0000 0.0000 0.0000 37.6050 0.0000 0.0000
# 5 0.0000 0.0000 0.0000 0.0000 9.1541 0.0000
# 6 0.0000 0.0000 0.0000 0.0000 0.0000 -0.0435
#
#
#
# Elastic Compliance Matrix: (Units=1/GPa)
#
#
# Indices 1 2 3 4 5 6 
#
# 1 0.021679 0.000406 -0.004591 0.000000 0.000000 0.000000
# 2 0.000406 0.006804 -0.001574 0.000000 0.000000 0.000000
# 3 -0.004591 -0.001574 0.036914 0.000000 0.000000 0.000000
# 4 0.000000 0.000000 0.000000 0.026592 0.000000 0.000000
# 5 0.000000 0.000000 0.000000 0.000000 0.109241 0.000000
# 6 0.000000 0.000000 0.000000 0.000000 0.000000-22.996844
#
#
# Mechanical properties :
#
#
# Convention : Reuss Voigt Hill
#
# Bulk Modulus (GPa) = 18.55986 27.21643 22.88815
# Shear Modulus (GPa) = -0.21962 23.57385 11.67711
#
# Velocity S-wave (km/s) = -0.31093 3.22130 2.26716
# Velocity P-wave (km/s) = 2.83563 5.08093 4.11440
#
# Compressibility (1/GPa) = 0.05387970
#
# Stress axis : x y z
#
# Youngs Moduli (GPa) = 46.12679 146.97919 27.08998
#
# Poissons Ratio (x) = -0.05974 0.12438
# Poissons Ratio (y) = -0.01875 0.04264
# Poissons Ratio (z) = 0.21178 0.23134
#
# Static dielectric constant tensor:
#      x y z
#    x 1.860710 0.000000 0.000000 
#    y 0.000000 1.805410 0.000000 
#    z 0.000000 0.000000 1.836740 
# 
# From -- ./inp_files/20265.got.cif
#   From: 2010.05.17/outbox.cif.g08.bks.cpg/sg46_11_cif.got.tgz:20265.got - 2010.06.03 19:58:25.
