data_PCOD9378104
_publ_section_title
;
Structure prediction by ZEFSAII (Michael W. Deem and Ramdas Pophale) SiO2 
 PCOD9378104
Probable space group: I M A 2
;
_chemical_formula_sum "Si O2"
_cell_formula_units_Z 48
_cell_length_a 8.596685
_cell_length_b 14.091362
_cell_length_c 24.611190
_cell_angle_alpha 90.000000
_cell_angle_beta 90.000000
_cell_angle_gamma 90.000000
_cell_volume 2981.374954
_symmetry_space_group_name_H-M "I M A 2"
_symmetry_group_IT_number 46
_symmetry_cell_setting 'orthorhombic'
loop_
_space_group_symop_operation_xyz
x,y,z
-x,-y,z
1/2-x,y,z
1/2+x,-y,z
1/2+x,1/2+y,1/2+z
1/2-x,1/2-y,1/2+z
-x,1/2+y,1/2+z
x,1/2-y,1/2+z
loop_
_atom_site_type_symbol
_atom_site_label
_atom_site_fract_x
_atom_site_fract_y
_atom_site_fract_z
Si Si1 0.563198 0.604043 0.878990
Si Si2 0.562749 0.606662 0.548300
Si Si3 0.436707 0.711691 0.774683
Si Si4 0.561196 0.790456 0.939842
Si Si5 0.936658 0.604496 0.330072
Si Si6 0.563303 0.393604 0.665195
O O1 0.500000 0.500000 0.890851
O O2 0.750000 0.602216 0.877259
O O3 0.502065 0.641238 0.820895
O O4 0.513271 0.684634 0.922315
O O5 0.500000 0.500000 0.539908
O O6 0.750000 0.603826 0.549207
O O7 0.509044 0.671512 0.498058
O O8 0.502153 0.638965 0.607072
O O9 0.250000 0.712546 0.778221
O O10 0.501059 0.815554 0.789061
O O11 0.481756 0.672978 0.715489
O O12 0.750000 0.791026 0.940589
O O13 0.513776 0.859880 0.890430
O O14 0.750000 0.604334 0.328487
O O15 0.000000 0.500000 0.319344
O O16 0.500000 0.500000 0.674695
O O17 0.750000 0.398076 0.662237
#
# Coordination Sequence:
#
# PCOD9378104 Si02
#       6
#     8   8   8   8   8   8
#     4  10  19  32  49  71  98 125 157 194 236 283
#     4  10  18  30  48  69  94 123 155 190 232 279
#     4  10  20  33  49  70  96 126 160 196 235 279
#     4   8  17  31  47  69  96 125 155 191 231 275
#     4  10  19  32  50  72  99 127 157 193 234 280
#     4  10  20  32  47  69  96 124 156 194 234 278
#
# _framework density 16.099954
#
# number of rings (size 3 to 8) (size 9 to 14) (size 15 to 20)
#    0.000    2.333    0.000    5.500    0.000    4.000 
#    0.000    9.167    0.000    1.000    0.000    4.667 
#    0.000    0.000    0.000    0.000    0.000    0.000 
#
# Total GULP energy -133875.186217 kJ/mol
# GULP energy per Si atom -5578.132759 kJ/mol
# Density = 1.606331 g / cm^3
# Si number density = 16.099954 Si / 1000 Ang^3
#
#
#
# Elastic Constant Matrix: (Units=GPa)
#
#
# Indices 1 2 3 4 5 6 
#
# 1 52.9043 34.4342 42.1941 0.0000 0.0000 0.0000
# 2 34.4342 124.0459 91.9744 0.0000 0.0000 0.0000
# 3 42.1941 91.9744 161.4119 0.0000 0.0000 0.0000
# 4 0.0000 0.0000 0.0000 19.5703 0.0000 0.0000
# 5 0.0000 0.0000 0.0000 0.0000 19.4726 0.0000
# 6 0.0000 0.0000 0.0000 0.0000 0.0000 26.5971
#
#
#
# Elastic Compliance Matrix: (Units=1/GPa)
#
#
# Indices 1 2 3 4 5 6 
#
# 1 0.024773 -0.003593 -0.004428 0.000000 0.000000 0.000000
# 2 -0.003593 0.014480 -0.007312 0.000000 0.000000 0.000000
# 3 -0.004428 -0.007312 0.011519 0.000000 0.000000 0.000000
# 4 0.000000 0.000000 0.000000 0.051098 0.000000 0.000000
# 5 0.000000 0.000000 0.000000 0.000000 0.051354 0.000000
# 6 0.000000 0.000000 0.000000 0.000000 0.000000 0.037598
#
#
# Mechanical properties :
#
#
# Convention : Reuss Voigt Hill
#
# Bulk Modulus (GPa) = 49.73748 75.06306 62.40027
# Shear Modulus (GPa) = 21.91150 24.44530 23.17840
#
# Velocity S-wave (km/s) = 3.69313 3.90082 3.79840
# Velocity P-wave (km/s) = 7.01039 8.18614 7.62098
#
# Compressibility (1/GPa) = 0.02010556
#
# Stress axis : x y z
#
# Youngs Moduli (GPa) = 40.36709 69.05907 86.81166
#
# Poissons Ratio (x) = 0.24816 0.38442
# Poissons Ratio (y) = 0.14506 0.63474
# Poissons Ratio (z) = 0.17875 0.50494
#
# Static dielectric constant tensor:
#      x y z
#    x 1.546450 0.000000 0.000000 
#    y 0.000000 1.520130 0.000000 
#    z 0.000000 0.000000 1.538020 
# 
# From -- ./inp_files/20920.got.cif
#   From: 2010.05.17/outbox.cif.g08.bks.cpg/sg46_11_cif.got.tgz:20920.got - 2010.06.03 19:58:25.
