data_PCOD9378973
_publ_section_title
;
Structure prediction by ZEFSAII (Michael W. Deem and Ramdas Pophale) SiO2 
 PCOD9378973
Probable space group: I M A 2
;
_chemical_formula_sum "Si O2"
_cell_formula_units_Z 48
_cell_length_a 8.978138
_cell_length_b 20.873915
_cell_length_c 14.766118
_cell_angle_alpha 90.000000
_cell_angle_beta 90.000000
_cell_angle_gamma 90.000000
_cell_volume 2767.301776
_symmetry_space_group_name_H-M "I M A 2"
_symmetry_group_IT_number 46
_symmetry_cell_setting 'orthorhombic'
loop_
_space_group_symop_operation_xyz
x,y,z
-x,-y,z
1/2-x,y,z
1/2+x,-y,z
1/2+x,1/2+y,1/2+z
1/2-x,1/2-y,1/2+z
-x,1/2+y,1/2+z
x,1/2-y,1/2+z
loop_
_atom_site_type_symbol
_atom_site_label
_atom_site_fract_x
_atom_site_fract_y
_atom_site_fract_z
Si Si1 0.928056 0.190169 0.722360
Si Si2 0.571087 0.620280 0.526111
Si Si3 0.070428 0.306802 0.833901
Si Si4 0.071725 0.567885 0.342922
Si Si5 0.428286 0.228231 0.537112
Si Si6 0.929021 0.932488 0.223449
O O1 0.750000 0.195865 0.722132
O O2 0.968001 0.123731 0.771793
O O3 0.997166 0.248432 0.779849
O O4 0.990190 0.195937 0.621133
O O5 0.750000 0.614498 0.513688
O O6 0.489290 0.589631 0.440829
O O7 0.536368 0.695867 0.533800
O O8 0.529889 0.586577 0.620469
O O9 0.250000 0.300461 0.825344
O O10 0.026481 0.373924 0.788542
O O11 0.032900 0.301382 0.939737
O O12 0.250000 0.562201 0.346644
O O13 0.000000 0.500000 0.318887
O O14 0.250000 0.222985 0.550196
O O15 0.750000 0.937394 0.226700
O O16 0.000000 0.000000 0.248211
#
# Coordination Sequence:
#
# PCOD9378973 Si02
#       6
#     8   8   8   8   8   8
#     4  11  23  37  57  86 118 148 186 238 289 337
#     4  10  19  34  59  87 114 147 186 233 285 341
#     4  10  20  38  61  83 110 148 196 234 273 339
#     4  11  24  39  56  83 117 154 192 235 288 343
#     4  10  20  36  61  87 112 148 190 235 281 335
#     4  10  21  36  54  82 115 147 185 225 275 337
#
# _framework density 17.345416
#
# number of rings (size 3 to 8) (size 9 to 14) (size 15 to 20)
#    0.000    1.667    3.333    1.500    0.000    6.000 
#    0.000    0.833    0.000    4.000    0.000    0.000 
#    0.000    0.000    0.000    0.000    0.000    0.000 
#
# Total GULP energy -134073.512745 kJ/mol
# GULP energy per Si atom -5586.396364 kJ/mol
# Density = 1.730594 g / cm^3
# Si number density = 17.345416 Si / 1000 Ang^3
#
#
#
# Elastic Constant Matrix: (Units=GPa)
#
#
# Indices 1 2 3 4 5 6 
#
# 1 30.4528 56.5395 51.5534 0.0000 0.0000 0.0000
# 2 56.5395 174.7321 96.8168 0.0000 0.0000 0.0000
# 3 51.5534 96.8168 148.2770 0.0000 0.0000 0.0000
# 4 0.0000 0.0000 0.0000 21.0019 0.0000 0.0000
# 5 0.0000 0.0000 0.0000 0.0000 1.6979 0.0000
# 6 0.0000 0.0000 0.0000 0.0000 0.0000 27.5470
#
#
#
# Elastic Compliance Matrix: (Units=1/GPa)
#
#
# Indices 1 2 3 4 5 6 
#
# 1 0.127632 -0.026184 -0.027279 0.000000 0.000001 0.000000
# 2 -0.026184 0.014339 -0.000259 0.000000 0.000000 0.000000
# 3 -0.027279 -0.000259 0.016397 0.000000 0.000000 0.000000
# 4 0.000000 0.000000 0.000000 0.047615 0.000000 0.000000
# 5 0.000001 0.000000 0.000000 0.000000 0.588959 0.000000
# 6 0.000000 0.000000 0.000000 0.000000 0.000000 0.036302
#
#
# Mechanical properties :
#
#
# Convention : Reuss Voigt Hill
#
# Bulk Modulus (GPa) = 19.63660 84.80905 52.22283
# Shear Modulus (GPa) = 5.23197 19.95284 12.59241
#
# Velocity S-wave (km/s) = 1.73865 3.39532 2.69732
# Velocity P-wave (km/s) = 3.92123 8.02317 6.31456
#
# Compressibility (1/GPa) = 0.05092531
#
# Stress axis : x y z
#
# Youngs Moduli (GPa) = 7.83501 69.73918 60.98496
#
# Poissons Ratio (x) = 1.82607 1.66359
# Poissons Ratio (y) = 0.20515 0.01579
# Poissons Ratio (z) = 0.21373 0.01805
#
# Static dielectric constant tensor:
#      x y z
#    x 1.580130 0.000000 0.000000 
#    y 0.000000 1.569500 0.000000 
#    z 0.000000 0.000000 1.570150 
# 
# From -- ./inp_files/13877.got.cif
#   From: 2010.05.17/outbox.cif.g08.bks.cpg/sg46_7_cif.got.tgz:13877.got - 2010.06.03 19:58:25.
