data_PCOD9378143
_publ_section_title
;
Structure prediction by ZEFSAII (Michael W. Deem and Ramdas Pophale) SiO2 
 PCOD9378143
Probable space group: I M A 2
;
_chemical_formula_sum "Si O2"
_cell_formula_units_Z 52
_cell_length_a 9.516215
_cell_length_b 11.010767
_cell_length_c 27.491863
_cell_angle_alpha 90.000000
_cell_angle_beta 90.000000
_cell_angle_gamma 90.000000
_cell_volume 2880.620116
_symmetry_space_group_name_H-M "I M A 2"
_symmetry_group_IT_number 46
_symmetry_cell_setting 'orthorhombic'
loop_
_space_group_symop_operation_xyz
x,y,z
-x,-y,z
1/2-x,y,z
1/2+x,-y,z
1/2+x,1/2+y,1/2+z
1/2-x,1/2-y,1/2+z
-x,1/2+y,1/2+z
x,1/2-y,1/2+z
loop_
_atom_site_type_symbol
_atom_site_label
_atom_site_fract_x
_atom_site_fract_y
_atom_site_fract_z
Si Si1 0.902514 0.843565 0.772260
Si Si2 0.583274 0.377693 0.031014
Si Si3 0.918156 0.374227 0.917507
Si Si4 0.588021 0.617375 0.705530
Si Si5 0.588243 0.265514 0.128770
Si Si6 0.581658 0.119639 0.864718
Si Si7 0.000000 0.000000 0.685827
O O1 0.750000 0.858319 0.796809
O O2 0.917016 0.709398 0.750739
O O3 0.905158 0.925896 0.723925
O O4 0.027900 0.870677 0.809045
O O5 0.500000 0.500000 0.042351
O O6 0.750000 0.400226 0.035490
O O7 0.548759 0.279092 0.072165
O O8 0.554403 0.347937 0.974788
O O9 0.750000 0.394640 0.911459
O O10 0.955262 0.250282 0.888877
O O11 0.000000 0.500000 0.904891
O O12 0.500000 0.500000 0.717849
O O13 0.750000 0.590194 0.694932
O O14 0.514420 0.681278 0.659517
O O15 0.750000 0.225137 0.133172
O O16 0.575446 0.399904 0.152737
O O17 0.750000 0.104732 0.868121
O O18 0.500000 0.000000 0.884707
#
# Coordination Sequence:
#
# PCOD9378143 Si02
#       7
#     8   8   8   8   8   8   4
#     4  10  21  35  54  79 108 140 178 223 271 328
#     4   9  17  32  54  81 111 142 180 228 279 332
#     4   9  20  38  59  84 113 147 189 239 289 343
#     4  10  22  38  54  75 107 146 186 226 271 330
#     4  10  19  31  53  81 111 145 177 220 273 327
#     4  11  23  38  58  83 113 149 190 238 289 341
#     4  10  18  30  52  84 112 138 172 214 266 328
#
# _framework density 18.051669
#
# number of rings (size 3 to 8) (size 9 to 14) (size 15 to 20)
#    0.000    2.154    1.538    1.385    0.000    6.154 
#    0.000    3.846    0.000    1.846    0.000    0.000 
#    0.000    0.000    0.000    0.000    0.000    0.000 
#
# Total GULP energy -144894.970641 kJ/mol
# GULP energy per Si atom -5572.883486 kJ/mol
# Density = 1.801058 g / cm^3
# Si number density = 18.051669 Si / 1000 Ang^3
#
#
#
# Elastic Constant Matrix: (Units=GPa)
#
#
# Indices 1 2 3 4 5 6 
#
# 1 81.9537 45.6406 20.1195 0.0000 0.0000 0.0000
# 2 45.6406 112.1264 27.8977 0.0000 0.0000 0.0000
# 3 20.1195 27.8977 57.4088 0.0000 0.0000 0.0000
# 4 0.0000 0.0000 0.0000 18.8973 0.0000 0.0000
# 5 0.0000 0.0000 0.0000 0.0000 18.8645 0.0000
# 6 0.0000 0.0000 0.0000 0.0000 0.0000 18.7039
#
#
#
# Elastic Compliance Matrix: (Units=1/GPa)
#
#
# Indices 1 2 3 4 5 6 
#
# 1 0.016167 -0.005882 -0.002807 0.000000 0.000000 0.000000
# 2 -0.005882 0.012285 -0.003909 0.000000 0.000000 0.000000
# 3 -0.002807 -0.003909 0.020302 0.000000 0.000000 0.000000
# 4 0.000000 0.000000 0.000000 0.052918 0.000000 0.000000
# 5 0.000000 0.000000 0.000000 0.000000 0.053010 0.000000
# 6 0.000000 0.000000 0.000000 0.000000 0.000000 0.053465
#
#
# Mechanical properties :
#
#
# Convention : Reuss Voigt Hill
#
# Bulk Modulus (GPa) = 42.44821 48.75605 45.60213
# Shear Modulus (GPa) = 20.73006 21.81523 21.27264
#
# Velocity S-wave (km/s) = 3.39244 3.48010 3.43655
# Velocity P-wave (km/s) = 6.23785 6.57388 6.40807
#
# Compressibility (1/GPa) = 0.02355812
#
# Stress axis : x y z
#
# Youngs Moduli (GPa) = 61.85402 81.39800 49.25582
#
# Poissons Ratio (x) = 0.47880 0.13828
# Poissons Ratio (y) = 0.36384 0.19252
# Poissons Ratio (z) = 0.17365 0.31815
#
# Static dielectric constant tensor:
#      x y z
#    x 1.617810 0.000000 0.000000 
#    y 0.000000 1.637300 0.000000 
#    z 0.000000 0.000000 1.618630 
# 
# From -- ./inp_files/24179.got.cif
#   From: 2010.05.17/outbox.cif.g08.bks.cpg/sg46_13_cif.got.tgz:24179.got - 2010.06.03 19:58:25.
