data_PCOD9378591
_publ_section_title
;
Structure prediction by ZEFSAII (Michael W. Deem and Ramdas Pophale) SiO2 
 PCOD9378591
Probable space group: I M A 2
;
_chemical_formula_sum "Si O2"
_cell_formula_units_Z 64
_cell_length_a 7.887630
_cell_length_b 15.263383
_cell_length_c 28.510016
_cell_angle_alpha 90.000000
_cell_angle_beta 90.000000
_cell_angle_gamma 90.000000
_cell_volume 3432.375499
_symmetry_space_group_name_H-M "I M A 2"
_symmetry_group_IT_number 46
_symmetry_cell_setting 'orthorhombic'
loop_
_space_group_symop_operation_xyz
x,y,z
-x,-y,z
1/2-x,y,z
1/2+x,-y,z
1/2+x,1/2+y,1/2+z
1/2-x,1/2-y,1/2+z
-x,1/2+y,1/2+z
x,1/2-y,1/2+z
loop_
_atom_site_type_symbol
_atom_site_label
_atom_site_fract_x
_atom_site_fract_y
_atom_site_fract_z
Si Si1 0.051946 0.726880 0.531780
Si Si2 0.546287 0.401985 0.881926
Si Si3 0.954795 0.098179 0.110684
Si Si4 0.954303 0.098535 0.217721
Si Si5 0.042363 0.774906 0.299513
Si Si6 0.947529 0.899546 0.951197
Si Si7 0.547307 0.098808 0.843464
Si Si8 0.545209 0.402063 0.988807
O O1 0.250000 0.740057 0.543042
O O2 0.978141 0.670109 0.574371
O O3 0.979068 0.822369 0.520245
O O4 0.041540 0.668190 0.484829
O O5 0.500000 0.500000 0.866454
O O6 0.750000 0.395741 0.883456
O O7 0.486419 0.330670 0.844855
O O8 0.482330 0.390456 0.935108
O O9 0.750000 0.103007 0.111413
O O10 0.016456 0.109419 0.164210
O O11 0.000000 0.000000 0.094974
O O12 0.750000 0.103124 0.216683
O O13 0.015587 0.172920 0.253474
O O14 0.000000 0.000000 0.233502
O O15 0.250000 0.775767 0.298526
O O16 0.989251 0.674893 0.308194
O O17 0.750000 0.890123 0.961035
O O18 0.980029 0.883975 0.896067
O O19 0.000000 0.000000 0.960748
O O20 0.750000 0.103025 0.846986
O O21 0.500000 0.000000 0.829898
O O22 0.500000 0.500000 0.004268
O O23 0.750000 0.396271 0.987288
#
# Coordination Sequence:
#
# PCOD9378591 Si02
#       8
#     8   8   8   8   8   8   8   8
#     4  10  19  32  49  69  93 126 162 197 236 282
#     4   9  16  27  42  63  88 116 145 177 217 265
#     4   9  18  31  49  71  96 122 152 189 233 281
#     4   9  17  31  49  72  97 122 151 187 231 281
#     4   9  17  29  48  68  90 121 154 184 224 274
#     4  11  21  32  47  70  98 127 157 194 235 282
#     4  10  19  33  49  66  91 125 160 196 233 273
#     4   9  18  31  46  63  89 121 155 192 230 270
#
# _framework density 18.645977999999999
#
# number of rings (size 3 to 8) (size 9 to 14) (size 15 to 20)
#    0.000    2.500    0.000    3.750    0.000    4.000 
#    0.000    5.000    0.000    0.750    0.000    0.000 
#    0.000    0.000    0.000    0.000    0.000    0.000 
#
# Total GULP energy -178536.799340 kJ/mol
# GULP energy per Si atom -5579.274979 kJ/mol
# Density = 1.860354 g / cm^3
# Si number density = 18.645978 Si / 1000 Ang^3
#
#
#
# Elastic Constant Matrix: (Units=GPa)
#
#
# Indices 1 2 3 4 5 6 
#
# 1 21.7807 -6.5136 -0.6144 0.0000 0.0000 0.0000
# 2 -6.5136 157.8758 92.0711 0.0000 0.0000 0.0000
# 3 -0.6144 92.0711 83.4944 0.0000 0.0000 0.0000
# 4 0.0000 0.0000 0.0000 26.4199 0.0000 0.0000
# 5 0.0000 0.0000 0.0000 0.0000 8.4403 0.0000
# 6 0.0000 0.0000 0.0000 0.0000 0.0000 22.3221
#
#
#
# Elastic Compliance Matrix: (Units=1/GPa)
#
#
# Indices 1 2 3 4 5 6 
#
# 1 0.047233 0.004892 -0.005047 0.000000 0.000000 0.000000
# 2 0.004892 0.018254 -0.020093 0.000000 0.000000 0.000000
# 3 -0.005047 -0.020093 0.034097 0.000000 0.000000 0.000000
# 4 0.000000 0.000000 0.000000 0.037850 0.000000 0.000000
# 5 0.000000 0.000000 0.000000 0.000000 0.118480 0.000000
# 6 0.000000 0.000000 0.000000 0.000000 0.000000 0.044799
#
#
# Mechanical properties :
#
#
# Convention : Reuss Voigt Hill
#
# Bulk Modulus (GPa) = 16.92404 48.11524 32.51964
# Shear Modulus (GPa) = 13.85410 23.31697 18.58553
#
# Velocity S-wave (km/s) = 2.72877 3.54009 3.16057
# Velocity P-wave (km/s) = 4.36171 6.52459 5.54954
#
# Compressibility (1/GPa) = 0.05908755
#
# Stress axis : x y z
#
# Youngs Moduli (GPa) = 21.17168 54.78282 29.32836
#
# Poissons Ratio (x) = -0.26801 0.14802
# Poissons Ratio (y) = -0.10358 0.58929
# Poissons Ratio (z) = 0.10686 1.10075
#
# Static dielectric constant tensor:
#      x y z
#    x 1.678500 0.000000 0.000000 
#    y 0.000000 1.653660 0.000000 
#    z 0.000000 0.000000 1.646650 
# 
# From -- ./inp_files/25319.got.cif
#   From: 2010.05.17/outbox.cif.g08.bks.cpg/sg46_13_cif.got.tgz:25319.got - 2010.06.03 19:58:25.
