data_PCOD9378705
_publ_section_title
;
Structure prediction by ZEFSAII (Michael W. Deem and Ramdas Pophale) SiO2 
 PCOD9378705
Probable space group: I M A 2
;
_chemical_formula_sum "Si O2"
_cell_formula_units_Z 64
_cell_length_a 17.367225
_cell_length_b 21.970689
_cell_length_c 9.382850
_cell_angle_alpha 90.000000
_cell_angle_beta 90.000000
_cell_angle_gamma 90.000000
_cell_volume 3580.213129
_symmetry_space_group_name_H-M "I M A 2"
_symmetry_group_IT_number 46
_symmetry_cell_setting 'orthorhombic'
loop_
_space_group_symop_operation_xyz
x,y,z
-x,-y,z
1/2-x,y,z
1/2+x,-y,z
1/2+x,1/2+y,1/2+z
1/2-x,1/2-y,1/2+z
-x,1/2+y,1/2+z
x,1/2-y,1/2+z
loop_
_atom_site_type_symbol
_atom_site_label
_atom_site_fract_x
_atom_site_fract_y
_atom_site_fract_z
Si Si1 0.385264 0.059705 0.036090
Si Si2 0.162008 0.305958 0.629819
Si Si3 0.579334 0.966624 0.355613
Si Si4 0.993415 0.130483 0.513041
Si Si5 0.565034 0.754623 0.393611
Si Si6 0.163848 0.563283 0.019520
Si Si7 0.489904 0.875971 0.844526
Si Si8 0.835537 0.056869 0.857909
O O1 0.343360 0.122993 0.081098
O O2 0.410632 0.032896 0.187464
O O3 0.456276 0.081964 0.940836
O O4 0.345593 0.006037 0.945198
O O5 0.250000 0.293262 0.671959
O O6 0.135239 0.266390 0.494382
O O7 0.102030 0.286453 0.754063
O O8 0.560540 0.901354 0.420559
O O9 0.500000 0.000000 0.395420
O O10 0.647995 0.002358 0.430061
O O11 0.906088 0.108856 0.479168
O O12 0.003347 0.111783 0.677291
O O13 0.008913 0.200496 0.480204
O O14 0.516199 0.693591 0.363086
O O15 0.250000 0.587041 0.992803
O O16 0.158684 0.546639 0.187073
O O17 0.403280 0.894762 0.886773
O O18 0.750000 0.080913 0.887983
#
# Coordination Sequence:
#
# PCOD9378705 Si02
#       8
#     8   8   8   8   8   8   8   8
#     4  11  21  35  58  85 116 149 186 230 289 345
#     4  11  23  38  57  84 117 149 186 233 283 335
#     4  10  19  32  54  81 111 142 182 229 279 339
#     4  10  19  37  57  80 107 149 194 230 277 340
#     4  11  21  39  59  82 111 150 192 233 280 338
#     4   9  20  36  56  80 111 148 189 236 282 331
#     4  10  21  36  60  81 110 153 196 233 280 346
#     4  10  20  37  57  83 116 150 191 240 288 337
#
# _framework density 17.87603
#
# number of rings (size 3 to 8) (size 9 to 14) (size 15 to 20)
#    0.000    1.750    2.500    2.625    0.000    3.000 
#    0.000    0.625    0.000    0.000    0.000    0.000 
#    0.000    0.000    0.000    0.000    0.000    0.000 
#
# Total GULP energy -178242.587404 kJ/mol
# GULP energy per Si atom -5570.080856 kJ/mol
# Density = 1.783534 g / cm^3
# Si number density = 17.876030 Si / 1000 Ang^3
#
#
#
# Elastic Constant Matrix: (Units=GPa)
#
#
# Indices 1 2 3 4 5 6 
#
# 1 123.6100 45.8016 40.1684 0.0000 0.0000 0.0000
# 2 45.8016 65.0496 15.4094 0.0000 0.0000 0.0000
# 3 40.1684 15.4094 56.5660 0.0000 0.0000 0.0000
# 4 0.0000 0.0000 0.0000 26.4349 0.0000 0.0000
# 5 0.0000 0.0000 0.0000 0.0000 -1.1352 0.0000
# 6 0.0000 0.0000 0.0000 0.0000 0.0000 12.7452
#
#
#
# Elastic Compliance Matrix: (Units=1/GPa)
#
#
# Indices 1 2 3 4 5 6 
#
# 1 0.013313 -0.007626 -0.007376 0.000000 0.000000 0.000000
# 2 -0.007626 0.020802 -0.000251 0.000000 0.000000 0.000000
# 3 -0.007376 -0.000251 0.022985 0.000000 0.000000 0.000000
# 4 0.000000 0.000000 0.000000 0.037829 0.000000 0.000000
# 5 0.000000 0.000000 0.000000 0.000000 -0.880932 0.000000
# 6 0.000000 0.000000 0.000000 0.000000 0.000000 0.078461
#
#
# Mechanical properties :
#
#
# Convention : Reuss Voigt Hill
#
# Bulk Modulus (GPa) = 37.60475 49.77605 43.69040
# Shear Modulus (GPa) = -7.48310 17.19873 4.85781
#
# Velocity S-wave (km/s) = -2.04822 3.10516 1.65027
# Velocity P-wave (km/s) = 3.93554 6.38448 5.30330
#
# Compressibility (1/GPa) = 0.02659239
#
# Stress axis : x y z
#
# Youngs Moduli (GPa) = 75.11665 48.07221 43.50714
#
# Poissons Ratio (x) = 0.36661 0.32091
# Poissons Ratio (y) = 0.57285 0.01093
# Poissons Ratio (z) = 0.55406 0.01208
#
# Static dielectric constant tensor:
#      x y z
#    x 1.608160 0.000000 0.000000 
#    y 0.000000 1.655760 0.000000 
#    z 0.000000 0.000000 1.609790 
# 
# From -- ./inp_files/6933.got.cif
#   From: 2010.05.17/outbox.cif.g08.bks.cpg/sg46_4_cif.got.tgz:6933.got - 2010.06.03 19:58:25.
