data_PCOD9378447
_publ_section_title
;
Structure prediction by ZEFSAII (Michael W. Deem and Ramdas Pophale) SiO2 
 PCOD9378447
Probable space group: I M A 2
;
_chemical_formula_sum "Si O2"
_cell_formula_units_Z 56
_cell_length_a 8.698695
_cell_length_b 13.922268
_cell_length_c 30.084666
_cell_angle_alpha 90.000000
_cell_angle_beta 90.000000
_cell_angle_gamma 90.000000
_cell_volume 3643.420415
_symmetry_space_group_name_H-M "I M A 2"
_symmetry_group_IT_number 46
_symmetry_cell_setting 'orthorhombic'
loop_
_space_group_symop_operation_xyz
x,y,z
-x,-y,z
1/2-x,y,z
1/2+x,-y,z
1/2+x,1/2+y,1/2+z
1/2-x,1/2-y,1/2+z
-x,1/2+y,1/2+z
x,1/2-y,1/2+z
loop_
_atom_site_type_symbol
_atom_site_label
_atom_site_fract_x
_atom_site_fract_y
_atom_site_fract_z
Si Si1 0.565039 0.105173 0.338120
Si Si2 0.066161 0.891303 0.970038
Si Si3 0.065302 0.603526 0.297206
Si Si4 0.433250 0.107613 0.160145
Si Si5 0.565383 0.891709 0.062048
Si Si6 0.065974 0.794318 0.246037
Si Si7 0.934034 0.792269 0.883159
O O1 0.750000 0.106889 0.341484
O O2 0.523321 0.137115 0.287635
O O3 0.495175 0.186894 0.369849
O O4 0.500000 0.000000 0.347312
O O5 0.250000 0.895941 0.969077
O O6 0.002174 0.829447 0.929393
O O7 0.000000 0.000000 0.965975
O O8 0.009072 0.849926 0.017495
O O9 0.250000 0.600775 0.301556
O O10 0.025700 0.686799 0.261836
O O11 0.000000 0.500000 0.285126
O O12 0.994270 0.637730 0.344017
O O13 0.250000 0.099682 0.161692
O O14 0.474132 0.147996 0.110989
O O15 0.490807 0.171429 0.200711
O O16 0.500000 0.000000 0.164642
O O17 0.750000 0.893560 0.057156
O O18 0.500000 0.000000 0.063585
O O19 0.250000 0.799442 0.241258
O O20 0.750000 0.793527 0.884255
#
# Coordination Sequence:
#
# PCOD9378447 Si02
#       7
#     8   8   8   8   8   8   8
#     4  10  20  34  49  69  95 124 157 194 231 271
#     4  11  20  31  47  68  94 124 155 190 229 276
#     4  10  20  34  49  68  93 122 155 194 232 273
#     4  10  19  29  45  67  94 124 155 189 227 271
#     4   9  17  29  43  64  91 120 152 187 227 273
#     4   9  19  32  47  67  93 122 155 189 225 270
#     4  11  21  33  49  69  93 124 157 191 229 274
#
# _framework density 15.370172999999999
#
# number of rings (size 3 to 8) (size 9 to 14) (size 15 to 20)
#    0.000    2.000    0.000    6.857    0.000    6.286 
#    0.000    0.000    0.000    0.000    0.000    1.000 
#    0.000    4.571    0.000    0.000    0.000    0.000 
#
# Total GULP energy -156201.110098 kJ/mol
# GULP energy per Si atom -5578.611075 kJ/mol
# Density = 1.533519 g / cm^3
# Si number density = 15.370173 Si / 1000 Ang^3
#
#
#
# Elastic Constant Matrix: (Units=GPa)
#
#
# Indices 1 2 3 4 5 6 
#
# 1 96.1749 41.7809 63.8790 0.0000 0.0000 0.0000
# 2 41.7809 87.9751 62.5960 0.0000 0.0000 0.0000
# 3 63.8790 62.5960 160.2461 0.0000 0.0000 0.0000
# 4 0.0000 0.0000 0.0000 12.7039 0.0000 0.0000
# 5 0.0000 0.0000 0.0000 0.0000 26.9043 0.0000
# 6 0.0000 0.0000 0.0000 0.0000 0.0000 25.2690
#
#
#
# Elastic Compliance Matrix: (Units=1/GPa)
#
#
# Indices 1 2 3 4 5 6 
#
# 1 0.015094 -0.003999 -0.004455 0.000000 0.000000 0.000000
# 2 -0.003999 0.016801 -0.004969 0.000000 0.000000 0.000000
# 3 -0.004455 -0.004969 0.009957 0.000000 0.000000 0.000000
# 4 0.000000 0.000000 0.000000 0.078716 0.000000 0.000000
# 5 0.000000 0.000000 0.000000 0.000000 0.037169 0.000000
# 6 0.000000 0.000000 0.000000 0.000000 0.000000 0.039574
#
#
# Mechanical properties :
#
#
# Convention : Reuss Voigt Hill
#
# Bulk Modulus (GPa) = 66.63378 75.65643 71.14510
# Shear Modulus (GPa) = 21.81893 24.71812 23.26852
#
# Velocity S-wave (km/s) = 3.77180 4.01457 3.89508
# Velocity P-wave (km/s) = 7.90034 8.41539 8.16193
#
# Compressibility (1/GPa) = 0.01500740
#
# Stress axis : x y z
#
# Youngs Moduli (GPa) = 66.25275 59.51863 100.42865
#
# Poissons Ratio (x) = 0.23799 0.44740
# Poissons Ratio (y) = 0.26491 0.49904
# Poissons Ratio (z) = 0.29515 0.29576
#
# Static dielectric constant tensor:
#      x y z
#    x 1.512960 0.000000 0.000000 
#    y 0.000000 1.503050 0.000000 
#    z 0.000000 0.000000 1.528930 
# 
# From -- ./inp_files/25250.got.cif
#   From: 2010.05.17/outbox.cif.g08.bks.cpg/sg46_13_cif.got.tgz:25250.got - 2010.06.03 19:58:25.
