data_PCOD9378665
_publ_section_title
;
Structure prediction by ZEFSAII (Michael W. Deem and Ramdas Pophale) SiO2 
 PCOD9378665
Probable space group: I M A 2
;
_chemical_formula_sum "Si O2"
_cell_formula_units_Z 64
_cell_length_a 9.913971
_cell_length_b 15.595945
_cell_length_c 22.359594
_cell_angle_alpha 90.000000
_cell_angle_beta 90.000000
_cell_angle_gamma 90.000000
_cell_volume 3457.190036
_symmetry_space_group_name_H-M "I M A 2"
_symmetry_group_IT_number 46
_symmetry_cell_setting 'orthorhombic'
loop_
_space_group_symop_operation_xyz
x,y,z
-x,-y,z
1/2-x,y,z
1/2+x,-y,z
1/2+x,1/2+y,1/2+z
1/2-x,1/2-y,1/2+z
-x,1/2+y,1/2+z
x,1/2-y,1/2+z
loop_
_atom_site_type_symbol
_atom_site_label
_atom_site_fract_x
_atom_site_fract_y
_atom_site_fract_z
Si Si1 0.602166 0.569145 0.529650
Si Si2 0.595526 0.276454 0.942945
Si Si3 0.599063 0.870936 0.899473
Si Si4 0.906279 0.770713 0.548731
Si Si5 0.089635 0.254260 0.183558
Si Si6 0.408254 0.420196 0.262680
Si Si7 0.912919 0.085920 0.208426
Si Si8 0.602129 0.070543 0.350104
O O1 0.500000 0.500000 0.553010
O O2 0.750000 0.548073 0.552238
O O3 0.602909 0.567307 0.457081
O O4 0.573830 0.667274 0.546147
O O5 0.750000 0.255046 0.958811
O O6 0.516167 0.196288 0.915327
O O7 0.595906 0.347605 0.891906
O O8 0.511430 0.306285 0.000940
O O9 0.750000 0.830046 0.898250
O O10 0.577482 0.910601 0.834535
O O11 0.750000 0.786687 0.531455
O O12 0.924833 0.795138 0.617496
O O13 0.250000 0.229925 0.190218
O O14 0.058143 0.328722 0.231784
O O15 0.992292 0.171332 0.186768
O O16 0.500000 0.500000 0.242808
O O17 0.250000 0.436765 0.249903
O O18 0.750000 0.082333 0.193381
O O19 0.921431 0.092179 0.280810
O O20 0.000000 0.000000 0.192481
O O21 0.750000 0.031469 0.353529
O O22 0.500000 0.000000 0.371433
#
# Coordination Sequence:
#
# PCOD9378665 Si02
#       8
#     8   8   8   8   8   8   8   8
#     4   9  17  29  46  69  97 127 158 196 244 300
#     4  10  19  32  52  78 103 129 169 217 261 308
#     4   9  18  32  50  75 105 135 165 201 257 323
#     4   9  20  37  52  69  99 138 177 215 258 310
#     4  10  21  38  57  77 105 144 188 229 268 315
#     4  10  21  36  56  81 108 141 182 226 272 323
#     4  10  20  35  56  83 114 145 177 216 266 323
#     4   9  19  33  50  76 106 133 165 208 258 314
#
# _framework density 18.512143999999999
#
# number of rings (size 3 to 8) (size 9 to 14) (size 15 to 20)
#    0.000    2.500    0.000    2.625    0.000    5.500 
#    0.000    1.875    0.000    3.000    0.000    0.000 
#    0.000    0.000    0.000    0.000    0.000    0.000 
#
# Total GULP energy -178301.055046 kJ/mol
# GULP energy per Si atom -5571.907970 kJ/mol
# Density = 1.847001 g / cm^3
# Si number density = 18.512144 Si / 1000 Ang^3
#
#
#
# Elastic Constant Matrix: (Units=GPa)
#
#
# Indices 1 2 3 4 5 6 
#
# 1 100.4557 48.2730 36.7716 0.0000 0.0000 0.0000
# 2 48.2730 47.3734 16.5950 0.0000 0.0000 0.0000
# 3 36.7716 16.5950 70.0187 0.0000 0.0000 0.0000
# 4 0.0000 0.0000 0.0000 -26.0016 0.0000 0.0000
# 5 0.0000 0.0000 0.0000 0.0000 34.0024 0.0000
# 6 0.0000 0.0000 0.0000 0.0000 0.0000 32.1730
#
#
#
# Elastic Compliance Matrix: (Units=1/GPa)
#
#
# Indices 1 2 3 4 5 6 
#
# 1 0.022162 -0.020181 -0.006856 0.000000 0.000000 0.000000
# 2 -0.020181 0.041398 0.000787 0.000000 0.000000 0.000000
# 3 -0.006856 0.000787 0.017696 0.000000 0.000000 0.000000
# 4 0.000000 0.000000 0.000000 -0.038459 0.000000 0.000000
# 5 0.000000 0.000000 0.000000 0.000000 0.029410 0.000000
# 6 0.000000 0.000000 0.000000 0.000000 0.000000 0.031082
#
#
# Mechanical properties :
#
#
# Convention : Reuss Voigt Hill
#
# Bulk Modulus (GPa) = 34.77592 46.79188 40.78390
# Shear Modulus (GPa) = 30.23461 15.78198 23.00829
#
# Velocity S-wave (km/s) = 4.04571 2.92296 3.52927
# Velocity P-wave (km/s) = 6.37573 6.05993 6.21984
#
# Compressibility (1/GPa) = 0.02875553
#
# Stress axis : x y z
#
# Youngs Moduli (GPa) = 45.12206 24.15588 56.51069
#
# Poissons Ratio (x) = 0.48750 0.38742
# Poissons Ratio (y) = 0.91063 -0.04447
# Poissons Ratio (z) = 0.30934 -0.01901
#
# Static dielectric constant tensor:
#      x y z
#    x 1.658240 0.000000 0.000000 
#    y 0.000000 1.623230 0.000000 
#    z 0.000000 0.000000 1.662870 
# 
# From -- ./inp_files/23176.got.cif
#   From: 2010.05.17/outbox.cif.g08.bks.cpg/sg46_12_cif.got.tgz:23176.got - 2010.06.03 19:58:25.
