data_PCOD9378060
_publ_section_title
;
Structure prediction by ZEFSAII (Michael W. Deem and Ramdas Pophale) SiO2 
 PCOD9378060
Probable space group: I M A 2
;
_chemical_formula_sum "Si O2"
_cell_formula_units_Z 56
_cell_length_a 9.295318
_cell_length_b 19.298967
_cell_length_c 17.983245
_cell_angle_alpha 90.000000
_cell_angle_beta 90.000000
_cell_angle_gamma 90.000000
_cell_volume 3226.014956
_symmetry_space_group_name_H-M "I M A 2"
_symmetry_group_IT_number 46
_symmetry_cell_setting 'orthorhombic'
loop_
_space_group_symop_operation_xyz
x,y,z
-x,-y,z
1/2-x,y,z
1/2+x,-y,z
1/2+x,1/2+y,1/2+z
1/2-x,1/2-y,1/2+z
-x,1/2+y,1/2+z
x,1/2-y,1/2+z
loop_
_atom_site_type_symbol
_atom_site_label
_atom_site_fract_x
_atom_site_fract_y
_atom_site_fract_z
Si Si1 0.081153 0.208074 0.275580
Si Si2 0.921154 0.307157 0.174929
Si Si3 0.585343 0.681885 0.950105
Si Si4 0.416918 0.793672 0.035953
Si Si5 0.577736 0.925447 0.578670
Si Si6 0.411889 0.434278 0.535744
Si Si7 0.912116 0.935138 0.214341
O O1 0.250000 0.219744 0.255681
O O2 0.076161 0.184769 0.361406
O O3 0.025582 0.139730 0.232981
O O4 0.992228 0.275225 0.249413
O O5 0.750000 0.321063 0.182646
O O6 0.939138 0.245058 0.114648
O O7 0.004184 0.372767 0.138500
O O8 0.750000 0.703295 0.970332
O O9 0.470093 0.736701 0.978244
O O10 0.560219 0.611590 0.997356
O O11 0.250000 0.810688 0.028946
O O12 0.508823 0.862182 0.024181
O O13 0.750000 0.931599 0.592169
O O14 0.500000 0.000000 0.580575
O O15 0.500000 0.500000 0.506661
O O16 0.250000 0.433187 0.506524
O O17 0.404444 0.441843 0.625400
O O18 0.750000 0.936871 0.244447
O O19 0.000000 0.000000 0.244118
#
# Coordination Sequence:
#
# PCOD9378060 Si02
#       7
#     8   8   8   8   8   8   8
#     4  10  19  34  52  75 106 142 179 216 262 317
#     4  10  20  33  53  79 104 136 178 223 268 314
#     4   9  20  35  53  75 104 141 177 213 264 321
#     4  10  19  32  50  73 101 131 172 218 258 304
#     4  10  20  36  57  81 109 142 182 227 272 322
#     4  10  18  29  47  71  99 130 165 204 249 296
#     4   9  18  29  44  68 100 134 166 201 241 290
#
# _framework density 17.358878000000001
#
# number of rings (size 3 to 8) (size 9 to 14) (size 15 to 20)
#    0.000    2.286    1.429    1.714    0.000    4.000 
#    0.000    0.000    0.000    0.857    0.000    0.000 
#    0.000    0.000    0.000    0.000    0.000    0.000 
#
# Total GULP energy -155934.315986 kJ/mol
# GULP energy per Si atom -5569.082714 kJ/mol
# Density = 1.731937 g / cm^3
# Si number density = 17.358878 Si / 1000 Ang^3
#
#
#
# Elastic Constant Matrix: (Units=GPa)
#
#
# Indices 1 2 3 4 5 6 
#
# 1 96.6887 83.3253 21.0518 0.0000 0.0000 0.0000
# 2 83.3253 135.3696 24.7683 0.0000 0.0000 0.0000
# 3 21.0518 24.7683 38.1221 0.0000 0.0000 0.0000
# 4 0.0000 0.0000 0.0000 11.4265 0.0000 0.0000
# 5 0.0000 0.0000 0.0000 0.0000 17.8550 0.0000
# 6 0.0000 0.0000 0.0000 0.0000 0.0000 37.3323
#
#
#
# Elastic Compliance Matrix: (Units=1/GPa)
#
#
# Indices 1 2 3 4 5 6 
#
# 1 0.022525 -0.013153 -0.003893 0.000000 0.000000 0.000000
# 2 -0.013153 0.016064 -0.003174 0.000000 0.000000 0.000000
# 3 -0.003893 -0.003174 0.030443 0.000000 0.000000 0.000000
# 4 0.000000 0.000000 0.000000 0.087516 0.000000 0.000000
# 5 0.000000 0.000000 0.000000 0.000000 0.056007 0.000000
# 6 0.000000 0.000000 0.000000 0.000000 0.000000 0.026786
#
#
# Mechanical properties :
#
#
# Convention : Reuss Voigt Hill
#
# Bulk Modulus (GPa) = 34.97369 58.71904 46.84636
# Shear Modulus (GPa) = 17.28242 22.72511 20.00376
#
# Velocity S-wave (km/s) = 3.15873 3.62212 3.39833
# Velocity P-wave (km/s) = 5.78745 7.16889 6.51489
#
# Compressibility (1/GPa) = 0.02859292
#
# Stress axis : x y z
#
# Youngs Moduli (GPa) = 44.39521 62.25163 32.84782
#
# Poissons Ratio (x) = 0.81877 0.12789
# Poissons Ratio (y) = 0.58391 0.10425
# Poissons Ratio (z) = 0.17284 0.19757
#
# Static dielectric constant tensor:
#      x y z
#    x 1.605350 0.000000 0.000000 
#    y 0.000000 1.584820 0.000000 
#    z 0.000000 0.000000 1.605240 
# 
# From -- ./inp_files/18462.got.cif
#   From: 2010.05.17/outbox.cif.g08.bks.cpg/sg46_10_cif.got.tgz:18462.got - 2010.06.03 19:58:25.
