data_PCOD9378136
_publ_section_title
;
Structure prediction by ZEFSAII (Michael W. Deem and Ramdas Pophale) SiO2 
 PCOD9378136
Probable space group: I M A 2
;
_chemical_formula_sum "Si O2"
_cell_formula_units_Z 64
_cell_length_a 16.117677
_cell_length_b 20.859934
_cell_length_c 8.989015
_cell_angle_alpha 90.000000
_cell_angle_beta 90.000000
_cell_angle_gamma 90.000000
_cell_volume 3022.229799
_symmetry_space_group_name_H-M "I M A 2"
_symmetry_group_IT_number 46
_symmetry_cell_setting 'orthorhombic'
loop_
_space_group_symop_operation_xyz
x,y,z
-x,-y,z
1/2-x,y,z
1/2+x,-y,z
1/2+x,1/2+y,1/2+z
1/2-x,1/2-y,1/2+z
-x,1/2+y,1/2+z
x,1/2-y,1/2+z
loop_
_atom_site_type_symbol
_atom_site_label
_atom_site_fract_x
_atom_site_fract_y
_atom_site_fract_z
Si Si1 0.398469 0.388114 0.836070
Si Si2 0.655778 0.473070 0.789536
Si Si3 0.051468 0.887965 0.112786
Si Si4 0.970129 0.431915 0.057124
Si Si5 0.346198 0.241280 0.197087
Si Si6 0.544200 0.700555 0.414159
Si Si7 0.387386 0.720254 0.827275
Si Si8 0.161159 0.839129 0.640867
O O1 0.342938 0.450694 0.811563
O O2 0.470154 0.397388 0.712895
O O3 0.353947 0.320859 0.806925
O O4 0.450359 0.395726 0.988410
O O5 0.750000 0.448187 0.798838
O O6 0.610594 0.449187 0.637540
O O7 0.594318 0.448206 0.920772
O O8 0.102749 0.831126 0.195296
O O9 0.012467 0.859674 0.962327
O O10 0.915925 0.386239 0.158891
O O11 0.000000 0.500000 0.118846
O O12 0.250000 0.252630 0.162341
O O13 0.391146 0.300600 0.278845
O O14 0.401115 0.221184 0.055936
O O15 0.479289 0.756448 0.372666
O O16 0.343687 0.781934 0.758776
O O17 0.347845 0.691387 0.975596
O O18 0.250000 0.872365 0.652799
#
# Coordination Sequence:
#
# PCOD9378136 Si02
#       8
#     8   8   8   8   8   8   8   8
#     4   9  17  32  52  78 112 148 190 239 292 344
#     4  10  18  30  51  82 113 144 193 256 298 327
#     4  10  19  32  55  75 112 156 190 225 282 362
#     4   9  18  33  54  77 111 158 200 238 289 352
#     4  11  21  34  57  88 118 148 188 243 294 343
#     4  11  20  38  55  79 118 157 192 228 285 362
#     4  12  21  37  57  82 120 160 192 230 295 368
#     4  12  23  36  56  90 124 153 193 250 301 348
#
# _framework density 21.176416
#
# number of rings (size 3 to 8) (size 9 to 14) (size 15 to 20)
#    0.000    1.500    6.250    2.625    0.000    0.500 
#    0.000    0.000    0.000    3.000    0.000    1.750 
#    0.000    0.000    0.000    0.000    0.000    0.000 
#
# Total GULP energy -178554.203732 kJ/mol
# GULP energy per Si atom -5579.818867 kJ/mol
# Density = 2.112822 g / cm^3
# Si number density = 21.176416 Si / 1000 Ang^3
#
#
#
# Elastic Constant Matrix: (Units=GPa)
#
#
# Indices 1 2 3 4 5 6 
#
# 1 119.2877 26.2254 33.2665 0.0000 0.0000 0.0000
# 2 26.2254 75.6580 23.1102 0.0000 0.0000 0.0000
# 3 33.2665 23.1102 60.9628 0.0000 0.0000 0.0000
# 4 0.0000 0.0000 0.0000 18.1822 0.0000 0.0000
# 5 0.0000 0.0000 0.0000 0.0000 10.8688 0.0000
# 6 0.0000 0.0000 0.0000 0.0000 0.0000 23.4547
#
#
#
# Elastic Compliance Matrix: (Units=1/GPa)
#
#
# Indices 1 2 3 4 5 6 
#
# 1 0.010166 -0.002069 -0.004763 0.000000 0.000000 0.000000
# 2 -0.002069 0.015369 -0.004697 0.000000 0.000000 0.000000
# 3 -0.004763 -0.004697 0.020783 0.000000 0.000000 0.000000
# 4 0.000000 0.000000 0.000000 0.054999 0.000000 0.000000
# 5 0.000000 0.000000 0.000000 0.000000 0.092006 0.000000
# 6 0.000000 0.000000 0.000000 0.000000 0.000000 0.042635
#
#
# Mechanical properties :
#
#
# Convention : Reuss Voigt Hill
#
# Bulk Modulus (GPa) = 42.99243 46.79031 44.89137
# Shear Modulus (GPa) = 18.74257 22.05488 20.39873
#
# Velocity S-wave (km/s) = 2.97824 3.23070 3.10704
# Velocity P-wave (km/s) = 5.67209 6.00500 5.84092
#
# Compressibility (1/GPa) = 0.02325991
#
# Stress axis : x y z
#
# Youngs Moduli (GPa) = 98.36387 65.06445 48.11527
#
# Poissons Ratio (x) = 0.13462 0.22919
# Poissons Ratio (y) = 0.20351 0.22601
# Poissons Ratio (z) = 0.46854 0.30563
#
# Static dielectric constant tensor:
#      x y z
#    x 1.763590 0.000000 0.000000 
#    y 0.000000 1.825330 0.000000 
#    z 0.000000 0.000000 1.796120 
# 
# From -- ./inp_files/6101.got.cif
#   From: 2010.05.17/outbox.cif.g08.bks.cpg/sg46_4_cif.got.tgz:6101.got - 2010.06.03 19:58:25.
