data_PCOD9378234
_publ_section_title
;
Structure prediction by ZEFSAII (Michael W. Deem and Ramdas Pophale) SiO2 
 PCOD9378234
Probable space group: I M A 2
;
_chemical_formula_sum "Si O2"
_cell_formula_units_Z 64
_cell_length_a 8.629789
_cell_length_b 23.696283
_cell_length_c 19.647922
_cell_angle_alpha 90.000000
_cell_angle_beta 90.000000
_cell_angle_gamma 90.000000
_cell_volume 4017.880636
_symmetry_space_group_name_H-M "I M A 2"
_symmetry_group_IT_number 46
_symmetry_cell_setting 'orthorhombic'
loop_
_space_group_symop_operation_xyz
x,y,z
-x,-y,z
1/2-x,y,z
1/2+x,-y,z
1/2+x,1/2+y,1/2+z
1/2-x,1/2-y,1/2+z
-x,1/2+y,1/2+z
x,1/2-y,1/2+z
loop_
_atom_site_type_symbol
_atom_site_label
_atom_site_fract_x
_atom_site_fract_y
_atom_site_fract_z
Si Si1 0.935750 0.882808 0.668720
Si Si2 0.063603 0.162214 0.893347
Si Si3 0.934869 0.437010 0.030291
Si Si4 0.063196 0.250984 0.674002
Si Si5 0.934340 0.272264 0.817698
Si Si6 0.563563 0.660254 0.939547
Si Si7 0.934693 0.062374 0.806658
Si Si8 0.437841 0.228206 0.023604
O O1 0.750000 0.888659 0.665896
O O2 0.971388 0.816119 0.672569
O O3 0.006857 0.910022 0.601199
O O4 0.999133 0.913525 0.735605
O O5 0.250000 0.158233 0.890176
O O6 0.011096 0.214420 0.845846
O O7 0.989490 0.105578 0.864850
O O8 0.015585 0.180354 0.969702
O O9 0.750000 0.438003 0.029573
O O10 0.000000 0.500000 0.024589
O O11 0.998004 0.397041 0.970340
O O12 0.250000 0.256612 0.679807
O O13 0.010639 0.275780 0.601356
O O14 0.984447 0.277935 0.739631
O O15 0.750000 0.267992 0.823842
O O16 0.997775 0.321486 0.866527
O O17 0.750000 0.658537 0.937252
O O18 0.517480 0.711546 0.990716
O O19 0.750000 0.060984 0.803077
O O20 0.000000 0.000000 0.817976
O O21 0.250000 0.228318 0.024933
#
# Coordination Sequence:
#
# PCOD9378234 Si02
#       8
#     8   8   8   8   8   8   8   8
#     4  11  21  35  53  73 104 142 181 216 252 303
#     4  10  19  34  53  74 100 134 172 215 261 309
#     4  12  24  37  53  75 105 140 180 220 260 308
#     4  10  18  32  53  76 103 140 175 208 255 312
#     4  11  21  32  49  77 107 136 171 214 262 311
#     4  10  19  36  55  74 100 136 177 218 262 308
#     4  12  24  37  52  72 101 137 179 220 260 307
#     4   8  16  31  53  75  98 129 168 208 253 307
#
# _framework density 15.928796999999999
#
# number of rings (size 3 to 8) (size 9 to 14) (size 15 to 20)
#    0.000    1.500    2.500    5.625    0.000    0.500 
#    0.000    1.250    0.000    0.000    0.000    0.875 
#    0.000    2.000    0.000    0.000    0.000    0.000 
#
# Total GULP energy -178725.033660 kJ/mol
# GULP energy per Si atom -5585.157302 kJ/mol
# Density = 1.589254 g / cm^3
# Si number density = 15.928797 Si / 1000 Ang^3
#
#
#
# Elastic Constant Matrix: (Units=GPa)
#
#
# Indices 1 2 3 4 5 6 
#
# 1 79.1096 37.9139 41.3451 0.0000 0.0000 0.0000
# 2 37.9139 88.1218 65.4634 0.0000 0.0000 0.0000
# 3 41.3451 65.4634 144.1375 0.0000 0.0000 0.0000
# 4 0.0000 0.0000 0.0000 18.9443 0.0000 0.0000
# 5 0.0000 0.0000 0.0000 0.0000 21.7939 0.0000
# 6 0.0000 0.0000 0.0000 0.0000 0.0000 23.1329
#
#
#
# Elastic Compliance Matrix: (Units=1/GPa)
#
#
# Indices 1 2 3 4 5 6 
#
# 1 0.016399 -0.005374 -0.002263 0.000000 0.000000 0.000000
# 2 -0.005374 0.018888 -0.007037 0.000000 0.000000 0.000000
# 3 -0.002263 -0.007037 0.010783 0.000000 0.000000 0.000000
# 4 0.000000 0.000000 0.000000 0.052786 0.000000 0.000000
# 5 0.000000 0.000000 0.000000 0.000000 0.045884 0.000000
# 6 0.000000 0.000000 0.000000 0.000000 0.000000 0.043228
#
#
# Mechanical properties :
#
#
# Convention : Reuss Voigt Hill
#
# Bulk Modulus (GPa) = 59.80404 66.75708 63.28056
# Shear Modulus (GPa) = 22.43251 23.88399 23.15825
#
# Velocity S-wave (km/s) = 3.75680 3.87644 3.81709
# Velocity P-wave (km/s) = 7.51294 7.87632 7.69677
#
# Compressibility (1/GPa) = 0.01672128
#
# Stress axis : x y z
#
# Youngs Moduli (GPa) = 60.97860 52.94494 92.74020
#
# Poissons Ratio (x) = 0.28455 0.20988
# Poissons Ratio (y) = 0.32773 0.65257
# Poissons Ratio (z) = 0.13800 0.37255
#
# Static dielectric constant tensor:
#      x y z
#    x 1.530850 0.000000 0.000000 
#    y 0.000000 1.506250 0.000000 
#    z 0.000000 0.000000 1.539320 
# 
# From -- ./inp_files/18659.got.cif
#   From: 2010.05.17/outbox.cif.g08.bks.cpg/sg46_10_cif.got.tgz:18659.got - 2010.06.03 19:58:25.
