data_PCOD9378908
_publ_section_title
;
Structure prediction by ZEFSAII (Michael W. Deem and Ramdas Pophale) SiO2 
 PCOD9378908
Probable space group: I M A 2
;
_chemical_formula_sum "Si O2"
_cell_formula_units_Z 48
_cell_length_a 15.744543
_cell_length_b 7.224722
_cell_length_c 16.553781
_cell_angle_alpha 90.000000
_cell_angle_beta 90.000000
_cell_angle_gamma 90.000000
_cell_volume 1882.991698
_symmetry_space_group_name_H-M "I M A 2"
_symmetry_group_IT_number 46
_symmetry_cell_setting 'orthorhombic'
loop_
_space_group_symop_operation_xyz
x,y,z
-x,-y,z
1/2-x,y,z
1/2+x,-y,z
1/2+x,1/2+y,1/2+z
1/2-x,1/2-y,1/2+z
-x,1/2+y,1/2+z
x,1/2-y,1/2+z
loop_
_atom_site_type_symbol
_atom_site_label
_atom_site_fract_x
_atom_site_fract_y
_atom_site_fract_z
Si Si1 0.852252 0.193975 0.436180
Si Si2 0.402973 0.572067 0.096382
Si Si3 0.154455 0.178684 0.063272
Si Si4 0.400688 0.752836 0.767417
Si Si5 0.649891 0.771956 0.398885
Si Si6 0.904103 0.639695 0.738812
O O1 0.750000 0.202096 0.438444
O O2 0.887691 0.224701 0.526640
O O3 0.882127 0.312871 0.358777
O O4 0.883624 0.982761 0.413675
O O5 0.500000 0.500000 0.093375
O O6 0.342755 0.402577 0.071958
O O7 0.383191 0.628172 0.188200
O O8 0.250000 0.101445 0.070617
O O9 0.100721 0.138095 0.142471
O O10 0.116608 0.150205 0.973872
O O11 0.498508 0.688142 0.759254
O O12 0.356515 0.553866 0.756988
O O13 0.750000 0.775290 0.414009
O O14 0.638167 0.725134 0.305021
#
# Coordination Sequence:
#
# PCOD9378908 Si02
#       6
#     8   8   8   8   8   8
#     4   9  20  36  57  83 112 153 196 236 288 356
#     4  11  21  37  60  88 115 156 196 248 299 353
#     4  10  20  35  57  84 114 149 194 240 288 352
#     4  10  22  35  58  86 115 147 193 242 300 347
#     4   8  16  31  53  79 106 144 190 230 276 339
#     4  10  19  34  55  83 113 146 186 238 291 353
#
# _framework density 25.491350000000001
#
# number of rings (size 3 to 8) (size 9 to 14) (size 15 to 20)
#    0.000    2.333    1.667    2.000    7.000    2.000 
#    0.000    1.667    3.667    2.000    0.000    0.000 
#    0.000    0.000    0.000    0.000    0.000    0.000 
#
# Total GULP energy -133698.535842 kJ/mol
# GULP energy per Si atom -5570.772327 kJ/mol
# Density = 2.543333 g / cm^3
# Si number density = 25.491350 Si / 1000 Ang^3
#
#
#
# Elastic Constant Matrix: (Units=GPa)
#
#
# Indices 1 2 3 4 5 6 
#
# 1 53.7951 -4.9708 31.8929 0.0000 0.0000 0.0000
# 2 -4.9708 39.6290 36.5252 0.0000 0.0000 0.0000
# 3 31.8929 36.5252 269.9026 0.0000 0.0000 0.0000
# 4 0.0000 0.0000 0.0000 45.0679 0.0000 0.0000
# 5 0.0000 0.0000 0.0000 0.0000 37.7745 0.0000
# 6 0.0000 0.0000 0.0000 0.0000 0.0000 5.4504
#
#
#
# Elastic Compliance Matrix: (Units=1/GPa)
#
#
# Indices 1 2 3 4 5 6 
#
# 1 0.021035 0.005632 -0.003248 0.000000 0.000000 0.000000
# 2 0.005632 0.030338 -0.004771 0.000000 0.000000 0.000000
# 3 -0.003248 -0.004771 0.004734 0.000000 0.000000 0.000000
# 4 0.000000 0.000000 0.000000 0.022189 0.000000 0.000000
# 5 0.000000 0.000000 0.000000 0.000000 0.026473 0.000000
# 6 0.000000 0.000000 0.000000 0.000000 0.000000 0.183473
#
#
# Mechanical properties :
#
#
# Convention : Reuss Voigt Hill
#
# Bulk Modulus (GPa) = 19.48053 54.46904 36.97478
# Shear Modulus (GPa) = 16.12242 37.65052 26.88647
#
# Velocity S-wave (km/s) = 2.51762 3.84733 3.25118
# Velocity P-wave (km/s) = 4.01370 6.41483 5.35069
#
# Compressibility (1/GPa) = 0.05133332
#
# Stress axis : x y z
#
# Youngs Moduli (GPa) = 47.54008 32.96220 211.21765
#
# Poissons Ratio (x) = -0.18564 0.68598
# Poissons Ratio (y) = -0.26774 1.00772
# Poissons Ratio (z) = 0.15440 0.15726
#
# Static dielectric constant tensor:
#      x y z
#    x 1.857910 0.000000 0.000000 
#    y 0.000000 2.252360 0.000000 
#    z 0.000000 0.000000 2.197930 
# 
# From -- ./inp_files/16499.got.cif
#   From: 2010.05.17/outbox.cif.g08.bks.cpg/sg46_9_cif.got.tgz:16499.got - 2010.06.03 19:58:25.
