data_PCOD9378006
_publ_section_title
;
Structure prediction by ZEFSAII (Michael W. Deem and Ramdas Pophale) SiO2 
 PCOD9378006
Probable space group: I M A 2
;
_chemical_formula_sum "Si O2"
_cell_formula_units_Z 56
_cell_length_a 9.076484
_cell_length_b 18.813798
_cell_length_c 21.292940
_cell_angle_alpha 90.000000
_cell_angle_beta 90.000000
_cell_angle_gamma 90.000000
_cell_volume 3636.049220
_symmetry_space_group_name_H-M "I M A 2"
_symmetry_group_IT_number 46
_symmetry_cell_setting 'orthorhombic'
loop_
_space_group_symop_operation_xyz
x,y,z
-x,-y,z
1/2-x,y,z
1/2+x,-y,z
1/2+x,1/2+y,1/2+z
1/2-x,1/2-y,1/2+z
-x,1/2+y,1/2+z
x,1/2-y,1/2+z
loop_
_atom_site_type_symbol
_atom_site_label
_atom_site_fract_x
_atom_site_fract_y
_atom_site_fract_z
Si Si1 0.574696 0.076379 0.503960
Si Si2 0.926883 0.848767 0.888016
Si Si3 0.575828 0.706463 0.947884
Si Si4 0.423334 0.850604 0.639550
Si Si5 0.925750 0.922950 0.756716
Si Si6 0.424105 0.925478 0.006912
Si Si7 0.423434 0.781042 0.063828
O O1 0.750000 0.071065 0.497531
O O2 0.510715 0.132799 0.453946
O O3 0.544627 0.108345 0.573913
O O4 0.500000 0.000000 0.498212
O O5 0.750000 0.855550 0.897839
O O6 0.962369 0.764791 0.894840
O O7 0.963945 0.880838 0.820483
O O8 0.008453 0.892161 0.943020
O O9 0.750000 0.692895 0.946596
O O10 0.529145 0.748561 0.010979
O O11 0.250000 0.861292 0.653136
O O12 0.518036 0.881001 0.695864
O O13 0.447881 0.766943 0.625007
O O14 0.750000 0.930913 0.754203
O O15 0.000000 0.000000 0.757886
O O16 0.250000 0.935745 0.998178
O O17 0.445390 0.865346 0.060693
O O18 0.500000 0.000000 0.020814
O O19 0.250000 0.768170 0.045944
#
# Coordination Sequence:
#
# PCOD9378006 Si02
#       7
#     8   8   8   8   8   8   8
#     4  10  19  30  45  67  93 118 146 181 222 265
#     4   9  19  33  46  63  89 120 152 184 217 257
#     4   9  16  28  46  65  86 113 145 182 223 264
#     4   9  18  32  47  63  86 117 151 184 217 256
#     4  11  22  33  45  64  90 120 153 184 214 251
#     4  10  18  28  45  68  92 117 145 180 222 265
#     4   8  16  30  45  62  86 115 146 181 220 264
#
# _framework density 15.401332
#
# number of rings (size 3 to 8) (size 9 to 14) (size 15 to 20)
#    0.000    2.571    0.000    3.429    0.000    7.429 
#    0.000    0.000    0.000    0.000    0.000    1.000 
#    0.000    4.571    0.000    0.000    0.000    0.000 
#
# Total GULP energy -155963.629782 kJ/mol
# GULP energy per Si atom -5570.129635 kJ/mol
# Density = 1.536628 g / cm^3
# Si number density = 15.401332 Si / 1000 Ang^3
#
#
#
# Elastic Constant Matrix: (Units=GPa)
#
#
# Indices 1 2 3 4 5 6 
#
# 1 54.5833 66.1345 39.6157 0.0000 0.0000 0.0000
# 2 66.1345 155.6406 59.0442 0.0000 0.0000 0.0000
# 3 39.6157 59.0442 66.5716 0.0000 0.0000 0.0000
# 4 0.0000 0.0000 0.0000 21.7368 0.0000 0.0000
# 5 0.0000 0.0000 0.0000 0.0000 16.6333 0.0000
# 6 0.0000 0.0000 0.0000 0.0000 0.0000 25.3829
#
#
#
# Elastic Compliance Matrix: (Units=1/GPa)
#
#
# Indices 1 2 3 4 5 6 
#
# 1 0.046074 -0.013830 -0.015152 0.000000 0.000000 0.000000
# 2 -0.013830 0.013834 -0.004040 0.000000 0.000000 0.000000
# 3 -0.015152 -0.004040 0.027622 0.000000 0.000000 0.000000
# 4 0.000000 0.000000 0.000000 0.046005 0.000000 0.000000
# 5 0.000000 0.000000 0.000000 0.000000 0.060120 0.000000
# 6 0.000000 0.000000 0.000000 0.000000 0.000000 0.039397
#
#
# Mechanical properties :
#
#
# Convention : Reuss Voigt Hill
#
# Bulk Modulus (GPa) = 46.54180 67.37605 56.95892
# Shear Modulus (GPa) = 16.32615 20.21734 18.27175
#
# Velocity S-wave (km/s) = 3.25937 3.62705 3.44812
# Velocity P-wave (km/s) = 6.66705 7.83470 7.27434
#
# Compressibility (1/GPa) = 0.02148606
#
# Stress axis : x y z
#
# Youngs Moduli (GPa) = 21.70423 72.28485 36.20361
#
# Poissons Ratio (x) = 0.99966 0.54856
# Poissons Ratio (y) = 0.30016 0.14627
# Poissons Ratio (z) = 0.32887 0.29204
#
# Static dielectric constant tensor:
#      x y z
#    x 1.514100 0.000000 0.000000 
#    y 0.000000 1.538740 0.000000 
#    z 0.000000 0.000000 1.490080 
# 
# From -- ./inp_files/21205.got.cif
#   From: 2010.05.17/outbox.cif.g08.bks.cpg/sg46_11_cif.got.tgz:21205.got - 2010.06.03 19:58:25.
