data_PCOD9378481
_publ_section_title
;
Structure prediction by ZEFSAII (Michael W. Deem and Ramdas Pophale) SiO2 
 PCOD9378481
Probable space group: I M A 2
;
_chemical_formula_sum "Si O2"
_cell_formula_units_Z 56
_cell_length_a 8.188666
_cell_length_b 21.457572
_cell_length_c 14.400593
_cell_angle_alpha 90.000000
_cell_angle_beta 90.000000
_cell_angle_gamma 90.000000
_cell_volume 2530.312215
_symmetry_space_group_name_H-M "I M A 2"
_symmetry_group_IT_number 46
_symmetry_cell_setting 'orthorhombic'
loop_
_space_group_symop_operation_xyz
x,y,z
-x,-y,z
1/2-x,y,z
1/2+x,-y,z
1/2+x,1/2+y,1/2+z
1/2-x,1/2-y,1/2+z
-x,1/2+y,1/2+z
x,1/2-y,1/2+z
loop_
_atom_site_type_symbol
_atom_site_label
_atom_site_fract_x
_atom_site_fract_y
_atom_site_fract_z
Si Si1 0.943171 0.933828 0.973300
Si Si2 0.063610 0.337305 0.926985
Si Si3 0.935827 0.431605 0.787457
Si Si4 0.565852 0.337698 0.616886
Si Si5 0.053671 0.254109 0.271294
Si Si6 0.447754 0.432920 0.071111
Si Si7 0.050243 0.397716 0.273180
O O1 0.750000 0.937441 0.968887
O O2 0.010682 0.927652 0.868598
O O3 0.000000 0.000000 0.015011
O O4 0.984325 0.870777 0.029114
O O5 0.250000 0.318805 0.949310
O O6 0.988060 0.282759 0.862892
O O7 0.056121 0.395238 0.855796
O O8 0.991249 0.370638 0.017869
O O9 0.750000 0.431444 0.825074
O O10 0.932709 0.393104 0.692651
O O11 0.000000 0.500000 0.771752
O O12 0.750000 0.320283 0.592167
O O13 0.489125 0.281098 0.675365
O O14 0.250000 0.251984 0.278725
O O15 0.001411 0.325299 0.271077
O O16 0.500000 0.500000 0.030818
O O17 0.250000 0.430581 0.067478
O O18 0.503837 0.429079 0.177677
O O19 0.250000 0.399529 0.273936
#
# Coordination Sequence:
#
# PCOD9378481 Si02
#       7
#     8   8   8   8   8   8   8
#     4  11  22  37  58  84 113 149 191 236 284 334
#     4   9  18  31  51  77 105 136 172 215 264 318
#     4  10  19  30  47  71 103 138 173 215 265 320
#     4  10  21  36  54  80 112 145 181 226 278 335
#     4   9  18  36  59  83 110 143 182 223 272 331
#     4  10  20  35  54  79 109 141 179 223 268 319
#     4   9  20  37  58  82 109 144 188 232 273 323
#
# _framework density 22.131656
#
# number of rings (size 3 to 8) (size 9 to 14) (size 15 to 20)
#    0.000    2.286    0.000    2.571    0.000    5.714 
#    0.000    7.143    0.000    3.429    0.000    0.000 
#    0.000    0.000    0.000    0.000    0.000    0.000 
#
# Total GULP energy -156189.198040 kJ/mol
# GULP energy per Si atom -5578.185644 kJ/mol
# Density = 2.208128 g / cm^3
# Si number density = 22.131656 Si / 1000 Ang^3
#
#
#
# Elastic Constant Matrix: (Units=GPa)
#
#
# Indices 1 2 3 4 5 6 
#
# 1 29.7733 -0.1077 3.0213 0.0000 0.0000 0.0000
# 2 -0.1077 107.9133 12.0929 0.0000 0.0000 0.0000
# 3 3.0213 12.0929 84.4944 0.0000 0.0000 0.0000
# 4 0.0000 0.0000 0.0000 27.0877 0.0000 0.0000
# 5 0.0000 0.0000 0.0000 0.0000 9.7348 0.0000
# 6 0.0000 0.0000 0.0000 0.0000 0.0000 16.2646
#
#
#
# Elastic Compliance Matrix: (Units=1/GPa)
#
#
# Indices 1 2 3 4 5 6 
#
# 1 0.033713 0.000171 -0.001230 0.000000 0.000000 0.000000
# 2 0.000171 0.009419 -0.001354 0.000000 0.000000 0.000000
# 3 -0.001230 -0.001354 0.012073 0.000000 0.000000 0.000000
# 4 0.000000 0.000000 0.000000 0.036917 0.000000 0.000000
# 5 0.000000 0.000000 0.000000 0.000000 0.102724 0.000000
# 6 0.000000 0.000000 0.000000 0.000000 0.000000 0.061483
#
#
# Mechanical properties :
#
#
# Convention : Reuss Voigt Hill
#
# Bulk Modulus (GPa) = 19.84967 28.02157 23.93562
# Shear Modulus (GPa) = 17.98906 24.42906 21.20906
#
# Velocity S-wave (km/s) = 2.85409 3.32596 3.09902
# Velocity P-wave (km/s) = 4.45528 5.23814 4.86249
#
# Compressibility (1/GPa) = 0.05037868
#
# Stress axis : x y z
#
# Youngs Moduli (GPa) = 29.66254 106.17269 82.83025
#
# Poissons Ratio (x) = -0.01821 0.10188
# Poissons Ratio (y) = -0.00509 0.11216
# Poissons Ratio (z) = 0.03649 0.14377
#
# Static dielectric constant tensor:
#      x y z
#    x 1.817840 0.000000 0.000000 
#    y 0.000000 1.788200 0.000000 
#    z 0.000000 0.000000 1.870400 
# 
# From -- ./inp_files/14142.got.cif
#   From: 2010.05.17/outbox.cif.g08.bks.cpg/sg46_8_cif.got.tgz:14142.got - 2010.06.03 19:58:25.
