data_PCOD9378576
_publ_section_title
;
Structure prediction by ZEFSAII (Michael W. Deem and Ramdas Pophale) SiO2 
 PCOD9378576
Probable space group: I M A 2
;
_chemical_formula_sum "Si O2"
_cell_formula_units_Z 64
_cell_length_a 13.913479
_cell_length_b 12.496547
_cell_length_c 19.226011
_cell_angle_alpha 90.000000
_cell_angle_beta 90.000000
_cell_angle_gamma 90.000000
_cell_volume 3342.835074
_symmetry_space_group_name_H-M "I M A 2"
_symmetry_group_IT_number 46
_symmetry_cell_setting 'orthorhombic'
loop_
_space_group_symop_operation_xyz
x,y,z
-x,-y,z
1/2-x,y,z
1/2+x,-y,z
1/2+x,1/2+y,1/2+z
1/2-x,1/2-y,1/2+z
-x,1/2+y,1/2+z
x,1/2-y,1/2+z
loop_
_atom_site_type_symbol
_atom_site_label
_atom_site_fract_x
_atom_site_fract_y
_atom_site_fract_z
Si Si1 0.366050 0.380768 0.762930
Si Si2 0.135108 0.357962 0.612763
Si Si3 0.135706 0.530062 0.206656
Si Si4 0.548186 0.612818 0.463392
Si Si5 0.972547 0.341358 0.977006
Si Si6 0.483818 0.358233 0.131913
Si Si7 0.863106 0.976319 0.407633
Si Si8 0.363684 0.351241 0.315919
O O1 0.250000 0.374040 0.763541
O O2 0.389779 0.419196 0.684881
O O3 0.390547 0.456833 0.827215
O O4 0.402180 0.260017 0.782254
O O5 0.250000 0.341110 0.611000
O O6 0.102181 0.398765 0.537448
O O7 0.076893 0.249011 0.624990
O O8 0.250000 0.550047 0.203463
O O9 0.096395 0.448116 0.147862
O O10 0.110987 0.461135 0.275672
O O11 0.066348 0.630502 0.191050
O O12 0.500000 0.500000 0.448458
O O13 0.475926 0.713859 0.469329
O O14 0.612474 0.641731 0.396837
O O15 0.894309 0.406678 0.933435
O O16 0.074401 0.390992 0.951328
O O17 0.964505 0.369809 0.057843
O O18 0.750000 0.958361 0.416509
O O19 0.250000 0.344354 0.306837
#
# Coordination Sequence:
#
# PCOD9378576 Si02
#       8
#     8   8   8   8   8   8   8   8
#     4   9  17  32  58  88 111 142 194 250 302 348
#     4  10  20  38  60  83 115 153 200 253 293 348
#     4  10  19  31  51  84 120 151 190 242 305 360
#     4  11  24  39  56  84 122 163 206 247 296 361
#     4  10  22  37  54  90 120 151 202 241 300 369
#     4  10  20  31  52  84 117 153 198 239 301 360
#     4  10  19  35  60  88 116 146 189 249 306 353
#     4  10  19  34  56  84 114 153 202 250 303 354
#
# _framework density 19.145426
#
# number of rings (size 3 to 8) (size 9 to 14) (size 15 to 20)
#    0.000    2.000    2.500    2.250    1.750    4.000 
#    2.250    1.250    0.000    1.500    0.000    0.000 
#    0.000    0.000    0.000    0.000    0.000    0.000 
#
# Total GULP energy -178187.666191 kJ/mol
# GULP energy per Si atom -5568.364568 kJ/mol
# Density = 1.910185 g / cm^3
# Si number density = 19.145426 Si / 1000 Ang^3
#
#
#
# Elastic Constant Matrix: (Units=GPa)
#
#
# Indices 1 2 3 4 5 6 
#
# 1 62.7591 2.1975 -0.5559 0.0000 0.0000 0.0000
# 2 2.1975 46.7974 9.3454 0.0000 0.0000 0.0000
# 3 -0.5559 9.3454 120.2387 0.0000 0.0000 0.0000
# 4 0.0000 0.0000 0.0000 31.0765 0.0000 0.0000
# 5 0.0000 0.0000 0.0000 0.0000 28.2431 0.0000
# 6 0.0000 0.0000 0.0000 0.0000 0.0000 12.1365
#
#
#
# Elastic Compliance Matrix: (Units=1/GPa)
#
#
# Indices 1 2 3 4 5 6 
#
# 1 0.015962 -0.000776 0.000134 0.000000 0.000000 0.000000
# 2 -0.000776 0.021743 -0.001694 0.000000 0.000000 0.000000
# 3 0.000134 -0.001694 0.008449 0.000000 0.000000 0.000000
# 4 0.000000 0.000000 0.000000 0.032179 0.000000 0.000000
# 5 0.000000 0.000000 0.000000 0.000000 0.035407 0.000000
# 6 0.000000 0.000000 0.000000 0.000000 0.000000 0.082396
#
#
# Mechanical properties :
#
#
# Convention : Reuss Voigt Hill
#
# Bulk Modulus (GPa) = 24.10611 27.97433 26.04022
# Shear Modulus (GPa) = 23.29533 28.87844 26.08689
#
# Velocity S-wave (km/s) = 3.49199 3.88799 3.69530
# Velocity P-wave (km/s) = 5.37374 5.89903 5.64250
#
# Compressibility (1/GPa) = 0.04148325
#
# Stress axis : x y z
#
# Youngs Moduli (GPa) = 62.64751 45.99099 118.35661
#
# Poissons Ratio (x) = 0.03570 -0.01588
# Poissons Ratio (y) = 0.04863 0.20044
# Poissons Ratio (z) = -0.00840 0.07789
#
# Static dielectric constant tensor:
#      x y z
#    x 1.662580 0.000000 0.000000 
#    y 0.000000 1.718000 0.000000 
#    z 0.000000 0.000000 1.720640 
# 
# From -- ./inp_files/19616.got.cif
#   From: 2010.05.17/outbox.cif.g08.bks.cpg/sg46_10_cif.got.tgz:19616.got - 2010.06.03 19:58:25.
