data_PCOD9378541
_publ_section_title
;
Structure prediction by ZEFSAII (Michael W. Deem and Ramdas Pophale) SiO2 
 PCOD9378541
Probable space group: I M A 2
;
_chemical_formula_sum "Si O2"
_cell_formula_units_Z 48
_cell_length_a 8.939842
_cell_length_b 24.511629
_cell_length_c 13.828230
_cell_angle_alpha 90.000000
_cell_angle_beta 90.000000
_cell_angle_gamma 90.000000
_cell_volume 3030.181290
_symmetry_space_group_name_H-M "I M A 2"
_symmetry_group_IT_number 46
_symmetry_cell_setting 'orthorhombic'
loop_
_space_group_symop_operation_xyz
x,y,z
-x,-y,z
1/2-x,y,z
1/2+x,-y,z
1/2+x,1/2+y,1/2+z
1/2-x,1/2-y,1/2+z
-x,1/2+y,1/2+z
x,1/2-y,1/2+z
loop_
_atom_site_type_symbol
_atom_site_label
_atom_site_fract_x
_atom_site_fract_y
_atom_site_fract_z
Si Si1 0.428097 0.225534 0.355630
Si Si2 0.571852 0.229652 0.557400
Si Si3 0.429254 0.558030 0.572236
Si Si4 0.571033 0.665865 0.656589
Si Si5 0.070582 0.829110 0.756124
Si Si6 0.071078 0.942857 0.844497
O O1 0.250000 0.227964 0.367742
O O2 0.505559 0.210468 0.455964
O O3 0.461829 0.184998 0.266422
O O4 0.489895 0.284415 0.322436
O O5 0.750000 0.237204 0.549974
O O6 0.497004 0.286924 0.588292
O O7 0.541275 0.188017 0.645476
O O8 0.500000 0.500000 0.600942
O O9 0.250000 0.556696 0.582498
O O10 0.498500 0.608342 0.630152
O O11 0.464893 0.566015 0.458005
O O12 0.750000 0.663996 0.644350
O O13 0.250000 0.824806 0.772231
O O14 0.022974 0.889935 0.784324
O O15 0.250000 0.947457 0.837043
O O16 0.000000 0.000000 0.813656
#
# Coordination Sequence:
#
# PCOD9378541 Si02
#       6
#     8   8   8   8   8   8
#     4  10  20  32  48  71  98 126 157 196 240 284
#     4  10  19  31  49  71  96 127 160 195 237 286
#     4  10  19  31  49  72  98 128 159 194 238 286
#     4  10  20  33  49  71  98 126 159 199 241 285
#     4   9  18  32  49  70  96 125 159 195 232 280
#     4   9  18  31  47  69  95 122 153 189 230 277
#
# _framework density 15.840635000000001
#
# number of rings (size 3 to 8) (size 9 to 14) (size 15 to 20)
#    0.000    2.333    0.000    3.000    0.000    5.333 
#    0.000    0.000    0.000    1.000    0.000    4.667 
#    0.000    0.000    0.000    0.000    0.000    0.000 
#
# Total GULP energy -133907.267538 kJ/mol
# GULP energy per Si atom -5579.469481 kJ/mol
# Density = 1.580458 g / cm^3
# Si number density = 15.840635 Si / 1000 Ang^3
#
#
#
# Elastic Constant Matrix: (Units=GPa)
#
#
# Indices 1 2 3 4 5 6 
#
# 1 51.9647 53.8883 46.7853 0.0000 0.0000 0.0000
# 2 53.8883 153.1018 59.1250 0.0000 0.0000 0.0000
# 3 46.7853 59.1250 81.1502 0.0000 0.0000 0.0000
# 4 0.0000 0.0000 0.0000 17.5393 0.0000 0.0000
# 5 0.0000 0.0000 0.0000 0.0000 26.5088 0.0000
# 6 0.0000 0.0000 0.0000 0.0000 0.0000 29.2256
#
#
#
# Elastic Compliance Matrix: (Units=1/GPa)
#
#
# Indices 1 2 3 4 5 6 
#
# 1 0.046668 -0.008399 -0.020786 0.000000 0.000000 0.000000
# 2 -0.008399 0.010600 -0.002881 0.000000 0.000000 0.000000
# 3 -0.020786 -0.002881 0.026406 0.000000 0.000000 0.000000
# 4 0.000000 0.000000 0.000000 0.057015 0.000000 0.000000
# 5 0.000000 0.000000 0.000000 0.000000 0.037723 0.000000
# 6 0.000000 0.000000 0.000000 0.000000 0.000000 0.034217
#
#
# Mechanical properties :
#
#
# Convention : Reuss Voigt Hill
#
# Bulk Modulus (GPa) = 51.17200 67.31266 59.24233
# Shear Modulus (GPa) = 17.65073 23.08262 20.36667
#
# Velocity S-wave (km/s) = 3.34169 3.82144 3.58959
# Velocity P-wave (km/s) = 6.87485 7.87763 7.39326
#
# Compressibility (1/GPa) = 0.01954194
#
# Stress axis : x y z
#
# Youngs Moduli (GPa) = 21.42811 94.33561 37.87063
#
# Poissons Ratio (x) = 0.79231 0.78718
# Poissons Ratio (y) = 0.17997 0.10911
# Poissons Ratio (z) = 0.44540 0.27180
#
# Static dielectric constant tensor:
#      x y z
#    x 1.527680 0.000000 0.000000 
#    y 0.000000 1.504510 0.000000 
#    z 0.000000 0.000000 1.525140 
# 
# From -- ./inp_files/9292.got.cif
#   From: 2010.05.17/outbox.cif.g08.bks.cpg/sg46_5_cif.got.tgz:9292.got - 2010.06.03 19:58:25.
