data_PCOD9378201
_publ_section_title
;
Structure prediction by ZEFSAII (Michael W. Deem and Ramdas Pophale) SiO2 
 PCOD9378201
Probable space group: I M A 2
;
_chemical_formula_sum "Si O2"
_cell_formula_units_Z 64
_cell_length_a 18.796208
_cell_length_b 14.998735
_cell_length_c 11.795415
_cell_angle_alpha 90.000000
_cell_angle_beta 90.000000
_cell_angle_gamma 90.000000
_cell_volume 3325.355645
_symmetry_space_group_name_H-M "I M A 2"
_symmetry_group_IT_number 46
_symmetry_cell_setting 'orthorhombic'
loop_
_space_group_symop_operation_xyz
x,y,z
-x,-y,z
1/2-x,y,z
1/2+x,-y,z
1/2+x,1/2+y,1/2+z
1/2-x,1/2-y,1/2+z
-x,1/2+y,1/2+z
x,1/2-y,1/2+z
loop_
_atom_site_type_symbol
_atom_site_label
_atom_site_fract_x
_atom_site_fract_y
_atom_site_fract_z
Si Si1 0.454553 0.582957 0.986080
Si Si2 0.482419 0.403198 0.232887
Si Si3 0.330323 0.490971 0.904626
Si Si4 0.540329 0.280173 0.786234
Si Si5 0.332881 0.882651 0.180452
Si Si6 0.665393 0.948701 0.046503
Si Si7 0.832370 0.863618 0.802469
Si Si8 0.882142 0.833837 0.259567
O O1 0.500000 0.500000 0.934241
O O2 0.375891 0.542632 0.997018
O O3 0.451855 0.667511 0.904483
O O4 0.487821 0.603908 0.106040
O O5 0.500000 0.500000 0.280494
O O6 0.521920 0.323892 0.299397
O O7 0.397248 0.395854 0.225008
O O8 0.250000 0.472473 0.938110
O O9 0.330270 0.555360 0.793615
O O10 0.368184 0.401537 0.862479
O O11 0.608710 0.306838 0.709701
O O12 0.465486 0.317178 0.738275
O O13 0.250000 0.853739 0.159637
O O14 0.359744 0.951785 0.083005
O O15 0.750000 0.958673 0.047595
O O16 0.646789 0.879991 0.146394
O O17 0.647981 0.905444 0.925437
O O18 0.750000 0.885930 0.776850
O O19 0.842529 0.757013 0.794010
#
# Coordination Sequence:
#
# PCOD9378201 Si02
#       8
#     8   8   8   8   8   8   8   8
#     4  10  19  38  60  79 118 153 189 245 296 341
#     4  10  24  43  57  81 122 157 192 245 297 347
#     4   9  16  29  55  86 114 147 188 241 298 343
#     4  10  20  35  62  85 112 153 200 238 298 349
#     4   8  16  32  55  85 116 144 191 254 296 335
#     4   9  18  33  52  81 122 156 190 250 301 338
#     4  10  21  38  58  81 118 160 194 233 296 367
#     4  10  18  31  55  89 121 148 194 245 292 356
#
# _framework density 19.246061999999998
#
# number of rings (size 3 to 8) (size 9 to 14) (size 15 to 20)
#    0.000    2.500    1.250    1.875    0.000    4.000 
#    4.500    3.750    0.000    0.000    0.000    0.000 
#    0.000    0.000    0.000    0.000    0.000    0.000 
#
# Total GULP energy -178190.733094 kJ/mol
# GULP energy per Si atom -5568.460409 kJ/mol
# Density = 1.920226 g / cm^3
# Si number density = 19.246062 Si / 1000 Ang^3
#
#
#
# Elastic Constant Matrix: (Units=GPa)
#
#
# Indices 1 2 3 4 5 6 
#
# 1 111.8448 47.2666 25.2017 0.0000 0.0000 0.0000
# 2 47.2666 103.7681 5.5327 0.0000 0.0000 0.0000
# 3 25.2017 5.5327 22.7489 0.0000 0.0000 0.0000
# 4 0.0000 0.0000 0.0000 17.0241 0.0000 0.0000
# 5 0.0000 0.0000 0.0000 0.0000 26.7870 0.0000
# 6 0.0000 0.0000 0.0000 0.0000 0.0000 19.5887
#
#
#
# Elastic Compliance Matrix: (Units=1/GPa)
#
#
# Indices 1 2 3 4 5 6 
#
# 1 0.014836 -0.005959 -0.014986 0.000000 0.000000 0.000000
# 2 -0.005959 0.012157 0.003645 0.000000 0.000000 0.000000
# 3 -0.014986 0.003645 0.059674 0.000000 0.000000 0.000000
# 4 0.000000 0.000000 0.000000 0.058740 0.000000 0.000000
# 5 0.000000 0.000000 0.000000 0.000000 0.037332 0.000000
# 6 0.000000 0.000000 0.000000 0.000000 0.000000 0.051050
#
#
# Mechanical properties :
#
#
# Convention : Reuss Voigt Hill
#
# Bulk Modulus (GPa) = 19.20652 43.81818 31.51235
# Shear Modulus (GPa) = 17.49812 23.37067 20.43440
#
# Velocity S-wave (km/s) = 3.01853 3.48847 3.26198
# Velocity P-wave (km/s) = 4.70636 6.24842 5.53139
#
# Compressibility (1/GPa) = 0.05206565
#
# Stress axis : x y z
#
# Youngs Moduli (GPa) = 67.40337 82.25849 16.75774
#
# Poissons Ratio (x) = 0.49016 0.25114
# Poissons Ratio (y) = 0.40164 -0.06108
# Poissons Ratio (z) = 1.01014 -0.29980
#
# Static dielectric constant tensor:
#      x y z
#    x 1.702050 0.000000 0.000000 
#    y 0.000000 1.714430 0.000000 
#    z 0.000000 0.000000 1.692690 
# 
# From -- ./inp_files/11995.got.cif
#   From: 2010.05.17/outbox.cif.g08.bks.cpg/sg46_6_cif.got.tgz:11995.got - 2010.06.03 19:58:25.
