data_PCOD9378173
_publ_section_title
;
Structure prediction by ZEFSAII (Michael W. Deem and Ramdas Pophale) SiO2 
 PCOD9378173
Probable space group: I M A 2
;
_chemical_formula_sum "Si O2"
_cell_formula_units_Z 64
_cell_length_a 16.087187
_cell_length_b 9.549920
_cell_length_c 22.007735
_cell_angle_alpha 90.000000
_cell_angle_beta 90.000000
_cell_angle_gamma 90.000000
_cell_volume 3381.078014
_symmetry_space_group_name_H-M "I M A 2"
_symmetry_group_IT_number 46
_symmetry_cell_setting 'orthorhombic'
loop_
_space_group_symop_operation_xyz
x,y,z
-x,-y,z
1/2-x,y,z
1/2+x,-y,z
1/2+x,1/2+y,1/2+z
1/2-x,1/2-y,1/2+z
-x,1/2+y,1/2+z
x,1/2-y,1/2+z
loop_
_atom_site_type_symbol
_atom_site_label
_atom_site_fract_x
_atom_site_fract_y
_atom_site_fract_z
Si Si1 0.350818 0.223739 0.155010
Si Si2 0.911714 0.936862 0.563875
Si Si3 0.090487 0.441147 0.254296
Si Si4 0.081499 0.903767 0.344683
Si Si5 0.029244 0.348895 0.384471
Si Si6 0.154752 0.859218 0.667259
Si Si7 0.656316 0.878441 0.435481
Si Si8 0.649628 0.425251 0.708715
O O1 0.250000 0.238908 0.145390
O O2 0.401148 0.287902 0.098249
O O3 0.377602 0.313794 0.213738
O O4 0.371501 0.066327 0.173536
O O5 0.855441 0.927859 0.504541
O O6 0.884588 0.042623 0.616961
O O7 0.000000 0.000000 0.543535
O O8 0.079135 0.393216 0.323179
O O9 0.149005 0.568226 0.233566
O O10 0.000000 0.500000 0.234962
O O11 0.119660 0.911733 0.277730
O O12 0.049170 0.749540 0.364563
O O13 0.138296 0.987289 0.392617
O O14 0.000000 0.000000 0.342104
O O15 0.089606 0.245729 0.422222
O O16 0.000000 0.500000 0.410983
O O17 0.250000 0.844951 0.649918
O O18 0.114817 0.708057 0.672866
O O19 0.750000 0.828145 0.424528
O O20 0.750000 0.418109 0.710251
#
# Coordination Sequence:
#
# PCOD9378173 Si02
#       8
#     8   8   8   8   8   8   8   8
#     4  10  19  32  52  79 112 145 181 227 276 328
#     4  11  22  39  59  79 104 142 192 235 278 335
#     4  10  18  31  51  78 108 144 181 218 268 329
#     4  10  20  35  57  84 115 152 192 233 279 337
#     4  10  21  37  58  85 119 150 187 239 291 342
#     4  10  20  34  54  81 114 149 186 228 277 337
#     4  11  23  41  63  83 109 150 197 238 284 346
#     4  10  20  33  52  83 118 146 179 228 283 334
#
# _framework density 18.928875000000001
#
# number of rings (size 3 to 8) (size 9 to 14) (size 15 to 20)
#    0.000    1.750    0.000    8.250    0.000    3.000 
#    0.000    3.750    0.000    0.000    0.000    0.000 
#    0.000    0.000    0.000    0.000    0.000    0.000 
#
# Total GULP energy -178356.006910 kJ/mol
# GULP energy per Si atom -5573.625216 kJ/mol
# Density = 1.888579 g / cm^3
# Si number density = 18.928875 Si / 1000 Ang^3
#
#
#
# Elastic Constant Matrix: (Units=GPa)
#
#
# Indices 1 2 3 4 5 6 
#
# 1 48.0944 20.1489 14.0476 0.0000 0.0000 0.0000
# 2 20.1489 137.7512 29.9719 0.0000 0.0000 0.0000
# 3 14.0476 29.9719 69.5510 0.0000 0.0000 0.0000
# 4 0.0000 0.0000 0.0000 11.3156 0.0000 0.0000
# 5 0.0000 0.0000 0.0000 0.0000 29.4040 0.0000
# 6 0.0000 0.0000 0.0000 0.0000 0.0000 5.9995
#
#
#
# Elastic Compliance Matrix: (Units=1/GPa)
#
#
# Indices 1 2 3 4 5 6 
#
# 1 0.022901 -0.002586 -0.003511 0.000000 0.000000 0.000000
# 2 -0.002586 0.008303 -0.003056 0.000000 0.000000 0.000000
# 3 -0.003511 -0.003056 0.016404 0.000000 0.000000 0.000000
# 4 0.000000 0.000000 0.000000 0.088374 0.000000 0.000000
# 5 0.000000 0.000000 0.000000 0.000000 0.034009 0.000000
# 6 0.000000 0.000000 0.000000 0.000000 0.000000 0.166681
#
#
# Mechanical properties :
#
#
# Convention : Reuss Voigt Hill
#
# Bulk Modulus (GPa) = 34.12671 42.63704 38.38188
# Shear Modulus (GPa) = 13.70823 22.09236 17.90029
#
# Velocity S-wave (km/s) = 2.69401 3.42003 3.07850
# Velocity P-wave (km/s) = 5.26735 6.17812 5.74083
#
# Compressibility (1/GPa) = 0.02930256
#
# Stress axis : x y z
#
# Youngs Moduli (GPa) = 43.66563 120.44529 60.96129
#
# Poissons Ratio (x) = 0.31145 0.21405
# Poissons Ratio (y) = 0.11291 0.18627
# Poissons Ratio (z) = 0.15332 0.36803
#
# Static dielectric constant tensor:
#      x y z
#    x 1.678700 0.000000 0.000000 
#    y 0.000000 1.709590 0.000000 
#    z 0.000000 0.000000 1.642740 
# 
# From -- ./inp_files/23707.got.cif
#   From: 2010.05.17/outbox.cif.g08.bks.cpg/sg46_12_cif.got.tgz:23707.got - 2010.06.03 19:58:25.
