data_PCOD9378658
_publ_section_title
;
Structure prediction by ZEFSAII (Michael W. Deem and Ramdas Pophale) SiO2 
 PCOD9378658
Probable space group: I M A 2
;
_chemical_formula_sum "Si O2"
_cell_formula_units_Z 64
_cell_length_a 9.525750
_cell_length_b 29.034348
_cell_length_c 11.450609
_cell_angle_alpha 90.000000
_cell_angle_beta 90.000000
_cell_angle_gamma 90.000000
_cell_volume 3166.940052
_symmetry_space_group_name_H-M "I M A 2"
_symmetry_group_IT_number 46
_symmetry_cell_setting 'orthorhombic'
loop_
_space_group_symop_operation_xyz
x,y,z
-x,-y,z
1/2-x,y,z
1/2+x,-y,z
1/2+x,1/2+y,1/2+z
1/2-x,1/2-y,1/2+z
-x,1/2+y,1/2+z
x,1/2-y,1/2+z
loop_
_atom_site_type_symbol
_atom_site_label
_atom_site_fract_x
_atom_site_fract_y
_atom_site_fract_z
Si Si1 0.418181 0.548231 0.548170
Si Si2 0.902456 0.191051 0.582261
Si Si3 0.092320 0.291454 0.291749
Si Si4 0.911427 0.813818 0.228997
Si Si5 0.920340 0.098975 0.291678
Si Si6 0.408659 0.707930 0.501555
Si Si7 0.409484 0.584935 0.037700
Si Si8 0.079775 0.951328 0.788894
O O1 0.500000 0.500000 0.553830
O O2 0.250000 0.540504 0.551179
O O3 0.453233 0.576628 0.665356
O O4 0.450285 0.569508 0.418814
O O5 0.750000 0.195239 0.646772
O O6 0.904387 0.236076 0.501397
O O7 0.903948 0.140396 0.530560
O O8 0.034895 0.194818 0.666131
O O9 0.250000 0.307195 0.314534
O O10 0.091429 0.235723 0.291933
O O11 0.981221 0.308915 0.384893
O O12 0.750000 0.827614 0.209995
O O13 0.997857 0.852906 0.293688
O O14 0.993975 0.805749 0.108819
O O15 0.750000 0.104718 0.296779
O O16 0.966383 0.071233 0.409369
O O17 0.250000 0.690967 0.516929
O O18 0.250000 0.566882 0.040007
O O19 0.466584 0.573001 0.167077
O O20 0.250000 0.956129 0.785036
O O21 0.000000 0.000000 0.788261
#
# Coordination Sequence:
#
# PCOD9378658 Si02
#       8
#     8   8   8   8   8   8   8   8
#     4   9  19  35  56  80 107 139 175 216 267 325
#     4   9  18  32  50  72  97 132 176 218 263 315
#     4  10  20  33  49  71 102 138 176 222 274 323
#     4  10  21  35  50  73 107 143 176 219 276 328
#     4  10  20  35  55  80 107 139 181 226 270 321
#     4  10  19  32  52  74  98 135 184 230 268 317
#     4   9  18  33  54  78 106 137 173 220 268 314
#     4   9  18  35  56  78 105 137 170 209 261 319
#
# _framework density 20.208781999999999
#
# number of rings (size 3 to 8) (size 9 to 14) (size 15 to 20)
#    0.000    2.500    0.000    1.875    0.000    5.000 
#    0.000    4.375    0.000    0.000    0.000    0.000 
#    0.000    0.000    0.000    0.000    0.000    0.000 
#
# Total GULP energy -178144.653080 kJ/mol
# GULP energy per Si atom -5567.020409 kJ/mol
# Density = 2.016279 g / cm^3
# Si number density = 20.208782 Si / 1000 Ang^3
#
#
#
# Elastic Constant Matrix: (Units=GPa)
#
#
# Indices 1 2 3 4 5 6 
#
# 1 66.3509 10.0065 35.0927 0.0000 -0.0002 0.0000
# 2 10.0065 32.8257 22.2743 -0.0001 -0.0003 -0.0001
# 3 35.0927 22.2743 133.4928 0.0006 0.0017 0.0003
# 4 0.0000 -0.0001 0.0006 4.4550 0.0009 0.0001
# 5 -0.0002 -0.0003 0.0017 0.0009 4.2778 0.0006
# 6 0.0000 -0.0001 0.0003 0.0001 0.0006 16.3461
#
#
#
# Elastic Compliance Matrix: (Units=1/GPa)
#
#
# Indices 1 2 3 4 5 6 
#
# 1 0.017689 -0.002522 -0.004229 0.000001 0.000003 0.000000
# 2 -0.002522 0.034713 -0.005129 0.000001 0.000004 0.000000
# 3 -0.004229 -0.005129 0.009459 -0.000001 -0.000004 0.000000
# 4 0.000001 0.000001 -0.000001 0.224468 -0.000048 -0.000001
# 5 0.000003 0.000004 -0.000004 -0.000048 0.233764 -0.000008
# 6 0.000000 0.000000 0.000000 -0.000001 -0.000008 0.061177
#
#
# Mechanical properties :
#
#
# Convention : Reuss Voigt Hill
#
# Bulk Modulus (GPa) = 26.24725 40.82406 33.53565
# Shear Modulus (GPa) = 8.09414 16.03551 12.06483
#
# Velocity S-wave (km/s) = 2.00349 2.81996 2.44603
# Velocity P-wave (km/s) = 4.28581 5.55409 4.96065
#
# Compressibility (1/GPa) = 0.03809922
#
# Stress axis : x y z
#
# Youngs Moduli (GPa) = 56.53380 28.80742 105.72379
#
# Poissons Ratio (x) = 0.07266 0.44711
# Poissons Ratio (y) = 0.14260 0.54227
# Poissons Ratio (z) = 0.23909 0.14776
#
# Static dielectric constant tensor:
#      x y z
#    x 1.680960 0.000000 0.000000 
#    y 0.000000 1.725990 0.000000 
#    z 0.000000 0.000000 1.784330 
# 
# From -- ./inp_files/9727.got.cif
#   From: 2010.05.17/outbox.cif.g08.bks.cpg/sg46_5_cif.got.tgz:9727.got - 2010.06.03 19:58:25.
