data_PCOD9378545
_publ_section_title
;
Structure prediction by ZEFSAII (Michael W. Deem and Ramdas Pophale) SiO2 
 PCOD9378545
Probable space group: I M A 2
;
_chemical_formula_sum "Si O2"
_cell_formula_units_Z 64
_cell_length_a 8.767941
_cell_length_b 23.849170
_cell_length_c 19.722740
_cell_angle_alpha 90.000000
_cell_angle_beta 90.000000
_cell_angle_gamma 90.000000
_cell_volume 4124.184993
_symmetry_space_group_name_H-M "I M A 2"
_symmetry_group_IT_number 46
_symmetry_cell_setting 'orthorhombic'
loop_
_space_group_symop_operation_xyz
x,y,z
-x,-y,z
1/2-x,y,z
1/2+x,-y,z
1/2+x,1/2+y,1/2+z
1/2-x,1/2-y,1/2+z
-x,1/2+y,1/2+z
x,1/2-y,1/2+z
loop_
_atom_site_type_symbol
_atom_site_label
_atom_site_fract_x
_atom_site_fract_y
_atom_site_fract_z
Si Si1 0.066782 0.164090 0.846890
Si Si2 0.933070 0.938658 0.212913
Si Si3 0.932695 0.272625 0.225293
Si Si4 0.067114 0.226864 0.434624
Si Si5 0.066207 0.615845 0.576514
Si Si6 0.933284 0.247384 0.075976
Si Si7 0.566444 0.561464 0.440073
Si Si8 0.066414 0.334292 0.802472
O O1 0.250000 0.166550 0.840592
O O2 0.021974 0.214205 0.898747
O O3 0.024454 0.105296 0.880715
O O4 0.995223 0.179283 0.774707
O O5 0.750000 0.941510 0.207274
O O6 0.972896 0.894668 0.272430
O O7 0.000710 0.913693 0.143346
O O8 0.000000 0.000000 0.224887
O O9 0.750000 0.272687 0.227235
O O10 0.983121 0.274665 0.147044
O O11 0.991819 0.213980 0.256503
O O12 0.250000 0.227049 0.441079
O O13 0.023336 0.179225 0.380107
O O14 0.996303 0.224033 0.508577
O O15 0.250000 0.612191 0.576657
O O16 0.021567 0.681564 0.576146
O O17 0.000015 0.585894 0.510112
O O18 0.750000 0.248735 0.073870
O O19 0.500000 0.500000 0.428179
O O20 0.750000 0.559436 0.444855
O O21 0.250000 0.327401 0.797806
#
# Coordination Sequence:
#
# PCOD9378545 Si02
#       8
#     8   8   8   8   8   8   8   8
#     4   9  19  34  49  69  96 126 162 201 241 288
#     4  11  22  35  51  69  96 132 170 206 243 285
#     4  10  19  31  49  72  98 125 159 200 241 286
#     4   9  17  31  50  70  93 123 160 197 238 289
#     4  11  21  34  48  68 101 134 170 203 235 284
#     4  10  20  31  46  73 102 128 158 196 239 287
#     4  11  22  36  51  70  97 131 171 206 242 286
#     4   9  19  34  49  69  95 126 162 200 242 289
#
# _framework density 15.518217999999999
#
# number of rings (size 3 to 8) (size 9 to 14) (size 15 to 20)
#    0.000    2.000    2.500    2.625    0.000    5.000 
#    0.000    0.000    0.000    0.000    0.000    0.875 
#    0.000    2.000    0.000    0.000    0.000    0.000 
#
# Total GULP energy -178543.098680 kJ/mol
# GULP energy per Si atom -5579.471834 kJ/mol
# Density = 1.548290 g / cm^3
# Si number density = 15.518218 Si / 1000 Ang^3
#
#
#
# Elastic Constant Matrix: (Units=GPa)
#
#
# Indices 1 2 3 4 5 6 
#
# 1 31.8443 36.8116 41.5506 0.0000 0.0000 0.0000
# 2 36.8116 104.3339 81.9036 0.0000 0.0000 0.0000
# 3 41.5506 81.9036 162.9677 0.0000 0.0000 0.0000
# 4 0.0000 0.0000 0.0000 19.2708 0.0000 0.0000
# 5 0.0000 0.0000 0.0000 0.0000 40.1568 0.0000
# 6 0.0000 0.0000 0.0000 0.0000 0.0000 21.5515
#
#
#
# Elastic Compliance Matrix: (Units=1/GPa)
#
#
# Indices 1 2 3 4 5 6 
#
# 1 0.058026 -0.014632 -0.007441 0.000000 0.000000 0.000000
# 2 -0.014632 0.019520 -0.006079 0.000000 0.000000 0.000000
# 3 -0.007441 -0.006079 0.011089 0.000000 0.000000 0.000000
# 4 0.000000 0.000000 0.000000 0.051892 0.000000 0.000000
# 5 0.000000 0.000000 0.000000 0.000000 0.024902 0.000000
# 6 0.000000 0.000000 0.000000 0.000000 0.000000 0.046400
#
#
# Mechanical properties :
#
#
# Convention : Reuss Voigt Hill
#
# Bulk Modulus (GPa) = 30.93119 68.85304 49.89212
# Shear Modulus (GPa) = 17.92698 25.45450 21.69074
#
# Velocity S-wave (km/s) = 3.40254 4.05445 3.74272
# Velocity P-wave (km/s) = 5.95078 8.14761 7.13426
#
# Compressibility (1/GPa) = 0.03232983
#
# Stress axis : x y z
#
# Youngs Moduli (GPa) = 17.23377 51.23072 90.18189
#
# Poissons Ratio (x) = 0.74960 0.67102
# Poissons Ratio (y) = 0.25216 0.54826
# Poissons Ratio (z) = 0.12823 0.31146
#
# Static dielectric constant tensor:
#      x y z
#    x 1.506950 0.000000 0.000000 
#    y 0.000000 1.502020 0.000000 
#    z 0.000000 0.000000 1.513880 
# 
# From -- ./inp_files/18568.got.cif
#   From: 2010.05.17/outbox.cif.g08.bks.cpg/sg46_10_cif.got.tgz:18568.got - 2010.06.03 19:58:25.
