data_PCOD9378529
_publ_section_title
;
Structure prediction by ZEFSAII (Michael W. Deem and Ramdas Pophale) SiO2 
 PCOD9378529
Probable space group: I M A 2
;
_chemical_formula_sum "Si O2"
_cell_formula_units_Z 48
_cell_length_a 8.576053
_cell_length_b 14.156683
_cell_length_c 24.490402
_cell_angle_alpha 90.000000
_cell_angle_beta 90.000000
_cell_angle_gamma 90.000000
_cell_volume 2973.342083
_symmetry_space_group_name_H-M "I M A 2"
_symmetry_group_IT_number 46
_symmetry_cell_setting 'orthorhombic'
loop_
_space_group_symop_operation_xyz
x,y,z
-x,-y,z
1/2-x,y,z
1/2+x,-y,z
1/2+x,1/2+y,1/2+z
1/2-x,1/2-y,1/2+z
-x,1/2+y,1/2+z
x,1/2-y,1/2+z
loop_
_atom_site_type_symbol
_atom_site_label
_atom_site_fract_x
_atom_site_fract_y
_atom_site_fract_z
Si Si1 0.437211 0.604688 0.478170
Si Si2 0.437358 0.605565 0.138734
Si Si3 0.562611 0.104088 0.432588
Si Si4 0.438369 0.895086 0.763363
Si Si5 0.439338 0.786446 0.868851
Si Si6 0.435887 0.214575 0.536728
O O1 0.500000 0.500000 0.487364
O O2 0.250000 0.605140 0.480388
O O3 0.485177 0.642756 0.417919
O O4 0.501351 0.682123 0.520436
O O5 0.500000 0.500000 0.127124
O O6 0.250000 0.604514 0.135266
O O7 0.483943 0.629134 0.201217
O O8 0.504758 0.677573 0.094760
O O9 0.750000 0.102752 0.434743
O O10 0.512342 0.181867 0.387634
O O11 0.500796 0.143674 0.490268
O O12 0.500000 0.000000 0.421959
O O13 0.250000 0.897683 0.764735
O O14 0.493890 0.824062 0.810447
O O15 0.500000 0.000000 0.775314
O O16 0.250000 0.786132 0.867706
O O17 0.250000 0.214047 0.534986
#
# Coordination Sequence:
#
# PCOD9378529 Si02
#       6
#     8   8   8   8   8   8
#     4  10  19  32  50  73 100 127 157 192 233 279
#     4  10  19  31  48  70  96 125 158 195 237 283
#     4  10  19  32  49  70  97 125 157 195 237 284
#     4   9  17  30  48  70  95 124 155 189 232 279
#     4   8  16  30  48  70  96 125 155 190 231 277
#     4  11  21  33  49  69  95 126 161 197 236 280
#
# _framework density 16.143450999999999
#
# number of rings (size 3 to 8) (size 9 to 14) (size 15 to 20)
#    0.000    2.333    0.000    5.000    0.000    0.667 
#    0.000    4.167    0.000    1.000    0.000    2.333 
#    0.000    0.000    0.000    0.000    0.000    0.000 
#
# Total GULP energy -133877.270039 kJ/mol
# GULP energy per Si atom -5578.219585 kJ/mol
# Density = 1.610671 g / cm^3
# Si number density = 16.143451 Si / 1000 Ang^3
#
#
#
# Elastic Constant Matrix: (Units=GPa)
#
#
# Indices 1 2 3 4 5 6 
#
# 1 64.8081 41.7779 35.6988 0.0000 0.0000 0.0000
# 2 41.7779 151.1245 96.0082 0.0000 0.0000 0.0000
# 3 35.6988 96.0082 126.1562 0.0000 0.0000 0.0000
# 4 0.0000 0.0000 0.0000 22.1146 0.0000 0.0000
# 5 0.0000 0.0000 0.0000 0.0000 13.7121 0.0000
# 6 0.0000 0.0000 0.0000 0.0000 0.0000 27.2643
#
#
#
# Elastic Compliance Matrix: (Units=1/GPa)
#
#
# Indices 1 2 3 4 5 6 
#
# 1 0.019241 -0.003601 -0.002704 0.000000 0.000000 0.000000
# 2 -0.003601 0.013485 -0.009243 0.000000 0.000000 0.000000
# 3 -0.002704 -0.009243 0.015726 0.000000 0.000000 0.000000
# 4 0.000000 0.000000 0.000000 0.045219 0.000000 0.000000
# 5 0.000000 0.000000 0.000000 0.000000 0.072928 0.000000
# 6 0.000000 0.000000 0.000000 0.000000 0.000000 0.036678
#
#
# Mechanical properties :
#
#
# Convention : Reuss Voigt Hill
#
# Bulk Modulus (GPa) = 57.62014 76.56206 67.09110
# Shear Modulus (GPa) = 20.81949 23.85845 22.33897
#
# Velocity S-wave (km/s) = 3.59507 3.84852 3.72395
# Velocity P-wave (km/s) = 7.28030 8.20227 7.75500
#
# Compressibility (1/GPa) = 0.01735504
#
# Stress axis : x y z
#
# Youngs Moduli (GPa) = 51.97175 74.15786 63.58835
#
# Poissons Ratio (x) = 0.26707 0.17195
# Poissons Ratio (y) = 0.18717 0.58776
# Poissons Ratio (z) = 0.14053 0.68545
#
# Static dielectric constant tensor:
#      x y z
#    x 1.545520 0.000000 0.000000 
#    y 0.000000 1.519110 0.000000 
#    z 0.000000 0.000000 1.543920 
# 
# From -- ./inp_files/20909.got.cif
#   From: 2010.05.17/outbox.cif.g08.bks.cpg/sg46_11_cif.got.tgz:20909.got - 2010.06.03 19:58:25.
