data_PCOD9378354
_publ_section_title
;
Structure prediction by ZEFSAII (Michael W. Deem and Ramdas Pophale) SiO2 
 PCOD9378354
Probable space group: I M A 2
;
_chemical_formula_sum "Si O2"
_cell_formula_units_Z 32
_cell_length_a 16.606645
_cell_length_b 6.096420
_cell_length_c 14.526613
_cell_angle_alpha 90.000000
_cell_angle_beta 90.000000
_cell_angle_gamma 90.000000
_cell_volume 1470.690028
_symmetry_space_group_name_H-M "I M A 2"
_symmetry_group_IT_number 46
_symmetry_cell_setting 'orthorhombic'
loop_
_space_group_symop_operation_xyz
x,y,z
-x,-y,z
1/2-x,y,z
1/2+x,-y,z
1/2+x,1/2+y,1/2+z
1/2-x,1/2-y,1/2+z
-x,1/2+y,1/2+z
x,1/2-y,1/2+z
loop_
_atom_site_type_symbol
_atom_site_label
_atom_site_fract_x
_atom_site_fract_y
_atom_site_fract_z
Si Si1 0.250000 0.533709 0.758670
Si Si2 0.417814 0.886527 0.970237
Si Si3 0.500000 0.000000 0.576257
Si Si4 0.750000 0.426928 0.121321
Si Si5 0.879295 0.800138 0.141528
Si Si6 0.750000 0.279650 0.425211
O O1 0.250000 0.774381 0.711258
O O2 0.330434 0.415272 0.722495
O O3 0.250000 0.557444 0.867068
O O4 0.443450 0.644987 0.007473
O O5 0.500000 0.000000 0.933573
O O6 0.390063 0.030535 0.058148
O O7 0.337771 0.885679 0.906939
O O8 0.534623 0.814574 0.644978
O O9 0.824458 0.591242 0.117116
O O10 0.750000 0.270960 0.033327
#
# Coordination Sequence:
#
# PCOD9378354 Si02
#       6
#     4   8   4   4   8   4
#     4  11  23  37  63  97 131 171 237 267 337 426
#     4  10  21  39  70  97 126 173 224 272 341 412
#     4  10  18  34  70  86 126 166 216 278 340 396
#     4  11  20  41  64  90 128 168 219 272 338 409
#     4  10  19  38  62  91 125 168 226 269 331 408
#     4  12  21  42  69  91 139 181 214 289 345 401
#
# _framework density 21.758492
#
# number of rings (size 3 to 8) (size 9 to 14) (size 15 to 20)
#    0.000    1.500    5.000    0.750    0.000    0.000 
#    9.000    0.000   35.750    0.000    0.000    0.000 
#    0.000    0.000    0.000    0.000    0.000    0.000 
#
# Total GULP energy -89076.376422 kJ/mol
# GULP energy per Si atom -5567.273526 kJ/mol
# Density = 2.170897 g / cm^3
# Si number density = 21.758492 Si / 1000 Ang^3
#
#
#
# Elastic Constant Matrix: (Units=GPa)
#
#
# Indices 1 2 3 4 5 6 
#
# 1 129.0443 33.5220 23.6219 0.0000 0.0000 0.0000
# 2 33.5220 98.0684 1.5386 0.0000 0.0000 0.0000
# 3 23.6219 1.5386 19.6945 0.0000 0.0000 0.0000
# 4 0.0000 0.0000 0.0000 12.9739 0.0000 0.0000
# 5 0.0000 0.0000 0.0000 0.0000 7.3944 0.0000
# 6 0.0000 0.0000 0.0000 0.0000 0.0000 60.5911
#
#
#
# Elastic Compliance Matrix: (Units=1/GPa)
#
#
# Indices 1 2 3 4 5 6 
#
# 1 0.011054 -0.003575 -0.012979 0.000000 0.000000 0.000000
# 2 -0.003575 0.011366 0.003400 0.000000 0.000000 0.000000
# 3 -0.012979 0.003400 0.066077 0.000000 0.000000 0.000000
# 4 0.000000 0.000000 0.000000 0.077078 0.000000 0.000000
# 5 0.000000 0.000000 0.000000 0.000000 0.135237 0.000000
# 6 0.000000 0.000000 0.000000 0.000000 0.000000 0.016504
#
#
# Mechanical properties :
#
#
# Convention : Reuss Voigt Hill
#
# Bulk Modulus (GPa) = 16.08010 40.46358 28.27184
# Shear Modulus (GPa) = 13.72297 28.73353 21.22825
#
# Velocity S-wave (km/s) = 2.51409 3.63790 3.12690
# Velocity P-wave (km/s) = 3.97917 6.02352 5.10474
#
# Compressibility (1/GPa) = 0.06218869
#
# Stress axis : x y z
#
# Youngs Moduli (GPa) = 90.46755 87.98510 15.13387
#
# Poissons Ratio (x) = 0.31453 0.19642
# Poissons Ratio (y) = 0.32340 -0.05145
# Poissons Ratio (z) = 1.17415 -0.29913
#
# Static dielectric constant tensor:
#      x y z
#    x 2.058450 0.000000 0.000000 
#    y 0.000000 1.803260 0.000000 
#    z 0.000000 0.000000 1.731430 
# 
# From -- ./inp_files/16262.got.cif
#   From: 2010.05.17/outbox.cif.g08.bks.cpg/sg46_9_cif.got.tgz:16262.got - 2010.06.03 19:58:25.
