data_PCOD9378250
_publ_section_title
;
Structure prediction by ZEFSAII (Michael W. Deem and Ramdas Pophale) SiO2 
 PCOD9378250
Probable space group: I M A 2
;
_chemical_formula_sum "Si O2"
_cell_formula_units_Z 64
_cell_length_a 17.795103
_cell_length_b 7.773388
_cell_length_c 23.372692
_cell_angle_alpha 90.000000
_cell_angle_beta 90.000000
_cell_angle_gamma 90.000000
_cell_volume 3233.103351
_symmetry_space_group_name_H-M "I M A 2"
_symmetry_group_IT_number 46
_symmetry_cell_setting 'orthorhombic'
loop_
_space_group_symop_operation_xyz
x,y,z
-x,-y,z
1/2-x,y,z
1/2+x,-y,z
1/2+x,1/2+y,1/2+z
1/2-x,1/2-y,1/2+z
-x,1/2+y,1/2+z
x,1/2-y,1/2+z
loop_
_atom_site_type_symbol
_atom_site_label
_atom_site_fract_x
_atom_site_fract_y
_atom_site_fract_z
Si Si1 0.658652 0.270398 0.476700
Si Si2 0.835261 0.435530 0.596725
Si Si3 0.943990 0.634623 0.081367
Si Si4 0.667491 0.081255 0.658663
Si Si5 0.340235 0.066067 0.891158
Si Si6 0.839687 0.637057 0.981611
Si Si7 0.839991 0.866821 0.762047
Si Si8 0.942445 0.856562 0.177828
O O1 0.750000 0.276659 0.477732
O O2 0.634425 0.356488 0.537053
O O3 0.632056 0.396775 0.425650
O O4 0.641457 0.066317 0.472899
O O5 0.750000 0.497674 0.586091
O O6 0.831857 0.276300 0.640458
O O7 0.883507 0.570823 0.631424
O O8 0.887129 0.525210 0.119496
O O9 0.987357 0.738109 0.131642
O O10 0.000000 0.500000 0.052685
O O11 0.892718 0.712302 0.031526
O O12 0.750000 0.009201 0.645685
O O13 0.653674 0.041253 0.724777
O O14 0.250000 0.043521 0.887246
O O15 0.352806 0.239062 0.927734
O O16 0.365889 0.097107 0.826390
O O17 0.750000 0.645484 0.995318
O O18 0.750000 0.816109 0.761985
O O19 0.894305 0.735854 0.727329
O O20 0.000000 0.000000 0.199619
#
# Coordination Sequence:
#
# PCOD9378250 Si02
#       8
#     8   8   8   8   8   8   8   8
#     4   9  17  30  54  85 115 142 176 230 285 340
#     4  10  18  32  54  85 114 136 176 230 289 347
#     4  11  21  34  53  79 110 149 181 228 283 343
#     4   9  17  32  55  79 107 140 178 227 280 337
#     4   9  18  34  55  83 114 147 189 232 278 333
#     4  10  19  34  58  86 114 148 185 230 289 348
#     4   9  19  37  56  78 111 150 192 234 280 335
#     4  11  23  35  52  81 111 150 189 239 286 339
#
# _framework density 19.795221999999999
#
# number of rings (size 3 to 8) (size 9 to 14) (size 15 to 20)
#    0.000    2.250    1.250    2.250    0.000    2.500 
#    2.250    0.625    0.000    0.000    3.250    0.000 
#    0.000    0.000    0.000    0.000    0.000    0.000 
#
# Total GULP energy -178219.730112 kJ/mol
# GULP energy per Si atom -5569.366566 kJ/mol
# Density = 1.975017 g / cm^3
# Si number density = 19.795222 Si / 1000 Ang^3
#
#
#
# Elastic Constant Matrix: (Units=GPa)
#
#
# Indices 1 2 3 4 5 6 
#
# 1 32.4562 9.4903 34.2175 0.0000 0.0000 0.0000
# 2 9.4903 74.5403 53.2664 0.0000 0.0000 0.0000
# 3 34.2175 53.2664 153.2338 0.0000 0.0000 0.0000
# 4 0.0000 0.0000 0.0000 22.8161 0.0000 0.0000
# 5 0.0000 0.0000 0.0000 0.0000 11.1910 0.0000
# 6 0.0000 0.0000 0.0000 0.0000 0.0000 24.0132
#
#
#
# Elastic Compliance Matrix: (Units=1/GPa)
#
#
# Indices 1 2 3 4 5 6 
#
# 1 0.040466 0.001737 -0.009640 0.000000 0.000000 0.000000
# 2 0.001737 0.017924 -0.006618 0.000000 0.000000 0.000000
# 3 -0.009640 -0.006618 0.010979 0.000000 0.000000 0.000000
# 4 0.000000 0.000000 0.000000 0.043829 0.000000 0.000000
# 5 0.000000 0.000000 0.000000 0.000000 0.089357 0.000000
# 6 0.000000 0.000000 0.000000 0.000000 0.000000 0.041644
#
#
# Mechanical properties :
#
#
# Convention : Reuss Voigt Hill
#
# Bulk Modulus (GPa) = 24.79801 50.46428 37.63115
# Shear Modulus (GPa) = 17.44078 22.48779 19.96428
#
# Velocity S-wave (km/s) = 2.97149 3.37415 3.17920
# Velocity P-wave (km/s) = 4.93228 6.38188 5.70332
#
# Compressibility (1/GPa) = 0.04032582
#
# Stress axis : x y z
#
# Youngs Moduli (GPa) = 24.71214 55.79119 91.08110
#
# Poissons Ratio (x) = -0.09688 0.87800
# Poissons Ratio (y) = -0.04291 0.60281
# Poissons Ratio (z) = 0.23822 0.36925
#
# Static dielectric constant tensor:
#      x y z
#    x 1.768050 0.000000 0.000000 
#    y 0.000000 1.821980 0.000000 
#    z 0.000000 0.000000 1.703670 
# 
# From -- ./inp_files/22483.got.cif
#   From: 2010.05.17/outbox.cif.g08.bks.cpg/sg46_12_cif.got.tgz:22483.got - 2010.06.03 19:58:25.
