data_PCOD9378728
_publ_section_title
;
Structure prediction by ZEFSAII (Michael W. Deem and Ramdas Pophale) SiO2 
 PCOD9378728
Probable space group: I M A 2
;
_chemical_formula_sum "Si O2"
_cell_formula_units_Z 36
_cell_length_a 21.230810
_cell_length_b 12.725525
_cell_length_c 5.220049
_cell_angle_alpha 90.000000
_cell_angle_beta 90.000000
_cell_angle_gamma 90.000000
_cell_volume 1410.317360
_symmetry_space_group_name_H-M "I M A 2"
_symmetry_group_IT_number 46
_symmetry_cell_setting 'orthorhombic'
loop_
_space_group_symop_operation_xyz
x,y,z
-x,-y,z
1/2-x,y,z
1/2+x,-y,z
1/2+x,1/2+y,1/2+z
1/2-x,1/2-y,1/2+z
-x,1/2+y,1/2+z
x,1/2-y,1/2+z
loop_
_atom_site_type_symbol
_atom_site_label
_atom_site_fract_x
_atom_site_fract_y
_atom_site_fract_z
Si Si1 0.679933 0.888695 0.355230
Si Si2 0.120790 0.927088 0.064033
Si Si3 0.679717 0.387390 0.064334
Si Si4 0.551680 0.804275 0.464306
Si Si5 0.000000 0.500000 0.265128
O O1 0.750000 0.847929 0.308218
O O2 0.627575 0.807609 0.444218
O O3 0.652409 0.958502 0.120316
O O4 0.683427 0.984434 0.559318
O O5 0.128800 0.870016 0.338437
O O6 0.159138 0.862894 0.850478
O O7 0.053529 0.949968 0.943170
O O8 0.750000 0.349761 0.997547
O O9 0.529875 0.777822 0.179352
O O10 0.530806 0.914844 0.577416
#
# Coordination Sequence:
#
# PCOD9378728 Si02
#       5
#     8   8   8   8   4
#     4   9  20  38  61  90 134 171 208 265 332 415
#     4  10  19  32  59  87 114 173 218 253 321 383
#     4   9  17  31  54  87 122 155 211 259 311 403
#     4  12  28  44  64  97 131 179 235 274 332 411
#     4  12  24  46  66  88 138 180 228 298 336 384
#
# _framework density 25.526171999999999
#
# number of rings (size 3 to 8) (size 9 to 14) (size 15 to 20)
#    1.333    0.444    2.222    2.667    0.000    8.889 
#    0.000    0.000    0.000    0.000    0.000    0.000 
#    0.000   71.111    0.000    0.000    0.000    0.000 
#
# Total GULP energy -100574.649054 kJ/mol
# GULP energy per Si atom -5587.480503 kJ/mol
# Density = 2.546807 g / cm^3
# Si number density = 25.526172 Si / 1000 Ang^3
#
#
#
# Elastic Constant Matrix: (Units=GPa)
#
#
# Indices 1 2 3 4 5 6 
#
# 1 114.4019 31.8634 52.3285 0.0000 0.0000 0.0000
# 2 31.8634 69.0096 37.8306 0.0000 0.0000 0.0000
# 3 52.3285 37.8306 168.3523 0.0000 0.0000 0.0000
# 4 0.0000 0.0000 0.0000 1.4184 0.0000 0.0000
# 5 0.0000 0.0000 0.0000 0.0000 25.0905 0.0000
# 6 0.0000 0.0000 0.0000 0.0000 0.0000 23.0210
#
#
#
# Elastic Compliance Matrix: (Units=1/GPa)
#
#
# Indices 1 2 3 4 5 6 
#
# 1 0.010934 -0.003633 -0.002582 0.000000 0.000000 0.000000
# 2 -0.003633 0.017734 -0.002856 0.000000 0.000000 0.000000
# 3 -0.002582 -0.002856 0.007384 0.000000 0.000000 0.000000
# 4 0.000000 0.000000 0.000000 0.705006 0.000000 0.000000
# 5 0.000000 0.000000 0.000000 0.000000 0.039856 0.000000
# 6 0.000000 0.000000 0.000000 0.000000 0.000000 0.043439
#
#
# Mechanical properties :
#
#
# Convention : Reuss Voigt Hill
#
# Bulk Modulus (GPa) = 55.83423 66.20097 61.01760
# Shear Modulus (GPa) = 5.89300 25.22206 15.55753
#
# Velocity S-wave (km/s) = 1.52106 3.14679 2.47143
# Velocity P-wave (km/s) = 5.00056 6.26051 5.66567
#
# Compressibility (1/GPa) = 0.01791016
#
# Stress axis : x y z
#
# Youngs Moduli (GPa) = 91.45687 56.38993 135.42304
#
# Poissons Ratio (x) = 0.20486 0.34970
# Poissons Ratio (y) = 0.33226 0.38673
# Poissons Ratio (z) = 0.23616 0.16103
#
# Static dielectric constant tensor:
#      x y z
#    x 2.001440 0.000000 0.000000 
#    y 0.000000 2.043530 0.000000 
#    z 0.000000 0.000000 2.025850 
# 
# From -- ./inp_files/2277.got.cif
#   From: 2010.05.17/outbox.cif.g08.bks.cpg/sg46_2_cif.got.tgz:2277.got - 2010.06.03 19:58:25.
