data_PCOD9378731
_publ_section_title
;
Structure prediction by ZEFSAII (Michael W. Deem and Ramdas Pophale) SiO2 
 PCOD9378731
Probable space group: I M A 2
;
_chemical_formula_sum "Si O2"
_cell_formula_units_Z 64
_cell_length_a 9.161276
_cell_length_b 23.946560
_cell_length_c 19.454327
_cell_angle_alpha 90.000000
_cell_angle_beta 90.000000
_cell_angle_gamma 90.000000
_cell_volume 4267.910595
_symmetry_space_group_name_H-M "I M A 2"
_symmetry_group_IT_number 46
_symmetry_cell_setting 'orthorhombic'
loop_
_space_group_symop_operation_xyz
x,y,z
-x,-y,z
1/2-x,y,z
1/2+x,-y,z
1/2+x,1/2+y,1/2+z
1/2-x,1/2-y,1/2+z
-x,1/2+y,1/2+z
x,1/2-y,1/2+z
loop_
_atom_site_type_symbol
_atom_site_label
_atom_site_fract_x
_atom_site_fract_y
_atom_site_fract_z
Si Si1 0.574499 0.121195 0.414660
Si Si2 0.925144 0.333400 0.140706
Si Si3 0.074540 0.940512 0.272473
Si Si4 0.923032 0.228669 0.776379
Si Si5 0.075485 0.836295 0.181025
Si Si6 0.924711 0.059226 0.556803
Si Si7 0.575756 0.770022 0.065656
Si Si8 0.575966 0.742163 0.912546
O O1 0.750000 0.130421 0.414269
O O2 0.536421 0.086378 0.346464
O O3 0.536781 0.086599 0.483073
O O4 0.496105 0.180764 0.414496
O O5 0.750000 0.325616 0.131033
O O6 0.956774 0.318736 0.219924
O O7 0.963428 0.394811 0.114385
O O8 0.006775 0.287298 0.094967
O O9 0.250000 0.946633 0.271017
O O10 0.033804 0.895133 0.214528
O O11 0.000000 0.000000 0.263487
O O12 0.750000 0.227577 0.791192
O O13 0.953505 0.287348 0.737081
O O14 0.012188 0.226840 0.846226
O O15 0.250000 0.835596 0.169148
O O16 0.993043 0.818716 0.112041
O O17 0.750000 0.051941 0.557702
O O18 0.000000 0.000000 0.566017
O O19 0.750000 0.768778 0.074425
O O20 0.542174 0.772267 0.984770
O O21 0.750000 0.736566 0.907055
#
# Coordination Sequence:
#
# PCOD9378731 Si02
#       8
#     8   8   8   8   8   8   8   8
#     4  10  19  33  48  64  94 134 168 195 225 271
#     4   9  18  33  50  68  91 125 162 195 235 283
#     4  10  20  33  48  69  95 127 166 199 232 276
#     4   9  17  31  50  68  91 122 159 197 234 283
#     4   9  18  33  50  68  92 124 161 197 234 282
#     4  10  20  32  49  69  94 129 165 198 234 275
#     4  10  20  31  46  70  97 122 155 198 241 283
#     4  11  21  30  45  72 100 126 156 194 240 285
#
# _framework density 14.995627000000001
#
# number of rings (size 3 to 8) (size 9 to 14) (size 15 to 20)
#    0.000    2.250    2.500    1.875    0.000    5.500 
#    0.000    0.000    0.000    0.000    0.000    0.875 
#    0.000    2.000    0.000    0.000    0.000    0.000 
#
# Total GULP energy -178474.790887 kJ/mol
# GULP energy per Si atom -5577.337215 kJ/mol
# Density = 1.496150 g / cm^3
# Si number density = 14.995627 Si / 1000 Ang^3
#
#
#
# Elastic Constant Matrix: (Units=GPa)
#
#
# Indices 1 2 3 4 5 6 
#
# 1 33.2920 38.1602 58.3586 0.0000 0.0000 0.0000
# 2 38.1602 106.4845 78.7075 0.0000 0.0000 0.0000
# 3 58.3586 78.7075 140.2584 0.0000 0.0000 0.0000
# 4 0.0000 0.0000 0.0000 18.1175 0.0000 0.0000
# 5 0.0000 0.0000 0.0000 0.0000 21.1650 0.0000
# 6 0.0000 0.0000 0.0000 0.0000 0.0000 26.8517
#
#
#
# Elastic Compliance Matrix: (Units=1/GPa)
#
#
# Indices 1 2 3 4 5 6 
#
# 1 0.117093 -0.010168 -0.043014 0.000000 0.000000 0.000000
# 2 -0.010168 0.016930 -0.005270 0.000000 0.000000 0.000000
# 3 -0.043014 -0.005270 0.027984 0.000000 0.000000 0.000000
# 4 0.000000 0.000000 0.000000 0.055195 0.000000 0.000000
# 5 0.000000 0.000000 0.000000 0.000000 0.047248 0.000000
# 6 0.000000 0.000000 0.000000 0.000000 0.000000 0.037242
#
#
# Mechanical properties :
#
#
# Convention : Reuss Voigt Hill
#
# Bulk Modulus (GPa) = 22.17135 70.05418 46.11276
# Shear Modulus (GPa) = 11.53056 20.21408 15.87232
#
# Velocity S-wave (km/s) = 2.77596 3.67549 3.25693
# Velocity P-wave (km/s) = 5.00919 8.05172 6.70530
#
# Compressibility (1/GPa) = 0.04510326
#
# Stress axis : x y z
#
# Youngs Moduli (GPa) = 8.54020 59.06656 35.73470
#
# Poissons Ratio (x) = 0.60062 1.53709
# Poissons Ratio (y) = 0.08684 0.18831
# Poissons Ratio (z) = 0.36735 0.31126
#
# Static dielectric constant tensor:
#      x y z
#    x 1.499070 0.000000 0.000000 
#    y 0.000000 1.471210 0.000000 
#    z 0.000000 0.000000 1.502850 
# 
# From -- ./inp_files/18628.got.cif
#   From: 2010.05.17/outbox.cif.g08.bks.cpg/sg46_10_cif.got.tgz:18628.got - 2010.06.03 19:58:25.
