data_PCOD9378970
_publ_section_title
;
Structure prediction by ZEFSAII (Michael W. Deem and Ramdas Pophale) SiO2 
 PCOD9378970
Probable space group: I M A 2
;
_chemical_formula_sum "Si O2"
_cell_formula_units_Z 48
_cell_length_a 14.102013
_cell_length_b 10.280165
_cell_length_c 12.707997
_cell_angle_alpha 90.000000
_cell_angle_beta 90.000000
_cell_angle_gamma 90.000000
_cell_volume 1842.291293
_symmetry_space_group_name_H-M "I M A 2"
_symmetry_group_IT_number 46
_symmetry_cell_setting 'orthorhombic'
loop_
_space_group_symop_operation_xyz
x,y,z
-x,-y,z
1/2-x,y,z
1/2+x,-y,z
1/2+x,1/2+y,1/2+z
1/2-x,1/2-y,1/2+z
-x,1/2+y,1/2+z
x,1/2-y,1/2+z
loop_
_atom_site_type_symbol
_atom_site_label
_atom_site_fract_x
_atom_site_fract_y
_atom_site_fract_z
Si Si1 0.860274 0.146804 0.785510
Si Si2 0.949335 0.821083 0.511998
Si Si3 0.145374 0.414466 0.808924
Si Si4 0.138362 0.049083 0.078107
Si Si5 0.579906 0.639896 0.256281
Si Si6 0.146910 0.749635 0.548610
O O1 0.750000 0.174749 0.824253
O O2 0.858151 0.216355 0.671552
O O3 0.975777 0.170170 0.807081
O O4 0.868811 0.991082 0.789786
O O5 0.901972 0.906761 0.422331
O O6 0.912435 0.670136 0.521494
O O7 0.932578 0.872488 0.630165
O O8 0.061067 0.819089 0.493452
O O9 0.250000 0.470919 0.819045
O O10 0.103712 0.469301 0.699482
O O11 0.144933 0.261855 0.779879
O O12 0.250000 0.082618 0.083072
O O13 0.133095 0.905037 0.029626
O O14 0.250000 0.793902 0.515649
#
# Coordination Sequence:
#
# PCOD9378970 Si02
#       6
#     8   8   8   8   8   8
#     4   9  17  33  58  78 105 146 186 228 283 343
#     4  10  19  34  59  84 112 148 193 240 290 340
#     4  10  20  34  56  87 114 144 191 244 293 341
#     4   9  18  34  56  84 117 150 186 238 295 344
#     4   9  19  35  56  81 112 144 188 238 287 337
#     4   9  18  34  58  82 112 153 193 230 284 352
#
# _framework density 26.054511999999999
#
# number of rings (size 3 to 8) (size 9 to 14) (size 15 to 20)
#    0.000    2.667    0.000    1.500    0.000    2.000 
#    6.000    0.833   44.000    1.000    0.000    0.000 
#    0.000    0.000    0.000    0.000    0.000    0.000 
#
# Total GULP energy -133887.725505 kJ/mol
# GULP energy per Si atom -5578.655229 kJ/mol
# Density = 2.599521 g / cm^3
# Si number density = 26.054512 Si / 1000 Ang^3
#
#
#
# Elastic Constant Matrix: (Units=GPa)
#
#
# Indices 1 2 3 4 5 6 
#
# 1 195.4458 16.4353 38.4275 0.0000 0.0000 0.0000
# 2 16.4353 68.7591 17.1282 0.0000 0.0000 0.0000
# 3 38.4275 17.1282 115.7198 0.0000 0.0000 0.0000
# 4 0.0000 0.0000 0.0000 -1.0737 0.0000 0.0000
# 5 0.0000 0.0000 0.0000 0.0000 65.7978 0.0000
# 6 0.0000 0.0000 0.0000 0.0000 0.0000 22.8553
#
#
#
# Elastic Compliance Matrix: (Units=1/GPa)
#
#
# Indices 1 2 3 4 5 6 
#
# 1 0.005527 -0.000897 -0.001703 0.000000 0.000000 0.000000
# 2 -0.000897 0.015246 -0.001959 0.000000 0.000000 0.000000
# 3 -0.001703 -0.001959 0.009497 0.000000 0.000000 0.000000
# 4 0.000000 0.000000 0.000000 -0.931352 0.000000 0.000000
# 5 0.000000 0.000000 0.000000 0.000000 0.015198 0.000000
# 6 0.000000 0.000000 0.000000 0.000000 0.000000 0.043754
#
#
# Mechanical properties :
#
#
# Convention : Reuss Voigt Hill
#
# Bulk Modulus (GPa) = 47.27467 58.21187 52.74327
# Shear Modulus (GPa) = -6.05354 38.04479 15.99563
#
# Velocity S-wave (km/s) = -1.52593 3.82540 2.48045
# Velocity P-wave (km/s) = 3.88321 6.47321 5.33768
#
# Compressibility (1/GPa) = 0.02115298
#
# Stress axis : x y z
#
# Youngs Moduli (GPa) = 180.94086 65.59164 105.29813
#
# Poissons Ratio (x) = 0.05883 0.17927
# Poissons Ratio (y) = 0.16229 0.20625
# Poissons Ratio (z) = 0.30805 0.12848
#
# Static dielectric constant tensor:
#      x y z
#    x 2.045650 0.000000 0.000000 
#    y 0.000000 1.995120 0.000000 
#    z 0.000000 0.000000 2.119690 
# 
# From -- ./inp_files/15862.got.cif
#   From: 2010.05.17/outbox.cif.g08.bks.cpg/sg46_8_cif.got.tgz:15862.got - 2010.06.03 19:58:25.
