data_PCOD9378767
_publ_section_title
;
Structure prediction by ZEFSAII (Michael W. Deem and Ramdas Pophale) SiO2 
 PCOD9378767
Probable space group: I M A 2
;
_chemical_formula_sum "Si O2"
_cell_formula_units_Z 64
_cell_length_a 8.598801
_cell_length_b 23.851453
_cell_length_c 19.585720
_cell_angle_alpha 90.000000
_cell_angle_beta 90.000000
_cell_angle_gamma 90.000000
_cell_volume 4016.911658
_symmetry_space_group_name_H-M "I M A 2"
_symmetry_group_IT_number 46
_symmetry_cell_setting 'orthorhombic'
loop_
_space_group_symop_operation_xyz
x,y,z
-x,-y,z
1/2-x,y,z
1/2+x,-y,z
1/2+x,1/2+y,1/2+z
1/2-x,1/2-y,1/2+z
-x,1/2+y,1/2+z
x,1/2-y,1/2+z
loop_
_atom_site_type_symbol
_atom_site_label
_atom_site_fract_x
_atom_site_fract_y
_atom_site_fract_z
Si Si1 0.935607 0.660894 0.934320
Si Si2 0.438347 0.834827 0.980398
Si Si3 0.062748 0.938000 0.069224
Si Si4 0.936474 0.222724 0.561145
Si Si5 0.437168 0.767744 0.851481
Si Si6 0.435773 0.937279 0.346723
Si Si7 0.937067 0.617103 0.707449
Si Si8 0.563918 0.751142 0.204751
O O1 0.750000 0.660903 0.929678
O O2 0.001917 0.709984 0.885110
O O3 0.002532 0.602653 0.906915
O O4 0.990171 0.677296 0.010257
O O5 0.250000 0.835836 0.980544
O O6 0.491022 0.893418 0.011810
O O7 0.484511 0.783506 0.030071
O O8 0.486069 0.816600 0.904413
O O9 0.250000 0.938848 0.070797
O O10 0.001951 0.914990 0.141632
O O11 0.000000 0.000000 0.057030
O O12 0.750000 0.219019 0.557341
O O13 0.992680 0.221398 0.638640
O O14 0.250000 0.765392 0.849370
O O15 0.503663 0.773311 0.776027
O O16 0.250000 0.937810 0.346305
O O17 0.496444 0.910285 0.276031
O O18 0.500000 0.000000 0.352719
O O19 0.750000 0.613408 0.708713
O O20 0.981220 0.682791 0.703552
O O21 0.750000 0.748246 0.201950
#
# Coordination Sequence:
#
# PCOD9378767 Si02
#       8
#     8   8   8   8   8   8   8   8
#     4  11  21  35  52  76 105 134 170 216 262 308
#     4   8  17  32  50  71  96 128 169 211 252 299
#     4  11  21  35  51  71 100 137 178 218 256 302
#     4  10  19  34  54  75 100 135 174 211 257 312
#     4  10  19  33  53  75  99 134 173 211 259 314
#     4  12  24  38  55  74 101 140 181 219 259 305
#     4  11  22  35  49  72 105 140 178 214 253 304
#     4  11  21  32  50  78 108 137 169 212 262 311
#
# _framework density 15.932639
#
# number of rings (size 3 to 8) (size 9 to 14) (size 15 to 20)
#    0.000    1.500    2.500    5.250    0.000    1.000 
#    0.000    1.875    0.000    0.000    0.000    0.875 
#    0.000    2.000    0.000    0.000    0.000    0.000 
#
# Total GULP energy -178721.661344 kJ/mol
# GULP energy per Si atom -5585.051917 kJ/mol
# Density = 1.589638 g / cm^3
# Si number density = 15.932639 Si / 1000 Ang^3
#
#
#
# Elastic Constant Matrix: (Units=GPa)
#
#
# Indices 1 2 3 4 5 6 
#
# 1 72.7332 33.2019 33.3487 0.0000 0.0000 0.0000
# 2 33.2019 95.7475 65.6609 0.0000 0.0000 0.0000
# 3 33.3487 65.6609 135.1795 0.0000 0.0000 0.0000
# 4 0.0000 0.0000 0.0000 19.1853 0.0000 0.0000
# 5 0.0000 0.0000 0.0000 0.0000 23.6190 0.0000
# 6 0.0000 0.0000 0.0000 0.0000 0.0000 21.4144
#
#
#
# Elastic Compliance Matrix: (Units=1/GPa)
#
#
# Indices 1 2 3 4 5 6 
#
# 1 0.016673 -0.004440 -0.001957 0.000000 0.000000 0.000000
# 2 -0.004440 0.016843 -0.007086 0.000000 0.000000 0.000000
# 3 -0.001957 -0.007086 0.011322 0.000000 0.000000 0.000000
# 4 0.000000 0.000000 0.000000 0.052123 0.000000 0.000000
# 5 0.000000 0.000000 0.000000 0.000000 0.042339 0.000000
# 6 0.000000 0.000000 0.000000 0.000000 0.000000 0.046698
#
#
# Mechanical properties :
#
#
# Convention : Reuss Voigt Hill
#
# Bulk Modulus (GPa) = 55.94933 63.12036 59.53484
# Shear Modulus (GPa) = 22.83944 24.27365 23.55654
#
# Velocity S-wave (km/s) = 3.79027 3.90746 3.84931
# Velocity P-wave (km/s) = 7.37206 7.74988 7.56333
#
# Compressibility (1/GPa) = 0.01787331
#
# Stress axis : x y z
#
# Youngs Moduli (GPa) = 59.97829 59.37197 88.32276
#
# Poissons Ratio (x) = 0.26359 0.17282
# Poissons Ratio (y) = 0.26629 0.62584
# Poissons Ratio (z) = 0.11736 0.42070
#
# Static dielectric constant tensor:
#      x y z
#    x 1.533970 0.000000 0.000000 
#    y 0.000000 1.518150 0.000000 
#    z 0.000000 0.000000 1.526170 
# 
# From -- ./inp_files/18541.got.cif
#   From: 2010.05.17/outbox.cif.g08.bks.cpg/sg46_10_cif.got.tgz:18541.got - 2010.06.03 19:58:25.
