data_PCOD9378682
_publ_section_title
;
Structure prediction by ZEFSAII (Michael W. Deem and Ramdas Pophale) SiO2 
 PCOD9378682
Probable space group: I M A 2
;
_chemical_formula_sum "Si O2"
_cell_formula_units_Z 64
_cell_length_a 8.661084
_cell_length_b 23.954924
_cell_length_c 19.602421
_cell_angle_alpha 90.000000
_cell_angle_beta 90.000000
_cell_angle_gamma 90.000000
_cell_volume 4067.024234
_symmetry_space_group_name_H-M "I M A 2"
_symmetry_group_IT_number 46
_symmetry_cell_setting 'orthorhombic'
loop_
_space_group_symop_operation_xyz
x,y,z
-x,-y,z
1/2-x,y,z
1/2+x,-y,z
1/2+x,1/2+y,1/2+z
1/2-x,1/2-y,1/2+z
-x,1/2+y,1/2+z
x,1/2-y,1/2+z
loop_
_atom_site_type_symbol
_atom_site_label
_atom_site_fract_x
_atom_site_fract_y
_atom_site_fract_z
Si Si1 0.065136 0.438338 0.997900
Si Si2 0.435428 0.724700 0.216141
Si Si3 0.064985 0.334615 0.088904
Si Si4 0.564402 0.379637 0.862643
Si Si5 0.564278 0.230805 0.003398
Si Si6 0.062770 0.664348 0.632681
Si Si7 0.563758 0.438344 0.720250
Si Si8 0.933910 0.746187 0.859058
O O1 0.250000 0.440743 0.991276
O O2 0.000000 0.500000 0.008581
O O3 0.996757 0.411829 0.928782
O O4 0.027232 0.395346 0.058886
O O5 0.250000 0.722153 0.217469
O O6 0.500247 0.678947 0.163736
O O7 0.480878 0.784672 0.182864
O O8 0.501530 0.723562 0.291927
O O9 0.250000 0.327808 0.088392
O O10 0.991951 0.288478 0.038213
O O11 0.750000 0.375576 0.865376
O O12 0.521041 0.413196 0.794185
O O13 0.497027 0.317346 0.859442
O O14 0.750000 0.232041 0.999095
O O15 0.492990 0.226286 0.928906
O O16 0.516034 0.182566 0.056798
O O17 0.250000 0.663126 0.633035
O O18 0.008637 0.605969 0.663397
O O19 0.500000 0.500000 0.711165
O O20 0.750000 0.440322 0.717983
O O21 0.750000 0.745021 0.857708
#
# Coordination Sequence:
#
# PCOD9378682 Si02
#       8
#     8   8   8   8   8   8   8   8
#     4  11  23  36  51  72 103 138 177 214 252 299
#     4  10  19  34  54  73  97 133 172 206 251 311
#     4  10  20  34  50  75 104 130 165 215 261 297
#     4  11  21  34  51  69 100 140 179 213 246 297
#     4  10  19  32  53  73  96 134 172 206 251 308
#     4   8  16  32  50  70  95 126 166 208 243 287
#     4  10  20  34  49  70  98 132 171 210 245 288
#     4  12  22  32  49  76 107 134 165 211 261 306
#
# _framework density 15.736321999999999
#
# number of rings (size 3 to 8) (size 9 to 14) (size 15 to 20)
#    0.000    1.750    2.500    4.125    0.000    3.500 
#    0.000    1.250    0.000    0.000    0.000    0.875 
#    0.000    4.000    0.000    0.000    0.000    0.000 
#
# Total GULP energy -178631.119701 kJ/mol
# GULP energy per Si atom -5582.222491 kJ/mol
# Density = 1.570051 g / cm^3
# Si number density = 15.736322 Si / 1000 Ang^3
#
#
#
# Elastic Constant Matrix: (Units=GPa)
#
#
# Indices 1 2 3 4 5 6 
#
# 1 63.1265 40.0554 49.8994 0.0000 0.0000 0.0000
# 2 40.0554 102.1196 78.5532 0.0000 0.0000 0.0000
# 3 49.8994 78.5532 157.4721 0.0000 0.0000 0.0000
# 4 0.0000 0.0000 0.0000 18.3482 0.0000 0.0000
# 5 0.0000 0.0000 0.0000 0.0000 23.0851 0.0000
# 6 0.0000 0.0000 0.0000 0.0000 0.0000 24.0638
#
#
#
# Elastic Compliance Matrix: (Units=1/GPa)
#
#
# Indices 1 2 3 4 5 6 
#
# 1 0.022904 -0.005519 -0.004505 0.000000 0.000000 0.000000
# 2 -0.005519 0.017219 -0.006841 0.000000 0.000000 0.000000
# 3 -0.004505 -0.006841 0.011190 0.000000 0.000000 0.000000
# 4 0.000000 0.000000 0.000000 0.054501 0.000000 0.000000
# 5 0.000000 0.000000 0.000000 0.000000 0.043318 0.000000
# 6 0.000000 0.000000 0.000000 0.000000 0.000000 0.041556
#
#
# Mechanical properties :
#
#
# Convention : Reuss Voigt Hill
#
# Bulk Modulus (GPa) = 56.86741 73.30378 65.08560
# Shear Modulus (GPa) = 21.71280 23.38010 22.54645
#
# Velocity S-wave (km/s) = 3.71858 3.85871 3.78929
# Velocity P-wave (km/s) = 7.39278 8.15699 7.78427
#
# Compressibility (1/GPa) = 0.01758476
#
# Stress axis : x y z
#
# Youngs Moduli (GPa) = 43.66095 58.07452 89.36284
#
# Poissons Ratio (x) = 0.32049 0.40256
# Poissons Ratio (y) = 0.24094 0.61133
# Poissons Ratio (z) = 0.19669 0.39728
#
# Static dielectric constant tensor:
#      x y z
#    x 1.530390 0.000000 0.000000 
#    y 0.000000 1.504370 0.000000 
#    z 0.000000 0.000000 1.527500 
# 
# From -- ./inp_files/18634.got.cif
#   From: 2010.05.17/outbox.cif.g08.bks.cpg/sg46_10_cif.got.tgz:18634.got - 2010.06.03 19:58:25.
