data_PCOD9378738
_publ_section_title
;
Structure prediction by ZEFSAII (Michael W. Deem and Ramdas Pophale) SiO2 
 PCOD9378738
Probable space group: I M A 2
;
_chemical_formula_sum "Si O2"
_cell_formula_units_Z 64
_cell_length_a 8.696639
_cell_length_b 23.940814
_cell_length_c 19.584193
_cell_angle_alpha 90.000000
_cell_angle_beta 90.000000
_cell_angle_gamma 90.000000
_cell_volume 4077.519397
_symmetry_space_group_name_H-M "I M A 2"
_symmetry_group_IT_number 46
_symmetry_cell_setting 'orthorhombic'
loop_
_space_group_symop_operation_xyz
x,y,z
-x,-y,z
1/2-x,y,z
1/2+x,-y,z
1/2+x,1/2+y,1/2+z
1/2-x,1/2-y,1/2+z
-x,1/2+y,1/2+z
x,1/2-y,1/2+z
loop_
_atom_site_type_symbol
_atom_site_label
_atom_site_fract_x
_atom_site_fract_y
_atom_site_fract_z
Si Si1 0.433875 0.061580 0.857860
Si Si2 0.935512 0.938536 0.140715
Si Si3 0.065644 0.839838 0.772981
Si Si4 0.065818 0.727417 0.855318
Si Si5 0.062985 0.118548 0.999297
Si Si6 0.934571 0.748739 0.499864
Si Si7 0.934661 0.666332 0.728645
Si Si8 0.065512 0.730117 0.143745
O O1 0.250000 0.058932 0.859449
O O2 0.486670 0.104571 0.799719
O O3 0.500000 0.000000 0.848582
O O4 0.488111 0.087484 0.930507
O O5 0.750000 0.941007 0.139203
O O6 0.987406 0.913510 0.067522
O O7 0.979609 0.893802 0.198664
O O8 0.000000 0.000000 0.151414
O O9 0.250000 0.846428 0.776525
O O10 0.023248 0.787844 0.822523
O O11 0.025208 0.819237 0.696850
O O12 0.250000 0.724529 0.857798
O O13 0.002801 0.681932 0.802140
O O14 0.995464 0.724284 0.930308
O O15 0.250000 0.118675 0.999388
O O16 0.015191 0.183339 0.999966
O O17 0.750000 0.750143 0.501471
O O18 0.001317 0.776361 0.568018
O O19 0.750000 0.669680 0.730697
O O20 0.995514 0.713514 0.676397
O O21 0.250000 0.735188 0.143014
#
# Coordination Sequence:
#
# PCOD9378738 Si02
#       8
#     8   8   8   8   8   8   8   8
#     4  11  21  33  50  70  98 134 174 210 247 291
#     4  10  20  34  49  69  98 133 174 211 246 291
#     4   9  19  34  49  69  98 129 165 207 250 297
#     4  10  20  33  50  74 102 129 165 210 256 301
#     4   9  18  32  46  68  99 133 171 206 237 285
#     4  11  19  32  52  75 102 134 171 205 247 304
#     4  10  19  33  51  71  98 133 170 209 251 301
#     4  10  20  33  50  74 102 130 164 209 257 300
#
# _framework density 15.695817999999999
#
# number of rings (size 3 to 8) (size 9 to 14) (size 15 to 20)
#    0.000    2.000    2.500    3.000    0.000    3.500 
#    0.000    0.625    0.000    0.000    0.000    0.875 
#    0.000    2.000    0.000    0.000    0.000    0.000 
#
# Total GULP energy -178585.569613 kJ/mol
# GULP energy per Si atom -5580.799050 kJ/mol
# Density = 1.566009 g / cm^3
# Si number density = 15.695818 Si / 1000 Ang^3
#
#
#
# Elastic Constant Matrix: (Units=GPa)
#
#
# Indices 1 2 3 4 5 6 
#
# 1 39.3276 30.1994 41.3560 0.0000 0.0000 0.0000
# 2 30.1994 99.1472 69.1726 0.0000 0.0000 0.0000
# 3 41.3560 69.1726 148.9809 0.0000 0.0000 0.0000
# 4 0.0000 0.0000 0.0000 19.8218 0.0000 0.0000
# 5 0.0000 0.0000 0.0000 0.0000 26.6122 0.0000
# 6 0.0000 0.0000 0.0000 0.0000 0.0000 22.9281
#
#
#
# Elastic Compliance Matrix: (Units=1/GPa)
#
#
# Indices 1 2 3 4 5 6 
#
# 1 0.038398 -0.006300 -0.007734 0.000000 0.000000 0.000000
# 2 -0.006300 0.015952 -0.005658 0.000000 0.000000 0.000000
# 3 -0.007734 -0.005658 0.011486 0.000000 0.000000 0.000000
# 4 0.000000 0.000000 0.000000 0.050450 0.000000 0.000000
# 5 0.000000 0.000000 0.000000 0.000000 0.037577 0.000000
# 6 0.000000 0.000000 0.000000 0.000000 0.000000 0.043615
#
#
# Mechanical properties :
#
#
# Convention : Reuss Voigt Hill
#
# Bulk Modulus (GPa) = 37.80309 63.21241 50.50775
# Shear Modulus (GPa) = 20.35182 23.65426 22.00304
#
# Velocity S-wave (km/s) = 3.60479 3.88628 3.74818
# Velocity P-wave (km/s) = 6.43919 7.77807 7.14008
#
# Compressibility (1/GPa) = 0.02645286
#
# Stress axis : x y z
#
# Youngs Moduli (GPa) = 26.04312 62.68684 87.06149
#
# Poissons Ratio (x) = 0.39492 0.67332
# Poissons Ratio (y) = 0.16407 0.49259
# Poissons Ratio (z) = 0.20141 0.35468
#
# Static dielectric constant tensor:
#      x y z
#    x 1.527830 0.000000 0.000000 
#    y 0.000000 1.497410 0.000000 
#    z 0.000000 0.000000 1.524230 
# 
# From -- ./inp_files/18656.got.cif
#   From: 2010.05.17/outbox.cif.g08.bks.cpg/sg46_10_cif.got.tgz:18656.got - 2010.06.03 19:58:25.
