data_PCOD9378020
_publ_section_title
;
Structure prediction by ZEFSAII (Michael W. Deem and Ramdas Pophale) SiO2 
 PCOD9378020
Probable space group: I M A 2
;
_chemical_formula_sum "Si O2"
_cell_formula_units_Z 64
_cell_length_a 8.635720
_cell_length_b 27.263674
_cell_length_c 18.951460
_cell_angle_alpha 90.000000
_cell_angle_beta 90.000000
_cell_angle_gamma 90.000000
_cell_volume 4461.959314
_symmetry_space_group_name_H-M "I M A 2"
_symmetry_group_IT_number 46
_symmetry_cell_setting 'orthorhombic'
loop_
_space_group_symop_operation_xyz
x,y,z
-x,-y,z
1/2-x,y,z
1/2+x,-y,z
1/2+x,1/2+y,1/2+z
1/2-x,1/2-y,1/2+z
-x,1/2+y,1/2+z
x,1/2-y,1/2+z
loop_
_atom_site_type_symbol
_atom_site_label
_atom_site_fract_x
_atom_site_fract_y
_atom_site_fract_z
Si Si1 0.071581 0.700338 0.446030
Si Si2 0.439053 0.850855 0.396376
Si Si3 0.571855 0.303065 0.032896
Si Si4 0.563899 0.053508 0.149358
Si Si5 0.937388 0.256007 0.661438
Si Si6 0.934673 0.745108 0.817912
Si Si7 0.934427 0.650054 0.578366
Si Si8 0.436171 0.552834 0.813397
O O1 0.250000 0.686182 0.435093
O O2 0.072322 0.752101 0.488714
O O3 0.990348 0.712906 0.372363
O O4 0.988205 0.663107 0.498978
O O5 0.250000 0.847873 0.396175
O O6 0.494682 0.841688 0.476875
O O7 0.501311 0.806255 0.349050
O O8 0.486463 0.902264 0.362462
O O9 0.750000 0.317640 0.045811
O O10 0.504731 0.286837 0.108017
O O11 0.750000 0.053684 0.145289
O O12 0.496219 0.097621 0.103607
O O13 0.518159 0.061594 0.231676
O O14 0.500000 0.000000 0.128985
O O15 0.750000 0.256681 0.659937
O O16 0.997047 0.248582 0.740058
O O17 0.995231 0.307663 0.629229
O O18 0.750000 0.743559 0.815815
O O19 0.750000 0.652042 0.583010
O O20 0.500000 0.500000 0.835092
O O21 0.250000 0.551096 0.815019
#
# Coordination Sequence:
#
# PCOD9378020 Si02
#       8
#     8   8   8   8   8   8   8   8
#     4   9  17  31  46  60  82 114 144 172 208 258
#     4   9  16  29  45  60  80 112 146 175 211 259
#     4   7  13  25  42  59  76 102 140 174 201 241
#     4  10  19  31  44  61  85 116 149 182 218 256
#     4  10  18  29  43  60  84 117 148 175 211 259
#     4  11  20  28  41  64  88 111 141 181 218 252
#     4  11  20  30  45  66  88 112 144 183 220 257
#     4   9  18  29  43  60  82 110 143 180 216 252
#
# _framework density 14.343474000000001
#
# number of rings (size 3 to 8) (size 9 to 14) (size 15 to 20)
#    0.000    2.500    0.000    5.625    0.000    2.000 
#    0.000    0.625    0.000    0.000    0.000    0.000 
#    0.000    1.000    0.000    7.000    0.000    3.250 
#
# Total GULP energy -178280.263567 kJ/mol
# GULP energy per Si atom -5571.258236 kJ/mol
# Density = 1.431083 g / cm^3
# Si number density = 14.343474 Si / 1000 Ang^3
#
#
#
# Elastic Constant Matrix: (Units=GPa)
#
#
# Indices 1 2 3 4 5 6 
#
# 1 65.7954 31.2641 38.0811 0.0000 0.0000 0.0000
# 2 31.2641 96.9214 67.9854 0.0000 0.0000 0.0000
# 3 38.0811 67.9854 126.7373 0.0000 0.0000 0.0000
# 4 0.0000 0.0000 0.0000 27.0693 0.0000 0.0000
# 5 0.0000 0.0000 0.0000 0.0000 16.6020 0.0000
# 6 0.0000 0.0000 0.0000 0.0000 0.0000 19.6409
#
#
#
# Elastic Compliance Matrix: (Units=1/GPa)
#
#
# Indices 1 2 3 4 5 6 
#
# 1 0.019080 -0.003420 -0.003898 0.000000 0.000000 0.000000
# 2 -0.003420 0.017155 -0.008175 0.000000 0.000000 0.000000
# 3 -0.003898 -0.008175 0.013447 0.000000 0.000000 0.000000
# 4 0.000000 0.000000 0.000000 0.036942 0.000000 0.000000
# 5 0.000000 0.000000 0.000000 0.000000 0.060234 0.000000
# 6 0.000000 0.000000 0.000000 0.000000 0.000000 0.050914
#
#
# Mechanical properties :
#
#
# Convention : Reuss Voigt Hill
#
# Bulk Modulus (GPa) = 53.48917 62.67950 58.08433
# Shear Modulus (GPa) = 21.27743 22.80399 22.04071
#
# Velocity S-wave (km/s) = 3.85570 3.99162 3.92425
# Velocity P-wave (km/s) = 7.56270 8.06461 7.81768
#
# Compressibility (1/GPa) = 0.01869537
#
# Stress axis : x y z
#
# Youngs Moduli (GPa) = 52.41053 58.29168 74.36670
#
# Poissons Ratio (x) = 0.19937 0.28991
# Poissons Ratio (y) = 0.17925 0.60793
# Poissons Ratio (z) = 0.20432 0.47652
#
# Static dielectric constant tensor:
#      x y z
#    x 1.484420 0.000000 0.000000 
#    y 0.000000 1.454130 0.000000 
#    z 0.000000 0.000000 1.486520 
# 
# From -- ./inp_files/18674.got.cif
#   From: 2010.05.17/outbox.cif.g08.bks.cpg/sg46_10_cif.got.tgz:18674.got - 2010.06.03 19:58:25.
