data_PCOD9378154
_publ_section_title
;
Structure prediction by ZEFSAII (Michael W. Deem and Ramdas Pophale) SiO2 
 PCOD9378154
Probable space group: I M A 2
;
_chemical_formula_sum "Si O2"
_cell_formula_units_Z 64
_cell_length_a 18.979477
_cell_length_b 22.475035
_cell_length_c 9.401981
_cell_angle_alpha 90.000000
_cell_angle_beta 90.000000
_cell_angle_gamma 90.000000
_cell_volume 4010.550477
_symmetry_space_group_name_H-M "I M A 2"
_symmetry_group_IT_number 46
_symmetry_cell_setting 'orthorhombic'
loop_
_space_group_symop_operation_xyz
x,y,z
-x,-y,z
1/2-x,y,z
1/2+x,-y,z
1/2+x,1/2+y,1/2+z
1/2-x,1/2-y,1/2+z
-x,1/2+y,1/2+z
x,1/2-y,1/2+z
loop_
_atom_site_type_symbol
_atom_site_label
_atom_site_fract_x
_atom_site_fract_y
_atom_site_fract_z
Si Si1 0.665633 0.822576 0.776970
Si Si2 0.169235 0.412606 0.869081
Si Si3 0.551470 0.671364 0.786147
Si Si4 0.167055 0.039048 0.807922
Si Si5 0.828865 0.011211 0.120116
Si Si6 0.090101 0.250102 0.028139
Si Si7 0.916777 0.498130 0.059398
Si Si8 0.549883 0.440988 0.784455
O O1 0.750000 0.818926 0.775097
O O2 0.644984 0.892132 0.788316
O O3 0.634787 0.793105 0.633164
O O4 0.636626 0.787786 0.915842
O O5 0.250000 0.403313 0.918159
O O6 0.130780 0.354053 0.812038
O O7 0.170864 0.459603 0.739756
O O8 0.118356 0.443323 0.985475
O O9 0.551131 0.707262 0.639620
O O10 0.499268 0.615927 0.779677
O O11 0.539541 0.712045 0.924607
O O12 0.250000 0.035881 0.774043
O O13 0.125188 0.994930 0.704860
O O14 0.157284 0.019465 0.969878
O O15 0.750000 0.037350 0.118215
O O16 0.890682 0.055488 0.164780
O O17 0.000000 0.500000 0.088961
O O18 0.911548 0.448175 0.937268
O O19 0.500000 0.500000 0.771992
#
# Coordination Sequence:
#
# PCOD9378154 Si02
#       8
#     8   8   8   8   8   8   8   8
#     4  10  20  33  48  67  97 140 183 218 244 281
#     4  10  18  31  53  71 100 142 179 216 247 290
#     4  11  20  38  50  75 104 137 181 211 257 298
#     4  10  20  32  47  73 109 136 163 210 264 307
#     4   9  18  32  50  79 105 132 167 207 263 317
#     4  10  23  33  49  68 100 141 180 223 241 291
#     4  10  18  31  46  75  97 130 173 211 258 303
#     4  10  19  34  56  76 100 134 175 214 253 313
#
# _framework density 15.957909000000001
#
# number of rings (size 3 to 8) (size 9 to 14) (size 15 to 20)
#    0.000    2.000    3.750    2.250    0.000    6.000 
#    0.000    0.000    0.000    0.000    0.000    0.875 
#    0.000    0.000    0.000    0.000    0.000    0.000 
#
# Total GULP energy -178342.150855 kJ/mol
# GULP energy per Si atom -5573.192214 kJ/mol
# Density = 1.592159 g / cm^3
# Si number density = 15.957909 Si / 1000 Ang^3
#
#
#
# Elastic Constant Matrix: (Units=GPa)
#
#
# Indices 1 2 3 4 5 6 
#
# 1 72.8563 47.9706 51.9979 0.0000 0.0000 0.0000
# 2 47.9706 77.8500 40.8164 0.0000 0.0000 0.0000
# 3 51.9979 40.8164 110.6666 0.0000 0.0000 0.0000
# 4 0.0000 0.0000 0.0000 18.0816 0.0000 0.0000
# 5 0.0000 0.0000 0.0000 0.0000 14.9190 0.0000
# 6 0.0000 0.0000 0.0000 0.0000 0.0000 25.4904
#
#
#
# Elastic Compliance Matrix: (Units=1/GPa)
#
#
# Indices 1 2 3 4 5 6 
#
# 1 0.028391 -0.013017 -0.008539 0.000000 0.000000 0.000000
# 2 -0.013017 0.021893 -0.001958 0.000000 0.000000 0.000000
# 3 -0.008539 -0.001958 0.013770 0.000000 0.000000 0.000000
# 4 0.000000 0.000000 0.000000 0.055305 0.000000 0.000000
# 5 0.000000 0.000000 0.000000 0.000000 0.067029 0.000000
# 6 0.000000 0.000000 0.000000 0.000000 0.000000 0.039230
#
#
# Mechanical properties :
#
#
# Convention : Reuss Voigt Hill
#
# Bulk Modulus (GPa) = 58.73496 60.32696 59.53096
# Shear Modulus (GPa) = 17.96480 19.73740 18.85110
#
# Velocity S-wave (km/s) = 3.35888 3.52069 3.44074
# Velocity P-wave (km/s) = 7.20617 7.37651 7.29183
#
# Compressibility (1/GPa) = 0.01702564
#
# Stress axis : x y z
#
# Youngs Moduli (GPa) = 35.22282 45.67621 72.61977
#
# Poissons Ratio (x) = 0.59459 0.62007
# Poissons Ratio (y) = 0.45851 0.14222
# Poissons Ratio (z) = 0.30075 0.08945
#
# Static dielectric constant tensor:
#      x y z
#    x 1.537700 0.000000 0.000000 
#    y 0.000000 1.537060 0.000000 
#    z 0.000000 0.000000 1.565260 
# 
# From -- ./inp_files/7007.got.cif
#   From: 2010.05.17/outbox.cif.g08.bks.cpg/sg46_4_cif.got.tgz:7007.got - 2010.06.03 19:58:25.
