data_PCOD9378265
_publ_section_title
;
Structure prediction by ZEFSAII (Michael W. Deem and Ramdas Pophale) SiO2 
 PCOD9378265
Probable space group: I M A 2
;
_chemical_formula_sum "Si O2"
_cell_formula_units_Z 52
_cell_length_a 8.923131
_cell_length_b 11.110380
_cell_length_c 27.621082
_cell_angle_alpha 90.000000
_cell_angle_beta 90.000000
_cell_angle_gamma 90.000000
_cell_volume 2738.336839
_symmetry_space_group_name_H-M "I M A 2"
_symmetry_group_IT_number 46
_symmetry_cell_setting 'orthorhombic'
loop_
_space_group_symop_operation_xyz
x,y,z
-x,-y,z
1/2-x,y,z
1/2+x,-y,z
1/2+x,1/2+y,1/2+z
1/2-x,1/2-y,1/2+z
-x,1/2+y,1/2+z
x,1/2-y,1/2+z
loop_
_atom_site_type_symbol
_atom_site_label
_atom_site_fract_x
_atom_site_fract_y
_atom_site_fract_z
Si Si1 0.431445 0.133828 0.415010
Si Si2 0.928077 0.374069 0.367460
Si Si3 0.500000 0.500000 0.182721
Si Si4 0.926400 0.872638 0.203072
Si Si5 0.930189 0.372224 0.020137
Si Si6 0.918524 0.228042 0.622040
Si Si7 0.418557 0.161788 0.769615
O O1 0.250000 0.128287 0.412025
O O2 0.495790 0.249508 0.385979
O O3 0.487579 0.157482 0.470080
O O4 0.500000 0.000000 0.402106
O O5 0.750000 0.372286 0.376458
O O6 0.000000 0.500000 0.386999
O O7 0.964488 0.376681 0.310109
O O8 0.422246 0.596781 0.147863
O O9 0.590650 0.579191 0.221681
O O10 0.750000 0.882050 0.205094
O O11 0.971616 0.788119 0.247750
O O12 0.973267 0.810242 0.153087
O O13 0.000000 0.000000 0.207149
O O14 0.750000 0.381781 0.012606
O O15 0.956247 0.285513 0.065670
O O16 0.000000 0.500000 0.034931
O O17 0.750000 0.275733 0.626489
O O18 0.250000 0.168492 0.790707
#
# Coordination Sequence:
#
# PCOD9378265 Si02
#       7
#     8   8   4   8   8   8   8
#     4  11  23  42  66  92 124 161 207 260 317 378
#     4  12  25  42  65  92 125 163 206 259 318 377
#     4  10  18  32  56  88 122 152 192 232 288 350
#     4  10  22  38  56  79 114 156 200 245 293 355
#     4  10  19  34  57  88 121 155 198 249 304 362
#     4  10  20  33  55  85 119 156 193 239 292 350
#     4  10  21  36  57  85 117 153 196 243 295 356
#
# _framework density 18.989629999999998
#
# number of rings (size 3 to 8) (size 9 to 14) (size 15 to 20)
#    0.000    1.538    1.538    5.077    0.000    5.538 
#    0.000    2.308    0.000    3.692    0.000    0.000 
#    0.000    0.000    0.000    0.000    0.000    0.000 
#
# Total GULP energy -144945.546149 kJ/mol
# GULP energy per Si atom -5574.828698 kJ/mol
# Density = 1.894641 g / cm^3
# Si number density = 18.989630 Si / 1000 Ang^3
#
#
#
# Elastic Constant Matrix: (Units=GPa)
#
#
# Indices 1 2 3 4 5 6 
#
# 1 103.1493 52.7052 38.3245 0.0000 0.0000 0.0000
# 2 52.7052 129.3684 37.3043 0.0000 0.0000 0.0000
# 3 38.3245 37.3043 56.4616 0.0000 0.0000 0.0000
# 4 0.0000 0.0000 0.0000 13.2957 0.0000 0.0000
# 5 0.0000 0.0000 0.0000 0.0000 24.2358 0.0000
# 6 0.0000 0.0000 0.0000 0.0000 0.0000 95.4651
#
#
#
# Elastic Compliance Matrix: (Units=1/GPa)
#
#
# Indices 1 2 3 4 5 6 
#
# 1 0.014291 -0.003737 -0.007231 0.000000 0.000000 0.000000
# 2 -0.003737 0.010526 -0.004418 0.000000 0.000000 0.000000
# 3 -0.007231 -0.004418 0.025539 0.000000 0.000000 0.000000
# 4 0.000000 0.000000 0.000000 0.075212 0.000000 0.000000
# 5 0.000000 0.000000 0.000000 0.000000 0.041261 0.000000
# 6 0.000000 0.000000 0.000000 0.000000 0.000000 0.010475
#
#
# Mechanical properties :
#
#
# Convention : Reuss Voigt Hill
#
# Bulk Modulus (GPa) = 51.06466 60.62749 55.84607
# Shear Modulus (GPa) = 23.29866 37.30902 30.30384
#
# Velocity S-wave (km/s) = 3.50653 4.43731 3.99909
# Velocity P-wave (km/s) = 6.58358 7.63210 7.12715
#
# Compressibility (1/GPa) = 0.01958302
#
# Stress axis : x y z
#
# Youngs Moduli (GPa) = 69.97491 94.99960 39.15640
#
# Poissons Ratio (x) = 0.35501 0.28315
# Poissons Ratio (y) = 0.26150 0.17300
# Poissons Ratio (z) = 0.50600 0.41973
#
# Static dielectric constant tensor:
#      x y z
#    x 1.655540 0.000000 0.000000 
#    y 0.000000 1.694420 0.000000 
#    z 0.000000 0.000000 1.659380 
# 
# From -- ./inp_files/24218.got.cif
#   From: 2010.05.17/outbox.cif.g08.bks.cpg/sg46_13_cif.got.tgz:24218.got - 2010.06.03 19:58:25.
