data_PCOD9378641
_publ_section_title
;
Structure prediction by ZEFSAII (Michael W. Deem and Ramdas Pophale) SiO2 
 PCOD9378641
Probable space group: I M A 2
;
_chemical_formula_sum "Si O2"
_cell_formula_units_Z 64
_cell_length_a 9.631728
_cell_length_b 16.485227
_cell_length_c 21.685993
_cell_angle_alpha 90.000000
_cell_angle_beta 90.000000
_cell_angle_gamma 90.000000
_cell_volume 3443.328479
_symmetry_space_group_name_H-M "I M A 2"
_symmetry_group_IT_number 46
_symmetry_cell_setting 'orthorhombic'
loop_
_space_group_symop_operation_xyz
x,y,z
-x,-y,z
1/2-x,y,z
1/2+x,-y,z
1/2+x,1/2+y,1/2+z
1/2-x,1/2-y,1/2+z
-x,1/2+y,1/2+z
x,1/2-y,1/2+z
loop_
_atom_site_type_symbol
_atom_site_label
_atom_site_fract_x
_atom_site_fract_y
_atom_site_fract_z
Si Si1 0.907859 0.427435 0.274420
Si Si2 0.587010 0.269439 0.336271
Si Si3 0.591139 0.574701 0.946842
Si Si4 0.588708 0.267733 0.972636
Si Si5 0.584720 0.230903 0.108913
Si Si6 0.414819 0.080170 0.166533
Si Si7 0.408716 0.921698 0.626440
Si Si8 0.402556 0.120633 0.307313
O O1 0.750000 0.434583 0.296948
O O2 0.969765 0.343506 0.297474
O O3 0.904097 0.428345 0.200628
O O4 0.000000 0.500000 0.297679
O O5 0.750000 0.263679 0.324389
O O6 0.566127 0.280492 0.409241
O O7 0.519153 0.187215 0.314560
O O8 0.500000 0.500000 0.968381
O O9 0.750000 0.572272 0.967849
O O10 0.514607 0.656303 0.968258
O O11 0.593312 0.572173 0.871644
O O12 0.750000 0.296843 0.971691
O O13 0.570942 0.218165 0.035282
O O14 0.750000 0.224351 0.126080
O O15 0.492301 0.163344 0.144032
O O16 0.545818 0.327387 0.115791
O O17 0.250000 0.079372 0.148862
O O18 0.417094 0.078285 0.241538
O O19 0.500000 0.000000 0.144989
O O20 0.250000 0.928445 0.602504
O O21 0.500000 0.000000 0.606226
O O22 0.250000 0.160764 0.306739
#
# Coordination Sequence:
#
# PCOD9378641 Si02
#       8
#     8   8   8   8   8   8   8   8
#     4   9  17  29  46  70  97 124 157 198 247 302
#     4   9  17  31  52  75 100 132 168 207 256 313
#     4  10  19  32  51  76 107 138 169 208 257 314
#     4   9  19  35  53  73  99 133 173 215 258 308
#     4  10  21  38  57  77 106 143 181 223 269 315
#     4  11  23  38  57  81 108 140 181 227 275 326
#     4   9  18  32  51  76 105 136 169 207 254 309
#     4   9  19  33  51  78 107 134 167 211 263 319
#
# _framework density 18.586668
#
# number of rings (size 3 to 8) (size 9 to 14) (size 15 to 20)
#    0.000    2.500    0.000    1.875    0.000    4.500 
#    0.000    4.375    0.000    1.500    0.000    0.000 
#    0.000    0.000    0.000    0.000    0.000    0.000 
#
# Total GULP energy -178222.034320 kJ/mol
# GULP energy per Si atom -5569.438573 kJ/mol
# Density = 1.854436 g / cm^3
# Si number density = 18.586668 Si / 1000 Ang^3
#
#
#
# Elastic Constant Matrix: (Units=GPa)
#
#
# Indices 1 2 3 4 5 6 
#
# 1 84.5875 52.0876 37.2311 0.0000 0.0000 0.0000
# 2 52.0876 82.2795 17.6018 0.0000 0.0000 0.0000
# 3 37.2311 17.6018 44.8316 0.0000 0.0000 0.0000
# 4 0.0000 0.0000 0.0000 2.7962 0.0000 0.0000
# 5 0.0000 0.0000 0.0000 0.0000 12.8605 0.0000
# 6 0.0000 0.0000 0.0000 0.0000 0.0000 31.4865
#
#
#
# Elastic Compliance Matrix: (Units=1/GPa)
#
#
# Indices 1 2 3 4 5 6 
#
# 1 0.028539 -0.014188 -0.018130 0.000000 0.000000 0.000000
# 2 -0.014188 0.020322 0.003804 0.000000 0.000000 0.000000
# 3 -0.018130 0.003804 0.035868 0.000000 0.000000 0.000000
# 4 0.000000 0.000000 0.000000 0.357628 0.000000 0.000000
# 5 0.000000 0.000000 0.000000 0.000000 0.077758 0.000000
# 6 0.000000 0.000000 0.000000 0.000000 0.000000 0.031760
#
#
# Mechanical properties :
#
#
# Convention : Reuss Voigt Hill
#
# Bulk Modulus (GPa) = 36.09989 47.28218 41.69104
# Shear Modulus (GPa) = 8.08883 16.41384 12.25134
#
# Velocity S-wave (km/s) = 2.08840 2.97492 2.57017
# Velocity P-wave (km/s) = 5.02791 6.10690 5.59348
#
# Compressibility (1/GPa) = 0.02770091
#
# Stress axis : x y z
#
# Youngs Moduli (GPa) = 35.03995 49.20811 27.87969
#
# Poissons Ratio (x) = 0.69818 0.50546
# Poissons Ratio (y) = 0.49716 -0.10606
# Poissons Ratio (z) = 0.63527 -0.18719
#
# Static dielectric constant tensor:
#      x y z
#    x 1.648950 0.000000 0.000000 
#    y 0.000000 1.643140 0.000000 
#    z 0.000000 0.000000 1.664040 
# 
# From -- ./inp_files/21352.got.cif
#   From: 2010.05.17/outbox.cif.g08.bks.cpg/sg46_11_cif.got.tgz:21352.got - 2010.06.03 19:58:25.
