data_PCOD9378205
_publ_section_title
;
Structure prediction by ZEFSAII (Michael W. Deem and Ramdas Pophale) SiO2 
 PCOD9378205
Probable space group: I M A 2
;
_chemical_formula_sum "Si O2"
_cell_formula_units_Z 64
_cell_length_a 15.374151
_cell_length_b 18.279345
_cell_length_c 10.839116
_cell_angle_alpha 90.000000
_cell_angle_beta 90.000000
_cell_angle_gamma 90.000000
_cell_volume 3046.110377
_symmetry_space_group_name_H-M "I M A 2"
_symmetry_group_IT_number 46
_symmetry_cell_setting 'orthorhombic'
loop_
_space_group_symop_operation_xyz
x,y,z
-x,-y,z
1/2-x,y,z
1/2+x,-y,z
1/2+x,1/2+y,1/2+z
1/2-x,1/2-y,1/2+z
-x,1/2+y,1/2+z
x,1/2-y,1/2+z
loop_
_atom_site_type_symbol
_atom_site_label
_atom_site_fract_x
_atom_site_fract_y
_atom_site_fract_z
Si Si1 0.522689 0.080149 0.804850
Si Si2 0.843597 0.729156 0.636880
Si Si3 0.903436 0.467284 0.801755
Si Si4 0.467134 0.718403 0.168659
Si Si5 0.655235 0.881267 0.923691
Si Si6 0.845680 0.875683 0.367248
Si Si7 0.348132 0.958612 0.025830
Si Si8 0.460746 0.679744 0.905485
O O1 0.562099 0.137960 0.711038
O O2 0.430388 0.113277 0.844368
O O3 0.582622 0.070408 0.926128
O O4 0.500000 0.000000 0.753495
O O5 0.750000 0.765211 0.655669
O O6 0.847610 0.692205 0.502962
O O7 0.845904 0.661411 0.732291
O O8 0.928250 0.775457 0.660875
O O9 0.852052 0.536792 0.854586
O O10 0.870271 0.442728 0.667249
O O11 0.910176 0.396805 0.889141
O O12 0.000000 0.500000 0.781851
O O13 0.445903 0.775094 0.278650
O O14 0.436756 0.726794 0.026823
O O15 0.750000 0.885936 0.861750
O O16 0.650128 0.953149 0.010407
O O17 0.750000 0.857177 0.422041
O O18 0.936953 0.844545 0.419799
O O19 0.250000 0.934109 0.996580
#
# Coordination Sequence:
#
# PCOD9378205 Si02
#       8
#     8   8   8   8   8   8   8   8
#     4  10  22  35  58  85 121 162 206 244 305 359
#     4   9  17  30  54  86 124 158 190 230 286 360
#     4  10  18  31  57  89 119 150 200 249 297 354
#     4  11  23  40  56  84 119 162 199 247 297 358
#     4   9  16  30  54  91 128 156 190 236 290 360
#     4   9  17  32  55  89 124 154 188 239 291 351
#     4  10  19  32  58  91 119 152 201 254 302 347
#     4  10  24  36  58  87 120 156 205 239 299 358
#
# _framework density 21.010400000000001
#
# number of rings (size 3 to 8) (size 9 to 14) (size 15 to 20)
#    0.000    2.250    1.250    2.250    5.250    2.500 
#    0.000    2.500    0.000    6.000    0.000    0.000 
#    0.000    0.000    0.000    0.000    0.000    0.000 
#
# Total GULP energy -178448.854926 kJ/mol
# GULP energy per Si atom -5576.526716 kJ/mol
# Density = 2.096258 g / cm^3
# Si number density = 21.010400 Si / 1000 Ang^3
#
#
#
# Elastic Constant Matrix: (Units=GPa)
#
#
# Indices 1 2 3 4 5 6 
#
# 1 51.5167 17.0751 13.5274 0.0000 0.0000 0.0000
# 2 17.0751 92.8435 52.7017 0.0000 0.0000 0.0000
# 3 13.5274 52.7017 82.0681 0.0000 0.0000 0.0000
# 4 0.0000 0.0000 0.0000 31.3614 0.0000 0.0000
# 5 0.0000 0.0000 0.0000 0.0000 -21.3170 0.0000
# 6 0.0000 0.0000 0.0000 0.0000 0.0000 11.1792
#
#
#
# Elastic Compliance Matrix: (Units=1/GPa)
#
#
# Indices 1 2 3 4 5 6 
#
# 1 0.020792 -0.002956 -0.001529 0.000000 0.000000 0.000000
# 2 -0.002956 0.017369 -0.010667 0.000000 0.000000 0.000000
# 3 -0.001529 -0.010667 0.019287 0.000000 0.000000 0.000000
# 4 0.000000 0.000000 0.000000 0.031886 0.000000 0.000000
# 5 0.000000 0.000000 0.000000 0.000000 -0.046911 0.000000
# 6 0.000000 0.000000 0.000000 0.000000 0.000000 0.089452
#
#
# Mechanical properties :
#
#
# Convention : Reuss Voigt Hill
#
# Bulk Modulus (GPa) = 36.83918 43.67077 40.25498
# Shear Modulus (GPa) = 29.20077 13.78632 21.49355
#
# Velocity S-wave (km/s) = 3.73208 2.56435 3.20190
# Velocity P-wave (km/s) = 6.01191 5.44043 5.73330
#
# Compressibility (1/GPa) = 0.02714501
#
# Stress axis : x y z
#
# Youngs Moduli (GPa) = 48.09439 57.57241 51.84847
#
# Poissons Ratio (x) = 0.17019 0.07927
# Poissons Ratio (y) = 0.14217 0.55306
# Poissons Ratio (z) = 0.07353 0.61412
#
# Static dielectric constant tensor:
#      x y z
#    x 1.757910 0.000000 0.000000 
#    y 0.000000 1.775420 0.000000 
#    z 0.000000 0.000000 1.786060 
# 
# From -- ./inp_files/11305.got.cif
#   From: 2010.05.17/outbox.cif.g08.bks.cpg/sg46_6_cif.got.tgz:11305.got - 2010.06.03 19:58:25.
