data_PCOD9378087
_publ_section_title
;
Structure prediction by ZEFSAII (Michael W. Deem and Ramdas Pophale) SiO2 
 PCOD9378087
Probable space group: I M A 2
;
_chemical_formula_sum "Si O2"
_cell_formula_units_Z 56
_cell_length_a 8.808520
_cell_length_b 19.332487
_cell_length_c 18.491046
_cell_angle_alpha 90.000000
_cell_angle_beta 90.000000
_cell_angle_gamma 90.000000
_cell_volume 3148.851288
_symmetry_space_group_name_H-M "I M A 2"
_symmetry_group_IT_number 46
_symmetry_cell_setting 'orthorhombic'
loop_
_space_group_symop_operation_xyz
x,y,z
-x,-y,z
1/2-x,y,z
1/2+x,-y,z
1/2+x,1/2+y,1/2+z
1/2-x,1/2-y,1/2+z
-x,1/2+y,1/2+z
x,1/2-y,1/2+z
loop_
_atom_site_type_symbol
_atom_site_label
_atom_site_fract_x
_atom_site_fract_y
_atom_site_fract_z
Si Si1 0.074778 0.846905 0.171830
Si Si2 0.571425 0.930169 0.587891
Si Si3 0.570039 0.301489 0.826121
Si Si4 0.077665 0.794405 0.583440
Si Si5 0.068035 0.423640 0.537020
Si Si6 0.927736 0.432914 0.928709
Si Si7 0.564605 0.296403 0.448452
O O1 0.250000 0.872734 0.178673
O O2 0.006292 0.829855 0.250462
O O3 0.081594 0.772097 0.134088
O O4 0.986306 0.896042 0.116084
O O5 0.750000 0.935941 0.589966
O O6 0.516121 0.856714 0.617493
O O7 0.512420 0.926005 0.505048
O O8 0.500000 0.000000 0.619964
O O9 0.750000 0.289416 0.812075
O O10 0.556776 0.364858 0.881532
O O11 0.516748 0.233330 0.869989
O O12 0.250000 0.819844 0.571398
O O13 0.021201 0.762625 0.507456
O O14 0.250000 0.425119 0.533835
O O15 0.000000 0.500000 0.524908
O O16 0.004067 0.367764 0.478592
O O17 0.750000 0.445137 0.942277
O O18 0.000000 0.500000 0.891188
O O19 0.750000 0.301125 0.450638
#
# Coordination Sequence:
#
# PCOD9378087 Si02
#       7
#     8   8   8   8   8   8   8
#     4   9  19  35  55  78 105 139 173 210 262 322
#     4  11  20  29  45  68  95 126 163 203 245 289
#     4   9  17  32  54  77 105 140 175 209 257 317
#     4   9  16  30  50  72 100 130 164 206 251 302
#     4  11  22  37  56  80 108 141 183 229 273 320
#     4  10  18  30  45  68 100 132 164 198 238 288
#     4   9  17  33  56  79 104 136 173 217 265 317
#
# _framework density 17.784262999999999
#
# number of rings (size 3 to 8) (size 9 to 14) (size 15 to 20)
#    0.000    2.286    1.429    4.714    0.000    2.857 
#    0.000    3.571    0.000    0.857    0.000    0.000 
#    0.000    0.000    0.000    0.000    0.000    0.000 
#
# Total GULP energy -155947.810731 kJ/mol
# GULP energy per Si atom -5569.564669 kJ/mol
# Density = 1.774378 g / cm^3
# Si number density = 17.784263 Si / 1000 Ang^3
#
#
#
# Elastic Constant Matrix: (Units=GPa)
#
#
# Indices 1 2 3 4 5 6 
#
# 1 80.9869 44.8431 1.9381 0.0000 0.0000 0.0000
# 2 44.8431 114.1460 9.2918 0.0000 0.0000 0.0000
# 3 1.9381 9.2918 34.6581 0.0000 0.0000 0.0000
# 4 0.0000 0.0000 0.0000 7.8214 0.0000 0.0000
# 5 0.0000 0.0000 0.0000 0.0000 13.2360 0.0000
# 6 0.0000 0.0000 0.0000 0.0000 0.0000 24.6959
#
#
#
# Elastic Compliance Matrix: (Units=1/GPa)
#
#
# Indices 1 2 3 4 5 6 
#
# 1 0.015802 -0.006273 0.000798 0.000000 0.000000 0.000000
# 2 -0.006273 0.011446 -0.002718 0.000000 0.000000 0.000000
# 3 0.000798 -0.002718 0.029537 0.000000 0.000000 0.000000
# 4 0.000000 0.000000 0.000000 0.127855 0.000000 0.000000
# 5 0.000000 0.000000 0.000000 0.000000 0.075552 0.000000
# 6 0.000000 0.000000 0.000000 0.000000 0.000000 0.040493
#
#
# Mechanical properties :
#
#
# Convention : Reuss Voigt Hill
#
# Bulk Modulus (GPa) = 24.75242 37.99301 31.37272
# Shear Modulus (GPa) = 15.12691 20.73185 17.92938
#
# Velocity S-wave (km/s) = 2.91963 3.41800 3.17860
# Velocity P-wave (km/s) = 5.03131 6.08166 5.58125
#
# Compressibility (1/GPa) = 0.04040008
#
# Stress axis : x y z
#
# Youngs Moduli (GPa) = 63.28343 87.36446 33.85547
#
# Poissons Ratio (x) = 0.54803 -0.02702
# Poissons Ratio (y) = 0.39697 0.09202
# Poissons Ratio (z) = -0.05051 0.23745
#
# Static dielectric constant tensor:
#      x y z
#    x 1.625000 0.000000 0.000000 
#    y 0.000000 1.657290 0.000000 
#    z 0.000000 0.000000 1.636810 
# 
# From -- ./inp_files/21230.got.cif
#   From: 2010.05.17/outbox.cif.g08.bks.cpg/sg46_11_cif.got.tgz:21230.got - 2010.06.03 19:58:25.
