data_PCOD9378928
_publ_section_title
;
Structure prediction by ZEFSAII (Michael W. Deem and Ramdas Pophale) SiO2 
 PCOD9378928
Probable space group: I M A 2
;
_chemical_formula_sum "Si O2"
_cell_formula_units_Z 48
_cell_length_a 16.700581
_cell_length_b 8.513330
_cell_length_c 16.267397
_cell_angle_alpha 90.000000
_cell_angle_beta 90.000000
_cell_angle_gamma 90.000000
_cell_volume 2312.858768
_symmetry_space_group_name_H-M "I M A 2"
_symmetry_group_IT_number 46
_symmetry_cell_setting 'orthorhombic'
loop_
_space_group_symop_operation_xyz
x,y,z
-x,-y,z
1/2-x,y,z
1/2+x,-y,z
1/2+x,1/2+y,1/2+z
1/2-x,1/2-y,1/2+z
-x,1/2+y,1/2+z
x,1/2-y,1/2+z
loop_
_atom_site_type_symbol
_atom_site_label
_atom_site_fract_x
_atom_site_fract_y
_atom_site_fract_z
Si Si1 0.250000 0.810052 0.157501
Si Si2 0.912636 0.348036 0.906259
Si Si3 0.750000 0.186968 0.962112
Si Si4 0.750000 0.818640 0.961676
Si Si5 0.585801 0.345047 0.716476
Si Si6 0.580794 0.807851 0.467282
Si Si7 0.750000 0.686601 0.660674
Si Si8 0.920715 0.695015 0.654433
O O1 0.250000 0.502545 0.447743
O O2 0.166323 0.751802 0.194543
O O3 0.250000 0.785665 0.060245
O O4 0.831650 0.256740 0.925844
O O5 0.911926 0.396115 0.810952
O O6 0.913554 0.503993 0.961676
O O7 0.997309 0.262410 0.923370
O O8 0.834413 0.750346 0.930912
O O9 0.750000 0.498514 0.676664
O O10 0.750000 0.792990 0.061282
O O11 0.584137 0.504289 0.661659
O O12 0.502494 0.258122 0.698935
O O13 0.574466 0.746296 0.560125
O O14 0.835269 0.751748 0.690190
#
# Coordination Sequence:
#
# PCOD9378928 Si02
#       8
#     4   8   4   4   8   8   4   8
#     4   9  17  31  54  80 105 142 197 238 279 346
#     4  11  23  37  58  92 129 156 194 258 322 355
#     4  11  22  38  62  90 117 159 206 257 302 360
#     4   9  19  35  58  84 114 152 203 244 289 352
#     4  10  19  34  56  84 115 157 202 247 294 362
#     4  10  20  36  58  90 121 155 200 255 305 365
#     4   7  14  26  46  80 102 123 178 247 276 306
#     4   9  16  30  54  78 107 148 200 243 282 349
#
# _framework density 20.753537000000001
#
# number of rings (size 3 to 8) (size 9 to 14) (size 15 to 20)
#    0.000    2.333    0.000    5.000    0.000    3.333 
#    0.000    2.500    0.000   18.000    0.000    0.000 
#    0.000    0.000    0.000    0.000    0.000    0.000 
#
# Total GULP energy -133769.136411 kJ/mol
# GULP energy per Si atom -5573.714017 kJ/mol
# Density = 2.070630 g / cm^3
# Si number density = 20.753537 Si / 1000 Ang^3
#
#
#
# Elastic Constant Matrix: (Units=GPa)
#
#
# Indices 1 2 3 4 5 6 
#
# 1 261.4722 41.5122 28.5995 0.0000 0.0000 0.0000
# 2 41.5122 24.5459 33.7119 0.0000 0.0000 0.0000
# 3 28.5995 33.7119 70.8394 0.0000 0.0000 0.0000
# 4 0.0000 0.0000 0.0000 10.4122 0.0000 0.0000
# 5 0.0000 0.0000 0.0000 0.0000 -90.6593 0.0000
# 6 0.0000 0.0000 0.0000 0.0000 0.0000 8.9885
#
#
#
# Elastic Compliance Matrix: (Units=1/GPa)
#
#
# Indices 1 2 3 4 5 6 
#
# 1 0.006315 -0.020721 0.007312 0.000000 0.000000 0.000000
# 2 -0.020721 0.185608 -0.079964 0.000000 0.000000 0.000000
# 3 0.007312 -0.079964 0.049219 0.000000 0.000000 0.000000
# 4 0.000000 0.000000 0.000000 0.096041 0.000000 0.000000
# 5 0.000000 0.000000 0.000000 0.000000 -0.011030 0.000000
# 6 0.000000 0.000000 0.000000 0.000000 0.000000 0.111253
#
#
# Mechanical properties :
#
#
# Convention : Reuss Voigt Hill
#
# Bulk Modulus (GPa) = 18.38413 62.72273 40.55343
# Shear Modulus (GPa) = 7.78472 2.61721 5.20096
#
# Velocity S-wave (km/s) = 1.93886 1.12420 1.58477
# Velocity P-wave (km/s) = 3.72690 5.65450 4.78869
#
# Compressibility (1/GPa) = 0.05439474
#
# Stress axis : x y z
#
# Youngs Moduli (GPa) = 158.36467 5.38769 20.31752
#
# Poissons Ratio (x) = 0.11164 -0.14856
# Poissons Ratio (y) = 3.28154 1.62467
# Poissons Ratio (z) = -1.15794 0.43082
#
# Static dielectric constant tensor:
#      x y z
#    x 1.871900 0.000000 0.000000 
#    y 0.000000 1.706310 0.000000 
#    z 0.000000 0.000000 1.715180 
# 
# From -- ./inp_files/11842.got.cif
#   From: 2010.05.17/outbox.cif.g08.bks.cpg/sg46_6_cif.got.tgz:11842.got - 2010.06.03 19:58:25.
