data_PCOD9378070
_publ_section_title
;
Structure prediction by ZEFSAII (Michael W. Deem and Ramdas Pophale) SiO2 
 PCOD9378070
Probable space group: I M A 2
;
_chemical_formula_sum "Si O2"
_cell_formula_units_Z 60
_cell_length_a 23.513623
_cell_length_b 5.329410
_cell_length_c 22.431820
_cell_angle_alpha 90.000000
_cell_angle_beta 90.000000
_cell_angle_gamma 90.000000
_cell_volume 2811.015204
_symmetry_space_group_name_H-M "I M A 2"
_symmetry_group_IT_number 46
_symmetry_cell_setting 'orthorhombic'
loop_
_space_group_symop_operation_xyz
x,y,z
-x,-y,z
1/2-x,y,z
1/2+x,-y,z
1/2+x,1/2+y,1/2+z
1/2-x,1/2-y,1/2+z
-x,1/2+y,1/2+z
x,1/2-y,1/2+z
loop_
_atom_site_type_symbol
_atom_site_label
_atom_site_fract_x
_atom_site_fract_y
_atom_site_fract_z
Si Si1 0.314710 0.979746 0.261730
Si Si2 0.312957 0.080686 0.616022
Si Si3 0.895972 0.262048 0.674466
Si Si4 0.579876 0.876896 0.075679
Si Si5 0.188044 0.657505 0.990385
Si Si6 0.815680 0.521930 0.339459
Si Si7 0.872407 0.844630 0.956415
Si Si8 0.500000 0.000000 0.652124
O O1 0.250000 0.945079 0.237251
O O2 0.365848 0.970382 0.214070
O O3 0.323627 0.746049 0.307248
O O4 0.316259 0.245266 0.294379
O O5 0.250000 0.170350 0.630892
O O6 0.345428 0.937525 0.667867
O O7 0.308749 0.889788 0.560737
O O8 0.356833 0.279615 0.590531
O O9 0.917822 0.359318 0.609699
O O10 0.953960 0.134772 0.694661
O O11 0.536234 0.693051 0.110145
O O12 0.575612 0.879110 0.003881
O O13 0.250000 0.604193 0.964171
O O14 0.146738 0.444633 0.963749
O O15 0.170819 0.942436 0.980845
O O16 0.750000 0.521645 0.364436
O O17 0.865556 0.581440 0.387248
#
# Coordination Sequence:
#
# PCOD9378070 Si02
#       8
#     8   8   8   8   8   8   8   4
#     4  10  23  39  61  90 129 168 207 254 305 369
#     4   9  19  31  50  86 128 156 189 239 306 379
#     4  11  21  40  61  88 117 162 210 261 318 378
#     4  10  22  38  60  92 121 158 207 257 324 379
#     4  10  18  29  48  82 120 157 194 237 286 353
#     4  10  21  38  57  88 129 174 209 243 298 368
#     4  11  20  35  58  85 122 162 205 246 298 370
#     4  10  24  42  64  88 118 158 206 270 334 378
#
# _framework density 21.3446
#
# number of rings (size 3 to 8) (size 9 to 14) (size 15 to 20)
#    0.000    1.867    1.333    2.800    3.733    3.200 
#    0.000    0.000    0.000    1.600    0.000    0.000 
#    0.000    0.000    0.000    0.000    0.000    0.000 
#
# Total GULP energy -167113.131072 kJ/mol
# GULP energy per Si atom -5570.437702 kJ/mol
# Density = 2.129602 g / cm^3
# Si number density = 21.344600 Si / 1000 Ang^3
#
#
#
# Elastic Constant Matrix: (Units=GPa)
#
#
# Indices 1 2 3 4 5 6 
#
# 1 105.1667 20.8715 21.4977 0.0000 0.0000 0.0000
# 2 20.8715 69.6193 19.5207 0.0000 0.0000 0.0000
# 3 21.4977 19.5207 69.2509 0.0000 0.0000 0.0000
# 4 0.0000 0.0000 0.0000 38.1727 0.0000 0.0000
# 5 0.0000 0.0000 0.0000 0.0000 14.1797 0.0000
# 6 0.0000 0.0000 0.0000 0.0000 0.0000 20.3349
#
#
#
# Elastic Compliance Matrix: (Units=1/GPa)
#
#
# Indices 1 2 3 4 5 6 
#
# 1 0.010518 -0.002430 -0.002580 0.000000 0.000000 0.000000
# 2 -0.002430 0.016158 -0.003800 0.000000 0.000000 0.000000
# 3 -0.002580 -0.003800 0.016313 0.000000 0.000000 0.000000
# 4 0.000000 0.000000 0.000000 0.026197 0.000000 0.000000
# 5 0.000000 0.000000 0.000000 0.000000 0.070523 0.000000
# 6 0.000000 0.000000 0.000000 0.000000 0.000000 0.049177
#
#
# Mechanical properties :
#
#
# Convention : Reuss Voigt Hill
#
# Bulk Modulus (GPa) = 39.42012 40.86854 40.14433
# Shear Modulus (GPa) = 23.25988 26.68059 24.97024
#
# Velocity S-wave (km/s) = 3.30469 3.53936 3.42404
# Velocity P-wave (km/s) = 5.75064 5.99094 5.87202
#
# Compressibility (1/GPa) = 0.02536776
#
# Stress axis : x y z
#
# Youngs Moduli (GPa) = 95.07148 61.88931 61.30263
#
# Poissons Ratio (x) = 0.15038 0.15818
# Poissons Ratio (y) = 0.23101 0.23297
# Poissons Ratio (z) = 0.24531 0.23520
#
# Static dielectric constant tensor:
#      x y z
#    x 1.802420 0.000000 0.000000 
#    y 0.000000 1.819020 0.000000 
#    z 0.000000 0.000000 1.892860 
# 
# From -- ./inp_files/22577.got.cif
#   From: 2010.05.17/outbox.cif.g08.bks.cpg/sg46_12_cif.got.tgz:22577.got - 2010.06.03 19:58:25.
