data_PCOD9378254
_publ_section_title
;
Structure prediction by ZEFSAII (Michael W. Deem and Ramdas Pophale) SiO2 
 PCOD9378254
Probable space group: I M A 2
;
_chemical_formula_sum "Si O2"
_cell_formula_units_Z 48
_cell_length_a 26.966031
_cell_length_b 5.297602
_cell_length_c 14.010148
_cell_angle_alpha 90.000000
_cell_angle_beta 90.000000
_cell_angle_gamma 90.000000
_cell_volume 2001.423892
_symmetry_space_group_name_H-M "I M A 2"
_symmetry_group_IT_number 46
_symmetry_cell_setting 'orthorhombic'
loop_
_space_group_symop_operation_xyz
x,y,z
-x,-y,z
1/2-x,y,z
1/2+x,-y,z
1/2+x,1/2+y,1/2+z
1/2-x,1/2-y,1/2+z
-x,1/2+y,1/2+z
x,1/2-y,1/2+z
loop_
_atom_site_type_symbol
_atom_site_label
_atom_site_fract_x
_atom_site_fract_y
_atom_site_fract_z
Si Si1 0.555942 0.502130 0.616750
Si Si2 0.055942 0.502130 0.243817
Si Si3 0.192962 0.699284 0.040262
Si Si4 0.846366 0.195523 0.825287
Si Si5 0.807038 0.800715 0.320305
Si Si6 0.153634 0.304478 0.535279
O O1 0.500000 0.500000 0.576522
O O2 0.560571 0.226570 0.664981
O O3 0.598923 0.579149 0.543394
O O4 0.560571 0.726570 0.695586
O O5 0.098923 0.579149 0.317173
O O6 0.000000 0.500000 0.284044
O O7 0.250000 0.619451 0.040618
O O8 0.173733 0.752154 0.932024
O O9 0.159229 0.473546 0.079504
O O10 0.187649 0.979636 0.082166
O O11 0.840771 0.473547 0.781063
O O12 0.812351 0.979637 0.778400
O O13 0.750000 0.880548 0.319949
O O14 0.826267 0.747845 0.428542
#
# Coordination Sequence:
#
# PCOD9378254 Si02
#       6
#     8   8   8   8   8   8
#     4  10  21  37  56  76 103 142 183 222 264 313
#     4  10  21  37  56  76 103 142 183 222 264 313
#     4  10  19  33  56  81 108 140 171 214 269 323
#     4  10  18  32  55  79 103 138 178 215 262 321
#     4  10  19  33  56  81 108 140 171 214 269 323
#     4  10  18  32  55  79 103 138 178 215 262 321
#
# _framework density 23.982927
#
# number of rings (size 3 to 8) (size 9 to 14) (size 15 to 20)
#    0.000    2.000    0.000    7.000    0.000    0.000 
#    0.000    3.333    0.000   42.000    0.000    0.000 
#    0.000    0.000    0.000    0.000    0.000    0.000 
#
# Total GULP energy -133878.478632 kJ/mol
# GULP energy per Si atom -5578.269943 kJ/mol
# Density = 2.392834 g / cm^3
# Si number density = 23.982927 Si / 1000 Ang^3
#
#
#
# Elastic Constant Matrix: (Units=GPa)
#
#
# Indices 1 2 3 4 5 6 
#
# 1 201.7385 39.4143 9.6563 0.0000 0.0000 0.0000
# 2 39.4143 209.0086 -11.9608 0.0000 0.0000 0.0000
# 3 9.6563 -11.9608 66.2970 0.0000 0.0000 0.0000
# 4 0.0000 0.0000 0.0000 7.6825 0.0000 0.0000
# 5 0.0000 0.0000 0.0000 0.0000 42.5027 0.0000
# 6 0.0000 0.0000 0.0000 0.0000 0.0000 43.2789
#
#
#
# Elastic Compliance Matrix: (Units=1/GPa)
#
#
# Indices 1 2 3 4 5 6 
#
# 1 0.005204 -0.001036 -0.000945 0.000000 0.000000 0.000000
# 2 -0.001036 0.005040 0.001060 0.000000 0.000000 0.000000
# 3 -0.000945 0.001060 0.015413 0.000000 0.000000 0.000000
# 4 0.000000 0.000000 0.000000 0.130165 0.000000 0.000000
# 5 0.000000 0.000000 0.000000 0.000000 0.023528 0.000000
# 6 0.000000 0.000000 0.000000 0.000000 0.000000 0.023106
#
#
# Mechanical properties :
#
#
# Convention : Reuss Voigt Hill
#
# Bulk Modulus (GPa) = 41.98679 61.25155 51.61917
# Shear Modulus (GPa) = 23.55869 48.02176 35.79022
#
# Velocity S-wave (km/s) = 3.13758 4.47960 3.86725
# Velocity P-wave (km/s) = 5.53813 7.23539 6.44289
#
# Compressibility (1/GPa) = 0.02381702
#
# Stress axis : x y z
#
# Youngs Moduli (GPa) = 192.14322 198.39546 64.88232
#
# Poissons Ratio (x) = 0.20544 0.06130
# Poissons Ratio (y) = 0.19897 -0.06879
# Poissons Ratio (z) = 0.18155 -0.21033
#
# Static dielectric constant tensor:
#      x y z
#    x 1.907790 0.000000 0.000000 
#    y 0.000000 2.102740 0.000000 
#    z 0.000000 0.000000 2.929780 
# 
# From -- ./inp_files/22516.got.cif
#   From: 2010.05.17/outbox.cif.g08.bks.cpg/sg46_12_cif.got.tgz:22516.got - 2010.06.03 19:58:25.
