data_PCOD9378389
_publ_section_title
;
Structure prediction by ZEFSAII (Michael W. Deem and Ramdas Pophale) SiO2 
 PCOD9378389
Probable space group: I M A 2
;
_chemical_formula_sum "Si O2"
_cell_formula_units_Z 36
_cell_length_a 21.462666
_cell_length_b 8.235878
_cell_length_c 9.265454
_cell_angle_alpha 90.000000
_cell_angle_beta 90.000000
_cell_angle_gamma 90.000000
_cell_volume 1637.797773
_symmetry_space_group_name_H-M "I M A 2"
_symmetry_group_IT_number 46
_symmetry_cell_setting 'orthorhombic'
loop_
_space_group_symop_operation_xyz
x,y,z
-x,-y,z
1/2-x,y,z
1/2+x,-y,z
1/2+x,1/2+y,1/2+z
1/2-x,1/2-y,1/2+z
-x,1/2+y,1/2+z
x,1/2-y,1/2+z
loop_
_atom_site_type_symbol
_atom_site_label
_atom_site_fract_x
_atom_site_fract_y
_atom_site_fract_z
Si Si1 0.405925 0.686630 0.475020
Si Si2 0.678135 0.602982 0.547895
Si Si3 0.000000 0.500000 0.689335
Si Si4 0.610745 0.790141 0.309138
Si Si5 0.929456 0.046453 0.671880
O O1 0.345940 0.573624 0.498860
O O2 0.459643 0.609155 0.577459
O O3 0.397915 0.866924 0.535845
O O4 0.426036 0.668697 0.309551
O O5 0.750000 0.628464 0.514194
O O6 0.634691 0.734194 0.464752
O O7 0.663549 0.619842 0.716933
O O8 0.952160 0.605931 0.785209
O O9 0.600127 0.616547 0.232786
O O10 0.000000 0.000000 0.635875
#
# Coordination Sequence:
#
# PCOD9378389 Si02
#       5
#     8   8   4   8   8
#     4  10  22  37  59  88 126 163 205 262 320 383
#     4  10  22  43  62  87 125 174 222 265 316 383
#     4  10  18  36  60  96 128 156 210 262 332 388
#     4  10  22  37  64  95 125 166 212 267 327 386
#     4  11  21  38  58  93 126 160 198 258 328 388
#
# _framework density 21.980734999999999
#
# number of rings (size 3 to 8) (size 9 to 14) (size 15 to 20)
#    0.000    1.778    3.333    0.667    0.000    3.556 
#    4.000    5.556    0.000    0.000    0.000    0.000 
#    0.000    0.000    0.000    0.000    0.000    0.000 
#
# Total GULP energy -100616.570563 kJ/mol
# GULP energy per Si atom -5589.809476 kJ/mol
# Density = 2.193071 g / cm^3
# Si number density = 21.980735 Si / 1000 Ang^3
#
#
#
# Elastic Constant Matrix: (Units=GPa)
#
#
# Indices 1 2 3 4 5 6 
#
# 1 78.3423 13.9949 19.8142 0.0000 0.0000 0.0000
# 2 13.9949 69.0025 35.2142 0.0000 0.0000 0.0000
# 3 19.8142 35.2142 104.0969 0.0000 0.0000 0.0000
# 4 0.0000 0.0000 0.0000 45.7968 0.0000 0.0000
# 5 0.0000 0.0000 0.0000 0.0000 14.1074 0.0000
# 6 0.0000 0.0000 0.0000 0.0000 0.0000 19.5602
#
#
#
# Elastic Compliance Matrix: (Units=1/GPa)
#
#
# Indices 1 2 3 4 5 6 
#
# 1 0.013580 -0.001735 -0.001998 0.000000 0.000000 0.000000
# 2 -0.001735 0.017738 -0.005670 0.000000 0.000000 0.000000
# 3 -0.001998 -0.005670 0.011905 0.000000 0.000000 0.000000
# 4 0.000000 0.000000 0.000000 0.021836 0.000000 0.000000
# 5 0.000000 0.000000 0.000000 0.000000 0.070885 0.000000
# 6 0.000000 0.000000 0.000000 0.000000 0.000000 0.051124
#
#
# Mechanical properties :
#
#
# Convention : Reuss Voigt Hill
#
# Bulk Modulus (GPa) = 40.95553 43.27646 42.11599
# Shear Modulus (GPa) = 23.36327 28.05412 25.70869
#
# Velocity S-wave (km/s) = 3.26375 3.57642 3.42365
# Velocity P-wave (km/s) = 5.73373 6.06510 5.90174
#
# Compressibility (1/GPa) = 0.02441673
#
# Stress axis : x y z
#
# Youngs Moduli (GPa) = 73.63936 56.37707 83.99917
#
# Poissons Ratio (x) = 0.09779 0.16783
# Poissons Ratio (y) = 0.12773 0.47629
# Poissons Ratio (z) = 0.14714 0.31967
#
# Static dielectric constant tensor:
#      x y z
#    x 1.754210 0.000000 0.000000 
#    y 0.000000 1.896410 0.000000 
#    z 0.000000 0.000000 1.829440 
# 
# From -- ./inp_files/7148.got.cif
#   From: 2010.05.17/outbox.cif.g08.bks.cpg/sg46_4_cif.got.tgz:7148.got - 2010.06.03 19:58:25.
