data_PCOD9378315
_publ_section_title
;
Structure prediction by ZEFSAII (Michael W. Deem and Ramdas Pophale) SiO2 
 PCOD9378315
Probable space group: I M A 2
;
_chemical_formula_sum "Si O2"
_cell_formula_units_Z 40
_cell_length_a 13.753957
_cell_length_b 16.871324
_cell_length_c 7.604997
_cell_angle_alpha 90.000000
_cell_angle_beta 90.000000
_cell_angle_gamma 90.000000
_cell_volume 1764.720274
_symmetry_space_group_name_H-M "I M A 2"
_symmetry_group_IT_number 46
_symmetry_cell_setting 'orthorhombic'
loop_
_space_group_symop_operation_xyz
x,y,z
-x,-y,z
1/2-x,y,z
1/2+x,-y,z
1/2+x,1/2+y,1/2+z
1/2-x,1/2-y,1/2+z
-x,1/2+y,1/2+z
x,1/2-y,1/2+z
loop_
_atom_site_type_symbol
_atom_site_label
_atom_site_fract_x
_atom_site_fract_y
_atom_site_fract_z
Si Si1 0.543979 0.083510 0.069980
Si Si2 0.143497 0.144505 0.562650
Si Si3 0.861496 0.191633 0.786506
Si Si4 0.938775 0.144080 0.414531
Si Si5 0.144126 0.330187 0.479167
O O1 0.594232 0.085430 0.260228
O O2 0.500000 0.000000 0.015675
O O3 0.611903 0.124603 0.927341
O O4 0.446909 0.137225 0.083936
O O5 0.250000 0.109220 0.521138
O O6 0.145984 0.235845 0.499145
O O7 0.133043 0.146575 0.774411
O O8 0.044842 0.114194 0.476912
O O9 0.750000 0.217367 0.804779
O O10 0.879633 0.156615 0.593584
O O11 0.929521 0.267866 0.825606
O O12 0.250000 0.359826 0.540886
#
# Coordination Sequence:
#
# PCOD9378315 Si02
#       5
#     8   8   8   8   8
#     4  12  27  44  67  98 142 181 226 293 365 425
#     4  10  18  33  64  99 127 161 212 274 331 402
#     4  12  25  44  73 103 140 187 248 303 345 418
#     4  12  22  42  71 105 133 181 243 296 351 416
#     4  10  19  35  60  93 128 164 206 261 333 404
#
# _framework density 22.666481000000001
#
# number of rings (size 3 to 8) (size 9 to 14) (size 15 to 20)
#    0.000    0.800    6.000    1.800    0.000    4.800 
#    0.000    0.000    0.000    0.000    0.000    0.000 
#    0.000    0.000    0.000    0.000    0.000    0.000 
#
# Total GULP energy -111754.602388 kJ/mol
# GULP energy per Si atom -5587.730119 kJ/mol
# Density = 2.261489 g / cm^3
# Si number density = 22.666481 Si / 1000 Ang^3
#
#
#
# Elastic Constant Matrix: (Units=GPa)
#
#
# Indices 1 2 3 4 5 6 
#
# 1 101.8542 3.4511 34.5806 0.0000 0.0000 0.0000
# 2 3.4511 19.6905 -1.6765 0.0000 0.0000 0.0000
# 3 34.5806 -1.6765 117.1666 0.0000 0.0000 0.0000
# 4 0.0000 0.0000 0.0000 9.5056 0.0000 0.0000
# 5 0.0000 0.0000 0.0000 0.0000 4.9923 0.0000
# 6 0.0000 0.0000 0.0000 0.0000 0.0000 13.5937
#
#
#
# Elastic Compliance Matrix: (Units=1/GPa)
#
#
# Indices 1 2 3 4 5 6 
#
# 1 0.011006 -0.002208 -0.003280 0.000000 0.000000 0.000000
# 2 -0.002208 0.051291 0.001386 0.000000 0.000000 0.000000
# 3 -0.003280 0.001386 0.009523 0.000000 0.000000 0.000000
# 4 0.000000 0.000000 0.000000 0.105201 0.000000 0.000000
# 5 0.000000 0.000000 0.000000 0.000000 0.200310 0.000000
# 6 0.000000 0.000000 0.000000 0.000000 0.000000 0.073563
#
#
# Mechanical properties :
#
#
# Convention : Reuss Voigt Hill
#
# Bulk Modulus (GPa) = 15.71964 34.60240 25.16102
# Shear Modulus (GPa) = 10.41005 19.10873 14.75939
#
# Velocity S-wave (km/s) = 2.14539 2.90666 2.55454
# Velocity P-wave (km/s) = 3.61762 5.15402 4.45259
#
# Compressibility (1/GPa) = 0.06361470
#
# Stress axis : x y z
#
# Youngs Moduli (GPa) = 90.85641 19.49663 105.01167
#
# Poissons Ratio (x) = 0.04305 0.34444
# Poissons Ratio (y) = 0.20064 -0.14551
# Poissons Ratio (z) = 0.29801 -0.02702
#
# Static dielectric constant tensor:
#      x y z
#    x 1.864630 0.000000 0.000000 
#    y 0.000000 1.838510 0.000000 
#    z 0.000000 0.000000 1.870890 
# 
# From -- ./inp_files/5403.got.cif
#   From: 2010.05.17/outbox.cif.g08.bks.cpg/sg46_3_cif.got.tgz:5403.got - 2010.06.03 19:58:25.
