data_PCOD9378135
_publ_section_title
;
Structure prediction by ZEFSAII (Michael W. Deem and Ramdas Pophale) SiO2 
 PCOD9378135
Probable space group: I M A 2
;
_chemical_formula_sum "Si O2"
_cell_formula_units_Z 64
_cell_length_a 15.827132
_cell_length_b 13.659889
_cell_length_c 16.885611
_cell_angle_alpha 90.000000
_cell_angle_beta 90.000000
_cell_angle_gamma 90.000000
_cell_volume 3650.616184
_symmetry_space_group_name_H-M "I M A 2"
_symmetry_group_IT_number 46
_symmetry_cell_setting 'orthorhombic'
loop_
_space_group_symop_operation_xyz
x,y,z
-x,-y,z
1/2-x,y,z
1/2+x,-y,z
1/2+x,1/2+y,1/2+z
1/2-x,1/2-y,1/2+z
-x,1/2+y,1/2+z
x,1/2-y,1/2+z
loop_
_atom_site_type_symbol
_atom_site_label
_atom_site_fract_x
_atom_site_fract_y
_atom_site_fract_z
Si Si1 0.652239 0.300787 0.875000
Si Si2 0.457016 0.758238 0.012648
Si Si3 0.071071 0.424872 0.438502
Si Si4 0.443106 0.912859 0.237267
Si Si5 0.154994 0.397917 0.276107
Si Si6 0.656355 0.131153 0.758667
Si Si7 0.149309 0.937294 0.074472
Si Si8 0.490046 0.211595 0.678868
O O1 0.750000 0.321000 0.893446
O O2 0.619060 0.366566 0.802395
O O3 0.647261 0.188030 0.842549
O O4 0.590032 0.309059 0.949121
O O5 0.385042 0.830634 0.048207
O O6 0.506468 0.707346 0.084229
O O7 0.522125 0.831148 0.970658
O O8 0.131623 0.390493 0.368591
O O9 0.115239 0.484111 0.510244
O O10 0.000000 0.500000 0.404935
O O11 0.392109 0.952224 0.160774
O O12 0.503129 0.824651 0.206415
O O13 0.500000 0.000000 0.270202
O O14 0.250000 0.362514 0.260272
O O15 0.153282 0.514872 0.262972
O O16 0.086059 0.343401 0.222365
O O17 0.750000 0.160919 0.728861
O O18 0.578885 0.166437 0.706925
O O19 0.250000 0.939602 0.077351
#
# Coordination Sequence:
#
# PCOD9378135 Si02
#       8
#     8   8   8   8   8   8   8   8
#     4  10  19  33  55  83 107 135 176 226 274 323
#     4  10  20  32  50  74 106 140 177 219 269 321
#     4  10  18  31  52  80 108 136 169 217 281 338
#     4  10  20  36  53  73 106 147 186 222 268 321
#     4  11  21  35  55  81 109 141 177 218 271 332
#     4   9  18  32  56  85 108 129 165 217 277 333
#     4  10  18  30  51  82 111 135 169 224 283 334
#     4  10  20  35  54  76 107 145 179 219 269 322
#
# _framework density 17.531288
#
# number of rings (size 3 to 8) (size 9 to 14) (size 15 to 20)
#    0.000    2.000    0.000    7.125    0.000    4.500 
#    0.000    5.000    0.000    0.000    0.000    0.000 
#    0.000    0.000    0.000    0.000    0.000    0.000 
#
# Total GULP energy -178516.946758 kJ/mol
# GULP energy per Si atom -5578.654586 kJ/mol
# Density = 1.749139 g / cm^3
# Si number density = 17.531288 Si / 1000 Ang^3
#
#
#
# Elastic Constant Matrix: (Units=GPa)
#
#
# Indices 1 2 3 4 5 6 
#
# 1 114.2206 48.5615 47.0866 0.0000 0.0000 0.0000
# 2 48.5615 49.2367 32.8932 0.0000 0.0000 0.0000
# 3 47.0866 32.8932 98.9534 0.0000 0.0000 0.0000
# 4 0.0000 0.0000 0.0000 19.9134 0.0000 0.0000
# 5 0.0000 0.0000 0.0000 0.0000 17.6477 0.0000
# 6 0.0000 0.0000 0.0000 0.0000 0.0000 9.7350
#
#
#
# Elastic Compliance Matrix: (Units=1/GPa)
#
#
# Indices 1 2 3 4 5 6 
#
# 1 0.015738 -0.013522 -0.002994 0.000000 0.000000 0.000000
# 2 -0.013522 0.037726 -0.006106 0.000000 0.000000 0.000000
# 3 -0.002994 -0.006106 0.013560 0.000000 0.000000 0.000000
# 4 0.000000 0.000000 0.000000 0.050218 0.000000 0.000000
# 5 0.000000 0.000000 0.000000 0.000000 0.056665 0.000000
# 6 0.000000 0.000000 0.000000 0.000000 0.000000 0.102722
#
#
# Mechanical properties :
#
#
# Convention : Reuss Voigt Hill
#
# Bulk Modulus (GPa) = 45.91398 57.72148 51.81773
# Shear Modulus (GPa) = 15.19140 18.38383 16.78762
#
# Velocity S-wave (km/s) = 2.94688 3.24177 3.09784
# Velocity P-wave (km/s) = 6.15024 6.85627 6.51283
#
# Compressibility (1/GPa) = 0.02177986
#
# Stress axis : x y z
#
# Youngs Moduli (GPa) = 63.53899 26.50677 73.74512
#
# Poissons Ratio (x) = 0.35843 0.22080
# Poissons Ratio (y) = 0.85919 0.45029
# Poissons Ratio (z) = 0.19024 0.16185
#
# Static dielectric constant tensor:
#      x y z
#    x 1.596270 0.000000 0.000000 
#    y 0.000000 1.596520 0.000000 
#    z 0.000000 0.000000 1.626860 
# 
# From -- ./inp_files/19720.got.cif
#   From: 2010.05.17/outbox.cif.g08.bks.cpg/sg46_10_cif.got.tgz:19720.got - 2010.06.03 19:58:25.
