data_PCOD9378231
_publ_section_title
;
Structure prediction by ZEFSAII (Michael W. Deem and Ramdas Pophale) SiO2 
 PCOD9378231
Probable space group: I M A 2
;
_chemical_formula_sum "Si O2"
_cell_formula_units_Z 48
_cell_length_a 7.541275
_cell_length_b 14.303479
_cell_length_c 19.334015
_cell_angle_alpha 90.000000
_cell_angle_beta 90.000000
_cell_angle_gamma 90.000000
_cell_volume 2085.491922
_symmetry_space_group_name_H-M "I M A 2"
_symmetry_group_IT_number 46
_symmetry_cell_setting 'orthorhombic'
loop_
_space_group_symop_operation_xyz
x,y,z
-x,-y,z
1/2-x,y,z
1/2+x,-y,z
1/2+x,1/2+y,1/2+z
1/2-x,1/2-y,1/2+z
-x,1/2+y,1/2+z
x,1/2-y,1/2+z
loop_
_atom_site_type_symbol
_atom_site_label
_atom_site_fract_x
_atom_site_fract_y
_atom_site_fract_z
Si Si1 0.451529 0.746888 0.891190
Si Si2 0.052741 0.895980 0.621266
Si Si3 0.536929 0.109535 0.282853
Si Si4 0.538605 0.601564 0.281125
Si Si5 0.467789 0.692883 0.636976
Si Si6 0.962225 0.105027 0.998805
O O1 0.250000 0.723254 0.912538
O O2 0.532612 0.655922 0.854138
O O3 0.452104 0.819540 0.827317
O O4 0.534517 0.809998 0.951755
O O5 0.250000 0.884793 0.594319
O O6 0.965125 0.794654 0.611082
O O7 0.044812 0.900378 0.704894
O O8 0.000000 0.000000 0.597464
O O9 0.750000 0.121842 0.284174
O O10 0.471719 0.162351 0.213330
O O11 0.500000 0.000000 0.277902
O O12 0.500000 0.500000 0.312300
O O13 0.750000 0.615587 0.275748
O O14 0.250000 0.696581 0.640105
O O15 0.519429 0.619623 0.577981
O O16 0.750000 0.114631 0.996425
O O17 0.000000 0.000000 0.975229
#
# Coordination Sequence:
#
# PCOD9378231 Si02
#       6
#     8   8   8   8   8   8
#     4  10  20  36  55  77 109 144 181 223 275 327
#     4  10  18  32  52  77 110 143 180 223 272 323
#     4  10  20  36  56  79 107 141 181 228 275 325
#     4  11  20  30  49  77 108 139 177 220 271 321
#     4   9  18  35  57  79 111 146 180 221 274 328
#     4  10  21  37  58  83 109 146 184 222 273 331
#
# _framework density 23.016152999999999
#
# number of rings (size 3 to 8) (size 9 to 14) (size 15 to 20)
#    0.000    2.000    1.667    4.000    0.000    2.667 
#    0.000    2.500    0.000    0.000    0.000    0.000 
#    0.000    0.000    0.000    0.000    0.000    0.000 
#
# Total GULP energy -133834.287614 kJ/mol
# GULP energy per Si atom -5576.428651 kJ/mol
# Density = 2.296377 g / cm^3
# Si number density = 23.016153 Si / 1000 Ang^3
#
#
#
# Elastic Constant Matrix: (Units=GPa)
#
#
# Indices 1 2 3 4 5 6 
#
# 1 74.2272 -1.9298 -0.4630 0.0000 0.0000 0.0000
# 2 -1.9298 148.2853 36.7916 0.0000 0.0000 0.0000
# 3 -0.4630 36.7916 87.4359 0.0000 0.0000 0.0000
# 4 0.0000 0.0000 0.0000 30.9447 0.0000 0.0000
# 5 0.0000 0.0000 0.0000 0.0000 -0.6980 0.0000
# 6 0.0000 0.0000 0.0000 0.0000 0.0000 24.0599
#
#
#
# Elastic Compliance Matrix: (Units=1/GPa)
#
#
# Indices 1 2 3 4 5 6 
#
# 1 0.013477 0.000176 -0.000003 0.000000 0.000000 0.000000
# 2 0.000176 0.007532 -0.003168 0.000000 0.000000 0.000000
# 3 -0.000003 -0.003168 0.012770 0.000000 0.000000 0.000000
# 4 0.000000 0.000000 0.000000 0.032316 0.000000 0.000000
# 5 0.000000 0.000000 0.000000 0.000000 -1.432760 0.000000
# 6 0.000000 0.000000 0.000000 0.000000 0.000000 0.041563
#
#
# Mechanical properties :
#
#
# Convention : Reuss Voigt Hill
#
# Bulk Modulus (GPa) = 35.98574 42.08289 39.03432
# Shear Modulus (GPa) = -3.81723 29.23131 12.70704
#
# Velocity S-wave (km/s) = -1.28923 3.56762 2.35221
# Velocity P-wave (km/s) = 3.66781 5.94090 4.93696
#
# Compressibility (1/GPa) = 0.02778879
#
# Stress axis : x y z
#
# Youngs Moduli (GPa) = 74.20207 132.76339 78.30736
#
# Poissons Ratio (x) = -0.02337 0.00021
# Poissons Ratio (y) = -0.01306 0.24812
# Poissons Ratio (z) = 0.00020 0.42066
#
# Static dielectric constant tensor:
#      x y z
#    x 1.954430 0.000000 0.000000 
#    y 0.000000 1.906730 0.000000 
#    z 0.000000 0.000000 1.859360 
# 
# From -- ./inp_files/18171.got.cif
#   From: 2010.05.17/outbox.cif.g08.bks.cpg/sg46_10_cif.got.tgz:18171.got - 2010.06.03 19:58:25.
