data_PCOD9378496
_publ_section_title
;
Structure prediction by ZEFSAII (Michael W. Deem and Ramdas Pophale) SiO2 
 PCOD9378496
Probable space group: I M A 2
;
_chemical_formula_sum "Si O2"
_cell_formula_units_Z 48
_cell_length_a 9.692736
_cell_length_b 13.913234
_cell_length_c 18.900311
_cell_angle_alpha 90.000000
_cell_angle_beta 90.000000
_cell_angle_gamma 90.000000
_cell_volume 2548.844988
_symmetry_space_group_name_H-M "I M A 2"
_symmetry_group_IT_number 46
_symmetry_cell_setting 'orthorhombic'
loop_
_space_group_symop_operation_xyz
x,y,z
-x,-y,z
1/2-x,y,z
1/2+x,-y,z
1/2+x,1/2+y,1/2+z
1/2-x,1/2-y,1/2+z
-x,1/2+y,1/2+z
x,1/2-y,1/2+z
loop_
_atom_site_type_symbol
_atom_site_label
_atom_site_fract_x
_atom_site_fract_y
_atom_site_fract_z
Si Si1 0.088668 0.595463 0.087900
Si Si2 0.408646 0.410002 0.435808
Si Si3 0.089075 0.595336 0.807733
Si Si4 0.586862 0.217804 0.446947
Si Si5 0.596282 0.915720 0.104960
Si Si6 0.410796 0.768351 0.176562
O O1 0.250000 0.571051 0.080853
O O2 0.070860 0.655959 0.160612
O O3 0.000000 0.500000 0.085723
O O4 0.055995 0.666025 0.021646
O O5 0.500000 0.500000 0.408256
O O6 0.250000 0.406528 0.408516
O O7 0.492526 0.310156 0.429981
O O8 0.396333 0.425154 0.520615
O O9 0.250000 0.569609 0.800467
O O10 0.066930 0.639473 0.885391
O O11 0.063397 0.682389 0.752177
O O12 0.000000 0.500000 0.796667
O O13 0.750000 0.246206 0.447952
O O14 0.750000 0.920439 0.134296
O O15 0.517321 0.820192 0.125117
O O16 0.500000 0.000000 0.133383
O O17 0.250000 0.789612 0.157483
#
# Coordination Sequence:
#
# PCOD9378496 Si02
#       6
#     8   8   8   8   8   8
#     4  10  21  36  57  81 108 143 186 233 282 332
#     4  10  20  33  53  82 113 146 185 231 279 330
#     4  10  22  38  58  84 115 150 187 229 280 337
#     4  10  20  37  58  82 114 150 186 232 283 333
#     4  10  19  30  49  78 109 141 178 223 273 324
#     4  10  20  36  55  79 111 146 184 228 279 332
#
# _framework density 18.832059000000001
#
# number of rings (size 3 to 8) (size 9 to 14) (size 15 to 20)
#    0.000    2.000    1.667    2.000    0.000    5.333 
#    0.000    0.833    0.000    2.000    0.000    0.000 
#    0.000    0.000    0.000    0.000    0.000    0.000 
#
# Total GULP energy -133795.740866 kJ/mol
# GULP energy per Si atom -5574.822536 kJ/mol
# Density = 1.878920 g / cm^3
# Si number density = 18.832059 Si / 1000 Ang^3
#
#
#
# Elastic Constant Matrix: (Units=GPa)
#
#
# Indices 1 2 3 4 5 6 
#
# 1 100.3449 85.1391 28.0076 0.0000 0.0000 0.0000
# 2 85.1391 131.6883 35.5101 0.0000 0.0000 0.0000
# 3 28.0076 35.5101 65.0082 0.0000 0.0000 0.0000
# 4 0.0000 0.0000 0.0000 15.5877 0.0000 0.0000
# 5 0.0000 0.0000 0.0000 0.0000 8.0215 0.0000
# 6 0.0000 0.0000 0.0000 0.0000 0.0000 37.5998
#
#
#
# Elastic Compliance Matrix: (Units=1/GPa)
#
#
# Indices 1 2 3 4 5 6 
#
# 1 0.022301 -0.013870 -0.002032 0.000000 0.000000 0.000000
# 2 -0.013870 0.017532 -0.003601 0.000000 0.000000 0.000000
# 3 -0.002032 -0.003601 0.018225 0.000000 0.000000 0.000000
# 4 0.000000 0.000000 0.000000 0.064153 0.000000 0.000000
# 5 0.000000 0.000000 0.000000 0.000000 0.124665 0.000000
# 6 0.000000 0.000000 0.000000 0.000000 0.000000 0.026596
#
#
# Mechanical properties :
#
#
# Convention : Reuss Voigt Hill
#
# Bulk Modulus (GPa) = 52.48642 66.03945 59.26293
# Shear Modulus (GPa) = 15.68240 22.13411 18.90825
#
# Velocity S-wave (km/s) = 2.88887 3.43205 3.17211
# Velocity P-wave (km/s) = 6.24970 7.13084 6.70476
#
# Compressibility (1/GPa) = 0.01905255
#
# Stress axis : x y z
#
# Youngs Moduli (GPa) = 44.84079 57.03816 54.86997
#
# Poissons Ratio (x) = 0.79114 0.11147
# Poissons Ratio (y) = 0.62196 0.19758
# Poissons Ratio (z) = 0.09110 0.20539
#
# Static dielectric constant tensor:
#      x y z
#    x 1.622690 0.000000 0.000000 
#    y 0.000000 1.667690 0.000000 
#    z 0.000000 0.000000 1.681540 
# 
# From -- ./inp_files/20913.got.cif
#   From: 2010.05.17/outbox.cif.g08.bks.cpg/sg46_11_cif.got.tgz:20913.got - 2010.06.03 19:58:25.
