data_PCOD9378895
_publ_section_title
;
Structure prediction by ZEFSAII (Michael W. Deem and Ramdas Pophale) SiO2 
 PCOD9378895
Probable space group: I M A 2
;
_chemical_formula_sum "Si O2"
_cell_formula_units_Z 48
_cell_length_a 8.854301
_cell_length_b 32.349035
_cell_length_c 9.320433
_cell_angle_alpha 90.000000
_cell_angle_beta 90.000000
_cell_angle_gamma 90.000000
_cell_volume 2669.633850
_symmetry_space_group_name_H-M "I M A 2"
_symmetry_group_IT_number 46
_symmetry_cell_setting 'orthorhombic'
loop_
_space_group_symop_operation_xyz
x,y,z
-x,-y,z
1/2-x,y,z
1/2+x,-y,z
1/2+x,1/2+y,1/2+z
1/2-x,1/2-y,1/2+z
-x,1/2+y,1/2+z
x,1/2-y,1/2+z
loop_
_atom_site_type_symbol
_atom_site_label
_atom_site_fract_x
_atom_site_fract_y
_atom_site_fract_z
Si Si1 0.566716 0.787848 0.158840
Si Si2 0.566554 0.794498 0.827810
Si Si3 0.923000 0.542098 0.814989
Si Si4 0.924572 0.542656 0.164750
Si Si5 0.069775 0.870794 0.658757
Si Si6 0.565681 0.867724 0.340677
O O1 0.750000 0.787707 0.161266
O O2 0.519149 0.745987 0.238271
O O3 0.520119 0.828927 0.244208
O O4 0.521442 0.789040 0.993274
O O5 0.750000 0.797675 0.820711
O O6 0.494819 0.835215 0.760224
O O7 0.750000 0.540507 0.768934
O O8 0.984167 0.587664 0.777665
O O9 0.000000 0.500000 0.764688
O O10 0.927309 0.541748 0.989726
O O11 0.750000 0.545129 0.208354
O O12 0.000000 0.500000 0.214200
O O13 0.012946 0.583918 0.207251
O O14 0.250000 0.869947 0.652575
O O15 0.001139 0.863583 0.499801
O O16 0.750000 0.868725 0.352020
#
# Coordination Sequence:
#
# PCOD9378895 Si02
#       6
#     8   8   8   8   8   8
#     4   9  18  33  57  80  98 125 168 216 264 315
#     4  10  19  34  55  77  98 127 167 214 263 314
#     4   8  14  23  40  66  98 129 160 198 241 285
#     4   9  16  28  47  73 103 135 170 213 256 298
#     4  11  21  32  48  74 106 141 175 210 251 301
#     4   9  17  32  52  76 102 131 169 215 259 305
#
# _framework density 17.979993
#
# number of rings (size 3 to 8) (size 9 to 14) (size 15 to 20)
#    0.000    2.667    0.000    4.000    0.000    6.667 
#    0.000    4.167    0.000    1.000    0.000    2.333 
#    0.000    0.000    0.000    0.000    0.000    0.000 
#
# Total GULP energy -133790.582171 kJ/mol
# GULP energy per Si atom -5574.607590 kJ/mol
# Density = 1.793907 g / cm^3
# Si number density = 17.979993 Si / 1000 Ang^3
#
#
#
# Elastic Constant Matrix: (Units=GPa)
#
#
# Indices 1 2 3 4 5 6 
#
# 1 56.2604 55.0474 30.1782 0.0000 0.0000 0.0000
# 2 55.0474 210.7236 84.2834 -0.0003 0.0000 0.0000
# 3 30.1782 84.2834 81.7062 -0.0005 -0.0001 0.0000
# 4 0.0000 -0.0003 -0.0005 23.9653 0.0000 0.0000
# 5 0.0000 0.0000 -0.0001 0.0000 7.2808 0.0000
# 6 0.0000 0.0000 0.0000 0.0000 0.0000 27.7919
#
#
#
# Elastic Compliance Matrix: (Units=1/GPa)
#
#
# Indices 1 2 3 4 5 6 
#
# 1 0.024696 -0.004772 -0.004199 0.000000 0.000000 0.000000
# 2 -0.004772 0.009001 -0.007522 0.000000 0.000000 0.000000
# 3 -0.004199 -0.007522 0.021549 0.000000 0.000000 0.000000
# 4 0.000000 0.000000 0.000000 0.041727 0.000000 0.000000
# 5 0.000000 0.000000 0.000000 0.000000 0.137348 0.000000
# 6 0.000000 0.000000 0.000000 0.000000 0.000000 0.035982
#
#
# Mechanical properties :
#
#
# Convention : Reuss Voigt Hill
#
# Bulk Modulus (GPa) = 44.92411 76.41202 60.66807
# Shear Modulus (GPa) = 16.09223 23.75299 19.92261
#
# Velocity S-wave (km/s) = 2.99491 3.63861 3.33234
# Velocity P-wave (km/s) = 6.08270 7.76165 6.97289
#
# Compressibility (1/GPa) = 0.02225976
#
# Stress axis : x y z
#
# Youngs Moduli (GPa) = 40.49276 111.10178 46.40498
#
# Poissons Ratio (x) = 0.53015 0.19486
# Poissons Ratio (y) = 0.19322 0.34907
# Poissons Ratio (z) = 0.17003 0.83573
#
# Static dielectric constant tensor:
#      x y z
#    x 1.611940 0.000000 0.000000 
#    y 0.000000 1.630220 0.000000 
#    z 0.000000 0.000000 1.598550 
# 
# From -- ./inp_files/3956.got.cif
#   From: 2010.05.17/outbox.cif.g08.bks.cpg/sg46_2_cif.got.tgz:3956.got - 2010.06.03 19:58:25.
