data_PCOD9378110
_publ_section_title
;
Structure prediction by ZEFSAII (Michael W. Deem and Ramdas Pophale) SiO2 
 PCOD9378110
Probable space group: I M A 2
;
_chemical_formula_sum "Si O2"
_cell_formula_units_Z 64
_cell_length_a 24.798352
_cell_length_b 21.216148
_cell_length_c 7.979309
_cell_angle_alpha 90.000000
_cell_angle_beta 90.000000
_cell_angle_gamma 90.000000
_cell_volume 4198.117987
_symmetry_space_group_name_H-M "I M A 2"
_symmetry_group_IT_number 46
_symmetry_cell_setting 'orthorhombic'
loop_
_space_group_symop_operation_xyz
x,y,z
-x,-y,z
1/2-x,y,z
1/2+x,-y,z
1/2+x,1/2+y,1/2+z
1/2-x,1/2-y,1/2+z
-x,1/2+y,1/2+z
x,1/2-y,1/2+z
loop_
_atom_site_type_symbol
_atom_site_label
_atom_site_fract_x
_atom_site_fract_y
_atom_site_fract_z
Si Si1 0.476763 0.316948 0.777590
Si Si2 0.933496 0.002933 0.542278
Si Si3 0.349863 0.306960 0.273484
Si Si4 0.039920 0.939737 0.860658
Si Si5 0.543105 0.057833 0.227068
Si Si6 0.376780 0.126122 0.454374
Si Si7 0.027838 0.314008 0.381382
Si Si8 0.313570 0.168405 0.153612
O O1 0.513195 0.379037 0.786688
O O2 0.425800 0.327896 0.898652
O O3 0.461479 0.314691 0.581007
O O4 0.502075 0.250502 0.830857
O O5 0.921497 0.042247 0.708524
O O6 0.917192 0.038053 0.372887
O O7 0.905975 0.935490 0.528238
O O8 0.000000 0.000000 0.540094
O O9 0.414628 0.310144 0.291400
O O10 0.328987 0.236922 0.232029
O O11 0.328716 0.330331 0.455213
O O12 0.339715 0.346383 0.103086
O O13 0.004529 0.876903 0.832571
O O14 0.066226 0.932537 0.042594
O O15 0.000000 0.000000 0.872853
O O16 0.500000 0.000000 0.212125
O O17 0.344805 0.120111 0.277754
O O18 0.250000 0.159014 0.167014
#
# Coordination Sequence:
#
# PCOD9378110 Si02
#       8
#     8   8   8   8   8   8   8   8
#     4  11  19  30  43  69  96 121 157 206 247 281
#     4  10  18  30  49  66  92 120 149 198 243 295
#     4  12  21  33  51  64  86 118 157 213 268 303
#     4   9  19  29  42  64  89 122 152 193 244 288
#     4   9  17  29  44  61  92 122 147 188 241 287
#     4  12  22  34  51  73  89 121 169 208 258 302
#     4  11  20  29  46  69  95 120 162 211 247 289
#     4  12  25  38  49  66  92 124 168 219 268 305
#
# _framework density 15.244927000000001
#
# number of rings (size 3 to 8) (size 9 to 14) (size 15 to 20)
#    0.000    1.250    6.250    2.625    1.750    1.500 
#    0.000    0.000    0.000    0.000    0.000    0.000 
#    0.000    0.000    0.000    0.000    0.000    1.250 
#
# Total GULP energy -178143.831044 kJ/mol
# GULP energy per Si atom -5566.994720 kJ/mol
# Density = 1.521023 g / cm^3
# Si number density = 15.244927 Si / 1000 Ang^3
#
#
#
# Elastic Constant Matrix: (Units=GPa)
#
#
# Indices 1 2 3 4 5 6 
#
# 1 22.0587 21.7224 19.7123 0.0000 0.0000 0.0000
# 2 21.7224 94.7807 24.8086 0.0000 0.0000 0.0000
# 3 19.7123 24.8086 113.1640 0.0000 0.0000 0.0000
# 4 0.0000 0.0000 0.0000 21.8754 0.0000 0.0000
# 5 0.0000 0.0000 0.0000 0.0000 12.8026 0.0000
# 6 0.0000 0.0000 0.0000 0.0000 0.0000 9.0310
#
#
#
# Elastic Compliance Matrix: (Units=1/GPa)
#
#
# Indices 1 2 3 4 5 6 
#
# 1 0.065635 -0.012783 -0.008631 0.000000 0.000000 0.000000
# 2 -0.012783 0.013683 -0.000773 0.000000 0.000000 0.000000
# 3 -0.008631 -0.000773 0.010510 0.000000 0.000000 0.000000
# 4 0.000000 0.000000 0.000000 0.045713 0.000000 0.000000
# 5 0.000000 0.000000 0.000000 0.000000 0.078109 0.000000
# 6 0.000000 0.000000 0.000000 0.000000 0.000000 0.110730
#
#
# Mechanical properties :
#
#
# Convention : Reuss Voigt Hill
#
# Bulk Modulus (GPa) = 22.00070 40.27666 31.13868
# Shear Modulus (GPa) = 13.02409 19.65914 16.34162
#
# Velocity S-wave (km/s) = 2.92605 3.59493 3.27760
# Velocity P-wave (km/s) = 5.08709 6.61124 5.89860
#
# Compressibility (1/GPa) = 0.04545311
#
# Stress axis : x y z
#
# Youngs Moduli (GPa) = 15.23588 73.08467 95.15168
#
# Poissons Ratio (x) = 0.93428 0.82121
# Poissons Ratio (y) = 0.19477 0.07354
# Poissons Ratio (z) = 0.13149 0.05648
#
# Static dielectric constant tensor:
#      x y z
#    x 1.467870 0.000000 0.000000 
#    y 0.000000 1.559320 0.000000 
#    z 0.000000 0.000000 1.623020 
# 
# From -- ./inp_files/8032.got.cif
#   From: 2010.05.17/outbox.cif.g08.bks.cpg/sg46_5_cif.got.tgz:8032.got - 2010.06.03 19:58:25.
