data_PCOD9378624
_publ_section_title
;
Structure prediction by ZEFSAII (Michael W. Deem and Ramdas Pophale) SiO2 
 PCOD9378624
Probable space group: I M A 2
;
_chemical_formula_sum "Si O2"
_cell_formula_units_Z 64
_cell_length_a 8.699414
_cell_length_b 15.052741
_cell_length_c 27.987583
_cell_angle_alpha 90.000000
_cell_angle_beta 90.000000
_cell_angle_gamma 90.000000
_cell_volume 3664.974716
_symmetry_space_group_name_H-M "I M A 2"
_symmetry_group_IT_number 46
_symmetry_cell_setting 'orthorhombic'
loop_
_space_group_symop_operation_xyz
x,y,z
-x,-y,z
1/2-x,y,z
1/2+x,-y,z
1/2+x,1/2+y,1/2+z
1/2-x,1/2-y,1/2+z
-x,1/2+y,1/2+z
x,1/2-y,1/2+z
loop_
_atom_site_type_symbol
_atom_site_label
_atom_site_fract_x
_atom_site_fract_y
_atom_site_fract_z
Si Si1 0.434035 0.720431 0.415510
Si Si2 0.566577 0.903135 0.110129
Si Si3 0.565790 0.596576 0.064415
Si Si4 0.934187 0.404198 0.504923
Si Si5 0.567455 0.595541 0.335677
Si Si6 0.933972 0.404722 0.230296
Si Si7 0.934293 0.225926 0.644435
Si Si8 0.434786 0.905119 0.458208
O O1 0.250000 0.714043 0.408128
O O2 0.469134 0.667893 0.464590
O O3 0.516928 0.671200 0.372377
O O4 0.474292 0.823122 0.423949
O O5 0.750000 0.905670 0.110704
O O6 0.508689 0.883414 0.056099
O O7 0.502789 0.824389 0.142805
O O8 0.500000 0.000000 0.122609
O O9 0.500000 0.500000 0.079020
O O10 0.750000 0.594463 0.064617
O O11 0.503361 0.670554 0.100262
O O12 0.504592 0.612435 0.010764
O O13 0.750000 0.409933 0.510812
O O14 0.000000 0.500000 0.489845
O O15 0.500000 0.500000 0.351552
O O16 0.750000 0.588353 0.333337
O O17 0.501538 0.612810 0.282770
O O18 0.750000 0.411737 0.233692
O O19 0.972600 0.328669 0.192308
O O20 0.000000 0.500000 0.214107
O O21 0.750000 0.229718 0.639618
O O22 0.250000 0.909695 0.462801
O O23 0.500000 0.000000 0.442115
#
# Coordination Sequence:
#
# PCOD9378624 Si02
#       8
#     8   8   8   8   8   8   8   8
#     4  10  21  35  53  76 104 138 176 217 262 309
#     4  11  22  36  54  76 106 143 180 221 263 310
#     4  11  21  33  51  77 110 145 179 218 261 312
#     4  10  19  32  50  74 106 141 176 216 260 310
#     4  11  22  36  57  81 109 138 168 209 257 313
#     4  10  21  37  58  81 109 139 169 209 258 311
#     4  11  22  36  55  79 106 139 178 220 264 313
#     4  10  20  35  53  74 105 143 180 222 263 306
#
# _framework density 17.462603000000001
#
# number of rings (size 3 to 8) (size 9 to 14) (size 15 to 20)
#    0.000    1.500    0.000    8.625    0.000    7.000 
#    0.000    0.000    0.000    0.750    0.000    3.500 
#    0.000    0.000    0.000    0.000    0.000    0.000 
#
# Total GULP energy -178867.947751 kJ/mol
# GULP energy per Si atom -5589.623367 kJ/mol
# Density = 1.742286 g / cm^3
# Si number density = 17.462603 Si / 1000 Ang^3
#
#
#
# Elastic Constant Matrix: (Units=GPa)
#
#
# Indices 1 2 3 4 5 6 
#
# 1 109.4038 73.0883 52.6192 0.0000 0.0000 0.0000
# 2 73.0883 150.4089 85.2026 0.0000 0.0000 0.0000
# 3 52.6192 85.2026 72.6773 0.0000 0.0000 0.0000
# 4 0.0000 0.0000 0.0000 27.6372 0.0000 0.0000
# 5 0.0000 0.0000 0.0000 0.0000 25.1808 0.0000
# 6 0.0000 0.0000 0.0000 0.0000 0.0000 31.4551
#
#
#
# Elastic Compliance Matrix: (Units=1/GPa)
#
#
# Indices 1 2 3 4 5 6 
#
# 1 0.014549 -0.003283 -0.006685 0.000000 0.000000 0.000000
# 2 -0.003283 0.020534 -0.021696 0.000000 0.000000 0.000000
# 3 -0.006685 -0.021696 0.044034 0.000000 0.000000 0.000000
# 4 0.000000 0.000000 0.000000 0.036183 0.000000 0.000000
# 5 0.000000 0.000000 0.000000 0.000000 0.039713 0.000000
# 6 0.000000 0.000000 0.000000 0.000000 0.000000 0.031791
#
#
# Mechanical properties :
#
#
# Convention : Reuss Voigt Hill
#
# Bulk Modulus (GPa) = 63.33192 83.81225 73.57209
# Shear Modulus (GPa) = 19.57754 24.95996 22.26875
#
# Velocity S-wave (km/s) = 3.35193 3.78476 3.57490
# Velocity P-wave (km/s) = 7.16425 8.19748 7.69822
#
# Compressibility (1/GPa) = 0.01578983
#
# Stress axis : x y z
#
# Youngs Moduli (GPa) = 68.73429 48.69966 22.70960
#
# Poissons Ratio (x) = 0.15988 0.15181
# Poissons Ratio (y) = 0.22566 0.49271
# Poissons Ratio (z) = 0.45946 1.05658
#
# Static dielectric constant tensor:
#      x y z
#    x 1.583410 0.000000 0.000000 
#    y 0.000000 1.601300 0.000000 
#    z 0.000000 0.000000 1.571440 
# 
# From -- ./inp_files/25306.got.cif
#   From: 2010.05.17/outbox.cif.g08.bks.cpg/sg46_13_cif.got.tgz:25306.got - 2010.06.03 19:58:25.
