data_PCOD9378017
_publ_section_title
;
Structure prediction by ZEFSAII (Michael W. Deem and Ramdas Pophale) SiO2 
 PCOD9378017
Probable space group: I M A 2
;
_chemical_formula_sum "Si O2"
_cell_formula_units_Z 52
_cell_length_a 12.015305
_cell_length_b 21.490080
_cell_length_c 12.354984
_cell_angle_alpha 90.000000
_cell_angle_beta 90.000000
_cell_angle_gamma 90.000000
_cell_volume 3190.178759
_symmetry_space_group_name_H-M "I M A 2"
_symmetry_group_IT_number 46
_symmetry_cell_setting 'orthorhombic'
loop_
_space_group_symop_operation_xyz
x,y,z
-x,-y,z
1/2-x,y,z
1/2+x,-y,z
1/2+x,1/2+y,1/2+z
1/2-x,1/2-y,1/2+z
-x,1/2+y,1/2+z
x,1/2-y,1/2+z
loop_
_atom_site_type_symbol
_atom_site_label
_atom_site_fract_x
_atom_site_fract_y
_atom_site_fract_z
Si Si1 0.381686 0.701228 0.137080
Si Si2 0.508815 0.573497 0.729448
Si Si3 0.250000 0.317415 0.445331
Si Si4 0.119357 0.843500 0.062152
Si Si5 0.012717 0.194835 0.853618
Si Si6 0.750000 0.674992 0.920610
Si Si7 0.750000 0.871726 0.187604
Si Si8 0.004987 0.160618 0.425968
O O1 0.250000 0.690171 0.155176
O O2 0.396335 0.775696 0.118424
O O3 0.458801 0.682790 0.237624
O O4 0.425802 0.667443 0.029045
O O5 0.500000 0.500000 0.739642
O O6 0.439059 0.603227 0.631595
O O7 0.637397 0.590615 0.707728
O O8 0.469935 0.610577 0.836744
O O9 0.362187 0.328614 0.377077
O O10 0.250000 0.243728 0.468297
O O11 0.250000 0.347934 0.564269
O O12 0.250000 0.854805 0.053112
O O13 0.063529 0.835745 0.945662
O O14 0.010411 0.269878 0.873573
O O15 0.750000 0.677712 0.788011
O O16 0.633525 0.644782 0.954979
#
# Coordination Sequence:
#
# PCOD9378017 Si02
#       8
#     8   8   4   8   8   4   4   8
#     4  10  20  33  52  77 114 145 172 223 275 325
#     4  11  22  37  56  78 110 148 184 222 263 317
#     4  10  18  28  54  78 110 140 167 222 276 331
#     4  10  20  33  52  78 109 144 182 222 271 325
#     4  10  18  32  52  80 109 141 175 221 279 327
#     4   8  18  28  52  74 106 142 163 220 275 320
#     4  10  20  38  50  80 118 134 180 226 269 313
#     4   9  19  33  50  79 107 141 179 219 267 322
#
# _framework density 16.300028000000001
#
# number of rings (size 3 to 8) (size 9 to 14) (size 15 to 20)
#    0.000    2.154    3.077    0.462    1.077    1.846 
#    0.000    0.000    0.000    0.923    0.000    0.000 
#    0.000    0.000    0.000    0.000    0.000    0.000 
#
# Total GULP energy -144891.078141 kJ/mol
# GULP energy per Si atom -5572.733775 kJ/mol
# Density = 1.626293 g / cm^3
# Si number density = 16.300028 Si / 1000 Ang^3
#
#
#
# Elastic Constant Matrix: (Units=GPa)
#
#
# Indices 1 2 3 4 5 6 
#
# 1 101.8086 29.6546 67.1099 0.0000 0.0000 0.0000
# 2 29.6546 81.2145 52.1295 0.0001 -0.0001 0.0000
# 3 67.1099 52.1295 118.6161 0.0001 0.0000 0.0000
# 4 0.0000 0.0001 0.0001 14.1504 0.0000 0.0000
# 5 0.0000 -0.0001 0.0000 0.0000 24.6249 0.0000
# 6 0.0000 0.0000 0.0000 0.0000 0.0000 2.3147
#
#
#
# Elastic Compliance Matrix: (Units=1/GPa)
#
#
# Indices 1 2 3 4 5 6 
#
# 1 0.015664 -0.000043 -0.008843 0.000000 0.000000 0.000000
# 2 -0.000043 0.017151 -0.007513 0.000000 0.000000 0.000000
# 3 -0.008843 -0.007513 0.016736 0.000000 0.000000 0.000000
# 4 0.000000 0.000000 0.000000 0.070670 0.000000 0.000001
# 5 0.000000 0.000000 0.000000 0.000000 0.040609 0.000000
# 6 0.000000 0.000000 0.000000 0.000001 0.000000 0.432020
#
#
# Mechanical properties :
#
#
# Convention : Reuss Voigt Hill
#
# Bulk Modulus (GPa) = 59.69538 66.60300 63.14919
# Shear Modulus (GPa) = 7.92099 18.40100 13.16099
#
# Velocity S-wave (km/s) = 2.20682 3.36355 2.84460
# Velocity P-wave (km/s) = 6.57235 7.48558 7.04378
#
# Compressibility (1/GPa) = 0.01675172
#
# Stress axis : x y z
#
# Youngs Moduli (GPa) = 63.83910 58.30417 59.75181
#
# Poissons Ratio (x) = 0.00252 0.52841
# Poissons Ratio (y) = 0.00276 0.44893
# Poissons Ratio (z) = 0.56456 0.43805
#
# Static dielectric constant tensor:
#      x y z
#    x 1.580530 0.000000 0.000000 
#    y 0.000000 1.519320 0.000000 
#    z 0.000000 0.000000 1.543370 
# 
# From -- ./inp_files/10407.got.cif
#   From: 2010.05.17/outbox.cif.g08.bks.cpg/sg46_6_cif.got.tgz:10407.got - 2010.06.03 19:58:25.
