data_PCOD9378707
_publ_section_title
;
Structure prediction by ZEFSAII (Michael W. Deem and Ramdas Pophale) SiO2 
 PCOD9378707
Probable space group: I M A 2
;
_chemical_formula_sum "Si O2"
_cell_formula_units_Z 60
_cell_length_a 27.698821
_cell_length_b 17.913205
_cell_length_c 5.321485
_cell_angle_alpha 90.000000
_cell_angle_beta 90.000000
_cell_angle_gamma 90.000000
_cell_volume 2640.386004
_symmetry_space_group_name_H-M "I M A 2"
_symmetry_group_IT_number 46
_symmetry_cell_setting 'orthorhombic'
loop_
_space_group_symop_operation_xyz
x,y,z
-x,-y,z
1/2-x,y,z
1/2+x,-y,z
1/2+x,1/2+y,1/2+z
1/2-x,1/2-y,1/2+z
-x,1/2+y,1/2+z
x,1/2-y,1/2+z
loop_
_atom_site_type_symbol
_atom_site_label
_atom_site_fract_x
_atom_site_fract_y
_atom_site_fract_z
Si Si1 0.638532 0.934063 0.902140
Si Si2 0.593969 0.099202 0.324471
Si Si3 0.585548 0.830629 0.272749
Si Si4 0.171801 0.221209 0.788677
Si Si5 0.750000 0.199926 0.769561
Si Si6 0.656230 0.401922 0.331676
Si Si7 0.016795 0.709502 0.602273
Si Si8 0.051236 0.037836 0.572754
O O1 0.662301 0.866229 0.745140
O O2 0.586600 0.962919 0.807529
O O3 0.668724 0.009587 0.865938
O O4 0.624092 0.888937 0.152811
O O5 0.620192 0.113830 0.593861
O O6 0.546999 0.143194 0.228466
O O7 0.575488 0.014982 0.362920
O O8 0.631147 0.114201 0.099337
O O9 0.619816 0.761855 0.342528
O O10 0.540355 0.805999 0.103878
O O11 0.556311 0.876885 0.484426
O O12 0.195944 0.261083 0.554097
O O13 0.750000 0.256490 0.005359
O O14 0.797172 0.148214 0.790168
O O15 0.028500 0.726368 0.311175
O O16 0.000000 0.000000 0.626727
#
# Coordination Sequence:
#
# PCOD9378707 Si02
#       8
#     8   8   8   8   4   8   8   8
#     4  10  22  37  60  87 128 164 222 274 323 385
#     4  11  24  42  62  92 130 168 219 272 331 386
#     4  11  21  35  54  82 124 174 226 266 305 364
#     4  10  19  32  54  81 116 161 208 261 304 351
#     4  12  28  52  82 108 132 164 206 268 342 422
#     4  11  25  45  72 100 124 163 211 269 343 412
#     4  12  26  38  56  84 124 176 226 272 321 370
#     4  11  21  35  53  82 125 178 224 276 313 371
#
# _framework density 22.723949999999999
#
# number of rings (size 3 to 8) (size 9 to 14) (size 15 to 20)
#    0.000    1.067    4.000    3.200    1.867    5.867 
#    0.000    0.000    0.000    0.000    0.000    3.733 
#    0.000    0.000    0.000    0.000    0.000    0.000 
#
# Total GULP energy -167251.518812 kJ/mol
# GULP energy per Si atom -5575.050627 kJ/mol
# Density = 2.267223 g / cm^3
# Si number density = 22.723950 Si / 1000 Ang^3
#
#
#
# Elastic Constant Matrix: (Units=GPa)
#
#
# Indices 1 2 3 4 5 6 
#
# 1 86.9196 40.0626 16.6025 0.0000 0.0000 0.0000
# 2 40.0626 69.1669 16.9683 0.0000 0.0000 0.0000
# 3 16.6025 16.9683 125.6117 0.0000 0.0000 0.0000
# 4 0.0000 0.0000 0.0000 30.3652 0.0000 0.0000
# 5 0.0000 0.0000 0.0000 0.0000 0.5121 0.0000
# 6 0.0000 0.0000 0.0000 0.0000 0.0000 26.7964
#
#
#
# Elastic Compliance Matrix: (Units=1/GPa)
#
#
# Indices 1 2 3 4 5 6 
#
# 1 0.015789 -0.008929 -0.000881 0.000000 0.000000 0.000000
# 2 -0.008929 0.020003 -0.001522 0.000000 0.000000 0.000000
# 3 -0.000881 -0.001522 0.008283 0.000000 0.000000 0.000000
# 4 0.000000 0.000000 0.000000 0.032932 0.000000 0.000000
# 5 0.000000 0.000000 0.000000 0.000000 1.952807 0.000000
# 6 0.000000 0.000000 0.000000 0.000000 0.000000 0.037318
#
#
# Mechanical properties :
#
#
# Convention : Reuss Voigt Hill
#
# Bulk Modulus (GPa) = 46.70396 47.66278 47.18337
# Shear Modulus (GPa) = 2.38443 25.40571 13.89507
#
# Velocity S-wave (km/s) = 1.02547 3.34730 2.47548
# Velocity P-wave (km/s) = 4.69036 5.99662 5.38326
#
# Compressibility (1/GPa) = 0.02141146
#
# Stress axis : x y z
#
# Youngs Moduli (GPa) = 63.33683 49.99264 120.72872
#
# Poissons Ratio (x) = 0.44638 0.10632
# Poissons Ratio (y) = 0.56553 0.18374
# Poissons Ratio (z) = 0.05578 0.07609
#
# Static dielectric constant tensor:
#      x y z
#    x 1.838770 0.000000 0.000000 
#    y 0.000000 1.949280 0.000000 
#    z 0.000000 0.000000 1.959680 
# 
# From -- ./inp_files/2590.got.cif
#   From: 2010.05.17/outbox.cif.g08.bks.cpg/sg46_2_cif.got.tgz:2590.got - 2010.06.03 19:58:25.
