data_PCOD9378882
_publ_section_title
;
Structure prediction by ZEFSAII (Michael W. Deem and Ramdas Pophale) SiO2 
 PCOD9378882
Probable space group: I M A 2
;
_chemical_formula_sum "Si O2"
_cell_formula_units_Z 64
_cell_length_a 8.630853
_cell_length_b 30.956204
_cell_length_c 14.715403
_cell_angle_alpha 90.000000
_cell_angle_beta 90.000000
_cell_angle_gamma 90.000000
_cell_volume 3931.638508
_symmetry_space_group_name_H-M "I M A 2"
_symmetry_group_IT_number 46
_symmetry_cell_setting 'orthorhombic'
loop_
_space_group_symop_operation_xyz
x,y,z
-x,-y,z
1/2-x,y,z
1/2+x,-y,z
1/2+x,1/2+y,1/2+z
1/2-x,1/2-y,1/2+z
-x,1/2+y,1/2+z
x,1/2-y,1/2+z
loop_
_atom_site_type_symbol
_atom_site_label
_atom_site_fract_x
_atom_site_fract_y
_atom_site_fract_z
Si Si1 0.072955 0.315606 0.691530
Si Si2 0.562908 0.547079 0.801101
Si Si3 0.436349 0.452650 0.588892
Si Si4 0.068428 0.775698 0.697188
Si Si5 0.066091 0.866106 0.021673
Si Si6 0.429671 0.365325 0.881273
Si Si7 0.066910 0.201489 0.886465
Si Si8 0.565420 0.213712 0.488560
O O1 0.250000 0.299849 0.679319
O O2 0.070405 0.345208 0.780186
O O3 0.960206 0.275490 0.705178
O O4 0.019778 0.342194 0.604668
O O5 0.500000 0.500000 0.825985
O O6 0.750000 0.546802 0.803313
O O7 0.518837 0.555340 0.695258
O O8 0.510251 0.586012 0.866303
O O9 0.500000 0.500000 0.565623
O O10 0.250000 0.451619 0.583654
O O11 0.508326 0.415269 0.527074
O O12 0.250000 0.785666 0.707301
O O13 0.018639 0.786932 0.594577
O O14 0.975699 0.796166 0.780399
O O15 0.250000 0.864197 0.034381
O O16 0.018103 0.838643 0.933894
O O17 0.250000 0.366618 0.912029
O O18 0.521662 0.331685 0.942854
O O19 0.250000 0.197491 0.899018
O O20 0.012686 0.246180 0.935313
O O21 0.750000 0.220855 0.484684
#
# Coordination Sequence:
#
# PCOD9378882 Si02
#       8
#     8   8   8   8   8   8   8   8
#     4  11  20  32  51  75 106 143 180 218 260 308
#     4   9  18  32  49  73 104 137 173 214 259 308
#     4  10  19  34  52  76 108 140 177 218 265 319
#     4  11  23  38  53  74 106 139 177 224 267 311
#     4  12  23  35  52  77 107 144 183 221 266 315
#     4  10  20  34  51  74 105 141 178 216 258 311
#     4  12  24  37  55  76 103 140 181 222 264 316
#     4  11  23  36  53  77 105 138 177 219 264 316
#
# _framework density 16.278199999999998
#
# number of rings (size 3 to 8) (size 9 to 14) (size 15 to 20)
#    0.000    1.250    3.750    3.750    0.000    3.000 
#    0.000    0.000    0.000    0.000    0.000    0.875 
#    0.000    4.000    0.000    0.000    0.000    0.000 
#
# Total GULP energy -178686.128934 kJ/mol
# GULP energy per Si atom -5583.941529 kJ/mol
# Density = 1.624115 g / cm^3
# Si number density = 16.278200 Si / 1000 Ang^3
#
#
#
# Elastic Constant Matrix: (Units=GPa)
#
#
# Indices 1 2 3 4 5 6 
#
# 1 34.5361 5.3251 18.9900 0.0000 0.0000 0.0000
# 2 5.3251 93.0636 19.8908 0.0000 0.0000 0.0000
# 3 18.9900 19.8908 57.9286 0.0001 0.0000 0.0000
# 4 0.0000 0.0000 0.0001 19.7923 0.0000 0.0000
# 5 0.0000 0.0000 0.0000 0.0000 16.1574 0.0000
# 6 0.0000 0.0000 0.0000 0.0000 0.0000 26.5721
#
#
#
# Elastic Compliance Matrix: (Units=1/GPa)
#
#
# Indices 1 2 3 4 5 6 
#
# 1 0.035343 0.000490 -0.011754 0.000000 0.000000 0.000000
# 2 0.000490 0.011603 -0.004145 0.000000 0.000000 0.000000
# 3 -0.011754 -0.004145 0.022539 0.000000 0.000000 0.000000
# 4 0.000000 0.000000 0.000000 0.050525 0.000000 0.000000
# 5 0.000000 0.000000 0.000000 0.000000 0.061891 0.000000
# 6 0.000000 0.000000 0.000000 0.000000 0.000000 0.037633
#
#
# Mechanical properties :
#
#
# Convention : Reuss Voigt Hill
#
# Bulk Modulus (GPa) = 25.86186 30.43778 28.14982
# Shear Modulus (GPa) = 18.99395 21.92583 20.45989
#
# Velocity S-wave (km/s) = 3.41960 3.67406 3.54911
# Velocity P-wave (km/s) = 5.61369 6.06113 5.84169
#
# Compressibility (1/GPa) = 0.03866698
#
# Stress axis : x y z
#
# Youngs Moduli (GPa) = 28.29425 86.18323 44.36741
#
# Poissons Ratio (x) = -0.04223 0.52151
# Poissons Ratio (y) = -0.01386 0.18389
# Poissons Ratio (z) = 0.33258 0.35721
#
# Static dielectric constant tensor:
#      x y z
#    x 1.549850 0.000000 0.000000 
#    y 0.000000 1.543100 0.000000 
#    z 0.000000 0.000000 1.546380 
# 
# From -- ./inp_files/14744.got.cif
#   From: 2010.05.17/outbox.cif.g08.bks.cpg/sg46_8_cif.got.tgz:14744.got - 2010.06.03 19:58:25.
