data_PCOD9378197
_publ_section_title
;
Structure prediction by ZEFSAII (Michael W. Deem and Ramdas Pophale) SiO2 
 PCOD9378197
Probable space group: I M A 2
;
_chemical_formula_sum "Si O2"
_cell_formula_units_Z 56
_cell_length_a 17.083799
_cell_length_b 10.170007
_cell_length_c 18.278479
_cell_angle_alpha 90.000000
_cell_angle_beta 90.000000
_cell_angle_gamma 90.000000
_cell_volume 3175.745995
_symmetry_space_group_name_H-M "I M A 2"
_symmetry_group_IT_number 46
_symmetry_cell_setting 'orthorhombic'
loop_
_space_group_symop_operation_xyz
x,y,z
-x,-y,z
1/2-x,y,z
1/2+x,-y,z
1/2+x,1/2+y,1/2+z
1/2-x,1/2-y,1/2+z
-x,1/2+y,1/2+z
x,1/2-y,1/2+z
loop_
_atom_site_type_symbol
_atom_site_label
_atom_site_fract_x
_atom_site_fract_y
_atom_site_fract_z
Si Si1 0.842220 0.072203 0.051990
Si Si2 0.159667 0.278173 0.345583
Si Si3 0.926929 0.256077 0.430868
Si Si4 0.495654 0.153125 0.776158
Si Si5 0.936213 0.618613 0.477562
Si Si6 0.158403 0.968063 0.347151
Si Si7 0.430782 0.606586 0.697946
O O1 0.750000 0.061676 0.055130
O O2 0.878411 0.126172 0.126479
O O3 0.867531 0.158818 0.980836
O O4 0.884271 0.930081 0.044072
O O5 0.250000 0.308603 0.329199
O O6 0.095335 0.307918 0.284418
O O7 0.125874 0.362245 0.412957
O O8 0.153711 0.123156 0.363292
O O9 0.888257 0.120579 0.405547
O O10 0.958700 0.320158 0.354021
O O11 0.007293 0.255338 0.478322
O O12 0.533439 0.253559 0.720051
O O13 0.500000 0.000000 0.759138
O O14 0.000000 0.500000 0.467490
O O15 0.250000 0.930225 0.346196
O O16 0.119769 0.942553 0.267769
O O17 0.500000 0.500000 0.686115
#
# Coordination Sequence:
#
# PCOD9378197 Si02
#       7
#     8   8   8   8   8   8   8
#     4  11  21  35  57  83 112 146 189 242 288 332
#     4  10  18  31  54  84 114 144 180 235 294 333
#     4   9  18  33  56  80 109 144 183 233 283 336
#     4  10  20  36  59  83 113 146 191 237 282 345
#     4   9  18  32  51  79 108 138 182 228 274 339
#     4  10  20  33  53  85 115 148 191 236 285 338
#     4  11  21  37  58  79 114 155 194 230 284 345
#
# _framework density 17.633652000000001
#
# number of rings (size 3 to 8) (size 9 to 14) (size 15 to 20)
#    0.000    2.000    1.429    6.000    0.000    0.000 
#    0.000    5.000   12.571    0.000    0.000    0.000 
#    0.000    0.000    0.000    0.000    0.000    0.000 
#
# Total GULP energy -155871.603677 kJ/mol
# GULP energy per Si atom -5566.842988 kJ/mol
# Density = 1.759352 g / cm^3
# Si number density = 17.633652 Si / 1000 Ang^3
#
#
#
# Elastic Constant Matrix: (Units=GPa)
#
#
# Indices 1 2 3 4 5 6 
#
# 1 170.0004 58.1603 55.9711 0.0000 0.0000 0.0000
# 2 58.1603 82.9873 29.7771 0.0000 0.0000 0.0000
# 3 55.9711 29.7771 65.3533 0.0000 0.0000 0.0000
# 4 0.0000 0.0000 0.0000 22.5248 0.0000 0.0000
# 5 0.0000 0.0000 0.0000 0.0000 28.0963 0.0000
# 6 0.0000 0.0000 0.0000 0.0000 0.0000 27.8410
#
#
#
# Elastic Compliance Matrix: (Units=1/GPa)
#
#
# Indices 1 2 3 4 5 6 
#
# 1 0.009372 -0.004409 -0.006018 0.000000 0.000000 0.000000
# 2 -0.004409 0.016479 -0.003732 0.000000 0.000000 0.000000
# 3 -0.006018 -0.003732 0.022156 0.000000 0.000000 0.000000
# 4 0.000000 0.000000 0.000000 0.044396 0.000000 0.000000
# 5 0.000000 0.000000 0.000000 0.000000 0.035592 0.000000
# 6 0.000000 0.000000 0.000000 0.000000 0.000000 0.035918
#
#
# Mechanical properties :
#
#
# Convention : Reuss Voigt Hill
#
# Bulk Modulus (GPa) = 50.79011 67.35089 59.07050
# Shear Modulus (GPa) = 25.15165 27.32123 26.23644
#
# Velocity S-wave (km/s) = 3.78079 3.94049 3.86147
# Velocity P-wave (km/s) = 6.92277 7.67989 7.31113
#
# Compressibility (1/GPa) = 0.01968887
#
# Stress axis : x y z
#
# Youngs Moduli (GPa) = 106.70087 60.68229 45.13481
#
# Poissons Ratio (x) = 0.26755 0.27161
# Poissons Ratio (y) = 0.47044 0.16846
# Poissons Ratio (z) = 0.64209 0.22650
#
# Static dielectric constant tensor:
#      x y z
#    x 1.618850 0.000000 0.000000 
#    y 0.000000 1.633180 0.000000 
#    z 0.000000 0.000000 1.624220 
# 
# From -- ./inp_files/22179.got.cif
#   From: 2010.05.17/outbox.cif.g08.bks.cpg/sg46_12_cif.got.tgz:22179.got - 2010.06.03 19:58:25.
