data_PCOD9378971
_publ_section_title
;
Structure prediction by ZEFSAII (Michael W. Deem and Ramdas Pophale) SiO2 
 PCOD9378971
Probable space group: I M A 2
;
_chemical_formula_sum "Si O2"
_cell_formula_units_Z 64
_cell_length_a 11.021877
_cell_length_b 9.114897
_cell_length_c 30.747884
_cell_angle_alpha 90.000000
_cell_angle_beta 90.000000
_cell_angle_gamma 90.000000
_cell_volume 3089.033083
_symmetry_space_group_name_H-M "I M A 2"
_symmetry_group_IT_number 46
_symmetry_cell_setting 'orthorhombic'
loop_
_space_group_symop_operation_xyz
x,y,z
-x,-y,z
1/2-x,y,z
1/2+x,-y,z
1/2+x,1/2+y,1/2+z
1/2-x,1/2-y,1/2+z
-x,1/2+y,1/2+z
x,1/2-y,1/2+z
loop_
_atom_site_type_symbol
_atom_site_label
_atom_site_fract_x
_atom_site_fract_y
_atom_site_fract_z
Si Si1 0.615430 0.907168 0.342970
Si Si2 0.378201 0.684613 0.979146
Si Si3 0.611822 0.885283 0.791001
Si Si4 0.533380 0.830745 0.698958
Si Si5 0.034571 0.663734 0.562544
Si Si6 0.878331 0.858154 0.445390
Si Si7 0.616196 0.398278 0.659326
Si Si8 0.115651 0.389778 0.105952
O O1 0.750000 0.959728 0.328581
O O2 0.603087 0.739899 0.327389
O O3 0.615913 0.909233 0.395456
O O4 0.500000 0.000000 0.327394
O O5 0.250000 0.734791 0.959906
O O6 0.377441 0.507231 0.974388
O O7 0.501678 0.731456 0.955809
O O8 0.390588 0.745313 0.027541
O O9 0.750000 0.948481 0.791938
O O10 0.596460 0.800824 0.744615
O O11 0.500000 0.000000 0.795307
O O12 0.411362 0.740163 0.689847
O O13 0.609655 0.820317 0.654447
O O14 0.500000 0.000000 0.701636
O O15 0.102887 0.648171 0.608803
O O16 0.000000 0.500000 0.548088
O O17 0.914286 0.758731 0.572910
O O18 0.750000 0.780816 0.452637
O O19 0.500000 0.500000 0.668016
O O20 0.750000 0.460053 0.666656
O O21 0.250000 0.453736 0.099081
O O22 0.000000 0.500000 0.102573
#
# Coordination Sequence:
#
# PCOD9378971 Si02
#       8
#     8   8   8   8   8   8   8   8
#     4  10  20  38  64  92 120 152 195 246 303 363
#     4  10  19  34  59  85 110 148 194 239 291 353
#     4  10  22  39  61  91 127 163 200 248 304 367
#     4   9  20  37  59  85 118 157 201 248 299 352
#     4  10  23  38  55  84 123 160 201 250 303 358
#     4   9  19  36  59  86 114 145 185 243 301 352
#     4  10  22  40  61  85 121 166 209 255 305 360
#     4  10  22  38  59  85 114 156 206 253 298 350
#
# _framework density 20.718457999999998
#
# number of rings (size 3 to 8) (size 9 to 14) (size 15 to 20)
#    0.000    2.250    1.250    0.750    1.750   14.000 
#    0.000    1.875    0.000    1.500    0.000    0.000 
#    0.000    0.000    0.000    0.000    0.000    0.000 
#
# Total GULP energy -178283.529121 kJ/mol
# GULP energy per Si atom -5571.360285 kJ/mol
# Density = 2.067130 g / cm^3
# Si number density = 20.718458 Si / 1000 Ang^3
#
#
#
# Elastic Constant Matrix: (Units=GPa)
#
#
# Indices 1 2 3 4 5 6 
#
# 1 225.0570 40.6626 23.7932 0.0000 0.0000 0.0000
# 2 40.6626 63.5901 38.0469 0.0000 0.0000 0.0000
# 3 23.7932 38.0469 38.8906 0.0000 0.0000 0.0000
# 4 0.0000 0.0000 0.0000 30.4088 0.0000 0.0000
# 5 0.0000 0.0000 0.0000 0.0000 6.5983 0.0000
# 6 0.0000 0.0000 0.0000 0.0000 0.0000 22.9003
#
#
#
# Elastic Compliance Matrix: (Units=1/GPa)
#
#
# Indices 1 2 3 4 5 6 
#
# 1 0.005024 -0.003313 0.000167 0.000000 0.000000 0.000000
# 2 -0.003313 0.040108 -0.037211 0.000000 0.000000 0.000000
# 3 0.000167 -0.037211 0.062015 0.000000 0.000000 0.000000
# 4 0.000000 0.000000 0.000000 0.032885 0.000000 0.000000
# 5 0.000000 0.000000 0.000000 0.000000 0.151554 0.000000
# 6 0.000000 0.000000 0.000000 0.000000 0.000000 0.043667
#
#
# Mechanical properties :
#
#
# Convention : Reuss Voigt Hill
#
# Bulk Modulus (GPa) = 37.83096 59.17146 48.50121
# Shear Modulus (GPa) = 11.77085 26.98383 19.37734
#
# Velocity S-wave (km/s) = 2.38614 3.61280 3.06154
# Velocity P-wave (km/s) = 5.08829 6.78416 5.99648
#
# Compressibility (1/GPa) = 0.02643338
#
# Stress axis : x y z
#
# Youngs Moduli (GPa) = 199.03753 24.93276 16.12517
#
# Poissons Ratio (x) = 0.08259 -0.00269
# Poissons Ratio (y) = 0.65933 0.60004
# Poissons Ratio (z) = -0.03323 0.92778
#
# Static dielectric constant tensor:
#      x y z
#    x 1.809060 0.000000 0.000000 
#    y 0.000000 1.760290 0.000000 
#    z 0.000000 0.000000 1.758650 
# 
# From -- ./inp_files/25353.got.cif
#   From: 2010.05.17/outbox.cif.g08.bks.cpg/sg46_13_cif.got.tgz:25353.got - 2010.06.03 19:58:25.
