data_PCOD9378455
_publ_section_title
;
Structure prediction by ZEFSAII (Michael W. Deem and Ramdas Pophale) SiO2 
 PCOD9378455
Probable space group: I M A 2
;
_chemical_formula_sum "Si O2"
_cell_formula_units_Z 64
_cell_length_a 8.201311
_cell_length_b 23.817339
_cell_length_c 14.361539
_cell_angle_alpha 90.000000
_cell_angle_beta 90.000000
_cell_angle_gamma 90.000000
_cell_volume 2805.288304
_symmetry_space_group_name_H-M "I M A 2"
_symmetry_group_IT_number 46
_symmetry_cell_setting 'orthorhombic'
loop_
_space_group_symop_operation_xyz
x,y,z
-x,-y,z
1/2-x,y,z
1/2+x,-y,z
1/2+x,1/2+y,1/2+z
1/2-x,1/2-y,1/2+z
-x,1/2+y,1/2+z
x,1/2-y,1/2+z
loop_
_atom_site_type_symbol
_atom_site_label
_atom_site_fract_x
_atom_site_fract_y
_atom_site_fract_z
Si Si1 0.937927 0.677884 0.708840
Si Si2 0.940561 0.700711 0.193813
Si Si3 0.556452 0.059419 0.256517
Si Si4 0.060368 0.580561 0.163461
Si Si5 0.559068 0.080192 0.464814
Si Si6 0.058190 0.299922 0.930474
Si Si7 0.938767 0.820755 0.916094
Si Si8 0.556822 0.560262 0.372075
O O1 0.750000 0.674560 0.679760
O O2 0.003780 0.736989 0.669361
O O3 0.944203 0.690540 0.819257
O O4 0.010568 0.615779 0.700310
O O5 0.750000 0.696191 0.164751
O O6 0.936425 0.691661 0.305394
O O7 0.042612 0.648000 0.160650
O O8 0.750000 0.059380 0.264436
O O9 0.487616 0.062884 0.363870
O O10 0.500000 0.000000 0.216058
O O11 0.250000 0.564650 0.168574
O O12 0.980864 0.562932 0.261067
O O13 0.987130 0.560789 0.064179
O O14 0.750000 0.064920 0.465142
O O15 0.541118 0.147441 0.466210
O O16 0.250000 0.303672 0.956689
O O17 0.993118 0.237883 0.954864
O O18 0.750000 0.823161 0.947921
O O19 0.012583 0.883276 0.921732
O O20 0.500000 0.500000 0.407924
O O21 0.750000 0.563827 0.381493
#
# Coordination Sequence:
#
# PCOD9378455 Si02
#       8
#     8   8   8   8   8   8   8   8
#     4   8  14  26  43  61  80 101 128 166 211 252
#     4   8  14  26  43  61  80 102 130 166 208 249
#     4  10  19  30  42  57  80 110 144 176 207 242
#     4  10  19  30  42  58  83 113 144 173 203 239
#     4   9  19  31  40  56  83 111 139 174 207 236
#     4   8  13  24  43  61  75  98 131 163 202 249
#     4   7  12  24  41  59  78  99 125 163 206 245
#     4  10  19  31  44  59  82 110 142 175 206 240
#
# _framework density 22.814053999999999
#
# number of rings (size 3 to 8) (size 9 to 14) (size 15 to 20)
#    0.000    3.250    0.000    3.375    0.000    2.500 
#    0.000    8.125    0.000    0.000    0.000    0.000 
#    0.000    1.000    0.000    4.500    0.000    4.750 
#
# Total GULP energy -178170.788665 kJ/mol
# GULP energy per Si atom -5567.837146 kJ/mol
# Density = 2.276213 g / cm^3
# Si number density = 22.814054 Si / 1000 Ang^3
#
#
#
# Elastic Constant Matrix: (Units=GPa)
#
#
# Indices 1 2 3 4 5 6 
#
# 1 21.4534 11.7030 -6.7151 0.0000 0.0000 0.0000
# 2 11.7030 214.2114 -6.4087 0.0000 0.0000 0.0000
# 3 -6.7151 -6.4087 39.6056 -0.0001 0.0000 0.0000
# 4 0.0000 0.0000 -0.0001 -26.5714 0.0000 0.0000
# 5 0.0000 0.0000 0.0000 0.0000 3.8406 0.0000
# 6 0.0000 0.0000 0.0000 0.0000 0.0000 28.8126
#
#
#
# Elastic Compliance Matrix: (Units=1/GPa)
#
#
# Indices 1 2 3 4 5 6 
#
# 1 0.050540 -0.002517 0.008162 0.000000 0.000000 0.000000
# 2 -0.002517 0.004816 0.000353 0.000000 0.000000 0.000000
# 3 0.008162 0.000353 0.026690 0.000000 0.000000 0.000000
# 4 0.000000 0.000000 0.000000 -0.037634 0.000000 0.000000
# 5 0.000000 0.000000 0.000000 0.000000 0.260375 0.000000
# 6 0.000000 0.000000 0.000000 0.000000 0.000000 0.034707
#
#
# Mechanical properties :
#
#
# Convention : Reuss Voigt Hill
#
# Bulk Modulus (GPa) = 10.63359 30.26987 20.45173
# Shear Modulus (GPa) = 13.93351 19.66242 16.79797
#
# Velocity S-wave (km/s) = 2.47400 2.93892 2.71643
# Velocity P-wave (km/s) = 3.58218 4.98129 4.33851
#
# Compressibility (1/GPa) = 0.09404158
#
# Stress axis : x y z
#
# Youngs Moduli (GPa) = 19.78614 207.62633 37.46738
#
# Poissons Ratio (x) = 0.52260 -0.30580
# Poissons Ratio (y) = 0.04980 -0.01321
# Poissons Ratio (z) = -0.16149 -0.07321
#
# Static dielectric constant tensor:
#      x y z
#    x 1.798890 0.000000 0.000000 
#    y 0.000000 1.923490 0.000000 
#    z 0.000000 0.000000 2.011110 
# 
# From -- ./inp_files/21490.got.cif
#   From: 2010.05.17/outbox.cif.g08.bks.cpg/sg46_11_cif.got.tgz:21490.got - 2010.06.03 19:58:25.
