data_PCOD9378991
_publ_section_title
;
Structure prediction by ZEFSAII (Michael W. Deem and Ramdas Pophale) SiO2 
 PCOD9378991
Probable space group: I M A 2
;
_chemical_formula_sum "Si O2"
_cell_formula_units_Z 48
_cell_length_a 18.773446
_cell_length_b 16.976176
_cell_length_c 8.906437
_cell_angle_alpha 90.000000
_cell_angle_beta 90.000000
_cell_angle_gamma 90.000000
_cell_volume 2838.493259
_symmetry_space_group_name_H-M "I M A 2"
_symmetry_group_IT_number 46
_symmetry_cell_setting 'orthorhombic'
loop_
_space_group_symop_operation_xyz
x,y,z
-x,-y,z
1/2-x,y,z
1/2+x,-y,z
1/2+x,1/2+y,1/2+z
1/2-x,1/2-y,1/2+z
-x,1/2+y,1/2+z
x,1/2-y,1/2+z
loop_
_atom_site_type_symbol
_atom_site_label
_atom_site_fract_x
_atom_site_fract_y
_atom_site_fract_z
Si Si1 0.459421 0.080911 0.841490
Si Si2 0.170093 0.863419 0.867781
Si Si3 0.932015 0.444604 0.937829
Si Si4 0.442518 0.801177 0.666600
Si Si5 0.953385 0.120130 0.108108
Si Si6 0.830007 0.520417 0.166204
O O1 0.500058 0.154530 0.769636
O O2 0.500000 0.000000 0.796768
O O3 0.382035 0.074450 0.767409
O O4 0.477121 0.088044 0.018556
O O5 0.250000 0.841292 0.914556
O O6 0.130465 0.799500 0.763472
O O7 0.173782 0.940179 0.762862
O O8 0.116055 0.885043 0.000918
O O9 0.935483 0.423298 0.762701
O O10 0.000000 0.500000 0.968429
O O11 0.934332 0.360950 0.026542
O O12 0.866812 0.494176 0.009833
O O13 0.464503 0.713268 0.630597
O O14 0.750000 0.551078 0.146207
#
# Coordination Sequence:
#
# PCOD9378991 Si02
#       6
#     8   8   8   8   8   8
#     4  11  17  38  57  75 104 144 188 223 261 327
#     4   9  19  34  51  74 112 150 178 207 263 336
#     4  11  19  33  54  81 108 137 182 234 272 310
#     4  10  19  35  52  78 108 143 183 217 270 328
#     4  11  22  30  55  84 112 139 182 233 273 313
#     4  10  19  35  58  77 101 145 188 222 268 327
#
# _framework density 16.91038
#
# number of rings (size 3 to 8) (size 9 to 14) (size 15 to 20)
#    0.000    1.667    6.667    2.500    0.000    1.333 
#    0.000    3.333    0.000    1.000    0.000    0.000 
#    0.000    0.000    0.000    0.000    0.000    0.000 
#
# Total GULP energy -133646.239168 kJ/mol
# GULP energy per Si atom -5568.593299 kJ/mol
# Density = 1.687189 g / cm^3
# Si number density = 16.910380 Si / 1000 Ang^3
#
#
#
# Elastic Constant Matrix: (Units=GPa)
#
#
# Indices 1 2 3 4 5 6 
#
# 1 123.0572 32.7579 50.2675 0.0000 0.0000 0.0000
# 2 32.7579 49.4212 18.6318 0.0000 0.0000 0.0000
# 3 50.2675 18.6318 130.5231 0.0000 0.0000 0.0000
# 4 0.0000 0.0000 0.0000 23.3572 0.0000 0.0000
# 5 0.0000 0.0000 0.0000 0.0000 12.3720 0.0000
# 6 0.0000 0.0000 0.0000 0.0000 0.0000 14.5450
#
#
#
# Elastic Compliance Matrix: (Units=1/GPa)
#
#
# Indices 1 2 3 4 5 6 
#
# 1 0.011148 -0.006099 -0.003423 0.000000 0.000000 0.000000
# 2 -0.006099 0.024722 -0.001180 0.000000 0.000000 0.000000
# 3 -0.003423 -0.001180 0.009148 0.000000 0.000000 0.000000
# 4 0.000000 0.000000 0.000000 0.042813 0.000000 0.000000
# 5 0.000000 0.000000 0.000000 0.000000 0.080828 0.000000
# 6 0.000000 0.000000 0.000000 0.000000 0.000000 0.068752
#
#
# Mechanical properties :
#
#
# Convention : Reuss Voigt Hill
#
# Bulk Modulus (GPa) = 42.34727 56.25733 49.30230
# Shear Modulus (GPa) = 18.74865 23.47779 21.11322
#
# Velocity S-wave (km/s) = 3.33334 3.73012 3.53730
# Velocity P-wave (km/s) = 6.31755 7.20360 6.77507
#
# Compressibility (1/GPa) = 0.02361427
#
# Stress axis : x y z
#
# Youngs Moduli (GPa) = 89.70243 40.45039 109.31203
#
# Poissons Ratio (x) = 0.24670 0.37415
# Poissons Ratio (y) = 0.54708 0.12900
# Poissons Ratio (z) = 0.30703 0.04774
#
# Static dielectric constant tensor:
#      x y z
#    x 1.609920 0.000000 0.000000 
#    y 0.000000 1.566110 0.000000 
#    z 0.000000 0.000000 1.635850 
# 
# From -- ./inp_files/6707.got.cif
#   From: 2010.05.17/outbox.cif.g08.bks.cpg/sg46_4_cif.got.tgz:6707.got - 2010.06.03 19:58:25.
