data_PCOD9378451
_publ_section_title
;
Structure prediction by ZEFSAII (Michael W. Deem and Ramdas Pophale) SiO2 
 PCOD9378451
Probable space group: I M A 2
;
_chemical_formula_sum "Si O2"
_cell_formula_units_Z 64
_cell_length_a 17.113092
_cell_length_b 7.248734
_cell_length_c 22.643774
_cell_angle_alpha 90.000000
_cell_angle_beta 90.000000
_cell_angle_gamma 90.000000
_cell_volume 2808.920579
_symmetry_space_group_name_H-M "I M A 2"
_symmetry_group_IT_number 46
_symmetry_cell_setting 'orthorhombic'
loop_
_space_group_symop_operation_xyz
x,y,z
-x,-y,z
1/2-x,y,z
1/2+x,-y,z
1/2+x,1/2+y,1/2+z
1/2-x,1/2-y,1/2+z
-x,1/2+y,1/2+z
x,1/2-y,1/2+z
loop_
_atom_site_type_symbol
_atom_site_label
_atom_site_fract_x
_atom_site_fract_y
_atom_site_fract_z
Si Si1 0.407934 0.961860 0.039220
Si Si2 0.658846 0.025501 0.289243
Si Si3 0.155665 0.558076 0.416340
Si Si4 0.092660 0.523225 0.912566
Si Si5 0.905791 0.478032 0.039220
Si Si6 0.658846 0.474498 0.289197
Si Si7 0.907340 0.023225 0.665874
Si Si8 0.344335 0.558076 0.662100
O O1 0.391513 0.741938 0.039220
O O2 0.372439 0.030244 0.100977
O O3 0.500000 0.000000 0.039220
O O4 0.372439 0.030244 0.977463
O O5 0.750000 0.980971 0.293194
O O6 0.620798 0.953331 0.349060
O O7 0.652192 0.249999 0.289220
O O8 0.630430 0.966789 0.224204
O O9 0.250000 0.573930 0.415943
O O10 0.118226 0.762247 0.414205
O O11 0.130430 0.466790 0.354235
O O12 0.000000 0.500000 0.913748
O O13 0.123617 0.448760 0.975939
O O14 0.876383 0.551239 0.102501
O O15 0.000000 0.500000 0.039220
O O16 0.750000 0.519028 0.285246
O O17 0.620798 0.546668 0.229380
O O18 0.881775 0.237754 0.664235
O O19 0.000000 0.000000 0.664692
O O20 0.250000 0.573930 0.662497
#
# Coordination Sequence:
#
# PCOD9378451 Si02
#       8
#     8   8   8   8   8   8   8   8
#     4  10  19  29  46  75  99 116 153 208 246 271
#     4   8  14  25  40  59  86 118 154 196 237 282
#     4   9  17  30  46  65  93 128 162 195 238 296
#     4   9  15  24  41  65  91 119 154 201 244 280
#     4   8  16  29  42  61  94 126 147 178 233 291
#     4   8  14  25  40  59  86 118 154 196 237 282
#     4   9  15  24  41  65  91 119 154 201 244 280
#     4   9  17  30  46  65  93 128 162 195 238 296
#
# _framework density 22.784552000000001
#
# number of rings (size 3 to 8) (size 9 to 14) (size 15 to 20)
#    0.000    3.250    0.000    2.625    0.000    1.000 
#    0.000    1.875    0.000    0.000    0.000   87.500 
#    0.000   72.000    0.000    0.000    0.000    0.000 
#
# Total GULP energy -178303.204305 kJ/mol
# GULP energy per Si atom -5571.975135 kJ/mol
# Density = 2.273269 g / cm^3
# Si number density = 22.784552 Si / 1000 Ang^3
#
#
#
# Elastic Constant Matrix: (Units=GPa)
#
#
# Indices 1 2 3 4 5 6 
#
# 1 58.9256 8.9906 72.7829 0.0000 0.0000 0.0000
# 2 8.9906 104.2922 22.7015 0.0000 0.0000 0.0000
# 3 72.7829 22.7015 349.4658 0.0000 0.0000 0.0000
# 4 0.0000 0.0000 0.0000 -20.0266 0.0000 0.0000
# 5 0.0000 0.0000 0.0000 0.0000 45.1771 0.0000
# 6 0.0000 0.0000 0.0000 0.0000 0.0000 15.1646
#
#
#
# Elastic Compliance Matrix: (Units=1/GPa)
#
#
# Indices 1 2 3 4 5 6 
#
# 1 0.022941 -0.000951 -0.004716 0.000000 0.000000 0.000000
# 2 -0.000951 0.009765 -0.000436 0.000000 0.000000 0.000000
# 3 -0.004716 -0.000436 0.003872 0.000000 0.000000 0.000000
# 4 0.000000 0.000000 0.000000 -0.049934 0.000000 0.000000
# 5 0.000000 0.000000 0.000000 0.000000 0.022135 0.000000
# 6 0.000000 0.000000 0.000000 0.000000 0.000000 0.065943
#
#
# Mechanical properties :
#
#
# Convention : Reuss Voigt Hill
#
# Bulk Modulus (GPa) = 41.03174 80.18152 60.60663
# Shear Modulus (GPa) = 52.60190 35.27692 43.93941
#
# Velocity S-wave (km/s) = 4.81007 3.93909 4.39620
# Velocity P-wave (km/s) = 6.99262 7.48038 7.24061
#
# Compressibility (1/GPa) = 0.02437137
#
# Stress axis : x y z
#
# Youngs Moduli (GPa) = 43.59049 102.40235 258.26030
#
# Poissons Ratio (x) = 0.09739 1.21797
# Poissons Ratio (y) = 0.04146 0.11268
# Poissons Ratio (z) = 0.20558 0.04468
#
# Static dielectric constant tensor:
#      x y z
#    x 1.773750 0.000000 0.000000 
#    y 0.000000 1.824080 0.000000 
#    z 0.000000 0.000000 1.962910 
# 
# From -- ./inp_files/23712.got.cif
#   From: 2010.05.17/outbox.cif.g08.bks.cpg/sg46_12_cif.got.tgz:23712.got - 2010.06.03 19:58:25.
