data_PCOD9378340
_publ_section_title
;
Structure prediction by ZEFSAII (Michael W. Deem and Ramdas Pophale) SiO2 
 PCOD9378340
Probable space group: I M A 2
;
_chemical_formula_sum "Si O2"
_cell_formula_units_Z 64
_cell_length_a 7.910366
_cell_length_b 32.046040
_cell_length_c 12.268680
_cell_angle_alpha 90.000000
_cell_angle_beta 90.000000
_cell_angle_gamma 90.000000
_cell_volume 3110.060143
_symmetry_space_group_name_H-M "I M A 2"
_symmetry_group_IT_number 46
_symmetry_cell_setting 'orthorhombic'
loop_
_space_group_symop_operation_xyz
x,y,z
-x,-y,z
1/2-x,y,z
1/2+x,-y,z
1/2+x,1/2+y,1/2+z
1/2-x,1/2-y,1/2+z
-x,1/2+y,1/2+z
x,1/2-y,1/2+z
loop_
_atom_site_type_symbol
_atom_site_label
_atom_site_fract_x
_atom_site_fract_y
_atom_site_fract_z
Si Si1 0.954168 0.374677 0.617360
Si Si2 0.953813 0.068288 0.740378
Si Si3 0.050278 0.454561 0.999072
Si Si4 0.543363 0.335466 0.238773
Si Si5 0.542849 0.202220 0.969090
Si Si6 0.453517 0.954625 0.979194
Si Si7 0.548436 0.873661 0.370010
Si Si8 0.047318 0.704373 0.014569
O O1 0.750000 0.374813 0.611606
O O2 0.011491 0.332185 0.557669
O O3 0.014476 0.415406 0.550488
O O4 0.003447 0.376183 0.743200
O O5 0.750000 0.067341 0.743523
O O6 0.009515 0.116460 0.737777
O O7 0.016614 0.049020 0.854075
O O8 0.005795 0.048012 0.626858
O O9 0.250000 0.451987 0.990017
O O10 0.978508 0.414092 0.935843
O O11 0.000000 0.500000 0.955381
O O12 0.750000 0.335446 0.237689
O O13 0.490494 0.313425 0.349892
O O14 0.482881 0.312576 0.130295
O O15 0.750000 0.202523 0.970347
O O16 0.483389 0.249230 0.989907
O O17 0.250000 0.951787 0.976000
O O18 0.500000 0.000000 0.023862
O O19 0.750000 0.873883 0.380289
O O20 0.487471 0.830653 0.424207
O O21 0.250000 0.707761 0.023567
#
# Coordination Sequence:
#
# PCOD9378340 Si02
#       8
#     8   8   8   8   8   8   8   8
#     4  10  21  39  61  84 112 150 195 239 281 331
#     4  10  18  34  59  86 119 151 182 225 284 343
#     4  11  24  40  59  83 112 147 189 236 285 337
#     4   9  16  30  55  88 120 146 180 233 286 329
#     4   9  18  33  58  92 119 143 190 243 281 324
#     4  10  21  36  57  86 117 150 186 233 286 339
#     4  11  25  42  57  80 117 154 188 234 287 340
#     4  10  20  34  61  91 114 149 192 235 281 331
#
# _framework density 20.578379999999999
#
# number of rings (size 3 to 8) (size 9 to 14) (size 15 to 20)
#    0.000    2.000    2.500    1.125    1.750    4.000 
#    0.000    3.125    0.000    1.500    0.000    0.000 
#    0.000    0.000    0.000    0.000    0.000    0.000 
#
# Total GULP energy -178724.113703 kJ/mol
# GULP energy per Si atom -5585.128553 kJ/mol
# Density = 2.053154 g / cm^3
# Si number density = 20.578380 Si / 1000 Ang^3
#
#
#
# Elastic Constant Matrix: (Units=GPa)
#
#
# Indices 1 2 3 4 5 6 
#
# 1 17.9687 5.1387 -5.2172 0.0000 0.0000 0.0000
# 2 5.1387 200.8219 75.3905 0.0003 0.0000 0.0000
# 3 -5.2172 75.3905 124.0916 0.0006 0.0001 0.0001
# 4 0.0000 0.0003 0.0006 122.7678 0.0011 -0.0004
# 5 0.0000 0.0000 0.0001 0.0011 -34.6463 0.0000
# 6 0.0000 0.0000 0.0001 -0.0004 0.0000 10.2907
#
#
#
# Elastic Compliance Matrix: (Units=1/GPa)
#
#
# Indices 1 2 3 4 5 6 
#
# 1 0.057790 -0.003097 0.004311 0.000000 0.000000 0.000000
# 2 -0.003097 0.006617 -0.004150 0.000000 0.000000 0.000000
# 3 0.004311 -0.004150 0.010761 0.000000 0.000000 0.000000
# 4 0.000000 0.000000 0.000000 0.008145 0.000000 0.000000
# 5 0.000000 0.000000 0.000000 0.000000 -0.028863 0.000000
# 6 0.000000 0.000000 0.000000 0.000000 0.000000 0.097175
#
#
# Mechanical properties :
#
#
# Convention : Reuss Voigt Hill
#
# Bulk Modulus (GPa) = 14.43090 54.83404 34.63247
# Shear Modulus (GPa) = 27.68608 37.52045 32.60326
#
# Velocity S-wave (km/s) = 3.67194 4.27464 3.98470
# Velocity P-wave (km/s) = 5.00054 7.14616 6.16738
#
# Compressibility (1/GPa) = 0.06929574
#
# Stress axis : x y z
#
# Youngs Moduli (GPa) = 17.30407 151.13009 92.92614
#
# Poissons Ratio (x) = 0.46810 -0.40064
# Poissons Ratio (y) = 0.05360 0.38566
# Poissons Ratio (z) = -0.07460 0.62722
#
# Static dielectric constant tensor:
#      x y z
#    x 1.759890 0.000000 0.000000 
#    y 0.000000 1.736020 0.000000 
#    z 0.000000 0.000000 1.705030 
# 
# From -- ./inp_files/9749.got.cif
#   From: 2010.05.17/outbox.cif.g08.bks.cpg/sg46_5_cif.got.tgz:9749.got - 2010.06.03 19:58:25.
