data_PCOD9378499
_publ_section_title
;
Structure prediction by ZEFSAII (Michael W. Deem and Ramdas Pophale) SiO2 
 PCOD9378499
Probable space group: I M A 2
;
_chemical_formula_sum "Si O2"
_cell_formula_units_Z 64
_cell_length_a 8.875430
_cell_length_b 34.021932
_cell_length_c 11.826168
_cell_angle_alpha 90.000000
_cell_angle_beta 90.000000
_cell_angle_gamma 90.000000
_cell_volume 3571.021126
_symmetry_space_group_name_H-M "I M A 2"
_symmetry_group_IT_number 46
_symmetry_cell_setting 'orthorhombic'
loop_
_space_group_symop_operation_xyz
x,y,z
-x,-y,z
1/2-x,y,z
1/2+x,-y,z
1/2+x,1/2+y,1/2+z
1/2-x,1/2-y,1/2+z
-x,1/2+y,1/2+z
x,1/2-y,1/2+z
loop_
_atom_site_type_symbol
_atom_site_label
_atom_site_fract_x
_atom_site_fract_y
_atom_site_fract_z
Si Si1 0.071539 0.457756 0.250000
Si Si2 0.427518 0.458830 0.978108
Si Si3 0.070823 0.624132 0.331162
Si Si4 0.928412 0.828441 0.627732
Si Si5 0.569642 0.736654 0.951673
Si Si6 0.577359 0.314028 0.756941
Si Si7 0.428464 0.174954 0.017458
Si Si8 0.422168 0.880658 0.440358
O O1 0.250000 0.458221 0.273143
O O2 0.000000 0.500000 0.283309
O O3 0.998170 0.418804 0.303780
O O4 0.051501 0.454241 0.113963
O O5 0.500000 0.500000 0.945591
O O6 0.250000 0.457516 0.955051
O O7 0.516514 0.423752 0.919905
O O8 0.250000 0.621713 0.325474
O O9 0.011772 0.655853 0.238472
O O10 0.015765 0.641059 0.450962
O O11 0.750000 0.827273 0.650855
O O12 0.973540 0.787421 0.566426
O O13 0.968768 0.860309 0.531519
O O14 0.750000 0.731037 0.939303
O O15 0.488159 0.718053 0.843836
O O16 0.538100 0.782524 0.962404
O O17 0.750000 0.304506 0.726510
O O18 0.478639 0.320164 0.646491
O O19 0.576336 0.353963 0.829771
O O20 0.250000 0.168054 0.008999
O O21 0.250000 0.881334 0.484675
#
# Coordination Sequence:
#
# PCOD9378499 Si02
#       8
#     8   8   8   8   8   8   8   8
#     4  10  20  35  56  84 118 155 191 236 289 349
#     4  10  19  30  50  80 115 148 183 226 277 337
#     4  12  24  37  56  85 119 155 192 240 292 346
#     4  10  19  34  55  81 111 146 189 232 279 341
#     4   9  21  39  60  82 109 148 191 235 285 339
#     4  10  22  39  58  83 112 145 187 234 286 339
#     4  11  24  41  60  82 111 152 197 241 285 341
#     4  10  19  33  54  79 111 147 182 226 278 334
#
# _framework density 17.922045000000001
#
# number of rings (size 3 to 8) (size 9 to 14) (size 15 to 20)
#    0.000    1.750    1.250    3.375    1.750    4.000 
#    0.000    0.000    0.000    0.750    0.000    1.750 
#    0.000    0.000    0.000    0.000    0.000    0.000 
#
# Total GULP energy -178688.049296 kJ/mol
# GULP energy per Si atom -5584.001540 kJ/mol
# Density = 1.788125 g / cm^3
# Si number density = 17.922045 Si / 1000 Ang^3
#
#
#
# Elastic Constant Matrix: (Units=GPa)
#
#
# Indices 1 2 3 4 5 6 
#
# 1 82.4331 44.8774 29.6495 -0.0002 0.0001 0.0001
# 2 44.8774 72.6228 13.9336 -0.0005 0.0003 0.0003
# 3 29.6495 13.9336 56.4131 -0.0005 0.0002 0.0001
# 4 -0.0002 -0.0005 -0.0005 14.3754 0.0000 0.0000
# 5 0.0001 0.0003 0.0002 0.0000 26.6849 0.0000
# 6 0.0001 0.0003 0.0001 0.0000 0.0000 26.1465
#
#
#
# Elastic Compliance Matrix: (Units=1/GPa)
#
#
# Indices 1 2 3 4 5 6 
#
# 1 0.021522 -0.011683 -0.008426 0.000000 0.000000 0.000000
# 2 -0.011683 0.020797 0.001004 0.000001 0.000000 0.000000
# 3 -0.008426 0.001004 0.021907 0.000001 0.000000 0.000000
# 4 0.000000 0.000001 0.000001 0.069563 0.000000 0.000000
# 5 0.000000 0.000000 0.000000 0.000000 0.037474 0.000000
# 6 0.000000 0.000000 0.000000 0.000000 0.000000 0.038246
#
#
# Mechanical properties :
#
#
# Convention : Reuss Voigt Hill
#
# Bulk Modulus (GPa) = 38.43889 43.15444 40.79667
# Shear Modulus (GPa) = 19.50143 21.64191 20.57167
#
# Velocity S-wave (km/s) = 3.30225 3.47876 3.39166
# Velocity P-wave (km/s) = 6.00285 6.34563 6.17662
#
# Compressibility (1/GPa) = 0.02601532
#
# Stress axis : x y z
#
# Youngs Moduli (GPa) = 46.46419 48.08454 45.64763
#
# Poissons Ratio (x) = 0.56177 0.38462
# Poissons Ratio (y) = 0.54284 -0.04581
# Poissons Ratio (z) = 0.39150 -0.04826
#
# Static dielectric constant tensor:
#      x y z
#    x 1.608570 0.000000 0.000000 
#    y 0.000000 1.645810 0.000000 
#    z 0.000000 0.000000 1.597080 
# 
# From -- ./inp_files/9776.got.cif
#   From: 2010.05.17/outbox.cif.g08.bks.cpg/sg46_5_cif.got.tgz:9776.got - 2010.06.03 19:58:25.
