data_PCOD9378727
_publ_section_title
;
Structure prediction by ZEFSAII (Michael W. Deem and Ramdas Pophale) SiO2 
 PCOD9378727
Probable space group: I M A 2
;
_chemical_formula_sum "Si O2"
_cell_formula_units_Z 48
_cell_length_a 15.929095
_cell_length_b 16.448731
_cell_length_c 8.775270
_cell_angle_alpha 90.000000
_cell_angle_beta 90.000000
_cell_angle_gamma 90.000000
_cell_volume 2299.238317
_symmetry_space_group_name_H-M "I M A 2"
_symmetry_group_IT_number 46
_symmetry_cell_setting 'orthorhombic'
loop_
_space_group_symop_operation_xyz
x,y,z
-x,-y,z
1/2-x,y,z
1/2+x,-y,z
1/2+x,1/2+y,1/2+z
1/2-x,1/2-y,1/2+z
-x,1/2+y,1/2+z
x,1/2-y,1/2+z
loop_
_atom_site_type_symbol
_atom_site_label
_atom_site_fract_x
_atom_site_fract_y
_atom_site_fract_z
Si Si1 0.590567 0.664688 0.050790
Si Si2 0.091660 0.328238 0.415714
Si Si3 0.902707 0.164080 0.417176
Si Si4 0.097437 0.506013 0.422079
Si Si5 0.902511 0.170556 0.055176
Si Si6 0.344854 0.509237 0.089691
O O1 0.584384 0.675917 0.233031
O O2 0.635842 0.579291 0.021763
O O3 0.631394 0.745703 0.979836
O O4 0.497897 0.657297 0.979519
O O5 0.133132 0.415699 0.451538
O O6 0.997852 0.329429 0.487843
O O7 0.903948 0.172730 0.236404
O O8 0.864452 0.246189 0.489710
O O9 0.858646 0.082230 0.473242
O O10 0.136135 0.585244 0.499914
O O11 0.098827 0.520658 0.240273
O O12 0.000000 0.500000 0.471647
O O13 0.250000 0.510078 0.146635
#
# Coordination Sequence:
#
# PCOD9378727 Si02
#       6
#     8   8   8   8   8   8
#     4  10  19  34  57  83 110 141 177 220 267 317
#     4   9  17  30  54  84 111 135 170 218 266 314
#     4  11  20  34  57  83 110 140 175 222 270 318
#     4   9  18  36  59  84 109 136 175 221 269 323
#     4  10  19  32  58  89 110 133 174 222 271 322
#     4  11  23  38  53  75 108 149 187 221 263 314
#
# _framework density 20.876477999999999
#
# number of rings (size 3 to 8) (size 9 to 14) (size 15 to 20)
#    0.000    2.000    0.000    8.500    0.000    5.333 
#    0.000    7.500    0.000    0.000    0.000    0.000 
#    0.000    0.000    0.000    0.000    0.000    0.000 
#
# Total GULP energy -133914.047444 kJ/mol
# GULP energy per Si atom -5579.751977 kJ/mol
# Density = 2.082896 g / cm^3
# Si number density = 20.876478 Si / 1000 Ang^3
#
#
#
# Elastic Constant Matrix: (Units=GPa)
#
#
# Indices 1 2 3 4 5 6 
#
# 1 22.9616 14.2059 3.2962 0.0000 0.0000 0.0000
# 2 14.2059 231.0835 97.5117 0.0000 0.0000 0.0000
# 3 3.2962 97.5117 115.3317 0.0000 0.0000 0.0000
# 4 0.0000 0.0000 0.0000 40.6294 0.0000 0.0000
# 5 0.0000 0.0000 0.0000 0.0000 -3.9982 0.0000
# 6 0.0000 0.0000 0.0000 0.0000 0.0000 -59.4475
#
#
#
# Elastic Compliance Matrix: (Units=1/GPa)
#
#
# Indices 1 2 3 4 5 6 
#
# 1 0.045475 -0.003494 0.001654 0.000000 0.000000 0.000000
# 2 -0.003494 0.006996 -0.005815 0.000000 0.000000 0.000000
# 3 0.001654 -0.005815 0.013540 0.000000 0.000000 0.000000
# 4 0.000000 0.000000 0.000000 0.024613 0.000000 0.000000
# 5 0.000000 0.000000 0.000000 0.000000 -0.250111 0.000000
# 6 0.000000 0.000000 0.000000 0.000000 0.000000 -0.016822
#
#
# Mechanical properties :
#
#
# Convention : Reuss Voigt Hill
#
# Bulk Modulus (GPa) = 19.72321 66.60049 43.16185
# Shear Modulus (GPa) = -34.69858 12.39425 -11.15216
#
# Velocity S-wave (km/s) = -4.08130 2.43923 -2.31378
# Velocity P-wave (km/s) = 3.56948 6.31700 3.68533
#
# Compressibility (1/GPa) = 0.05070167
#
# Stress axis : x y z
#
# Youngs Moduli (GPa) = 21.99011 142.93627 73.85449
#
# Poissons Ratio (x) = 0.49936 -0.12216
# Poissons Ratio (y) = 0.07682 0.42949
# Poissons Ratio (z) = -0.03637 0.83122
#
# Static dielectric constant tensor:
#      x y z
#    x 1.728590 0.000000 0.000000 
#    y 0.000000 1.870090 0.000000 
#    z 0.000000 0.000000 1.692460 
# 
# From -- ./inp_files/5716.got.cif
#   From: 2010.05.17/outbox.cif.g08.bks.cpg/sg46_3_cif.got.tgz:5716.got - 2010.06.03 19:58:25.
