data_PCOD9378827
_publ_section_title
;
Structure prediction by ZEFSAII (Michael W. Deem and Ramdas Pophale) SiO2 
 PCOD9378827
Probable space group: I M A 2
;
_chemical_formula_sum "Si O2"
_cell_formula_units_Z 64
_cell_length_a 8.591514
_cell_length_b 21.184919
_cell_length_c 20.201827
_cell_angle_alpha 90.000000
_cell_angle_beta 90.000000
_cell_angle_gamma 90.000000
_cell_volume 3676.945202
_symmetry_space_group_name_H-M "I M A 2"
_symmetry_group_IT_number 46
_symmetry_cell_setting 'orthorhombic'
loop_
_space_group_symop_operation_xyz
x,y,z
-x,-y,z
1/2-x,y,z
1/2+x,-y,z
1/2+x,1/2+y,1/2+z
1/2-x,1/2-y,1/2+z
-x,1/2+y,1/2+z
x,1/2-y,1/2+z
loop_
_atom_site_type_symbol
_atom_site_label
_atom_site_fract_x
_atom_site_fract_y
_atom_site_fract_z
Si Si1 0.563251 0.433219 0.302280
Si Si2 0.061460 0.810423 0.720176
Si Si3 0.563226 0.116827 0.078787
Si Si4 0.061548 0.735489 0.080484
Si Si5 0.936601 0.689193 0.799083
Si Si6 0.562597 0.236307 0.433404
Si Si7 0.563543 0.566927 0.715193
Si Si8 0.564192 0.879198 0.936238
O O1 0.500000 0.500000 0.277876
O O2 0.750000 0.434193 0.304808
O O3 0.513132 0.374718 0.256106
O O4 0.498083 0.420216 0.375581
O O5 0.250000 0.808249 0.721405
O O6 0.007984 0.803333 0.644138
O O7 0.000707 0.749976 0.760085
O O8 0.750000 0.113006 0.076598
O O9 0.518247 0.190759 0.088584
O O10 0.499446 0.079180 0.141245
O O11 0.495348 0.097574 0.007701
O O12 0.250000 0.733783 0.080592
O O13 0.012456 0.714873 0.007060
O O14 0.750000 0.691669 0.799101
O O15 0.986381 0.625630 0.761189
O O16 0.997717 0.694953 0.873770
O O17 0.750000 0.237848 0.430279
O O18 0.502476 0.308257 0.426225
O O19 0.500000 0.500000 0.739411
O O20 0.750000 0.565609 0.713373
O O21 0.750000 0.877201 0.935621
#
# Coordination Sequence:
#
# PCOD9378827 Si02
#       8
#     8   8   8   8   8   8   8   8
#     4  11  23  37  55  79 110 148 189 228 275 333
#     4  10  19  35  59  82 106 142 184 225 274 330
#     4  10  19  34  56  80 110 147 186 223 270 332
#     4   8  16  31  54  83 108 136 178 224 265 321
#     4  11  22  35  55  84 113 142 183 232 280 327
#     4  10  19  33  55  83 112 145 185 224 274 331
#     4  11  24  39  55  80 112 148 189 231 280 334
#     4  11  21  34  53  79 114 148 184 230 274 322
#
# _framework density 17.405753000000001
#
# number of rings (size 3 to 8) (size 9 to 14) (size 15 to 20)
#    0.000    1.750    2.500    3.750    0.000    2.500 
#    0.000    3.125    0.000    0.750    0.000    3.500 
#    0.000    0.000    0.000    0.000    0.000    0.000 
#
# Total GULP energy -178688.543698 kJ/mol
# GULP energy per Si atom -5584.016991 kJ/mol
# Density = 1.736614 g / cm^3
# Si number density = 17.405753 Si / 1000 Ang^3
#
#
#
# Elastic Constant Matrix: (Units=GPa)
#
#
# Indices 1 2 3 4 5 6 
#
# 1 49.3827 32.8525 25.0412 0.0000 0.0000 0.0000
# 2 32.8525 119.7277 71.8417 0.0000 0.0000 0.0000
# 3 25.0412 71.8417 128.9433 0.0000 0.0000 0.0000
# 4 0.0000 0.0000 0.0000 23.1826 0.0000 0.0000
# 5 0.0000 0.0000 0.0000 0.0000 8.5827 0.0000
# 6 0.0000 0.0000 0.0000 0.0000 0.0000 22.8050
#
#
#
# Elastic Compliance Matrix: (Units=1/GPa)
#
#
# Indices 1 2 3 4 5 6 
#
# 1 0.024977 -0.005923 -0.001550 0.000000 0.000000 0.000000
# 2 -0.005923 0.013952 -0.006623 0.000000 0.000000 0.000000
# 3 -0.001550 -0.006623 0.011746 0.000000 0.000000 0.000000
# 4 0.000000 0.000000 0.000000 0.043136 0.000000 0.000000
# 5 0.000000 0.000000 0.000000 0.000000 0.116514 0.000000
# 6 0.000000 0.000000 0.000000 0.000000 0.000000 0.043850
#
#
# Mechanical properties :
#
#
# Convention : Reuss Voigt Hill
#
# Bulk Modulus (GPa) = 44.48061 61.94717 53.21389
# Shear Modulus (GPa) = 17.24965 22.13528 19.69246
#
# Velocity S-wave (km/s) = 3.15148 3.56999 3.36724
# Velocity P-wave (km/s) = 6.23322 7.25675 6.76437
#
# Compressibility (1/GPa) = 0.02248171
#
# Stress axis : x y z
#
# Youngs Moduli (GPa) = 40.03744 71.67643 85.13192
#
# Poissons Ratio (x) = 0.42455 0.13199
# Poissons Ratio (y) = 0.23715 0.56382
# Poissons Ratio (z) = 0.06208 0.47471
#
# Static dielectric constant tensor:
#      x y z
#    x 1.585270 0.000000 0.000000 
#    y 0.000000 1.584340 0.000000 
#    z 0.000000 0.000000 1.604560 
# 
# From -- ./inp_files/21467.got.cif
#   From: 2010.05.17/outbox.cif.g08.bks.cpg/sg46_11_cif.got.tgz:21467.got - 2010.06.03 19:58:25.
