data_PCOD9378058
_publ_section_title
;
Structure prediction by ZEFSAII (Michael W. Deem and Ramdas Pophale) SiO2 
 PCOD9378058
Probable space group: I M A 2
;
_chemical_formula_sum "Si O2"
_cell_formula_units_Z 64
_cell_length_a 8.628511
_cell_length_b 15.276835
_cell_length_c 28.106871
_cell_angle_alpha 90.000000
_cell_angle_beta 90.000000
_cell_angle_gamma 90.000000
_cell_volume 3704.944832
_symmetry_space_group_name_H-M "I M A 2"
_symmetry_group_IT_number 46
_symmetry_cell_setting 'orthorhombic'
loop_
_space_group_symop_operation_xyz
x,y,z
-x,-y,z
1/2-x,y,z
1/2+x,-y,z
1/2+x,1/2+y,1/2+z
1/2-x,1/2-y,1/2+z
-x,1/2+y,1/2+z
x,1/2-y,1/2+z
loop_
_atom_site_type_symbol
_atom_site_label
_atom_site_fract_x
_atom_site_fract_y
_atom_site_fract_z
Si Si1 0.564216 0.094349 0.978200
Si Si2 0.561116 0.723138 0.669128
Si Si3 0.935553 0.220884 0.441260
Si Si4 0.064389 0.095287 0.361588
Si Si5 0.563527 0.905832 0.632599
Si Si6 0.936321 0.905430 0.084268
Si Si7 0.937101 0.905005 0.251627
Si Si8 0.064008 0.404508 0.021605
O O1 0.750000 0.089527 0.980220
O O2 0.518354 0.177439 0.946321
O O3 0.500000 0.000000 0.962684
O O4 0.501769 0.110818 0.031622
O O5 0.750000 0.724592 0.670143
O O6 0.508580 0.822888 0.663008
O O7 0.517727 0.667842 0.622290
O O8 0.509327 0.670312 0.715636
O O9 0.750000 0.216421 0.439925
O O10 0.002863 0.170374 0.396002
O O11 0.994869 0.168992 0.487637
O O12 0.250000 0.092508 0.364005
O O13 0.016917 0.109853 0.306546
O O14 0.000000 0.000000 0.376210
O O15 0.750000 0.908987 0.634335
O O16 0.521175 0.890978 0.577020
O O17 0.500000 0.000000 0.647382
O O18 0.750000 0.908628 0.081772
O O19 0.000000 0.000000 0.099833
O O20 0.750000 0.908180 0.250043
O O21 0.000000 0.000000 0.236863
O O22 0.250000 0.404066 0.017747
O O23 0.000000 0.500000 0.007515
#
# Coordination Sequence:
#
# PCOD9378058 Si02
#       8
#     8   8   8   8   8   8   8   8
#     4  10  21  35  50  69  96 129 163 201 240 279
#     4   9  17  30  49  71  96 127 161 194 233 282
#     4  11  22  34  50  72  97 126 161 201 242 285
#     4  10  20  34  53  75  99 127 157 193 239 289
#     4   9  18  32  48  67  94 128 163 199 235 273
#     4  10  18  29  47  71 100 131 160 192 232 280
#     4   9  18  33  52  74  99 126 155 190 234 283
#     4  10  19  31  48  71 100 132 164 198 237 283
#
# _framework density 17.274211000000001
#
# number of rings (size 3 to 8) (size 9 to 14) (size 15 to 20)
#    0.000    2.250    0.000    4.125    0.000    4.000 
#    0.000    2.500    0.000    0.750    0.000    3.500 
#    0.000    0.000    0.000    0.000    0.000    0.000 
#
# Total GULP energy -178601.232375 kJ/mol
# GULP energy per Si atom -5581.288512 kJ/mol
# Density = 1.723489 g / cm^3
# Si number density = 17.274211 Si / 1000 Ang^3
#
#
#
# Elastic Constant Matrix: (Units=GPa)
#
#
# Indices 1 2 3 4 5 6 
#
# 1 32.3712 35.8626 22.9881 0.0000 0.0000 0.0000
# 2 35.8626 178.5648 89.2505 0.0000 0.0000 0.0000
# 3 22.9881 89.2505 74.9044 0.0000 0.0000 0.0000
# 4 0.0000 0.0000 0.0000 32.7349 0.0000 0.0000
# 5 0.0000 0.0000 0.0000 0.0000 11.9376 0.0000
# 6 0.0000 0.0000 0.0000 0.0000 0.0000 26.4963
#
#
#
# Elastic Compliance Matrix: (Units=1/GPa)
#
#
# Indices 1 2 3 4 5 6 
#
# 1 0.041114 -0.004823 -0.006872 0.000000 0.000000 0.000000
# 2 -0.004823 0.014412 -0.015692 0.000000 0.000000 0.000000
# 3 -0.006872 -0.015692 0.034157 0.000000 0.000000 0.000000
# 4 0.000000 0.000000 0.000000 0.030548 0.000000 0.000000
# 5 0.000000 0.000000 0.000000 0.000000 0.083769 0.000000
# 6 0.000000 0.000000 0.000000 0.000000 0.000000 0.037741
#
#
# Mechanical properties :
#
#
# Convention : Reuss Voigt Hill
#
# Bulk Modulus (GPa) = 28.64484 64.67142 46.65813
# Shear Modulus (GPa) = 16.22575 23.41639 19.82107
#
# Velocity S-wave (km/s) = 3.06813 3.68580 3.39106
# Velocity P-wave (km/s) = 5.40090 7.45875 6.51163
#
# Compressibility (1/GPa) = 0.03491031
#
# Stress axis : x y z
#
# Youngs Moduli (GPa) = 24.32237 69.38568 29.27648
#
# Poissons Ratio (x) = 0.33463 0.20117
# Poissons Ratio (y) = 0.11730 0.45942
# Poissons Ratio (z) = 0.16713 1.08883
#
# Static dielectric constant tensor:
#      x y z
#    x 1.585290 0.000000 0.000000 
#    y 0.000000 1.578220 0.000000 
#    z 0.000000 0.000000 1.578780 
# 
# From -- ./inp_files/25302.got.cif
#   From: 2010.05.17/outbox.cif.g08.bks.cpg/sg46_13_cif.got.tgz:25302.got - 2010.06.03 19:58:25.
