data_PCOD9378035
_publ_section_title
;
Structure prediction by ZEFSAII (Michael W. Deem and Ramdas Pophale) SiO2 
 PCOD9378035
Probable space group: I M A 2
;
_chemical_formula_sum "Si O2"
_cell_formula_units_Z 64
_cell_length_a 8.997125
_cell_length_b 26.957146
_cell_length_c 18.771540
_cell_angle_alpha 90.000000
_cell_angle_beta 90.000000
_cell_angle_gamma 90.000000
_cell_volume 4552.789472
_symmetry_space_group_name_H-M "I M A 2"
_symmetry_group_IT_number 46
_symmetry_cell_setting 'orthorhombic'
loop_
_space_group_symop_operation_xyz
x,y,z
-x,-y,z
1/2-x,y,z
1/2+x,-y,z
1/2+x,1/2+y,1/2+z
1/2-x,1/2-y,1/2+z
-x,1/2+y,1/2+z
x,1/2-y,1/2+z
loop_
_atom_site_type_symbol
_atom_site_label
_atom_site_fract_x
_atom_site_fract_y
_atom_site_fract_z
Si Si1 0.572589 0.053010 0.232380
Si Si2 0.072893 0.552803 0.564859
Si Si3 0.424721 0.290942 0.363028
Si Si4 0.424943 0.244559 0.220336
Si Si5 0.073331 0.144681 0.312329
Si Si6 0.925269 0.198443 0.436292
Si Si7 0.074328 0.353406 0.493898
Si Si8 0.072629 0.741901 0.569313
O O1 0.750000 0.050452 0.240753
O O2 0.540195 0.062884 0.148602
O O3 0.505528 0.097152 0.278901
O O4 0.500000 0.000000 0.250136
O O5 0.250000 0.550064 0.556828
O O6 0.000000 0.500000 0.547035
O O7 0.006415 0.597084 0.518554
O O8 0.250000 0.275538 0.373448
O O9 0.449630 0.287941 0.278726
O O10 0.531386 0.249866 0.397217
O O11 0.445504 0.339816 0.410273
O O12 0.250000 0.243929 0.201498
O O13 0.457085 0.192851 0.262005
O O14 0.520853 0.249308 0.149819
O O15 0.250000 0.137867 0.313778
O O16 0.013660 0.157756 0.391111
O O17 0.750000 0.188939 0.430867
O O18 0.964066 0.211244 0.518089
O O19 0.250000 0.357204 0.508144
O O20 0.008809 0.306697 0.537759
O O21 0.250000 0.734163 0.565046
#
# Coordination Sequence:
#
# PCOD9378035 Si02
#       8
#     8   8   8   8   8   8   8   8
#     4  10  20  32  45  61  83 110 140 175 210 243
#     4  10  20  32  45  62  84 110 141 175 209 244
#     4   8  16  29  42  58  80 107 139 172 206 245
#     4   9  17  28  42  60  83 111 141 172 206 246
#     4  10  19  30  44  61  82 110 143 174 207 248
#     4   9  17  28  41  58  81 108 138 172 207 243
#     4  10  18  29  45  61  81 111 143 174 209 247
#     4  10  19  28  40  61  86 111 141 174 207 246
#
# _framework density 14.057316999999999
#
# number of rings (size 3 to 8) (size 9 to 14) (size 15 to 20)
#    0.000    2.500    0.000    3.750    0.000    8.000 
#    0.000    0.000    0.000    0.000    0.000    0.000 
#    0.000    1.000    0.000    7.750    0.000    4.750 
#
# Total GULP energy -178275.757748 kJ/mol
# GULP energy per Si atom -5571.117430 kJ/mol
# Density = 1.402532 g / cm^3
# Si number density = 14.057317 Si / 1000 Ang^3
#
#
#
# Elastic Constant Matrix: (Units=GPa)
#
#
# Indices 1 2 3 4 5 6 
#
# 1 55.3295 44.1368 44.0002 0.0000 0.0000 0.0000
# 2 44.1368 86.9853 50.8308 0.0000 0.0000 0.0000
# 3 44.0002 50.8308 85.8304 -0.0001 0.0000 0.0000
# 4 0.0000 0.0000 -0.0001 24.2107 0.0000 0.0000
# 5 0.0000 0.0000 0.0000 0.0000 21.3809 0.0000
# 6 0.0000 0.0000 0.0000 0.0000 0.0000 23.9045
#
#
#
# Elastic Compliance Matrix: (Units=1/GPa)
#
#
# Indices 1 2 3 4 5 6 
#
# 1 0.037000 -0.011760 -0.012003 0.000000 0.000000 0.000000
# 2 -0.011760 0.021318 -0.006596 0.000000 0.000000 0.000000
# 3 -0.012003 -0.006596 0.021711 0.000000 0.000000 0.000000
# 4 0.000000 0.000000 0.000000 0.041304 0.000000 0.000000
# 5 0.000000 0.000000 0.000000 0.000000 0.046771 0.000000
# 6 0.000000 0.000000 0.000000 0.000000 0.000000 0.041833
#
#
# Mechanical properties :
#
#
# Convention : Reuss Voigt Hill
#
# Bulk Modulus (GPa) = 51.78739 56.23119 54.00929
# Shear Modulus (GPa) = 18.04458 19.84438 18.94448
#
# Velocity S-wave (km/s) = 3.58668 3.76130 3.67503
# Velocity P-wave (km/s) = 7.35340 7.67798 7.51745
#
# Compressibility (1/GPa) = 0.01930972
#
# Stress axis : x y z
#
# Youngs Moduli (GPa) = 27.02717 46.90924 46.06001
#
# Poissons Ratio (x) = 0.55164 0.55287
# Poissons Ratio (y) = 0.31783 0.30383
# Poissons Ratio (z) = 0.32442 0.30943
#
# Static dielectric constant tensor:
#      x y z
#    x 1.469350 0.000000 0.000000 
#    y 0.000000 1.439930 0.000000 
#    z 0.000000 0.000000 1.476340 
# 
# From -- ./inp_files/18636.got.cif
#   From: 2010.05.17/outbox.cif.g08.bks.cpg/sg46_10_cif.got.tgz:18636.got - 2010.06.03 19:58:25.
