data_PCOD9378507
_publ_section_title
;
Structure prediction by ZEFSAII (Michael W. Deem and Ramdas Pophale) SiO2 
 PCOD9378507
Probable space group: I M A 2
;
_chemical_formula_sum "Si O2"
_cell_formula_units_Z 56
_cell_length_a 8.815471
_cell_length_b 22.666831
_cell_length_c 18.441008
_cell_angle_alpha 90.000000
_cell_angle_beta 90.000000
_cell_angle_gamma 90.000000
_cell_volume 3684.859930
_symmetry_space_group_name_H-M "I M A 2"
_symmetry_group_IT_number 46
_symmetry_cell_setting 'orthorhombic'
loop_
_space_group_symop_operation_xyz
x,y,z
-x,-y,z
1/2-x,y,z
1/2+x,-y,z
1/2+x,1/2+y,1/2+z
1/2-x,1/2-y,1/2+z
-x,1/2+y,1/2+z
x,1/2-y,1/2+z
loop_
_atom_site_type_symbol
_atom_site_label
_atom_site_fract_x
_atom_site_fract_y
_atom_site_fract_z
Si Si1 0.568105 0.811586 0.072220
Si Si2 0.931692 0.183555 0.609007
Si Si3 0.431813 0.149593 0.464262
Si Si4 0.431239 0.283181 0.416287
Si Si5 0.432498 0.651712 0.713049
Si Si6 0.431986 0.934934 0.343609
Si Si7 0.432010 0.783691 0.763337
O O1 0.750000 0.804022 0.077358
O O2 0.485810 0.750002 0.091025
O O3 0.510251 0.854986 0.134715
O O4 0.530678 0.821721 0.987633
O O5 0.750000 0.179638 0.603184
O O6 0.975897 0.176866 0.693541
O O7 0.008481 0.144822 0.546657
O O8 0.250000 0.146254 0.463587
O O9 0.475680 0.215173 0.434859
O O10 0.503043 0.101484 0.411496
O O11 0.250000 0.283525 0.408470
O O12 0.503561 0.301638 0.340726
O O13 0.250000 0.653062 0.703855
O O14 0.472026 0.601759 0.771008
O O15 0.478874 0.715726 0.746024
O O16 0.250000 0.937155 0.348545
O O17 0.500000 0.000000 0.341500
O O18 0.250000 0.783559 0.766904
#
# Coordination Sequence:
#
# PCOD9378507 Si02
#       7
#     8   8   8   8   8   8   8
#     4   9  17  27  40  61  85 113 148 182 218 264
#     4   9  17  28  41  60  85 115 148 181 218 263
#     4  10  19  31  45  63  85 115 151 186 227 267
#     4   9  17  26  39  62  89 115 145 178 215 260
#     4   9  18  31  44  60  83 114 149 184 224 265
#     4  11  22  35  49  66  88 116 154 194 230 268
#     4   9  16  26  41  62  86 115 149 178 214 261
#
# _framework density 15.197322
#
# number of rings (size 3 to 8) (size 9 to 14) (size 15 to 20)
#    0.000    2.571    1.429    3.429    0.000    6.857 
#    0.000    0.000    0.000    0.000    0.000    0.000 
#    0.000    1.143    0.000   10.286    0.000    7.714 
#
# Total GULP energy -155911.628162 kJ/mol
# GULP energy per Si atom -5568.272434 kJ/mol
# Density = 1.516273 g / cm^3
# Si number density = 15.197322 Si / 1000 Ang^3
#
#
#
# Elastic Constant Matrix: (Units=GPa)
#
#
# Indices 1 2 3 4 5 6 
#
# 1 35.1208 23.1408 47.3893 0.0000 0.0000 0.0000
# 2 23.1408 48.4755 47.0318 0.0000 0.0000 0.0000
# 3 47.3893 47.0318 177.5562 0.0000 0.0000 0.0000
# 4 0.0000 0.0000 0.0000 12.3139 0.0000 0.0000
# 5 0.0000 0.0000 0.0000 0.0000 33.4256 0.0000
# 6 0.0000 0.0000 0.0000 0.0000 0.0000 15.8531
#
#
#
# Elastic Compliance Matrix: (Units=1/GPa)
#
#
# Indices 1 2 3 4 5 6 
#
# 1 0.051653 -0.015184 -0.009764 0.000000 0.000000 0.000000
# 2 -0.015184 0.032228 -0.004484 0.000000 0.000000 0.000000
# 3 -0.009764 -0.004484 0.009426 0.000000 0.000000 0.000000
# 4 0.000000 0.000000 0.000000 0.081209 0.000000 0.000000
# 5 0.000000 0.000000 0.000000 0.000000 0.029917 0.000000
# 6 0.000000 0.000000 0.000000 0.000000 0.000000 0.063079
#
#
# Mechanical properties :
#
#
# Convention : Reuss Voigt Hill
#
# Bulk Modulus (GPa) = 29.03448 55.14185 42.08816
# Shear Modulus (GPa) = 14.79915 21.89121 18.34518
#
# Velocity S-wave (km/s) = 3.12396 3.79946 3.47815
# Velocity P-wave (km/s) = 5.67086 7.45725 6.62455
#
# Compressibility (1/GPa) = 0.03444181
#
# Stress axis : x y z
#
# Youngs Moduli (GPa) = 19.36009 31.02880 106.09275
#
# Poissons Ratio (x) = 0.47116 1.03587
# Poissons Ratio (y) = 0.29397 0.47572
# Poissons Ratio (z) = 0.18903 0.13913
#
# Static dielectric constant tensor:
#      x y z
#    x 1.507830 0.000000 0.000000 
#    y 0.000000 1.474040 0.000000 
#    z 0.000000 0.000000 1.550510 
# 
# From -- ./inp_files/18435.got.cif
#   From: 2010.05.17/outbox.cif.g08.bks.cpg/sg46_10_cif.got.tgz:18435.got - 2010.06.03 19:58:25.
