data_PCOD9378428
_publ_section_title
;
Structure prediction by ZEFSAII (Michael W. Deem and Ramdas Pophale) SiO2 
 PCOD9378428
Probable space group: I M A 2
;
_chemical_formula_sum "Si O2"
_cell_formula_units_Z 36
_cell_length_a 7.621062
_cell_length_b 7.127882
_cell_length_c 25.075681
_cell_angle_alpha 90.000000
_cell_angle_beta 90.000000
_cell_angle_gamma 90.000000
_cell_volume 1362.161912
_symmetry_space_group_name_H-M "I M A 2"
_symmetry_group_IT_number 46
_symmetry_cell_setting 'orthorhombic'
loop_
_space_group_symop_operation_xyz
x,y,z
-x,-y,z
1/2-x,y,z
1/2+x,-y,z
1/2+x,1/2+y,1/2+z
1/2-x,1/2-y,1/2+z
-x,1/2+y,1/2+z
x,1/2-y,1/2+z
loop_
_atom_site_type_symbol
_atom_site_label
_atom_site_fract_x
_atom_site_fract_y
_atom_site_fract_z
Si Si1 0.750000 0.351419 0.534490
Si Si2 0.943894 0.706851 0.968333
Si Si3 0.537456 0.724830 0.121368
Si Si4 0.457384 0.278424 0.239843
Si Si5 0.549688 0.280417 0.355729
O O1 0.402373 0.662431 0.487982
O O2 0.907111 0.320110 0.579652
O O3 0.750000 0.755082 0.989394
O O4 0.000000 0.500000 0.988223
O O5 0.939122 0.699454 0.904329
O O6 0.500000 0.500000 0.117838
O O7 0.250000 0.246941 0.113371
O O8 0.486658 0.787656 0.181413
O O9 0.500000 0.500000 0.239203
O O10 0.250000 0.255156 0.242803
O O11 0.530891 0.205382 0.295648
O O12 0.500000 0.500000 0.353262
O O13 0.750000 0.257637 0.371251
#
# Coordination Sequence:
#
# PCOD9378428 Si02
#       5
#     4   8   8   8   8
#     4  12  22  34  50  76 112 158 184 232 272 342
#     4  12  24  39  56  83 119 151 193 234 278 336
#     4  10  19  28  47  75 107 144 184 222 284 336
#     4   9  17  29  47  77 108 140 176 229 283 337
#     4  11  21  37  59  84 115 150 189 235 287 337
#
# _framework density 26.428577000000001
#
# number of rings (size 3 to 8) (size 9 to 14) (size 15 to 20)
#    0.000    1.333    3.333    5.333    3.111    0.000 
#    0.000    0.000    0.000    0.000    0.000    1.556 
#    6.667    0.000    0.000    0.000    0.000    0.000 
#
# Total GULP energy -100331.373693 kJ/mol
# GULP energy per Si atom -5573.965205 kJ/mol
# Density = 2.636842 g / cm^3
# Si number density = 26.428577 Si / 1000 Ang^3
#
#
#
# Elastic Constant Matrix: (Units=GPa)
#
#
# Indices 1 2 3 4 5 6 
#
# 1 236.0062 18.4254 57.8598 0.0000 0.0000 0.0000
# 2 18.4254 107.7387 -10.8139 0.0000 0.0000 0.0000
# 3 57.8598 -10.8139 238.9124 0.0000 0.0000 0.0000
# 4 0.0000 0.0000 0.0000 26.1999 0.0000 0.0000
# 5 0.0000 0.0000 0.0000 0.0000 56.0065 0.0000
# 6 0.0000 0.0000 0.0000 0.0000 0.0000 17.6162
#
#
#
# Elastic Compliance Matrix: (Units=1/GPa)
#
#
# Indices 1 2 3 4 5 6 
#
# 1 0.004590 -0.000901 -0.001152 0.000000 0.000000 0.000000
# 2 -0.000901 0.009501 0.000648 0.000000 0.000000 0.000000
# 3 -0.001152 0.000648 0.004494 0.000000 0.000000 0.000000
# 4 0.000000 0.000000 0.000000 0.038168 0.000000 0.000000
# 5 0.000000 0.000000 0.000000 0.000000 0.017855 0.000000
# 6 0.000000 0.000000 0.000000 0.000000 0.000000 0.056766
#
#
# Mechanical properties :
#
#
# Convention : Reuss Voigt Hill
#
# Bulk Modulus (GPa) = 63.39093 79.28889 71.33991
# Shear Modulus (GPa) = 35.85716 54.44358 45.15037
#
# Velocity S-wave (km/s) = 3.68741 4.54368 4.13775
# Velocity P-wave (km/s) = 6.49363 7.58900 7.06258
#
# Compressibility (1/GPa) = 0.01577513
#
# Stress axis : x y z
#
# Youngs Moduli (GPa) = 217.86438 105.25430 222.51623
#
# Poissons Ratio (x) = 0.09480 0.25642
# Poissons Ratio (y) = 0.19622 -0.14422
# Poissons Ratio (z) = 0.25106 -0.06822
#
# Static dielectric constant tensor:
#      x y z
#    x 1.983330 0.000000 0.000000 
#    y 0.000000 2.122820 0.000000 
#    z 0.000000 0.000000 2.065560 
# 
# From -- ./inp_files/24025.got.cif
#   From: 2010.05.17/outbox.cif.g08.bks.cpg/sg46_13_cif.got.tgz:24025.got - 2010.06.03 19:58:25.
