data_PCOD9378448
_publ_section_title
;
Structure prediction by ZEFSAII (Michael W. Deem and Ramdas Pophale) SiO2 
 PCOD9378448
Probable space group: I M A 2
;
_chemical_formula_sum "Si O2"
_cell_formula_units_Z 64
_cell_length_a 7.973330
_cell_length_b 31.603459
_cell_length_c 15.034696
_cell_angle_alpha 90.000000
_cell_angle_beta 90.000000
_cell_angle_gamma 90.000000
_cell_volume 3788.514981
_symmetry_space_group_name_H-M "I M A 2"
_symmetry_group_IT_number 46
_symmetry_cell_setting 'orthorhombic'
loop_
_space_group_symop_operation_xyz
x,y,z
-x,-y,z
1/2-x,y,z
1/2+x,-y,z
1/2+x,1/2+y,1/2+z
1/2-x,1/2-y,1/2+z
-x,1/2+y,1/2+z
x,1/2-y,1/2+z
loop_
_atom_site_type_symbol
_atom_site_label
_atom_site_fract_x
_atom_site_fract_y
_atom_site_fract_z
Si Si1 0.943867 0.631123 0.015860
Si Si2 0.544163 0.790148 0.628355
Si Si3 0.452129 0.866971 0.150946
Si Si4 0.950152 0.547877 0.932662
Si Si5 0.953601 0.729477 0.327894
Si Si6 0.947853 0.173439 0.338449
Si Si7 0.450513 0.206151 0.020443
Si Si8 0.050425 0.547604 0.726874
O O1 0.750000 0.625287 0.043008
O O2 0.016669 0.666630 0.081732
O O3 0.019051 0.584584 0.997532
O O4 0.952660 0.652793 0.919077
O O5 0.750000 0.790116 0.624454
O O6 0.493938 0.787748 0.731557
O O7 0.487552 0.747874 0.574763
O O8 0.250000 0.867447 0.147108
O O9 0.501571 0.844750 0.243551
O O10 0.510348 0.836936 0.071923
O O11 0.513572 0.915230 0.162312
O O12 0.750000 0.550469 0.935134
O O13 0.000000 0.500000 0.955486
O O14 0.000425 0.555678 0.829756
O O15 0.750000 0.730786 0.326937
O O16 0.009105 0.706156 0.418139
O O17 0.020306 0.776897 0.337142
O O18 0.750000 0.164321 0.350771
O O19 0.250000 0.210661 0.018288
O O20 0.250000 0.549425 0.725413
O O21 0.000000 0.500000 0.703309
#
# Coordination Sequence:
#
# PCOD9378448 Si02
#       8
#     8   8   8   8   8   8   8   8
#     4  10  19  32  48  68  92 126 163 190 228 275
#     4   9  17  30  48  68  92 119 156 200 230 265
#     4  10  21  33  45  66  98 128 155 190 234 277
#     4  10  19  29  46  68  94 124 154 191 231 279
#     4  10  19  33  48  66  93 124 159 200 234 266
#     4  11  20  29  44  67  96 127 156 192 229 271
#     4  10  19  30  49  70  89 122 162 196 229 272
#     4  10  19  32  47  67  95 124 154 190 232 278
#
# _framework density 16.893163000000001
#
# number of rings (size 3 to 8) (size 9 to 14) (size 15 to 20)
#    0.000    2.000    3.750    1.875    0.000    2.500 
#    0.000    0.625    0.000    0.000    0.000    0.875 
#    0.000    4.000    0.000    0.000    0.000    0.000 
#
# Total GULP energy -178404.471569 kJ/mol
# GULP energy per Si atom -5575.139737 kJ/mol
# Density = 1.685471 g / cm^3
# Si number density = 16.893163 Si / 1000 Ang^3
#
#
#
# Elastic Constant Matrix: (Units=GPa)
#
#
# Indices 1 2 3 4 5 6 
#
# 1 16.7409 4.8454 7.6117 0.0000 0.0000 0.0000
# 2 4.8454 143.1491 60.2169 0.0001 0.0000 0.0000
# 3 7.6117 60.2169 99.9336 0.0002 0.0000 0.0000
# 4 0.0000 0.0001 0.0002 23.1197 0.0000 0.0000
# 5 0.0000 0.0000 0.0000 0.0000 9.1015 0.0000
# 6 0.0000 0.0000 0.0000 0.0000 0.0000 17.2675
#
#
#
# Elastic Compliance Matrix: (Units=1/GPa)
#
#
# Indices 1 2 3 4 5 6 
#
# 1 0.061879 -0.000150 -0.004623 0.000000 0.000000 0.000000
# 2 -0.000150 0.009358 -0.005627 0.000000 0.000000 0.000000
# 3 -0.004623 -0.005627 0.013750 0.000000 0.000000 0.000000
# 4 0.000000 0.000000 0.000000 0.043253 0.000000 0.000000
# 5 0.000000 0.000000 0.000000 0.000000 0.109872 0.000000
# 6 0.000000 0.000000 0.000000 0.000000 0.000000 0.057912
#
#
# Mechanical properties :
#
#
# Convention : Reuss Voigt Hill
#
# Bulk Modulus (GPa) = 15.57960 45.01908 30.29934
# Shear Modulus (GPa) = 14.78327 22.37439 18.57883
#
# Velocity S-wave (km/s) = 2.96142 3.64327 3.31990
# Velocity P-wave (km/s) = 4.57557 6.66371 5.71580
#
# Compressibility (1/GPa) = 0.06418651
#
# Stress axis : x y z
#
# Youngs Moduli (GPa) = 16.16051 106.86017 72.72900
#
# Poissons Ratio (x) = 0.01601 0.33622
# Poissons Ratio (y) = 0.00242 0.40928
# Poissons Ratio (z) = 0.07471 0.60135
#
# Static dielectric constant tensor:
#      x y z
#    x 1.616810 0.000000 0.000000 
#    y 0.000000 1.606170 0.000000 
#    z 0.000000 0.000000 1.563390 
# 
# From -- ./inp_files/14736.got.cif
#   From: 2010.05.17/outbox.cif.g08.bks.cpg/sg46_8_cif.got.tgz:14736.got - 2010.06.03 19:58:25.
