data_PCOD9378059
_publ_section_title
;
Structure prediction by ZEFSAII (Michael W. Deem and Ramdas Pophale) SiO2 
 PCOD9378059
Probable space group: I M A 2
;
_chemical_formula_sum "Si O2"
_cell_formula_units_Z 64
_cell_length_a 8.600138
_cell_length_b 14.839619
_cell_length_c 28.666316
_cell_angle_alpha 90.000000
_cell_angle_beta 90.000000
_cell_angle_gamma 90.000000
_cell_volume 3658.474690
_symmetry_space_group_name_H-M "I M A 2"
_symmetry_group_IT_number 46
_symmetry_cell_setting 'orthorhombic'
loop_
_space_group_symop_operation_xyz
x,y,z
-x,-y,z
1/2-x,y,z
1/2+x,-y,z
1/2+x,1/2+y,1/2+z
1/2-x,1/2-y,1/2+z
-x,1/2+y,1/2+z
x,1/2-y,1/2+z
loop_
_atom_site_type_symbol
_atom_site_label
_atom_site_fract_x
_atom_site_fract_y
_atom_site_fract_z
Si Si1 0.065891 0.900772 0.710140
Si Si2 0.563598 0.717260 0.400215
Si Si3 0.435571 0.289043 0.125843
Si Si4 0.065701 0.334168 0.024066
Si Si5 0.935233 0.907678 0.088717
Si Si6 0.930734 0.351493 0.492532
Si Si7 0.563732 0.091497 0.434030
Si Si8 0.936264 0.599925 0.311826
O O1 0.250000 0.907349 0.714164
O O2 0.018840 0.831603 0.669888
O O3 0.996941 0.875016 0.760534
O O4 0.000000 0.000000 0.698550
O O5 0.750000 0.727957 0.402256
O O6 0.511784 0.650505 0.442216
O O7 0.487078 0.815260 0.408880
O O8 0.518305 0.671063 0.351607
O O9 0.250000 0.288040 0.134179
O O10 0.461687 0.348459 0.078843
O O11 0.484306 0.186327 0.113155
O O12 0.250000 0.310127 0.019439
O O13 0.956845 0.250946 0.009714
O O14 0.021012 0.404774 0.984690
O O15 0.750000 0.909342 0.089345
O O16 0.000000 0.000000 0.110000
O O17 0.990624 0.903857 0.034961
O O18 0.750000 0.374217 0.488513
O O19 0.750000 0.089253 0.438510
O O20 0.500000 0.000000 0.410665
O O21 0.750000 0.595228 0.310694
O O22 0.000000 0.500000 0.322573
#
# Coordination Sequence:
#
# PCOD9378059 Si02
#       8
#     8   8   8   8   8   8   8   8
#     4  11  22  36  57  80 105 133 166 210 259 313
#     4  10  20  35  54  77 105 138 175 217 261 307
#     4   9  19  35  54  76 105 138 173 214 260 307
#     4   9  17  31  49  70  99 134 172 214 253 295
#     4  10  20  34  52  75 106 143 179 218 257 302
#     4  10  18  29  47  71 101 136 172 211 251 298
#     4  11  21  33  51  75 106 143 179 217 257 306
#     4  10  21  37  58  80 105 133 165 209 260 312
#
# _framework density 17.493628999999999
#
# number of rings (size 3 to 8) (size 9 to 14) (size 15 to 20)
#    0.000    2.000    0.000    7.875    0.000    6.000 
#    0.000    1.250    0.000    0.750    0.000    3.500 
#    0.000    0.000    0.000    0.000    0.000    0.000 
#
# Total GULP energy -178417.079338 kJ/mol
# GULP energy per Si atom -5575.533729 kJ/mol
# Density = 1.745381 g / cm^3
# Si number density = 17.493629 Si / 1000 Ang^3
#
#
#
# Elastic Constant Matrix: (Units=GPa)
#
#
# Indices 1 2 3 4 5 6 
#
# 1 79.9265 31.3295 41.5243 0.0000 0.0000 0.0000
# 2 31.3295 95.8288 69.0453 0.0000 0.0000 0.0000
# 3 41.5243 69.0453 113.3300 0.0000 0.0000 0.0000
# 4 0.0000 0.0000 0.0000 21.2138 0.0000 0.0000
# 5 0.0000 0.0000 0.0000 0.0000 22.3885 0.0000
# 6 0.0000 0.0000 0.0000 0.0000 0.0000 27.7834
#
#
#
# Elastic Compliance Matrix: (Units=1/GPa)
#
#
# Indices 1 2 3 4 5 6 
#
# 1 0.015616 -0.001752 -0.004655 0.000000 0.000000 0.000000
# 2 -0.001752 0.018797 -0.010810 0.000000 0.000000 0.000000
# 3 -0.004655 -0.010810 0.017115 0.000000 0.000000 0.000000
# 4 0.000000 0.000000 0.000000 0.047139 0.000000 0.000000
# 5 0.000000 0.000000 0.000000 0.000000 0.044666 0.000000
# 6 0.000000 0.000000 0.000000 0.000000 0.000000 0.035993
#
#
# Mechanical properties :
#
#
# Convention : Reuss Voigt Hill
#
# Bulk Modulus (GPa) = 58.49473 63.65373 61.07423
# Shear Modulus (GPa) = 22.78358 24.08955 23.43657
#
# Velocity S-wave (km/s) = 3.61278 3.71488 3.66419
# Velocity P-wave (km/s) = 7.13535 7.40718 7.27254
#
# Compressibility (1/GPa) = 0.01709556
#
# Stress axis : x y z
#
# Youngs Moduli (GPa) = 64.03534 53.20137 58.42842
#
# Poissons Ratio (x) = 0.09320 0.27196
# Poissons Ratio (y) = 0.11218 0.63160
# Poissons Ratio (z) = 0.29806 0.57509
#
# Static dielectric constant tensor:
#      x y z
#    x 1.587190 0.000000 0.000000 
#    y 0.000000 1.635990 0.000000 
#    z 0.000000 0.000000 1.594430 
# 
# From -- ./inp_files/25295.got.cif
#   From: 2010.05.17/outbox.cif.g08.bks.cpg/sg46_13_cif.got.tgz:25295.got - 2010.06.03 19:58:25.
