data_PCOD9378292
_publ_section_title
;
Structure prediction by ZEFSAII (Michael W. Deem and Ramdas Pophale) SiO2 
 PCOD9378292
Probable space group: I M A 2
;
_chemical_formula_sum "Si O2"
_cell_formula_units_Z 40
_cell_length_a 12.060327
_cell_length_b 17.246909
_cell_length_c 6.633154
_cell_angle_alpha 90.000000
_cell_angle_beta 90.000000
_cell_angle_gamma 90.000000
_cell_volume 1379.718335
_symmetry_space_group_name_H-M "I M A 2"
_symmetry_group_IT_number 46
_symmetry_cell_setting 'orthorhombic'
loop_
_space_group_symop_operation_xyz
x,y,z
-x,-y,z
1/2-x,y,z
1/2+x,-y,z
1/2+x,1/2+y,1/2+z
1/2-x,1/2-y,1/2+z
-x,1/2+y,1/2+z
x,1/2-y,1/2+z
loop_
_atom_site_type_symbol
_atom_site_label
_atom_site_fract_x
_atom_site_fract_y
_atom_site_fract_z
Si Si1 0.443149 0.257246 0.472800
Si Si2 0.121124 0.963727 0.702183
Si Si3 0.366822 0.947219 0.176315
Si Si4 0.596370 0.880858 0.250814
Si Si5 0.880490 0.221604 0.709631
O O1 0.374287 0.178307 0.425161
O O2 0.382937 0.338082 0.536855
O O3 0.589994 0.262205 0.471413
O O4 0.473941 0.266493 0.220281
O O5 0.250000 0.989232 0.651074
O O6 0.118605 0.871392 0.665892
O O7 0.000000 0.000000 0.636434
O O8 0.116916 0.967644 0.944466
O O9 0.250000 0.908652 0.207167
O O10 0.365957 0.031843 0.274255
O O11 0.463216 0.892344 0.248966
O O12 0.750000 0.241294 0.722907
#
# Coordination Sequence:
#
# PCOD9378292 Si02
#       5
#     8   8   8   8   8
#     4  10  20  33  55  81 115 150 187 250 297 354
#     4  10  18  33  56  82 110 148 194 238 285 352
#     4  10  19  35  59  82 112 152 194 235 289 362
#     4  10  20  37  57  82 112 148 194 237 300 351
#     4  10  19  31  51  81 113 144 185 237 299 351
#
# _framework density 28.991427000000002
#
# number of rings (size 3 to 8) (size 9 to 14) (size 15 to 20)
#    0.000    2.000    4.000    0.600    0.000    4.000 
#    3.600    1.000    0.000    4.800    0.000    0.000 
#    0.000    0.000    0.000    0.000    0.000    0.000 
#
# Total GULP energy -111598.048078 kJ/mol
# GULP energy per Si atom -5579.902404 kJ/mol
# Density = 2.892544 g / cm^3
# Si number density = 28.991427 Si / 1000 Ang^3
#
#
#
# Elastic Constant Matrix: (Units=GPa)
#
#
# Indices 1 2 3 4 5 6 
#
# 1 224.4379 63.0364 58.9061 0.0000 0.0000 0.0000
# 2 63.0364 179.8062 28.5772 0.0000 0.0000 0.0000
# 3 58.9061 28.5772 221.0518 0.0000 0.0000 0.0000
# 4 0.0000 0.0000 0.0000 39.8551 0.0000 0.0000
# 5 0.0000 0.0000 0.0000 0.0000 -23.0769 0.0000
# 6 0.0000 0.0000 0.0000 0.0000 0.0000 -11.1784
#
#
#
# Elastic Compliance Matrix: (Units=1/GPa)
#
#
# Indices 1 2 3 4 5 6 
#
# 1 0.005227 -0.001645 -0.001180 0.000000 0.000000 0.000000
# 2 -0.001645 0.006196 -0.000363 0.000000 0.000000 0.000000
# 3 -0.001180 -0.000363 0.004885 0.000000 0.000000 0.000000
# 4 0.000000 0.000000 0.000000 0.025091 0.000000 0.000000
# 5 0.000000 0.000000 0.000000 0.000000 -0.043333 0.000000
# 6 0.000000 0.000000 0.000000 0.000000 0.000000 -0.089459
#
#
# Mechanical properties :
#
#
# Convention : Reuss Voigt Hill
#
# Bulk Modulus (GPa) = 100.67903 102.92615 101.80259
# Shear Modulus (GPa) = -61.19515 32.77173 -14.21171
#
# Velocity S-wave (km/s) = -4.59933 3.36578 -2.21646
# Velocity P-wave (km/s) = 2.56855 7.11927 5.35170
#
# Compressibility (1/GPa) = 0.00993256
#
# Stress axis : x y z
#
# Youngs Moduli (GPa) = 191.29989 161.39739 204.69813
#
# Poissons Ratio (x) = 0.26550 0.24161
# Poissons Ratio (y) = 0.31469 0.07423
# Poissons Ratio (z) = 0.22580 0.05853
#
# Static dielectric constant tensor:
#      x y z
#    x 2.233850 0.000000 0.000000 
#    y 0.000000 2.061010 0.000000 
#    z 0.000000 0.000000 2.411810 
# 
# From -- ./inp_files/5546.got.cif
#   From: 2010.05.17/outbox.cif.g08.bks.cpg/sg46_3_cif.got.tgz:5546.got - 2010.06.03 19:58:25.
