data_PCOD9378856
_publ_section_title
;
Structure prediction by ZEFSAII (Michael W. Deem and Ramdas Pophale) SiO2 
 PCOD9378856
Probable space group: I M A 2
;
_chemical_formula_sum "Si O2"
_cell_formula_units_Z 48
_cell_length_a 8.455727
_cell_length_b 14.121093
_cell_length_c 19.167232
_cell_angle_alpha 90.000000
_cell_angle_beta 90.000000
_cell_angle_gamma 90.000000
_cell_volume 2288.646227
_symmetry_space_group_name_H-M "I M A 2"
_symmetry_group_IT_number 46
_symmetry_cell_setting 'orthorhombic'
loop_
_space_group_symop_operation_xyz
x,y,z
-x,-y,z
1/2-x,y,z
1/2+x,-y,z
1/2+x,1/2+y,1/2+z
1/2-x,1/2-y,1/2+z
-x,1/2+y,1/2+z
x,1/2-y,1/2+z
loop_
_atom_site_type_symbol
_atom_site_label
_atom_site_fract_x
_atom_site_fract_y
_atom_site_fract_z
Si Si1 0.939249 0.099130 0.109730
Si Si2 0.940723 0.254592 0.375214
Si Si3 0.060941 0.197094 0.621893
Si Si4 0.560669 0.606758 0.268460
Si Si5 0.939324 0.096026 0.268993
Si Si6 0.940091 0.397582 0.989591
O O1 0.750000 0.096858 0.107048
O O2 0.998949 0.098239 0.190092
O O3 0.995357 0.203862 0.090135
O O4 0.000000 0.000000 0.077223
O O5 0.750000 0.262601 0.378633
O O6 0.991119 0.183984 0.313313
O O7 0.990862 0.193899 0.442962
O O8 0.005572 0.352325 0.343827
O O9 0.250000 0.203146 0.623750
O O10 0.004504 0.168261 0.700233
O O11 0.004986 0.118511 0.567197
O O12 0.500000 0.500000 0.259700
O O13 0.750000 0.608061 0.266882
O O14 0.750000 0.095434 0.267092
O O15 0.000000 0.000000 0.302068
O O16 0.750000 0.398796 0.988919
O O17 0.000000 0.500000 0.964116
#
# Coordination Sequence:
#
# PCOD9378856 Si02
#       6
#     8   8   8   8   8   8
#     4  10  19  33  56  86 121 158 198 248 303 358
#     4  10  21  39  60  87 121 157 199 248 304 363
#     4  11  23  40  62  91 126 166 210 256 308 368
#     4  11  24  40  63  91 120 159 206 256 310 367
#     4   9  17  29  50  80 114 150 185 233 287 343
#     4  11  24  41  64  93 126 166 206 251 308 369
#
# _framework density 20.973098
#
# number of rings (size 3 to 8) (size 9 to 14) (size 15 to 20)
#    0.000    1.667    1.667    3.000    0.000    6.000 
#    0.000    0.833    0.000    4.000    0.000    0.000 
#    0.000    0.000    0.000    0.000    0.000    0.000 
#
# Total GULP energy -133768.580747 kJ/mol
# GULP energy per Si atom -5573.690864 kJ/mol
# Density = 2.092536 g / cm^3
# Si number density = 20.973098 Si / 1000 Ang^3
#
#
#
# Elastic Constant Matrix: (Units=GPa)
#
#
# Indices 1 2 3 4 5 6 
#
# 1 33.1458 22.6532 10.7688 0.0000 0.0000 0.0000
# 2 22.6532 127.0800 31.2514 0.0000 0.0000 0.0000
# 3 10.7688 31.2514 80.9752 0.0000 0.0000 0.0000
# 4 0.0000 0.0000 0.0000 25.8736 0.0000 0.0000
# 5 0.0000 0.0000 0.0000 0.0000 18.3051 0.0000
# 6 0.0000 0.0000 0.0000 0.0000 0.0000 39.1634
#
#
#
# Elastic Compliance Matrix: (Units=1/GPa)
#
#
# Indices 1 2 3 4 5 6 
#
# 1 0.034796 -0.005596 -0.002468 0.000000 0.000000 0.000000
# 2 -0.005596 0.009594 -0.002959 0.000000 0.000000 0.000000
# 3 -0.002468 -0.002959 0.013819 0.000000 0.000000 0.000000
# 4 0.000000 0.000000 0.000000 0.038649 0.000000 0.000000
# 5 0.000000 0.000000 0.000000 0.000000 0.054629 0.000000
# 6 0.000000 0.000000 0.000000 0.000000 0.000000 0.025534
#
#
# Mechanical properties :
#
#
# Convention : Reuss Voigt Hill
#
# Bulk Modulus (GPa) = 27.65095 41.17198 34.41146
# Shear Modulus (GPa) = 23.68301 28.43695 26.05998
#
# Velocity S-wave (km/s) = 3.36402 3.68622 3.52880
# Velocity P-wave (km/s) = 5.31991 6.14745 5.74859
#
# Compressibility (1/GPa) = 0.03616513
#
# Stress axis : x y z
#
# Youngs Moduli (GPa) = 28.73900 104.23039 72.36172
#
# Poissons Ratio (x) = 0.58325 0.17858
# Poissons Ratio (y) = 0.16082 0.21409
# Poissons Ratio (z) = 0.07092 0.30837
#
# Static dielectric constant tensor:
#      x y z
#    x 1.710760 0.000000 0.000000 
#    y 0.000000 2.172550 0.000000 
#    z 0.000000 0.000000 1.779520 
# 
# From -- ./inp_files/18188.got.cif
#   From: 2010.05.17/outbox.cif.g08.bks.cpg/sg46_10_cif.got.tgz:18188.got - 2010.06.03 19:58:25.
