data_PCOD9378293
_publ_section_title
;
Structure prediction by ZEFSAII (Michael W. Deem and Ramdas Pophale) SiO2 
 PCOD9378293
Probable space group: I M A 2
;
_chemical_formula_sum "Si O2"
_cell_formula_units_Z 56
_cell_length_a 8.936783
_cell_length_b 15.863526
_cell_length_c 20.036672
_cell_angle_alpha 90.000000
_cell_angle_beta 90.000000
_cell_angle_gamma 90.000000
_cell_volume 2840.576738
_symmetry_space_group_name_H-M "I M A 2"
_symmetry_group_IT_number 46
_symmetry_cell_setting 'orthorhombic'
loop_
_space_group_symop_operation_xyz
x,y,z
-x,-y,z
1/2-x,y,z
1/2+x,-y,z
1/2+x,1/2+y,1/2+z
1/2-x,1/2-y,1/2+z
-x,1/2+y,1/2+z
x,1/2-y,1/2+z
loop_
_atom_site_type_symbol
_atom_site_label
_atom_site_fract_x
_atom_site_fract_y
_atom_site_fract_z
Si Si1 0.927954 0.254337 0.762050
Si Si2 0.068570 0.592372 0.175552
Si Si3 0.420623 0.230260 0.401678
Si Si4 0.577903 0.926060 0.936309
Si Si5 0.079721 0.617432 0.570427
Si Si6 0.923088 0.584045 0.699298
Si Si7 0.576085 0.185101 0.538903
O O1 0.750000 0.255475 0.756515
O O2 0.977200 0.164299 0.729939
O O3 0.976876 0.277539 0.836943
O O4 0.997271 0.330558 0.720720
O O5 0.250000 0.587232 0.177010
O O6 0.026306 0.626469 0.100893
O O7 0.000000 0.500000 0.187359
O O8 0.250000 0.201345 0.389818
O O9 0.417448 0.331618 0.409305
O O10 0.483489 0.188358 0.469749
O O11 0.750000 0.947040 0.952291
O O12 0.500000 0.000000 0.893340
O O13 0.465015 0.916364 0.998391
O O14 0.250000 0.594583 0.590365
O O15 0.072567 0.718846 0.565988
O O16 0.954351 0.584679 0.620388
O O17 0.750000 0.585254 0.715586
O O18 0.000000 0.500000 0.727480
O O19 0.750000 0.165211 0.523709
#
# Coordination Sequence:
#
# PCOD9378293 Si02
#       7
#     8   8   8   8   8   8   8
#     4  11  23  43  64  88 124 165 208 258 314 378
#     4  10  22  40  64  95 128 166 215 264 319 378
#     4  10  22  38  58  86 117 156 206 257 313 374
#     4  10  20  33  50  78 115 151 195 242 294 357
#     4  10  18  33  56  82 116 151 190 237 292 352
#     4  12  24  38  59  87 119 154 194 242 301 363
#     4   9  18  37  61  86 118 158 203 251 305 366
#
# _framework density 19.714305
#
# number of rings (size 3 to 8) (size 9 to 14) (size 15 to 20)
#    0.000    1.714    1.429    3.429    0.000    4.571 
#    0.000    3.571    0.000    1.714    0.000    0.000 
#    0.000    0.000    0.000    0.000    0.000    0.000 
#
# Total GULP energy -156126.289398 kJ/mol
# GULP energy per Si atom -5575.938907 kJ/mol
# Density = 1.966943 g / cm^3
# Si number density = 19.714305 Si / 1000 Ang^3
#
#
#
# Elastic Constant Matrix: (Units=GPa)
#
#
# Indices 1 2 3 4 5 6 
#
# 1 84.0225 24.8536 27.6077 0.0000 0.0000 0.0000
# 2 24.8536 75.2546 14.0758 0.0000 0.0000 0.0000
# 3 27.6077 14.0758 60.1737 0.0000 0.0000 0.0000
# 4 0.0000 0.0000 0.0000 10.4245 0.0000 0.0000
# 5 0.0000 0.0000 0.0000 0.0000 22.4483 0.0000
# 6 0.0000 0.0000 0.0000 0.0000 0.0000 31.5707
#
#
#
# Elastic Compliance Matrix: (Units=1/GPa)
#
#
# Indices 1 2 3 4 5 6 
#
# 1 0.015003 -0.003835 -0.005986 0.000000 0.000000 0.000000
# 2 -0.003835 0.014877 -0.001720 0.000000 0.000000 0.000000
# 3 -0.005986 -0.001720 0.019767 0.000000 0.000000 0.000000
# 4 0.000000 0.000000 0.000000 0.095928 0.000000 0.000000
# 5 0.000000 0.000000 0.000000 0.000000 0.044547 0.000000
# 6 0.000000 0.000000 0.000000 0.000000 0.000000 0.031675
#
#
# Mechanical properties :
#
#
# Convention : Reuss Voigt Hill
#
# Bulk Modulus (GPa) = 37.64567 39.16946 38.40756
# Shear Modulus (GPa) = 19.70563 23.08295 21.39429
#
# Velocity S-wave (km/s) = 3.16501 3.42551 3.29784
# Velocity P-wave (km/s) = 5.70030 5.96299 5.83312
#
# Compressibility (1/GPa) = 0.02656348
#
# Stress axis : x y z
#
# Youngs Moduli (GPa) = 66.65361 67.21958 50.58814
#
# Poissons Ratio (x) = 0.25780 0.30283
# Poissons Ratio (y) = 0.25563 0.08703
# Poissons Ratio (z) = 0.39900 0.11564
#
# Static dielectric constant tensor:
#      x y z
#    x 1.762340 0.000000 0.000000 
#    y 0.000000 1.694600 0.000000 
#    z 0.000000 0.000000 1.749830 
# 
# From -- ./inp_files/21085.got.cif
#   From: 2010.05.17/outbox.cif.g08.bks.cpg/sg46_11_cif.got.tgz:21085.got - 2010.06.03 19:58:25.
