data_PCOD9378959
_publ_section_title
;
Structure prediction by ZEFSAII (Michael W. Deem and Ramdas Pophale) SiO2 
 PCOD9378959
Probable space group: I M A 2
;
_chemical_formula_sum "Si O2"
_cell_formula_units_Z 64
_cell_length_a 8.556678
_cell_length_b 17.941997
_cell_length_c 21.076042
_cell_angle_alpha 90.000000
_cell_angle_beta 90.000000
_cell_angle_gamma 90.000000
_cell_volume 3235.675975
_symmetry_space_group_name_H-M "I M A 2"
_symmetry_group_IT_number 46
_symmetry_cell_setting 'orthorhombic'
loop_
_space_group_symop_operation_xyz
x,y,z
-x,-y,z
1/2-x,y,z
1/2+x,-y,z
1/2+x,1/2+y,1/2+z
1/2-x,1/2-y,1/2+z
-x,1/2+y,1/2+z
x,1/2-y,1/2+z
loop_
_atom_site_type_symbol
_atom_site_label
_atom_site_fract_x
_atom_site_fract_y
_atom_site_fract_z
Si Si1 0.437275 0.705986 0.915740
Si Si2 0.562256 0.625972 0.686544
Si Si3 0.062536 0.421603 0.275181
Si Si4 0.939158 0.626448 0.412792
Si Si5 0.063301 0.922549 0.319702
Si Si6 0.430575 0.203378 0.550582
Si Si7 0.065050 0.793445 0.684896
Si Si8 0.069209 0.385021 0.549326
O O1 0.250000 0.712720 0.914475
O O2 0.510165 0.787520 0.906112
O O3 0.487685 0.647981 0.861797
O O4 0.491636 0.678793 0.985062
O O5 0.750000 0.621455 0.685100
O O6 0.497573 0.585944 0.748204
O O7 0.514159 0.712659 0.692875
O O8 0.500095 0.595906 0.618279
O O9 0.250000 0.420163 0.273266
O O10 0.010276 0.413699 0.348631
O O11 0.000000 0.500000 0.249763
O O12 0.997578 0.352471 0.235403
O O13 0.750000 0.624586 0.416265
O O14 0.000931 0.595334 0.480534
O O15 0.250000 0.923758 0.319058
O O16 0.000000 0.000000 0.346715
O O17 0.250000 0.180277 0.554093
O O18 0.520844 0.180475 0.613864
O O19 0.431428 0.294253 0.549182
O O20 0.250000 0.784541 0.691442
O O21 0.250000 0.410145 0.549565
#
# Coordination Sequence:
#
# PCOD9378959 Si02
#       8
#     8   8   8   8   8   8   8   8
#     4  10  20  34  55  83 110 137 176 226 276 326
#     4  10  19  34  58  84 111 144 183 225 271 325
#     4  11  23  38  55  77 108 147 188 230 278 327
#     4   9  18  34  57  81 107 142 181 219 266 326
#     4  11  24  39  54  76 109 147 187 230 276 327
#     4   9  17  32  55  82 110 139 175 220 271 324
#     4  11  21  35  57  84 113 143 180 225 271 324
#     4   7  13  28  51  79 106 133 169 215 263 315
#
# _framework density 19.779485000000001
#
# number of rings (size 3 to 8) (size 9 to 14) (size 15 to 20)
#    0.000    2.250    0.000    5.250    0.000    5.000 
#    0.000    1.875    0.000    3.000    0.000    0.000 
#    0.000    0.000    0.000    0.000    0.000    0.000 
#
# Total GULP energy -178600.028708 kJ/mol
# GULP energy per Si atom -5581.250897 kJ/mol
# Density = 1.973447 g / cm^3
# Si number density = 19.779485 Si / 1000 Ang^3
#
#
#
# Elastic Constant Matrix: (Units=GPa)
#
#
# Indices 1 2 3 4 5 6 
#
# 1 28.0150 -2.1417 8.9085 0.0000 0.0000 0.0000
# 2 -2.1417 59.3491 26.3395 0.0000 0.0000 0.0000
# 3 8.9085 26.3395 103.1120 0.0000 0.0000 0.0000
# 4 0.0000 0.0000 0.0000 -21.1853 0.0000 0.0000
# 5 0.0000 0.0000 0.0000 0.0000 20.7533 0.0000
# 6 0.0000 0.0000 0.0000 0.0000 0.0000 19.5197
#
#
#
# Elastic Compliance Matrix: (Units=1/GPa)
#
#
# Indices 1 2 3 4 5 6 
#
# 1 0.037210 0.003124 -0.004013 0.000000 0.000000 0.000000
# 2 0.003124 0.019266 -0.005191 0.000000 0.000000 0.000000
# 3 -0.004013 -0.005191 0.011371 0.000000 0.000000 0.000000
# 4 0.000000 0.000000 0.000000 -0.047203 0.000000 0.000000
# 5 0.000000 0.000000 0.000000 0.000000 0.048185 0.000000
# 6 0.000000 0.000000 0.000000 0.000000 0.000000 0.051230
#
#
# Mechanical properties :
#
#
# Convention : Reuss Voigt Hill
#
# Bulk Modulus (GPa) = 17.95774 28.52096 23.23935
# Shear Modulus (GPa) = 33.16032 14.30888 23.73460
#
# Velocity S-wave (km/s) = 4.09895 2.69256 3.46780
# Velocity P-wave (km/s) = 5.61254 4.91094 5.27342
#
# Compressibility (1/GPa) = 0.05568629
#
# Stress axis : x y z
#
# Youngs Moduli (GPa) = 26.87455 51.90457 87.94317
#
# Poissons Ratio (x) = -0.16213 0.35289
# Poissons Ratio (y) = -0.08395 0.45654
# Poissons Ratio (z) = 0.10784 0.26945
#
# Static dielectric constant tensor:
#      x y z
#    x 1.664960 0.000000 0.000000 
#    y 0.000000 1.565980 0.000000 
#    z 0.000000 0.000000 1.737250 
# 
# From -- ./inp_files/21303.got.cif
#   From: 2010.05.17/outbox.cif.g08.bks.cpg/sg46_11_cif.got.tgz:21303.got - 2010.06.03 19:58:25.
