data_PCOD9378516
_publ_section_title
;
Structure prediction by ZEFSAII (Michael W. Deem and Ramdas Pophale) SiO2 
 PCOD9378516
Probable space group: I M A 2
;
_chemical_formula_sum "Si O2"
_cell_formula_units_Z 64
_cell_length_a 11.301130
_cell_length_b 17.806339
_cell_length_c 12.164266
_cell_angle_alpha 90.000000
_cell_angle_beta 90.000000
_cell_angle_gamma 90.000000
_cell_volume 2447.836557
_symmetry_space_group_name_H-M "I M A 2"
_symmetry_group_IT_number 46
_symmetry_cell_setting 'orthorhombic'
loop_
_space_group_symop_operation_xyz
x,y,z
-x,-y,z
1/2-x,y,z
1/2+x,-y,z
1/2+x,1/2+y,1/2+z
1/2-x,1/2-y,1/2+z
-x,1/2+y,1/2+z
x,1/2-y,1/2+z
loop_
_atom_site_type_symbol
_atom_site_label
_atom_site_fract_x
_atom_site_fract_y
_atom_site_fract_z
Si Si1 0.622972 0.342191 0.352660
Si Si2 0.622814 0.653888 0.924630
Si Si3 0.621100 0.419720 0.905220
Si Si4 0.618768 0.282429 0.684520
Si Si5 0.378764 0.300647 0.150110
Si Si6 0.877412 0.665912 0.401451
Si Si7 0.622037 0.462965 0.161621
Si Si8 0.879639 0.036703 0.175553
O O1 0.750000 0.354647 0.407867
O O2 0.616969 0.257359 0.305374
O O3 0.509759 0.362200 0.427198
O O4 0.623976 0.389246 0.238992
O O5 0.750000 0.630588 0.877442
O O6 0.500118 0.623787 0.882818
O O7 0.621299 0.637767 0.054910
O O8 0.623471 0.744526 0.922046
O O9 0.750000 0.380495 0.896231
O O10 0.617147 0.447659 0.030745
O O11 0.624289 0.480408 0.807460
O O12 0.750000 0.259927 0.638843
O O13 0.496106 0.249620 0.635925
O O14 0.614487 0.372236 0.676101
O O15 0.250000 0.259921 0.143558
O O16 0.379468 0.337563 0.269023
O O17 0.750000 0.635206 0.440792
O O18 0.500000 0.500000 0.194888
O O19 0.750000 0.500091 0.184350
O O20 0.750000 0.014482 0.129704
O O21 0.000000 0.000000 0.130782
#
# Coordination Sequence:
#
# PCOD9378516 Si02
#       8
#     8   8   8   8   8   8   8   8
#     4   9  17  31  50  70  94 126 166 210 251 294
#     4  10  20  31  47  76 108 137 173 214 258 309
#     4  10  19  31  47  68  98 139 182 214 246 295
#     4   9  17  31  50  70  94 126 166 210 251 294
#     4   9  17  29  45  68  99 132 165 204 252 301
#     4   9  17  29  45  68  99 132 165 204 252 301
#     4  10  21  34  49  72 102 138 177 214 256 308
#     4  10  21  34  49  72 102 138 177 214 256 308
#
# _framework density 26.145536
#
# number of rings (size 3 to 8) (size 9 to 14) (size 15 to 20)
#    0.000    2.500    0.000    3.375    0.000    5.000 
#    0.000    0.000    0.000    0.000    0.000    0.875 
#    0.000    0.000    0.000    0.000    0.000    0.000 
#
# Total GULP energy -178506.288763 kJ/mol
# GULP energy per Si atom -5578.321524 kJ/mol
# Density = 2.608603 g / cm^3
# Si number density = 26.145536 Si / 1000 Ang^3
#
#
#
# Elastic Constant Matrix: (Units=GPa)
#
#
# Indices 1 2 3 4 5 6 
#
# 1 368.8273 69.5779 5.9620 -0.0001 0.0000 0.0000
# 2 69.5779 68.8130 4.6516 -0.0001 0.0000 0.0000
# 3 5.9620 4.6516 44.4842 0.0001 -0.0001 0.0000
# 4 -0.0001 -0.0001 0.0001 11.3420 0.0000 0.0000
# 5 0.0000 0.0000 -0.0001 0.0000 9.8384 0.0000
# 6 0.0000 0.0000 0.0000 0.0000 0.0000 46.8886
#
#
#
# Elastic Compliance Matrix: (Units=1/GPa)
#
#
# Indices 1 2 3 4 5 6 
#
# 1 0.003351 -0.003382 -0.000095 0.000000 0.000000 0.000000
# 2 -0.003382 0.018048 -0.001434 0.000000 0.000000 0.000000
# 3 -0.000095 -0.001434 0.022643 0.000000 0.000000 0.000000
# 4 0.000000 0.000000 0.000000 0.088168 0.000000 0.000000
# 5 0.000000 0.000000 0.000000 0.000000 0.101643 0.000000
# 6 0.000000 0.000000 0.000000 0.000000 0.000000 0.021327
#
#
# Mechanical properties :
#
#
# Convention : Reuss Voigt Hill
#
# Bulk Modulus (GPa) = 29.22312 71.38971 50.30642
# Shear Modulus (GPa) = 18.08918 40.40932 29.24925
#
# Velocity S-wave (km/s) = 2.63319 3.93562 3.34834
# Velocity P-wave (km/s) = 4.52175 6.92937 5.85074
#
# Compressibility (1/GPa) = 0.03421948
#
# Stress axis : x y z
#
# Youngs Moduli (GPa) = 298.44011 55.40712 44.16441
#
# Poissons Ratio (x) = 0.18736 0.00422
# Poissons Ratio (y) = 1.00919 0.06333
# Poissons Ratio (z) = 0.02850 0.07946
#
# Static dielectric constant tensor:
#      x y z
#    x 2.149170 0.000000 0.000000 
#    y 0.000000 2.133560 0.000000 
#    z 0.000000 0.000000 2.074390 
# 
# From -- ./inp_files/15352.got.cif
#   From: 2010.05.17/outbox.cif.g08.bks.cpg/sg46_8_cif.got.tgz:15352.got - 2010.06.03 19:58:25.
