data_PCOD9378497
_publ_section_title
;
Structure prediction by ZEFSAII (Michael W. Deem and Ramdas Pophale) SiO2 
 PCOD9378497
Probable space group: I M A 2
;
_chemical_formula_sum "Si O2"
_cell_formula_units_Z 64
_cell_length_a 14.709906
_cell_length_b 17.279775
_cell_length_c 14.067237
_cell_angle_alpha 90.000000
_cell_angle_beta 90.000000
_cell_angle_gamma 90.000000
_cell_volume 3575.664684
_symmetry_space_group_name_H-M "I M A 2"
_symmetry_group_IT_number 46
_symmetry_cell_setting 'orthorhombic'
loop_
_space_group_symop_operation_xyz
x,y,z
-x,-y,z
1/2-x,y,z
1/2+x,-y,z
1/2+x,1/2+y,1/2+z
1/2-x,1/2-y,1/2+z
-x,1/2+y,1/2+z
x,1/2-y,1/2+z
loop_
_atom_site_type_symbol
_atom_site_label
_atom_site_fract_x
_atom_site_fract_y
_atom_site_fract_z
Si Si1 0.646252 0.366652 0.421290
Si Si2 0.350157 0.521883 0.758406
Si Si3 0.642645 0.209512 0.731982
Si Si4 0.849425 0.841052 0.289163
Si Si5 0.541374 0.234226 0.534676
Si Si6 0.950971 0.157255 0.347360
Si Si7 0.148655 0.189188 0.063498
Si Si8 0.392514 0.488426 0.540335
O O1 0.750000 0.338209 0.427800
O O2 0.619692 0.356425 0.310596
O O3 0.586886 0.311799 0.489826
O O4 0.642455 0.453494 0.460073
O O5 0.250000 0.554468 0.781566
O O6 0.352636 0.434246 0.795546
O O7 0.428398 0.574212 0.803317
O O8 0.358074 0.515410 0.644200
O O9 0.750000 0.206649 0.709516
O O10 0.583837 0.213481 0.636335
O O11 0.616467 0.286313 0.790622
O O12 0.750000 0.815140 0.326388
O O13 0.851695 0.820491 0.177721
O O14 0.945508 0.814503 0.330446
O O15 0.563233 0.167046 0.459180
O O16 0.434542 0.254531 0.539982
O O17 0.250000 0.214472 0.034639
O O18 0.131592 0.101535 0.026028
O O19 0.500000 0.500000 0.543270
#
# Coordination Sequence:
#
# PCOD9378497 Si02
#       8
#     8   8   8   8   8   8   8   8
#     4  10  20  33  51  77 106 139 174 210 260 315
#     4  10  19  30  49  80 110 134 165 215 270 316
#     4  10  21  35  50  72 106 140 174 212 255 313
#     4   9  18  33  52  75 106 134 168 215 262 312
#     4  11  21  34  51  77 108 141 175 214 254 314
#     4  11  20  32  52  76 106 138 175 208 263 313
#     4  10  19  33  52  79 109 138 171 213 265 314
#     4  11  18  31  54  80 110 137 166 219 269 311
#
# _framework density 17.898771
#
# number of rings (size 3 to 8) (size 9 to 14) (size 15 to 20)
#    0.000    1.750    2.500    5.250    0.000    2.000 
#    0.000    0.000    0.000    1.500    0.000    0.000 
#    0.000    0.000    0.000    0.000    0.000    0.000 
#
# Total GULP energy -178390.669498 kJ/mol
# GULP energy per Si atom -5574.708422 kJ/mol
# Density = 1.785803 g / cm^3
# Si number density = 17.898771 Si / 1000 Ang^3
#
#
#
# Elastic Constant Matrix: (Units=GPa)
#
#
# Indices 1 2 3 4 5 6 
#
# 1 101.0578 1.5466 21.5697 0.0000 0.0000 0.0000
# 2 1.5466 33.8093 27.1369 0.0000 0.0000 0.0000
# 3 21.5697 27.1369 93.5278 0.0000 0.0000 0.0000
# 4 0.0000 0.0000 0.0000 12.5482 0.0000 0.0000
# 5 0.0000 0.0000 0.0000 0.0000 6.1544 0.0000
# 6 0.0000 0.0000 0.0000 0.0000 0.0000 12.5951
#
#
#
# Elastic Compliance Matrix: (Units=1/GPa)
#
#
# Indices 1 2 3 4 5 6 
#
# 1 0.010501 0.001908 -0.002975 0.000000 0.000000 0.000000
# 2 0.001908 0.038904 -0.011728 0.000000 0.000000 0.000000
# 3 -0.002975 -0.011728 0.014781 0.000000 0.000000 0.000000
# 4 0.000000 0.000000 0.000000 0.079693 0.000000 0.000000
# 5 0.000000 0.000000 0.000000 0.000000 0.162485 0.000000
# 6 0.000000 0.000000 0.000000 0.000000 0.000000 0.079396
#
#
# Mechanical properties :
#
#
# Convention : Reuss Voigt Hill
#
# Bulk Modulus (GPa) = 25.91005 36.54462 31.22734
# Shear Modulus (GPa) = 11.78648 18.13566 14.96107
#
# Velocity S-wave (km/s) = 2.56892 3.18659 2.89428
# Velocity P-wave (km/s) = 4.82768 5.83102 5.35291
#
# Compressibility (1/GPa) = 0.03859506
#
# Stress axis : x y z
#
# Youngs Moduli (GPa) = 95.22730 25.70454 67.65447
#
# Poissons Ratio (x) = -0.04904 0.20130
# Poissons Ratio (y) = -0.18167 0.79344
# Poissons Ratio (z) = 0.28334 0.30146
#
# Static dielectric constant tensor:
#      x y z
#    x 1.678530 0.000000 0.000000 
#    y 0.000000 1.611190 0.000000 
#    z 0.000000 0.000000 1.606930 
# 
# From -- ./inp_files/11319.got.cif
#   From: 2010.05.17/outbox.cif.g08.bks.cpg/sg46_6_cif.got.tgz:11319.got - 2010.06.03 19:58:25.
