data_PCOD9378177
_publ_section_title
;
Structure prediction by ZEFSAII (Michael W. Deem and Ramdas Pophale) SiO2 
 PCOD9378177
Probable space group: I M A 2
;
_chemical_formula_sum "Si O2"
_cell_formula_units_Z 40
_cell_length_a 8.916249
_cell_length_b 21.203455
_cell_length_c 12.848908
_cell_angle_alpha 90.000000
_cell_angle_beta 90.000000
_cell_angle_gamma 90.000000
_cell_volume 2429.153957
_symmetry_space_group_name_H-M "I M A 2"
_symmetry_group_IT_number 46
_symmetry_cell_setting 'orthorhombic'
loop_
_space_group_symop_operation_xyz
x,y,z
-x,-y,z
1/2-x,y,z
1/2+x,-y,z
1/2+x,1/2+y,1/2+z
1/2-x,1/2-y,1/2+z
-x,1/2+y,1/2+z
x,1/2-y,1/2+z
loop_
_atom_site_type_symbol
_atom_site_label
_atom_site_fract_x
_atom_site_fract_y
_atom_site_fract_z
Si Si1 0.929051 0.838274 0.873330
Si Si2 0.570817 0.340391 0.731099
Si Si3 0.569721 0.930829 0.060176
Si Si4 0.428801 0.195297 0.443170
Si Si5 0.071714 0.696342 0.162649
O O1 0.750000 0.840649 0.855736
O O2 0.962520 0.769706 0.923612
O O3 0.012302 0.840821 0.763275
O O4 0.970630 0.891898 0.955718
O O5 0.750000 0.348369 0.732017
O O6 0.494104 0.391408 0.657247
O O7 0.506026 0.340922 0.847755
O O8 0.537297 0.270268 0.686082
O O9 0.750000 0.933634 0.066557
O O10 0.500000 0.000000 0.058001
O O11 0.250000 0.187325 0.439299
O O12 0.492332 0.177685 0.555648
O O13 0.250000 0.690016 0.152953
#
# Coordination Sequence:
#
# PCOD9378177 Si02
#       5
#     8   8   8   8   8
#     4   9  19  33  50  73 103 138 176 211 256 314
#     4  10  20  33  50  76 107 138 175 217 263 314
#     4  11  22  37  55  77 105 142 181 219 259 308
#     4  10  18  31  52  76 106 139 171 213 263 318
#     4  10  19  30  50  78 108 136 168 215 267 313
#
# _framework density 16.466638
#
# number of rings (size 3 to 8) (size 9 to 14) (size 15 to 20)
#    0.000    2.000    2.000    2.400    0.000    4.000 
#    0.000    0.000    0.000    1.200    0.000    5.600 
#    0.000    0.000    0.000    0.000    0.000    0.000 
#
# Total GULP energy -111636.025254 kJ/mol
# GULP energy per Si atom -5581.801263 kJ/mol
# Density = 1.642916 g / cm^3
# Si number density = 16.466638 Si / 1000 Ang^3
#
#
#
# Elastic Constant Matrix: (Units=GPa)
#
#
# Indices 1 2 3 4 5 6 
#
# 1 56.7812 47.0853 73.2212 0.0000 0.0000 0.0000
# 2 47.0853 89.5535 66.5253 0.0000 0.0000 0.0000
# 3 73.2212 66.5253 177.2742 0.0000 0.0000 0.0000
# 4 0.0000 0.0000 0.0000 18.4387 0.0000 0.0000
# 5 0.0000 0.0000 0.0000 0.0000 31.2415 0.0000
# 6 0.0000 0.0000 0.0000 0.0000 0.0000 22.3728
#
#
#
# Elastic Compliance Matrix: (Units=1/GPa)
#
#
# Indices 1 2 3 4 5 6 
#
# 1 0.048578 -0.014747 -0.014530 0.000000 0.000000 0.000000
# 2 -0.014747 0.019960 -0.001399 0.000000 0.000000 0.000000
# 3 -0.014530 -0.001399 0.012168 0.000000 0.000000 0.000000
# 4 0.000000 0.000000 0.000000 0.054234 0.000000 0.000000
# 5 0.000000 0.000000 0.000000 0.000000 0.032009 0.000000
# 6 0.000000 0.000000 0.000000 0.000000 0.000000 0.044697
#
#
# Mechanical properties :
#
#
# Convention : Reuss Voigt Hill
#
# Bulk Modulus (GPa) = 51.67479 77.47472 64.57475
# Shear Modulus (GPa) = 17.89237 23.52906 20.71072
#
# Velocity S-wave (km/s) = 3.29991 3.78417 3.55031
# Velocity P-wave (km/s) = 6.78003 8.13910 7.49045
#
# Compressibility (1/GPa) = 0.01935180
#
# Stress axis : x y z
#
# Youngs Moduli (GPa) = 20.58548 50.10134 82.18542
#
# Poissons Ratio (x) = 0.73886 1.19419
# Poissons Ratio (y) = 0.30358 0.11498
# Poissons Ratio (z) = 0.29912 0.07009
#
# Static dielectric constant tensor:
#      x y z
#    x 1.542640 0.000000 0.000000 
#    y 0.000000 1.528340 0.000000 
#    z 0.000000 0.000000 1.541690 
# 
# From -- ./inp_files/9039.got.cif
#   From: 2010.05.17/outbox.cif.g08.bks.cpg/sg46_5_cif.got.tgz:9039.got - 2010.06.03 19:58:25.
