data_PCOD9378828
_publ_section_title
;
Structure prediction by ZEFSAII (Michael W. Deem and Ramdas Pophale) SiO2 
 PCOD9378828
Probable space group: I M A 2
;
_chemical_formula_sum "Si O2"
_cell_formula_units_Z 64
_cell_length_a 8.889330
_cell_length_b 20.005811
_cell_length_c 20.926905
_cell_angle_alpha 90.000000
_cell_angle_beta 90.000000
_cell_angle_gamma 90.000000
_cell_volume 3721.604287
_symmetry_space_group_name_H-M "I M A 2"
_symmetry_group_IT_number 46
_symmetry_cell_setting 'orthorhombic'
loop_
_space_group_symop_operation_xyz
x,y,z
-x,-y,z
1/2-x,y,z
1/2+x,-y,z
1/2+x,1/2+y,1/2+z
1/2-x,1/2-y,1/2+z
-x,1/2+y,1/2+z
x,1/2-y,1/2+z
loop_
_atom_site_type_symbol
_atom_site_label
_atom_site_fract_x
_atom_site_fract_y
_atom_site_fract_z
Si Si1 0.069511 0.294759 0.736210
Si Si2 0.569855 0.069478 0.043025
Si Si3 0.928170 0.428909 0.159909
Si Si4 0.429662 0.569907 0.693299
Si Si5 0.430557 0.206451 0.611687
Si Si6 0.069623 0.292557 0.359915
Si Si7 0.930931 0.214360 0.993440
Si Si8 0.428024 0.929040 0.813302
O O1 0.250000 0.303434 0.735889
O O2 0.029232 0.251160 0.673769
O O3 0.028206 0.253701 0.799512
O O4 0.991877 0.366310 0.730368
O O5 0.750000 0.064012 0.039417
O O6 0.528156 0.077581 0.118026
O O7 0.500000 0.000000 0.019435
O O8 0.524035 0.137067 0.007374
O O9 0.750000 0.428863 0.147682
O O10 0.949756 0.421112 0.236630
O O11 0.000000 0.500000 0.142019
O O12 0.007182 0.367429 0.124844
O O13 0.500000 0.500000 0.715413
O O14 0.250000 0.567156 0.697020
O O15 0.250000 0.205318 0.606067
O O16 0.503550 0.240326 0.549887
O O17 0.250000 0.294595 0.364572
O O18 0.997593 0.266381 0.425137
O O19 0.006663 0.366601 0.346621
O O20 0.750000 0.217656 0.993611
O O21 0.250000 0.929041 0.826709
O O22 0.500000 0.000000 0.831723
#
# Coordination Sequence:
#
# PCOD9378828 Si02
#       8
#     8   8   8   8   8   8   8   8
#     4  10  21  36  57  83 112 145 187 232 277 329
#     4   9  19  33  51  76 108 144 183 224 266 322
#     4  10  20  34  56  85 116 147 185 233 282 334
#     4  10  19  33  55  83 113 143 181 227 278 328
#     4  11  21  36  59  85 112 147 188 234 285 334
#     4  11  23  39  56  80 113 151 191 233 282 337
#     4  11  23  39  55  80 114 150 192 234 281 336
#     4  10  20  34  54  80 112 151 191 231 277 332
#
# _framework density 17.196884000000001
#
# number of rings (size 3 to 8) (size 9 to 14) (size 15 to 20)
#    0.000    1.750    2.500    2.250    0.000    4.500 
#    0.000    1.250    0.000    0.750    0.000    1.750 
#    0.000    0.000    0.000    0.000    0.000    0.000 
#
# Total GULP energy -178765.324568 kJ/mol
# GULP energy per Si atom -5586.416393 kJ/mol
# Density = 1.715774 g / cm^3
# Si number density = 17.196884 Si / 1000 Ang^3
#
#
#
# Elastic Constant Matrix: (Units=GPa)
#
#
# Indices 1 2 3 4 5 6 
#
# 1 59.9738 54.9409 56.5956 0.0000 0.0000 0.0000
# 2 54.9409 133.9097 67.6908 0.0000 0.0000 0.0000
# 3 56.5956 67.6908 111.7385 0.0000 0.0000 0.0000
# 4 0.0000 0.0000 0.0000 19.2247 0.0000 0.0000
# 5 0.0000 0.0000 0.0000 0.0000 24.6694 0.0000
# 6 0.0000 0.0000 0.0000 0.0000 0.0000 36.4089
#
#
#
# Elastic Compliance Matrix: (Units=1/GPa)
#
#
# Indices 1 2 3 4 5 6 
#
# 1 0.037431 -0.008322 -0.013917 0.000000 0.000000 0.000000
# 2 -0.008322 0.012614 -0.003426 0.000000 0.000000 0.000000
# 3 -0.013917 -0.003426 0.018074 0.000000 0.000000 0.000000
# 4 0.000000 0.000000 0.000000 0.052017 0.000000 0.000000
# 5 0.000000 0.000000 0.000000 0.000000 0.040536 0.000000
# 6 0.000000 0.000000 0.000000 0.000000 0.000000 0.027466
#
#
# Mechanical properties :
#
#
# Convention : Reuss Voigt Hill
#
# Bulk Modulus (GPa) = 59.56733 73.78630 66.67682
# Shear Modulus (GPa) = 20.40264 24.48689 22.44477
#
# Velocity S-wave (km/s) = 3.44817 3.77757 3.61663
# Velocity P-wave (km/s) = 7.11104 7.87570 7.50312
#
# Compressibility (1/GPa) = 0.01678773
#
# Stress axis : x y z
#
# Youngs Moduli (GPa) = 26.71566 79.27538 55.32703
#
# Poissons Ratio (x) = 0.65975 0.77001
# Poissons Ratio (y) = 0.22233 0.18957
# Poissons Ratio (z) = 0.37181 0.27163
#
# Static dielectric constant tensor:
#      x y z
#    x 1.569740 0.000000 0.000000 
#    y 0.000000 1.559550 0.000000 
#    z 0.000000 0.000000 1.579920 
# 
# From -- ./inp_files/18529.got.cif
#   From: 2010.05.17/outbox.cif.g08.bks.cpg/sg46_10_cif.got.tgz:18529.got - 2010.06.03 19:58:25.
