data_PCOD9378881
_publ_section_title
;
Structure prediction by ZEFSAII (Michael W. Deem and Ramdas Pophale) SiO2 
 PCOD9378881
Probable space group: I M A 2
;
_chemical_formula_sum "Si O2"
_cell_formula_units_Z 64
_cell_length_a 21.087308
_cell_length_b 21.293993
_cell_length_c 8.230004
_cell_angle_alpha 90.000000
_cell_angle_beta 90.000000
_cell_angle_gamma 90.000000
_cell_volume 3695.543295
_symmetry_space_group_name_H-M "I M A 2"
_symmetry_group_IT_number 46
_symmetry_cell_setting 'orthorhombic'
loop_
_space_group_symop_operation_xyz
x,y,z
-x,-y,z
1/2-x,y,z
1/2+x,-y,z
1/2+x,1/2+y,1/2+z
1/2-x,1/2-y,1/2+z
-x,1/2+y,1/2+z
x,1/2-y,1/2+z
loop_
_atom_site_type_symbol
_atom_site_label
_atom_site_fract_x
_atom_site_fract_y
_atom_site_fract_z
Si Si1 0.060841 0.545758 0.952950
Si Si2 0.012416 0.676958 0.033596
Si Si3 0.897172 0.627845 0.806083
Si Si4 0.507925 0.068222 0.101258
Si Si5 0.008063 0.694864 0.414169
Si Si6 0.823208 0.659273 0.220801
Si Si7 0.325465 0.041468 0.544912
Si Si8 0.631917 0.720803 0.545506
O O1 0.053685 0.556601 0.757461
O O2 0.125168 0.514797 0.018444
O O3 0.000000 0.500000 0.992060
O O4 0.054267 0.614444 0.028323
O O5 0.997949 0.689183 0.222306
O O6 0.952197 0.655367 0.923821
O O7 0.043761 0.740023 0.957729
O O8 0.845270 0.585750 0.894005
O O9 0.861724 0.682493 0.711372
O O10 0.939703 0.587641 0.678955
O O11 0.500000 0.000000 0.017743
O O12 0.528238 0.128294 0.992962
O O13 0.940788 0.711868 0.494993
O O14 0.750000 0.656229 0.179978
O O15 0.831516 0.687713 0.399191
O O16 0.851584 0.708695 0.093197
O O17 0.845579 0.587545 0.195230
O O18 0.250000 0.026603 0.550317
#
# Coordination Sequence:
#
# PCOD9378881 Si02
#       8
#     8   8   8   8   8   8   8   8
#     4  10  19  35  58  73 110 145 177 226 273 325
#     4  11  20  34  53  79 113 137 182 217 286 319
#     4  10  19  34  52  76 103 147 175 229 261 319
#     4   9  17  34  53  75 113 140 171 210 274 315
#     4  11  21  31  53  85 107 139 173 229 266 335
#     4  11  23  35  48  69 105 149 192 225 265 323
#     4  11  21  35  54  78 104 144 187 224 272 330
#     4  11  21  32  52  70 107 141 190 226 271 308
#
# _framework density 17.318156999999999
#
# number of rings (size 3 to 8) (size 9 to 14) (size 15 to 20)
#    0.000    1.500    3.750    6.375    0.000    2.500 
#    2.250    0.000    0.000    0.000    0.000    3.500 
#    0.000    0.000    0.000    0.000    0.000    0.000 
#
# Total GULP energy -178238.969798 kJ/mol
# GULP energy per Si atom -5569.967806 kJ/mol
# Density = 1.727874 g / cm^3
# Si number density = 17.318157 Si / 1000 Ang^3
#
#
#
# Elastic Constant Matrix: (Units=GPa)
#
#
# Indices 1 2 3 4 5 6 
#
# 1 48.7044 39.9954 13.9572 0.0000 0.0000 0.0000
# 2 39.9954 153.7269 42.6965 0.0000 0.0000 0.0000
# 3 13.9572 42.6965 75.7974 0.0000 0.0000 0.0000
# 4 0.0000 0.0000 0.0000 -1.8769 0.0000 0.0000
# 5 0.0000 0.0000 0.0000 0.0000 12.4701 0.0000
# 6 0.0000 0.0000 0.0000 0.0000 0.0000 23.1163
#
#
#
# Elastic Compliance Matrix: (Units=1/GPa)
#
#
# Indices 1 2 3 4 5 6 
#
# 1 0.026197 -0.006492 -0.001167 0.000000 0.000000 0.000000
# 2 -0.006492 0.009320 -0.004055 0.000000 0.000000 0.000000
# 3 -0.001167 -0.004055 0.015692 0.000000 0.000000 0.000000
# 4 0.000000 0.000000 0.000000 -0.532781 0.000000 0.000000
# 5 0.000000 0.000000 0.000000 0.000000 0.080192 0.000000
# 6 0.000000 0.000000 0.000000 0.000000 0.000000 0.043259
#
#
# Mechanical properties :
#
#
# Convention : Reuss Voigt Hill
#
# Bulk Modulus (GPa) = 35.99393 52.39189 44.19291
# Shear Modulus (GPa) = -15.36417 18.84719 1.74151
#
# Velocity S-wave (km/s) = -2.98177 3.30250 1.00388
# Velocity P-wave (km/s) = 2.99573 6.69778 5.18819
#
# Compressibility (1/GPa) = 0.02778246
#
# Stress axis : x y z
#
# Youngs Moduli (GPa) = 38.17180 107.29456 63.72683
#
# Poissons Ratio (x) = 0.69652 0.07438
# Poissons Ratio (y) = 0.24780 0.25839
# Poissons Ratio (z) = 0.04455 0.43504
#
# Static dielectric constant tensor:
#      x y z
#    x 1.597240 0.000000 0.000000 
#    y 0.000000 1.719300 0.000000 
#    z 0.000000 0.000000 1.637310 
# 
# From -- ./inp_files/7636.got.cif
#   From: 2010.05.17/outbox.cif.g08.bks.cpg/sg46_4_cif.got.tgz:7636.got - 2010.06.03 19:58:25.
