data_PCOD9378417
_publ_section_title
;
Structure prediction by ZEFSAII (Michael W. Deem and Ramdas Pophale) SiO2 
 PCOD9378417
Probable space group: I M A 2
;
_chemical_formula_sum "Si O2"
_cell_formula_units_Z 56
_cell_length_a 15.942625
_cell_length_b 7.212117
_cell_length_c 19.981973
_cell_angle_alpha 90.000000
_cell_angle_beta 90.000000
_cell_angle_gamma 90.000000
_cell_volume 2297.528790
_symmetry_space_group_name_H-M "I M A 2"
_symmetry_group_IT_number 46
_symmetry_cell_setting 'orthorhombic'
loop_
_space_group_symop_operation_xyz
x,y,z
-x,-y,z
1/2-x,y,z
1/2+x,-y,z
1/2+x,1/2+y,1/2+z
1/2-x,1/2-y,1/2+z
-x,1/2+y,1/2+z
x,1/2-y,1/2+z
loop_
_atom_site_type_symbol
_atom_site_label
_atom_site_fract_x
_atom_site_fract_y
_atom_site_fract_z
Si Si1 0.652056 0.196451 0.445220
Si Si2 0.345560 0.319424 0.591849
Si Si3 0.081388 0.409326 0.464996
Si Si4 0.081388 0.090674 0.218701
Si Si5 0.847944 0.196451 0.738477
Si Si6 0.020597 0.750000 0.841849
Si Si7 0.848879 0.228274 0.591849
O O1 0.750000 0.145863 0.435313
O O2 0.643995 0.423520 0.445413
O O3 0.587324 0.133710 0.387901
O O4 0.620580 0.153778 0.520612
O O5 0.250000 0.263823 0.591849
O O6 0.382386 0.270614 0.519635
O O7 0.382386 0.270614 0.664062
O O8 0.352651 0.546486 0.591848
O O9 0.000000 0.500000 0.500000
O O10 0.040946 0.328310 0.398261
O O11 0.040946 0.171689 0.285436
O O12 0.143995 0.923520 0.238285
O O13 0.000000 0.000000 0.183697
O O14 0.750000 0.145862 0.748384
O O15 0.912676 0.133709 0.795796
O O16 0.879420 0.153778 0.663085
O O17 0.750000 0.187597 0.591848
#
# Coordination Sequence:
#
# PCOD9378417 Si02
#       7
#     8   8   8   8   8   8   8
#     4   9  16  29  46  66  90 118 147 177 213 262
#     4   9  15  27  45  63  83 113 144 176 219 268
#     4   9  17  28  43  66  93 115 140 177 223 263
#     4   9  17  28  43  66  93 115 140 177 223 263
#     4   9  16  29  46  66  90 118 147 177 213 262
#     4  10  19  26  39  66  98 122 140 170 219 266
#     4   7  12  23  43  65  83 103 136 178 218 254
#
# _framework density 24.374012
#
# number of rings (size 3 to 8) (size 9 to 14) (size 15 to 20)
#    0.000    3.143    0.000    3.429    0.000    3.429 
#    0.000    2.857    0.000    0.000    0.000   36.000 
#    0.000   20.571    0.000    0.000    0.000    0.000 
#
# Total GULP energy -155922.089139 kJ/mol
# GULP energy per Si atom -5568.646041 kJ/mol
# Density = 2.431854 g / cm^3
# Si number density = 24.374012 Si / 1000 Ang^3
#
#
#
# Elastic Constant Matrix: (Units=GPa)
#
#
# Indices 1 2 3 4 5 6 
#
# 1 103.0514 8.7512 73.4298 0.0000 0.0000 0.0000
# 2 8.7512 70.3177 16.4114 0.0000 0.0000 0.0000
# 3 73.4298 16.4114 247.9828 0.0000 0.0000 0.0000
# 4 0.0000 0.0000 0.0000 9.7679 0.0000 0.0000
# 5 0.0000 0.0000 0.0000 0.0000 -18.8237 0.0000
# 6 0.0000 0.0000 0.0000 0.0000 0.0000 11.1561
#
#
#
# Elastic Compliance Matrix: (Units=1/GPa)
#
#
# Indices 1 2 3 4 5 6 
#
# 1 0.012332 -0.000693 -0.003606 0.000000 0.000000 0.000000
# 2 -0.000693 0.014483 -0.000753 0.000000 0.000000 0.000000
# 3 -0.003606 -0.000753 0.005150 0.000000 0.000000 0.000000
# 4 0.000000 0.000000 0.000000 0.102376 0.000000 0.000000
# 5 0.000000 0.000000 0.000000 0.000000 -0.053124 0.000000
# 6 0.000000 0.000000 0.000000 0.000000 0.000000 0.089637
#
#
# Mechanical properties :
#
#
# Convention : Reuss Voigt Hill
#
# Bulk Modulus (GPa) = 45.74355 68.72628 57.23492
# Shear Modulus (GPa) = 26.56101 21.93735 24.24918
#
# Velocity S-wave (km/s) = 3.30468 3.00330 3.15759
# Velocity P-wave (km/s) = 5.77662 6.34698 6.06851
#
# Compressibility (1/GPa) = 0.02186100
#
# Stress axis : x y z
#
# Youngs Moduli (GPa) = 81.08943 69.04535 194.17175
#
# Poissons Ratio (x) = 0.04786 0.70013
# Poissons Ratio (y) = 0.05621 0.14626
# Poissons Ratio (z) = 0.29239 0.05201
#
# Static dielectric constant tensor:
#      x y z
#    x 1.900560 0.000000 0.000000 
#    y 0.000000 2.135830 0.000000 
#    z 0.000000 0.000000 2.015310 
# 
# From -- ./inp_files/20010.got.cif
#   From: 2010.05.17/outbox.cif.g08.bks.cpg/sg46_11_cif.got.tgz:20010.got - 2010.06.03 19:58:25.
