data_PCOD9378520
_publ_section_title
;
Structure prediction by ZEFSAII (Michael W. Deem and Ramdas Pophale) SiO2 
 PCOD9378520
Probable space group: I M A 2
;
_chemical_formula_sum "Si O2"
_cell_formula_units_Z 64
_cell_length_a 8.685990
_cell_length_b 15.310924
_cell_length_c 27.895738
_cell_angle_alpha 90.000000
_cell_angle_beta 90.000000
_cell_angle_gamma 90.000000
_cell_volume 3709.869058
_symmetry_space_group_name_H-M "I M A 2"
_symmetry_group_IT_number 46
_symmetry_cell_setting 'orthorhombic'
loop_
_space_group_symop_operation_xyz
x,y,z
-x,-y,z
1/2-x,y,z
1/2+x,-y,z
1/2+x,1/2+y,1/2+z
1/2-x,1/2-y,1/2+z
-x,1/2+y,1/2+z
x,1/2-y,1/2+z
loop_
_atom_site_type_symbol
_atom_site_label
_atom_site_fract_x
_atom_site_fract_y
_atom_site_fract_z
Si Si1 0.934679 0.094361 0.404440
Si Si2 0.565095 0.279556 0.258752
Si Si3 0.435012 0.906698 0.292746
Si Si4 0.434748 0.406845 0.450868
Si Si5 0.434845 0.405271 0.338785
Si Si6 0.436400 0.221570 0.483979
Si Si7 0.435387 0.405666 0.067867
Si Si8 0.065326 0.404991 0.178779
O O1 0.750000 0.093778 0.407546
O O2 0.979765 0.106754 0.348678
O O3 0.002453 0.168631 0.438268
O O4 0.000000 0.000000 0.419612
O O5 0.750000 0.282638 0.257768
O O6 0.515795 0.178512 0.263267
O O7 0.506256 0.331302 0.305485
O O8 0.498809 0.330580 0.213272
O O9 0.250000 0.911281 0.291495
O O10 0.500000 0.000000 0.276849
O O11 0.500000 0.500000 0.466470
O O12 0.250000 0.411507 0.452866
O O13 0.476555 0.393044 0.394765
O O14 0.486778 0.322105 0.480238
O O15 0.500000 0.500000 0.324089
O O16 0.250000 0.404973 0.334336
O O17 0.250000 0.220512 0.482485
O O18 0.486410 0.169529 0.531420
O O19 0.500000 0.500000 0.053069
O O20 0.250000 0.409999 0.066385
O O21 0.480292 0.390196 0.123204
O O22 0.250000 0.407425 0.181915
O O23 0.000000 0.500000 0.193045
#
# Coordination Sequence:
#
# PCOD9378520 Si02
#       8
#     8   8   8   8   8   8   8   8
#     4  10  19  31  47  71 101 132 162 195 234 282
#     4  11  21  33  50  73  98 126 160 201 242 285
#     4   9  20  35  50  69  97 130 164 200 238 277
#     4   9  19  33  49  69  97 130 165 202 239 277
#     4  10  19  31  47  70  99 132 164 197 236 283
#     4  10  19  32  50  73  98 127 162 201 240 283
#     4   9  19  34  52  73  99 126 155 192 238 287
#     4  10  20  35  53  74  98 127 158 194 240 290
#
# _framework density 17.251282
#
# number of rings (size 3 to 8) (size 9 to 14) (size 15 to 20)
#    0.000    2.250    0.000    3.000    0.000    4.500 
#    0.000    0.000    0.000    0.750    0.000    3.500 
#    0.000    0.000    0.000    0.000    0.000    0.000 
#
# Total GULP energy -178617.979119 kJ/mol
# GULP energy per Si atom -5581.811847 kJ/mol
# Density = 1.721202 g / cm^3
# Si number density = 17.251282 Si / 1000 Ang^3
#
#
#
# Elastic Constant Matrix: (Units=GPa)
#
#
# Indices 1 2 3 4 5 6 
#
# 1 25.6803 34.4393 23.7739 0.0000 0.0000 0.0000
# 2 34.4393 187.6593 83.4167 0.0000 0.0000 0.0000
# 3 23.7739 83.4167 72.0676 0.0000 0.0000 0.0000
# 4 0.0000 0.0000 0.0000 28.0855 0.0000 0.0000
# 5 0.0000 0.0000 0.0000 0.0000 13.6466 0.0000
# 6 0.0000 0.0000 0.0000 0.0000 0.0000 28.1109
#
#
#
# Elastic Compliance Matrix: (Units=1/GPa)
#
#
# Indices 1 2 3 4 5 6 
#
# 1 0.057764 -0.004388 -0.013976 0.000000 0.000000 0.000000
# 2 -0.004388 0.011310 -0.011643 0.000000 0.000000 0.000000
# 3 -0.013976 -0.011643 0.031963 0.000000 0.000000 0.000000
# 4 0.000000 0.000000 0.000000 0.035606 0.000000 0.000000
# 5 0.000000 0.000000 0.000000 0.000000 0.073278 0.000000
# 6 0.000000 0.000000 0.000000 0.000000 0.000000 0.035573
#
#
# Mechanical properties :
#
#
# Convention : Reuss Voigt Hill
#
# Bulk Modulus (GPa) = 24.37725 63.18521 43.78123
# Shear Modulus (GPa) = 15.66504 23.55376 19.60940
#
# Velocity S-wave (km/s) = 3.01666 3.69905 3.37514
# Velocity P-wave (km/s) = 5.12786 7.41282 6.37357
#
# Compressibility (1/GPa) = 0.04102186
#
# Stress axis : x y z
#
# Youngs Moduli (GPa) = 17.31180 88.42052 31.28644
#
# Poissons Ratio (x) = 0.38803 0.43726
# Poissons Ratio (y) = 0.07597 0.36427
# Poissons Ratio (z) = 0.24195 1.02947
#
# Static dielectric constant tensor:
#      x y z
#    x 1.583450 0.000000 0.000000 
#    y 0.000000 1.581090 0.000000 
#    z 0.000000 0.000000 1.582360 
# 
# From -- ./inp_files/23249.got.cif
#   From: 2010.05.17/outbox.cif.g08.bks.cpg/sg46_12_cif.got.tgz:23249.got - 2010.06.03 19:58:25.
