data_PCOD9378212
_publ_section_title
;
Structure prediction by ZEFSAII (Michael W. Deem and Ramdas Pophale) SiO2 
 PCOD9378212
Probable space group: I M A 2
;
_chemical_formula_sum "Si O2"
_cell_formula_units_Z 44
_cell_length_a 19.389916
_cell_length_b 22.028266
_cell_length_c 5.000110
_cell_angle_alpha 90.000000
_cell_angle_beta 90.000000
_cell_angle_gamma 90.000000
_cell_volume 2135.678121
_symmetry_space_group_name_H-M "I M A 2"
_symmetry_group_IT_number 46
_symmetry_cell_setting 'orthorhombic'
loop_
_space_group_symop_operation_xyz
x,y,z
-x,-y,z
1/2-x,y,z
1/2+x,-y,z
1/2+x,1/2+y,1/2+z
1/2-x,1/2-y,1/2+z
-x,1/2+y,1/2+z
x,1/2-y,1/2+z
loop_
_atom_site_type_symbol
_atom_site_label
_atom_site_fract_x
_atom_site_fract_y
_atom_site_fract_z
Si Si1 0.971618 0.568443 0.344370
Si Si2 0.406465 0.900080 0.500317
Si Si3 0.107479 0.458998 0.843490
Si Si4 0.250000 0.921699 0.603006
Si Si5 0.250000 0.715947 0.714373
Si Si6 0.902595 0.292632 0.623421
Si Si7 0.250000 0.005053 0.112650
O O1 0.942159 0.575300 0.638092
O O2 0.000000 0.500000 0.338707
O O3 0.036519 0.605206 0.232921
O O4 0.908434 0.569456 0.132044
O O5 0.327940 0.893726 0.617978
O O6 0.428877 0.851756 0.276950
O O7 0.408966 0.968685 0.379132
O O8 0.182469 0.459073 0.708575
O O9 0.250000 0.945028 0.297478
O O10 0.250000 0.978909 0.811023
O O11 0.250000 0.723003 0.032499
O O12 0.178612 0.689475 0.623981
O O13 0.915238 0.236984 0.834541
#
# Coordination Sequence:
#
# PCOD9378212 Si02
#       7
#     8   8   8   4   4   8   4
#     4  10  19  31  48  69  92 123 159 194 237 288
#     4  10  21  35  51  69  99 130 167 209 236 281
#     4  10  20  32  49  71  93 124 158 191 241 289
#     4  10  21  30  46  69  90 128 170 201 242 268
#     4   8  15  30  45  60  86 118 162 210 241 268
#     4  10  21  33  47  66  89 124 164 204 245 274
#     4  10  18  32  47  69  98 120 152 199 235 288
#
# _framework density 20.602354999999999
#
# number of rings (size 3 to 8) (size 9 to 14) (size 15 to 20)
#    0.000    2.182    0.000    5.455    0.000    8.727 
#    0.000    5.455    0.000    0.000    0.000    0.000 
#    0.000    0.000    0.000   16.364    0.000   12.545 
#
# Total GULP energy -122570.798291 kJ/mol
# GULP energy per Si atom -5571.399922 kJ/mol
# Density = 2.055546 g / cm^3
# Si number density = 20.602355 Si / 1000 Ang^3
#
#
#
# Elastic Constant Matrix: (Units=GPa)
#
#
# Indices 1 2 3 4 5 6 
#
# 1 99.6199 26.8509 19.9551 0.0000 0.0000 0.0000
# 2 26.8509 42.9306 16.5598 0.0000 0.0000 0.0000
# 3 19.9551 16.5598 111.6868 0.0000 0.0000 0.0000
# 4 0.0000 0.0000 0.0000 25.0436 0.0000 0.0000
# 5 0.0000 0.0000 0.0000 0.0000 6.1770 0.0000
# 6 0.0000 0.0000 0.0000 0.0000 0.0000 16.8716
#
#
#
# Elastic Compliance Matrix: (Units=1/GPa)
#
#
# Indices 1 2 3 4 5 6 
#
# 1 0.012202 -0.007203 -0.001112 0.000000 0.000000 0.000000
# 2 -0.007203 0.028958 -0.003007 0.000000 0.000000 0.000000
# 3 -0.001112 -0.003007 0.009598 0.000000 0.000000 0.000000
# 4 0.000000 0.000000 0.000000 0.039930 0.000000 0.000000
# 5 0.000000 0.000000 0.000000 0.000000 0.161892 0.000000
# 6 0.000000 0.000000 0.000000 0.000000 0.000000 0.059271
#
#
# Mechanical properties :
#
#
# Convention : Reuss Voigt Hill
#
# Bulk Modulus (GPa) = 35.56812 42.32987 38.94900
# Shear Modulus (GPa) = 14.54048 22.34320 18.44184
#
# Velocity S-wave (km/s) = 2.65951 3.29674 2.99512
# Velocity P-wave (km/s) = 5.17032 5.92301 5.55942
#
# Compressibility (1/GPa) = 0.02811506
#
# Stress axis : x y z
#
# Youngs Moduli (GPa) = 81.95117 34.53245 104.18692
#
# Poissons Ratio (x) = 0.24874 0.11588
# Poissons Ratio (y) = 0.59029 0.31326
# Poissons Ratio (z) = 0.09115 0.10383
#
# Static dielectric constant tensor:
#      x y z
#    x 1.817130 0.000000 0.000000 
#    y 0.000000 1.816760 0.000000 
#    z 0.000000 0.000000 1.822270 
# 
# From -- ./inp_files/1690.got.cif
#   From: 2010.05.17/outbox.cif.g08.bks.cpg/sg46_1_cif.got.tgz:1690.got - 2010.06.03 19:58:25.
