data_PCOD9378812
_publ_section_title
;
Structure prediction by ZEFSAII (Michael W. Deem and Ramdas Pophale) SiO2 
 PCOD9378812
Probable space group: I M A 2
;
_chemical_formula_sum "Si O2"
_cell_formula_units_Z 60
_cell_length_a 14.188096
_cell_length_b 8.607828
_cell_length_c 19.991577
_cell_angle_alpha 90.000000
_cell_angle_beta 90.000000
_cell_angle_gamma 90.000000
_cell_volume 2441.545110
_symmetry_space_group_name_H-M "I M A 2"
_symmetry_group_IT_number 46
_symmetry_cell_setting 'orthorhombic'
loop_
_space_group_symop_operation_xyz
x,y,z
-x,-y,z
1/2-x,y,z
1/2+x,-y,z
1/2+x,1/2+y,1/2+z
1/2-x,1/2-y,1/2+z
-x,1/2+y,1/2+z
x,1/2-y,1/2+z
loop_
_atom_site_type_symbol
_atom_site_label
_atom_site_fract_x
_atom_site_fract_y
_atom_site_fract_z
Si Si1 0.646923 0.757325 0.557210
Si Si2 0.000000 0.500000 0.433130
Si Si3 0.859383 0.932897 0.835260
Si Si4 0.106183 0.959999 0.477612
Si Si5 0.139321 0.460138 0.190582
Si Si6 0.571484 0.168048 0.049000
Si Si7 0.139504 0.687961 0.834851
Si Si8 0.864215 0.188505 0.188400
O O1 0.750000 0.673665 0.560095
O O2 0.635856 0.854009 0.626164
O O3 0.542503 0.685562 0.551002
O O4 0.655478 0.880900 0.496696
O O5 0.939135 0.617471 0.387569
O O6 0.079738 0.574226 0.480130
O O7 0.750000 0.889404 0.848496
O O8 0.865750 0.122922 0.836704
O O9 0.891727 0.886162 0.760743
O O10 0.107142 0.895604 0.402465
O O11 0.129631 0.823512 0.530438
O O12 0.000000 0.000000 0.494625
O O13 0.250000 0.489322 0.204336
O O14 0.098907 0.632709 0.180251
O O15 0.603573 0.105891 0.120544
O O16 0.250000 0.651642 0.833587
O O17 0.102193 0.635884 0.761850
O O18 0.750000 0.184852 0.188651
#
# Coordination Sequence:
#
# PCOD9378812 Si02
#       8
#     8   4   8   8   8   8   8   8
#     4  10  20  35  58  84 113 141 175 230 281 328
#     4  12  24  38  52  76 112 152 190 214 258 328
#     4   9  19  34  54  80 108 139 177 223 270 320
#     4  10  19  33  54  85 112 139 180 226 283 331
#     4   8  15  30  55  85 107 131 170 219 282 327
#     4  11  23  36  52  81 111 147 188 221 269 324
#     4   9  17  33  56  81 107 139 179 224 276 326
#     4   9  18  33  55  82 109 138 180 229 270 318
#
# _framework density 24.574604000000001
#
# number of rings (size 3 to 8) (size 9 to 14) (size 15 to 20)
#    0.000    2.400    2.667    2.000    0.000    3.733 
#    1.200    0.000    0.000    0.000    0.000    0.000 
#    0.000    0.000    0.000    0.000    0.000    0.000 
#
# Total GULP energy -167245.605493 kJ/mol
# GULP energy per Si atom -5574.853516 kJ/mol
# Density = 2.451867 g / cm^3
# Si number density = 24.574604 Si / 1000 Ang^3
#
#
#
# Elastic Constant Matrix: (Units=GPa)
#
#
# Indices 1 2 3 4 5 6 
#
# 1 79.7542 -2.0213 -2.5162 0.0000 0.0000 0.0000
# 2 -2.0213 12.2598 17.8814 0.0000 0.0000 0.0000
# 3 -2.5162 17.8814 163.9963 0.0000 0.0000 0.0000
# 4 0.0000 0.0000 0.0000 14.8784 0.0000 0.0000
# 5 0.0000 0.0000 0.0000 0.0000 44.1223 0.0000
# 6 0.0000 0.0000 0.0000 0.0000 0.0000 10.9390
#
#
#
# Elastic Compliance Matrix: (Units=1/GPa)
#
#
# Indices 1 2 3 4 5 6 
#
# 1 0.012591 0.002133 -0.000039 0.000000 0.000000 0.000000
# 2 0.002133 0.097353 -0.010582 0.000000 0.000000 0.000000
# 3 -0.000039 -0.010582 0.007251 0.000000 0.000000 0.000000
# 4 0.000000 0.000000 0.000000 0.067211 0.000000 0.000000
# 5 0.000000 0.000000 0.000000 0.000000 0.022664 0.000000
# 6 0.000000 0.000000 0.000000 0.000000 0.000000 0.091416
#
#
# Mechanical properties :
#
#
# Convention : Reuss Voigt Hill
#
# Bulk Modulus (GPa) = 9.97811 31.41090 20.69451
# Shear Modulus (GPa) = 14.33197 30.16571 22.24884
#
# Velocity S-wave (km/s) = 2.41758 3.50739 3.01218
# Velocity P-wave (km/s) = 3.44414 5.40481 4.53178
#
# Compressibility (1/GPa) = 0.10021936
#
# Stress axis : x y z
#
# Youngs Moduli (GPa) = 79.41961 10.27184 137.91329
#
# Poissons Ratio (x) = -0.02191 0.00544
# Poissons Ratio (y) = -0.16944 1.45943
# Poissons Ratio (z) = 0.00313 0.10870
#
# Static dielectric constant tensor:
#      x y z
#    x 1.935970 0.000000 0.000000 
#    y 0.000000 2.095970 0.000000 
#    z 0.000000 0.000000 2.027750 
# 
# From -- ./inp_files/16737.got.cif
#   From: 2010.05.17/outbox.cif.g08.bks.cpg/sg46_9_cif.got.tgz:16737.got - 2010.06.03 19:58:25.
