data_PCOD9378019
_publ_section_title
;
Structure prediction by ZEFSAII (Michael W. Deem and Ramdas Pophale) SiO2 
 PCOD9378019
Probable space group: I M A 2
;
_chemical_formula_sum "Si O2"
_cell_formula_units_Z 64
_cell_length_a 8.835856
_cell_length_b 19.058928
_cell_length_c 22.037470
_cell_angle_alpha 90.000000
_cell_angle_beta 90.000000
_cell_angle_gamma 90.000000
_cell_volume 3711.152774
_symmetry_space_group_name_H-M "I M A 2"
_symmetry_group_IT_number 46
_symmetry_cell_setting 'orthorhombic'
loop_
_space_group_symop_operation_xyz
x,y,z
-x,-y,z
1/2-x,y,z
1/2+x,-y,z
1/2+x,1/2+y,1/2+z
1/2-x,1/2-y,1/2+z
-x,1/2+y,1/2+z
x,1/2-y,1/2+z
loop_
_atom_site_type_symbol
_atom_site_label
_atom_site_fract_x
_atom_site_fract_y
_atom_site_fract_z
Si Si1 0.422819 0.818209 0.038160
Si Si2 0.077909 0.935286 0.139896
Si Si3 0.070653 0.426292 0.770162
Si Si4 0.568773 0.279208 0.767829
Si Si5 0.430711 0.425315 0.184245
Si Si6 0.066583 0.715768 0.136502
Si Si7 0.431425 0.362050 0.314504
Si Si8 0.069491 0.076145 0.944631
O O1 0.250000 0.806073 0.016860
O O2 0.416042 0.870727 0.095433
O O3 0.484480 0.749366 0.072489
O O4 0.513478 0.860548 0.987594
O O5 0.750000 0.049040 0.159358
O O6 0.976781 0.924568 0.199075
O O7 0.000000 0.000000 0.106041
O O8 0.250000 0.427433 0.777775
O O9 0.000000 0.500000 0.793674
O O10 0.002289 0.351953 0.791399
O O11 0.750000 0.285656 0.768296
O O12 0.523642 0.260166 0.697569
O O13 0.513980 0.212425 0.806365
O O14 0.500000 0.500000 0.167887
O O15 0.250000 0.426030 0.177850
O O16 0.501253 0.361287 0.146687
O O17 0.467349 0.407467 0.254716
O O18 0.250000 0.714817 0.135671
O O19 0.250000 0.349910 0.314964
O O20 0.472818 0.402135 0.375881
O O21 0.250000 0.070488 0.949177
O O22 0.000000 0.000000 0.959154
#
# Coordination Sequence:
#
# PCOD9378019 Si02
#       8
#     8   8   8   8   8   8   8   8
#     4  10  20  34  50  69  99 134 172 213 254 301
#     4  10  18  29  42  62  91 127 167 205 244 290
#     4  11  20  29  44  67  98 132 166 205 248 300
#     4  10  18  32  52  74  99 130 169 211 262 312
#     4  10  19  32  52  77 103 132 165 206 257 309
#     4   9  18  33  50  71 100 131 164 208 255 307
#     4   9  20  36  52  74 102 134 174 217 258 303
#     4  11  23  37  53  74 104 140 182 221 255 299
#
# _framework density 17.245315999999999
#
# number of rings (size 3 to 8) (size 9 to 14) (size 15 to 20)
#    0.000    2.000    1.250    4.125    0.000    4.500 
#    0.000    0.000    0.000    0.000    0.000    0.875 
#    0.000    2.000    0.000    0.000    0.000    0.000 
#
# Total GULP energy -178396.256960 kJ/mol
# GULP energy per Si atom -5574.883030 kJ/mol
# Density = 1.720606 g / cm^3
# Si number density = 17.245316 Si / 1000 Ang^3
#
#
#
# Elastic Constant Matrix: (Units=GPa)
#
#
# Indices 1 2 3 4 5 6 
#
# 1 56.2052 43.4512 19.5528 0.0000 0.0000 0.0000
# 2 43.4512 138.0719 34.2328 0.0000 0.0000 0.0000
# 3 19.5528 34.2328 60.4472 0.0000 0.0000 0.0000
# 4 0.0000 0.0000 0.0000 19.2984 0.0000 0.0000
# 5 0.0000 0.0000 0.0000 0.0000 13.2092 0.0000
# 6 0.0000 0.0000 0.0000 0.0000 0.0000 26.7516
#
#
#
# Elastic Compliance Matrix: (Units=1/GPa)
#
#
# Indices 1 2 3 4 5 6 
#
# 1 0.024362 -0.006646 -0.004117 0.000000 0.000000 0.000000
# 2 -0.006646 0.010239 -0.003649 0.000000 0.000000 0.000000
# 3 -0.004117 -0.003649 0.019941 0.000000 0.000000 0.000000
# 4 0.000000 0.000000 0.000000 0.051818 0.000000 0.000000
# 5 0.000000 0.000000 0.000000 0.000000 0.075705 0.000000
# 6 0.000000 0.000000 0.000000 0.000000 0.000000 0.037381
#
#
# Mechanical properties :
#
#
# Convention : Reuss Voigt Hill
#
# Bulk Modulus (GPa) = 38.88102 49.91085 44.39594
# Shear Modulus (GPa) = 19.46730 22.35102 20.90916
#
# Velocity S-wave (km/s) = 3.36348 3.60399 3.48581
# Velocity P-wave (km/s) = 6.13830 6.80609 6.48080
#
# Compressibility (1/GPa) = 0.02571949
#
# Stress axis : x y z
#
# Youngs Moduli (GPa) = 41.04760 97.66817 50.14728
#
# Poissons Ratio (x) = 0.64911 0.20643
# Poissons Ratio (y) = 0.27281 0.18297
# Poissons Ratio (z) = 0.16897 0.35636
#
# Static dielectric constant tensor:
#      x y z
#    x 1.585370 0.000000 0.000000 
#    y 0.000000 1.643640 0.000000 
#    z 0.000000 0.000000 1.583050 
# 
# From -- ./inp_files/21291.got.cif
#   From: 2010.05.17/outbox.cif.g08.bks.cpg/sg46_11_cif.got.tgz:21291.got - 2010.06.03 19:58:25.
