data_PCOD9378180
_publ_section_title
;
Structure prediction by ZEFSAII (Michael W. Deem and Ramdas Pophale) SiO2 
 PCOD9378180
Probable space group: I M A 2
;
_chemical_formula_sum "Si O2"
_cell_formula_units_Z 64
_cell_length_a 19.888843
_cell_length_b 18.599497
_cell_length_c 9.653169
_cell_angle_alpha 90.000000
_cell_angle_beta 90.000000
_cell_angle_gamma 90.000000
_cell_volume 3570.924175
_symmetry_space_group_name_H-M "I M A 2"
_symmetry_group_IT_number 46
_symmetry_cell_setting 'orthorhombic'
loop_
_space_group_symop_operation_xyz
x,y,z
-x,-y,z
1/2-x,y,z
1/2+x,-y,z
1/2+x,1/2+y,1/2+z
1/2-x,1/2-y,1/2+z
-x,1/2+y,1/2+z
x,1/2-y,1/2+z
loop_
_atom_site_type_symbol
_atom_site_label
_atom_site_fract_x
_atom_site_fract_y
_atom_site_fract_z
Si Si1 0.516172 0.215994 0.161280
Si Si2 0.672306 0.548847 0.134069
Si Si3 0.896386 0.281810 0.398693
Si Si4 0.545316 0.865966 0.592145
Si Si5 0.405131 0.591552 0.200645
Si Si6 0.957728 0.573789 0.777204
Si Si7 0.825111 0.998570 0.309335
Si Si8 0.173269 0.856900 0.433506
O O1 0.545582 0.243460 0.307150
O O2 0.469759 0.281288 0.106357
O O3 0.482492 0.138908 0.182278
O O4 0.577097 0.209561 0.053293
O O5 0.750000 0.559033 0.178078
O O6 0.620473 0.614973 0.141887
O O7 0.632286 0.484174 0.208511
O O8 0.675049 0.524768 0.971921
O O9 0.884787 0.357574 0.326691
O O10 0.836141 0.225049 0.390452
O O11 0.485817 0.906175 0.678925
O O12 0.539292 0.896170 0.435321
O O13 0.376696 0.628370 0.060202
O O14 0.882162 0.549250 0.741760
O O15 0.000000 0.500000 0.770849
O O16 0.750000 0.989427 0.254085
O O17 0.842648 0.083558 0.316554
O O18 0.250000 0.871141 0.476627
#
# Coordination Sequence:
#
# PCOD9378180 Si02
#       8
#     8   8   8   8   8   8   8   8
#     4  11  21  36  54  85 108 146 188 247 276 350
#     4   9  17  30  50  79 109 139 188 237 279 331
#     4  11  20  35  52  75 119 144 187 227 291 340
#     4  10  18  32  57  79 109 148 190 232 288 338
#     4  10  18  31  52  77 108 143 184 236 277 336
#     4  11  19  32  58  81 110 145 192 236 289 338
#     4   8  16  29  49  78 108 138 181 235 278 330
#     4  10  18  31  52  80 113 149 189 230 282 345
#
# _framework density 17.922529999999998
#
# number of rings (size 3 to 8) (size 9 to 14) (size 15 to 20)
#    0.000    2.000    3.750    4.500    0.000    1.000 
#    0.000    3.125    0.000    0.000    0.000    7.875 
#    0.000    0.000    0.000    0.000    0.000    0.000 
#
# Total GULP energy -178313.103030 kJ/mol
# GULP energy per Si atom -5572.284470 kJ/mol
# Density = 1.788174 g / cm^3
# Si number density = 17.922530 Si / 1000 Ang^3
#
#
#
# Elastic Constant Matrix: (Units=GPa)
#
#
# Indices 1 2 3 4 5 6 
#
# 1 98.2728 46.8471 8.9174 0.0000 0.0000 0.0000
# 2 46.8471 103.7500 13.7885 0.0000 0.0000 0.0000
# 3 8.9174 13.7885 18.8451 0.0000 0.0000 0.0000
# 4 0.0000 0.0000 0.0000 21.2905 0.0000 0.0000
# 5 0.0000 0.0000 0.0000 0.0000 5.6140 0.0000
# 6 0.0000 0.0000 0.0000 0.0000 0.0000 30.3533
#
#
#
# Elastic Compliance Matrix: (Units=1/GPa)
#
#
# Indices 1 2 3 4 5 6 
#
# 1 0.013039 -0.005613 -0.002063 0.000000 0.000000 0.000000
# 2 -0.005613 0.013093 -0.006924 0.000000 0.000000 0.000000
# 3 -0.002063 -0.006924 0.059106 0.000000 0.000000 0.000000
# 4 0.000000 0.000000 0.000000 0.046969 0.000000 0.000000
# 5 0.000000 0.000000 0.000000 0.000000 0.178127 0.000000
# 6 0.000000 0.000000 0.000000 0.000000 0.000000 0.032945
#
#
# Mechanical properties :
#
#
# Convention : Reuss Voigt Hill
#
# Bulk Modulus (GPa) = 17.84484 39.99708 28.92096
# Shear Modulus (GPa) = 12.78249 21.53921 17.16085
#
# Velocity S-wave (km/s) = 2.67349 3.47045 3.09771
# Velocity P-wave (km/s) = 4.41683 6.19870 5.38202
#
# Compressibility (1/GPa) = 0.05603861
#
# Stress axis : x y z
#
# Youngs Moduli (GPa) = 76.69377 76.37420 16.91863
#
# Poissons Ratio (x) = 0.42872 0.03490
# Poissons Ratio (y) = 0.43051 0.11714
# Poissons Ratio (z) = 0.15820 0.52881
#
# Static dielectric constant tensor:
#      x y z
#    x 1.630390 0.000000 0.000000 
#    y 0.000000 1.637760 0.000000 
#    z 0.000000 0.000000 1.604960 
# 
# From -- ./inp_files/7571.got.cif
#   From: 2010.05.17/outbox.cif.g08.bks.cpg/sg46_4_cif.got.tgz:7571.got - 2010.06.03 19:58:25.
