data_PCOD9378972
_publ_section_title
;
Structure prediction by ZEFSAII (Michael W. Deem and Ramdas Pophale) SiO2 
 PCOD9378972
Probable space group: I M A 2
;
_chemical_formula_sum "Si O2"
_cell_formula_units_Z 64
_cell_length_a 8.491847
_cell_length_b 25.747756
_cell_length_c 15.337726
_cell_angle_alpha 90.000000
_cell_angle_beta 90.000000
_cell_angle_gamma 90.000000
_cell_volume 3353.532509
_symmetry_space_group_name_H-M "I M A 2"
_symmetry_group_IT_number 46
_symmetry_cell_setting 'orthorhombic'
loop_
_space_group_symop_operation_xyz
x,y,z
-x,-y,z
1/2-x,y,z
1/2+x,-y,z
1/2+x,1/2+y,1/2+z
1/2-x,1/2-y,1/2+z
-x,1/2+y,1/2+z
x,1/2-y,1/2+z
loop_
_atom_site_type_symbol
_atom_site_label
_atom_site_fract_x
_atom_site_fract_y
_atom_site_fract_z
Si Si1 0.558446 0.348108 0.321630
Si Si2 0.562351 0.232656 0.293460
Si Si3 0.563292 0.634837 0.691943
Si Si4 0.940046 0.443102 0.202920
Si Si5 0.563542 0.718535 0.987923
Si Si6 0.938903 0.109284 0.524447
Si Si7 0.060671 0.058655 0.346012
Si Si8 0.437486 0.828461 0.019348
O O1 0.750000 0.348196 0.319843
O O2 0.510758 0.292490 0.281249
O O3 0.503749 0.397847 0.268074
O O4 0.512039 0.347859 0.423402
O O5 0.750000 0.229022 0.279177
O O6 0.477289 0.190371 0.234799
O O7 0.523736 0.219859 0.394274
O O8 0.750000 0.630061 0.681200
O O9 0.509300 0.591485 0.761215
O O10 0.482923 0.633883 0.597808
O O11 0.750000 0.443485 0.205264
O O12 0.988153 0.426933 0.105012
O O13 0.000000 0.500000 0.225483
O O14 0.750000 0.716032 0.973480
O O15 0.505906 0.667113 0.036413
O O16 0.517717 0.772411 0.033556
O O17 0.750000 0.112001 0.522922
O O18 0.998694 0.086487 0.433158
O O19 0.250000 0.059136 0.348817
O O20 0.000000 0.000000 0.342755
O O21 0.250000 0.820603 0.017586
#
# Coordination Sequence:
#
# PCOD9378972 Si02
#       8
#     8   8   8   8   8   8   8   8
#     4   8  18  38  60  84 113 149 196 246 291 345
#     4  10  19  34  59  86 115 156 200 237 288 359
#     4  11  23  38  57  88 124 156 195 251 307 352
#     4  10  22  40  60  85 115 150 196 248 295 348
#     4  11  21  35  55  85 125 158 192 242 297 352
#     4  11  22  36  59  87 119 159 201 242 293 360
#     4  11  24  41  61  84 119 159 200 248 301 359
#     4  10  21  38  61  85 116 159 203 246 297 362
#
# _framework density 19.084354000000001
#
# number of rings (size 3 to 8) (size 9 to 14) (size 15 to 20)
#    0.000    1.750    1.250    4.125    1.750    3.500 
#    0.000    4.375    0.000    3.000    0.000    0.000 
#    0.000    0.000    0.000    0.000    0.000    0.000 
#
# Total GULP energy -178794.319229 kJ/mol
# GULP energy per Si atom -5587.322476 kJ/mol
# Density = 1.904092 g / cm^3
# Si number density = 19.084354 Si / 1000 Ang^3
#
#
#
# Elastic Constant Matrix: (Units=GPa)
#
#
# Indices 1 2 3 4 5 6 
#
# 1 26.7178 21.6967 10.3213 0.0000 0.0000 0.0000
# 2 21.6967 121.7697 47.4290 0.0001 0.0000 0.0000
# 3 10.3213 47.4290 72.1929 0.0003 0.0000 0.0000
# 4 0.0000 0.0001 0.0003 28.0700 0.0000 0.0000
# 5 0.0000 0.0000 0.0000 0.0000 22.9761 0.0000
# 6 0.0000 0.0000 0.0000 0.0000 0.0000 25.5262
#
#
#
# Elastic Compliance Matrix: (Units=1/GPa)
#
#
# Indices 1 2 3 4 5 6 
#
# 1 0.043885 -0.007224 -0.001528 0.000000 0.000000 0.000000
# 2 -0.007224 0.012226 -0.006999 0.000000 0.000000 0.000000
# 3 -0.001528 -0.006999 0.018668 0.000000 0.000000 0.000000
# 4 0.000000 0.000000 0.000000 0.035625 0.000000 0.000000
# 5 0.000000 0.000000 0.000000 0.000000 0.043523 0.000000
# 6 0.000000 0.000000 0.000000 0.000000 0.000000 0.039175
#
#
# Mechanical properties :
#
#
# Convention : Reuss Voigt Hill
#
# Bulk Modulus (GPa) = 23.10727 42.17493 32.64110
# Shear Modulus (GPa) = 20.91779 24.73004 22.82392
#
# Velocity S-wave (km/s) = 3.31429 3.60367 3.46200
# Velocity P-wave (km/s) = 5.17496 6.28191 5.75511
#
# Compressibility (1/GPa) = 0.04327643
#
# Stress axis : x y z
#
# Youngs Moduli (GPa) = 22.78684 81.79609 53.56631
#
# Poissons Ratio (x) = 0.59091 0.08185
# Poissons Ratio (y) = 0.16462 0.37491
# Poissons Ratio (z) = 0.03482 0.57250
#
# Static dielectric constant tensor:
#      x y z
#    x 1.648570 0.000000 0.000000 
#    y 0.000000 1.645270 0.000000 
#    z 0.000000 0.000000 1.673370 
# 
# From -- ./inp_files/14474.got.cif
#   From: 2010.05.17/outbox.cif.g08.bks.cpg/sg46_8_cif.got.tgz:14474.got - 2010.06.03 19:58:25.
