data_PCOD9378363
_publ_section_title
;
Structure prediction by ZEFSAII (Michael W. Deem and Ramdas Pophale) SiO2 
 PCOD9378363
Probable space group: I M A 2
;
_chemical_formula_sum "Si O2"
_cell_formula_units_Z 64
_cell_length_a 8.719583
_cell_length_b 20.280531
_cell_length_c 21.129264
_cell_angle_alpha 90.000000
_cell_angle_beta 90.000000
_cell_angle_gamma 90.000000
_cell_volume 3736.451998
_symmetry_space_group_name_H-M "I M A 2"
_symmetry_group_IT_number 46
_symmetry_cell_setting 'orthorhombic'
loop_
_space_group_symop_operation_xyz
x,y,z
-x,-y,z
1/2-x,y,z
1/2+x,-y,z
1/2+x,1/2+y,1/2+z
1/2-x,1/2-y,1/2+z
-x,1/2+y,1/2+z
x,1/2-y,1/2+z
loop_
_atom_site_type_symbol
_atom_site_label
_atom_site_fract_x
_atom_site_fract_y
_atom_site_fract_z
Si Si1 0.063267 0.209313 0.968390
Si Si2 0.565474 0.569693 0.889735
Si Si3 0.435816 0.289411 0.842165
Si Si4 0.933622 0.929548 0.771667
Si Si5 0.932370 0.207025 0.725799
Si Si6 0.064117 0.209840 0.591746
Si Si7 0.434440 0.430415 0.037693
Si Si8 0.066052 0.069651 0.921175
O O1 0.250000 0.209164 0.968775
O O2 0.019051 0.251203 0.906509
O O3 0.011662 0.134154 0.958545
O O4 0.015300 0.244594 0.032882
O O5 0.500000 0.500000 0.867229
O O6 0.750000 0.566943 0.888756
O O7 0.518320 0.634334 0.850967
O O8 0.519728 0.577937 0.963736
O O9 0.250000 0.286166 0.837814
O O10 0.505592 0.252967 0.782107
O O11 0.750000 0.929391 0.765143
O O12 0.972270 0.922233 0.846583
O O13 0.002631 0.866634 0.736878
O O14 0.000000 0.000000 0.750547
O O15 0.750000 0.205493 0.727026
O O16 0.993590 0.230676 0.658054
O O17 0.250000 0.211408 0.595530
O O18 0.017945 0.134494 0.575603
O O19 0.500000 0.500000 0.060724
O O20 0.250000 0.433558 0.039472
O O21 0.250000 0.066999 0.924964
O O22 0.000000 0.000000 0.943031
#
# Coordination Sequence:
#
# PCOD9378363 Si02
#       8
#     8   8   8   8   8   8   8   8
#     4   9  16  32  58  81 100 132 180 224 262 314
#     4   9  17  30  53  82 110 136 169 216 267 318
#     4  10  18  35  59  80 103 139 183 223 267 320
#     4  10  19  34  55  78 108 144 182 220 264 318
#     4  12  25  37  50  76 112 146 183 225 272 319
#     4  10  20  36  56  75 101 141 185 222 263 316
#     4   9  17  30  50  76 105 137 172 210 254 310
#     4   9  17  30  52  80 107 133 166 215 264 316
#
# _framework density 17.128549
#
# number of rings (size 3 to 8) (size 9 to 14) (size 15 to 20)
#    0.000    2.250    2.500    1.500    0.000    2.000 
#    0.000    2.500    0.000    0.750    0.000    1.750 
#    0.000    0.000    0.000    0.000    0.000    0.000 
#
# Total GULP energy -178552.049142 kJ/mol
# GULP energy per Si atom -5579.751536 kJ/mol
# Density = 1.708956 g / cm^3
# Si number density = 17.128549 Si / 1000 Ang^3
#
#
#
# Elastic Constant Matrix: (Units=GPa)
#
#
# Indices 1 2 3 4 5 6 
#
# 1 25.0810 29.6432 31.1591 0.0000 0.0000 0.0000
# 2 29.6432 136.8359 72.3607 0.0000 0.0000 0.0000
# 3 31.1591 72.3607 116.3832 0.0000 0.0000 0.0000
# 4 0.0000 0.0000 0.0000 21.7118 0.0000 0.0000
# 5 0.0000 0.0000 0.0000 0.0000 13.2917 0.0000
# 6 0.0000 0.0000 0.0000 0.0000 0.0000 29.1974
#
#
#
# Elastic Compliance Matrix: (Units=1/GPa)
#
#
# Indices 1 2 3 4 5 6 
#
# 1 0.064142 -0.007172 -0.012713 0.000000 0.000000 0.000000
# 2 -0.007172 0.011690 -0.005348 0.000000 0.000000 0.000000
# 3 -0.012713 -0.005348 0.015321 0.000000 0.000000 0.000000
# 4 0.000000 0.000000 0.000000 0.046058 0.000000 0.000000
# 5 0.000000 0.000000 0.000000 0.000000 0.075235 0.000000
# 6 0.000000 0.000000 0.000000 0.000000 0.000000 0.034250
#
#
# Mechanical properties :
#
#
# Convention : Reuss Voigt Hill
#
# Bulk Modulus (GPa) = 24.57849 60.51400 42.54624
# Shear Modulus (GPa) = 16.09143 22.51598 19.30370
#
# Velocity S-wave (km/s) = 3.06837 3.62958 3.36071
# Velocity P-wave (km/s) = 5.18978 7.27813 6.32080
#
# Compressibility (1/GPa) = 0.04068599
#
# Stress axis : x y z
#
# Youngs Moduli (GPa) = 15.59037 85.54464 65.26974
#
# Poissons Ratio (x) = 0.61355 0.82980
# Poissons Ratio (y) = 0.11182 0.34905
# Poissons Ratio (z) = 0.19821 0.45748
#
# Static dielectric constant tensor:
#      x y z
#    x 1.576920 0.000000 0.000000 
#    y 0.000000 1.582120 0.000000 
#    z 0.000000 0.000000 1.571600 
# 
# From -- ./inp_files/18549.got.cif
#   From: 2010.05.17/outbox.cif.g08.bks.cpg/sg46_10_cif.got.tgz:18549.got - 2010.06.03 19:58:25.
