data_PCOD9378896
_publ_section_title
;
Structure prediction by ZEFSAII (Michael W. Deem and Ramdas Pophale) SiO2 
 PCOD9378896
Probable space group: I M A 2
;
_chemical_formula_sum "Si O2"
_cell_formula_units_Z 40
_cell_length_a 8.881916
_cell_length_b 13.728148
_cell_length_c 18.945813
_cell_angle_alpha 90.000000
_cell_angle_beta 90.000000
_cell_angle_gamma 90.000000
_cell_volume 2310.105747
_symmetry_space_group_name_H-M "I M A 2"
_symmetry_group_IT_number 46
_symmetry_cell_setting 'orthorhombic'
loop_
_space_group_symop_operation_xyz
x,y,z
-x,-y,z
1/2-x,y,z
1/2+x,-y,z
1/2+x,1/2+y,1/2+z
1/2-x,1/2-y,1/2+z
-x,1/2+y,1/2+z
x,1/2-y,1/2+z
loop_
_atom_site_type_symbol
_atom_site_label
_atom_site_fract_x
_atom_site_fract_y
_atom_site_fract_z
Si Si1 0.931063 0.607858 0.295630
Si Si2 0.071021 0.601443 0.584343
Si Si3 0.430127 0.101616 0.516085
Si Si4 0.430014 0.305669 0.447496
Si Si5 0.069355 0.805451 0.654788
O O1 0.750000 0.602614 0.289891
O O2 0.970060 0.661653 0.368913
O O3 0.000000 0.500000 0.297024
O O4 0.998401 0.663645 0.228574
O O5 0.250000 0.592098 0.581372
O O6 0.033727 0.693741 0.633816
O O7 0.000000 0.500000 0.607885
O O8 0.009971 0.629289 0.506785
O O9 0.250000 0.093575 0.522268
O O10 0.465700 0.193176 0.465390
O O11 0.500442 0.129147 0.592021
O O12 0.500000 0.000000 0.491677
O O13 0.250000 0.317650 0.456096
O O14 0.250000 0.817182 0.655888
#
# Coordination Sequence:
#
# PCOD9378896 Si02
#       5
#     8   8   8   8   8
#     4  11  22  36  54  77 105 137 170 210 258 307
#     4  10  20  34  55  79 104 135 172 212 256 303
#     4  10  19  34  55  78 104 136 172 213 257 303
#     4   9  20  36  54  77 105 136 173 212 254 304
#     4  10  21  36  53  77 105 136 174 213 253 303
#
# _framework density 17.315225999999999
#
# number of rings (size 3 to 8) (size 9 to 14) (size 15 to 20)
#    0.000    2.000    0.000    3.600    0.000    6.400 
#    0.000    1.000    0.000    4.800    0.000    0.000 
#    0.000    0.000    0.000    0.000    0.000    0.000 
#
# Total GULP energy -111694.062651 kJ/mol
# GULP energy per Si atom -5584.703133 kJ/mol
# Density = 1.727582 g / cm^3
# Si number density = 17.315226 Si / 1000 Ang^3
#
#
#
# Elastic Constant Matrix: (Units=GPa)
#
#
# Indices 1 2 3 4 5 6 
#
# 1 57.9140 56.8815 54.1945 0.0000 0.0000 0.0000
# 2 56.8815 130.8310 69.5132 0.0000 0.0000 0.0000
# 3 54.1945 69.5132 139.1063 0.0000 0.0000 0.0000
# 4 0.0000 0.0000 0.0000 11.3075 0.0000 0.0000
# 5 0.0000 0.0000 0.0000 0.0000 22.4424 0.0000
# 6 0.0000 0.0000 0.0000 0.0000 0.0000 34.0340
#
#
#
# Elastic Compliance Matrix: (Units=1/GPa)
#
#
# Indices 1 2 3 4 5 6 
#
# 1 0.036286 -0.011253 -0.008514 0.000000 0.000000 0.000000
# 2 -0.011253 0.013896 -0.002560 0.000000 0.000000 0.000000
# 3 -0.008514 -0.002560 0.011785 0.000000 0.000000 0.000000
# 4 0.000000 0.000000 0.000000 0.088437 0.000000 0.000000
# 5 0.000000 0.000000 0.000000 0.000000 0.044559 0.000000
# 6 0.000000 0.000000 0.000000 0.000000 0.000000 0.029382
#
#
# Mechanical properties :
#
#
# Convention : Reuss Voigt Hill
#
# Bulk Modulus (GPa) = 57.75623 76.55886 67.15754
# Shear Modulus (GPa) = 18.19716 23.37425 20.78570
#
# Velocity S-wave (km/s) = 3.24533 3.67812 3.46848
# Velocity P-wave (km/s) = 6.88992 7.89613 7.41012
#
# Compressibility (1/GPa) = 0.01731415
#
# Stress axis : x y z
#
# Youngs Moduli (GPa) = 27.55905 71.96329 84.85462
#
# Poissons Ratio (x) = 0.80977 0.72241
# Poissons Ratio (y) = 0.31011 0.21724
# Poissons Ratio (z) = 0.23463 0.18423
#
# Static dielectric constant tensor:
#      x y z
#    x 1.576690 0.000000 0.000000 
#    y 0.000000 1.588030 0.000000 
#    z 0.000000 0.000000 1.553670 
# 
# From -- ./inp_files/13646.got.cif
#   From: 2010.05.17/outbox.cif.g08.bks.cpg/sg46_7_cif.got.tgz:13646.got - 2010.06.03 19:58:25.
