data_PCOD9378065
_publ_section_title
;
Structure prediction by ZEFSAII (Michael W. Deem and Ramdas Pophale) SiO2 
 PCOD9378065
Probable space group: I M A 2
;
_chemical_formula_sum "Si O2"
_cell_formula_units_Z 56
_cell_length_a 8.975935
_cell_length_b 19.480387
_cell_length_c 18.519630
_cell_angle_alpha 90.000000
_cell_angle_beta 90.000000
_cell_angle_gamma 90.000000
_cell_volume 3238.244116
_symmetry_space_group_name_H-M "I M A 2"
_symmetry_group_IT_number 46
_symmetry_cell_setting 'orthorhombic'
loop_
_space_group_symop_operation_xyz
x,y,z
-x,-y,z
1/2-x,y,z
1/2+x,-y,z
1/2+x,1/2+y,1/2+z
1/2-x,1/2-y,1/2+z
-x,1/2+y,1/2+z
x,1/2-y,1/2+z
loop_
_atom_site_type_symbol
_atom_site_label
_atom_site_fract_x
_atom_site_fract_y
_atom_site_fract_z
Si Si1 0.570366 0.205457 0.669640
Si Si2 0.580778 0.067722 0.741200
Si Si3 0.421592 0.569453 0.415263
Si Si4 0.426617 0.832019 0.505537
Si Si5 0.075768 0.198688 0.278111
Si Si6 0.430135 0.075328 0.385318
Si Si7 0.075785 0.212776 0.919749
O O1 0.750000 0.210825 0.673995
O O2 0.516468 0.139733 0.715625
O O3 0.530688 0.184381 0.588041
O O4 0.505816 0.273984 0.706618
O O5 0.750000 0.065282 0.714834
O O6 0.582458 0.065664 0.827879
O O7 0.500000 0.000000 0.714121
O O8 0.500000 0.500000 0.441761
O O9 0.250000 0.575705 0.439862
O O10 0.520088 0.635921 0.431032
O O11 0.250000 0.845843 0.502779
O O12 0.511438 0.891236 0.460517
O O13 0.469872 0.762635 0.464338
O O14 0.250000 0.189999 0.261788
O O15 0.026653 0.129483 0.321073
O O16 0.061175 0.259219 0.337955
O O17 0.250000 0.072263 0.386850
O O18 0.500000 0.000000 0.375080
O O19 0.250000 0.220984 0.939387
#
# Coordination Sequence:
#
# PCOD9378065 Si02
#       7
#     8   8   8   8   8   8   8
#     4  10  20  34  51  76 107 140 179 217 263 319
#     4   9  18  30  44  68 100 133 166 201 241 292
#     4  10  18  29  48  72 100 132 166 206 254 300
#     4  10  21  35  53  77 107 142 177 218 269 322
#     4   9  19  33  53  78 103 134 176 222 269 317
#     4  10  21  38  58  83 110 142 184 228 275 329
#     4  10  19  33  51  74 102 133 175 220 260 310
#
# _framework density 17.293323000000001
#
# number of rings (size 3 to 8) (size 9 to 14) (size 15 to 20)
#    0.000    2.286    1.429    2.571    0.000    5.714 
#    0.000    1.429    0.000    0.857    0.000    2.000 
#    0.000    0.000    0.000    0.000    0.000    0.000 
#
# Total GULP energy -155935.716703 kJ/mol
# GULP energy per Si atom -5569.132739 kJ/mol
# Density = 1.725396 g / cm^3
# Si number density = 17.293323 Si / 1000 Ang^3
#
#
#
# Elastic Constant Matrix: (Units=GPa)
#
#
# Indices 1 2 3 4 5 6 
#
# 1 41.8884 28.8121 27.7454 0.0000 0.0000 0.0000
# 2 28.8121 124.0749 34.4814 0.0000 0.0000 0.0000
# 3 27.7454 34.4814 57.8305 0.0000 0.0000 0.0000
# 4 0.0000 0.0000 0.0000 10.6748 0.0000 0.0000
# 5 0.0000 0.0000 0.0000 0.0000 20.9319 0.0000
# 6 0.0000 0.0000 0.0000 0.0000 0.0000 33.0474
#
#
#
# Elastic Compliance Matrix: (Units=1/GPa)
#
#
# Indices 1 2 3 4 5 6 
#
# 1 0.036869 -0.004370 -0.015083 0.000000 0.000000 0.000000
# 2 -0.004370 0.010178 -0.003972 0.000000 0.000000 0.000000
# 3 -0.015083 -0.003972 0.026897 0.000000 0.000000 0.000000
# 4 0.000000 0.000000 0.000000 0.093678 0.000000 0.000000
# 5 0.000000 0.000000 0.000000 0.000000 0.047774 0.000000
# 6 0.000000 0.000000 0.000000 0.000000 0.000000 0.030260
#
#
# Mechanical properties :
#
#
# Convention : Reuss Voigt Hill
#
# Bulk Modulus (GPa) = 36.90900 45.09684 41.00292
# Shear Modulus (GPa) = 16.58165 21.78117 19.18141
#
# Velocity S-wave (km/s) = 3.09988 3.55281 3.33405
# Velocity P-wave (km/s) = 5.84822 6.55471 6.21151
#
# Compressibility (1/GPa) = 0.02709366
#
# Stress axis : x y z
#
# Youngs Moduli (GPa) = 27.12289 98.24793 37.17903
#
# Poissons Ratio (x) = 0.42933 0.56078
# Poissons Ratio (y) = 0.11852 0.14769
# Poissons Ratio (z) = 0.40910 0.39027
#
# Static dielectric constant tensor:
#      x y z
#    x 1.595260 0.000000 0.000000 
#    y 0.000000 1.596560 0.000000 
#    z 0.000000 0.000000 1.602840 
# 
# From -- ./inp_files/18453.got.cif
#   From: 2010.05.17/outbox.cif.g08.bks.cpg/sg46_10_cif.got.tgz:18453.got - 2010.06.03 19:58:25.
