data_PCOD9378795
_publ_section_title
;
Structure prediction by ZEFSAII (Michael W. Deem and Ramdas Pophale) SiO2 
 PCOD9378795
Probable space group: I M A 2
;
_chemical_formula_sum "Si O2"
_cell_formula_units_Z 64
_cell_length_a 8.669967
_cell_length_b 18.732230
_cell_length_c 21.686681
_cell_angle_alpha 90.000000
_cell_angle_beta 90.000000
_cell_angle_gamma 90.000000
_cell_volume 3522.086496
_symmetry_space_group_name_H-M "I M A 2"
_symmetry_group_IT_number 46
_symmetry_cell_setting 'orthorhombic'
loop_
_space_group_symop_operation_xyz
x,y,z
-x,-y,z
1/2-x,y,z
1/2+x,-y,z
1/2+x,1/2+y,1/2+z
1/2-x,1/2-y,1/2+z
-x,1/2+y,1/2+z
x,1/2-y,1/2+z
loop_
_atom_site_type_symbol
_atom_site_label
_atom_site_fract_x
_atom_site_fract_y
_atom_site_fract_z
Si Si1 0.936106 0.167312 0.938240
Si Si2 0.564933 0.919427 0.323497
Si Si3 0.064361 0.419285 0.053643
Si Si4 0.565427 0.919421 0.186808
Si Si5 0.935072 0.332599 0.938450
Si Si6 0.564437 0.919667 0.688545
Si Si7 0.065031 0.919520 0.059730
Si Si8 0.064741 0.080556 0.823282
O O1 0.750000 0.164228 0.935325
O O2 0.982911 0.249881 0.939288
O O3 0.002531 0.127538 0.878888
O O4 0.983377 0.126695 0.000797
O O5 0.750000 0.922752 0.328348
O O6 0.526308 0.890171 0.254739
O O7 0.497466 0.871608 0.377626
O O8 0.500000 0.000000 0.328753
O O9 0.250000 0.421864 0.049832
O O10 0.018676 0.389425 0.121708
O O11 0.000000 0.500000 0.048678
O O12 0.998703 0.372718 0.998420
O O13 0.750000 0.921350 0.181031
O O14 0.495023 0.887442 0.124520
O O15 0.500000 0.000000 0.187978
O O16 0.750000 0.336331 0.938746
O O17 0.750000 0.922310 0.688482
O O18 0.518122 0.889408 0.755345
O O19 0.500000 0.000000 0.688590
O O20 0.250000 0.923449 0.061909
O O21 0.000000 0.000000 0.053485
O O22 0.250000 0.077393 0.826059
O O23 0.000000 0.000000 0.828593
#
# Coordination Sequence:
#
# PCOD9378795 Si02
#       8
#     8   8   8   8   8   8   8   8
#     4  10  23  39  52  72 104 141 179 217 257 304
#     4  10  20  35  56  81 106 134 170 211 257 309
#     4  10  19  34  56  80 106 135 170 211 257 308
#     4   9  17  30  51  79 106 130 163 208 255 304
#     4  11  23  38  53  72 103 140 178 218 258 303
#     4   8  16  30  50  78 106 131 163 207 255 303
#     4  10  19  33  54  78 104 133 169 211 255 305
#     4  10  19  33  56  82 107 136 172 213 257 306
#
# _framework density 18.171047000000002
#
# number of rings (size 3 to 8) (size 9 to 14) (size 15 to 20)
#    0.000    2.250    0.000    3.750    0.000    5.500 
#    0.000    1.250    0.000    6.000    0.000    0.000 
#    0.000    0.000    0.000    0.000    0.000    0.000 
#
# Total GULP energy -178433.132788 kJ/mol
# GULP energy per Si atom -5576.035400 kJ/mol
# Density = 1.812969 g / cm^3
# Si number density = 18.171047 Si / 1000 Ang^3
#
#
#
# Elastic Constant Matrix: (Units=GPa)
#
#
# Indices 1 2 3 4 5 6 
#
# 1 44.3214 29.9710 55.3981 0.0000 0.0000 0.0000
# 2 29.9710 82.8843 89.2055 0.0000 0.0000 0.0000
# 3 55.3981 89.2055 239.7697 0.0000 0.0000 0.0000
# 4 0.0000 0.0000 0.0000 -5.9124 0.0000 0.0000
# 5 0.0000 0.0000 0.0000 0.0000 -6.6179 0.0000
# 6 0.0000 0.0000 0.0000 0.0000 0.0000 20.0261
#
#
#
# Elastic Compliance Matrix: (Units=1/GPa)
#
#
# Indices 1 2 3 4 5 6 
#
# 1 0.033603 -0.006329 -0.005409 0.000000 0.000000 0.000000
# 2 -0.006329 0.021315 -0.006468 0.000000 0.000000 0.000000
# 3 -0.005409 -0.006468 0.007827 0.000000 0.000000 0.000000
# 4 0.000000 0.000000 0.000000 -0.169135 0.000000 0.000000
# 5 0.000000 0.000000 0.000000 0.000000 -0.151105 0.000000
# 6 0.000000 0.000000 0.000000 0.000000 0.000000 0.049935
#
#
# Mechanical properties :
#
#
# Convention : Reuss Voigt Hill
#
# Bulk Modulus (GPa) = 37.97588 79.56942 58.77265
# Shear Modulus (GPa) = -30.79376 14.32588 -8.23394
#
# Velocity S-wave (km/s) = -4.12109 2.81088 -2.13101
# Velocity P-wave (km/s) = 1.30386 7.37692 5.13414
#
# Compressibility (1/GPa) = 0.02633250
#
# Stress axis : x y z
#
# Youngs Moduli (GPa) = 29.75882 46.91619 127.76742
#
# Poissons Ratio (x) = 0.29695 0.69112
# Poissons Ratio (y) = 0.18835 0.82636
# Poissons Ratio (z) = 0.16097 0.30344
#
# Static dielectric constant tensor:
#      x y z
#    x 1.612280 0.000000 0.000000 
#    y 0.000000 1.571690 0.000000 
#    z 0.000000 0.000000 1.669880 
# 
# From -- ./inp_files/21298.got.cif
#   From: 2010.05.17/outbox.cif.g08.bks.cpg/sg46_11_cif.got.tgz:21298.got - 2010.06.03 19:58:25.
