data_PCOD9378646
_publ_section_title
;
Structure prediction by ZEFSAII (Michael W. Deem and Ramdas Pophale) SiO2 
 PCOD9378646
Probable space group: I M A 2
;
_chemical_formula_sum "Si O2"
_cell_formula_units_Z 64
_cell_length_a 8.676467
_cell_length_b 16.588537
_cell_length_c 22.958930
_cell_angle_alpha 90.000000
_cell_angle_beta 90.000000
_cell_angle_gamma 90.000000
_cell_volume 3304.476358
_symmetry_space_group_name_H-M "I M A 2"
_symmetry_group_IT_number 46
_symmetry_cell_setting 'orthorhombic'
loop_
_space_group_symop_operation_xyz
x,y,z
-x,-y,z
1/2-x,y,z
1/2+x,-y,z
1/2+x,1/2+y,1/2+z
1/2-x,1/2-y,1/2+z
-x,1/2+y,1/2+z
x,1/2-y,1/2+z
loop_
_atom_site_type_symbol
_atom_site_label
_atom_site_fract_x
_atom_site_fract_y
_atom_site_fract_z
Si Si1 0.064376 0.742680 0.363030
Si Si2 0.075150 0.799083 0.732687
Si Si3 0.936623 0.413159 0.565637
Si Si4 0.573278 0.386776 0.696865
Si Si5 0.936741 0.587132 0.015561
Si Si6 0.433991 0.270343 0.484595
Si Si7 0.929230 0.580205 0.148708
Si Si8 0.063706 0.580661 0.824140
O O1 0.250000 0.739517 0.370415
O O2 0.029581 0.703180 0.300431
O O3 0.018862 0.836687 0.355308
O O4 0.982216 0.706766 0.418995
O O5 0.250000 0.831407 0.728755
O O6 0.079574 0.708502 0.708321
O O7 0.965358 0.847681 0.691115
O O8 0.750000 0.413529 0.564808
O O9 0.992565 0.404654 0.633263
O O10 0.000000 0.500000 0.544148
O O11 0.993346 0.335378 0.529086
O O12 0.750000 0.417432 0.695425
O O13 0.501007 0.416574 0.757467
O O14 0.750000 0.583575 0.011428
O O15 0.984078 0.675784 0.991659
O O16 0.000000 0.500000 0.993532
O O17 0.990581 0.591712 0.083250
O O18 0.250000 0.272280 0.492330
O O19 0.750000 0.568690 0.141887
O O20 0.000000 0.500000 0.174856
O O21 0.250000 0.579783 0.822114
O O22 0.000000 0.500000 0.852384
#
# Coordination Sequence:
#
# PCOD9378646 Si02
#       8
#     8   8   8   8   8   8   8   8
#     4   9  20  37  54  73 101 139 180 219 261 313
#     4   9  17  33  55  77 103 135 172 213 259 313
#     4  11  22  37  58  83 111 144 183 225 273 326
#     4   8  16  31  53  80 108 139 171 207 258 320
#     4   9  20  36  55  82 114 146 180 221 268 323
#     4  11  23  39  57  79 109 144 186 233 275 317
#     4  10  19  32  51  77 107 135 167 209 261 318
#     4   9  17  31  51  77 109 140 171 209 256 312
#
# _framework density 19.367667000000001
#
# number of rings (size 3 to 8) (size 9 to 14) (size 15 to 20)
#    0.000    2.500    0.000    3.750    0.000    3.000 
#    0.000    6.250    0.000    3.000    0.000    0.000 
#    0.000    0.000    0.000    0.000    0.000    0.000 
#
# Total GULP energy -178300.526198 kJ/mol
# GULP energy per Si atom -5571.891444 kJ/mol
# Density = 1.932359 g / cm^3
# Si number density = 19.367667 Si / 1000 Ang^3
#
#
#
# Elastic Constant Matrix: (Units=GPa)
#
#
# Indices 1 2 3 4 5 6 
#
# 1 22.9428 19.9913 19.0632 0.0000 0.0000 0.0000
# 2 19.9913 74.0972 37.1406 0.0000 0.0000 0.0000
# 3 19.0632 37.1406 91.6295 0.0000 0.0000 0.0000
# 4 0.0000 0.0000 0.0000 15.5396 0.0000 0.0000
# 5 0.0000 0.0000 0.0000 0.0000 63.3997 0.0000
# 6 0.0000 0.0000 0.0000 0.0000 0.0000 31.6250
#
#
#
# Elastic Compliance Matrix: (Units=1/GPa)
#
#
# Indices 1 2 3 4 5 6 
#
# 1 0.060867 -0.012643 -0.007538 0.000000 0.000000 0.000000
# 2 -0.012643 0.019563 -0.005299 0.000000 0.000000 0.000000
# 3 -0.007538 -0.005299 0.014630 0.000000 0.000000 0.000000
# 4 0.000000 0.000000 0.000000 0.064352 0.000000 0.000000
# 5 0.000000 0.000000 0.000000 0.000000 0.015773 0.000000
# 6 0.000000 0.000000 0.000000 0.000000 0.000000 0.031621
#
#
# Mechanical properties :
#
#
# Convention : Reuss Voigt Hill
#
# Bulk Modulus (GPa) = 22.67670 37.89551 30.28611
# Shear Modulus (GPa) = 18.35090 29.61115 23.98103
#
# Velocity S-wave (km/s) = 3.08149 3.91435 3.52262
# Velocity P-wave (km/s) = 4.93910 6.32759 5.67596
#
# Compressibility (1/GPa) = 0.04409813
#
# Stress axis : x y z
#
# Youngs Moduli (GPa) = 16.42930 51.11669 68.35356
#
# Poissons Ratio (x) = 0.64628 0.51528
# Poissons Ratio (y) = 0.20772 0.36222
# Poissons Ratio (z) = 0.12385 0.27088
#
# Static dielectric constant tensor:
#      x y z
#    x 1.675830 0.000000 0.000000 
#    y 0.000000 1.691570 0.000000 
#    z 0.000000 0.000000 1.684270 
# 
# From -- ./inp_files/23247.got.cif
#   From: 2010.05.17/outbox.cif.g08.bks.cpg/sg46_12_cif.got.tgz:23247.got - 2010.06.03 19:58:25.
