data_PCOD9378692
_publ_section_title
;
Structure prediction by ZEFSAII (Michael W. Deem and Ramdas Pophale) SiO2 
 PCOD9378692
Probable space group: I M A 2
;
_chemical_formula_sum "Si O2"
_cell_formula_units_Z 64
_cell_length_a 8.519986
_cell_length_b 21.286586
_cell_length_c 20.178143
_cell_angle_alpha 90.000000
_cell_angle_beta 90.000000
_cell_angle_gamma 90.000000
_cell_volume 3659.536561
_symmetry_space_group_name_H-M "I M A 2"
_symmetry_group_IT_number 46
_symmetry_cell_setting 'orthorhombic'
loop_
_space_group_symop_operation_xyz
x,y,z
-x,-y,z
1/2-x,y,z
1/2+x,-y,z
1/2+x,1/2+y,1/2+z
1/2-x,1/2-y,1/2+z
-x,1/2+y,1/2+z
x,1/2-y,1/2+z
loop_
_atom_site_type_symbol
_atom_site_label
_atom_site_fract_x
_atom_site_fract_y
_atom_site_fract_z
Si Si1 0.061273 0.384554 0.922160
Si Si2 0.437818 0.308697 0.703852
Si Si3 0.559711 0.619416 0.068650
Si Si4 0.439469 0.066729 0.282477
Si Si5 0.937975 0.262098 0.569625
Si Si6 0.060821 0.757105 0.921005
Si Si7 0.062763 0.066791 0.707541
Si Si8 0.562283 0.312240 0.283081
O O1 0.250000 0.388266 0.921958
O O2 0.003258 0.422160 0.858194
O O3 0.013450 0.311848 0.913130
O O4 0.006556 0.403782 0.995893
O O5 0.250000 0.304359 0.708858
O O6 0.489033 0.373280 0.738945
O O7 0.488403 0.303379 0.627588
O O8 0.509404 0.248778 0.741661
O O9 0.750000 0.621503 0.068727
O O10 0.498315 0.690486 0.077366
O O11 0.506798 0.579682 0.131883
O O12 0.250000 0.065935 0.282861
O O13 0.500000 0.000000 0.257799
O O14 0.750000 0.262388 0.576145
O O15 0.980364 0.281254 0.494418
O O16 0.250000 0.749671 0.919049
O O17 0.013918 0.800010 0.859234
O O18 0.250000 0.065351 0.706756
O O19 0.008403 0.125311 0.751485
O O20 0.000000 0.000000 0.731082
O O21 0.750000 0.316575 0.280110
#
# Coordination Sequence:
#
# PCOD9378692 Si02
#       8
#     8   8   8   8   8   8   8   8
#     4   9  17  32  51  74 105 144 181 215 257 310
#     4  11  21  35  54  80 109 141 181 223 267 319
#     4   9  18  32  51  74 106 144 181 216 257 311
#     4  10  22  36  52  75 107 143 182 223 265 316
#     4  10  19  32  53  81 109 138 175 220 269 317
#     4   9  19  33  52  81 110 136 173 220 268 319
#     4  11  23  37  53  77 110 146 185 225 268 320
#     4  11  21  35  57  82 108 140 179 224 271 320
#
# _framework density 17.488553
#
# number of rings (size 3 to 8) (size 9 to 14) (size 15 to 20)
#    0.000    2.000    2.500    1.500    0.000    3.500 
#    0.000    0.000    0.000    0.750    0.000    1.750 
#    0.000    0.000    0.000    0.000    0.000    0.000 
#
# Total GULP energy -178571.555882 kJ/mol
# GULP energy per Si atom -5580.361121 kJ/mol
# Density = 1.744875 g / cm^3
# Si number density = 17.488553 Si / 1000 Ang^3
#
#
#
# Elastic Constant Matrix: (Units=GPa)
#
#
# Indices 1 2 3 4 5 6 
#
# 1 15.6106 15.7294 15.9460 0.0000 0.0000 0.0000
# 2 15.7294 113.5072 58.7791 0.0000 0.0000 0.0000
# 3 15.9460 58.7791 106.7051 0.0000 0.0000 0.0000
# 4 0.0000 0.0000 0.0000 17.4574 0.0000 0.0000
# 5 0.0000 0.0000 0.0000 0.0000 21.4603 0.0000
# 6 0.0000 0.0000 0.0000 0.0000 0.0000 23.2944
#
#
#
# Elastic Compliance Matrix: (Units=1/GPa)
#
#
# Indices 1 2 3 4 5 6 
#
# 1 0.079157 -0.006777 -0.008096 0.000000 0.000000 0.000000
# 2 -0.006777 0.012906 -0.006097 0.000000 0.000000 0.000000
# 3 -0.008096 -0.006097 0.013940 0.000000 0.000000 0.000000
# 4 0.000000 0.000000 0.000000 0.057282 0.000000 0.000000
# 5 0.000000 0.000000 0.000000 0.000000 0.046598 0.000000
# 6 0.000000 0.000000 0.000000 0.000000 0.000000 0.042929
#
#
# Mechanical properties :
#
#
# Convention : Reuss Voigt Hill
#
# Bulk Modulus (GPa) = 15.60938 46.30355 30.95647
# Shear Modulus (GPa) = 15.81745 22.13366 18.97555
#
# Velocity S-wave (km/s) = 3.01066 3.56140 3.29755
# Velocity P-wave (km/s) = 4.58588 6.59131 5.67784
#
# Compressibility (1/GPa) = 0.06406404
#
# Stress axis : x y z
#
# Youngs Moduli (GPa) = 12.63308 77.48155 71.73611
#
# Poissons Ratio (x) = 0.52507 0.58079
# Poissons Ratio (y) = 0.08561 0.43736
# Poissons Ratio (z) = 0.10228 0.47239
#
# Static dielectric constant tensor:
#      x y z
#    x 1.592150 0.000000 0.000000 
#    y 0.000000 1.561440 0.000000 
#    z 0.000000 0.000000 1.634090 
# 
# From -- ./inp_files/21334.got.cif
#   From: 2010.05.17/outbox.cif.g08.bks.cpg/sg46_11_cif.got.tgz:21334.got - 2010.06.03 19:58:25.
