data_PCOD9378175
_publ_section_title
;
Structure prediction by ZEFSAII (Michael W. Deem and Ramdas Pophale) SiO2 
 PCOD9378175
Probable space group: I M A 2
;
_chemical_formula_sum "Si O2"
_cell_formula_units_Z 64
_cell_length_a 9.375170
_cell_length_b 18.750807
_cell_length_c 21.446698
_cell_angle_alpha 90.000000
_cell_angle_beta 90.000000
_cell_angle_gamma 90.000000
_cell_volume 3770.158005
_symmetry_space_group_name_H-M "I M A 2"
_symmetry_group_IT_number 46
_symmetry_cell_setting 'orthorhombic'
loop_
_space_group_symop_operation_xyz
x,y,z
-x,-y,z
1/2-x,y,z
1/2+x,-y,z
1/2+x,1/2+y,1/2+z
1/2-x,1/2-y,1/2+z
-x,1/2+y,1/2+z
x,1/2-y,1/2+z
loop_
_atom_site_type_symbol
_atom_site_label
_atom_site_fract_x
_atom_site_fract_y
_atom_site_fract_z
Si Si1 0.915703 0.572668 0.292710
Si Si2 0.593182 0.565077 0.733441
Si Si3 0.579395 0.280137 0.877560
Si Si4 0.920030 0.426750 0.544647
Si Si5 0.413897 0.797304 0.745028
Si Si6 0.419208 0.142960 0.928703
Si Si7 0.084791 0.428826 0.883234
Si Si8 0.912823 0.327565 0.663061
O O1 0.750000 0.562729 0.279060
O O2 0.929731 0.598259 0.364581
O O3 0.000000 0.500000 0.283320
O O4 0.981285 0.637018 0.252840
O O5 0.500000 0.500000 0.710982
O O6 0.750000 0.556267 0.708377
O O7 0.594847 0.564439 0.808026
O O8 0.523984 0.635619 0.708262
O O9 0.750000 0.282768 0.889908
O O10 0.563417 0.256023 0.804589
O O11 0.499014 0.217927 0.915761
O O12 0.504555 0.355870 0.892204
O O13 0.750000 0.439432 0.535481
O O14 0.933846 0.363548 0.596012
O O15 0.000000 0.500000 0.563506
O O16 0.998152 0.398906 0.482653
O O17 0.250000 0.821978 0.751129
O O18 0.428252 0.755459 0.679660
O O19 0.250000 0.152618 0.942337
O O20 0.250000 0.425289 0.905897
O O21 0.000000 0.500000 0.905092
O O22 0.750000 0.345838 0.682308
#
# Coordination Sequence:
#
# PCOD9378175 Si02
#       8
#     8   8   8   8   8   8   8   8
#     4  10  20  33  52  77 103 131 164 207 257 308
#     4  10  19  28  42  63  92 130 169 206 243 290
#     4  10  18  31  52  74 100 133 170 212 262 314
#     4  11  23  37  53  74 103 139 181 219 256 300
#     4   9  18  32  50  72 100 132 165 205 254 307
#     4  10  21  36  54  75 102 134 174 219 261 307
#     4  10  19  29  43  67  99 133 169 208 251 301
#     4  10  20  34  50  70  99 134 172 212 252 301
#
# _framework density 16.975415999999999
#
# number of rings (size 3 to 8) (size 9 to 14) (size 15 to 20)
#    0.000    2.000    1.250    3.000    0.000    6.500 
#    0.000    0.000    0.000    0.000    0.000    0.875 
#    0.000    2.000    0.000    0.000    0.000    0.125 
#
# Total GULP energy -178347.339762 kJ/mol
# GULP energy per Si atom -5573.354368 kJ/mol
# Density = 1.693678 g / cm^3
# Si number density = 16.975416 Si / 1000 Ang^3
#
#
#
# Elastic Constant Matrix: (Units=GPa)
#
#
# Indices 1 2 3 4 5 6 
#
# 1 147.5374 84.3549 37.4580 0.0000 0.0000 0.0000
# 2 84.3549 110.8271 23.2910 0.0000 0.0000 0.0000
# 3 37.4580 23.2910 41.4521 0.0000 0.0000 0.0000
# 4 0.0000 0.0000 0.0000 20.0788 0.0000 0.0000
# 5 0.0000 0.0000 0.0000 0.0000 23.7723 0.0000
# 6 0.0000 0.0000 0.0000 0.0000 0.0000 33.4334
#
#
#
# Elastic Compliance Matrix: (Units=1/GPa)
#
#
# Indices 1 2 3 4 5 6 
#
# 1 0.013758 -0.008912 -0.007426 0.000000 0.000000 0.000000
# 2 -0.008912 0.016003 -0.000939 0.000000 0.000000 0.000000
# 3 -0.007426 -0.000939 0.031362 0.000000 0.000000 0.000000
# 4 0.000000 0.000000 0.000000 0.049804 0.000000 0.000000
# 5 0.000000 0.000000 0.000000 0.000000 0.042066 0.000000
# 6 0.000000 0.000000 0.000000 0.000000 0.000000 0.029910
#
#
# Mechanical properties :
#
#
# Convention : Reuss Voigt Hill
#
# Bulk Modulus (GPa) = 37.63438 65.55824 51.59631
# Shear Modulus (GPa) = 22.09332 25.77108 23.93220
#
# Velocity S-wave (km/s) = 3.61153 3.90056 3.75882
# Velocity P-wave (km/s) = 6.29356 7.68044 7.02133
#
# Compressibility (1/GPa) = 0.02657145
#
# Stress axis : x y z
#
# Youngs Moduli (GPa) = 72.68299 62.48700 31.88582
#
# Poissons Ratio (x) = 0.55685 0.23677
# Poissons Ratio (y) = 0.64772 0.02994
# Poissons Ratio (z) = 0.53971 0.05868
#
# Static dielectric constant tensor:
#      x y z
#    x 1.573280 0.000000 0.000000 
#    y 0.000000 1.577520 0.000000 
#    z 0.000000 0.000000 1.568720 
# 
# From -- ./inp_files/21290.got.cif
#   From: 2010.05.17/outbox.cif.g08.bks.cpg/sg46_11_cif.got.tgz:21290.got - 2010.06.03 19:58:25.
