data_PCOD9378930
_publ_section_title
;
Structure prediction by ZEFSAII (Michael W. Deem and Ramdas Pophale) SiO2 
 PCOD9378930
Probable space group: I M A 2
;
_chemical_formula_sum "Si O2"
_cell_formula_units_Z 64
_cell_length_a 8.741390
_cell_length_b 25.568592
_cell_length_c 15.389172
_cell_angle_alpha 90.000000
_cell_angle_beta 90.000000
_cell_angle_gamma 90.000000
_cell_volume 3439.557418
_symmetry_space_group_name_H-M "I M A 2"
_symmetry_group_IT_number 46
_symmetry_cell_setting 'orthorhombic'
loop_
_space_group_symop_operation_xyz
x,y,z
-x,-y,z
1/2-x,y,z
1/2+x,-y,z
1/2+x,1/2+y,1/2+z
1/2-x,1/2-y,1/2+z
-x,1/2+y,1/2+z
x,1/2-y,1/2+z
loop_
_atom_site_type_symbol
_atom_site_label
_atom_site_fract_x
_atom_site_fract_y
_atom_site_fract_z
Si Si1 0.066711 0.444004 0.648170
Si Si2 0.065447 0.346621 0.527528
Si Si3 0.433823 0.864991 0.653762
Si Si4 0.566340 0.264639 0.044667
Si Si5 0.566679 0.391199 0.816398
Si Si6 0.933421 0.664459 0.327801
Si Si7 0.933541 0.782255 0.353352
Si Si8 0.565210 0.058103 0.500840
O O1 0.250000 0.446806 0.651676
O O2 0.023186 0.397745 0.581691
O O3 0.000000 0.500000 0.622531
O O4 0.002645 0.427560 0.742049
O O5 0.250000 0.340552 0.530432
O O6 0.020310 0.350629 0.425919
O O7 0.991931 0.293572 0.564424
O O8 0.250000 0.866689 0.656888
O O9 0.478430 0.808554 0.614138
O O10 0.497728 0.869209 0.750405
O O11 0.485399 0.908635 0.584726
O O12 0.750000 0.264922 0.036137
O O13 0.493371 0.280916 0.952441
O O14 0.750000 0.391394 0.810967
O O15 0.505215 0.332252 0.806975
O O16 0.521209 0.412431 0.911722
O O17 0.750000 0.661606 0.323980
O O18 0.977901 0.725528 0.315783
O O19 0.750000 0.786121 0.352502
O O20 0.750000 0.056075 0.501878
O O21 0.500000 0.000000 0.501539
#
# Coordination Sequence:
#
# PCOD9378930 Si02
#       8
#     8   8   8   8   8   8   8   8
#     4  11  24  42  62  86 116 152 198 249 298 353
#     4   9  21  41  60  82 116 152 193 245 295 348
#     4  10  21  37  55  83 119 152 189 239 289 338
#     4  10  19  34  56  84 117 152 190 235 290 347
#     4  11  22  38  59  85 120 157 193 240 290 349
#     4   9  20  37  57  83 115 152 192 237 287 344
#     4  10  20  35  55  84 120 156 193 233 285 347
#     4  10  22  40  58  81 115 152 192 235 283 338
#
# _framework density 18.607044999999999
#
# number of rings (size 3 to 8) (size 9 to 14) (size 15 to 20)
#    0.000    2.000    1.250    2.625    1.750    7.000 
#    0.000    0.625    0.000    3.000    0.000    0.000 
#    0.000    0.000    0.000    0.000    0.000    0.000 
#
# Total GULP energy -178720.947879 kJ/mol
# GULP energy per Si atom -5585.029621 kJ/mol
# Density = 1.856469 g / cm^3
# Si number density = 18.607045 Si / 1000 Ang^3
#
#
#
# Elastic Constant Matrix: (Units=GPa)
#
#
# Indices 1 2 3 4 5 6 
#
# 1 23.9688 30.7859 19.5651 0.0000 0.0000 0.0000
# 2 30.7859 112.3727 45.1768 0.0000 0.0000 0.0000
# 3 19.5651 45.1768 78.3035 0.0000 0.0000 0.0000
# 4 0.0000 0.0000 0.0000 28.9270 0.0000 0.0000
# 5 0.0000 0.0000 0.0000 0.0000 23.5257 0.0000
# 6 0.0000 0.0000 0.0000 0.0000 0.0000 31.9377
#
#
#
# Elastic Compliance Matrix: (Units=1/GPa)
#
#
# Indices 1 2 3 4 5 6 
#
# 1 0.068141 -0.015394 -0.008145 0.000000 0.000000 0.000000
# 2 -0.015394 0.015064 -0.004845 0.000000 0.000000 0.000000
# 3 -0.008145 -0.004845 0.017601 0.000000 0.000000 0.000000
# 4 0.000000 0.000000 0.000000 0.034570 0.000000 0.000000
# 5 0.000000 0.000000 0.000000 0.000000 0.042507 0.000000
# 6 0.000000 0.000000 0.000000 0.000000 0.000000 0.031311
#
#
# Mechanical properties :
#
#
# Convention : Reuss Voigt Hill
#
# Bulk Modulus (GPa) = 22.70664 45.07787 33.89225
# Shear Modulus (GPa) = 17.81640 24.81921 21.31780
#
# Velocity S-wave (km/s) = 3.09772 3.65617 3.38847
# Velocity P-wave (km/s) = 5.00242 6.48862 5.79338
#
# Compressibility (1/GPa) = 0.04403999
#
# Stress axis : x y z
#
# Youngs Moduli (GPa) = 14.67538 66.38332 56.81489
#
# Poissons Ratio (x) = 1.02189 0.46273
# Poissons Ratio (y) = 0.22591 0.27525
# Poissons Ratio (z) = 0.11952 0.32161
#
# Static dielectric constant tensor:
#      x y z
#    x 1.626040 0.000000 0.000000 
#    y 0.000000 1.629350 0.000000 
#    z 0.000000 0.000000 1.643970 
# 
# From -- ./inp_files/14430.got.cif
#   From: 2010.05.17/outbox.cif.g08.bks.cpg/sg46_8_cif.got.tgz:14430.got - 2010.06.03 19:58:25.
