data_PCOD9378171
_publ_section_title
;
Structure prediction by ZEFSAII (Michael W. Deem and Ramdas Pophale) SiO2 
 PCOD9378171
Probable space group: I M A 2
;
_chemical_formula_sum "Si O2"
_cell_formula_units_Z 48
_cell_length_a 8.547749
_cell_length_b 13.544049
_cell_length_c 18.068932
_cell_angle_alpha 90.000000
_cell_angle_beta 90.000000
_cell_angle_gamma 90.000000
_cell_volume 2091.860699
_symmetry_space_group_name_H-M "I M A 2"
_symmetry_group_IT_number 46
_symmetry_cell_setting 'orthorhombic'
loop_
_space_group_symop_operation_xyz
x,y,z
-x,-y,z
1/2-x,y,z
1/2+x,-y,z
1/2+x,1/2+y,1/2+z
1/2-x,1/2-y,1/2+z
-x,1/2+y,1/2+z
x,1/2-y,1/2+z
loop_
_atom_site_type_symbol
_atom_site_label
_atom_site_fract_x
_atom_site_fract_y
_atom_site_fract_z
Si Si1 0.927815 0.399308 0.458190
Si Si2 0.430177 0.662094 0.620738
Si Si3 0.070268 0.135330 0.583581
Si Si4 0.563815 0.679391 0.771915
Si Si5 0.432019 0.603039 0.237672
Si Si6 0.438543 0.823770 0.429459
O O1 0.750000 0.396827 0.432724
O O2 0.928243 0.403794 0.547826
O O3 0.992862 0.291758 0.436487
O O4 0.000000 0.500000 0.430357
O O5 0.250000 0.700119 0.627429
O O6 0.551833 0.747663 0.598882
O O7 0.484060 0.627109 0.701037
O O8 0.250000 0.104748 0.592813
O O9 0.959627 0.097505 0.648986
O O10 0.009309 0.120612 0.500478
O O11 0.750000 0.670053 0.769315
O O12 0.516782 0.796232 0.763720
O O13 0.496839 0.641768 0.849762
O O14 0.500000 0.500000 0.266992
O O15 0.250000 0.611880 0.254457
O O16 0.250000 0.826138 0.434800
#
# Coordination Sequence:
#
# PCOD9378171 Si02
#       6
#     8   8   8   8   8   8
#     4   9  19  32  50  73  99 130 165 200 243 291
#     4   9  17  32  50  70  96 131 168 203 245 297
#     4  10  18  31  51  75  98 127 168 211 248 293
#     4  11  21  33  51  77 102 131 168 209 253 299
#     4  11  21  35  53  75 103 136 169 207 251 301
#     4  10  20  35  51  72 102 137 169 204 250 301
#
# _framework density 22.946079000000001
#
# number of rings (size 3 to 8) (size 9 to 14) (size 15 to 20)
#    0.000    2.000    0.000    8.500    0.000    4.667 
#    0.000    1.667    0.000    1.000    0.000    4.667 
#    0.000    0.000    0.000    0.000    0.000    0.000 
#
# Total GULP energy -133981.976532 kJ/mol
# GULP energy per Si atom -5582.582356 kJ/mol
# Density = 2.289385 g / cm^3
# Si number density = 22.946079 Si / 1000 Ang^3
#
#
#
# Elastic Constant Matrix: (Units=GPa)
#
#
# Indices 1 2 3 4 5 6 
#
# 1 108.7081 6.7354 34.0596 0.0000 0.0000 0.0000
# 2 6.7354 37.4693 -6.0462 0.0000 0.0000 0.0000
# 3 34.0596 -6.0462 203.8615 0.0000 0.0000 0.0000
# 4 0.0000 0.0000 0.0000 -7.6081 0.0000 0.0000
# 5 0.0000 0.0000 0.0000 0.0000 12.3292 0.0000
# 6 0.0000 0.0000 0.0000 0.0000 0.0000 17.5928
#
#
#
# Elastic Compliance Matrix: (Units=1/GPa)
#
#
# Indices 1 2 3 4 5 6 
#
# 1 0.009861 -0.002048 -0.001708 0.000000 0.000000 0.000000
# 2 -0.002048 0.027242 0.001150 0.000000 0.000000 0.000000
# 3 -0.001708 0.001150 0.005225 0.000000 0.000000 0.000000
# 4 0.000000 0.000000 0.000000 -0.131438 0.000000 0.000000
# 5 0.000000 0.000000 0.000000 0.000000 0.081108 0.000000
# 6 0.000000 0.000000 0.000000 0.000000 0.000000 0.056842
#
#
# Mechanical properties :
#
#
# Convention : Reuss Voigt Hill
#
# Bulk Modulus (GPa) = 26.94292 46.61517 36.77905
# Shear Modulus (GPa) = 75.27386 25.48211 50.37798
#
# Velocity S-wave (km/s) = 5.73375 3.33606 4.69069
# Velocity P-wave (km/s) = 7.45666 5.93281 6.73796
#
# Compressibility (1/GPa) = 0.03711550
#
# Stress axis : x y z
#
# Youngs Moduli (GPa) = 101.40886 36.70758 191.39464
#
# Poissons Ratio (x) = 0.07519 0.32695
# Poissons Ratio (y) = 0.20771 -0.22014
# Poissons Ratio (z) = 0.17323 -0.04222
#
# Static dielectric constant tensor:
#      x y z
#    x 1.781440 0.000000 0.000000 
#    y 0.000000 1.925290 0.000000 
#    z 0.000000 0.000000 1.903850 
# 
# From -- ./inp_files/18177.got.cif
#   From: 2010.05.17/outbox.cif.g08.bks.cpg/sg46_10_cif.got.tgz:18177.got - 2010.06.03 19:58:25.
