data_PCOD9378676
_publ_section_title
;
Structure prediction by ZEFSAII (Michael W. Deem and Ramdas Pophale) SiO2 
 PCOD9378676
Probable space group: I M A 2
;
_chemical_formula_sum "Si O2"
_cell_formula_units_Z 64
_cell_length_a 8.245538
_cell_length_b 16.809121
_cell_length_c 22.926826
_cell_angle_alpha 90.000000
_cell_angle_beta 90.000000
_cell_angle_gamma 90.000000
_cell_volume 3177.663723
_symmetry_space_group_name_H-M "I M A 2"
_symmetry_group_IT_number 46
_symmetry_cell_setting 'orthorhombic'
loop_
_space_group_symop_operation_xyz
x,y,z
-x,-y,z
1/2-x,y,z
1/2+x,-y,z
1/2+x,1/2+y,1/2+z
1/2-x,1/2-y,1/2+z
-x,1/2+y,1/2+z
x,1/2-y,1/2+z
loop_
_atom_site_type_symbol
_atom_site_label
_atom_site_fract_x
_atom_site_fract_y
_atom_site_fract_z
Si Si1 0.443273 0.413147 0.175320
Si Si2 0.442402 0.132252 0.545594
Si Si3 0.946833 0.244839 0.884536
Si Si4 0.063330 0.911391 0.228868
Si Si5 0.946552 0.232881 0.756350
Si Si6 0.444146 0.580738 0.923380
Si Si7 0.061578 0.699322 0.510180
Si Si8 0.935848 0.919411 0.101172
O O1 0.500000 0.500000 0.197215
O O2 0.250000 0.413183 0.176636
O O3 0.494531 0.404342 0.107305
O O4 0.499663 0.335233 0.211220
O O5 0.250000 0.150496 0.549291
O O6 0.473070 0.082615 0.487049
O O7 0.545389 0.211009 0.533040
O O8 0.750000 0.243594 0.886065
O O9 0.997635 0.211250 0.822360
O O10 0.993039 0.337783 0.891277
O O11 0.999158 0.200520 0.943427
O O12 0.250000 0.910537 0.247366
O O13 0.993879 0.824521 0.247198
O O14 0.043247 0.907691 0.158718
O O15 0.000000 0.000000 0.245404
O O16 0.750000 0.235613 0.753255
O O17 0.500000 0.500000 0.892772
O O18 0.250000 0.581258 0.929733
O O19 0.250000 0.674308 0.512080
O O20 0.957521 0.648316 0.554241
O O21 0.750000 0.926477 0.120365
O O22 0.000000 0.000000 0.072786
#
# Coordination Sequence:
#
# PCOD9378676 Si02
#       8
#     8   8   8   8   8   8   8   8
#     4  11  24  39  57  82 110 143 184 231 280 330
#     4  10  20  34  54  81 111 141 176 217 266 325
#     4   8  18  36  55  75 102 139 180 221 263 314
#     4  10  20  34  56  85 116 149 184 223 272 329
#     4  10  21  39  60  80 108 148 190 230 274 323
#     4  10  19  32  52  79 111 143 176 215 264 320
#     4  10  19  34  56  80 108 140 175 216 268 324
#     4  11  21  34  53  78 109 139 174 219 269 325
#
# _framework density 20.140581999999998
#
# number of rings (size 3 to 8) (size 9 to 14) (size 15 to 20)
#    0.000    2.000    0.000    5.625    0.000    6.500 
#    0.000    4.375    0.000    0.000    0.000    0.000 
#    0.000    0.000    0.000    0.000    0.000    0.000 
#
# Total GULP energy -178460.865444 kJ/mol
# GULP energy per Si atom -5576.902045 kJ/mol
# Density = 2.009474 g / cm^3
# Si number density = 20.140582 Si / 1000 Ang^3
#
#
#
# Elastic Constant Matrix: (Units=GPa)
#
#
# Indices 1 2 3 4 5 6 
#
# 1 32.8088 1.2786 4.5280 0.0000 0.0000 0.0000
# 2 1.2786 74.3046 32.6562 0.0000 0.0000 0.0000
# 3 4.5280 32.6562 86.0861 0.0000 0.0000 0.0000
# 4 0.0000 0.0000 0.0000 6.2284 0.0000 0.0000
# 5 0.0000 0.0000 0.0000 0.0000 -10.5019 0.0000
# 6 0.0000 0.0000 0.0000 0.0000 0.0000 31.6937
#
#
#
# Elastic Compliance Matrix: (Units=1/GPa)
#
#
# Indices 1 2 3 4 5 6 
#
# 1 0.030705 0.000218 -0.001698 0.000000 0.000000 0.000000
# 2 0.000218 0.016152 -0.006139 0.000000 0.000000 0.000000
# 3 -0.001698 -0.006139 0.014034 0.000000 0.000000 0.000000
# 4 0.000000 0.000000 0.000000 0.160555 0.000000 0.000000
# 5 0.000000 0.000000 0.000000 0.000000 -0.095221 0.000000
# 6 0.000000 0.000000 0.000000 0.000000 0.000000 0.031552
#
#
# Mechanical properties :
#
#
# Convention : Reuss Voigt Hill
#
# Bulk Modulus (GPa) = 21.90352 30.01387 25.95869
# Shear Modulus (GPa) = 26.56273 15.79982 21.18128
#
# Velocity S-wave (km/s) = 3.63556 2.80389 3.24647
# Velocity P-wave (km/s) = 5.34060 5.04152 5.19321
#
# Compressibility (1/GPa) = 0.04565477
#
# Stress axis : x y z
#
# Youngs Moduli (GPa) = 32.56748 61.91083 71.25425
#
# Poissons Ratio (x) = -0.01348 0.12096
# Poissons Ratio (y) = -0.00709 0.43741
# Poissons Ratio (z) = 0.05529 0.38005
#
# Static dielectric constant tensor:
#      x y z
#    x 1.722620 0.000000 0.000000 
#    y 0.000000 1.785230 0.000000 
#    z 0.000000 0.000000 1.715280 
# 
# From -- ./inp_files/23294.got.cif
#   From: 2010.05.17/outbox.cif.g08.bks.cpg/sg46_12_cif.got.tgz:23294.got - 2010.06.03 19:58:25.
