data_PCOD9378911
_publ_section_title
;
Structure prediction by ZEFSAII (Michael W. Deem and Ramdas Pophale) SiO2 
 PCOD9378911
Probable space group: I M A 2
;
_chemical_formula_sum "Si O2"
_cell_formula_units_Z 56
_cell_length_a 8.971640
_cell_length_b 20.515933
_cell_length_c 15.575765
_cell_angle_alpha 90.000000
_cell_angle_beta 90.000000
_cell_angle_gamma 90.000000
_cell_volume 2866.899684
_symmetry_space_group_name_H-M "I M A 2"
_symmetry_group_IT_number 46
_symmetry_cell_setting 'orthorhombic'
loop_
_space_group_symop_operation_xyz
x,y,z
-x,-y,z
1/2-x,y,z
1/2+x,-y,z
1/2+x,1/2+y,1/2+z
1/2-x,1/2-y,1/2+z
-x,1/2+y,1/2+z
x,1/2-y,1/2+z
loop_
_atom_site_type_symbol
_atom_site_label
_atom_site_fract_x
_atom_site_fract_y
_atom_site_fract_z
Si Si1 0.082581 0.742257 0.010850
Si Si2 0.078138 0.430628 0.608359
Si Si3 0.925524 0.690299 0.852501
Si Si4 0.586243 0.109848 0.952129
Si Si5 0.070330 0.715385 0.208403
Si Si6 0.924897 0.430038 0.254152
Si Si7 0.426991 0.928404 0.272293
O O1 0.250000 0.712341 0.004461
O O2 0.043685 0.742311 0.111916
O O3 0.096091 0.813418 0.967999
O O4 0.961549 0.709475 0.950183
O O5 0.250000 0.431941 0.632044
O O6 0.000000 0.500000 0.608891
O O7 0.050002 0.408022 0.512801
O O8 0.983511 0.396078 0.682422
O O9 0.750000 0.684062 0.836977
O O10 0.992127 0.742922 0.783939
O O11 0.009884 0.622067 0.839933
O O12 0.750000 0.082698 0.980821
O O13 0.562058 0.085963 0.855976
O O14 0.250000 0.718045 0.224336
O O15 0.024195 0.638580 0.211499
O O16 0.750000 0.436952 0.234234
O O17 0.000000 0.500000 0.235265
O O18 0.250000 0.933750 0.272415
O O19 0.500000 0.000000 0.282465
#
# Coordination Sequence:
#
# PCOD9378911 Si02
#       7
#     8   8   8   8   8   8   8
#     4  10  21  39  64  88 116 157 207 258 311 369
#     4  11  21  33  51  80 117 153 195 239 296 364
#     4  12  24  39  62  93 127 159 199 252 315 380
#     4  10  19  34  55  83 116 153 201 256 312 373
#     4  10  21  41  66  91 121 166 217 263 314 378
#     4  10  21  37  58  86 121 162 213 260 316 378
#     4  11  22  39  61  85 118 158 202 248 305 366
#
# _framework density 19.533294999999999
#
# number of rings (size 3 to 8) (size 9 to 14) (size 15 to 20)
#    0.000    1.429    1.429    6.000    0.000    4.571 
#    0.000    0.714    0.000    1.714    0.000    0.000 
#    0.000    0.000    0.000    0.000    0.000    0.000 
#
# Total GULP energy -156071.295661 kJ/mol
# GULP energy per Si atom -5573.974845 kJ/mol
# Density = 1.948884 g / cm^3
# Si number density = 19.533295 Si / 1000 Ang^3
#
#
#
# Elastic Constant Matrix: (Units=GPa)
#
#
# Indices 1 2 3 4 5 6 
#
# 1 125.2117 36.4805 31.3035 0.0000 0.0000 0.0000
# 2 36.4805 93.5931 17.9961 0.0000 0.0000 0.0000
# 3 31.3035 17.9961 58.6232 0.0000 0.0000 0.0000
# 4 0.0000 0.0000 0.0000 23.6562 0.0000 0.0000
# 5 0.0000 0.0000 0.0000 0.0000 29.5119 0.0000
# 6 0.0000 0.0000 0.0000 0.0000 0.0000 22.9209
#
#
#
# Elastic Compliance Matrix: (Units=1/GPa)
#
#
# Indices 1 2 3 4 5 6 
#
# 1 0.009970 -0.003042 -0.004390 0.000000 0.000000 0.000000
# 2 -0.003042 0.012283 -0.002146 0.000000 0.000000 0.000000
# 3 -0.004390 -0.002146 0.020061 0.000000 0.000000 0.000000
# 4 0.000000 0.000000 0.000000 0.042272 0.000000 0.000000
# 5 0.000000 0.000000 0.000000 0.000000 0.033885 0.000000
# 6 0.000000 0.000000 0.000000 0.000000 0.000000 0.043628
#
#
# Mechanical properties :
#
#
# Convention : Reuss Voigt Hill
#
# Bulk Modulus (GPa) = 43.18217 49.88756 46.53487
# Shear Modulus (GPa) = 26.45845 27.99433 27.22639
#
# Velocity S-wave (km/s) = 3.68439 3.78982 3.73747
# Velocity P-wave (km/s) = 6.34465 6.68921 6.51920
#
# Compressibility (1/GPa) = 0.02315770
#
# Stress axis : x y z
#
# Youngs Moduli (GPa) = 100.29764 81.41362 49.84761
#
# Poissons Ratio (x) = 0.24767 0.21883
# Poissons Ratio (y) = 0.30511 0.10698
# Poissons Ratio (z) = 0.44031 0.17473
#
# Static dielectric constant tensor:
#      x y z
#    x 1.589330 0.000000 0.000000 
#    y 0.000000 2.508620 0.000000 
#    z 0.000000 0.000000 1.817790 
# 
# From -- ./inp_files/14218.got.cif
#   From: 2010.05.17/outbox.cif.g08.bks.cpg/sg46_8_cif.got.tgz:14218.got - 2010.06.03 19:58:25.
