data_PCOD9378486
_publ_section_title
;
Structure prediction by ZEFSAII (Michael W. Deem and Ramdas Pophale) SiO2 
 PCOD9378486
Probable space group: I M A 2
;
_chemical_formula_sum "Si O2"
_cell_formula_units_Z 64
_cell_length_a 11.189386
_cell_length_b 8.659681
_cell_length_c 30.929446
_cell_angle_alpha 90.000000
_cell_angle_beta 90.000000
_cell_angle_gamma 90.000000
_cell_volume 2996.955477
_symmetry_space_group_name_H-M "I M A 2"
_symmetry_group_IT_number 46
_symmetry_cell_setting 'orthorhombic'
loop_
_space_group_symop_operation_xyz
x,y,z
-x,-y,z
1/2-x,y,z
1/2+x,-y,z
1/2+x,1/2+y,1/2+z
1/2-x,1/2-y,1/2+z
-x,1/2+y,1/2+z
x,1/2-y,1/2+z
loop_
_atom_site_type_symbol
_atom_site_label
_atom_site_fract_x
_atom_site_fract_y
_atom_site_fract_z
Si Si1 0.880293 0.441304 0.919660
Si Si2 0.621148 0.431755 0.509603
Si Si3 0.118504 0.402048 0.284343
Si Si4 0.382256 0.600736 0.046048
Si Si5 0.380550 0.924622 0.907902
Si Si6 0.878968 0.573427 0.823560
Si Si7 0.120659 0.822367 0.646587
Si Si8 0.379253 0.325006 0.183419
O O1 0.750000 0.465734 0.940715
O O2 0.890331 0.260849 0.907830
O O3 0.878018 0.534188 0.874418
O O4 0.000000 0.500000 0.942897
O O5 0.500000 0.500000 0.528959
O O6 0.750000 0.481497 0.528228
O O7 0.615234 0.247318 0.514385
O O8 0.623116 0.471026 0.458661
O O9 0.250000 0.480139 0.288179
O O10 0.116282 0.254574 0.315267
O O11 0.112566 0.340371 0.234987
O O12 0.000000 0.500000 0.291086
O O13 0.500000 0.500000 0.040474
O O14 0.250000 0.524540 0.042520
O O15 0.387739 0.666922 0.094929
O O16 0.250000 0.967027 0.889223
O O17 0.500000 0.000000 0.889181
O O18 0.750000 0.516542 0.806046
O O19 0.000000 0.500000 0.805011
O O20 0.250000 0.753097 0.658411
O O21 0.999865 0.749833 0.665324
O O22 0.122937 0.999521 0.664394
O O23 0.250000 0.254510 0.172075
#
# Coordination Sequence:
#
# PCOD9378486 Si02
#       8
#     8   8   8   8   8   8   8   8
#     4   9  18  34  55  77 104 138 169 203 253 309
#     4   9  19  35  52  73 105 140 173 213 259 308
#     4  10  19  31  51  79 104 130 170 216 260 307
#     4  10  19  30  47  74 105 137 174 217 260 304
#     4   9  18  34  56  80 103 132 174 218 257 302
#     4   9  19  36  54  73 102 137 169 205 256 314
#     4   9  15  25  42  67  98 129 164 210 257 296
#     4   9  15  25  43  69  97 125 163 212 256 294
#
# _framework density 21.355004999999998
#
# number of rings (size 3 to 8) (size 9 to 14) (size 15 to 20)
#    0.000    2.750    2.500    0.000    0.000    2.000 
#    0.000    2.500    0.000   14.250    0.000    5.250 
#    0.000    0.000    0.000    0.000    0.000    0.000 
#
# Total GULP energy -178324.699250 kJ/mol
# GULP energy per Si atom -5572.646852 kJ/mol
# Density = 2.130640 g / cm^3
# Si number density = 21.355005 Si / 1000 Ang^3
#
#
#
# Elastic Constant Matrix: (Units=GPa)
#
#
# Indices 1 2 3 4 5 6 
#
# 1 322.0160 55.1378 21.2825 0.0000 0.0000 0.0000
# 2 55.1378 13.7546 4.6825 0.0000 0.0000 0.0000
# 3 21.2825 4.6825 53.8167 0.0000 0.0000 0.0000
# 4 0.0000 0.0000 0.0000 -8.0339 0.0000 0.0000
# 5 0.0000 0.0000 0.0000 0.0000 -30.5078 0.0000
# 6 0.0000 0.0000 0.0000 0.0000 0.0000 40.2342
#
#
#
# Elastic Compliance Matrix: (Units=1/GPa)
#
#
# Indices 1 2 3 4 5 6 
#
# 1 0.009914 -0.039581 -0.000477 0.000000 0.000000 0.000000
# 2 -0.039581 0.232941 -0.004615 0.000000 0.000000 0.000000
# 3 -0.000477 -0.004615 0.019172 0.000000 0.000000 0.000000
# 4 0.000000 0.000000 0.000000 -0.124473 0.000000 0.000000
# 5 0.000000 0.000000 0.000000 0.000000 -0.032778 0.000000
# 6 0.000000 0.000000 0.000000 0.000000 0.000000 0.024854
#
#
# Mechanical properties :
#
#
# Convention : Reuss Voigt Hill
#
# Bulk Modulus (GPa) = 5.79100 61.31030 33.55065
# Shear Modulus (GPa) = 18.08083 20.90412 19.49247
#
# Velocity S-wave (km/s) = 2.91293 3.13211 3.02451
# Velocity P-wave (km/s) = 3.74583 6.46935 5.28601
#
# Compressibility (1/GPa) = 0.17268173
#
# Stress axis : x y z
#
# Youngs Moduli (GPa) = 100.86512 4.29293 52.16014
#
# Poissons Ratio (x) = 0.16992 0.02487
# Poissons Ratio (y) = 3.99231 0.24072
# Poissons Ratio (z) = 0.04810 0.01981
#
# Static dielectric constant tensor:
#      x y z
#    x 1.888690 0.000000 0.000000 
#    y 0.000000 1.735890 0.000000 
#    z 0.000000 0.000000 1.769140 
# 
# From -- ./inp_files/25362.got.cif
#   From: 2010.05.17/outbox.cif.g08.bks.cpg/sg46_13_cif.got.tgz:25362.got - 2010.06.03 19:58:25.
