data_PCOD9378530
_publ_section_title
;
Structure prediction by ZEFSAII (Michael W. Deem and Ramdas Pophale) SiO2 
 PCOD9378530
Probable space group: I M A 2
;
_chemical_formula_sum "Si O2"
_cell_formula_units_Z 64
_cell_length_a 8.760843
_cell_length_b 23.849184
_cell_length_c 19.702709
_cell_angle_alpha 90.000000
_cell_angle_beta 90.000000
_cell_angle_gamma 90.000000
_cell_volume 4116.663463
_symmetry_space_group_name_H-M "I M A 2"
_symmetry_group_IT_number 46
_symmetry_cell_setting 'orthorhombic'
loop_
_space_group_symop_operation_xyz
x,y,z
-x,-y,z
1/2-x,y,z
1/2+x,-y,z
1/2+x,1/2+y,1/2+z
1/2-x,1/2-y,1/2+z
-x,1/2+y,1/2+z
x,1/2-y,1/2+z
loop_
_atom_site_type_symbol
_atom_site_label
_atom_site_fract_x
_atom_site_fract_y
_atom_site_fract_z
Si Si1 0.933805 0.834888 0.036830
Si Si2 0.567311 0.249900 0.764619
Si Si3 0.066360 0.771169 0.614756
Si Si4 0.067273 0.437957 0.902321
Si Si5 0.932893 0.768534 0.906377
Si Si6 0.066103 0.125008 0.262204
Si Si7 0.933186 0.338437 0.984541
Si Si8 0.933752 0.561695 0.623204
O O1 0.750000 0.833079 0.041325
O O2 0.984001 0.895156 0.064362
O O3 0.997770 0.786505 0.085802
O O4 0.975893 0.816675 0.960575
O O5 0.750000 0.248267 0.770372
O O6 0.520723 0.222205 0.692959
O O7 0.493901 0.222609 0.831031
O O8 0.512876 0.314572 0.762517
O O9 0.250000 0.766267 0.612945
O O10 0.023851 0.819394 0.560937
O O11 0.250000 0.440093 0.906527
O O12 0.026628 0.409633 0.829822
O O13 0.000000 0.500000 0.906630
O O14 0.002304 0.396683 0.959727
O O15 0.750000 0.762793 0.905470
O O16 0.003196 0.710877 0.935894
O O17 0.250000 0.133501 0.261507
O O18 0.023585 0.090080 0.195153
O O19 0.750000 0.339871 0.979194
O O20 0.750000 0.558144 0.621923
O O21 0.000000 0.500000 0.616679
#
# Coordination Sequence:
#
# PCOD9378530 Si02
#       8
#     8   8   8   8   8   8   8   8
#     4   9  18  32  49  68  93 126 161 198 239 283
#     4  11  20  30  48  73  99 130 161 194 240 288
#     4   9  19  32  48  71  97 124 157 197 243 291
#     4  11  22  34  49  70  97 132 171 202 237 283
#     4  10  19  31  48  70  96 126 160 198 241 289
#     4  10  20  33  47  66  97 132 167 199 229 274
#     4  10  19  33  50  70  96 125 159 202 245 286
#     4  10  20  33  48  68  94 129 166 200 236 276
#
# _framework density 15.546571
#
# number of rings (size 3 to 8) (size 9 to 14) (size 15 to 20)
#    0.000    2.000    2.500    1.875    0.000    3.000 
#    0.000    0.000    0.000    0.000    0.000    0.875 
#    0.000    4.000    0.000    0.000    0.000    0.000 
#
# Total GULP energy -178533.731144 kJ/mol
# GULP energy per Si atom -5579.179098 kJ/mol
# Density = 1.551119 g / cm^3
# Si number density = 15.546571 Si / 1000 Ang^3
#
#
#
# Elastic Constant Matrix: (Units=GPa)
#
#
# Indices 1 2 3 4 5 6 
#
# 1 27.9894 28.4930 38.3276 0.0000 0.0000 0.0000
# 2 28.4930 87.2869 65.2854 0.0000 0.0000 0.0000
# 3 38.3276 65.2854 148.8269 0.0000 0.0000 0.0000
# 4 0.0000 0.0000 0.0000 20.4281 0.0000 0.0000
# 5 0.0000 0.0000 0.0000 0.0000 21.5185 0.0000
# 6 0.0000 0.0000 0.0000 0.0000 0.0000 22.7583
#
#
#
# Elastic Compliance Matrix: (Units=1/GPa)
#
#
# Indices 1 2 3 4 5 6 
#
# 1 0.063320 -0.012610 -0.010775 0.000000 0.000000 0.000000
# 2 -0.012610 0.019562 -0.005334 0.000000 0.000000 0.000000
# 3 -0.010775 -0.005334 0.011834 0.000000 0.000000 0.000000
# 4 0.000000 0.000000 0.000000 0.048952 0.000000 0.000000
# 5 0.000000 0.000000 0.000000 0.000000 0.046472 0.000000
# 6 0.000000 0.000000 0.000000 0.000000 0.000000 0.043940
#
#
# Mechanical properties :
#
#
# Convention : Reuss Voigt Hill
#
# Bulk Modulus (GPa) = 26.82564 58.70170 42.76367
# Shear Modulus (GPa) = 16.45035 21.74079 19.09557
#
# Velocity S-wave (km/s) = 3.25643 3.74362 3.50849
# Velocity P-wave (km/s) = 5.60639 7.51843 6.63168
#
# Compressibility (1/GPa) = 0.03727777
#
# Stress axis : x y z
#
# Youngs Moduli (GPa) = 15.79271 51.11903 84.50302
#
# Poissons Ratio (x) = 0.64463 0.91054
# Poissons Ratio (y) = 0.19915 0.45071
# Poissons Ratio (z) = 0.17017 0.27265
#
# Static dielectric constant tensor:
#      x y z
#    x 1.524260 0.000000 0.000000 
#    y 0.000000 1.484550 0.000000 
#    z 0.000000 0.000000 1.541080 
# 
# From -- ./inp_files/18630.got.cif
#   From: 2010.05.17/outbox.cif.g08.bks.cpg/sg46_10_cif.got.tgz:18630.got - 2010.06.03 19:58:25.
