data_PCOD9378837
_publ_section_title
;
Structure prediction by ZEFSAII (Michael W. Deem and Ramdas Pophale) SiO2 
 PCOD9378837
Probable space group: I M A 2
;
_chemical_formula_sum "Si O2"
_cell_formula_units_Z 56
_cell_length_a 8.777590
_cell_length_b 15.353997
_cell_length_c 19.830363
_cell_angle_alpha 90.000000
_cell_angle_beta 90.000000
_cell_angle_gamma 90.000000
_cell_volume 2672.559647
_symmetry_space_group_name_H-M "I M A 2"
_symmetry_group_IT_number 46
_symmetry_cell_setting 'orthorhombic'
loop_
_space_group_symop_operation_xyz
x,y,z
-x,-y,z
1/2-x,y,z
1/2+x,-y,z
1/2+x,1/2+y,1/2+z
1/2-x,1/2-y,1/2+z
-x,1/2+y,1/2+z
x,1/2-y,1/2+z
loop_
_atom_site_type_symbol
_atom_site_label
_atom_site_fract_x
_atom_site_fract_y
_atom_site_fract_z
Si Si1 0.921227 0.086135 0.653380
Si Si2 0.076049 0.076735 0.927594
Si Si3 0.570469 0.823085 0.286952
Si Si4 0.580425 0.358854 0.301815
Si Si5 0.425482 0.252337 0.512756
Si Si6 0.933513 0.403108 0.924666
Si Si7 0.433372 0.783957 0.146988
O O1 0.750000 0.088433 0.626320
O O2 0.916951 0.083978 0.734569
O O3 0.988970 0.182150 0.644612
O O4 0.000000 0.000000 0.626731
O O5 0.250000 0.055515 0.911207
O O6 0.078287 0.173670 0.956264
O O7 0.963472 0.085083 0.864855
O O8 0.000000 0.000000 0.971655
O O9 0.750000 0.841753 0.287898
O O10 0.537438 0.720380 0.297253
O O11 0.491205 0.872249 0.349878
O O12 0.502381 0.834833 0.211008
O O13 0.750000 0.319407 0.308073
O O14 0.250000 0.231164 0.531408
O O15 0.506113 0.167189 0.480304
O O16 0.510897 0.305019 0.572588
O O17 0.750000 0.404355 0.925898
O O18 0.000000 0.500000 0.937294
O O19 0.250000 0.783944 0.153829
#
# Coordination Sequence:
#
# PCOD9378837 Si02
#       7
#     8   8   8   8   8   8   8
#     4   9  19  32  49  78 113 149 193 241 294 363
#     4  11  23  37  58  87 122 158 201 252 311 376
#     4  11  21  38  63  93 126 163 211 266 321 381
#     4  10  19  33  55  84 119 156 196 242 300 363
#     4  11  24  43  64  93 129 168 216 272 330 394
#     4  12  25  43  69  99 133 176 224 279 337 399
#     4  10  22  40  61  86 120 168 216 265 328 391
#
# _framework density 20.953693000000001
#
# number of rings (size 3 to 8) (size 9 to 14) (size 15 to 20)
#    0.000    1.429    1.429    5.571    0.000    6.857 
#    0.000    2.143    0.000    1.714    0.000    0.000 
#    0.000    0.000    0.000    0.000    0.000    0.000 
#
# Total GULP energy -156052.408380 kJ/mol
# GULP energy per Si atom -5573.300299 kJ/mol
# Density = 2.090600 g / cm^3
# Si number density = 20.953693 Si / 1000 Ang^3
#
#
#
# Elastic Constant Matrix: (Units=GPa)
#
#
# Indices 1 2 3 4 5 6 
#
# 1 120.0035 19.6123 28.0560 0.0000 0.0000 0.0000
# 2 19.6123 54.7235 -8.2233 0.0000 0.0000 0.0000
# 3 28.0560 -8.2233 76.1126 0.0000 0.0000 0.0000
# 4 0.0000 0.0000 0.0000 11.1177 0.0000 0.0000
# 5 0.0000 0.0000 0.0000 0.0000 24.1801 0.0000
# 6 0.0000 0.0000 0.0000 0.0000 0.0000 30.2353
#
#
#
# Elastic Compliance Matrix: (Units=1/GPa)
#
#
# Indices 1 2 3 4 5 6 
#
# 1 0.009986 -0.004200 -0.004135 0.000000 0.000000 0.000000
# 2 -0.004200 0.020342 0.003746 0.000000 0.000000 0.000000
# 3 -0.004135 0.003746 0.015067 0.000000 0.000000 0.000000
# 4 0.000000 0.000000 0.000000 0.089946 0.000000 0.000000
# 5 0.000000 0.000000 0.000000 0.000000 0.041356 0.000000
# 6 0.000000 0.000000 0.000000 0.000000 0.000000 0.033074
#
#
# Mechanical properties :
#
#
# Convention : Reuss Voigt Hill
#
# Bulk Modulus (GPa) = 27.61112 36.63663 32.12387
# Shear Modulus (GPa) = 21.64288 27.19959 24.42124
#
# Velocity S-wave (km/s) = 3.21735 3.60680 3.41763
# Velocity P-wave (km/s) = 5.19688 5.90490 5.56217
#
# Compressibility (1/GPa) = 0.03621729
#
# Stress axis : x y z
#
# Youngs Moduli (GPa) = 100.13757 49.15952 66.36876
#
# Poissons Ratio (x) = 0.20649 0.27443
# Poissons Ratio (y) = 0.42061 -0.24862
# Poissons Ratio (z) = 0.41406 -0.18415
#
# Static dielectric constant tensor:
#      x y z
#    x 1.773050 0.000000 0.000000 
#    y 0.000000 1.827200 0.000000 
#    z 0.000000 0.000000 1.853420 
# 
# From -- ./inp_files/21096.got.cif
#   From: 2010.05.17/outbox.cif.g08.bks.cpg/sg46_11_cif.got.tgz:21096.got - 2010.06.03 19:58:25.
