data_PCOD9378993
_publ_section_title
;
Structure prediction by ZEFSAII (Michael W. Deem and Ramdas Pophale) SiO2 
 PCOD9378993
Probable space group: I M A 2
;
_chemical_formula_sum "Si O2"
_cell_formula_units_Z 60
_cell_length_a 20.676734
_cell_length_b 12.351765
_cell_length_c 12.851687
_cell_angle_alpha 90.000000
_cell_angle_beta 90.000000
_cell_angle_gamma 90.000000
_cell_volume 3282.245797
_symmetry_space_group_name_H-M "I M A 2"
_symmetry_group_IT_number 46
_symmetry_cell_setting 'orthorhombic'
loop_
_space_group_symop_operation_xyz
x,y,z
-x,-y,z
1/2-x,y,z
1/2+x,-y,z
1/2+x,1/2+y,1/2+z
1/2-x,1/2-y,1/2+z
-x,1/2+y,1/2+z
x,1/2-y,1/2+z
loop_
_atom_site_type_symbol
_atom_site_label
_atom_site_fract_x
_atom_site_fract_y
_atom_site_fract_z
Si Si1 0.389181 0.146019 0.274860
Si Si2 0.000000 0.000000 0.994875
Si Si3 0.556748 0.091771 0.604749
Si Si4 0.024006 0.666189 0.667308
Si Si5 0.827415 0.537019 0.197670
Si Si6 0.610592 0.637864 0.397143
Si Si7 0.676998 0.759832 0.093755
Si Si8 0.570034 0.058756 0.368098
O O1 0.450341 0.135993 0.197914
O O2 0.407598 0.247673 0.345714
O O3 0.329539 0.177351 0.202829
O O4 0.381073 0.038144 0.341040
O O5 0.036483 0.912941 0.069573
O O6 0.950291 0.935854 0.922830
O O7 0.530159 0.207944 0.640732
O O8 0.577096 0.103510 0.483410
O O9 0.500000 0.000000 0.614338
O O10 0.620749 0.054800 0.667639
O O11 0.066337 0.638188 0.769407
O O12 0.750000 0.514968 0.186993
O O13 0.842750 0.578365 0.314688
O O14 0.845919 0.638470 0.121666
O O15 0.641137 0.673379 0.505981
O O16 0.750000 0.749110 0.059097
O O17 0.500000 0.000000 0.369523
#
# Coordination Sequence:
#
# PCOD9378993 Si02
#       8
#     8   4   8   8   8   8   8   8
#     4  10  19  35  54  79 118 149 192 241 296 362
#     4  12  24  36  60  92 124 162 192 260 312 360
#     4  11  23  36  61  89 117 157 205 248 301 356
#     4  11  21  37  55  84 121 151 193 248 298 356
#     4  10  23  40  57  87 126 159 203 255 301 358
#     4  11  22  33  59  88 122 156 199 241 314 358
#     4  10  19  35  57  82 117 160 199 246 304 364
#     4   9  19  35  55  81 117 152 185 242 304 348
#
# _framework density 18.280166000000001
#
# number of rings (size 3 to 8) (size 9 to 14) (size 15 to 20)
#    0.000    1.600    3.333    2.800    8.400    0.533 
#    0.000    0.667    0.000    6.400    0.000    0.000 
#    0.000    0.000    0.000    0.000    0.000    0.000 
#
# Total GULP energy -167266.596156 kJ/mol
# GULP energy per Si atom -5575.553205 kJ/mol
# Density = 1.823856 g / cm^3
# Si number density = 18.280166 Si / 1000 Ang^3
#
#
#
# Elastic Constant Matrix: (Units=GPa)
#
#
# Indices 1 2 3 4 5 6 
#
# 1 50.0749 19.1017 19.2841 0.0000 0.0000 0.0000
# 2 19.1017 83.2346 33.8580 0.0000 0.0000 0.0000
# 3 19.2841 33.8580 87.4905 0.0000 0.0000 0.0000
# 4 0.0000 0.0000 0.0000 29.0869 0.0000 0.0000
# 5 0.0000 0.0000 0.0000 0.0000 -14.1069 0.0000
# 6 0.0000 0.0000 0.0000 0.0000 0.0000 17.8313
#
#
#
# Elastic Compliance Matrix: (Units=1/GPa)
#
#
# Indices 1 2 3 4 5 6 
#
# 1 0.022783 -0.003781 -0.003558 0.000000 0.000000 0.000000
# 2 -0.003781 0.014886 -0.004927 0.000000 0.000000 0.000000
# 3 -0.003558 -0.004927 0.014121 0.000000 0.000000 0.000000
# 4 0.000000 0.000000 0.000000 0.034380 0.000000 0.000000
# 5 0.000000 0.000000 0.000000 0.000000 -0.070887 0.000000
# 6 0.000000 0.000000 0.000000 0.000000 0.000000 0.056081
#
#
# Mechanical properties :
#
#
# Convention : Reuss Voigt Hill
#
# Bulk Modulus (GPa) = 36.68872 40.58751 38.63812
# Shear Modulus (GPa) = 47.62670 16.46600 32.04635
#
# Velocity S-wave (km/s) = 5.10983 3.00452 4.19151
# Velocity P-wave (km/s) = 7.41131 5.85554 6.67888
#
# Compressibility (1/GPa) = 0.02725633
#
# Stress axis : x y z
#
# Youngs Moduli (GPa) = 43.89279 67.17570 70.81636
#
# Poissons Ratio (x) = 0.25399 0.25200
# Poissons Ratio (y) = 0.16596 0.34895
# Poissons Ratio (z) = 0.15619 0.33101
#
# Static dielectric constant tensor:
#      x y z
#    x 1.659300 0.000000 0.000000 
#    y 0.000000 1.655850 0.000000 
#    z 0.000000 0.000000 1.706050 
# 
# From -- ./inp_files/12456.got.cif
#   From: 2010.05.17/outbox.cif.g08.bks.cpg/sg46_7_cif.got.tgz:12456.got - 2010.06.03 19:58:25.
