data_PCOD9378557
_publ_section_title
;
Structure prediction by ZEFSAII (Michael W. Deem and Ramdas Pophale) SiO2 
 PCOD9378557
Probable space group: I M A 2
;
_chemical_formula_sum "Si O2"
_cell_formula_units_Z 52
_cell_length_a 9.255403
_cell_length_b 15.639415
_cell_length_c 19.860847
_cell_angle_alpha 90.000000
_cell_angle_beta 90.000000
_cell_angle_gamma 90.000000
_cell_volume 2874.839500
_symmetry_space_group_name_H-M "I M A 2"
_symmetry_group_IT_number 46
_symmetry_cell_setting 'orthorhombic'
loop_
_space_group_symop_operation_xyz
x,y,z
-x,-y,z
1/2-x,y,z
1/2+x,-y,z
1/2+x,1/2+y,1/2+z
1/2-x,1/2-y,1/2+z
-x,1/2+y,1/2+z
x,1/2-y,1/2+z
loop_
_atom_site_type_symbol
_atom_site_label
_atom_site_fract_x
_atom_site_fract_y
_atom_site_fract_z
Si Si1 0.585626 0.712306 0.648780
Si Si2 0.000000 0.500000 0.992254
Si Si3 0.405622 0.840930 0.575012
Si Si4 0.582732 0.586941 0.519238
Si Si5 0.577897 0.415192 0.741062
Si Si6 0.915542 0.223432 0.941408
Si Si7 0.915372 0.873543 0.375237
O O1 0.750000 0.716360 0.673806
O O2 0.529025 0.804238 0.623386
O O3 0.583587 0.649462 0.583895
O O4 0.480009 0.667587 0.701851
O O5 0.081555 0.436432 0.940259
O O6 0.078808 0.565939 0.042033
O O7 0.250000 0.833495 0.609358
O O8 0.405294 0.777463 0.510842
O O9 0.500000 0.500000 0.535608
O O10 0.750000 0.571451 0.500999
O O11 0.494118 0.635864 0.461007
O O12 0.500000 0.500000 0.712262
O O13 0.750000 0.423527 0.737734
O O14 0.521101 0.407508 0.817406
O O15 0.750000 0.213908 0.916521
O O16 0.018497 0.282203 0.895955
O O17 0.750000 0.868491 0.351393
#
# Coordination Sequence:
#
# PCOD9378557 Si02
#       7
#     8   4   8   8   8   8   8
#     4  10  21  36  52  74 105 142 182 222 268 320
#     4  10  20  32  56  84 116 144 182 224 274 324
#     4   9  18  32  51  76 106 141 178 220 269 319
#     4  10  19  31  50  75 102 135 175 219 267 316
#     4  12  24  37  54  77 107 144 183 222 266 322
#     4   9  18  32  49  72 104 137 172 215 266 318
#     4  11  21  34  53  78 111 144 178 219 268 325
#
# _framework density 18.087966999999999
#
# number of rings (size 3 to 8) (size 9 to 14) (size 15 to 20)
#    0.000    1.846    0.769    4.154    0.000    8.615 
#    0.000    0.000    0.000    0.000    2.000    0.000 
#    0.000    0.000    0.000    0.000    0.000    0.000 
#
# Total GULP energy -144924.795223 kJ/mol
# GULP energy per Si atom -5574.030585 kJ/mol
# Density = 1.804680 g / cm^3
# Si number density = 18.087967 Si / 1000 Ang^3
#
#
#
# Elastic Constant Matrix: (Units=GPa)
#
#
# Indices 1 2 3 4 5 6 
#
# 1 161.7705 42.5363 24.4398 0.0000 0.0000 0.0000
# 2 42.5363 65.6894 21.0804 0.0000 0.0000 0.0000
# 3 24.4398 21.0804 35.5568 0.0000 0.0000 0.0000
# 4 0.0000 0.0000 0.0000 22.6231 0.0000 0.0000
# 5 0.0000 0.0000 0.0000 0.0000 22.2961 0.0000
# 6 0.0000 0.0000 0.0000 0.0000 0.0000 11.6395
#
#
#
# Elastic Compliance Matrix: (Units=1/GPa)
#
#
# Indices 1 2 3 4 5 6 
#
# 1 0.007681 -0.004050 -0.002879 0.000000 0.000000 0.000000
# 2 -0.004050 0.020936 -0.009628 0.000000 0.000000 0.000000
# 3 -0.002879 -0.009628 0.035811 0.000000 0.000000 0.000000
# 4 0.000000 0.000000 0.000000 0.044203 0.000000 0.000000
# 5 0.000000 0.000000 0.000000 0.000000 0.044851 0.000000
# 6 0.000000 0.000000 0.000000 0.000000 0.000000 0.085915
#
#
# Mechanical properties :
#
#
# Convention : Reuss Voigt Hill
#
# Bulk Modulus (GPa) = 31.93460 48.79220 40.36340
# Shear Modulus (GPa) = 17.67112 22.97575 20.32343
#
# Velocity S-wave (km/s) = 3.12902 3.56789 3.35563
# Velocity P-wave (km/s) = 5.54507 6.63375 6.11369
#
# Compressibility (1/GPa) = 0.03131400
#
# Stress axis : x y z
#
# Youngs Moduli (GPa) = 130.18345 47.76558 27.92462
#
# Poissons Ratio (x) = 0.19346 0.08038
# Poissons Ratio (y) = 0.52728 0.26886
# Poissons Ratio (z) = 0.37474 0.45989
#
# Static dielectric constant tensor:
#      x y z
#    x 1.640080 0.000000 0.000000 
#    y 0.000000 1.636230 0.000000 
#    z 0.000000 0.000000 1.627580 
# 
# From -- ./inp_files/20981.got.cif
#   From: 2010.05.17/outbox.cif.g08.bks.cpg/sg46_11_cif.got.tgz:20981.got - 2010.06.03 19:58:25.
