data_PCOD9378860
_publ_section_title
;
Structure prediction by ZEFSAII (Michael W. Deem and Ramdas Pophale) SiO2 
 PCOD9378860
Probable space group: I M A 2
;
_chemical_formula_sum "Si O2"
_cell_formula_units_Z 36
_cell_length_a 8.034325
_cell_length_b 21.300779
_cell_length_c 10.976364
_cell_angle_alpha 90.000000
_cell_angle_beta 90.000000
_cell_angle_gamma 90.000000
_cell_volume 1878.466190
_symmetry_space_group_name_H-M "I M A 2"
_symmetry_group_IT_number 46
_symmetry_cell_setting 'orthorhombic'
loop_
_space_group_symop_operation_xyz
x,y,z
-x,-y,z
1/2-x,y,z
1/2+x,-y,z
1/2+x,1/2+y,1/2+z
1/2-x,1/2-y,1/2+z
-x,1/2+y,1/2+z
x,1/2-y,1/2+z
loop_
_atom_site_type_symbol
_atom_site_label
_atom_site_fract_x
_atom_site_fract_y
_atom_site_fract_z
Si Si1 0.567413 0.332410 0.556870
Si Si2 0.436934 0.428848 0.746342
Si Si3 0.250000 0.366584 0.941862
Si Si4 0.750000 0.725702 0.441896
Si Si5 0.062640 0.565120 0.343361
Si Si6 0.250000 0.377043 0.225179
O O1 0.750000 0.301585 0.563774
O O2 0.539219 0.376633 0.673911
O O3 0.413078 0.287525 0.524925
O O4 0.568178 0.381641 0.445403
O O5 0.500000 0.500000 0.741404
O O6 0.250000 0.427867 0.690168
O O7 0.404947 0.404718 0.884089
O O8 0.250000 0.358582 0.085179
O O9 0.250000 0.296019 0.891116
O O10 0.750000 0.678295 0.326451
O O11 0.250000 0.558190 0.293953
O O12 0.000000 0.500000 0.401168
O O13 0.918448 0.583944 0.249949
#
# Coordination Sequence:
#
# PCOD9378860 Si02
#       6
#     8   8   4   4   8   4
#     4  10  20  36  65  95 125 159 204 269 313 367
#     4  10  21  38  60  94 129 167 209 262 320 378
#     4  10  25  40  65  88 124 180 203 262 318 381
#     4  10  21  42  65  90 126 157 224 255 319 379
#     4  10  19  33  56  91 121 154 200 246 309 364
#     4  10  22  38  60  84 120 169 197 255 307 370
#
# _framework density 19.164570000000001
#
# number of rings (size 3 to 8) (size 9 to 14) (size 15 to 20)
#    0.667    1.333    2.222    1.333    3.111    2.667 
#    0.000    4.444    0.000    0.000    0.000    0.000 
#    0.000    0.000    0.000    0.000    0.000    0.000 
#
# Total GULP energy -100247.525708 kJ/mol
# GULP energy per Si atom -5569.306984 kJ/mol
# Density = 1.912095 g / cm^3
# Si number density = 19.164570 Si / 1000 Ang^3
#
#
#
# Elastic Constant Matrix: (Units=GPa)
#
#
# Indices 1 2 3 4 5 6 
#
# 1 138.8744 16.9259 24.0876 0.0000 0.0000 0.0000
# 2 16.9259 43.4017 -3.6554 0.0000 0.0000 0.0000
# 3 24.0876 -3.6554 65.7155 0.0001 0.0000 0.0000
# 4 0.0000 0.0000 0.0001 14.1408 0.0000 0.0000
# 5 0.0000 0.0000 0.0000 0.0000 -1.7875 0.0000
# 6 0.0000 0.0000 0.0000 0.0000 0.0000 17.1078
#
#
#
# Elastic Compliance Matrix: (Units=1/GPa)
#
#
# Indices 1 2 3 4 5 6 
#
# 1 0.008175 -0.003457 -0.003189 0.000000 0.000000 0.000000
# 2 -0.003457 0.024611 0.002636 0.000000 0.000000 0.000000
# 3 -0.003189 0.002636 0.016533 0.000000 0.000000 0.000000
# 4 0.000000 0.000000 0.000000 0.070717 0.000000 0.000000
# 5 0.000000 0.000000 0.000000 0.000000 -0.559443 0.000000
# 6 0.000000 0.000000 0.000000 0.000000 0.000000 0.058453
#
#
# Mechanical properties :
#
#
# Convention : Reuss Voigt Hill
#
# Bulk Modulus (GPa) = 24.21351 35.85642 30.03496
# Shear Modulus (GPa) = -13.92103 19.93445 3.00671
#
# Velocity S-wave (km/s) = -2.69809 3.22867 1.25391
# Velocity P-wave (km/s) = 1.71920 5.71397 4.21931
#
# Compressibility (1/GPa) = 0.04129926
#
# Stress axis : x y z
#
# Youngs Moduli (GPa) = 122.32181 40.63284 60.48661
#
# Poissons Ratio (x) = 0.14046 0.19288
# Poissons Ratio (y) = 0.42283 -0.15944
# Poissons Ratio (z) = 0.39006 -0.10711
#
# Static dielectric constant tensor:
#      x y z
#    x 1.726830 0.000000 0.000000 
#    y 0.000000 1.674770 0.000000 
#    z 0.000000 0.000000 1.654020 
# 
# From -- ./inp_files/9145.got.cif
#   From: 2010.05.17/outbox.cif.g08.bks.cpg/sg46_5_cif.got.tgz:9145.got - 2010.06.03 19:58:25.
