data_PCOD9378555
_publ_section_title
;
Structure prediction by ZEFSAII (Michael W. Deem and Ramdas Pophale) SiO2 
 PCOD9378555
Probable space group: I M A 2
;
_chemical_formula_sum "Si O2"
_cell_formula_units_Z 56
_cell_length_a 9.033269
_cell_length_b 20.785615
_cell_length_c 13.910457
_cell_angle_alpha 90.000000
_cell_angle_beta 90.000000
_cell_angle_gamma 90.000000
_cell_volume 2611.855945
_symmetry_space_group_name_H-M "I M A 2"
_symmetry_group_IT_number 46
_symmetry_cell_setting 'orthorhombic'
loop_
_space_group_symop_operation_xyz
x,y,z
-x,-y,z
1/2-x,y,z
1/2+x,-y,z
1/2+x,1/2+y,1/2+z
1/2-x,1/2-y,1/2+z
-x,1/2+y,1/2+z
x,1/2-y,1/2+z
loop_
_atom_site_type_symbol
_atom_site_label
_atom_site_fract_x
_atom_site_fract_y
_atom_site_fract_z
Si Si1 0.918118 0.097897 0.097030
Si Si2 0.083953 0.168392 0.441959
Si Si3 0.073887 0.649834 0.258668
Si Si4 0.923285 0.249445 0.597166
Si Si5 0.917134 0.562238 0.108179
Si Si6 0.924295 0.566620 0.408494
Si Si7 0.921569 0.066258 0.318413
O O1 0.750000 0.085178 0.060473
O O2 0.935940 0.174613 0.107155
O O3 0.930508 0.069350 0.203037
O O4 0.035028 0.072500 0.020681
O O5 0.250000 0.185887 0.410664
O O6 0.093501 0.113631 0.523820
O O7 0.005927 0.225248 0.501319
O O8 0.993815 0.131639 0.359501
O O9 0.250000 0.651957 0.273894
O O10 0.028208 0.712570 0.195555
O O11 0.021458 0.592330 0.189214
O O12 0.993314 0.629635 0.356651
O O13 0.750000 0.232094 0.585470
O O14 0.750000 0.549394 0.143380
O O15 0.000000 0.500000 0.071671
O O16 0.750000 0.564085 0.392433
O O17 0.000000 0.500000 0.373699
O O18 0.750000 0.064444 0.348021
O O19 0.000000 0.000000 0.349204
#
# Coordination Sequence:
#
# PCOD9378555 Si02
#       7
#     8   8   8   8   8   8   8
#     4  10  23  43  64  87 117 157 202 248 295 349
#     4  10  21  36  57  86 120 155 194 242 294 349
#     4  10  20  36  59  86 117 154 194 240 291 349
#     4   9  20  40  64  89 120 158 199 240 291 353
#     4  10  19  31  49  77 113 151 191 238 291 349
#     4  12  25  41  62  89 120 157 199 247 300 353
#     4  11  23  39  61  88 119 156 200 249 301 354
#
# _framework density 21.440691999999999
#
# number of rings (size 3 to 8) (size 9 to 14) (size 15 to 20)
#    0.000    1.714    0.000    4.286    0.000    7.429 
#    0.000    2.857    0.000    0.000    0.000    0.000 
#    0.000    0.000    0.000    0.000    0.000    0.000 
#
# Total GULP energy -156420.861766 kJ/mol
# GULP energy per Si atom -5586.459349 kJ/mol
# Density = 2.139189 g / cm^3
# Si number density = 21.440692 Si / 1000 Ang^3
#
#
#
# Elastic Constant Matrix: (Units=GPa)
#
#
# Indices 1 2 3 4 5 6 
#
# 1 106.0018 33.4737 19.9714 0.0000 0.0000 0.0000
# 2 33.4737 65.7077 -0.5304 0.0000 0.0000 0.0000
# 3 19.9714 -0.5304 51.4080 0.0000 0.0000 0.0000
# 4 0.0000 0.0000 0.0000 33.9891 0.0000 0.0000
# 5 0.0000 0.0000 0.0000 0.0000 19.6159 0.0000
# 6 0.0000 0.0000 0.0000 0.0000 0.0000 19.1963
#
#
#
# Elastic Compliance Matrix: (Units=1/GPa)
#
#
# Indices 1 2 3 4 5 6 
#
# 1 0.012349 -0.006330 -0.004863 0.000000 0.000000 0.000000
# 2 -0.006330 0.018465 0.002650 0.000000 0.000000 0.000000
# 3 -0.004863 0.002650 0.021369 0.000000 0.000000 0.000000
# 4 0.000000 0.000000 0.000000 0.029421 0.000000 0.000000
# 5 0.000000 0.000000 0.000000 0.000000 0.050979 0.000000
# 6 0.000000 0.000000 0.000000 0.000000 0.000000 0.052093
#
#
# Mechanical properties :
#
#
# Convention : Reuss Voigt Hill
#
# Bulk Modulus (GPa) = 28.49303 36.54965 32.52134
# Shear Modulus (GPa) = 23.42343 25.90712 24.66528
#
# Velocity S-wave (km/s) = 3.30885 3.47985 3.39543
# Velocity P-wave (km/s) = 5.28356 5.76452 5.52927
#
# Compressibility (1/GPa) = 0.03509631
#
# Stress axis : x y z
#
# Youngs Moduli (GPa) = 80.97864 54.15620 46.79746
#
# Poissons Ratio (x) = 0.34282 0.22756
# Poissons Ratio (y) = 0.51261 -0.12400
# Poissons Ratio (z) = 0.39378 -0.14350
#
# Static dielectric constant tensor:
#      x y z
#    x 1.789590 0.000000 0.000000 
#    y 0.000000 1.791500 0.000000 
#    z 0.000000 0.000000 1.808330 
# 
# From -- ./inp_files/14202.got.cif
#   From: 2010.05.17/outbox.cif.g08.bks.cpg/sg46_8_cif.got.tgz:14202.got - 2010.06.03 19:58:25.
