data_PCOD9378675
_publ_section_title
;
Structure prediction by ZEFSAII (Michael W. Deem and Ramdas Pophale) SiO2 
 PCOD9378675
Probable space group: I M A 2
;
_chemical_formula_sum "Si O2"
_cell_formula_units_Z 64
_cell_length_a 8.951135
_cell_length_b 16.403984
_cell_length_c 22.605600
_cell_angle_alpha 90.000000
_cell_angle_beta 90.000000
_cell_angle_gamma 90.000000
_cell_volume 3319.276894
_symmetry_space_group_name_H-M "I M A 2"
_symmetry_group_IT_number 46
_symmetry_cell_setting 'orthorhombic'
loop_
_space_group_symop_operation_xyz
x,y,z
-x,-y,z
1/2-x,y,z
1/2+x,-y,z
1/2+x,1/2+y,1/2+z
1/2-x,1/2-y,1/2+z
-x,1/2+y,1/2+z
x,1/2-y,1/2+z
loop_
_atom_site_type_symbol
_atom_site_label
_atom_site_fract_x
_atom_site_fract_y
_atom_site_fract_z
Si Si1 0.924041 0.420556 0.921700
Si Si2 0.929666 0.228468 0.090654
Si Si3 0.570310 0.586393 0.510569
Si Si4 0.084269 0.199470 0.342247
Si Si5 0.930285 0.414511 0.058090
Si Si6 0.419439 0.110791 0.872304
Si Si7 0.926291 0.417605 0.251488
Si Si8 0.927554 0.750804 0.210967
O O1 0.750000 0.433625 0.925414
O O2 0.000000 0.500000 0.895562
O O3 0.964002 0.345758 0.880914
O O4 0.977723 0.409301 0.989019
O O5 0.750000 0.223316 0.086650
O O6 0.971582 0.324710 0.082399
O O7 0.990478 0.208503 0.155872
O O8 0.001269 0.164815 0.044178
O O9 0.500000 0.500000 0.531035
O O10 0.750000 0.586081 0.518143
O O11 0.539889 0.592568 0.439846
O O12 0.250000 0.163747 0.352380
O O13 0.088902 0.292317 0.363771
O O14 0.052687 0.201108 0.272529
O O15 0.750000 0.421192 0.062932
O O16 0.000000 0.500000 0.081111
O O17 0.250000 0.079088 0.860046
O O18 0.534087 0.084288 0.821576
O O19 0.750000 0.415883 0.241606
O O20 0.000000 0.500000 0.227606
O O21 0.002790 0.338364 0.223172
O O22 0.750000 0.743301 0.200391
#
# Coordination Sequence:
#
# PCOD9378675 Si02
#       8
#     8   8   8   8   8   8   8   8
#     4  10  19  32  52  79 110 141 175 217 269 327
#     4  11  23  40  60  84 115 151 195 243 289 340
#     4  11  23  39  60  86 116 153 195 240 292 346
#     4   9  18  34  55  79 108 140 176 221 272 329
#     4   9  20  36  56  85 118 150 184 225 274 333
#     4   9  19  35  56  84 116 148 182 224 280 343
#     4  11  21  34  55  83 115 149 184 225 277 335
#     4  10  22  40  58  78 107 144 188 233 279 335
#
# _framework density 19.281307999999999
#
# number of rings (size 3 to 8) (size 9 to 14) (size 15 to 20)
#    0.000    2.000    0.000    4.500    0.000    6.500 
#    0.000    1.875    0.000    3.000    0.000    0.000 
#    0.000    0.000    0.000    0.000    0.000    0.000 
#
# Total GULP energy -178566.854234 kJ/mol
# GULP energy per Si atom -5580.214195 kJ/mol
# Density = 1.923742 g / cm^3
# Si number density = 19.281308 Si / 1000 Ang^3
#
#
#
# Elastic Constant Matrix: (Units=GPa)
#
#
# Indices 1 2 3 4 5 6 
#
# 1 62.6884 26.7172 32.9112 0.0000 0.0000 0.0000
# 2 26.7172 70.7502 30.9221 0.0000 0.0000 0.0000
# 3 32.9112 30.9221 77.0056 0.0000 0.0000 0.0000
# 4 0.0000 0.0000 0.0000 -2.9800 0.0000 0.0000
# 5 0.0000 0.0000 0.0000 0.0000 -3.3530 0.0000
# 6 0.0000 0.0000 0.0000 0.0000 0.0000 36.0952
#
#
#
# Elastic Compliance Matrix: (Units=1/GPa)
#
#
# Indices 1 2 3 4 5 6 
#
# 1 0.021979 -0.005087 -0.007351 0.000000 0.000000 0.000000
# 2 -0.005087 0.018320 -0.005182 0.000000 0.000000 0.000000
# 3 -0.007351 -0.005182 0.018209 0.000000 0.000000 0.000000
# 4 0.000000 0.000000 0.000000 -0.335565 0.000000 0.000000
# 5 0.000000 0.000000 0.000000 0.000000 -0.298236 0.000000
# 6 0.000000 0.000000 0.000000 0.000000 0.000000 0.027705
#
#
# Mechanical properties :
#
#
# Convention : Reuss Voigt Hill
#
# Bulk Modulus (GPa) = 42.97864 43.50499 43.24181
# Shear Modulus (GPa) = -9.90899 13.94534 2.01817
#
# Velocity S-wave (km/s) = -2.26943 2.69226 1.02419
# Velocity P-wave (km/s) = 3.93340 5.68125 4.88612
#
# Compressibility (1/GPa) = 0.02326737
#
# Stress axis : x y z
#
# Youngs Moduli (GPa) = 45.49757 54.58414 54.91860
#
# Poissons Ratio (x) = 0.27768 0.40370
# Poissons Ratio (y) = 0.23145 0.28461
# Poissons Ratio (z) = 0.33445 0.28288
#
# Static dielectric constant tensor:
#      x y z
#    x 1.685600 0.000000 0.000000 
#    y 0.000000 1.698950 0.000000 
#    z 0.000000 0.000000 1.678590 
# 
# From -- ./inp_files/23212.got.cif
#   From: 2010.05.17/outbox.cif.g08.bks.cpg/sg46_12_cif.got.tgz:23212.got - 2010.06.03 19:58:25.
