data_PCOD9378156
_publ_section_title
;
Structure prediction by ZEFSAII (Michael W. Deem and Ramdas Pophale) SiO2 
 PCOD9378156
Probable space group: I M A 2
;
_chemical_formula_sum "Si O2"
_cell_formula_units_Z 64
_cell_length_a 9.004491
_cell_length_b 14.523363
_cell_length_c 24.849419
_cell_angle_alpha 90.000000
_cell_angle_beta 90.000000
_cell_angle_gamma 90.000000
_cell_volume 3249.694981
_symmetry_space_group_name_H-M "I M A 2"
_symmetry_group_IT_number 46
_symmetry_cell_setting 'orthorhombic'
loop_
_space_group_symop_operation_xyz
x,y,z
-x,-y,z
1/2-x,y,z
1/2+x,-y,z
1/2+x,1/2+y,1/2+z
1/2-x,1/2-y,1/2+z
-x,1/2+y,1/2+z
x,1/2-y,1/2+z
loop_
_atom_site_type_symbol
_atom_site_label
_atom_site_fract_x
_atom_site_fract_y
_atom_site_fract_z
Si Si1 0.583194 0.378578 0.732110
Si Si2 0.071183 0.099678 0.956923
Si Si3 0.928834 0.401969 0.114548
Si Si4 0.081767 0.079231 0.123704
Si Si5 0.582211 0.341454 0.234186
Si Si6 0.925667 0.594249 0.841564
Si Si7 0.072578 0.194044 0.844601
Si Si8 0.419819 0.247950 0.044494
O O1 0.750000 0.412513 0.744186
O O2 0.520372 0.408775 0.675401
O O3 0.590627 0.268643 0.728800
O O4 0.468651 0.404846 0.778512
O O5 0.250000 0.092339 0.964831
O O6 0.039834 0.131445 0.895979
O O7 0.022944 0.185469 0.994953
O O8 0.000000 0.000000 0.966813
O O9 0.750000 0.403559 0.114672
O O10 0.976641 0.376800 0.176445
O O11 0.000000 0.500000 0.102145
O O12 0.985098 0.330119 0.069600
O O13 0.250000 0.053325 0.136878
O O14 0.086938 0.173634 0.092219
O O15 0.000000 0.000000 0.089990
O O16 0.750000 0.378349 0.241161
O O17 0.493173 0.350129 0.289992
O O18 0.750000 0.588430 0.850434
O O19 0.977229 0.699118 0.856613
O O20 0.000000 0.500000 0.864180
O O21 0.250000 0.200248 0.837561
O O22 0.250000 0.278738 0.032185
#
# Coordination Sequence:
#
# PCOD9378156 Si02
#       8
#     8   8   8   8   8   8   8   8
#     4  10  18  31  49  73 108 148 187 232 280 337
#     4  10  22  42  65  91 120 154 198 249 303 357
#     4  11  23  40  62  90 122 158 199 245 298 358
#     4  11  21  31  48  76 108 146 188 231 283 341
#     4   9  19  35  56  83 117 155 196 243 292 347
#     4  10  19  32  50  76 109 150 192 234 285 343
#     4   9  20  37  59  85 118 158 199 245 298 356
#     4  10  22  40  61  84 116 154 194 244 296 350
#
# _framework density 19.694156
#
# number of rings (size 3 to 8) (size 9 to 14) (size 15 to 20)
#    0.000    2.000    1.250    2.250    0.000    4.000 
#    0.000    3.125    0.000    1.500    0.000    0.000 
#    0.000    0.000    0.000    0.000    0.000    0.000 
#
# Total GULP energy -178337.753750 kJ/mol
# GULP energy per Si atom -5573.054805 kJ/mol
# Density = 1.964933 g / cm^3
# Si number density = 19.694156 Si / 1000 Ang^3
#
#
#
# Elastic Constant Matrix: (Units=GPa)
#
#
# Indices 1 2 3 4 5 6 
#
# 1 54.8999 39.3045 32.6021 0.0000 0.0000 0.0000
# 2 39.3045 109.5336 50.9145 0.0000 0.0000 0.0000
# 3 32.6021 50.9145 102.1452 0.0000 0.0000 0.0000
# 4 0.0000 0.0000 0.0000 6.1656 0.0000 0.0000
# 5 0.0000 0.0000 0.0000 0.0000 -90.8621 0.0000
# 6 0.0000 0.0000 0.0000 0.0000 0.0000 28.0649
#
#
#
# Elastic Compliance Matrix: (Units=1/GPa)
#
#
# Indices 1 2 3 4 5 6 
#
# 1 0.026193 -0.007175 -0.004783 0.000000 0.000000 0.000000
# 2 -0.007175 0.013848 -0.004613 0.000000 0.000000 0.000000
# 3 -0.004783 -0.004613 0.013616 0.000000 0.000000 0.000000
# 4 0.000000 0.000000 0.000000 0.162190 0.000000 0.000000
# 5 0.000000 0.000000 0.000000 0.000000 -0.011006 0.000000
# 6 0.000000 0.000000 0.000000 0.000000 0.000000 0.035632
#
#
# Mechanical properties :
#
#
# Convention : Reuss Voigt Hill
#
# Bulk Modulus (GPa) = 48.74669 56.91343 52.83006
# Shear Modulus (GPa) = 17.82822 -1.74249 8.04286
#
# Velocity S-wave (km/s) = 3.01201 -0.94165 2.02305
# Velocity P-wave (km/s) = 6.07469 5.27059 5.68687
#
# Compressibility (1/GPa) = 0.02051421
#
# Stress axis : x y z
#
# Youngs Moduli (GPa) = 38.17861 72.21011 73.44354
#
# Poissons Ratio (x) = 0.51813 0.35131
# Poissons Ratio (y) = 0.27395 0.33877
# Poissons Ratio (z) = 0.18262 0.33308
#
# Static dielectric constant tensor:
#      x y z
#    x 1.709140 0.000000 0.000000 
#    y 0.000000 1.749470 0.000000 
#    z 0.000000 0.000000 1.700470 
# 
# From -- ./inp_files/23170.got.cif
#   From: 2010.05.17/outbox.cif.g08.bks.cpg/sg46_12_cif.got.tgz:23170.got - 2010.06.03 19:58:25.
