data_PCOD9378649
_publ_section_title
;
Structure prediction by ZEFSAII (Michael W. Deem and Ramdas Pophale) SiO2 
 PCOD9378649
Probable space group: I M A 2
;
_chemical_formula_sum "Si O2"
_cell_formula_units_Z 64
_cell_length_a 14.700274
_cell_length_b 19.539570
_cell_length_c 8.257269
_cell_angle_alpha 90.000000
_cell_angle_beta 90.000000
_cell_angle_gamma 90.000000
_cell_volume 2371.793447
_symmetry_space_group_name_H-M "I M A 2"
_symmetry_group_IT_number 46
_symmetry_cell_setting 'orthorhombic'
loop_
_space_group_symop_operation_xyz
x,y,z
-x,-y,z
1/2-x,y,z
1/2+x,-y,z
1/2+x,1/2+y,1/2+z
1/2-x,1/2-y,1/2+z
-x,1/2+y,1/2+z
x,1/2-y,1/2+z
loop_
_atom_site_type_symbol
_atom_site_label
_atom_site_fract_x
_atom_site_fract_y
_atom_site_fract_z
Si Si1 0.643041 0.521566 0.856670
Si Si2 0.590110 0.143954 0.021566
Si Si3 0.637533 0.648657 0.033339
Si Si4 0.647650 0.770941 0.837283
Si Si5 0.618319 0.895508 0.029982
Si Si6 0.640533 0.271298 0.208011
Si Si7 0.891373 0.017638 0.822815
Si Si8 0.355218 0.605619 0.000578
O O1 0.750000 0.512639 0.892750
O O2 0.640413 0.562681 0.690253
O O3 0.604400 0.573245 0.992269
O O4 0.603253 0.445015 0.864526
O O5 0.600180 0.195497 0.869089
O O6 0.635876 0.073223 0.962154
O O7 0.487953 0.119433 0.038695
O O8 0.620562 0.192265 0.168686
O O9 0.750000 0.647054 0.034096
O O10 0.603981 0.683814 0.197216
O O11 0.606482 0.699639 0.890708
O O12 0.750000 0.755844 0.784687
O O13 0.654442 0.820131 0.993383
O O14 0.646951 0.944760 0.880633
O O15 0.750000 0.278141 0.220607
O O16 0.607277 0.322464 0.064098
O O17 0.860924 0.055413 0.659209
O O18 0.000000 0.000000 0.816966
O O19 0.250000 0.620879 0.959345
#
# Coordination Sequence:
#
# PCOD9378649 Si02
#       8
#     8   8   8   8   8   8   8   8
#     4  10  20  35  56  89 126 161 202 250 302 367
#     4  10  23  41  61  88 121 157 200 251 318 385
#     4   9  18  31  48  71 107 150 197 245 290 342
#     4  10  19  32  51  77 110 157 206 251 298 346
#     4  11  22  36  56  83 122 163 201 248 297 365
#     4  10  21  42  69  95 122 156 204 270 331 384
#     4   9  20  40  59  82 120 163 202 246 308 378
#     4   9  19  37  64  93 121 157 207 259 312 371
#
# _framework density 26.983799999999999
#
# number of rings (size 3 to 8) (size 9 to 14) (size 15 to 20)
#    0.000    2.250    0.000    2.250    0.000    7.500 
#    0.000    8.125    0.000    0.000    0.000    0.000 
#    0.000    0.000    0.000    0.000    0.000    0.000 
#
# Total GULP energy -178963.755618 kJ/mol
# GULP energy per Si atom -5592.617363 kJ/mol
# Density = 2.692238 g / cm^3
# Si number density = 26.983800 Si / 1000 Ang^3
#
#
#
# Elastic Constant Matrix: (Units=GPa)
#
#
# Indices 1 2 3 4 5 6 
#
# 1 84.7942 9.3532 6.9578 0.0000 0.0000 0.0000
# 2 9.3532 177.0947 24.1104 0.0000 0.0000 0.0000
# 3 6.9578 24.1104 70.4278 0.0000 0.0000 0.0000
# 4 0.0000 0.0000 0.0000 62.7991 0.0000 0.0000
# 5 0.0000 0.0000 0.0000 0.0000 22.5817 0.0000
# 6 0.0000 0.0000 0.0000 0.0000 0.0000 23.0745
#
#
#
# Elastic Compliance Matrix: (Units=1/GPa)
#
#
# Indices 1 2 3 4 5 6 
#
# 1 0.011930 -0.000493 -0.001010 0.000000 0.000000 0.000000
# 2 -0.000493 0.005943 -0.001986 0.000000 0.000000 0.000000
# 3 -0.001010 -0.001986 0.014979 0.000000 0.000000 0.000000
# 4 0.000000 0.000000 0.000000 0.015924 0.000000 0.000000
# 5 0.000000 0.000000 0.000000 0.000000 0.044284 0.000000
# 6 0.000000 0.000000 0.000000 0.000000 0.000000 0.043338
#
#
# Mechanical properties :
#
#
# Convention : Reuss Voigt Hill
#
# Bulk Modulus (GPa) = 38.64716 45.90659 42.27688
# Shear Modulus (GPa) = 32.89484 41.15075 37.02279
#
# Velocity S-wave (km/s) = 3.49529 3.90938 3.70812
# Velocity P-wave (km/s) = 5.53560 6.11778 5.83396
#
# Compressibility (1/GPa) = 0.02587512
#
# Stress axis : x y z
#
# Youngs Moduli (GPa) = 83.81896 168.26291 66.76202
#
# Poissons Ratio (x) = 0.08289 0.06743
# Poissons Ratio (y) = 0.04129 0.13258
# Poissons Ratio (z) = 0.08466 0.33415
#
# Static dielectric constant tensor:
#      x y z
#    x 2.082870 0.000000 0.000000 
#    y 0.000000 2.052400 0.000000 
#    z 0.000000 0.000000 2.208930 
# 
# From -- ./inp_files/6955.got.cif
#   From: 2010.05.17/outbox.cif.g08.bks.cpg/sg46_4_cif.got.tgz:6955.got - 2010.06.03 19:58:25.
