data_PCOD9378918
_publ_section_title
;
Structure prediction by ZEFSAII (Michael W. Deem and Ramdas Pophale) SiO2 
 PCOD9378918
Probable space group: I M A 2
;
_chemical_formula_sum "Si O2"
_cell_formula_units_Z 48
_cell_length_a 8.347799
_cell_length_b 19.696844
_cell_length_c 15.562950
_cell_angle_alpha 90.000000
_cell_angle_beta 90.000000
_cell_angle_gamma 90.000000
_cell_volume 2558.942639
_symmetry_space_group_name_H-M "I M A 2"
_symmetry_group_IT_number 46
_symmetry_cell_setting 'orthorhombic'
loop_
_space_group_symop_operation_xyz
x,y,z
-x,-y,z
1/2-x,y,z
1/2+x,-y,z
1/2+x,1/2+y,1/2+z
1/2-x,1/2-y,1/2+z
-x,1/2+y,1/2+z
x,1/2-y,1/2+z
loop_
_atom_site_type_symbol
_atom_site_label
_atom_site_fract_x
_atom_site_fract_y
_atom_site_fract_z
Si Si1 0.943527 0.075511 0.103220
Si Si2 0.556395 0.172107 0.255946
Si Si3 0.443461 0.575502 0.407333
Si Si4 0.057781 0.924482 0.599890
Si Si5 0.940323 0.575825 0.906577
Si Si6 0.554051 0.327593 0.254251
O O1 0.750000 0.075820 0.103291
O O2 0.999783 0.130373 0.172309
O O3 0.997437 0.089190 0.005269
O O4 0.000000 0.000000 0.127089
O O5 0.750000 0.173368 0.253602
O O6 0.505656 0.130751 0.340019
O O7 0.499849 0.249810 0.255369
O O8 0.500000 0.500000 0.383429
O O9 0.250000 0.575597 0.407237
O O10 0.498198 0.630709 0.338339
O O11 0.250000 0.925133 0.597733
O O12 0.004285 0.869268 0.669685
O O13 0.996582 0.910191 0.503902
O O14 0.000000 0.000000 0.624326
O O15 0.750000 0.575485 0.904117
O O16 0.000000 0.500000 0.883624
O O17 0.750000 0.327114 0.254417
#
# Coordination Sequence:
#
# PCOD9378918 Si02
#       6
#     8   8   8   8   8   8
#     4   9  18  31  51  74  98 128 165 206 250 296
#     4  10  20  35  53  77 106 138 173 213 259 314
#     4   9  17  32  52  76 102 132 169 210 251 300
#     4  10  19  34  56  81 106 139 179 221 263 310
#     4  11  22  37  56  79 104 137 178 223 269 314
#     4   9  19  33  53  79 107 138 173 209 256 312
#
# _framework density 18.757746999999998
#
# number of rings (size 3 to 8) (size 9 to 14) (size 15 to 20)
#    0.000    2.333    0.000    4.000    0.000    3.333 
#    0.000    8.333    0.000    4.000    0.000    0.000 
#    0.000    0.000    0.000    0.000    0.000    0.000 
#
# Total GULP energy -133981.434567 kJ/mol
# GULP energy per Si atom -5582.559774 kJ/mol
# Density = 1.871505 g / cm^3
# Si number density = 18.757747 Si / 1000 Ang^3
#
#
#
# Elastic Constant Matrix: (Units=GPa)
#
#
# Indices 1 2 3 4 5 6 
#
# 1 21.4663 19.8117 15.3511 0.0000 0.0000 0.0000
# 2 19.8117 202.9732 141.1219 0.0000 0.0000 0.0000
# 3 15.3511 141.1219 135.8410 0.0000 0.0000 0.0000
# 4 0.0000 0.0000 0.0000 4.5642 0.0000 0.0000
# 5 0.0000 0.0000 0.0000 0.0000 11.3267 0.0000
# 6 0.0000 0.0000 0.0000 0.0000 0.0000 25.5444
#
#
#
# Elastic Compliance Matrix: (Units=1/GPa)
#
#
# Indices 1 2 3 4 5 6 
#
# 1 0.051370 -0.003521 -0.002147 0.000000 0.000000 0.000000
# 2 -0.003521 0.017983 -0.018284 0.000000 0.000000 0.000000
# 3 -0.002147 -0.018284 0.026599 0.000000 0.000000 0.000000
# 4 0.000000 0.000000 0.000000 0.219098 0.000000 0.000000
# 5 0.000000 0.000000 0.000000 0.000000 0.088287 0.000000
# 6 0.000000 0.000000 0.000000 0.000000 0.000000 0.039147
#
#
# Mechanical properties :
#
#
# Convention : Reuss Voigt Hill
#
# Bulk Modulus (GPa) = 20.81287 79.20554 50.00921
# Shear Modulus (GPa) = 9.87352 20.55344 15.21348
#
# Velocity S-wave (km/s) = 2.29677 3.31377 2.85098
# Velocity P-wave (km/s) = 4.26066 7.54709 6.12829
#
# Compressibility (1/GPa) = 0.04804719
#
# Stress axis : x y z
#
# Youngs Moduli (GPa) = 19.46663 55.60838 37.59536
#
# Poissons Ratio (x) = 0.19582 0.08071
# Poissons Ratio (y) = 0.06855 0.68740
# Poissons Ratio (z) = 0.04179 1.01675
#
# Static dielectric constant tensor:
#      x y z
#    x 1.649860 0.000000 0.000000 
#    y 0.000000 1.622360 0.000000 
#    z 0.000000 0.000000 1.649200 
# 
# From -- ./inp_files/13926.got.cif
#   From: 2010.05.17/outbox.cif.g08.bks.cpg/sg46_7_cif.got.tgz:13926.got - 2010.06.03 19:58:25.
