data_PCOD9378379
_publ_section_title
;
Structure prediction by ZEFSAII (Michael W. Deem and Ramdas Pophale) SiO2 
 PCOD9378379
Probable space group: I M A 2
;
_chemical_formula_sum "Si O2"
_cell_formula_units_Z 56
_cell_length_a 14.529535
_cell_length_b 10.080823
_cell_length_c 20.984176
_cell_angle_alpha 90.000000
_cell_angle_beta 90.000000
_cell_angle_gamma 90.000000
_cell_volume 3073.545347
_symmetry_space_group_name_H-M "I M A 2"
_symmetry_group_IT_number 46
_symmetry_cell_setting 'orthorhombic'
loop_
_space_group_symop_operation_xyz
x,y,z
-x,-y,z
1/2-x,y,z
1/2+x,-y,z
1/2+x,1/2+y,1/2+z
1/2-x,1/2-y,1/2+z
-x,1/2+y,1/2+z
x,1/2-y,1/2+z
loop_
_atom_site_type_symbol
_atom_site_label
_atom_site_fract_x
_atom_site_fract_y
_atom_site_fract_z
Si Si1 0.643715 0.421048 0.912860
Si Si2 0.353860 0.078113 0.700445
Si Si3 0.946339 0.637539 0.328780
Si Si4 0.929724 0.378687 0.777170
Si Si5 0.645122 0.272902 0.160633
Si Si6 0.947953 0.800288 0.448929
Si Si7 0.979757 0.655300 0.085207
O O1 0.750000 0.395226 0.932969
O O2 0.636753 0.411282 0.836190
O O3 0.558428 0.330282 0.938857
O O4 0.609640 0.568060 0.931331
O O5 0.250000 0.108220 0.681984
O O6 0.371723 0.116615 0.773327
O O7 0.420844 0.148905 0.650106
O O8 0.367979 0.919594 0.692242
O O9 0.918478 0.688913 0.398499
O O10 0.000000 0.500000 0.334641
O O11 0.011744 0.752111 0.300489
O O12 0.878693 0.336361 0.713186
O O13 0.000000 0.500000 0.768111
O O14 0.750000 0.262950 0.139951
O O15 0.574217 0.272847 0.102862
O O16 0.934259 0.778483 0.523888
O O17 0.000000 0.500000 0.068485
#
# Coordination Sequence:
#
# PCOD9378379 Si02
#       7
#     8   8   8   8   8   8   8
#     4  10  19  33  53  80 115 148 184 236 291 341
#     4  10  20  34  58  87 114 152 196 237 289 343
#     4  11  19  38  60  81 114 151 188 238 286 346
#     4  11  19  36  58  86 116 144 188 243 295 346
#     4  10  20  34  59  88 114 151 195 240 290 344
#     4  10  21  36  54  84 116 148 197 236 290 345
#     4  10  18  36  55  81 120 149 189 246 279 341
#
# _framework density 18.220002000000001
#
# number of rings (size 3 to 8) (size 9 to 14) (size 15 to 20)
#    0.000    1.714    7.143    0.857    0.000    1.714 
#    0.000    0.714    0.000    0.000    0.000    0.000 
#    0.000    0.000    0.000    0.000    0.000    0.000 
#
# Total GULP energy -156069.202530 kJ/mol
# GULP energy per Si atom -5573.900090 kJ/mol
# Density = 1.817853 g / cm^3
# Si number density = 18.220002 Si / 1000 Ang^3
#
#
#
# Elastic Constant Matrix: (Units=GPa)
#
#
# Indices 1 2 3 4 5 6 
#
# 1 65.2873 11.5202 11.2065 0.0000 0.0000 0.0000
# 2 11.5202 52.2182 17.4796 0.0000 0.0000 0.0000
# 3 11.2065 17.4796 98.3471 0.0000 0.0000 0.0000
# 4 0.0000 0.0000 0.0000 20.8242 0.0000 0.0000
# 5 0.0000 0.0000 0.0000 0.0000 -8.3330 0.0000
# 6 0.0000 0.0000 0.0000 0.0000 0.0000 13.3806
#
#
#
# Elastic Compliance Matrix: (Units=1/GPa)
#
#
# Indices 1 2 3 4 5 6 
#
# 1 0.016087 -0.003121 -0.001278 0.000000 0.000000 0.000000
# 2 -0.003121 0.020967 -0.003371 0.000000 0.000000 0.000000
# 3 -0.001278 -0.003371 0.010913 0.000000 0.000000 0.000000
# 4 0.000000 0.000000 0.000000 0.048021 0.000000 0.000000
# 5 0.000000 0.000000 0.000000 0.000000 -0.120005 0.000000
# 6 0.000000 0.000000 0.000000 0.000000 0.000000 0.074735
#
#
# Mechanical properties :
#
#
# Convention : Reuss Voigt Hill
#
# Bulk Modulus (GPa) = 30.83911 32.91838 31.87874
# Shear Modulus (GPa) = 64.87786 16.88412 40.88099
#
# Velocity S-wave (km/s) = 5.97372 3.04745 4.74195
# Velocity P-wave (km/s) = 8.03388 5.52168 6.89319
#
# Compressibility (1/GPa) = 0.03242636
#
# Stress axis : x y z
#
# Youngs Moduli (GPa) = 62.16168 47.69314 91.63488
#
# Poissons Ratio (x) = 0.14886 0.11714
# Poissons Ratio (y) = 0.19402 0.30890
# Poissons Ratio (z) = 0.07947 0.16077
#
# Static dielectric constant tensor:
#      x y z
#    x 1.642860 0.000000 0.000000 
#    y 0.000000 1.621280 0.000000 
#    z 0.000000 0.000000 1.652390 
# 
# From -- ./inp_files/22029.got.cif
#   From: 2010.05.17/outbox.cif.g08.bks.cpg/sg46_12_cif.got.tgz:22029.got - 2010.06.03 19:58:25.
