data_PCOD9378773
_publ_section_title
;
Structure prediction by ZEFSAII (Michael W. Deem and Ramdas Pophale) SiO2 
 PCOD9378773
Probable space group: I M A 2
;
_chemical_formula_sum "Si O2"
_cell_formula_units_Z 64
_cell_length_a 17.156101
_cell_length_b 8.773161
_cell_length_c 22.615723
_cell_angle_alpha 90.000000
_cell_angle_beta 90.000000
_cell_angle_gamma 90.000000
_cell_volume 3403.965658
_symmetry_space_group_name_H-M "I M A 2"
_symmetry_group_IT_number 46
_symmetry_cell_setting 'orthorhombic'
loop_
_space_group_symop_operation_xyz
x,y,z
-x,-y,z
1/2-x,y,z
1/2+x,-y,z
1/2+x,1/2+y,1/2+z
1/2-x,1/2-y,1/2+z
-x,1/2+y,1/2+z
x,1/2-y,1/2+z
loop_
_atom_site_type_symbol
_atom_site_label
_atom_site_fract_x
_atom_site_fract_y
_atom_site_fract_z
Si Si1 0.657210 0.349174 0.038320
Si Si2 0.544830 0.160242 0.705680
Si Si3 0.162039 0.332654 0.828196
Si Si4 0.160873 0.646560 0.900118
Si Si5 0.657863 0.534339 0.148840
Si Si6 0.990937 0.314872 0.829728
Si Si7 0.565614 0.105434 0.107362
Si Si8 0.658676 0.871523 0.188710
O O1 0.750000 0.335608 0.046144
O O2 0.629631 0.481842 0.083712
O O3 0.617512 0.194517 0.060572
O O4 0.643611 0.376485 0.969431
O O5 0.530156 0.251436 0.765159
O O6 0.528239 0.267839 0.650133
O O7 0.500000 0.000000 0.705030
O O8 0.632143 0.098656 0.693816
O O9 0.250000 0.259561 0.831590
O O10 0.165872 0.483082 0.868121
O O11 0.150363 0.380621 0.759529
O O12 0.078888 0.253991 0.844712
O O13 0.250000 0.713986 0.894435
O O14 0.084101 0.723540 0.870731
O O15 0.750000 0.540079 0.146970
O O16 0.633691 0.701307 0.169989
O O17 0.000000 0.500000 0.829398
O O18 0.500000 0.000000 0.078988
O O19 0.613975 0.998992 0.152161
O O20 0.750000 0.888313 0.175330
#
# Coordination Sequence:
#
# PCOD9378773 Si02
#       8
#     8   8   8   8   8   8   8   8
#     4   9  19  36  55  77 106 141 180 222 268 321
#     4  11  21  33  50  76 112 145 174 219 278 328
#     4   9  17  30  51  78 106 136 173 219 267 316
#     4   9  18  34  55  77 103 140 186 230 272 322
#     4   9  19  34  54  81 112 142 173 216 272 329
#     4  10  19  33  53  78 104 137 184 230 270 319
#     4  11  20  32  52  79 109 140 179 219 266 325
#     4  10  19  34  57  84 111 139 175 221 274 330
#
# _framework density 18.801599
#
# number of rings (size 3 to 8) (size 9 to 14) (size 15 to 20)
#    0.000    2.250    0.000    4.500    0.000    1.000 
#    0.000   11.875    0.000    1.500    0.000   11.375 
#    0.000    0.000    0.000    0.000    0.000    0.000 
#
# Total GULP energy -178142.450522 kJ/mol
# GULP energy per Si atom -5566.951579 kJ/mol
# Density = 1.875881 g / cm^3
# Si number density = 18.801599 Si / 1000 Ang^3
#
#
#
# Elastic Constant Matrix: (Units=GPa)
#
#
# Indices 1 2 3 4 5 6 
#
# 1 107.1218 16.2942 45.3853 0.0000 0.0000 0.0000
# 2 16.2942 61.3412 40.1626 0.0000 0.0000 0.0000
# 3 45.3853 40.1626 101.8941 0.0000 0.0000 0.0000
# 4 0.0000 0.0000 0.0000 10.7272 0.0000 0.0000
# 5 0.0000 0.0000 0.0000 0.0000 7.3728 0.0000
# 6 0.0000 0.0000 0.0000 0.0000 0.0000 27.5058
#
#
#
# Elastic Compliance Matrix: (Units=1/GPa)
#
#
# Indices 1 2 3 4 5 6 
#
# 1 0.011514 0.000403 -0.005288 0.000000 0.000000 0.000000
# 2 0.000403 0.021987 -0.008846 0.000000 0.000000 0.000000
# 3 -0.005288 -0.008846 0.015656 0.000000 0.000000 0.000000
# 4 0.000000 0.000000 0.000000 0.093221 0.000000 0.000000
# 5 0.000000 0.000000 0.000000 0.000000 0.135633 0.000000
# 6 0.000000 0.000000 0.000000 0.000000 0.000000 0.036356
#
#
# Mechanical properties :
#
#
# Convention : Reuss Voigt Hill
#
# Bulk Modulus (GPa) = 46.08998 52.67126 49.38062
# Shear Modulus (GPa) = 14.32419 20.35550 17.33985
#
# Velocity S-wave (km/s) = 2.76318 3.29393 3.04016
# Velocity P-wave (km/s) = 5.89468 6.52240 6.21647
#
# Compressibility (1/GPa) = 0.02169669
#
# Stress axis : x y z
#
# Youngs Moduli (GPa) = 86.85061 45.48137 63.87295
#
# Poissons Ratio (x) = -0.01835 0.33773
# Poissons Ratio (y) = -0.03504 0.56503
# Poissons Ratio (z) = 0.45923 0.40233
#
# Static dielectric constant tensor:
#      x y z
#    x 1.764220 0.000000 0.000000 
#    y 0.000000 1.633890 0.000000 
#    z 0.000000 0.000000 1.620950 
# 
# From -- ./inp_files/22247.got.cif
#   From: 2010.05.17/outbox.cif.g08.bks.cpg/sg46_12_cif.got.tgz:22247.got - 2010.06.03 19:58:25.
