data_PCOD9378432
_publ_section_title
;
Structure prediction by ZEFSAII (Michael W. Deem and Ramdas Pophale) SiO2 
 PCOD9378432
Probable space group: I M A 2
;
_chemical_formula_sum "Si O2"
_cell_formula_units_Z 64
_cell_length_a 14.875383
_cell_length_b 28.325947
_cell_length_c 9.762270
_cell_angle_alpha 90.000000
_cell_angle_beta 90.000000
_cell_angle_gamma 90.000000
_cell_volume 4113.423356
_symmetry_space_group_name_H-M "I M A 2"
_symmetry_group_IT_number 46
_symmetry_cell_setting 'orthorhombic'
loop_
_space_group_symop_operation_xyz
x,y,z
-x,-y,z
1/2-x,y,z
1/2+x,-y,z
1/2+x,1/2+y,1/2+z
1/2-x,1/2-y,1/2+z
-x,1/2+y,1/2+z
x,1/2-y,1/2+z
loop_
_atom_site_type_symbol
_atom_site_label
_atom_site_fract_x
_atom_site_fract_y
_atom_site_fract_z
Si Si1 0.354781 0.465656 0.524750
Si Si2 0.851471 0.434668 0.034476
Si Si3 0.355219 0.206363 0.234608
Si Si4 0.642951 0.526717 0.213534
Si Si5 0.454867 0.105797 0.536230
Si Si6 0.447424 0.109878 0.217756
Si Si7 0.584205 0.464434 0.748248
Si Si8 0.645343 0.700565 0.058498
O O1 0.250000 0.457214 0.513481
O O2 0.389501 0.471417 0.370576
O O3 0.395897 0.422510 0.609534
O O4 0.370893 0.511778 0.617457
O O5 0.750000 0.415344 0.049912
O O6 0.866592 0.474957 0.148218
O O7 0.937011 0.399785 0.039452
O O8 0.858786 0.460064 0.885863
O O9 0.250000 0.192666 0.209163
O O10 0.421872 0.164000 0.192994
O O11 0.372940 0.254163 0.152147
O O12 0.364101 0.213588 0.397925
O O13 0.750000 0.537865 0.207814
O O14 0.588759 0.564137 0.123644
O O15 0.422262 0.101059 0.377754
O O16 0.418548 0.156153 0.586536
O O17 0.547171 0.087725 0.212770
O O18 0.500000 0.500000 0.779159
O O19 0.750000 0.686594 0.080096
#
# Coordination Sequence:
#
# PCOD9378432 Si02
#       8
#     8   8   8   8   8   8   8   8
#     4  10  19  29  42  65  95 125 153 184 223 267
#     4  10  19  31  47  66  88 120 158 194 228 263
#     4   9  17  30  46  65  90 116 142 178 221 270
#     4  10  20  30  43  66  96 126 155 186 224 269
#     4  10  19  32  48  67  91 121 155 190 225 268
#     4   9  18  30  45  65  88 118 154 185 221 264
#     4   9  17  29  45  65  89 120 156 189 223 265
#     4   9  18  31  48  69  92 116 143 178 223 272
#
# _framework density 15.558816
#
# number of rings (size 3 to 8) (size 9 to 14) (size 15 to 20)
#    0.000    2.500    0.000    3.750    0.000    6.500 
#    0.000    2.500    0.000    0.000    0.000    8.750 
#    0.000    0.000    0.000    0.000    0.000    0.000 
#
# Total GULP energy -178209.673739 kJ/mol
# GULP energy per Si atom -5569.052304 kJ/mol
# Density = 1.552340 g / cm^3
# Si number density = 15.558816 Si / 1000 Ang^3
#
#
#
# Elastic Constant Matrix: (Units=GPa)
#
#
# Indices 1 2 3 4 5 6 
#
# 1 69.6790 43.9052 31.9258 0.0003 0.0000 -0.0001
# 2 43.9052 71.4671 31.5065 0.0011 -0.0003 -0.0006
# 3 31.9258 31.5065 72.2392 0.0031 -0.0014 -0.0013
# 4 0.0003 0.0011 0.0031 22.0592 -0.0003 -0.0004
# 5 0.0000 -0.0003 -0.0014 -0.0003 17.6153 0.0001
# 6 -0.0001 -0.0006 -0.0013 -0.0004 0.0001 21.9316
#
#
#
# Elastic Compliance Matrix: (Units=1/GPa)
#
#
# Indices 1 2 3 4 5 6 
#
# 1 0.025001 -0.012985 -0.005386 0.000001 -0.000001 -0.000001
# 2 -0.012985 0.024067 -0.004758 0.000000 0.000000 0.000000
# 3 -0.005386 -0.004758 0.018298 -0.000002 0.000001 0.000001
# 4 0.000001 0.000000 -0.000002 0.045333 0.000001 0.000001
# 5 -0.000001 0.000000 0.000001 0.000001 0.056769 0.000000
# 6 -0.000001 0.000000 0.000001 0.000001 0.000000 0.045596
#
#
# Mechanical properties :
#
#
# Convention : Reuss Voigt Hill
#
# Bulk Modulus (GPa) = 47.37316 47.56225 47.46770
# Shear Modulus (GPa) = 18.63182 19.39108 19.01145
#
# Velocity S-wave (km/s) = 3.46426 3.53414 3.49937
# Velocity P-wave (km/s) = 6.82022 6.87671 6.84852
#
# Compressibility (1/GPa) = 0.02110900
#
# Stress axis : x y z
#
# Youngs Moduli (GPa) = 39.99833 41.55041 54.64967
#
# Poissons Ratio (x) = 0.53952 0.29434
# Poissons Ratio (y) = 0.51937 0.26003
# Poissons Ratio (z) = 0.21543 0.19770
#
# Static dielectric constant tensor:
#      x y z
#    x 1.542850 0.000000 0.000000 
#    y 0.000000 1.501310 0.000000 
#    z 0.000000 0.000000 1.539150 
# 
# From -- ./inp_files/6212.got.cif
#   From: 2010.05.17/outbox.cif.g08.bks.cpg/sg46_4_cif.got.tgz:6212.got - 2010.06.03 19:58:25.
