data_PCOD9378398
_publ_section_title
;
Structure prediction by ZEFSAII (Michael W. Deem and Ramdas Pophale) SiO2 
 PCOD9378398
Probable space group: I M A 2
;
_chemical_formula_sum "Si O2"
_cell_formula_units_Z 56
_cell_length_a 15.382213
_cell_length_b 12.217236
_cell_length_c 11.625419
_cell_angle_alpha 90.000000
_cell_angle_beta 90.000000
_cell_angle_gamma 90.000000
_cell_volume 2184.743212
_symmetry_space_group_name_H-M "I M A 2"
_symmetry_group_IT_number 46
_symmetry_cell_setting 'orthorhombic'
loop_
_space_group_symop_operation_xyz
x,y,z
-x,-y,z
1/2-x,y,z
1/2+x,-y,z
1/2+x,1/2+y,1/2+z
1/2-x,1/2-y,1/2+z
-x,1/2+y,1/2+z
x,1/2-y,1/2+z
loop_
_atom_site_type_symbol
_atom_site_label
_atom_site_fract_x
_atom_site_fract_y
_atom_site_fract_z
Si Si1 0.898113 0.031922 0.310400
Si Si2 0.250000 0.261490 0.977038
Si Si3 0.344181 0.990381 0.964001
Si Si4 0.922659 0.169885 0.108922
Si Si5 0.152484 0.878241 0.557073
Si Si6 0.923328 0.721315 0.459791
Si Si7 0.051185 0.613120 0.288939
Si Si8 0.750000 0.639785 0.732027
O O1 0.892784 0.145086 0.237058
O O2 0.872782 0.062077 0.440295
O O3 0.833738 0.939842 0.256588
O O4 0.000000 0.000000 0.306087
O O5 0.250000 0.197891 0.105922
O O6 0.349850 0.312015 0.983316
O O7 0.250000 0.267743 0.832258
O O8 0.250000 0.975687 0.014272
O O9 0.359830 0.914354 0.854825
O O10 0.358278 0.118165 0.941619
O O11 0.414943 0.949081 0.052238
O O12 0.854484 0.247079 0.043428
O O13 0.018194 0.208774 0.072989
O O14 0.250000 0.910512 0.590850
O O15 0.079616 0.884162 0.657175
O O16 0.991275 0.704752 0.353631
O O17 0.000000 0.500000 0.308203
#
# Coordination Sequence:
#
# PCOD9378398 Si02
#       8
#     8   4   8   8   8   8   8   4
#     4  12  28  53  78 109 163 218 261 342 415 493
#     4  12  26  50  82 120 158 210 272 346 392 500
#     4  10  18  36  66 100 135 180 236 304 370 447
#     4  11  25  41  73 104 147 197 259 313 389 480
#     4  12  27  45  71 108 149 200 266 321 394 486
#     4  10  22  43  72 110 145 196 264 319 397 470
#     4   9  21  41  64  99 141 189 245 308 384 458
#     4  12  30  54  84 122 166 212 284 330 432 484
#
# _framework density 25.632304000000001
#
# number of rings (size 3 to 8) (size 9 to 14) (size 15 to 20)
#    0.000    1.143    1.429    5.143    8.000    1.143 
#    5.143    0.000    0.000    0.000    0.000    0.000 
#    0.000    0.000    0.000    0.000    0.000    0.000 
#
# Total GULP energy -155905.820638 kJ/mol
# GULP energy per Si atom -5568.065023 kJ/mol
# Density = 2.557396 g / cm^3
# Si number density = 25.632304 Si / 1000 Ang^3
#
#
#
# Elastic Constant Matrix: (Units=GPa)
#
#
# Indices 1 2 3 4 5 6 
#
# 1 164.3212 30.3193 51.4561 0.0000 0.0000 0.0000
# 2 30.3193 72.3700 51.2694 0.0000 0.0000 0.0000
# 3 51.4561 51.2694 180.7165 0.0000 0.0000 0.0000
# 4 0.0000 0.0000 0.0000 52.3062 0.0000 0.0000
# 5 0.0000 0.0000 0.0000 0.0000 41.3209 0.0000
# 6 0.0000 0.0000 0.0000 0.0000 0.0000 22.6418
#
#
#
# Elastic Compliance Matrix: (Units=1/GPa)
#
#
# Indices 1 2 3 4 5 6 
#
# 1 0.006878 -0.001870 -0.001428 0.000000 0.000000 0.000000
# 2 -0.001870 0.017802 -0.004518 0.000000 0.000000 0.000000
# 3 -0.001428 -0.004518 0.007222 0.000000 0.000000 0.000000
# 4 0.000000 0.000000 0.000000 0.019118 0.000000 0.000000
# 5 0.000000 0.000000 0.000000 0.000000 0.024201 0.000000
# 6 0.000000 0.000000 0.000000 0.000000 0.000000 0.044166
#
#
# Mechanical properties :
#
#
# Convention : Reuss Voigt Hill
#
# Bulk Modulus (GPa) = 61.46244 75.94413 68.70329
# Shear Modulus (GPa) = 35.60200 42.21131 38.90666
#
# Velocity S-wave (km/s) = 3.73091 4.06248 3.90022
# Velocity P-wave (km/s) = 6.52611 7.19011 6.86614
#
# Compressibility (1/GPa) = 0.01627010
#
# Stress axis : x y z
#
# Youngs Moduli (GPa) = 145.39578 56.17358 138.46881
#
# Poissons Ratio (x) = 0.10504 0.19771
# Poissons Ratio (y) = 0.27187 0.62560
# Poissons Ratio (z) = 0.20760 0.25379
#
# Static dielectric constant tensor:
#      x y z
#    x 2.024790 0.000000 0.000000 
#    y 0.000000 2.085720 0.000000 
#    z 0.000000 0.000000 2.142760 
# 
# From -- ./inp_files/11177.got.cif
#   From: 2010.05.17/outbox.cif.g08.bks.cpg/sg46_6_cif.got.tgz:11177.got - 2010.06.03 19:58:25.
