data_PCOD9378981
_publ_section_title
;
Structure prediction by ZEFSAII (Michael W. Deem and Ramdas Pophale) SiO2 
 PCOD9378981
Probable space group: I M A 2
;
_chemical_formula_sum "Si O2"
_cell_formula_units_Z 56
_cell_length_a 16.474532
_cell_length_b 7.988856
_cell_length_c 19.576791
_cell_angle_alpha 90.000000
_cell_angle_beta 90.000000
_cell_angle_gamma 90.000000
_cell_volume 2576.553612
_symmetry_space_group_name_H-M "I M A 2"
_symmetry_group_IT_number 46
_symmetry_cell_setting 'orthorhombic'
loop_
_space_group_symop_operation_xyz
x,y,z
-x,-y,z
1/2-x,y,z
1/2+x,-y,z
1/2+x,1/2+y,1/2+z
1/2-x,1/2-y,1/2+z
-x,1/2+y,1/2+z
x,1/2-y,1/2+z
loop_
_atom_site_type_symbol
_atom_site_label
_atom_site_fract_x
_atom_site_fract_y
_atom_site_fract_z
Si Si1 0.004304 0.304036 0.281580
Si Si2 0.550839 0.717000 0.639024
Si Si3 0.661111 0.157175 0.320619
Si Si4 0.434853 0.371121 0.999235
Si Si5 0.843958 0.790989 0.373501
Si Si6 0.843585 0.476777 0.116170
Si Si7 0.341699 0.901832 0.159745
O O1 0.000543 0.207876 0.208954
O O2 0.090077 0.264664 0.317439
O O3 0.924039 0.254866 0.325301
O O4 0.000000 0.000000 0.769608
O O5 0.523155 0.770839 0.562672
O O6 0.400358 0.454682 0.632411
O O7 0.607366 0.879388 0.655567
O O8 0.750000 0.243075 0.331265
O O9 0.662206 0.094588 0.241922
O O10 0.658810 0.992760 0.366937
O O11 0.500000 0.500000 0.968363
O O12 0.368044 0.483629 0.038571
O O13 0.387854 0.256717 0.945732
O O14 0.750000 0.732158 0.367008
O O15 0.750000 0.505274 0.128713
O O16 0.861267 0.287347 0.136789
O O17 0.250000 0.937641 0.134753
#
# Coordination Sequence:
#
# PCOD9378981 Si02
#       7
#     8   8   8   8   8   8   8
#     4  12  24  41  68  99 138 177 227 289 350 409
#     4  10  22  36  64  95 135 172 221 275 350 399
#     4  10  22  40  64  96 130 174 225 275 336 408
#     4  10  22  41  63  90 131 175 227 276 343 415
#     4  11  24  44  70  96 130 183 234 279 345 418
#     4   9  20  36  59  90 130 174 222 277 336 404
#     4  10  19  34  59  95 129 167 220 277 337 398
#
# _framework density 21.734459000000001
#
# number of rings (size 3 to 8) (size 9 to 14) (size 15 to 20)
#    0.857    0.857    1.429    3.429    2.000    1.143 
#    0.000    2.857    0.000    0.000    0.000    0.000 
#    0.000    0.000    0.000    0.000    0.000    0.000 
#
# Total GULP energy -156060.992055 kJ/mol
# GULP energy per Si atom -5573.606859 kJ/mol
# Density = 2.168499 g / cm^3
# Si number density = 21.734459 Si / 1000 Ang^3
#
#
#
# Elastic Constant Matrix: (Units=GPa)
#
#
# Indices 1 2 3 4 5 6 
#
# 1 145.7549 17.1656 30.0634 0.0000 0.0000 0.0000
# 2 17.1656 74.0915 -8.5316 0.0000 0.0000 0.0000
# 3 30.0634 -8.5316 71.8142 0.0000 0.0000 0.0000
# 4 0.0000 0.0000 0.0000 22.2579 0.0000 0.0000
# 5 0.0000 0.0000 0.0000 0.0000 47.7304 0.0000
# 6 0.0000 0.0000 0.0000 0.0000 0.0000 -33.2930
#
#
#
# Elastic Compliance Matrix: (Units=1/GPa)
#
#
# Indices 1 2 3 4 5 6 
#
# 1 0.007856 -0.002229 -0.003554 0.000000 0.000000 0.000000
# 2 -0.002229 0.014317 0.002634 0.000000 0.000000 0.000000
# 3 -0.003554 0.002634 0.015725 0.000000 0.000000 0.000000
# 4 0.000000 0.000000 0.000000 0.044928 0.000000 0.000000
# 5 0.000000 0.000000 0.000000 0.000000 0.020951 0.000000
# 6 0.000000 0.000000 0.000000 0.000000 0.000000 -0.030036
#
#
# Mechanical properties :
#
#
# Convention : Reuss Voigt Hill
#
# Bulk Modulus (GPa) = 31.64513 41.00616 36.32565
# Shear Modulus (GPa) = 55.20430 24.20326 39.70378
#
# Velocity S-wave (km/s) = 5.04525 3.34067 4.27871
# Velocity P-wave (km/s) = 6.96641 5.81274 6.41556
#
# Compressibility (1/GPa) = 0.03160043
#
# Stress axis : x y z
#
# Youngs Moduli (GPa) = 127.28496 69.84875 63.59117
#
# Poissons Ratio (x) = 0.15572 0.22599
# Poissons Ratio (y) = 0.28377 -0.16751
# Poissons Ratio (z) = 0.45234 -0.18399
#
# Static dielectric constant tensor:
#      x y z
#    x 1.876760 0.000000 0.000000 
#    y 0.000000 1.756840 0.000000 
#    z 0.000000 0.000000 1.794130 
# 
# From -- ./inp_files/20012.got.cif
#   From: 2010.05.17/outbox.cif.g08.bks.cpg/sg46_11_cif.got.tgz:20012.got - 2010.06.03 19:58:25.
