data_PCOD9378631
_publ_section_title
;
Structure prediction by ZEFSAII (Michael W. Deem and Ramdas Pophale) SiO2 
 PCOD9378631
Probable space group: I M A 2
;
_chemical_formula_sum "Si O2"
_cell_formula_units_Z 44
_cell_length_a 16.094856
_cell_length_b 10.001989
_cell_length_c 10.638182
_cell_angle_alpha 90.000000
_cell_angle_beta 90.000000
_cell_angle_gamma 90.000000
_cell_volume 1712.540631
_symmetry_space_group_name_H-M "I M A 2"
_symmetry_group_IT_number 46
_symmetry_cell_setting 'orthorhombic'
loop_
_space_group_symop_operation_xyz
x,y,z
-x,-y,z
1/2-x,y,z
1/2+x,-y,z
1/2+x,1/2+y,1/2+z
1/2-x,1/2-y,1/2+z
-x,1/2+y,1/2+z
x,1/2-y,1/2+z
loop_
_atom_site_type_symbol
_atom_site_label
_atom_site_fract_x
_atom_site_fract_y
_atom_site_fract_z
Si Si1 0.843858 0.542095 0.158290
Si Si2 0.130041 0.762332 0.103198
Si Si3 0.847208 0.991715 0.938672
Si Si4 0.250000 0.582602 0.798916
Si Si5 0.545680 0.855815 0.152345
Si Si6 0.910487 0.923775 0.409926
O O1 0.750000 0.593550 0.168666
O O2 0.842207 0.389620 0.107943
O O3 0.879637 0.529324 0.298304
O O4 0.891106 0.624305 0.051798
O O5 0.178510 0.839996 0.212297
O O6 0.031953 0.764416 0.120359
O O7 0.146742 0.851242 0.978620
O O8 0.750000 0.959350 0.942168
O O9 0.892359 0.902915 0.042795
O O10 0.325961 0.502633 0.871111
O O11 0.500000 0.000000 0.173498
O O12 0.581706 0.824419 0.290509
O O13 0.000000 0.000000 0.422003
#
# Coordination Sequence:
#
# PCOD9378631 Si02
#       6
#     8   8   8   4   8   8
#     4  11  24  32  54  86 120 141 167 227 296 326
#     4  11  20  33  57  81 116 141 181 224 273 333
#     4  10  19  32  50  78 112 148 178 219 271 326
#     4  12  18  34  56  84 114 142 184 228 266 330
#     4   9  18  34  53  74 107 147 194 212 255 329
#     4  11  21  35  56  80 114 149 187 219 267 333
#
# _framework density 25.692820999999999
#
# number of rings (size 3 to 8) (size 9 to 14) (size 15 to 20)
#    0.000    1.455    8.182    0.000    2.545    2.182 
#    0.000    0.000    0.000    0.000    2.364    0.000 
#    0.000    0.000    0.000    0.000    0.000    0.000 
#
# Total GULP energy -122468.571364 kJ/mol
# GULP energy per Si atom -5566.753244 kJ/mol
# Density = 2.563434 g / cm^3
# Si number density = 25.692821 Si / 1000 Ang^3
#
#
#
# Elastic Constant Matrix: (Units=GPa)
#
#
# Indices 1 2 3 4 5 6 
#
# 1 157.6126 25.3823 69.2503 0.0000 0.0000 0.0000
# 2 25.3823 77.9619 19.4848 0.0000 0.0000 0.0000
# 3 69.2503 19.4848 189.8255 0.0000 0.0000 0.0000
# 4 0.0000 0.0000 0.0000 -51.2121 0.0000 0.0000
# 5 0.0000 0.0000 0.0000 0.0000 29.2241 0.0000
# 6 0.0000 0.0000 0.0000 0.0000 0.0000 24.3387
#
#
#
# Elastic Compliance Matrix: (Units=1/GPa)
#
#
# Indices 1 2 3 4 5 6 
#
# 1 0.007815 -0.001880 -0.002658 0.000000 0.000000 0.000000
# 2 -0.001880 0.013617 -0.000712 0.000000 0.000000 0.000000
# 3 -0.002658 -0.000712 0.006311 0.000000 0.000000 0.000000
# 4 0.000000 0.000000 0.000000 -0.019527 0.000000 0.000000
# 5 0.000000 0.000000 0.000000 0.000000 0.034218 0.000000
# 6 0.000000 0.000000 0.000000 0.000000 0.000000 0.041087
#
#
# Mechanical properties :
#
#
# Convention : Reuss Voigt Hill
#
# Bulk Modulus (GPa) = 57.99533 72.62610 65.31072
# Shear Modulus (GPa) = 50.11561 21.22230 35.66895
#
# Velocity S-wave (km/s) = 4.42132 2.87714 3.73001
# Velocity P-wave (km/s) = 6.97751 6.27421 6.63518
#
# Compressibility (1/GPa) = 0.01724277
#
# Stress axis : x y z
#
# Youngs Moduli (GPa) = 127.95324 73.43874 158.45905
#
# Poissons Ratio (x) = 0.13807 0.42121
# Poissons Ratio (y) = 0.24057 0.11279
# Poissons Ratio (z) = 0.34012 0.05228
#
# Static dielectric constant tensor:
#      x y z
#    x 2.031810 0.000000 0.000000 
#    y 0.000000 2.143720 0.000000 
#    z 0.000000 0.000000 2.121580 
# 
# From -- ./inp_files/11014.got.cif
#   From: 2010.05.17/outbox.cif.g08.bks.cpg/sg46_6_cif.got.tgz:11014.got - 2010.06.03 19:58:25.
