data_PCOD9378160
_publ_section_title
;
Structure prediction by ZEFSAII (Michael W. Deem and Ramdas Pophale) SiO2 
 PCOD9378160
Probable space group: I M A 2
;
_chemical_formula_sum "Si O2"
_cell_formula_units_Z 64
_cell_length_a 9.051235
_cell_length_b 19.075343
_cell_length_c 21.590424
_cell_angle_alpha 90.000000
_cell_angle_beta 90.000000
_cell_angle_gamma 90.000000
_cell_volume 3727.703555
_symmetry_space_group_name_H-M "I M A 2"
_symmetry_group_IT_number 46
_symmetry_cell_setting 'orthorhombic'
loop_
_space_group_symop_operation_xyz
x,y,z
-x,-y,z
1/2-x,y,z
1/2+x,-y,z
1/2+x,1/2+y,1/2+z
1/2-x,1/2-y,1/2+z
-x,1/2+y,1/2+z
x,1/2-y,1/2+z
loop_
_atom_site_type_symbol
_atom_site_label
_atom_site_fract_x
_atom_site_fract_y
_atom_site_fract_z
Si Si1 0.419374 0.184032 0.021960
Si Si2 0.925453 0.424338 0.613557
Si Si3 0.585149 0.938579 0.924666
Si Si4 0.072198 0.428722 0.283234
Si Si5 0.927967 0.726789 0.296411
Si Si6 0.925591 0.071062 0.379652
Si Si7 0.572900 0.224234 0.425668
Si Si8 0.425568 0.635980 0.749874
O O1 0.250000 0.201391 0.039540
O O2 0.501611 0.138940 0.074385
O O3 0.413137 0.130108 0.964513
O O4 0.507337 0.247552 0.990235
O O5 0.750000 0.428504 0.600206
O O6 0.946149 0.403692 0.685559
O O7 0.000000 0.500000 0.602405
O O8 0.750000 0.964734 0.916145
O O9 0.525453 0.927237 0.855937
O O10 0.500000 0.000000 0.958324
O O11 0.250000 0.435273 0.278527
O O12 0.033639 0.348579 0.265366
O O13 0.000000 0.500000 0.256574
O O14 0.750000 0.728000 0.304500
O O15 0.001585 0.739088 0.364389
O O16 0.984908 0.791672 0.255577
O O17 0.750000 0.061557 0.380385
O O18 0.959662 0.141686 0.417380
O O19 0.970330 0.088834 0.308767
O O20 0.000000 0.000000 0.401455
O O21 0.750000 0.234953 0.423560
O O22 0.250000 0.651750 0.757094
#
# Coordination Sequence:
#
# PCOD9378160 Si02
#       8
#     8   8   8   8   8   8   8   8
#     4  11  21  34  50  70  99 134 175 215 253 301
#     4  11  23  38  54  75 105 140 180 221 259 304
#     4   9  17  28  40  59  89 123 161 198 234 280
#     4   9  17  28  41  64  95 126 160 198 241 292
#     4  10  18  31  50  73 100 130 170 215 259 306
#     4   9  18  32  51  76 102 130 164 206 255 309
#     4  10  20  33  49  72 102 134 169 208 257 312
#     4   9  20  36  52  73 102 135 174 215 258 308
#
# _framework density 17.168748000000001
#
# number of rings (size 3 to 8) (size 9 to 14) (size 15 to 20)
#    0.000    2.250    1.250    3.000    0.000    6.500 
#    0.000    0.000    0.000    0.000    0.000    0.875 
#    0.000    6.000    0.000    0.000    0.000    0.000 
#
# Total GULP energy -178209.570521 kJ/mol
# GULP energy per Si atom -5569.049079 kJ/mol
# Density = 1.712967 g / cm^3
# Si number density = 17.168748 Si / 1000 Ang^3
#
#
#
# Elastic Constant Matrix: (Units=GPa)
#
#
# Indices 1 2 3 4 5 6 
#
# 1 67.5900 56.3670 30.7920 0.0000 0.0000 0.0000
# 2 56.3670 130.3450 24.5769 0.0000 0.0000 0.0000
# 3 30.7920 24.5769 49.1939 0.0000 0.0000 0.0000
# 4 0.0000 0.0000 0.0000 16.6684 0.0000 0.0000
# 5 0.0000 0.0000 0.0000 0.0000 16.0360 0.0000
# 6 0.0000 0.0000 0.0000 0.0000 0.0000 31.9653
#
#
#
# Elastic Compliance Matrix: (Units=1/GPa)
#
#
# Indices 1 2 3 4 5 6 
#
# 1 0.029334 -0.010183 -0.013274 0.000000 0.000000 0.000000
# 2 -0.010183 0.012004 0.000376 0.000000 0.000000 0.000000
# 3 -0.013274 0.000376 0.028448 0.000000 0.000000 0.000000
# 4 0.000000 0.000000 0.000000 0.059994 0.000000 0.000000
# 5 0.000000 0.000000 0.000000 0.000000 0.062360 0.000000
# 6 0.000000 0.000000 0.000000 0.000000 0.000000 0.031284
#
#
# Mechanical properties :
#
#
# Convention : Reuss Voigt Hill
#
# Bulk Modulus (GPa) = 42.32575 52.28898 47.30737
# Shear Modulus (GPa) = 18.02060 21.96014 19.99037
#
# Velocity S-wave (km/s) = 3.24329 3.58030 3.41595
# Velocity P-wave (km/s) = 6.22347 6.90025 6.57058
#
# Compressibility (1/GPa) = 0.02362628
#
# Stress axis : x y z
#
# Youngs Moduli (GPa) = 34.08997 83.30288 35.15140
#
# Poissons Ratio (x) = 0.84824 0.46660
# Poissons Ratio (y) = 0.34712 -0.01323
# Poissons Ratio (z) = 0.45251 -0.03134
#
# Static dielectric constant tensor:
#      x y z
#    x 1.602340 0.000000 0.000000 
#    y 0.000000 1.629550 0.000000 
#    z 0.000000 0.000000 1.580490 
# 
# From -- ./inp_files/21288.got.cif
#   From: 2010.05.17/outbox.cif.g08.bks.cpg/sg46_11_cif.got.tgz:21288.got - 2010.06.03 19:58:25.
