data_PCOD9378112
_publ_section_title
;
Structure prediction by ZEFSAII (Michael W. Deem and Ramdas Pophale) SiO2 
 PCOD9378112
Probable space group: I M A 2
;
_chemical_formula_sum "Si O2"
_cell_formula_units_Z 56
_cell_length_a 8.288377
_cell_length_b 19.514680
_cell_length_c 18.847235
_cell_angle_alpha 90.000000
_cell_angle_beta 90.000000
_cell_angle_gamma 90.000000
_cell_volume 3048.446494
_symmetry_space_group_name_H-M "I M A 2"
_symmetry_group_IT_number 46
_symmetry_cell_setting 'orthorhombic'
loop_
_space_group_symop_operation_xyz
x,y,z
-x,-y,z
1/2-x,y,z
1/2+x,-y,z
1/2+x,1/2+y,1/2+z
1/2-x,1/2-y,1/2+z
-x,1/2+y,1/2+z
x,1/2-y,1/2+z
loop_
_atom_site_type_symbol
_atom_site_label
_atom_site_fract_x
_atom_site_fract_y
_atom_site_fract_z
Si Si1 0.059224 0.922156 0.746000
Si Si2 0.937216 0.218386 0.294423
Si Si3 0.443316 0.428592 0.624634
Si Si4 0.443563 0.208826 0.658935
Si Si5 0.943617 0.927453 0.288685
Si Si6 0.946747 0.798693 0.033462
Si Si7 0.064408 0.340821 0.378724
O O1 0.250000 0.920102 0.737579
O O2 0.987580 0.865952 0.690478
O O3 0.016770 0.895526 0.825707
O O4 0.000000 0.000000 0.735683
O O5 0.750000 0.234630 0.307508
O O6 0.976721 0.236097 0.212558
O O7 0.977362 0.141483 0.317344
O O8 0.051884 0.270275 0.335627
O O9 0.500000 0.500000 0.591774
O O10 0.250000 0.427928 0.626127
O O11 0.498750 0.427286 0.706119
O O12 0.496140 0.362564 0.582178
O O13 0.250000 0.216658 0.663794
O O14 0.492344 0.230699 0.578633
O O15 0.750000 0.922502 0.291634
O O16 0.000000 0.000000 0.319754
O O17 0.750000 0.796216 0.028178
O O18 0.005997 0.819418 0.955208
O O19 0.250000 0.362613 0.387947
#
# Coordination Sequence:
#
# PCOD9378112 Si02
#       7
#     8   8   8   8   8   8   8
#     4  11  22  38  57  82 110 143 185 230 276 329
#     4  11  20  32  49  74 104 136 176 218 257 309
#     4   9  17  30  45  69 101 133 165 201 241 294
#     4  10  18  34  57  80 105 138 177 225 272 318
#     4  10  18  30  49  72 100 131 166 208 255 300
#     4   9  18  33  53  77 107 141 178 216 266 322
#     4  10  20  35  55  78 106 142 177 218 270 321
#
# _framework density 18.370013
#
# number of rings (size 3 to 8) (size 9 to 14) (size 15 to 20)
#    0.000    2.000    1.429    5.571    0.000    1.143 
#    0.000    5.714    0.000    0.857    0.000    4.000 
#    0.000    0.000    0.000    0.000    0.000    0.000 
#
# Total GULP energy -155961.500640 kJ/mol
# GULP energy per Si atom -5570.053594 kJ/mol
# Density = 1.832820 g / cm^3
# Si number density = 18.370013 Si / 1000 Ang^3
#
#
#
# Elastic Constant Matrix: (Units=GPa)
#
#
# Indices 1 2 3 4 5 6 
#
# 1 41.5074 3.5874 -1.9620 0.0000 0.0000 0.0000
# 2 3.5874 113.2162 17.6676 0.0000 0.0000 0.0000
# 3 -1.9620 17.6676 53.2480 0.0000 0.0000 0.0000
# 4 0.0000 0.0000 0.0000 12.0921 0.0000 0.0000
# 5 0.0000 0.0000 0.0000 0.0000 8.9804 0.0000
# 6 0.0000 0.0000 0.0000 0.0000 0.0000 27.9108
#
#
#
# Elastic Compliance Matrix: (Units=1/GPa)
#
#
# Indices 1 2 3 4 5 6 
#
# 1 0.024232 -0.000957 0.001210 0.000000 0.000000 0.000000
# 2 -0.000957 0.009353 -0.003138 0.000000 0.000000 0.000000
# 3 0.001210 -0.003138 0.019866 0.000000 0.000000 0.000000
# 4 0.000000 0.000000 0.000000 0.082699 0.000000 0.000000
# 5 0.000000 0.000000 0.000000 0.000000 0.111354 0.000000
# 6 0.000000 0.000000 0.000000 0.000000 0.000000 0.035828
#
#
# Mechanical properties :
#
#
# Convention : Reuss Voigt Hill
#
# Bulk Modulus (GPa) = 20.97274 27.39530 24.18402
# Shear Modulus (GPa) = 16.39371 22.37522 19.38447
#
# Velocity S-wave (km/s) = 2.99058 3.49381 3.25194
# Velocity P-wave (km/s) = 4.83387 5.58758 5.22434
#
# Compressibility (1/GPa) = 0.04768094
#
# Stress axis : x y z
#
# Youngs Moduli (GPa) = 41.26778 106.92054 50.33732
#
# Poissons Ratio (x) = 0.10229 -0.06092
# Poissons Ratio (y) = 0.03948 0.15798
# Poissons Ratio (z) = -0.04995 0.33557
#
# Static dielectric constant tensor:
#      x y z
#    x 1.632090 0.000000 0.000000 
#    y 0.000000 1.655170 0.000000 
#    z 0.000000 0.000000 1.671330 
# 
# From -- ./inp_files/21232.got.cif
#   From: 2010.05.17/outbox.cif.g08.bks.cpg/sg46_11_cif.got.tgz:21232.got - 2010.06.03 19:58:25.
