data_PCOD9378513
_publ_section_title
;
Structure prediction by ZEFSAII (Michael W. Deem and Ramdas Pophale) SiO2 
 PCOD9378513
Probable space group: I M A 2
;
_chemical_formula_sum "Si O2"
_cell_formula_units_Z 64
_cell_length_a 14.304369
_cell_length_b 5.116237
_cell_length_c 34.989804
_cell_angle_alpha 90.000000
_cell_angle_beta 90.000000
_cell_angle_gamma 90.000000
_cell_volume 2560.712778
_symmetry_space_group_name_H-M "I M A 2"
_symmetry_group_IT_number 46
_symmetry_cell_setting 'orthorhombic'
loop_
_space_group_symop_operation_xyz
x,y,z
-x,-y,z
1/2-x,y,z
1/2+x,-y,z
1/2+x,1/2+y,1/2+z
1/2-x,1/2-y,1/2+z
-x,1/2+y,1/2+z
x,1/2-y,1/2+z
loop_
_atom_site_type_symbol
_atom_site_label
_atom_site_fract_x
_atom_site_fract_y
_atom_site_fract_z
Si Si1 0.637227 0.827043 0.992830
Si Si2 0.392014 0.046230 0.573132
Si Si3 0.887304 0.045478 0.110357
Si Si4 0.135831 0.651065 0.366088
Si Si5 0.635307 0.327750 0.949785
Si Si6 0.645820 0.623508 0.242612
Si Si7 0.864537 0.848996 0.321621
Si Si8 0.897113 0.117062 0.195317
O O1 0.750000 0.837697 0.992517
O O2 0.645623 0.254099 0.078634
O O3 0.606753 0.619824 0.960583
O O4 0.611939 0.690970 0.032645
O O5 0.350937 0.255693 0.602529
O O6 0.395520 0.616926 0.481817
O O7 0.500000 0.000000 0.582543
O O8 0.863458 0.155516 0.152006
O O9 0.000000 0.000000 0.107952
O O10 0.250000 0.656371 0.366623
O O11 0.104933 0.735955 0.408072
O O12 0.105582 0.863108 0.334386
O O13 0.109790 0.359765 0.354117
O O14 0.750000 0.327569 0.949726
O O15 0.750000 0.525511 0.252741
O O16 0.600628 0.731366 0.281583
O O17 0.653383 0.880198 0.216553
O O18 0.602437 0.382163 0.219638
O O19 0.750000 0.858657 0.318959
O O20 0.000000 0.000000 0.191878
#
# Coordination Sequence:
#
# PCOD9378513 Si02
#       8
#     8   8   8   8   8   8   8   8
#     4  10  19  31  46  71 103 131 159 206 263 310
#     4  10  19  34  54  74  96 130 173 216 262 314
#     4   9  19  35  55  75  98 131 177 225 261 306
#     4   9  15  26  44  69  98 134 175 211 250 308
#     4   9  17  28  45  69 101 134 167 207 253 301
#     4  11  22  37  56  85 120 148 178 233 296 341
#     4   9  17  28  46  72 105 138 171 214 266 315
#     4  11  22  39  61  83 109 148 194 234 277 341
#
# _framework density 24.993039
#
# number of rings (size 3 to 8) (size 9 to 14) (size 15 to 20)
#    0.000    2.250    0.000    3.750    0.000    7.000 
#    0.000    3.750    0.000    0.000    0.000   13.125 
#    0.000    0.000    0.000    0.000    0.000    0.000 
#
# Total GULP energy -178943.537926 kJ/mol
# GULP energy per Si atom -5591.985560 kJ/mol
# Density = 2.493615 g / cm^3
# Si number density = 24.993039 Si / 1000 Ang^3
#
#
#
# Elastic Constant Matrix: (Units=GPa)
#
#
# Indices 1 2 3 4 5 6 
#
# 1 70.2454 9.4329 -6.8978 0.0000 0.0000 0.0000
# 2 9.4329 137.5415 30.4507 0.0000 0.0000 0.0000
# 3 -6.8978 30.4507 99.8934 0.0000 0.0000 0.0000
# 4 0.0000 0.0000 0.0000 42.6106 0.0000 0.0000
# 5 0.0000 0.0000 0.0000 0.0000 7.3892 0.0000
# 6 0.0000 0.0000 0.0000 0.0000 0.0000 -15.2386
#
#
#
# Elastic Compliance Matrix: (Units=1/GPa)
#
#
# Indices 1 2 3 4 5 6 
#
# 1 0.014549 -0.001309 0.001404 0.000000 0.000000 0.000000
# 2 -0.001309 0.007914 -0.002503 0.000000 0.000000 0.000000
# 3 0.001404 -0.002503 0.010871 0.000000 0.000000 0.000000
# 4 0.000000 0.000000 0.000000 0.023468 0.000000 0.000000
# 5 0.000000 0.000000 0.000000 0.000000 0.135333 0.000000
# 6 0.000000 0.000000 0.000000 0.000000 0.000000 -0.065623
#
#
# Mechanical properties :
#
#
# Convention : Reuss Voigt Hill
#
# Bulk Modulus (GPa) = 35.06502 41.51687 38.29094
# Shear Modulus (GPa) = 35.50250 25.26519 30.38385
#
# Velocity S-wave (km/s) = 3.77304 3.18290 3.49046
# Velocity P-wave (km/s) = 5.74817 5.49138 5.62124
#
# Compressibility (1/GPa) = 0.02851845
#
# Stress axis : x y z
#
# Youngs Moduli (GPa) = 68.73157 126.35189 91.99157
#
# Poissons Ratio (x) = 0.16534 -0.12911
# Poissons Ratio (y) = 0.08994 0.23025
# Poissons Ratio (z) = -0.09647 0.31625
#
# Static dielectric constant tensor:
#      x y z
#    x 2.068510 0.000000 0.000000 
#    y 0.000000 1.915350 0.000000 
#    z 0.000000 0.000000 1.964840 
# 
# From -- ./inp_files/25500.got.cif
#   From: 2010.05.17/outbox.cif.g08.bks.cpg/sg46_13_cif.got.tgz:25500.got - 2010.06.03 19:58:25.
