data_PCOD9378763
_publ_section_title
;
Structure prediction by ZEFSAII (Michael W. Deem and Ramdas Pophale) SiO2 
 PCOD9378763
Probable space group: I M A 2
;
_chemical_formula_sum "Si O2"
_cell_formula_units_Z 64
_cell_length_a 7.752521
_cell_length_b 25.542446
_cell_length_c 15.555957
_cell_angle_alpha 90.000000
_cell_angle_beta 90.000000
_cell_angle_gamma 90.000000
_cell_volume 3080.364922
_symmetry_space_group_name_H-M "I M A 2"
_symmetry_group_IT_number 46
_symmetry_cell_setting 'orthorhombic'
loop_
_space_group_symop_operation_xyz
x,y,z
-x,-y,z
1/2-x,y,z
1/2+x,-y,z
1/2+x,1/2+y,1/2+z
1/2-x,1/2-y,1/2+z
-x,1/2+y,1/2+z
x,1/2-y,1/2+z
loop_
_atom_site_type_symbol
_atom_site_label
_atom_site_fract_x
_atom_site_fract_y
_atom_site_fract_z
Si Si1 0.955132 0.884998 0.458760
Si Si2 0.543992 0.136172 0.783619
Si Si3 0.450909 0.272021 0.973646
Si Si4 0.544765 0.440530 0.786449
Si Si5 0.459800 0.766638 0.672005
Si Si6 0.949072 0.344575 0.465605
Si Si7 0.038846 0.649421 0.659251
Si Si8 0.544642 0.939093 0.631548
O O1 0.750000 0.877737 0.470393
O O2 0.022563 0.826734 0.437257
O O3 0.026273 0.908506 0.547733
O O4 0.982084 0.924594 0.380982
O O5 0.750000 0.142873 0.792746
O O6 0.479074 0.189097 0.737524
O O7 0.514531 0.088753 0.718632
O O8 0.472813 0.130144 0.879979
O O9 0.250000 0.265184 0.950850
O O10 0.468877 0.277958 0.076903
O O11 0.544713 0.218194 0.950754
O O12 0.500000 0.500000 0.764977
O O13 0.750000 0.435986 0.787569
O O14 0.477628 0.397898 0.718360
O O15 0.250000 0.768795 0.666451
O O16 0.509157 0.707009 0.693991
O O17 0.750000 0.361418 0.471971
O O18 0.024194 0.354269 0.560399
O O19 0.250000 0.648669 0.657341
O O20 0.750000 0.934674 0.628731
O O21 0.500000 0.000000 0.627738
#
# Coordination Sequence:
#
# PCOD9378763 Si02
#       8
#     8   8   8   8   8   8   8   8
#     4  10  22  38  55  81 115 149 185 227 277 337
#     4  10  20  34  58  87 114 148 190 233 279 333
#     4  10  19  33  52  81 117 150 183 221 276 333
#     4  11  23  38  59  81 108 145 190 238 283 332
#     4   9  17  32  54  81 111 143 185 226 269 331
#     4   9  19  36  58  83 115 150 189 233 275 334
#     4   8  17  35  56  80 110 145 185 231 277 326
#     4  11  23  40  59  80 114 152 190 234 282 337
#
# _framework density 20.776758999999998
#
# number of rings (size 3 to 8) (size 9 to 14) (size 15 to 20)
#    0.000    2.250    1.250    2.250    1.750    3.500 
#    0.000    5.625    0.000    1.500    0.000    0.000 
#    0.000    0.000    0.000    0.000    0.000    0.000 
#
# Total GULP energy -178644.094465 kJ/mol
# GULP energy per Si atom -5582.627952 kJ/mol
# Density = 2.072947 g / cm^3
# Si number density = 20.776759 Si / 1000 Ang^3
#
#
#
# Elastic Constant Matrix: (Units=GPa)
#
#
# Indices 1 2 3 4 5 6 
#
# 1 32.1804 -11.2231 -3.8165 0.0000 0.0000 0.0000
# 2 -11.2231 93.7684 31.4758 0.0001 0.0000 0.0000
# 3 -3.8165 31.4758 70.7786 0.0002 0.0000 0.0000
# 4 0.0000 0.0001 0.0002 36.7269 0.0000 0.0000
# 5 0.0000 0.0000 0.0000 0.0000 0.5605 0.0000
# 6 0.0000 0.0000 0.0000 0.0000 0.0000 18.9669
#
#
#
# Elastic Compliance Matrix: (Units=1/GPa)
#
#
# Indices 1 2 3 4 5 6 
#
# 1 0.032428 0.003872 0.000027 0.000000 0.000000 0.000000
# 2 0.003872 0.012998 -0.005572 0.000000 0.000000 0.000000
# 3 0.000027 -0.005572 0.016608 0.000000 0.000000 0.000000
# 4 0.000000 0.000000 0.000000 0.027228 0.000000 0.000000
# 5 0.000000 0.000000 0.000000 0.000000 1.784067 -0.000001
# 6 0.000000 0.000000 0.000000 0.000000 -0.000001 0.052724
#
#
# Mechanical properties :
#
#
# Convention : Reuss Voigt Hill
#
# Bulk Modulus (GPa) = 17.03892 25.51108 21.27500
# Shear Modulus (GPa) = 2.56547 23.27026 12.91787
#
# Velocity S-wave (km/s) = 1.11241 3.35029 2.49619
# Velocity P-wave (km/s) = 3.14145 5.22219 4.30929
#
# Compressibility (1/GPa) = 0.05868917
#
# Stress axis : x y z
#
# Youngs Moduli (GPa) = 30.83708 76.93293 60.21287
#
# Poissons Ratio (x) = -0.29792 -0.00160
# Poissons Ratio (y) = -0.11941 0.33548
# Poissons Ratio (z) = -0.00082 0.42864
#
# Static dielectric constant tensor:
#      x y z
#    x 1.755230 0.000000 0.000000 
#    y 0.000000 1.560340 0.000000 
#    z 0.000000 0.000000 1.764910 
# 
# From -- ./inp_files/14471.got.cif
#   From: 2010.05.17/outbox.cif.g08.bks.cpg/sg46_8_cif.got.tgz:14471.got - 2010.06.03 19:58:25.
