data_PCOD9378286
_publ_section_title
;
Structure prediction by ZEFSAII (Michael W. Deem and Ramdas Pophale) SiO2 
 PCOD9378286
Probable space group: I M A 2
;
_chemical_formula_sum "Si O2"
_cell_formula_units_Z 64
_cell_length_a 15.381961
_cell_length_b 9.542038
_cell_length_c 22.510397
_cell_angle_alpha 90.000000
_cell_angle_beta 90.000000
_cell_angle_gamma 90.000000
_cell_volume 3303.969291
_symmetry_space_group_name_H-M "I M A 2"
_symmetry_group_IT_number 46
_symmetry_cell_setting 'orthorhombic'
loop_
_space_group_symop_operation_xyz
x,y,z
-x,-y,z
1/2-x,y,z
1/2+x,-y,z
1/2+x,1/2+y,1/2+z
1/2-x,1/2-y,1/2+z
-x,1/2+y,1/2+z
x,1/2-y,1/2+z
loop_
_atom_site_type_symbol
_atom_site_label
_atom_site_fract_x
_atom_site_fract_y
_atom_site_fract_z
Si Si1 0.975367 0.654028 0.005590
Si Si2 0.354682 0.411613 0.310639
Si Si3 0.147844 0.377947 0.445636
Si Si4 0.854572 0.829939 0.224740
Si Si5 0.413065 0.909346 0.044895
Si Si6 0.147687 0.621989 0.676960
Si Si7 0.411509 0.918385 0.702244
Si Si8 0.846963 0.872470 0.614951
O O1 0.918626 0.626134 0.064617
O O2 0.000000 0.500000 0.981875
O O3 0.055981 0.755260 0.023377
O O4 0.912938 0.748521 0.964562
O O5 0.250000 0.409657 0.307843
O O6 0.378992 0.422495 0.379144
O O7 0.387281 0.268918 0.278025
O O8 0.385209 0.536943 0.268425
O O9 0.250000 0.339884 0.445097
O O10 0.133725 0.503496 0.492719
O O11 0.750000 0.837911 0.232225
O O12 0.867889 0.747062 0.163149
O O13 0.883736 0.987408 0.214015
O O14 0.361333 0.903993 0.106425
O O15 0.500000 0.000000 0.057216
O O16 0.250000 0.648825 0.690201
O O17 0.089495 0.754495 0.693445
O O18 0.500000 0.000000 0.689365
O O19 0.347314 0.986110 0.653722
O O20 0.750000 0.846741 0.590685
#
# Coordination Sequence:
#
# PCOD9378286 Si02
#       8
#     8   8   8   8   8   8   8   8
#     4  11  22  36  55  82 116 146 181 236 294 338
#     4   9  19  39  60  76 101 144 193 230 268 332
#     4  10  21  40  62  79 104 150 200 235 274 337
#     4   8  16  30  52  80 105 132 172 223 267 310
#     4  10  21  35  56  84 117 149 183 226 277 337
#     4  11  20  33  55  84 115 142 178 226 275 324
#     4  11  22  34  52  81 116 149 181 224 283 337
#     4  10  18  33  55  78 110 152 191 218 262 337
#
# _framework density 19.370640000000002
#
# number of rings (size 3 to 8) (size 9 to 14) (size 15 to 20)
#    0.000    2.000    0.000    6.000    0.000    3.500 
#    0.000    4.375    0.000    3.000    0.000    0.000 
#    0.000    0.000    0.000    0.000    0.000    0.000 
#
# Total GULP energy -178647.437779 kJ/mol
# GULP energy per Si atom -5582.732431 kJ/mol
# Density = 1.932655 g / cm^3
# Si number density = 19.370640 Si / 1000 Ang^3
#
#
#
# Elastic Constant Matrix: (Units=GPa)
#
#
# Indices 1 2 3 4 5 6 
#
# 1 49.9529 8.1626 13.1498 0.0000 0.0000 0.0000
# 2 8.1626 131.5650 36.2121 0.0000 0.0000 0.0000
# 3 13.1498 36.2121 117.7162 0.0000 0.0000 0.0000
# 4 0.0000 0.0000 0.0000 8.0564 0.0000 0.0000
# 5 0.0000 0.0000 0.0000 0.0000 20.2711 0.0000
# 6 0.0000 0.0000 0.0000 0.0000 0.0000 19.4327
#
#
#
# Elastic Compliance Matrix: (Units=1/GPa)
#
#
# Indices 1 2 3 4 5 6 
#
# 1 0.020685 -0.000707 -0.002093 0.000000 0.000000 0.000000
# 2 -0.000707 0.008328 -0.002483 0.000000 0.000000 0.000000
# 3 -0.002093 -0.002483 0.009493 0.000000 0.000000 0.000000
# 4 0.000000 0.000000 0.000000 0.124126 0.000000 0.000000
# 5 0.000000 0.000000 0.000000 0.000000 0.049331 0.000000
# 6 0.000000 0.000000 0.000000 0.000000 0.000000 0.051460
#
#
# Mechanical properties :
#
#
# Convention : Reuss Voigt Hill
#
# Bulk Modulus (GPa) = 35.79160 46.03147 40.91153
# Shear Modulus (GPa) = 17.64899 25.66602 21.65751
#
# Velocity S-wave (km/s) = 3.02175 3.64400 3.34737
# Velocity P-wave (km/s) = 5.54004 6.44361 6.00883
#
# Compressibility (1/GPa) = 0.02793952
#
# Stress axis : x y z
#
# Youngs Moduli (GPa) = 48.34321 120.07575 105.34502
#
# Poissons Ratio (x) = 0.08492 0.22050
# Poissons Ratio (y) = 0.03419 0.26156
# Poissons Ratio (z) = 0.10119 0.29813
#
# Static dielectric constant tensor:
#      x y z
#    x 1.726020 0.000000 0.000000 
#    y 0.000000 1.706020 0.000000 
#    z 0.000000 0.000000 1.654750 
# 
# From -- ./inp_files/22216.got.cif
#   From: 2010.05.17/outbox.cif.g08.bks.cpg/sg46_12_cif.got.tgz:22216.got - 2010.06.03 19:58:25.
