data_PCOD9378586
_publ_section_title
;
Structure prediction by ZEFSAII (Michael W. Deem and Ramdas Pophale) SiO2 
 PCOD9378586
Probable space group: I M A 2
;
_chemical_formula_sum "Si O2"
_cell_formula_units_Z 64
_cell_length_a 9.514993
_cell_length_b 18.685563
_cell_length_c 21.580100
_cell_angle_alpha 90.000000
_cell_angle_beta 90.000000
_cell_angle_gamma 90.000000
_cell_volume 3836.790744
_symmetry_space_group_name_H-M "I M A 2"
_symmetry_group_IT_number 46
_symmetry_cell_setting 'orthorhombic'
loop_
_space_group_symop_operation_xyz
x,y,z
-x,-y,z
1/2-x,y,z
1/2+x,-y,z
1/2+x,1/2+y,1/2+z
1/2-x,1/2-y,1/2+z
-x,1/2+y,1/2+z
x,1/2-y,1/2+z
loop_
_atom_site_type_symbol
_atom_site_label
_atom_site_fract_x
_atom_site_fract_y
_atom_site_fract_z
Si Si1 0.083134 0.569294 0.809620
Si Si2 0.082614 0.572773 0.145492
Si Si3 0.089293 0.690466 0.047184
Si Si4 0.587026 0.382107 0.286964
Si Si5 0.415230 0.432727 0.404119
Si Si6 0.583957 0.725454 0.453569
Si Si7 0.405018 0.940589 0.454773
Si Si8 0.916279 0.276130 0.832047
O O1 0.250000 0.559042 0.799676
O O2 0.053969 0.571347 0.883758
O O3 0.045761 0.651748 0.794102
O O4 0.000000 0.500000 0.784759
O O5 0.250000 0.562675 0.133393
O O6 0.040880 0.643094 0.105808
O O7 0.062678 0.590151 0.217952
O O8 0.000000 0.500000 0.130622
O O9 0.250000 0.716104 0.057909
O O10 0.094750 0.631236 0.992869
O O11 0.988480 0.749599 0.017417
O O12 0.750000 0.397959 0.303970
O O13 0.482966 0.416352 0.336876
O O14 0.570735 0.296187 0.292186
O O15 0.500000 0.500000 0.430542
O O16 0.250000 0.448024 0.398856
O O17 0.432652 0.359480 0.442552
O O18 0.750000 0.742842 0.452942
O O19 0.507229 0.762244 0.394112
O O20 0.250000 0.971393 0.453103
O O21 0.500000 0.000000 0.485146
O O22 0.750000 0.284099 0.849801
#
# Coordination Sequence:
#
# PCOD9378586 Si02
#       8
#     8   8   8   8   8   8   8   8
#     4   9  16  25  38  59  85 115 148 182 223 273
#     4  10  21  34  49  71  97 129 169 205 235 276
#     4  10  19  32  46  62  91 126 160 193 229 277
#     4   9  18  32  51  72  95 127 165 204 242 282
#     4  10  20  33  50  74  99 124 154 194 243 294
#     4  10  20  31  46  70  95 118 154 197 236 282
#     4   9  16  25  37  55  80 114 150 181 216 261
#     4   9  16  30  48  65  91 125 158 192 240 291
#
# _framework density 16.680606999999998
#
# number of rings (size 3 to 8) (size 9 to 14) (size 15 to 20)
#    0.000    2.500    1.250    1.500    0.000    4.500 
#    0.000    0.000    0.000    0.000    0.000    0.875 
#    0.000    4.000    0.000    0.000    0.000    0.125 
#
# Total GULP energy -178178.432354 kJ/mol
# GULP energy per Si atom -5568.076011 kJ/mol
# Density = 1.664264 g / cm^3
# Si number density = 16.680607 Si / 1000 Ang^3
#
#
#
# Elastic Constant Matrix: (Units=GPa)
#
#
# Indices 1 2 3 4 5 6 
#
# 1 68.7447 57.7865 27.1445 0.0000 0.0000 0.0000
# 2 57.7865 106.1092 19.5185 0.0000 0.0000 0.0000
# 3 27.1445 19.5185 45.4533 0.0000 0.0000 0.0000
# 4 0.0000 0.0000 0.0000 17.5184 0.0000 0.0000
# 5 0.0000 0.0000 0.0000 0.0000 12.8095 0.0000
# 6 0.0000 0.0000 0.0000 0.0000 0.0000 28.5245
#
#
#
# Elastic Compliance Matrix: (Units=1/GPa)
#
#
# Indices 1 2 3 4 5 6 
#
# 1 0.032510 -0.015346 -0.012825 0.000000 0.000000 0.000000
# 2 -0.015346 0.017476 0.001660 0.000000 0.000000 0.000000
# 3 -0.012825 0.001660 0.028947 0.000000 0.000000 0.000000
# 4 0.000000 0.000000 0.000000 0.057083 0.000000 0.000000
# 5 0.000000 0.000000 0.000000 0.000000 0.078067 0.000000
# 6 0.000000 0.000000 0.000000 0.000000 0.000000 0.035058
#
#
# Mechanical properties :
#
#
# Convention : Reuss Voigt Hill
#
# Bulk Modulus (GPa) = 38.59347 47.68957 43.14152
# Shear Modulus (GPa) = 16.08749 19.49433 17.79091
#
# Velocity S-wave (km/s) = 3.10892 3.42231 3.26937
# Velocity P-wave (km/s) = 6.00617 6.65343 6.33807
#
# Compressibility (1/GPa) = 0.02591112
#
# Stress axis : x y z
#
# Youngs Moduli (GPa) = 30.75950 57.22091 34.54588
#
# Poissons Ratio (x) = 0.87810 0.44306
# Poissons Ratio (y) = 0.47203 -0.05734
# Poissons Ratio (z) = 0.39450 -0.09498
#
# Static dielectric constant tensor:
#      x y z
#    x 1.583540 0.000000 0.000000 
#    y 0.000000 1.622250 0.000000 
#    z 0.000000 0.000000 1.553000 
# 
# From -- ./inp_files/21445.got.cif
#   From: 2010.05.17/outbox.cif.g08.bks.cpg/sg46_11_cif.got.tgz:21445.got - 2010.06.03 19:58:25.
