data_PCOD9378587
_publ_section_title
;
Structure prediction by ZEFSAII (Michael W. Deem and Ramdas Pophale) SiO2 
 PCOD9378587
Probable space group: I M A 2
;
_chemical_formula_sum "Si O2"
_cell_formula_units_Z 56
_cell_length_a 8.864815
_cell_length_b 19.628543
_cell_length_c 17.845417
_cell_angle_alpha 90.000000
_cell_angle_beta 90.000000
_cell_angle_gamma 90.000000
_cell_volume 3105.163276
_symmetry_space_group_name_H-M "I M A 2"
_symmetry_group_IT_number 46
_symmetry_cell_setting 'orthorhombic'
loop_
_space_group_symop_operation_xyz
x,y,z
-x,-y,z
1/2-x,y,z
1/2+x,-y,z
1/2+x,1/2+y,1/2+z
1/2-x,1/2-y,1/2+z
-x,1/2+y,1/2+z
x,1/2-y,1/2+z
loop_
_atom_site_type_symbol
_atom_site_label
_atom_site_fract_x
_atom_site_fract_y
_atom_site_fract_z
Si Si1 0.929931 0.690259 0.009180
Si Si2 0.077619 0.568624 0.928538
Si Si3 0.427977 0.797784 0.907605
Si Si4 0.430142 0.781250 0.253544
Si Si5 0.570006 0.654087 0.174084
Si Si6 0.932536 0.925374 0.820665
Si Si7 0.579349 0.432147 0.748071
O O1 0.750000 0.699117 0.011841
O O2 0.984752 0.658973 0.088638
O O3 0.977044 0.632186 0.950945
O O4 0.003593 0.760747 0.980601
O O5 0.250000 0.576654 0.955164
O O6 0.084374 0.563374 0.838594
O O7 0.000000 0.500000 0.957868
O O8 0.250000 0.810414 0.917553
O O9 0.444772 0.742746 0.839799
O O10 0.507650 0.866655 0.877486
O O11 0.250000 0.777928 0.237426
O O12 0.522431 0.726269 0.207894
O O13 0.486241 0.857099 0.235253
O O14 0.750000 0.646866 0.171088
O O15 0.518009 0.599074 0.236375
O O16 0.750000 0.926987 0.823482
O O17 0.000000 0.000000 0.836140
O O18 0.500000 0.500000 0.719619
O O19 0.750000 0.432082 0.719925
#
# Coordination Sequence:
#
# PCOD9378587 Si02
#       7
#     8   8   8   8   8   8   8
#     4  11  21  34  51  76 109 144 179 219 266 320
#     4  10  19  32  47  70 103 136 171 207 247 299
#     4  10  19  34  55  79 105 137 178 226 272 318
#     4   9  17  32  51  72  99 129 170 217 259 309
#     4   9  21  36  51  75 106 138 177 217 263 321
#     4  10  20  37  58  82 109 142 183 228 277 329
#     4   9  17  29  45  70  98 126 161 202 243 293
#
# _framework density 18.034479000000001
#
# number of rings (size 3 to 8) (size 9 to 14) (size 15 to 20)
#    0.000    2.286    1.429    1.714    0.000    4.000 
#    0.000    1.429    0.000    0.857    0.000    2.000 
#    0.000    0.000    0.000    0.000    0.000    0.000 
#
# Total GULP energy -155919.050943 kJ/mol
# GULP energy per Si atom -5568.537534 kJ/mol
# Density = 1.799343 g / cm^3
# Si number density = 18.034479 Si / 1000 Ang^3
#
#
#
# Elastic Constant Matrix: (Units=GPa)
#
#
# Indices 1 2 3 4 5 6 
#
# 1 33.9001 20.1265 11.2904 0.0000 0.0000 0.0000
# 2 20.1265 120.3875 5.2334 0.0000 0.0000 0.0000
# 3 11.2904 5.2334 24.5719 0.0000 0.0000 0.0000
# 4 0.0000 0.0000 0.0000 6.1782 0.0000 0.0000
# 5 0.0000 0.0000 0.0000 0.0000 15.2229 0.0000
# 6 0.0000 0.0000 0.0000 0.0000 0.0000 30.3475
#
#
#
# Elastic Compliance Matrix: (Units=1/GPa)
#
#
# Indices 1 2 3 4 5 6 
#
# 1 0.038345 -0.005697 -0.016405 0.000000 0.000000 0.000000
# 2 -0.005697 0.009231 0.000652 0.000000 0.000000 0.000000
# 3 -0.016405 0.000652 0.048096 0.000000 0.000000 0.000000
# 4 0.000000 0.000000 0.000000 0.161860 0.000000 0.000000
# 5 0.000000 0.000000 0.000000 0.000000 0.065690 0.000000
# 6 0.000000 0.000000 0.000000 0.000000 0.000000 0.032952
#
#
# Mechanical properties :
#
#
# Convention : Reuss Voigt Hill
#
# Bulk Modulus (GPa) = 18.95023 28.01779 23.48401
# Shear Modulus (GPa) = 12.00004 19.83034 15.91519
#
# Velocity S-wave (km/s) = 2.58232 3.31959 2.97389
# Velocity P-wave (km/s) = 4.40701 5.50112 4.98418
#
# Compressibility (1/GPa) = 0.05276981
#
# Stress axis : x y z
#
# Youngs Moduli (GPa) = 26.07925 108.33453 20.79173
#
# Poissons Ratio (x) = 0.61722 0.34109
# Poissons Ratio (y) = 0.14858 -0.01355
# Poissons Ratio (z) = 0.42784 -0.07062
#
# Static dielectric constant tensor:
#      x y z
#    x 1.616700 0.000000 0.000000 
#    y 0.000000 1.620150 0.000000 
#    z 0.000000 0.000000 1.656230 
# 
# From -- ./inp_files/18452.got.cif
#   From: 2010.05.17/outbox.cif.g08.bks.cpg/sg46_10_cif.got.tgz:18452.got - 2010.06.03 19:58:25.
