data_PCOD9378484
_publ_section_title
;
Structure prediction by ZEFSAII (Michael W. Deem and Ramdas Pophale) SiO2 
 PCOD9378484
Probable space group: I M A 2
;
_chemical_formula_sum "Si O2"
_cell_formula_units_Z 64
_cell_length_a 8.700297
_cell_length_b 15.190749
_cell_length_c 28.099720
_cell_angle_alpha 90.000000
_cell_angle_beta 90.000000
_cell_angle_gamma 90.000000
_cell_volume 3713.772180
_symmetry_space_group_name_H-M "I M A 2"
_symmetry_group_IT_number 46
_symmetry_cell_setting 'orthorhombic'
loop_
_space_group_symop_operation_xyz
x,y,z
-x,-y,z
1/2-x,y,z
1/2+x,-y,z
1/2+x,1/2+y,1/2+z
1/2-x,1/2-y,1/2+z
-x,1/2+y,1/2+z
x,1/2-y,1/2+z
loop_
_atom_site_type_symbol
_atom_site_label
_atom_site_fract_x
_atom_site_fract_y
_atom_site_fract_z
Si Si1 0.435478 0.722291 0.518320
Si Si2 0.435272 0.272158 0.788399
Si Si3 0.434591 0.594513 0.978025
Si Si4 0.934734 0.904991 0.372517
Si Si5 0.433906 0.904937 0.823847
Si Si6 0.435043 0.905082 0.933505
Si Si7 0.064799 0.405268 0.706953
Si Si8 0.933921 0.904880 0.096813
O O1 0.250000 0.718012 0.521291
O O2 0.479450 0.823948 0.511408
O O3 0.483276 0.669224 0.470689
O O4 0.505094 0.671586 0.562936
O O5 0.250000 0.264807 0.787639
O O6 0.477598 0.330223 0.834730
O O7 0.506225 0.175950 0.792932
O O8 0.484649 0.327916 0.742294
O O9 0.500000 0.500000 0.993061
O O10 0.250000 0.590065 0.975573
O O11 0.497402 0.612337 0.924819
O O12 0.750000 0.910188 0.375314
O O13 0.000000 0.000000 0.357093
O O14 0.250000 0.908228 0.822814
O O15 0.484012 0.888556 0.878979
O O16 0.500000 0.000000 0.809870
O O17 0.250000 0.909137 0.933911
O O18 0.500000 0.000000 0.948039
O O19 0.250000 0.409890 0.708787
O O20 0.019334 0.390750 0.651958
O O21 0.000000 0.500000 0.722154
O O22 0.750000 0.908581 0.094536
O O23 0.000000 0.000000 0.081753
#
# Coordination Sequence:
#
# PCOD9378484 Si02
#       8
#     8   8   8   8   8   8   8   8
#     4  10  20  33  50  72  98 129 165 204 244 289
#     4  10  20  33  50  73 100 130 166 205 244 288
#     4  10  20  34  50  69  98 133 167 205 245 287
#     4  10  19  30  47  72 102 134 166 202 242 287
#     4  10  20  34  51  71  98 132 168 205 244 287
#     4   9  18  31  46  68  98 129 160 195 237 284
#     4   9  19  35  53  75 103 131 159 196 242 291
#     4  10  20  34  53  76 102 130 159 196 243 293
#
# _framework density 17.233152
#
# number of rings (size 3 to 8) (size 9 to 14) (size 15 to 20)
#    0.000    2.250    0.000    3.750    0.000    6.000 
#    0.000    0.000    0.000    0.750    0.000    1.750 
#    0.000    0.000    0.000    0.000    0.000    0.000 
#
# Total GULP energy -178622.380630 kJ/mol
# GULP energy per Si atom -5581.949395 kJ/mol
# Density = 1.719393 g / cm^3
# Si number density = 17.233152 Si / 1000 Ang^3
#
#
#
# Elastic Constant Matrix: (Units=GPa)
#
#
# Indices 1 2 3 4 5 6 
#
# 1 29.1812 42.3744 26.7487 0.0000 0.0000 0.0000
# 2 42.3744 167.0493 86.0902 0.0000 0.0000 0.0000
# 3 26.7487 86.0902 74.0668 0.0000 0.0000 0.0000
# 4 0.0000 0.0000 0.0000 30.4667 0.0000 0.0000
# 5 0.0000 0.0000 0.0000 0.0000 18.8816 0.0000
# 6 0.0000 0.0000 0.0000 0.0000 0.0000 30.3323
#
#
#
# Elastic Compliance Matrix: (Units=1/GPa)
#
#
# Indices 1 2 3 4 5 6 
#
# 1 0.056753 -0.009560 -0.009384 0.000000 0.000000 0.000000
# 2 -0.009560 0.016539 -0.015772 0.000000 0.000000 0.000000
# 3 -0.009384 -0.015772 0.035222 0.000000 0.000000 0.000000
# 4 0.000000 0.000000 0.000000 0.032823 0.000000 0.000000
# 5 0.000000 0.000000 0.000000 0.000000 0.052962 0.000000
# 6 0.000000 0.000000 0.000000 0.000000 0.000000 0.032968
#
#
# Mechanical properties :
#
#
# Convention : Reuss Voigt Hill
#
# Bulk Modulus (GPa) = 25.58663 64.52487 45.05575
# Shear Modulus (GPa) = 16.14335 23.60841 19.87588
#
# Velocity S-wave (km/s) = 3.06398 3.70529 3.39979
# Velocity P-wave (km/s) = 5.23420 7.47189 6.45081
#
# Compressibility (1/GPa) = 0.03908291
#
# Stress axis : x y z
#
# Youngs Moduli (GPa) = 17.62034 60.46203 28.39128
#
# Poissons Ratio (x) = 0.57802 0.26642
# Poissons Ratio (y) = 0.16845 0.44778
# Poissons Ratio (z) = 0.16535 0.95358
#
# Static dielectric constant tensor:
#      x y z
#    x 1.581170 0.000000 0.000000 
#    y 0.000000 1.572820 0.000000 
#    z 0.000000 0.000000 1.582310 
# 
# From -- ./inp_files/23214.got.cif
#   From: 2010.05.17/outbox.cif.g08.bks.cpg/sg46_12_cif.got.tgz:23214.got - 2010.06.03 19:58:25.
