data_PCOD9378334
_publ_section_title
;
Structure prediction by ZEFSAII (Michael W. Deem and Ramdas Pophale) SiO2 
 PCOD9378334
Probable space group: I M A 2
;
_chemical_formula_sum "Si O2"
_cell_formula_units_Z 60
_cell_length_a 14.163792
_cell_length_b 17.588472
_cell_length_c 12.906425
_cell_angle_alpha 90.000000
_cell_angle_beta 90.000000
_cell_angle_gamma 90.000000
_cell_volume 3215.241614
_symmetry_space_group_name_H-M "I M A 2"
_symmetry_group_IT_number 46
_symmetry_cell_setting 'orthorhombic'
loop_
_space_group_symop_operation_xyz
x,y,z
-x,-y,z
1/2-x,y,z
1/2+x,-y,z
1/2+x,1/2+y,1/2+z
1/2-x,1/2-y,1/2+z
-x,1/2+y,1/2+z
x,1/2-y,1/2+z
loop_
_atom_site_type_symbol
_atom_site_label
_atom_site_fract_x
_atom_site_fract_y
_atom_site_fract_z
Si Si1 0.516218 0.344554 0.120430
Si Si2 0.143426 0.021742 0.912282
Si Si3 0.143022 0.688341 0.922750
Si Si4 0.518998 0.799139 0.273846
Si Si5 0.500000 0.500000 0.236213
Si Si6 0.439972 0.370031 0.576599
Si Si7 0.352387 0.645250 0.492416
Si Si8 0.139405 0.218038 0.478724
O O1 0.507507 0.276177 0.205505
O O2 0.531243 0.427127 0.169941
O O3 0.597585 0.329838 0.034868
O O4 0.419460 0.338830 0.053080
O O5 0.250000 0.051079 0.902026
O O6 0.079978 0.034473 0.812118
O O7 0.095316 0.056966 0.014573
O O8 0.146765 0.931334 0.926744
O O9 0.250000 0.660630 0.913602
O O10 0.073282 0.666633 0.830085
O O11 0.143472 0.780358 0.921772
O O12 0.568015 0.860615 0.198906
O O13 0.590502 0.779859 0.366456
O O14 0.551578 0.356765 0.556878
O O15 0.381773 0.300707 0.526916
O O16 0.250000 0.648396 0.548663
O O17 0.250000 0.202090 0.474851
#
# Coordination Sequence:
#
# PCOD9378334 Si02
#       8
#     8   8   8   8   4   8   8   8
#     4  10  22  37  58  87 114 149 194 238 292 342
#     4  11  23  36  58  91 121 151 186 233 292 353
#     4  10  20  37  59  86 118 149 191 241 284 342
#     4  10  19  34  59  85 114 149 197 234 285 339
#     4  12  22  38  66  82 116 154 186 244 294 348
#     4  11  19  36  57  85 124 152 190 235 290 339
#     4  10  18  34  58  83 118 151 180 232 290 338
#     4  10  21  37  56  82 118 155 197 243 281 337
#
# _framework density 18.661117000000001
#
# number of rings (size 3 to 8) (size 9 to 14) (size 15 to 20)
#    0.000    1.600    5.333    2.000    0.000    4.800 
#    0.000    0.000   11.733    0.000    0.000    0.000 
#    0.000    0.000    0.000    0.000    0.000    0.000 
#
# Total GULP energy -167205.662550 kJ/mol
# GULP energy per Si atom -5573.522085 kJ/mol
# Density = 1.861864 g / cm^3
# Si number density = 18.661117 Si / 1000 Ang^3
#
#
#
# Elastic Constant Matrix: (Units=GPa)
#
#
# Indices 1 2 3 4 5 6 
#
# 1 138.1947 2.5787 50.9882 0.0000 0.0000 0.0000
# 2 2.5787 54.3671 24.7229 0.0000 0.0000 0.0000
# 3 50.9882 24.7229 119.9896 0.0000 0.0000 0.0000
# 4 0.0000 0.0000 0.0000 14.0411 0.0000 0.0000
# 5 0.0000 0.0000 0.0000 0.0000 4.3682 0.0000
# 6 0.0000 0.0000 0.0000 0.0000 0.0000 18.9495
#
#
#
# Elastic Compliance Matrix: (Units=1/GPa)
#
#
# Indices 1 2 3 4 5 6 
#
# 1 0.008677 0.001396 -0.003975 0.000000 0.000000 0.000000
# 2 0.001396 0.020520 -0.004821 0.000000 0.000000 0.000000
# 3 -0.003975 -0.004821 0.011016 0.000000 0.000000 0.000000
# 4 0.000000 0.000000 0.000000 0.071219 0.000000 0.000000
# 5 0.000000 0.000000 0.000000 0.000000 0.228925 0.000000
# 6 0.000000 0.000000 0.000000 0.000000 0.000000 0.052772
#
#
# Mechanical properties :
#
#
# Convention : Reuss Voigt Hill
#
# Bulk Modulus (GPa) = 39.35002 52.12567 45.73785
# Shear Modulus (GPa) = 12.00769 23.08921 17.54845
#
# Velocity S-wave (km/s) = 2.53940 3.52133 3.06988
# Velocity P-wave (km/s) = 5.45257 6.67281 6.09331
#
# Compressibility (1/GPa) = 0.02541295
#
# Stress axis : x y z
#
# Youngs Moduli (GPa) = 115.25255 48.73388 90.77398
#
# Poissons Ratio (x) = -0.06803 0.36079
# Poissons Ratio (y) = -0.16088 0.43763
# Poissons Ratio (z) = 0.45809 0.23495
#
# Static dielectric constant tensor:
#      x y z
#    x 1.690680 0.000000 0.000000 
#    y 0.000000 1.656280 0.000000 
#    z 0.000000 0.000000 1.662400 
# 
# From -- ./inp_files/11263.got.cif
#   From: 2010.05.17/outbox.cif.g08.bks.cpg/sg46_6_cif.got.tgz:11263.got - 2010.06.03 19:58:25.
