data_PCOD9378401
_publ_section_title
;
Structure prediction by ZEFSAII (Michael W. Deem and Ramdas Pophale) SiO2 
 PCOD9378401
Probable space group: I M A 2
;
_chemical_formula_sum "Si O2"
_cell_formula_units_Z 48
_cell_length_a 14.340516
_cell_length_b 9.384121
_cell_length_c 19.924304
_cell_angle_alpha 90.000000
_cell_angle_beta 90.000000
_cell_angle_gamma 90.000000
_cell_volume 2681.276099
_symmetry_space_group_name_H-M "I M A 2"
_symmetry_group_IT_number 46
_symmetry_cell_setting 'orthorhombic'
loop_
_space_group_symop_operation_xyz
x,y,z
-x,-y,z
1/2-x,y,z
1/2+x,-y,z
1/2+x,1/2+y,1/2+z
1/2-x,1/2-y,1/2+z
-x,1/2+y,1/2+z
x,1/2-y,1/2+z
loop_
_atom_site_type_symbol
_atom_site_label
_atom_site_fract_x
_atom_site_fract_y
_atom_site_fract_z
Si Si1 0.950733 0.358521 0.476500
Si Si2 0.250000 0.001831 0.208255
Si Si3 0.957135 0.344197 0.103058
Si Si4 0.446553 0.351613 0.711222
Si Si5 0.750000 0.194646 0.966720
Si Si6 0.750000 0.241662 0.319754
Si Si7 0.250000 0.774702 0.616721
Si Si8 0.461692 0.657710 0.321516
O O1 0.956819 0.233139 0.530513
O O2 0.842470 0.397312 0.467032
O O3 0.981571 0.320221 0.401013
O O4 0.000000 0.500000 0.501911
O O5 0.250000 0.896662 0.272827
O O6 0.250000 0.886531 0.146736
O O7 0.160446 0.102678 0.208955
O O8 0.851168 0.341352 0.133552
O O9 0.000000 0.500000 0.098419
O O10 0.021590 0.250026 0.151187
O O11 0.500000 0.500000 0.704716
O O12 0.482186 0.272233 0.777973
O O13 0.750000 0.289189 0.899675
O O14 0.750000 0.278169 0.036049
O O15 0.650448 0.322757 0.308567
O O16 0.500000 0.500000 0.304422
#
# Coordination Sequence:
#
# PCOD9378401 Si02
#       8
#     8   4   8   8   4   4   4   8
#     4   9  19  37  60  88 119 163 203 243 296 360
#     4  12  24  38  64  91 121 158 208 253 299 356
#     4  11  23  39  61  89 124 159 202 253 304 359
#     4  12  23  39  61  89 115 159 202 250 301 358
#     4   8  18  32  57  84 115 162 196 237 295 362
#     4  10  18  37  58  87 121 163 200 243 305 356
#     4  10  20  39  59  84 121 165 196 243 309 362
#     4  10  21  38  62  90 124 160 201 250 303 361
#
# _framework density 17.901921999999999
#
# number of rings (size 3 to 8) (size 9 to 14) (size 15 to 20)
#    0.000    1.667    3.333    1.000    2.333    2.000 
#    3.000    1.667    0.000    0.000    0.000    0.000 
#    0.000    0.000    0.000    0.000    0.000    0.000 
#
# Total GULP energy -133726.405210 kJ/mol
# GULP energy per Si atom -5571.933550 kJ/mol
# Density = 1.786118 g / cm^3
# Si number density = 17.901922 Si / 1000 Ang^3
#
#
#
# Elastic Constant Matrix: (Units=GPa)
#
#
# Indices 1 2 3 4 5 6 
#
# 1 167.9561 81.6186 43.8427 0.0000 0.0000 0.0000
# 2 81.6186 137.6023 58.0229 0.0000 0.0000 0.0000
# 3 43.8427 58.0229 91.5380 0.0000 0.0000 0.0000
# 4 0.0000 0.0000 0.0000 29.8147 0.0000 0.0000
# 5 0.0000 0.0000 0.0000 0.0000 4.8436 0.0000
# 6 0.0000 0.0000 0.0000 0.0000 0.0000 29.3106
#
#
#
# Elastic Compliance Matrix: (Units=1/GPa)
#
#
# Indices 1 2 3 4 5 6 
#
# 1 0.008459 -0.004516 -0.001189 0.000000 0.000000 0.000000
# 2 -0.004516 0.012329 -0.005652 0.000000 0.000000 0.000000
# 3 -0.001189 -0.005652 0.015077 0.000000 0.000000 0.000000
# 4 0.000000 0.000000 0.000000 0.033540 0.000000 0.000000
# 5 0.000000 0.000000 0.000000 0.000000 0.206460 0.000000
# 6 0.000000 0.000000 0.000000 0.000000 0.000000 0.034117
#
#
# Mechanical properties :
#
#
# Convention : Reuss Voigt Hill
#
# Bulk Modulus (GPa) = 76.04204 84.89607 80.46906
# Shear Modulus (GPa) = 14.83327 27.03459 20.93393
#
# Velocity S-wave (km/s) = 2.88164 3.89028 3.42331
# Velocity P-wave (km/s) = 7.32400 8.22830 7.78928
#
# Compressibility (1/GPa) = 0.01315062
#
# Stress axis : x y z
#
# Youngs Moduli (GPa) = 118.21930 81.10716 66.32811
#
# Poissons Ratio (x) = 0.36628 0.07885
# Poissons Ratio (y) = 0.53388 0.37490
# Poissons Ratio (z) = 0.14054 0.45843
#
# Static dielectric constant tensor:
#      x y z
#    x 1.653280 0.000000 0.000000 
#    y 0.000000 1.564150 0.000000 
#    z 0.000000 0.000000 1.662220 
# 
# From -- ./inp_files/21921.got.cif
#   From: 2010.05.17/outbox.cif.g08.bks.cpg/sg46_11_cif.got.tgz:21921.got - 2010.06.03 19:58:25.
