data_PCOD9378105
_publ_section_title
;
Structure prediction by ZEFSAII (Michael W. Deem and Ramdas Pophale) SiO2 
 PCOD9378105
Probable space group: I M A 2
;
_chemical_formula_sum "Si O2"
_cell_formula_units_Z 64
_cell_length_a 8.617001
_cell_length_b 14.571931
_cell_length_c 30.507714
_cell_angle_alpha 90.000000
_cell_angle_beta 90.000000
_cell_angle_gamma 90.000000
_cell_volume 3830.742111
_symmetry_space_group_name_H-M "I M A 2"
_symmetry_group_IT_number 46
_symmetry_cell_setting 'orthorhombic'
loop_
_space_group_symop_operation_xyz
x,y,z
-x,-y,z
1/2-x,y,z
1/2+x,-y,z
1/2+x,1/2+y,1/2+z
1/2-x,1/2-y,1/2+z
-x,1/2+y,1/2+z
x,1/2-y,1/2+z
loop_
_atom_site_type_symbol
_atom_site_label
_atom_site_fract_x
_atom_site_fract_y
_atom_site_fract_z
Si Si1 0.576761 0.906746 0.421710
Si Si2 0.068401 0.756754 0.266330
Si Si3 0.062650 0.895078 0.190252
Si Si4 0.935804 0.292604 0.418571
Si Si5 0.563203 0.103242 0.006610
Si Si6 0.924416 0.592101 0.817249
Si Si7 0.564187 0.895825 0.097070
Si Si8 0.060874 0.896223 0.829500
O O1 0.750000 0.896491 0.439524
O O2 0.485782 0.812058 0.425686
O O3 0.588240 0.919000 0.369145
O O4 0.500000 0.000000 0.439186
O O5 0.250000 0.743765 0.257626
O O6 0.007865 0.819525 0.226095
O O7 0.008010 0.660498 0.285973
O O8 0.039067 0.825479 0.306759
O O9 0.250000 0.900752 0.191740
O O10 0.006157 0.860522 0.142615
O O11 0.000000 0.000000 0.196467
O O12 0.750000 0.295765 0.416334
O O13 0.985274 0.347109 0.461989
O O14 0.992044 0.341463 0.373590
O O15 0.750000 0.102056 0.009741
O O16 0.500000 0.000000 0.003748
O O17 0.494980 0.146349 0.051383
O O18 0.750000 0.608062 0.800147
O O19 0.000000 0.500000 0.798563
O O20 0.750000 0.896249 0.098779
O O21 0.500000 0.000000 0.095642
O O22 0.250000 0.897018 0.829551
O O23 0.000000 0.000000 0.830185
#
# Coordination Sequence:
#
# PCOD9378105 Si02
#       8
#     8   8   8   8   8   8   8   8
#     4  10  20  32  48  69  95 128 164 202 244 289
#     4  10  20  33  49  68  95 129 164 202 243 287
#     4  10  19  31  48  72 100 131 161 197 242 295
#     4  10  20  34  52  72  99 132 169 208 247 290
#     4  10  19  31  49  74 101 134 168 206 248 293
#     4  10  19  29  44  66  92 124 159 196 236 280
#     4  10  18  30  48  70  99 132 160 199 245 295
#     4  10  21  36  51  69  96 130 167 208 248 287
#
# _framework density 16.706945999999999
#
# number of rings (size 3 to 8) (size 9 to 14) (size 15 to 20)
#    0.000    2.000    1.250    4.875    0.000    5.000 
#    0.000    0.000    0.000    0.000    0.000    0.875 
#    0.000    2.000    0.000    0.000    0.000    0.000 
#
# Total GULP energy -178179.946949 kJ/mol
# GULP energy per Si atom -5568.123342 kJ/mol
# Density = 1.666892 g / cm^3
# Si number density = 16.706946 Si / 1000 Ang^3
#
#
#
# Elastic Constant Matrix: (Units=GPa)
#
#
# Indices 1 2 3 4 5 6 
#
# 1 24.9417 5.3631 30.4798 0.0000 0.0000 0.0000
# 2 5.3631 102.2441 50.3394 0.0000 0.0000 0.0000
# 3 30.4798 50.3394 106.4119 0.0000 0.0000 0.0000
# 4 0.0000 0.0000 0.0000 -15.2834 0.0000 0.0000
# 5 0.0000 0.0000 0.0000 0.0000 12.9896 0.0000
# 6 0.0000 0.0000 0.0000 0.0000 0.0000 21.0641
#
#
#
# Elastic Compliance Matrix: (Units=1/GPa)
#
#
# Indices 1 2 3 4 5 6 
#
# 1 0.065938 0.007613 -0.022488 0.000000 0.000000 0.000000
# 2 0.007613 0.013629 -0.008628 0.000000 0.000000 0.000000
# 3 -0.022488 -0.008628 0.019920 0.000000 0.000000 0.000000
# 4 0.000000 0.000000 0.000000 -0.065430 0.000000 0.000000
# 5 0.000000 0.000000 0.000000 0.000000 0.076985 0.000000
# 6 0.000000 0.000000 0.000000 0.000000 0.000000 0.047474
#
#
# Mechanical properties :
#
#
# Convention : Reuss Voigt Hill
#
# Bulk Modulus (GPa) = 19.05435 45.10693 32.08064
# Shear Modulus (GPa) = 22.41987 13.58175 18.00081
#
# Velocity S-wave (km/s) = 3.66724 2.85430 3.28601
# Velocity P-wave (km/s) = 5.41861 6.15794 5.80007
#
# Compressibility (1/GPa) = 0.05248146
#
# Stress axis : x y z
#
# Youngs Moduli (GPa) = 15.16572 73.37185 50.19955
#
# Poissons Ratio (x) = -0.55860 1.12891
# Poissons Ratio (y) = -0.11546 0.43313
# Poissons Ratio (z) = 0.34105 0.63306
#
# Static dielectric constant tensor:
#      x y z
#    x 1.585710 0.000000 0.000000 
#    y 0.000000 1.573900 0.000000 
#    z 0.000000 0.000000 1.615630 
# 
# From -- ./inp_files/25278.got.cif
#   From: 2010.05.17/outbox.cif.g08.bks.cpg/sg46_13_cif.got.tgz:25278.got - 2010.06.03 19:58:25.
