data_PCOD9378419
_publ_section_title
;
Structure prediction by ZEFSAII (Michael W. Deem and Ramdas Pophale) SiO2 
 PCOD9378419
Probable space group: I M A 2
;
_chemical_formula_sum "Si O2"
_cell_formula_units_Z 64
_cell_length_a 8.711139
_cell_length_b 27.177813
_cell_length_c 19.004759
_cell_angle_alpha 90.000000
_cell_angle_beta 90.000000
_cell_angle_gamma 90.000000
_cell_volume 4499.371120
_symmetry_space_group_name_H-M "I M A 2"
_symmetry_group_IT_number 46
_symmetry_cell_setting 'orthorhombic'
loop_
_space_group_symop_operation_xyz
x,y,z
-x,-y,z
1/2-x,y,z
1/2+x,-y,z
1/2+x,1/2+y,1/2+z
1/2-x,1/2-y,1/2+z
-x,1/2+y,1/2+z
x,1/2-y,1/2+z
loop_
_atom_site_type_symbol
_atom_site_label
_atom_site_fract_x
_atom_site_fract_y
_atom_site_fract_z
Si Si1 0.066743 0.946814 0.582640
Si Si2 0.931669 0.302571 0.873629
Si Si3 0.433277 0.755590 0.742958
Si Si4 0.435008 0.446833 0.238417
Si Si5 0.066936 0.243467 0.588857
Si Si6 0.566047 0.648890 0.321036
Si Si7 0.065850 0.208072 0.950078
Si Si8 0.066964 0.144420 0.500692
O O1 0.250000 0.949644 0.587500
O O2 0.997380 0.936164 0.660060
O O3 0.015030 0.903485 0.531049
O O4 0.000000 0.000000 0.561175
O O5 0.750000 0.312100 0.875342
O O6 0.981278 0.289862 0.793835
O O7 0.971229 0.251512 0.913215
O O8 0.017247 0.342691 0.921084
O O9 0.250000 0.758489 0.747027
O O10 0.485513 0.750708 0.662966
O O11 0.500292 0.806010 0.775440
O O12 0.500000 0.500000 0.259197
O O13 0.250000 0.448908 0.235839
O O14 0.485312 0.403178 0.290291
O O15 0.250000 0.242361 0.600713
O O16 0.032530 0.286760 0.532571
O O17 0.026623 0.191913 0.549704
O O18 0.750000 0.650469 0.313219
O O19 0.532332 0.660254 0.403117
O O20 0.250000 0.218732 0.942721
O O21 0.250000 0.138503 0.504304
#
# Coordination Sequence:
#
# PCOD9378419 Si02
#       8
#     8   8   8   8   8   8   8   8
#     4  11  21  32  45  61  83 110 139 174 208 241
#     4   9  17  28  40  58  81 106 135 167 202 241
#     4  10  19  27  39  60  85 109 136 168 202 240
#     4  10  19  30  43  60  82 109 140 175 209 244
#     4   9  17  27  41  59  81 108 137 166 200 242
#     4   9  17  29  44  58  77 107 141 171 204 243
#     4   8  15  28  42  57  77 104 136 170 204 241
#     4  10  19  31  45  61  81 109 142 173 205 244
#
# _framework density 14.224211
#
# number of rings (size 3 to 8) (size 9 to 14) (size 15 to 20)
#    0.000    2.500    0.000    4.875    0.000    8.000 
#    0.000    0.000    0.000    0.000    0.000    0.000 
#    0.000    1.000    0.000    9.250    0.000    2.750 
#
# Total GULP energy -178220.390419 kJ/mol
# GULP energy per Si atom -5569.387201 kJ/mol
# Density = 1.419184 g / cm^3
# Si number density = 14.224211 Si / 1000 Ang^3
#
#
#
# Elastic Constant Matrix: (Units=GPa)
#
#
# Indices 1 2 3 4 5 6 
#
# 1 39.2023 28.2004 26.3826 0.0000 0.0000 0.0000
# 2 28.2004 86.0189 53.7390 0.0000 0.0000 0.0000
# 3 26.3826 53.7390 98.3486 -0.0002 -0.0001 0.0000
# 4 0.0000 0.0000 -0.0002 25.0867 0.0000 0.0000
# 5 0.0000 0.0000 -0.0001 0.0000 16.3097 0.0000
# 6 0.0000 0.0000 0.0000 0.0000 0.0000 18.1870
#
#
#
# Elastic Compliance Matrix: (Units=1/GPa)
#
#
# Indices 1 2 3 4 5 6 
#
# 1 0.034757 -0.008457 -0.004703 0.000000 0.000000 0.000000
# 2 -0.008457 0.019708 -0.008500 0.000000 0.000000 0.000000
# 3 -0.004703 -0.008500 0.016074 0.000000 0.000000 0.000000
# 4 0.000000 0.000000 0.000000 0.039862 0.000000 0.000000
# 5 0.000000 0.000000 0.000000 0.000000 0.061313 0.000000
# 6 0.000000 0.000000 0.000000 0.000000 0.000000 0.054984
#
#
# Mechanical properties :
#
#
# Convention : Reuss Voigt Hill
#
# Bulk Modulus (GPa) = 36.73812 48.91265 42.82539
# Shear Modulus (GPa) = 17.91525 19.59986 18.75755
#
# Velocity S-wave (km/s) = 3.55278 3.71606 3.63534
# Velocity P-wave (km/s) = 6.53556 7.27143 6.91330
#
# Compressibility (1/GPa) = 0.02721968
#
# Stress axis : x y z
#
# Youngs Moduli (GPa) = 28.77112 50.74038 62.21156
#
# Poissons Ratio (x) = 0.42909 0.29258
# Poissons Ratio (y) = 0.24331 0.52882
# Poissons Ratio (z) = 0.13531 0.43131
#
# Static dielectric constant tensor:
#      x y z
#    x 1.480960 0.000000 0.000000 
#    y 0.000000 1.459570 0.000000 
#    z 0.000000 0.000000 1.486110 
# 
# From -- ./inp_files/18682.got.cif
#   From: 2010.05.17/outbox.cif.g08.bks.cpg/sg46_10_cif.got.tgz:18682.got - 2010.06.03 19:58:25.
