data_PCOD9378119
_publ_section_title
;
Structure prediction by ZEFSAII (Michael W. Deem and Ramdas Pophale) SiO2 
 PCOD9378119
Probable space group: I M A 2
;
_chemical_formula_sum "Si O2"
_cell_formula_units_Z 48
_cell_length_a 16.386932
_cell_length_b 21.587545
_cell_length_c 5.635842
_cell_angle_alpha 90.000000
_cell_angle_beta 90.000000
_cell_angle_gamma 90.000000
_cell_volume 1993.699577
_symmetry_space_group_name_H-M "I M A 2"
_symmetry_group_IT_number 46
_symmetry_cell_setting 'orthorhombic'
loop_
_space_group_symop_operation_xyz
x,y,z
-x,-y,z
1/2-x,y,z
1/2+x,-y,z
1/2+x,1/2+y,1/2+z
1/2-x,1/2-y,1/2+z
-x,1/2+y,1/2+z
x,1/2-y,1/2+z
loop_
_atom_site_type_symbol
_atom_site_label
_atom_site_fract_x
_atom_site_fract_y
_atom_site_fract_z
Si Si1 0.095636 0.484968 0.423120
Si Si2 0.342988 0.150386 0.923121
Si Si3 0.100066 0.333941 0.923121
Si Si4 0.596599 0.983888 0.423120
Si Si5 0.090191 0.682606 0.923123
Si Si6 0.846851 0.324443 0.423123
O O1 0.101028 0.410510 0.423120
O O2 0.132314 0.506346 0.673150
O O3 0.000000 0.500000 0.423120
O O4 0.132315 0.506346 0.173090
O O5 0.250000 0.128811 0.923121
O O6 0.359844 0.183640 0.673959
O O7 0.359844 0.183640 0.172282
O O8 0.103509 0.409305 0.923120
O O9 0.007011 0.311970 0.923122
O O10 0.500000 0.000000 0.423120
O O11 0.116036 0.651972 0.672780
O O12 0.131032 0.750773 0.923123
O O13 0.116036 0.651972 0.173466
O O14 0.750000 0.331859 0.423122
#
# Coordination Sequence:
#
# PCOD9378119 Si02
#       6
#     8   8   8   8   8   8
#     4   8  14  25  42  63  86 114 153 200 246 290
#     4  10  19  31  46  69  97 127 165 215 255 288
#     4  10  19  30  47  74  97 126 171 211 245 292
#     4   8  14  25  41  63  88 116 151 196 235 275
#     4  10  18  30  49  76 103 128 160 205 243 290
#     4  10  19  33  53  79 104 131 162 199 247 301
#
# _framework density 24.075844
#
# number of rings (size 3 to 8) (size 9 to 14) (size 15 to 20)
#    0.000    2.667    0.000    4.000    0.000    0.000 
#    0.000    0.000    0.000    0.000    0.000  196.000 
#    0.000    0.000    0.000    0.000    0.000    0.000 
#
# Total GULP energy -133905.615837 kJ/mol
# GULP energy per Si atom -5579.400660 kJ/mol
# Density = 2.402105 g / cm^3
# Si number density = 24.075844 Si / 1000 Ang^3
#
#
#
# Elastic Constant Matrix: (Units=GPa)
#
#
# Indices 1 2 3 4 5 6 
#
# 1 67.7773 -6.8521 16.6553 0.0000 0.0000 0.0000
# 2 -6.8521 102.9394 -2.9876 0.0000 0.0000 0.0000
# 3 16.6553 -2.9876 329.9140 0.0000 0.0000 0.0000
# 4 0.0000 0.0000 0.0000 820.6869 0.0000 0.0000
# 5 0.0000 0.0000 0.0000 0.0000 4.7651 0.0000
# 6 0.0000 0.0000 0.0000 0.0000 0.0000 12.5680
#
#
#
# Elastic Compliance Matrix: (Units=1/GPa)
#
#
# Indices 1 2 3 4 5 6 
#
# 1 0.015038 0.000979 -0.000750 0.000000 0.000000 0.000000
# 2 0.000979 0.009781 0.000039 0.000000 0.000000 0.000000
# 3 -0.000750 0.000039 0.003069 0.000000 0.000000 0.000000
# 4 0.000000 0.000000 0.000000 0.001218 0.000000 0.000000
# 5 0.000000 0.000000 0.000000 0.000000 0.209860 0.000000
# 6 0.000000 0.000000 0.000000 0.000000 0.000000 0.079567
#
#
# Mechanical properties :
#
#
# Convention : Reuss Voigt Hill
#
# Bulk Modulus (GPa) = 35.18186 57.14020 46.16103
# Shear Modulus (GPa) = 15.26850 200.52502 107.89676
#
# Velocity S-wave (km/s) = 2.52103 9.13618 6.70169
# Velocity P-wave (km/s) = 4.80820 11.62230 8.89372
#
# Compressibility (1/GPa) = 0.02842374
#
# Stress axis : x y z
#
# Youngs Moduli (GPa) = 66.50012 102.24150 325.80456
#
# Poissons Ratio (x) = -0.10011 0.24445
# Poissons Ratio (y) = -0.06512 -0.01275
# Poissons Ratio (z) = 0.04989 -0.00400
#
# Static dielectric constant tensor:
#      x y z
#    x 1.800710 0.000000 0.000000 
#    y 0.000000 1.885570 0.000000 
#    z 0.000000 0.000000 2.059300 
# 
# From -- ./inp_files/1312.got.cif
#   From: 2010.05.17/outbox.cif.g08.bks.cpg/sg46_1_cif.got.tgz:1312.got - 2010.06.03 19:58:25.
