data_PCOD9378710
_publ_section_title
;
Structure prediction by ZEFSAII (Michael W. Deem and Ramdas Pophale) SiO2 
 PCOD9378710
Probable space group: I M A 2
;
_chemical_formula_sum "Si O2"
_cell_formula_units_Z 48
_cell_length_a 19.077954
_cell_length_b 13.237778
_cell_length_c 7.359287
_cell_angle_alpha 90.000000
_cell_angle_beta 90.000000
_cell_angle_gamma 90.000000
_cell_volume 1858.585869
_symmetry_space_group_name_H-M "I M A 2"
_symmetry_group_IT_number 46
_symmetry_cell_setting 'orthorhombic'
loop_
_space_group_symop_operation_xyz
x,y,z
-x,-y,z
1/2-x,y,z
1/2+x,-y,z
1/2+x,1/2+y,1/2+z
1/2-x,1/2-y,1/2+z
-x,1/2+y,1/2+z
x,1/2-y,1/2+z
loop_
_atom_site_type_symbol
_atom_site_label
_atom_site_fract_x
_atom_site_fract_y
_atom_site_fract_z
Si Si1 0.467966 0.392385 0.068960
Si Si2 0.671054 0.594412 0.563430
Si Si3 0.329154 0.473919 0.989996
Si Si4 0.382388 0.888290 0.983382
Si Si5 0.976641 0.830346 0.150061
Si Si6 0.669134 0.185547 0.364054
O O1 0.500000 0.500000 0.126042
O O2 0.384481 0.404340 0.089481
O O3 0.493304 0.288807 0.157308
O O4 0.478966 0.376553 0.851926
O O5 0.750000 0.632241 0.519846
O O6 0.650976 0.496212 0.443109
O O7 0.600569 0.661328 0.560669
O O8 0.673034 0.560498 0.777284
O O9 0.250000 0.469891 0.058275
O O10 0.355332 0.590796 0.986713
O O11 0.463681 0.889415 0.038918
O O12 0.339601 0.855483 0.162761
O O13 0.369624 0.791251 0.862124
O O14 0.750000 0.201934 0.409528
#
# Coordination Sequence:
#
# PCOD9378710 Si02
#       6
#     8   8   8   8   8   8
#     4  11  22  40  60  85 119 154 193 242 292 345
#     4   9  18  34  55  80 112 152 194 236 285 346
#     4   8  16  32  54  76 105 148 193 234 283 341
#     4  11  19  33  54  81 114 149 190 240 290 344
#     4  11  22  37  61  87 115 154 199 243 293 351
#     4  10  19  32  54  83 111 147 192 237 289 345
#
# _framework density 25.826087999999999
#
# number of rings (size 3 to 8) (size 9 to 14) (size 15 to 20)
#    0.000    2.000    0.000    8.000    0.000    0.667 
#    0.000    5.833    0.000    2.000    0.000    0.000 
#    0.000    0.000    0.000    0.000    0.000    0.000 
#
# Total GULP energy -134288.620997 kJ/mol
# GULP energy per Si atom -5595.359208 kJ/mol
# Density = 2.576731 g / cm^3
# Si number density = 25.826088 Si / 1000 Ang^3
#
#
#
# Elastic Constant Matrix: (Units=GPa)
#
#
# Indices 1 2 3 4 5 6 
#
# 1 153.9780 21.3099 -15.2549 0.0000 0.0000 0.0000
# 2 21.3099 86.3121 -8.7150 0.0000 0.0000 0.0000
# 3 -15.2549 -8.7150 14.5532 0.0000 0.0000 0.0000
# 4 0.0000 0.0000 0.0000 27.1624 0.0000 0.0000
# 5 0.0000 0.0000 0.0000 0.0000 16.9754 0.0000
# 6 0.0000 0.0000 0.0000 0.0000 0.0000 40.6041
#
#
#
# Elastic Compliance Matrix: (Units=1/GPa)
#
#
# Indices 1 2 3 4 5 6 
#
# 1 0.007344 -0.001103 0.007038 0.000000 0.000000 0.000000
# 2 -0.001103 0.012497 0.006328 0.000000 0.000000 0.000000
# 3 0.007038 0.006328 0.079880 0.000000 0.000000 0.000000
# 4 0.000000 0.000000 0.000000 0.036816 0.000000 0.000000
# 5 0.000000 0.000000 0.000000 0.000000 0.058909 0.000000
# 6 0.000000 0.000000 0.000000 0.000000 0.000000 0.024628
#
#
# Mechanical properties :
#
#
# Convention : Reuss Voigt Hill
#
# Bulk Modulus (GPa) = 8.04839 27.72481 17.88660
# Shear Modulus (GPa) = 21.10031 34.11526 27.60778
#
# Velocity S-wave (km/s) = 2.86145 3.63845 3.27309
# Velocity P-wave (km/s) = 3.74704 5.33006 4.60705
#
# Compressibility (1/GPa) = 0.12424846
#
# Stress axis : x y z
#
# Youngs Moduli (GPa) = 136.15970 80.01903 12.51874
#
# Poissons Ratio (x) = 0.08823 -0.08811
# Poissons Ratio (y) = 0.15013 -0.07922
# Poissons Ratio (z) = -0.95831 -0.50635
#
# Static dielectric constant tensor:
#      x y z
#    x 2.007050 0.000000 0.000000 
#    y 0.000000 2.059660 0.000000 
#    z 0.000000 0.000000 2.091970 
# 
# From -- ./inp_files/12350.got.cif
#   From: 2010.05.17/outbox.cif.g08.bks.cpg/sg46_7_cif.got.tgz:12350.got - 2010.06.03 19:58:25.
