data_PCOD9378149
_publ_section_title
;
Structure prediction by ZEFSAII (Michael W. Deem and Ramdas Pophale) SiO2 
 PCOD9378149
Probable space group: I M A 2
;
_chemical_formula_sum "Si O2"
_cell_formula_units_Z 56
_cell_length_a 19.012623
_cell_length_b 11.954209
_cell_length_c 11.335562
_cell_angle_alpha 90.000000
_cell_angle_beta 90.000000
_cell_angle_gamma 90.000000
_cell_volume 2576.356382
_symmetry_space_group_name_H-M "I M A 2"
_symmetry_group_IT_number 46
_symmetry_cell_setting 'orthorhombic'
loop_
_space_group_symop_operation_xyz
x,y,z
-x,-y,z
1/2-x,y,z
1/2+x,-y,z
1/2+x,1/2+y,1/2+z
1/2-x,1/2-y,1/2+z
-x,1/2+y,1/2+z
x,1/2-y,1/2+z
loop_
_atom_site_type_symbol
_atom_site_label
_atom_site_fract_x
_atom_site_fract_y
_atom_site_fract_z
Si Si1 0.169143 0.045620 0.543510
Si Si2 0.332083 0.021384 0.184754
Si Si3 0.391729 0.791450 0.820525
Si Si4 0.671622 0.214959 0.072404
Si Si5 0.168145 0.476279 0.319197
Si Si6 0.068541 0.927067 0.390636
Si Si7 0.834935 0.792355 0.009757
O O1 0.250000 0.024601 0.504689
O O2 0.141653 0.165156 0.496378
O O3 0.170447 0.057644 0.683367
O O4 0.116028 0.948701 0.505937
O O5 0.250000 0.033846 0.220501
O O6 0.333128 0.920207 0.089425
O O7 0.380648 0.977975 0.289419
O O8 0.357307 0.136177 0.124463
O O9 0.371050 0.761310 0.686008
O O10 0.388921 0.924656 0.828456
O O11 0.450611 0.700626 0.856134
O O12 0.341399 0.762591 0.933811
O O13 0.750000 0.253754 0.100048
O O14 0.250000 0.512035 0.348094
O O15 0.149535 0.371203 0.399462
O O16 0.000000 0.000000 0.400571
O O17 0.750000 0.785016 0.019163
#
# Coordination Sequence:
#
# PCOD9378149 Si02
#       7
#     8   8   8   8   8   8   8
#     4  10  22  38  63  95 126 162 204 258 318 379
#     4   9  18  35  61  90 116 153 207 257 309 374
#     4  11  21  35  58  86 125 169 205 255 314 372
#     4  10  18  30  54  92 128 157 197 254 316 376
#     4  10  19  34  61  97 130 159 204 264 321 376
#     4  11  25  42  58  84 125 173 211 260 312 373
#     4   9  18  34  60  92 125 157 199 258 317 372
#
# _framework density 21.736122999999999
#
# number of rings (size 3 to 8) (size 9 to 14) (size 15 to 20)
#    0.000    2.000    1.429    2.571    2.000    4.000 
#    0.000    4.286    0.000    0.000    0.000    0.000 
#    0.000    0.000    0.000    0.000    0.000    0.000 
#
# Total GULP energy -155962.994602 kJ/mol
# GULP energy per Si atom -5570.106950 kJ/mol
# Density = 2.168665 g / cm^3
# Si number density = 21.736123 Si / 1000 Ang^3
#
#
#
# Elastic Constant Matrix: (Units=GPa)
#
#
# Indices 1 2 3 4 5 6 
#
# 1 33.2577 8.8492 7.0078 0.0000 0.0000 0.0000
# 2 8.8492 118.1709 13.4049 0.0000 0.0000 0.0000
# 3 7.0078 13.4049 93.7353 0.0000 0.0000 0.0000
# 4 0.0000 0.0000 0.0000 31.1937 0.0000 0.0000
# 5 0.0000 0.0000 0.0000 0.0000 -12.3954 0.0000
# 6 0.0000 0.0000 0.0000 0.0000 0.0000 -488.7994
#
#
#
# Elastic Compliance Matrix: (Units=1/GPa)
#
#
# Indices 1 2 3 4 5 6 
#
# 1 0.031052 -0.002096 -0.002022 0.000000 0.000000 0.000000
# 2 -0.002096 0.008743 -0.001094 0.000000 0.000000 0.000000
# 3 -0.002022 -0.001094 0.010976 0.000000 0.000000 0.000000
# 4 0.000000 0.000000 0.000000 0.032058 0.000000 0.000000
# 5 0.000000 0.000000 0.000000 0.000000 -0.080675 0.000000
# 6 0.000000 0.000000 0.000000 0.000000 0.000000 -0.002046
#
#
# Mechanical properties :
#
#
# Convention : Reuss Voigt Hill
#
# Bulk Modulus (GPa) = 24.78413 33.74308 29.26360
# Shear Modulus (GPa) = 208.50657 -79.60674 64.44991
#
# Velocity S-wave (km/s) = 9.80482 -6.05836 5.45119
# Velocity P-wave (km/s) = 11.81552 5.77759 7.28786
#
# Compressibility (1/GPa) = 0.04034840
#
# Stress axis : x y z
#
# Youngs Moduli (GPa) = 32.20407 114.37275 91.10881
#
# Poissons Ratio (x) = 0.23972 0.18420
# Poissons Ratio (y) = 0.06750 0.09964
# Poissons Ratio (z) = 0.06511 0.12509
#
# Static dielectric constant tensor:
#      x y z
#    x 1.778670 0.000000 0.000000 
#    y 0.000000 1.871460 0.000000 
#    z 0.000000 0.000000 1.817040 
# 
# From -- ./inp_files/12396.got.cif
#   From: 2010.05.17/outbox.cif.g08.bks.cpg/sg46_7_cif.got.tgz:12396.got - 2010.06.03 19:58:25.
