data_PCOD9378791
_publ_section_title
;
Structure prediction by ZEFSAII (Michael W. Deem and Ramdas Pophale) SiO2 
 PCOD9378791
Probable space group: I M A 2
;
_chemical_formula_sum "Si O2"
_cell_formula_units_Z 24
_cell_length_a 14.017709
_cell_length_b 12.732111
_cell_length_c 5.607486
_cell_angle_alpha 90.000000
_cell_angle_beta 90.000000
_cell_angle_gamma 90.000000
_cell_volume 1000.796215
_symmetry_space_group_name_H-M "I M A 2"
_symmetry_group_IT_number 46
_symmetry_cell_setting 'orthorhombic'
loop_
_space_group_symop_operation_xyz
x,y,z
-x,-y,z
1/2-x,y,z
1/2+x,-y,z
1/2+x,1/2+y,1/2+z
1/2-x,1/2-y,1/2+z
-x,1/2+y,1/2+z
x,1/2-y,1/2+z
loop_
_atom_site_type_symbol
_atom_site_label
_atom_site_fract_x
_atom_site_fract_y
_atom_site_fract_z
Si Si1 0.593767 0.277813 0.651610
Si Si2 0.500000 0.000000 0.227233
Si Si3 0.437564 0.096503 0.678084
Si Si4 0.250000 0.314774 0.368643
O O1 0.642706 0.246055 0.404252
O O2 0.557952 0.396785 0.644862
O O3 0.501141 0.200553 0.662878
O O4 0.577711 0.943377 0.408680
O O5 0.345268 0.117137 0.833384
O O6 0.500000 0.000000 0.779972
O O7 0.250000 0.258011 0.626087
#
# Coordination Sequence:
#
# PCOD9378791 Si02
#       4
#     8   4   8   4
#     4  10  19  33  53  88 115 160 212 259 317 389
#     4   8  18  34  58  86 122 168 206 272 320 400
#     4   9  21  40  62  98 131 175 217 285 338 407
#     4  12  24  44  68 102 136 178 236 292 334 408
#
# _framework density 23.980906000000001
#
# number of rings (size 3 to 8) (size 9 to 14) (size 15 to 20)
#    1.000    1.333    0.000    4.000    2.333    0.000 
#    0.000    0.000    0.000    2.000    0.000    0.000 
#    0.000    0.000    0.000    0.000    0.000    0.000 
#
# Total GULP energy -66858.845302 kJ/mol
# GULP energy per Si atom -5571.570442 kJ/mol
# Density = 2.392632 g / cm^3
# Si number density = 23.980906 Si / 1000 Ang^3
#
#
#
# Elastic Constant Matrix: (Units=GPa)
#
#
# Indices 1 2 3 4 5 6 
#
# 1 104.2576 51.7230 15.0417 0.0000 0.0000 0.0000
# 2 51.7230 173.5304 65.9893 0.0000 0.0000 0.0000
# 3 15.0417 65.9893 166.1245 0.0000 0.0000 0.0000
# 4 0.0000 0.0000 0.0000 36.3216 0.0000 0.0000
# 5 0.0000 0.0000 0.0000 0.0000 -48.3850 0.0000
# 6 0.0000 0.0000 0.0000 0.0000 0.0000 22.6771
#
#
#
# Elastic Compliance Matrix: (Units=1/GPa)
#
#
# Indices 1 2 3 4 5 6 
#
# 1 0.011275 -0.003501 0.000370 0.000000 0.000000 0.000000
# 2 -0.003501 0.007875 -0.002811 0.000000 0.000000 0.000000
# 3 0.000370 -0.002811 0.007103 0.000000 0.000000 0.000000
# 4 0.000000 0.000000 0.000000 0.027532 0.000000 0.000000
# 5 0.000000 0.000000 0.000000 0.000000 -0.020668 0.000000
# 6 0.000000 0.000000 0.000000 0.000000 0.000000 0.044097
#
#
# Mechanical properties :
#
#
# Convention : Reuss Voigt Hill
#
# Bulk Modulus (GPa) = 69.59925 78.82452 74.21188
# Shear Modulus (GPa) = 53.25375 22.86663 38.06019
#
# Velocity S-wave (km/s) = 4.71751 3.09129 3.98817
# Velocity P-wave (km/s) = 7.66544 6.75888 7.22639
#
# Compressibility (1/GPa) = 0.01436797
#
# Stress axis : x y z
#
# Youngs Moduli (GPa) = 88.68910 126.97779 140.78939
#
# Poissons Ratio (x) = 0.44461 -0.05208
# Poissons Ratio (y) = 0.31054 0.39580
# Poissons Ratio (z) = -0.03281 0.35697
#
# Static dielectric constant tensor:
#      x y z
#    x 1.891860 0.000000 0.000000 
#    y 0.000000 1.853280 0.000000 
#    z 0.000000 0.000000 2.399980 
# 
# From -- ./inp_files/1499.got.cif
#   From: 2010.05.17/outbox.cif.g08.bks.cpg/sg46_1_cif.got.tgz:1499.got - 2010.06.03 19:58:25.
