data_PCOD9378095
_publ_section_title
;
Structure prediction by ZEFSAII (Michael W. Deem and Ramdas Pophale) SiO2 
 PCOD9378095
Probable space group: I M A 2
;
_chemical_formula_sum "Si O2"
_cell_formula_units_Z 48
_cell_length_a 7.325059
_cell_length_b 28.146409
_cell_length_c 10.115735
_cell_angle_alpha 90.000000
_cell_angle_beta 90.000000
_cell_angle_gamma 90.000000
_cell_volume 2085.602626
_symmetry_space_group_name_H-M "I M A 2"
_symmetry_group_IT_number 46
_symmetry_cell_setting 'orthorhombic'
loop_
_space_group_symop_operation_xyz
x,y,z
-x,-y,z
1/2-x,y,z
1/2+x,-y,z
1/2+x,1/2+y,1/2+z
1/2-x,1/2-y,1/2+z
-x,1/2+y,1/2+z
x,1/2-y,1/2+z
loop_
_atom_site_type_symbol
_atom_site_label
_atom_site_fract_x
_atom_site_fract_y
_atom_site_fract_z
Si Si1 0.526969 0.875344 0.992260
Si Si2 0.467974 0.055086 0.221522
Si Si3 0.527627 0.722969 0.371316
Si Si4 0.027571 0.196104 0.572235
Si Si5 0.972833 0.912096 0.506589
Si Si6 0.533505 0.948458 0.777060
O O1 0.750000 0.874864 0.995690
O O2 0.472426 0.821630 0.963123
O O3 0.465071 0.906383 0.867627
O O4 0.464956 0.905059 0.119119
O O5 0.250000 0.060254 0.223435
O O6 0.537132 0.067557 0.367492
O O7 0.500000 0.000000 0.185825
O O8 0.750000 0.723754 0.366591
O O9 0.470796 0.769895 0.451124
O O10 0.469483 0.714211 0.218759
O O11 0.250000 0.196567 0.575646
O O12 0.973865 0.141992 0.540606
O O13 0.750000 0.912491 0.502401
O O14 0.036185 0.944135 0.628683
O O15 0.750000 0.942047 0.771079
O O16 0.500000 0.000000 0.835961
#
# Coordination Sequence:
#
# PCOD9378095 Si02
#       6
#     8   8   8   8   8   8
#     4   9  17  29  43  62  91 122 150 186 231 272
#     4  10  20  32  47  67  93 125 158 190 227 270
#     4   9  16  25  39  61  89 120 151 182 223 277
#     4   9  16  25  39  61  89 120 151 182 223 277
#     4   9  17  29  43  62  91 122 150 186 231 272
#     4  10  18  30  47  65  89 121 152 186 227 268
#
# _framework density 23.014932000000002
#
# number of rings (size 3 to 8) (size 9 to 14) (size 15 to 20)
#    0.000    2.667    1.667    1.000    2.333    0.000 
#    0.000    0.000    0.000    0.000    0.000    0.000 
#    0.000    8.000    0.000    0.000    0.000    0.000 
#
# Total GULP energy -134030.683776 kJ/mol
# GULP energy per Si atom -5584.611824 kJ/mol
# Density = 2.296255 g / cm^3
# Si number density = 23.014932 Si / 1000 Ang^3
#
#
#
# Elastic Constant Matrix: (Units=GPa)
#
#
# Indices 1 2 3 4 5 6 
#
# 1 90.3644 -9.5915 1.9466 -0.0002 0.0000 0.0000
# 2 -9.5915 93.1359 -5.0686 -0.0017 0.0000 -0.0001
# 3 1.9466 -5.0686 79.5372 -0.0025 0.0002 0.0000
# 4 -0.0002 -0.0017 -0.0025 53.3151 0.0002 0.0000
# 5 0.0000 0.0000 0.0002 0.0002 -9.5247 0.0000
# 6 0.0000 -0.0001 0.0000 0.0000 0.0000 3.1882
#
#
#
# Elastic Compliance Matrix: (Units=1/GPa)
#
#
# Indices 1 2 3 4 5 6 
#
# 1 0.011192 0.001142 -0.000201 0.000000 0.000000 0.000000
# 2 0.001142 0.010891 0.000666 0.000000 0.000000 0.000000
# 3 -0.000201 0.000666 0.012620 0.000001 0.000000 0.000000
# 4 0.000000 0.000000 0.000001 0.018756 0.000000 0.000000
# 5 0.000000 0.000000 0.000000 0.000000 -0.104990 0.000001
# 6 0.000000 0.000000 0.000000 0.000000 0.000001 0.313660
#
#
# Mechanical properties :
#
#
# Convention : Reuss Voigt Hill
#
# Bulk Modulus (GPa) = 26.37418 26.40116 26.38767
# Shear Modulus (GPa) = 18.41245 27.77911 23.09578
#
# Velocity S-wave (km/s) = 2.83153 3.47797 3.17126
# Velocity P-wave (km/s) = 4.70899 5.25591 4.98995
#
# Compressibility (1/GPa) = 0.03791587
#
# Stress axis : x y z
#
# Youngs Moduli (GPa) = 89.35102 91.82050 79.23860
#
# Poissons Ratio (x) = -0.10483 0.01594
# Poissons Ratio (y) = -0.10201 -0.05278
# Poissons Ratio (z) = 0.01797 -0.06116
#
# Static dielectric constant tensor:
#      x y z
#    x 1.845180 -0.000020 0.000000 
#    y -0.000020 3.893700 0.000000 
#    z 0.000000 0.000000 1.842600 
# 
# From -- ./inp_files/3930.got.cif
#   From: 2010.05.17/outbox.cif.g08.bks.cpg/sg46_2_cif.got.tgz:3930.got - 2010.06.03 19:58:25.
