data_PCOD9378235
_publ_section_title
;
Structure prediction by ZEFSAII (Michael W. Deem and Ramdas Pophale) SiO2 
 PCOD9378235
Probable space group: I M A 2
;
_chemical_formula_sum "Si O2"
_cell_formula_units_Z 56
_cell_length_a 8.745908
_cell_length_b 16.014542
_cell_length_c 20.578784
_cell_angle_alpha 90.000000
_cell_angle_beta 90.000000
_cell_angle_gamma 90.000000
_cell_volume 2882.299697
_symmetry_space_group_name_H-M "I M A 2"
_symmetry_group_IT_number 46
_symmetry_cell_setting 'orthorhombic'
loop_
_space_group_symop_operation_xyz
x,y,z
-x,-y,z
1/2-x,y,z
1/2+x,-y,z
1/2+x,1/2+y,1/2+z
1/2-x,1/2-y,1/2+z
-x,1/2+y,1/2+z
x,1/2-y,1/2+z
loop_
_atom_site_type_symbol
_atom_site_label
_atom_site_fract_x
_atom_site_fract_y
_atom_site_fract_z
Si Si1 0.062541 0.243588 0.753920
Si Si2 0.064492 0.593366 0.166319
Si Si3 0.425292 0.232552 0.399208
Si Si4 0.573731 0.925223 0.937502
Si Si5 0.075666 0.620544 0.568283
Si Si6 0.925850 0.583833 0.694851
Si Si7 0.571007 0.184992 0.534462
O O1 0.250000 0.235533 0.754349
O O2 0.009466 0.269408 0.826507
O O3 0.012896 0.325559 0.714249
O O4 0.996117 0.160741 0.719553
O O5 0.250000 0.592930 0.168202
O O6 0.015303 0.626023 0.093652
O O7 0.000000 0.500000 0.177039
O O8 0.250000 0.203365 0.396302
O O9 0.426650 0.332314 0.410079
O O10 0.497947 0.187813 0.462256
O O11 0.750000 0.942940 0.953453
O O12 0.500000 0.000000 0.895712
O O13 0.461105 0.917143 0.998610
O O14 0.250000 0.603387 0.589310
O O15 0.055844 0.720125 0.560700
O O16 0.953515 0.584790 0.617989
O O17 0.750000 0.582323 0.712306
O O18 0.000000 0.500000 0.722269
O O19 0.750000 0.167225 0.525661
#
# Coordination Sequence:
#
# PCOD9378235 Si02
#       7
#     8   8   8   8   8   8   8
#     4  10  22  41  61  86 119 157 201 251 305 367
#     4  11  23  40  63  93 125 163 209 258 310 368
#     4   9  20  37  58  81 111 152 197 244 301 359
#     4  10  19  31  48  74 107 142 181 224 277 339
#     4  10  18  32  53  78 110 141 178 226 276 333
#     4  11  22  35  55  81 112 147 186 231 287 347
#     4   9  19  36  58  85 115 149 194 243 293 350
#
# _framework density 19.428930999999999
#
# number of rings (size 3 to 8) (size 9 to 14) (size 15 to 20)
#    0.000    2.000    1.429    2.143    0.000    4.000 
#    0.000    2.143    0.000    3.429    0.000    0.000 
#    0.000    0.000    0.000    0.000    0.000    0.000 
#
# Total GULP energy -155913.486610 kJ/mol
# GULP energy per Si atom -5568.338808 kJ/mol
# Density = 1.938471 g / cm^3
# Si number density = 19.428931 Si / 1000 Ang^3
#
#
#
# Elastic Constant Matrix: (Units=GPa)
#
#
# Indices 1 2 3 4 5 6 
#
# 1 39.0252 25.6972 12.7996 0.0000 0.0000 0.0000
# 2 25.6972 82.4467 12.0861 0.0000 0.0000 0.0000
# 3 12.7996 12.0861 89.6244 0.0000 0.0000 0.0000
# 4 0.0000 0.0000 0.0000 3.7377 0.0000 0.0000
# 5 0.0000 0.0000 0.0000 0.0000 18.3752 0.0000
# 6 0.0000 0.0000 0.0000 0.0000 0.0000 25.1781
#
#
#
# Elastic Compliance Matrix: (Units=1/GPa)
#
#
# Indices 1 2 3 4 5 6 
#
# 1 0.033237 -0.009858 -0.003417 0.000000 0.000000 0.000000
# 2 -0.009858 0.015298 -0.000655 0.000000 0.000000 0.000000
# 3 -0.003417 -0.000655 0.011734 0.000000 0.000000 0.000000
# 4 0.000000 0.000000 0.000000 0.267547 0.000000 0.000000
# 5 0.000000 0.000000 0.000000 0.000000 0.054421 0.000000
# 6 0.000000 0.000000 0.000000 0.000000 0.000000 0.039717
#
#
# Mechanical properties :
#
#
# Convention : Reuss Voigt Hill
#
# Bulk Modulus (GPa) = 30.85727 34.69578 32.77653
# Shear Modulus (GPa) = 10.85500 20.15910 15.50705
#
# Velocity S-wave (km/s) = 2.36625 3.22465 2.82821
# Velocity P-wave (km/s) = 4.83551 5.63569 5.25086
#
# Compressibility (1/GPa) = 0.03240727
#
# Stress axis : x y z
#
# Youngs Moduli (GPa) = 30.08718 65.36909 85.22220
#
# Poissons Ratio (x) = 0.64443 0.29122
# Poissons Ratio (y) = 0.29661 0.05582
# Poissons Ratio (z) = 0.10281 0.04282
#
# Static dielectric constant tensor:
#      x y z
#    x 1.687280 0.000000 0.000000 
#    y 0.000000 1.749540 0.000000 
#    z 0.000000 0.000000 1.706490 
# 
# From -- ./inp_files/21047.got.cif
#   From: 2010.05.17/outbox.cif.g08.bks.cpg/sg46_11_cif.got.tgz:21047.got - 2010.06.03 19:58:25.
