data_PCOD9378531
_publ_section_title
;
Structure prediction by ZEFSAII (Michael W. Deem and Ramdas Pophale) SiO2 
 PCOD9378531
Probable space group: I M A 2
;
_chemical_formula_sum "Si O2"
_cell_formula_units_Z 64
_cell_length_a 9.045711
_cell_length_b 30.834144
_cell_length_c 14.687994
_cell_angle_alpha 90.000000
_cell_angle_beta 90.000000
_cell_angle_gamma 90.000000
_cell_volume 4096.727632
_symmetry_space_group_name_H-M "I M A 2"
_symmetry_group_IT_number 46
_symmetry_cell_setting 'orthorhombic'
loop_
_space_group_symop_operation_xyz
x,y,z
-x,-y,z
1/2-x,y,z
1/2+x,-y,z
1/2+x,1/2+y,1/2+z
1/2-x,1/2-y,1/2+z
-x,1/2+y,1/2+z
x,1/2-y,1/2+z
loop_
_atom_site_type_symbol
_atom_site_label
_atom_site_fract_x
_atom_site_fract_y
_atom_site_fract_z
Si Si1 0.916624 0.826160 0.258190
Si Si2 0.071623 0.789189 0.967074
Si Si3 0.927554 0.545826 0.870946
Si Si4 0.575278 0.369146 0.594916
Si Si5 0.073353 0.046314 0.157573
Si Si6 0.578726 0.722632 0.272272
Si Si7 0.924275 0.634031 0.958261
Si Si8 0.426911 0.703548 0.084390
O O1 0.750000 0.839696 0.228614
O O2 0.924999 0.774553 0.258969
O O3 0.936344 0.842547 0.360452
O O4 0.034355 0.846018 0.189992
O O5 0.250000 0.787584 0.958412
O O6 0.998148 0.787180 0.868313
O O7 0.032118 0.833781 0.018776
O O8 0.027462 0.747296 0.028449
O O9 0.750000 0.542614 0.875440
O O10 0.963203 0.555849 0.764618
O O11 0.973333 0.584915 0.937019
O O12 0.000000 0.500000 0.893577
O O13 0.750000 0.376813 0.588596
O O14 0.490207 0.414677 0.597271
O O15 0.250000 0.043553 0.149995
O O16 0.000000 0.000000 0.136117
O O17 0.750000 0.708990 0.274121
O O18 0.495996 0.703756 0.184699
O O19 0.750000 0.634064 0.983294
O O20 0.016004 0.661886 0.029424
O O21 0.250000 0.703991 0.089989
#
# Coordination Sequence:
#
# PCOD9378531 Si02
#       8
#     8   8   8   8   8   8   8   8
#     4  10  19  31  48  71 102 136 172 213 252 295
#     4  10  22  36  50  72 103 136 172 212 256 303
#     4   9  18  31  48  70 101 133 166 208 252 298
#     4  11  21  33  50  74 103 139 175 210 254 306
#     4  10  19  33  50  74 104 136 171 210 256 304
#     4  11  22  35  53  73  98 136 177 217 256 297
#     4  10  19  34  50  72 102 136 175 212 250 299
#     4  11  22  35  51  74 103 136 171 212 257 303
#
# _framework density 15.622225
#
# number of rings (size 3 to 8) (size 9 to 14) (size 15 to 20)
#    0.000    1.750    3.750    1.500    0.000    3.500 
#    0.000    0.000    0.000    0.000    0.000    0.875 
#    0.000    2.000    0.000    0.000    0.000    0.000 
#
# Total GULP energy -178562.291671 kJ/mol
# GULP energy per Si atom -5580.071615 kJ/mol
# Density = 1.558667 g / cm^3
# Si number density = 15.622225 Si / 1000 Ang^3
#
#
#
# Elastic Constant Matrix: (Units=GPa)
#
#
# Indices 1 2 3 4 5 6 
#
# 1 49.6902 43.5008 41.5329 0.0000 0.0000 0.0000
# 2 43.5008 105.9441 46.6267 0.0000 0.0000 0.0000
# 3 41.5329 46.6267 85.6156 0.0003 0.0000 0.0000
# 4 0.0000 0.0000 0.0003 22.2096 0.0000 0.0000
# 5 0.0000 0.0000 0.0000 0.0000 25.7713 0.0000
# 6 0.0000 0.0000 0.0000 0.0000 0.0000 28.4523
#
#
#
# Elastic Compliance Matrix: (Units=1/GPa)
#
#
# Indices 1 2 3 4 5 6 
#
# 1 0.041444 -0.010744 -0.014254 0.000000 0.000000 0.000000
# 2 -0.010744 0.015200 -0.003066 0.000000 0.000000 0.000000
# 3 -0.014254 -0.003066 0.020264 0.000000 0.000000 0.000000
# 4 0.000000 0.000000 0.000000 0.045026 0.000000 0.000000
# 5 0.000000 0.000000 0.000000 0.000000 0.038803 0.000000
# 6 0.000000 0.000000 0.000000 0.000000 0.000000 0.035147
#
#
# Mechanical properties :
#
#
# Convention : Reuss Voigt Hill
#
# Bulk Modulus (GPa) = 48.12030 56.06342 52.09186
# Shear Modulus (GPa) = 19.30970 22.59261 20.95116
#
# Velocity S-wave (km/s) = 3.51955 3.80700 3.66609
# Velocity P-wave (km/s) = 6.88372 7.43567 7.16501
#
# Compressibility (1/GPa) = 0.02078125
#
# Stress axis : x y z
#
# Youngs Moduli (GPa) = 24.12892 65.79078 49.34753
#
# Poissons Ratio (x) = 0.70684 0.70339
# Poissons Ratio (y) = 0.25924 0.15130
# Poissons Ratio (z) = 0.34393 0.20171
#
# Static dielectric constant tensor:
#      x y z
#    x 1.531520 0.000000 0.000000 
#    y 0.000000 1.528510 0.000000 
#    z 0.000000 0.000000 1.490980 
# 
# From -- ./inp_files/9656.got.cif
#   From: 2010.05.17/outbox.cif.g08.bks.cpg/sg46_5_cif.got.tgz:9656.got - 2010.06.03 19:58:25.
