data_PCOD9378780
_publ_section_title
;
Structure prediction by ZEFSAII (Michael W. Deem and Ramdas Pophale) SiO2 
 PCOD9378780
Probable space group: I M A 2
;
_chemical_formula_sum "Si O2"
_cell_formula_units_Z 56
_cell_length_a 8.791254
_cell_length_b 24.287681
_cell_length_c 13.979552
_cell_angle_alpha 90.000000
_cell_angle_beta 90.000000
_cell_angle_gamma 90.000000
_cell_volume 2984.902378
_symmetry_space_group_name_H-M "I M A 2"
_symmetry_group_IT_number 46
_symmetry_cell_setting 'orthorhombic'
loop_
_space_group_symop_operation_xyz
x,y,z
-x,-y,z
1/2-x,y,z
1/2+x,-y,z
1/2+x,1/2+y,1/2+z
1/2-x,1/2-y,1/2+z
-x,1/2+y,1/2+z
x,1/2-y,1/2+z
loop_
_atom_site_type_symbol
_atom_site_label
_atom_site_fract_x
_atom_site_fract_y
_atom_site_fract_z
Si Si1 0.568035 0.836513 0.886310
Si Si2 0.431149 0.117585 0.175665
Si Si3 0.432669 0.558938 0.073712
Si Si4 0.432503 0.559890 0.851924
Si Si5 0.431672 0.559566 0.491848
Si Si6 0.931523 0.168676 0.681114
Si Si7 0.069298 0.231933 0.071251
O O1 0.750000 0.843559 0.889364
O O2 0.490769 0.893450 0.919668
O O3 0.512366 0.820598 0.781746
O O4 0.528814 0.790730 0.966132
O O5 0.250000 0.108096 0.173869
O O6 0.498354 0.103475 0.278646
O O7 0.458398 0.180127 0.141835
O O8 0.508698 0.078678 0.096161
O O9 0.500000 0.500000 0.101578
O O10 0.250000 0.555322 0.077149
O O11 0.480951 0.609362 0.140021
O O12 0.474597 0.570217 0.962742
O O13 0.500000 0.500000 0.826394
O O14 0.250000 0.558801 0.844128
O O15 0.500000 0.500000 0.468809
O O16 0.250000 0.557538 0.491328
O O17 0.750000 0.168005 0.694083
O O18 0.977575 0.215646 0.606256
O O19 0.250000 0.243899 0.073103
#
# Coordination Sequence:
#
# PCOD9378780 Si02
#       7
#     8   8   8   8   8   8   8
#     4  10  22  41  61  84 115 149 189 235 281 334
#     4  10  20  35  54  80 114 151 192 236 283 337
#     4   9  21  39  57  81 112 145 184 230 276 328
#     4  10  19  33  53  79 112 149 189 233 282 334
#     4  11  21  35  56  83 115 152 193 236 286 339
#     4  11  23  39  61  88 115 145 184 229 281 337
#     4   9  21  40  59  81 111 147 188 231 275 329
#
# _framework density 18.761082999999999
#
# number of rings (size 3 to 8) (size 9 to 14) (size 15 to 20)
#    0.000    2.000    0.000    4.286    0.000    6.857 
#    0.000    4.286    0.000    0.000    0.000    0.000 
#    0.000    0.000    0.000    0.000    0.000    0.000 
#
# Total GULP energy -156431.649501 kJ/mol
# GULP energy per Si atom -5586.844625 kJ/mol
# Density = 1.871838 g / cm^3
# Si number density = 18.761083 Si / 1000 Ang^3
#
#
#
# Elastic Constant Matrix: (Units=GPa)
#
#
# Indices 1 2 3 4 5 6 
#
# 1 76.3244 46.4050 36.7130 0.0000 0.0000 0.0000
# 2 46.4050 91.8634 57.8601 0.0000 0.0000 0.0000
# 3 36.7130 57.8601 86.9515 0.0000 0.0000 0.0000
# 4 0.0000 0.0000 0.0000 14.9933 0.0000 0.0000
# 5 0.0000 0.0000 0.0000 0.0000 28.3110 0.0000
# 6 0.0000 0.0000 0.0000 0.0000 0.0000 30.7263
#
#
#
# Elastic Compliance Matrix: (Units=1/GPa)
#
#
# Indices 1 2 3 4 5 6 
#
# 1 0.019315 -0.007954 -0.002862 0.000000 0.000000 0.000000
# 2 -0.007954 0.022016 -0.011291 0.000000 0.000000 0.000000
# 3 -0.002862 -0.011291 0.020223 0.000000 0.000000 0.000000
# 4 0.000000 0.000000 0.000000 0.066696 0.000000 0.000000
# 5 0.000000 0.000000 0.000000 0.000000 0.035322 0.000000
# 6 0.000000 0.000000 0.000000 0.000000 0.000000 0.032545
#
#
# Mechanical properties :
#
#
# Convention : Reuss Voigt Hill
#
# Bulk Modulus (GPa) = 57.67793 59.67727 58.67760
# Shear Modulus (GPa) = 20.31594 22.41687 21.36641
#
# Velocity S-wave (km/s) = 3.29428 3.46043 3.37837
# Velocity P-wave (km/s) = 6.72903 6.91695 6.82364
#
# Compressibility (1/GPa) = 0.01733765
#
# Stress axis : x y z
#
# Youngs Moduli (GPa) = 51.77364 45.42208 49.44899
#
# Poissons Ratio (x) = 0.36129 0.14154
# Poissons Ratio (y) = 0.41182 0.55835
# Poissons Ratio (z) = 0.14819 0.51288
#
# Static dielectric constant tensor:
#      x y z
#    x 1.624120 0.000000 0.000000 
#    y 0.000000 1.627670 0.000000 
#    z 0.000000 0.000000 1.646000 
# 
# From -- ./inp_files/14135.got.cif
#   From: 2010.05.17/outbox.cif.g08.bks.cpg/sg46_8_cif.got.tgz:14135.got - 2010.06.03 19:58:25.
