data_PCOD9378474
_publ_section_title
;
Structure prediction by ZEFSAII (Michael W. Deem and Ramdas Pophale) SiO2 
 PCOD9378474
Probable space group: I M A 2
;
_chemical_formula_sum "Si O2"
_cell_formula_units_Z 64
_cell_length_a 9.108241
_cell_length_b 14.787974
_cell_length_c 28.624325
_cell_angle_alpha 90.000000
_cell_angle_beta 90.000000
_cell_angle_gamma 90.000000
_cell_volume 3855.479923
_symmetry_space_group_name_H-M "I M A 2"
_symmetry_group_IT_number 46
_symmetry_cell_setting 'orthorhombic'
loop_
_space_group_symop_operation_xyz
x,y,z
-x,-y,z
1/2-x,y,z
1/2+x,-y,z
1/2+x,1/2+y,1/2+z
1/2-x,1/2-y,1/2+z
-x,1/2+y,1/2+z
x,1/2-y,1/2+z
loop_
_atom_site_type_symbol
_atom_site_label
_atom_site_fract_x
_atom_site_fract_y
_atom_site_fract_z
Si Si1 0.572632 0.590029 0.985540
Si Si2 0.072981 0.210135 0.020504
Si Si3 0.926117 0.096387 0.208348
Si Si4 0.083881 0.148117 0.385298
Si Si5 0.424488 0.589985 0.329412
Si Si6 0.083811 0.356024 0.420074
Si Si7 0.425876 0.597368 0.600682
Si Si8 0.073604 0.711553 0.796277
O O1 0.500000 0.500000 0.005864
O O2 0.750000 0.583554 0.985725
O O3 0.524654 0.598393 0.931152
O O4 0.534217 0.685020 0.010237
O O5 0.250000 0.205877 0.025771
O O6 0.992000 0.168958 0.064722
O O7 0.037445 0.151215 0.973983
O O8 0.750000 0.086070 0.211487
O O9 0.960164 0.121488 0.154714
O O10 0.972007 0.169824 0.246800
O O11 0.000000 0.000000 0.218251
O O12 0.250000 0.117004 0.375287
O O13 0.092812 0.251870 0.403112
O O14 0.989849 0.151257 0.338517
O O15 0.500000 0.500000 0.309918
O O16 0.250000 0.582412 0.326443
O O17 0.475131 0.598933 0.383420
O O18 0.471756 0.684034 0.304752
O O19 0.250000 0.393825 0.416688
O O20 0.500000 0.500000 0.591612
O O21 0.250000 0.590602 0.595704
O O22 0.250000 0.710119 0.799154
#
# Coordination Sequence:
#
# PCOD9378474 Si02
#       8
#     8   8   8   8   8   8   8   8
#     4   9  18  31  47  69  99 133 164 196 233 274
#     4   9  18  33  51  71  97 127 160 199 239 280
#     4   9  19  35  52  72  96 120 150 190 237 286
#     4   8  15  28  44  64  91 122 156 191 226 265
#     4  10  19  30  46  68  95 127 160 194 229 269
#     4   8  15  29  46  63  88 122 156 190 227 267
#     4  10  20  34  53  74  95 121 153 193 242 292
#     4   9  18  32  49  69  94 124 157 193 233 277
#
# _framework density 16.59975
#
# number of rings (size 3 to 8) (size 9 to 14) (size 15 to 20)
#    0.000    3.000    0.000    2.250    0.000    4.000 
#    0.000    5.000    0.000    0.750    0.000    3.500 
#    0.000    0.000    0.000    0.000    0.000    0.000 
#
# Total GULP energy -178231.489627 kJ/mol
# GULP energy per Si atom -5569.734051 kJ/mol
# Density = 1.656197 g / cm^3
# Si number density = 16.599750 Si / 1000 Ang^3
#
#
#
# Elastic Constant Matrix: (Units=GPa)
#
#
# Indices 1 2 3 4 5 6 
#
# 1 28.9033 38.3206 40.4235 0.0000 0.0000 0.0000
# 2 38.3206 101.1690 72.6154 0.0000 0.0000 0.0000
# 3 40.4235 72.6154 113.2000 0.0000 0.0000 0.0000
# 4 0.0000 0.0000 0.0000 23.1997 0.0000 0.0000
# 5 0.0000 0.0000 0.0000 0.0000 20.9794 0.0000
# 6 0.0000 0.0000 0.0000 0.0000 0.0000 23.9665
#
#
#
# Elastic Compliance Matrix: (Units=1/GPa)
#
#
# Indices 1 2 3 4 5 6 
#
# 1 0.085793 -0.019472 -0.018145 0.000000 0.000000 0.000000
# 2 -0.019472 0.022739 -0.007633 0.000000 0.000000 0.000000
# 3 -0.018145 -0.007633 0.020210 0.000000 0.000000 0.000000
# 4 0.000000 0.000000 0.000000 0.043104 0.000000 0.000000
# 5 0.000000 0.000000 0.000000 0.000000 0.047666 0.000000
# 6 0.000000 0.000000 0.000000 0.000000 0.000000 0.041725
#
#
# Mechanical properties :
#
#
# Convention : Reuss Voigt Hill
#
# Bulk Modulus (GPa) = 26.15045 60.66569 43.40807
# Shear Modulus (GPa) = 13.71802 19.75663 16.73733
#
# Velocity S-wave (km/s) = 2.87783 3.45364 3.17880
# Velocity P-wave (km/s) = 5.17980 7.24769 6.29918
#
# Compressibility (1/GPa) = 0.03824026
#
# Stress axis : x y z
#
# Youngs Moduli (GPa) = 11.65601 43.97772 49.48066
#
# Poissons Ratio (x) = 0.85635 0.89784
# Poissons Ratio (y) = 0.22697 0.37768
# Poissons Ratio (z) = 0.21150 0.33568
#
# Static dielectric constant tensor:
#      x y z
#    x 1.562860 0.000000 0.000000 
#    y 0.000000 1.575060 0.000000 
#    z 0.000000 0.000000 1.555410 
# 
# From -- ./inp_files/25305.got.cif
#   From: 2010.05.17/outbox.cif.g08.bks.cpg/sg46_13_cif.got.tgz:25305.got - 2010.06.03 19:58:25.
