data_PCOD9378298
_publ_section_title
;
Structure prediction by ZEFSAII (Michael W. Deem and Ramdas Pophale) SiO2 
 PCOD9378298
Probable space group: I M A 2
;
_chemical_formula_sum "Si O2"
_cell_formula_units_Z 64
_cell_length_a 8.716287
_cell_length_b 21.077597
_cell_length_c 20.225766
_cell_angle_alpha 90.000000
_cell_angle_beta 90.000000
_cell_angle_gamma 90.000000
_cell_volume 3715.845059
_symmetry_space_group_name_H-M "I M A 2"
_symmetry_group_IT_number 46
_symmetry_cell_setting 'orthorhombic'
loop_
_space_group_symop_operation_xyz
x,y,z
-x,-y,z
1/2-x,y,z
1/2+x,-y,z
1/2+x,1/2+y,1/2+z
1/2-x,1/2-y,1/2+z
-x,1/2+y,1/2+z
x,1/2-y,1/2+z
loop_
_atom_site_type_symbol
_atom_site_label
_atom_site_fract_x
_atom_site_fract_y
_atom_site_fract_z
Si Si1 0.435610 0.765125 0.507730
Si Si2 0.064285 0.760675 0.361412
Si Si3 0.566045 0.383810 0.507700
Si Si4 0.567854 0.933370 0.142914
Si Si5 0.433302 0.066960 0.725805
Si Si6 0.935185 0.185063 0.645929
Si Si7 0.433892 0.381119 0.366791
Si Si8 0.434353 0.815667 0.222678
O O1 0.250000 0.766566 0.509895
O O2 0.481367 0.785730 0.433992
O O3 0.477674 0.690864 0.515337
O O4 0.489099 0.805216 0.570370
O O5 0.250000 0.752697 0.360553
O O6 0.023382 0.804029 0.299173
O O7 0.991471 0.690953 0.354996
O O8 0.750000 0.388161 0.509931
O O9 0.495139 0.420710 0.569009
O O10 0.506672 0.404013 0.435636
O O11 0.750000 0.936427 0.141269
O O12 0.513215 0.875041 0.188195
O O13 0.500000 0.000000 0.167019
O O14 0.250000 0.065548 0.723660
O O15 0.492887 0.125266 0.682212
O O16 0.480632 0.079720 0.802051
O O17 0.500000 0.000000 0.703281
O O18 0.750000 0.178520 0.647131
O O19 0.971889 0.250363 0.684362
O O20 0.250000 0.381553 0.372564
O O21 0.250000 0.824101 0.217921
#
# Coordination Sequence:
#
# PCOD9378298 Si02
#       8
#     8   8   8   8   8   8   8   8
#     4   8  15  29  52  81 109 140 176 218 265 321
#     4   9  17  31  54  81 110 146 184 222 272 326
#     4  10  19  35  56  79 110 147 186 222 266 326
#     4  12  25  39  56  79 111 148 186 229 279 330
#     4  11  24  38  53  76 109 146 187 229 276 328
#     4  10  18  33  57  82 110 142 182 226 274 323
#     4  10  20  33  50  78 112 145 185 228 270 323
#     4  10  19  34  57  84 111 144 185 228 275 328
#
# _framework density 17.223538000000001
#
# number of rings (size 3 to 8) (size 9 to 14) (size 15 to 20)
#    0.000    2.000    2.500    3.000    0.000    3.000 
#    0.000    1.875    0.000    0.750    0.000    0.000 
#    0.000    0.000    0.000    0.000    0.000    0.000 
#
# Total GULP energy -178609.928111 kJ/mol
# GULP energy per Si atom -5581.560253 kJ/mol
# Density = 1.718434 g / cm^3
# Si number density = 17.223538 Si / 1000 Ang^3
#
#
#
# Elastic Constant Matrix: (Units=GPa)
#
#
# Indices 1 2 3 4 5 6 
#
# 1 47.1199 39.5554 36.6938 0.0000 0.0000 0.0000
# 2 39.5554 107.5237 62.1572 0.0000 0.0000 0.0000
# 3 36.6938 62.1572 120.6092 0.0000 0.0000 0.0000
# 4 0.0000 0.0000 0.0000 18.5578 0.0000 0.0000
# 5 0.0000 0.0000 0.0000 0.0000 25.1542 0.0000
# 6 0.0000 0.0000 0.0000 0.0000 0.0000 26.0471
#
#
#
# Elastic Compliance Matrix: (Units=1/GPa)
#
#
# Indices 1 2 3 4 5 6 
#
# 1 0.032992 -0.009023 -0.005388 0.000000 0.000000 0.000000
# 2 -0.009023 0.015714 -0.005353 0.000000 0.000000 0.000000
# 3 -0.005388 -0.005353 0.012689 0.000000 0.000000 0.000000
# 4 0.000000 0.000000 0.000000 0.053886 0.000000 0.000000
# 5 0.000000 0.000000 0.000000 0.000000 0.039755 0.000000
# 6 0.000000 0.000000 0.000000 0.000000 0.000000 0.038392
#
#
# Mechanical properties :
#
#
# Convention : Reuss Voigt Hill
#
# Bulk Modulus (GPa) = 45.72812 61.34064 53.53438
# Shear Modulus (GPa) = 20.81211 23.07490 21.94351
#
# Velocity S-wave (km/s) = 3.47991 3.66420 3.57324
# Velocity P-wave (km/s) = 6.53864 7.32076 6.94073
#
# Compressibility (1/GPa) = 0.02186838
#
# Stress axis : x y z
#
# Youngs Moduli (GPa) = 30.31035 63.63669 78.80655
#
# Poissons Ratio (x) = 0.57417 0.42457
# Poissons Ratio (y) = 0.27348 0.42189
# Poissons Ratio (z) = 0.16330 0.34068
#
# Static dielectric constant tensor:
#      x y z
#    x 1.578250 0.000000 0.000000 
#    y 0.000000 1.557700 0.000000 
#    z 0.000000 0.000000 1.606990 
# 
# From -- ./inp_files/21335.got.cif
#   From: 2010.05.17/outbox.cif.g08.bks.cpg/sg46_11_cif.got.tgz:21335.got - 2010.06.03 19:58:25.
