data_PCOD9378892
_publ_section_title
;
Structure prediction by ZEFSAII (Michael W. Deem and Ramdas Pophale) SiO2 
 PCOD9378892
Probable space group: I M A 2
;
_chemical_formula_sum "Si O2"
_cell_formula_units_Z 56
_cell_length_a 8.861241
_cell_length_b 19.587829
_cell_length_c 18.555216
_cell_angle_alpha 90.000000
_cell_angle_beta 90.000000
_cell_angle_gamma 90.000000
_cell_volume 3220.674736
_symmetry_space_group_name_H-M "I M A 2"
_symmetry_group_IT_number 46
_symmetry_cell_setting 'orthorhombic'
loop_
_space_group_symop_operation_xyz
x,y,z
-x,-y,z
1/2-x,y,z
1/2+x,-y,z
1/2+x,1/2+y,1/2+z
1/2-x,1/2-y,1/2+z
-x,1/2+y,1/2+z
x,1/2-y,1/2+z
loop_
_atom_site_type_symbol
_atom_site_label
_atom_site_fract_x
_atom_site_fract_y
_atom_site_fract_z
Si Si1 0.573678 0.706884 0.020070
Si Si2 0.926357 0.324174 0.604495
Si Si3 0.929881 0.074860 0.977711
Si Si4 0.573670 0.188204 0.275489
Si Si5 0.927842 0.933039 0.357503
Si Si6 0.930713 0.208856 0.891915
Si Si7 0.570735 0.068994 0.516704
O O1 0.750000 0.693365 0.010097
O O2 0.538969 0.767545 0.074725
O O3 0.490872 0.639331 0.048161
O O4 0.502589 0.735397 0.945782
O O5 0.750000 0.306473 0.587221
O O6 0.957960 0.392255 0.557371
O O7 0.939603 0.322807 0.690261
O O8 0.750000 0.067816 0.969715
O O9 0.981192 0.133863 0.920248
O O10 0.000000 0.000000 0.969270
O O11 0.750000 0.173608 0.294359
O O12 0.466457 0.133533 0.312774
O O13 0.540261 0.262501 0.311278
O O14 0.750000 0.941761 0.368343
O O15 0.010285 0.927556 0.434500
O O16 0.000000 0.000000 0.321154
O O17 0.750000 0.209557 0.902332
O O18 0.750000 0.065721 0.518006
O O19 0.500000 0.000000 0.548678
#
# Coordination Sequence:
#
# PCOD9378892 Si02
#       7
#     8   8   8   8   8   8   8
#     4  11  20  32  51  76 103 134 172 215 261 312
#     4   9  20  36  53  75 103 138 177 216 266 324
#     4   9  18  33  52  76 104 134 173 218 263 315
#     4  10  19  34  55  76 102 139 178 220 271 320
#     4  11  21  32  47  72 105 138 172 208 250 303
#     4   9  18  33  54  76 100 133 175 223 268 315
#     4  11  20  32  50  73 101 132 168 210 255 304
#
# _framework density 17.387661000000001
#
# number of rings (size 3 to 8) (size 9 to 14) (size 15 to 20)
#    0.000    2.000    1.429    5.571    0.000    3.429 
#    0.000    1.429    0.000    0.857    0.000    2.000 
#    0.000    0.000    0.000    0.000    0.000    0.000 
#
# Total GULP energy -155993.865517 kJ/mol
# GULP energy per Si atom -5571.209483 kJ/mol
# Density = 1.734809 g / cm^3
# Si number density = 17.387661 Si / 1000 Ang^3
#
#
#
# Elastic Constant Matrix: (Units=GPa)
#
#
# Indices 1 2 3 4 5 6 
#
# 1 77.8054 45.6105 7.2454 0.0000 0.0000 0.0000
# 2 45.6105 139.0798 23.9137 0.0000 0.0000 0.0000
# 3 7.2454 23.9137 42.8090 0.0000 0.0000 0.0000
# 4 0.0000 0.0000 0.0000 12.0549 0.0000 0.0000
# 5 0.0000 0.0000 0.0000 0.0000 10.9604 0.0000
# 6 0.0000 0.0000 0.0000 0.0000 0.0000 33.6615
#
#
#
# Elastic Compliance Matrix: (Units=1/GPa)
#
#
# Indices 1 2 3 4 5 6 
#
# 1 0.015914 -0.005261 0.000246 0.000000 0.000000 0.000000
# 2 -0.005261 0.009693 -0.004524 0.000000 0.000000 0.000000
# 3 0.000246 -0.004524 0.025845 0.000000 0.000000 0.000000
# 4 0.000000 0.000000 0.000000 0.082954 0.000000 0.000000
# 5 0.000000 0.000000 0.000000 0.000000 0.091237 0.000000
# 6 0.000000 0.000000 0.000000 0.000000 0.000000 0.029707
#
#
# Mechanical properties :
#
#
# Convention : Reuss Voigt Hill
#
# Bulk Modulus (GPa) = 30.89029 45.91483 38.40256
# Shear Modulus (GPa) = 17.53019 23.53035 20.53027
#
# Velocity S-wave (km/s) = 3.17866 3.68268 3.43991
# Velocity P-wave (km/s) = 5.59250 6.67434 6.15722
#
# Compressibility (1/GPa) = 0.03237264
#
# Stress axis : x y z
#
# Youngs Moduli (GPa) = 62.83846 103.16304 38.69160
#
# Poissons Ratio (x) = 0.54275 -0.00950
# Poissons Ratio (y) = 0.33060 0.17506
# Poissons Ratio (z) = -0.01543 0.46675
#
# Static dielectric constant tensor:
#      x y z
#    x 1.589300 0.000000 0.000000 
#    y 0.000000 1.649760 0.000000 
#    z 0.000000 0.000000 1.602420 
# 
# From -- ./inp_files/18450.got.cif
#   From: 2010.05.17/outbox.cif.g08.bks.cpg/sg46_10_cif.got.tgz:18450.got - 2010.06.03 19:58:25.
