data_PCOD9378380
_publ_section_title
;
Structure prediction by ZEFSAII (Michael W. Deem and Ramdas Pophale) SiO2 
 PCOD9378380
Probable space group: I M A 2
;
_chemical_formula_sum "Si O2"
_cell_formula_units_Z 64
_cell_length_a 8.025141
_cell_length_b 29.870246
_cell_length_c 13.351513
_cell_angle_alpha 90.000000
_cell_angle_beta 90.000000
_cell_angle_gamma 90.000000
_cell_volume 3200.530379
_symmetry_space_group_name_H-M "I M A 2"
_symmetry_group_IT_number 46
_symmetry_cell_setting 'orthorhombic'
loop_
_space_group_symop_operation_xyz
x,y,z
-x,-y,z
1/2-x,y,z
1/2+x,-y,z
1/2+x,1/2+y,1/2+z
1/2-x,1/2-y,1/2+z
-x,1/2+y,1/2+z
x,1/2-y,1/2+z
loop_
_atom_site_type_symbol
_atom_site_label
_atom_site_fract_x
_atom_site_fract_y
_atom_site_fract_z
Si Si1 0.545520 0.378303 0.420780
Si Si2 0.954600 0.377496 0.976650
Si Si3 0.549405 0.448454 0.812555
Si Si4 0.548960 0.051787 0.088197
Si Si5 0.556298 0.360916 0.199559
Si Si6 0.062010 0.796085 0.338887
Si Si7 0.439860 0.718775 0.494010
Si Si8 0.432590 0.263777 0.181624
O O1 0.750000 0.378435 0.417853
O O2 0.490272 0.417218 0.496571
O O3 0.486651 0.379309 0.305049
O O4 0.498543 0.330390 0.467853
O O5 0.750000 0.376670 0.981459
O O6 0.008147 0.418430 0.905794
O O7 0.004388 0.333154 0.914754
O O8 0.015237 0.376211 0.091620
O O9 0.500000 0.500000 0.825278
O O10 0.750000 0.445388 0.811660
O O11 0.491311 0.434115 0.700563
O O12 0.750000 0.054424 0.088858
O O13 0.500000 0.000000 0.074606
O O14 0.750000 0.374272 0.198523
O O15 0.548421 0.306665 0.200295
O O16 0.250000 0.810123 0.311116
O O17 0.069784 0.748723 0.395350
O O18 0.964672 0.782188 0.241062
O O19 0.250000 0.715757 0.535459
O O20 0.548028 0.747825 0.568747
O O21 0.250000 0.280725 0.206491
#
# Coordination Sequence:
#
# PCOD9378380 Si02
#       8
#     8   8   8   8   8   8   8   8
#     4   9  18  32  56  82 100 130 178 229 261 297
#     4   9  18  32  56  82 100 130 178 229 261 297
#     4   9  18  34  55  79 105 132 166 210 265 317
#     4   9  18  34  55  79 105 132 166 210 265 317
#     4  10  18  36  57  75 101 137 185 222 258 307
#     4  10  19  34  56  77  99 136 186 224 255 301
#     4  10  19  34  56  77  99 136 186 224 255 301
#     4  12  24  34  46  73 114 149 173 212 271 321
#
# _framework density 19.996683999999998
#
# number of rings (size 3 to 8) (size 9 to 14) (size 15 to 20)
#    0.000    2.250    2.500    1.125    1.750    0.500 
#    0.000    3.125    0.000    0.000    0.000    0.000 
#    0.000    0.000    0.000    0.000    0.000    0.000 
#
# Total GULP energy -178320.212829 kJ/mol
# GULP energy per Si atom -5572.506651 kJ/mol
# Density = 1.995117 g / cm^3
# Si number density = 19.996684 Si / 1000 Ang^3
#
#
#
# Elastic Constant Matrix: (Units=GPa)
#
#
# Indices 1 2 3 4 5 6 
#
# 1 10.7193 -6.3282 -1.8794 0.0001 -0.0002 0.0000
# 2 -6.3282 90.5856 67.3563 0.0000 -0.0002 0.0000
# 3 -1.8794 67.3563 137.9440 0.0004 -0.0017 -0.0001
# 4 0.0001 0.0000 0.0004 35.0695 0.0000 0.0000
# 5 -0.0002 -0.0002 -0.0017 0.0000 -24.3519 -0.0001
# 6 0.0000 0.0000 -0.0001 0.0000 -0.0001 10.5213
#
#
#
# Elastic Compliance Matrix: (Units=1/GPa)
#
#
# Indices 1 2 3 4 5 6 
#
# 1 0.098171 0.009206 -0.003158 0.000000 -0.000001 0.000000
# 2 0.009206 0.018195 -0.008759 0.000000 0.000000 0.000000
# 3 -0.003158 -0.008759 0.011483 0.000000 -0.000001 0.000000
# 4 0.000000 0.000000 0.000000 0.028515 0.000000 0.000000
# 5 -0.000001 0.000000 -0.000001 0.000000 -0.041065 0.000000
# 6 0.000000 0.000000 0.000000 0.000000 0.000000 0.095046
#
#
# Mechanical properties :
#
#
# Convention : Reuss Voigt Hill
#
# Bulk Modulus (GPa) = 8.16804 39.72735 23.94769
# Shear Modulus (GPa) = 19.48735 16.25446 17.87091
#
# Velocity S-wave (km/s) = 3.12513 2.85416 2.99271
# Velocity P-wave (km/s) = 4.13709 5.54723 4.89322
#
# Compressibility (1/GPa) = 0.12242845
#
# Stress axis : x y z
#
# Youngs Moduli (GPa) = 10.18628 54.95894 87.08310
#
# Poissons Ratio (x) = -0.50596 0.27498
# Poissons Ratio (y) = -0.09378 0.76277
# Poissons Ratio (z) = 0.03216 0.48139
#
# Static dielectric constant tensor:
#      x y z
#    x 1.754010 0.000000 0.000000 
#    y 0.000000 1.662370 0.000000 
#    z 0.000000 0.000000 1.745800 
# 
# From -- ./inp_files/9789.got.cif
#   From: 2010.05.17/outbox.cif.g08.bks.cpg/sg46_5_cif.got.tgz:9789.got - 2010.06.03 19:58:25.
