data_PCOD9378109
_publ_section_title
;
Structure prediction by ZEFSAII (Michael W. Deem and Ramdas Pophale) SiO2 
 PCOD9378109
Probable space group: I M A 2
;
_chemical_formula_sum "Si O2"
_cell_formula_units_Z 56
_cell_length_a 8.951040
_cell_length_b 19.432237
_cell_length_c 18.416565
_cell_angle_alpha 90.000000
_cell_angle_beta 90.000000
_cell_angle_gamma 90.000000
_cell_volume 3203.353940
_symmetry_space_group_name_H-M "I M A 2"
_symmetry_group_IT_number 46
_symmetry_cell_setting 'orthorhombic'
loop_
_space_group_symop_operation_xyz
x,y,z
-x,-y,z
1/2-x,y,z
1/2+x,-y,z
1/2+x,1/2+y,1/2+z
1/2-x,1/2-y,1/2+z
-x,1/2+y,1/2+z
x,1/2-y,1/2+z
loop_
_atom_site_type_symbol
_atom_site_label
_atom_site_fract_x
_atom_site_fract_y
_atom_site_fract_z
Si Si1 0.568985 0.924359 0.794550
Si Si2 0.923586 0.430915 0.657374
Si Si3 0.419306 0.292728 0.817745
Si Si4 0.569802 0.205126 0.078288
Si Si5 0.418995 0.166835 0.928921
Si Si6 0.576142 0.429713 0.832584
Si Si7 0.929141 0.198059 0.701919
O O1 0.750000 0.925647 0.791226
O O2 0.526676 0.893496 0.874368
O O3 0.508246 0.869655 0.734760
O O4 0.500000 0.000000 0.784620
O O5 0.750000 0.434609 0.638447
O O6 0.985070 0.360804 0.624382
O O7 0.934120 0.429775 0.744548
O O8 0.000000 0.500000 0.629989
O O9 0.250000 0.305786 0.790677
O O10 0.411697 0.232958 0.876939
O O11 0.487625 0.361114 0.852535
O O12 0.523914 0.260893 0.755190
O O13 0.750000 0.205911 0.079195
O O14 0.524990 0.274567 0.121762
O O15 0.514484 0.189555 0.997704
O O16 0.250000 0.149378 0.952689
O O17 0.500000 0.500000 0.858740
O O18 0.750000 0.426789 0.852675
O O19 0.750000 0.188809 0.704317
#
# Coordination Sequence:
#
# PCOD9378109 Si02
#       7
#     8   8   8   8   8   8   8
#     4  10  21  38  58  83 110 142 184 228 276 330
#     4   9  18  31  44  68 101 132 166 202 239 293
#     4  10  19  33  51  74 102 134 175 219 259 310
#     4  10  20  34  51  75 107 141 179 217 263 319
#     4   9  21  36  51  75 106 138 177 217 263 321
#     4  10  18  30  48  72 101 131 166 207 253 300
#     4  10  19  34  55  79 106 138 178 226 270 318
#
# _framework density 17.481677999999999
#
# number of rings (size 3 to 8) (size 9 to 14) (size 15 to 20)
#    0.000    2.286    1.429    2.571    0.000    6.286 
#    0.000    2.857    0.000    0.857    0.000    6.000 
#    0.000    0.000    0.000    0.000    0.000    0.000 
#
# Total GULP energy -155963.258132 kJ/mol
# GULP energy per Si atom -5570.116362 kJ/mol
# Density = 1.744189 g / cm^3
# Si number density = 17.481678 Si / 1000 Ang^3
#
#
#
# Elastic Constant Matrix: (Units=GPa)
#
#
# Indices 1 2 3 4 5 6 
#
# 1 48.1296 31.2991 19.2104 0.0000 0.0000 0.0000
# 2 31.2991 120.9479 28.7159 0.0000 0.0000 0.0000
# 3 19.2104 28.7159 59.1694 0.0000 0.0000 0.0000
# 4 0.0000 0.0000 0.0000 11.8220 0.0000 0.0000
# 5 0.0000 0.0000 0.0000 0.0000 19.7896 0.0000
# 6 0.0000 0.0000 0.0000 0.0000 0.0000 29.9383
#
#
#
# Elastic Compliance Matrix: (Units=1/GPa)
#
#
# Indices 1 2 3 4 5 6 
#
# 1 0.026753 -0.005494 -0.006019 0.000000 0.000000 0.000000
# 2 -0.005494 0.010473 -0.003299 0.000000 0.000000 0.000000
# 3 -0.006019 -0.003299 0.020456 0.000000 0.000000 0.000000
# 4 0.000000 0.000000 0.000000 0.084588 0.000000 0.000000
# 5 0.000000 0.000000 0.000000 0.000000 0.050532 0.000000
# 6 0.000000 0.000000 0.000000 0.000000 0.000000 0.033402
#
#
# Mechanical properties :
#
#
# Convention : Reuss Voigt Hill
#
# Bulk Modulus (GPa) = 35.64189 42.96641 39.30415
# Shear Modulus (GPa) = 18.85509 22.24475 20.54992
#
# Velocity S-wave (km/s) = 3.28771 3.57103 3.43229
# Velocity P-wave (km/s) = 5.90292 6.45246 6.18380
#
# Compressibility (1/GPa) = 0.02805687
#
# Stress axis : x y z
#
# Youngs Moduli (GPa) = 37.37958 95.48354 48.88540
#
# Poissons Ratio (x) = 0.52458 0.29426
# Poissons Ratio (y) = 0.20536 0.16127
# Poissons Ratio (z) = 0.22500 0.31500
#
# Static dielectric constant tensor:
#      x y z
#    x 1.615250 0.000000 0.000000 
#    y 0.000000 1.608720 0.000000 
#    z 0.000000 0.000000 1.595020 
# 
# From -- ./inp_files/18464.got.cif
#   From: 2010.05.17/outbox.cif.g08.bks.cpg/sg46_10_cif.got.tgz:18464.got - 2010.06.03 19:58:25.
