data_PCOD9378494
_publ_section_title
;
Structure prediction by ZEFSAII (Michael W. Deem and Ramdas Pophale) SiO2 
 PCOD9378494
Probable space group: I M A 2
;
_chemical_formula_sum "Si O2"
_cell_formula_units_Z 56
_cell_length_a 14.147679
_cell_length_b 23.002554
_cell_length_c 9.596668
_cell_angle_alpha 90.000000
_cell_angle_beta 90.000000
_cell_angle_gamma 90.000000
_cell_volume 3123.070060
_symmetry_space_group_name_H-M "I M A 2"
_symmetry_group_IT_number 46
_symmetry_cell_setting 'orthorhombic'
loop_
_space_group_symop_operation_xyz
x,y,z
-x,-y,z
1/2-x,y,z
1/2+x,-y,z
1/2+x,1/2+y,1/2+z
1/2-x,1/2-y,1/2+z
-x,1/2+y,1/2+z
x,1/2-y,1/2+z
loop_
_atom_site_type_symbol
_atom_site_label
_atom_site_fract_x
_atom_site_fract_y
_atom_site_fract_z
Si Si1 0.017378 0.642429 0.131940
Si Si2 0.362721 0.329479 0.485920
Si Si3 0.138019 0.273462 0.183745
Si Si4 0.500481 0.431464 0.391644
Si Si5 0.138920 0.720022 0.343808
Si Si6 0.137843 0.633065 0.566266
Si Si7 0.361746 0.641861 0.867380
O O1 0.080204 0.686916 0.226090
O O2 0.922957 0.678793 0.101100
O O3 0.994351 0.588419 0.231566
O O4 0.076004 0.624647 0.997877
O O5 0.250000 0.342458 0.487985
O O6 0.379977 0.289169 0.347132
O O7 0.386183 0.290054 0.621320
O O8 0.424176 0.388379 0.467750
O O9 0.250000 0.280657 0.160812
O O10 0.500000 0.500000 0.409570
O O11 0.600749 0.411651 0.453744
O O12 0.250000 0.707119 0.321145
O O13 0.110650 0.694513 0.495455
O O14 0.128765 0.788635 0.347054
O O15 0.250000 0.634183 0.579279
O O16 0.102508 0.618108 0.719497
O O17 0.250000 0.629345 0.889468
#
# Coordination Sequence:
#
# PCOD9378494 Si02
#       7
#     8   8   8   8   8   8   8
#     4  10  20  30  53  76 104 144 174 217 270 314
#     4   9  19  35  55  79 105 134 170 223 278 319
#     4   9  19  33  50  76 106 132 171 221 272 325
#     4  10  22  38  53  75 103 141 188 219 253 319
#     4   9  17  29  46  75 112 141 166 196 248 322
#     4   9  19  33  50  75 106 139 173 211 254 304
#     4  10  19  30  48  78 111 137 166 207 260 319
#
# _framework density 17.931073999999999
#
# number of rings (size 3 to 8) (size 9 to 14) (size 15 to 20)
#    0.000    2.571    0.000    1.286    8.000    3.429 
#    0.000    0.714    0.000    0.000    0.000    8.000 
#    0.000    0.000    0.000    0.000    0.000    0.000 
#
# Total GULP energy -155994.802146 kJ/mol
# GULP energy per Si atom -5571.242934 kJ/mol
# Density = 1.789026 g / cm^3
# Si number density = 17.931074 Si / 1000 Ang^3
#
#
#
# Elastic Constant Matrix: (Units=GPa)
#
#
# Indices 1 2 3 4 5 6 
#
# 1 33.7258 10.6276 19.2012 0.0000 0.0000 0.0000
# 2 10.6276 73.0937 16.3555 0.0001 0.0000 0.0000
# 3 19.2012 16.3555 60.9098 -0.0002 -0.0001 0.0000
# 4 0.0000 0.0001 -0.0002 -17.0905 -0.0002 0.0000
# 5 0.0000 0.0000 -0.0001 -0.0002 23.4563 0.0000
# 6 0.0000 0.0000 0.0000 0.0000 0.0000 12.5230
#
#
#
# Elastic Compliance Matrix: (Units=1/GPa)
#
#
# Indices 1 2 3 4 5 6 
#
# 1 0.036715 -0.002924 -0.010789 0.000000 0.000000 0.000000
# 2 -0.002924 0.014789 -0.003049 0.000000 0.000000 0.000000
# 3 -0.010789 -0.003049 0.020638 0.000000 0.000000 0.000000
# 4 0.000000 0.000000 0.000000 -0.058512 0.000000 0.000000
# 5 0.000000 0.000000 0.000000 0.000000 0.042632 0.000000
# 6 0.000000 0.000000 0.000000 0.000000 0.000000 0.079853
#
#
# Mechanical properties :
#
#
# Convention : Reuss Voigt Hill
#
# Bulk Modulus (GPa) = 25.89561 28.89977 27.39769
# Shear Modulus (GPa) = 27.39569 11.88077 19.63823
#
# Velocity S-wave (km/s) = 3.91299 2.57686 3.31298
# Velocity P-wave (km/s) = 5.90664 5.00057 5.47239
#
# Compressibility (1/GPa) = 0.03861658
#
# Stress axis : x y z
#
# Youngs Moduli (GPa) = 27.23708 67.62004 48.45545
#
# Poissons Ratio (x) = 0.19773 0.52277
# Poissons Ratio (y) = 0.07964 0.14775
# Poissons Ratio (z) = 0.29385 0.20619
#
# Static dielectric constant tensor:
#      x y z
#    x 1.651690 0.000000 0.000000 
#    y 0.000000 1.689750 0.000000 
#    z 0.000000 0.000000 1.651540 
# 
# From -- ./inp_files/5938.got.cif
#   From: 2010.05.17/outbox.cif.g08.bks.cpg/sg46_3_cif.got.tgz:5938.got - 2010.06.03 19:58:25.
