data_PCOD9378648
_publ_section_title
;
Structure prediction by ZEFSAII (Michael W. Deem and Ramdas Pophale) SiO2 
 PCOD9378648
Probable space group: I M A 2
;
_chemical_formula_sum "Si O2"
_cell_formula_units_Z 56
_cell_length_a 8.844815
_cell_length_b 24.134990
_cell_length_c 14.101777
_cell_angle_alpha 90.000000
_cell_angle_beta 90.000000
_cell_angle_gamma 90.000000
_cell_volume 3010.299590
_symmetry_space_group_name_H-M "I M A 2"
_symmetry_group_IT_number 46
_symmetry_cell_setting 'orthorhombic'
loop_
_space_group_symop_operation_xyz
x,y,z
-x,-y,z
1/2-x,y,z
1/2+x,-y,z
1/2+x,1/2+y,1/2+z
1/2-x,1/2-y,1/2+z
-x,1/2+y,1/2+z
x,1/2-y,1/2+z
loop_
_atom_site_type_symbol
_atom_site_label
_atom_site_fract_x
_atom_site_fract_y
_atom_site_fract_z
Si Si1 0.930977 0.834573 0.671990
Si Si2 0.068711 0.172535 0.889413
Si Si3 0.931456 0.060378 0.574848
Si Si4 0.932094 0.118949 0.169153
Si Si5 0.068214 0.560237 0.857360
Si Si6 0.569771 0.941581 0.992188
Si Si7 0.430645 0.732039 0.565311
O O1 0.750000 0.838147 0.666833
O O2 0.972988 0.819844 0.780181
O O3 0.002184 0.892932 0.642449
O O4 0.992084 0.787345 0.602443
O O5 0.250000 0.179413 0.899731
O O6 0.032292 0.109715 0.922821
O O7 0.985974 0.213530 0.961607
O O8 0.750000 0.058431 0.581314
O O9 0.974046 0.074751 0.465340
O O10 0.000000 0.000000 0.595002
O O11 0.750000 0.114263 0.161913
O O12 0.977931 0.103188 0.275756
O O13 0.972845 0.180584 0.134582
O O14 0.005158 0.076526 0.094518
O O15 0.250000 0.555945 0.855002
O O16 0.000000 0.500000 0.835638
O O17 0.750000 0.946519 0.997445
O O18 0.500000 0.000000 0.962601
O O19 0.250000 0.738380 0.566114
#
# Coordination Sequence:
#
# PCOD9378648 Si02
#       7
#     8   8   8   8   8   8   8
#     4  11  23  40  61  84 111 145 185 228 278 334
#     4   9  21  40  58  79 110 147 186 229 274 326
#     4  10  21  38  58  82 112 146 185 230 279 330
#     4   9  18  33  52  77 109 144 182 223 269 322
#     4   9  18  32  51  77 110 145 181 222 268 321
#     4  10  19  32  51  77 109 144 183 225 272 323
#     4  10  21  37  58  84 113 145 183 229 278 330
#
# _framework density 18.602799000000001
#
# number of rings (size 3 to 8) (size 9 to 14) (size 15 to 20)
#    0.000    2.286    0.000    2.143    0.000    6.286 
#    0.000    2.857    0.000    0.000    0.000    0.000 
#    0.000    0.000    0.000    0.000    0.000    0.000 
#
# Total GULP energy -156330.010543 kJ/mol
# GULP energy per Si atom -5583.214662 kJ/mol
# Density = 1.856046 g / cm^3
# Si number density = 18.602799 Si / 1000 Ang^3
#
#
#
# Elastic Constant Matrix: (Units=GPa)
#
#
# Indices 1 2 3 4 5 6 
#
# 1 41.5939 42.9105 43.2186 0.0000 0.0000 0.0000
# 2 42.9105 94.5569 65.4808 0.0000 0.0000 0.0000
# 3 43.2186 65.4808 108.6430 -0.0001 0.0000 0.0000
# 4 0.0000 0.0000 -0.0001 18.4878 0.0000 0.0000
# 5 0.0000 0.0000 0.0000 0.0000 24.5456 0.0000
# 6 0.0000 0.0000 0.0000 0.0000 0.0000 32.6398
#
#
#
# Elastic Compliance Matrix: (Units=1/GPa)
#
#
# Indices 1 2 3 4 5 6 
#
# 1 0.051974 -0.015908 -0.011087 0.000000 0.000000 0.000000
# 2 -0.015908 0.023021 -0.007547 0.000000 0.000000 0.000000
# 3 -0.011087 -0.007547 0.018164 0.000000 0.000000 0.000000
# 4 0.000000 0.000000 0.000000 0.054090 0.000000 0.000000
# 5 0.000000 0.000000 0.000000 0.000000 0.040740 0.000000
# 6 0.000000 0.000000 0.000000 0.000000 0.000000 0.030637
#
#
# Mechanical properties :
#
#
# Convention : Reuss Voigt Hill
#
# Bulk Modulus (GPa) = 41.53844 60.89041 51.21443
# Shear Modulus (GPa) = 16.90697 21.34691 19.12694
#
# Velocity S-wave (km/s) = 3.01797 3.39117 3.21000
# Velocity P-wave (km/s) = 5.87552 6.93803 6.42877
#
# Compressibility (1/GPa) = 0.02407408
#
# Stress axis : x y z
#
# Youngs Moduli (GPa) = 19.24034 43.43851 55.05498
#
# Poissons Ratio (x) = 0.69103 0.61042
# Poissons Ratio (y) = 0.30608 0.41549
# Poissons Ratio (z) = 0.21333 0.32782
#
# Static dielectric constant tensor:
#      x y z
#    x 1.616810 0.000000 0.000000 
#    y 0.000000 1.618930 0.000000 
#    z 0.000000 0.000000 1.642450 
# 
# From -- ./inp_files/14190.got.cif
#   From: 2010.05.17/outbox.cif.g08.bks.cpg/sg46_8_cif.got.tgz:14190.got - 2010.06.03 19:58:25.
