data_PCOD9378404
_publ_section_title
;
Structure prediction by ZEFSAII (Michael W. Deem and Ramdas Pophale) SiO2 
 PCOD9378404
Probable space group: I M A 2
;
_chemical_formula_sum "Si O2"
_cell_formula_units_Z 64
_cell_length_a 18.374853
_cell_length_b 11.480594
_cell_length_c 13.623038
_cell_angle_alpha 90.000000
_cell_angle_beta 90.000000
_cell_angle_gamma 90.000000
_cell_volume 2873.837452
_symmetry_space_group_name_H-M "I M A 2"
_symmetry_group_IT_number 46
_symmetry_cell_setting 'orthorhombic'
loop_
_space_group_symop_operation_xyz
x,y,z
-x,-y,z
1/2-x,y,z
1/2+x,-y,z
1/2+x,1/2+y,1/2+z
1/2-x,1/2-y,1/2+z
-x,1/2+y,1/2+z
x,1/2-y,1/2+z
loop_
_atom_site_type_symbol
_atom_site_label
_atom_site_fract_x
_atom_site_fract_y
_atom_site_fract_z
Si Si1 0.165383 0.125896 0.487290
Si Si2 0.125940 0.554605 0.430527
Si Si3 0.043326 0.396155 0.280169
Si Si4 0.565643 0.422741 0.976474
Si Si5 0.596451 0.244894 0.306003
Si Si6 0.539231 0.195456 0.093495
Si Si7 0.166525 0.216239 0.272669
Si Si8 0.370368 0.371323 0.581976
O O1 0.250000 0.096665 0.487709
O O2 0.143799 0.161732 0.376283
O O3 0.152527 0.243858 0.545805
O O4 0.120909 0.014656 0.523372
O O5 0.076313 0.465123 0.371081
O O6 0.148981 0.649210 0.346055
O O7 0.083339 0.630540 0.509617
O O8 0.163404 0.463272 0.505044
O O9 0.110764 0.319580 0.242872
O O10 0.000000 0.500000 0.223108
O O11 0.983346 0.304459 0.315122
O O12 0.500000 0.500000 0.936788
O O13 0.602773 0.356988 0.885093
O O14 0.534659 0.327629 0.052764
O O15 0.587317 0.200436 0.193792
O O16 0.459027 0.136088 0.095748
O O17 0.250000 0.258719 0.280554
O O18 0.161062 0.117377 0.190485
#
# Coordination Sequence:
#
# PCOD9378404 Si02
#       8
#     8   8   8   8   8   8   8   8
#     4  11  25  43  62  89 131 171 203 261 324 376
#     4  10  22  36  60  90 128 166 209 264 321 378
#     4  10  18  37  62  87 128 165 205 265 316 374
#     4  11  22  38  61  92 125 162 214 254 311 384
#     4  10  21  36  59  92 128 158 203 265 322 364
#     4  11  22  35  60 100 125 160 210 265 324 369
#     4  11  24  39  60  94 128 169 214 257 318 387
#     4  12  21  39  62  90 131 165 214 259 317 388
#
# _framework density 22.269874000000002
#
# number of rings (size 3 to 8) (size 9 to 14) (size 15 to 20)
#    0.000    1.250    3.750    4.500    1.750    3.500 
#    0.000    0.000    0.000   13.500    0.000    0.000 
#    0.000    0.000    0.000    0.000    0.000    0.000 
#
# Total GULP energy -178297.758944 kJ/mol
# GULP energy per Si atom -5571.804967 kJ/mol
# Density = 2.221919 g / cm^3
# Si number density = 22.269874 Si / 1000 Ang^3
#
#
#
# Elastic Constant Matrix: (Units=GPa)
#
#
# Indices 1 2 3 4 5 6 
#
# 1 59.1869 21.3108 -11.0348 0.0000 0.0000 0.0000
# 2 21.3108 77.5131 -7.9069 0.0000 0.0000 0.0000
# 3 -11.0348 -7.9069 79.9272 0.0000 0.0000 0.0000
# 4 0.0000 0.0000 0.0000 41.8110 0.0000 0.0000
# 5 0.0000 0.0000 0.0000 0.0000 7.2005 0.0000
# 6 0.0000 0.0000 0.0000 0.0000 0.0000 4.1370
#
#
#
# Elastic Compliance Matrix: (Units=1/GPa)
#
#
# Indices 1 2 3 4 5 6 
#
# 1 0.019107 -0.005035 0.002140 0.000000 0.000000 0.000000
# 2 -0.005035 0.014359 0.000725 0.000000 0.000000 0.000000
# 3 0.002140 0.000725 0.012879 0.000000 0.000000 0.000000
# 4 0.000000 0.000000 0.000000 0.023917 0.000000 0.000000
# 5 0.000000 0.000000 0.000000 0.000000 0.138879 0.000000
# 6 0.000000 0.000000 0.000000 0.000000 0.000000 0.241721
#
#
# Mechanical properties :
#
#
# Convention : Reuss Voigt Hill
#
# Bulk Modulus (GPa) = 23.80611 24.59615 24.20113
# Shear Modulus (GPa) = 10.65636 24.91358 17.78497
#
# Velocity S-wave (km/s) = 2.18986 3.34834 2.82904
# Velocity P-wave (km/s) = 4.13606 5.10070 4.64350
#
# Compressibility (1/GPa) = 0.04200602
#
# Stress axis : x y z
#
# Youngs Moduli (GPa) = 52.33549 69.64124 77.64832
#
# Poissons Ratio (x) = 0.35064 -0.16616
# Poissons Ratio (y) = 0.26351 -0.05633
# Poissons Ratio (z) = -0.11199 -0.05052
#
# Static dielectric constant tensor:
#      x y z
#    x 1.836740 0.000000 0.000000 
#    y 0.000000 1.874010 0.000000 
#    z 0.000000 0.000000 1.889150 
# 
# From -- ./inp_files/16774.got.cif
#   From: 2010.05.17/outbox.cif.g08.bks.cpg/sg46_9_cif.got.tgz:16774.got - 2010.06.03 19:58:25.
