data_PCOD9378068
_publ_section_title
;
Structure prediction by ZEFSAII (Michael W. Deem and Ramdas Pophale) SiO2 
 PCOD9378068
Probable space group: I M A 2
;
_chemical_formula_sum "Si O2"
_cell_formula_units_Z 64
_cell_length_a 8.554417
_cell_length_b 24.266271
_cell_length_c 13.965761
_cell_angle_alpha 90.000000
_cell_angle_beta 90.000000
_cell_angle_gamma 90.000000
_cell_volume 2899.065755
_symmetry_space_group_name_H-M "I M A 2"
_symmetry_group_IT_number 46
_symmetry_cell_setting 'orthorhombic'
loop_
_space_group_symop_operation_xyz
x,y,z
-x,-y,z
1/2-x,y,z
1/2+x,-y,z
1/2+x,1/2+y,1/2+z
1/2-x,1/2-y,1/2+z
-x,1/2+y,1/2+z
x,1/2-y,1/2+z
loop_
_atom_site_type_symbol
_atom_site_label
_atom_site_fract_x
_atom_site_fract_y
_atom_site_fract_z
Si Si1 0.927945 0.150063 0.193040
Si Si2 0.430743 0.441892 0.037196
Si Si3 0.564478 0.169362 0.744343
Si Si4 0.566945 0.731251 0.844964
Si Si5 0.562293 0.061420 0.039977
Si Si6 0.435645 0.059211 0.826270
Si Si7 0.433235 0.676977 0.037339
Si Si8 0.426253 0.549886 0.836882
O O1 0.750000 0.170615 0.172329
O O2 0.025891 0.195160 0.250683
O O3 0.990397 0.114568 0.102816
O O4 0.916100 0.103052 0.273558
O O5 0.500000 0.500000 0.072668
O O6 0.250000 0.435170 0.065133
O O7 0.533465 0.387852 0.053668
O O8 0.450445 0.444681 0.922072
O O9 0.750000 0.159796 0.741323
O O10 0.522647 0.211372 0.829132
O O11 0.479858 0.111195 0.761217
O O12 0.519517 0.198011 0.642759
O O13 0.250000 0.539947 0.873727
O O14 0.518129 0.700588 0.943612
O O15 0.750000 0.059972 0.049952
O O16 0.500000 0.000000 0.065047
O O17 0.512628 0.069568 0.930081
O O18 0.250000 0.055082 0.836337
O O19 0.500000 0.000000 0.792420
O O20 0.250000 0.686033 0.021258
O O21 0.500000 0.500000 0.777293
O O22 0.750000 0.741845 0.848312
#
# Coordination Sequence:
#
# PCOD9378068 Si02
#       8
#     8   8   8   8   8   8   8   8
#     4  10  21  36  57  85 126 176 221 267 319 379
#     4  11  21  34  56  88 126 169 213 261 318 378
#     4  11  26  48  74  99 127 168 214 265 323 383
#     4  12  26  43  67  97 131 171 215 268 324 384
#     4  10  20  36  60  93 132 176 224 273 328 386
#     4  11  23  43  71 101 134 169 211 267 326 387
#     4  11  24  45  70  95 128 170 217 268 323 385
#     4  10  18  29  48  76 116 163 210 258 309 369
#
# _framework density 22.076076
#
# number of rings (size 3 to 8) (size 9 to 14) (size 15 to 20)
#    0.000    1.250    1.250    6.750    0.000    5.000 
#    0.000    1.250    0.000    0.000    0.000    0.000 
#    0.000    0.000    0.000    0.000    0.000    0.000 
#
# Total GULP energy -178634.668609 kJ/mol
# GULP energy per Si atom -5582.333394 kJ/mol
# Density = 2.202583 g / cm^3
# Si number density = 22.076076 Si / 1000 Ang^3
#
#
#
# Elastic Constant Matrix: (Units=GPa)
#
#
# Indices 1 2 3 4 5 6 
#
# 1 69.2370 14.3905 8.7043 0.0000 0.0000 0.0000
# 2 14.3905 83.2811 24.0624 0.0000 0.0000 0.0000
# 3 8.7043 24.0624 104.2749 0.0000 0.0000 0.0000
# 4 0.0000 0.0000 0.0000 14.6152 0.0000 0.0000
# 5 0.0000 0.0000 0.0000 0.0000 17.4769 0.0000
# 6 0.0000 0.0000 0.0000 0.0000 0.0000 32.6952
#
#
#
# Elastic Compliance Matrix: (Units=1/GPa)
#
#
# Indices 1 2 3 4 5 6 
#
# 1 0.015029 -0.002394 -0.000702 0.000000 0.000000 0.000000
# 2 -0.002394 0.013247 -0.002857 0.000000 0.000000 0.000000
# 3 -0.000702 -0.002857 0.010308 0.000000 0.000000 0.000000
# 4 0.000000 0.000000 0.000000 0.068422 0.000000 0.000000
# 5 0.000000 0.000000 0.000000 0.000000 0.057218 0.000000
# 6 0.000000 0.000000 0.000000 0.000000 0.000000 0.030586
#
#
# Mechanical properties :
#
#
# Convention : Reuss Voigt Hill
#
# Bulk Modulus (GPa) = 37.48496 39.01194 38.24845
# Shear Modulus (GPa) = 23.19024 26.93319 25.06172
#
# Velocity S-wave (km/s) = 3.24461 3.49666 3.37299
# Velocity P-wave (km/s) = 5.57256 5.83199 5.70375
#
# Compressibility (1/GPa) = 0.02667737
#
# Stress axis : x y z
#
# Youngs Moduli (GPa) = 66.53803 75.49073 97.01289
#
# Poissons Ratio (x) = 0.18073 0.06811
# Poissons Ratio (y) = 0.15930 0.27716
# Poissons Ratio (z) = 0.04672 0.21567
#
# Static dielectric constant tensor:
#      x y z
#    x 1.647780 0.000000 0.000000 
#    y 0.000000 1.972570 0.000000 
#    z 0.000000 0.000000 1.874020 
# 
# From -- ./inp_files/14555.got.cif
#   From: 2010.05.17/outbox.cif.g08.bks.cpg/sg46_8_cif.got.tgz:14555.got - 2010.06.03 19:58:25.
