data_PCOD9378873
_publ_section_title
;
Structure prediction by ZEFSAII (Michael W. Deem and Ramdas Pophale) SiO2 
 PCOD9378873
Probable space group: I M A 2
;
_chemical_formula_sum "Si O2"
_cell_formula_units_Z 48
_cell_length_a 15.149634
_cell_length_b 16.470615
_cell_length_c 9.520820
_cell_angle_alpha 90.000000
_cell_angle_beta 90.000000
_cell_angle_gamma 90.000000
_cell_volume 2375.671081
_symmetry_space_group_name_H-M "I M A 2"
_symmetry_group_IT_number 46
_symmetry_cell_setting 'orthorhombic'
loop_
_space_group_symop_operation_xyz
x,y,z
-x,-y,z
1/2-x,y,z
1/2+x,-y,z
1/2+x,1/2+y,1/2+z
1/2-x,1/2-y,1/2+z
-x,1/2+y,1/2+z
x,1/2-y,1/2+z
loop_
_atom_site_type_symbol
_atom_site_label
_atom_site_fract_x
_atom_site_fract_y
_atom_site_fract_z
Si Si1 0.347631 0.649367 0.653970
Si Si2 0.354217 0.400888 0.519908
Si Si3 0.973302 0.585091 0.792483
Si Si4 0.560132 0.304007 0.226048
Si Si5 0.851662 0.054838 0.855268
Si Si6 0.554967 0.764809 0.467699
O O1 0.250000 0.628976 0.709753
O O2 0.432179 0.618183 0.739076
O O3 0.362085 0.746438 0.666188
O O4 0.352595 0.608046 0.500305
O O5 0.250000 0.412071 0.546259
O O6 0.412338 0.424802 0.654991
O O7 0.380369 0.464417 0.398049
O O8 0.375209 0.307810 0.480790
O O9 0.924947 0.651748 0.887769
O O10 0.000000 0.500000 0.861134
O O11 0.590920 0.395734 0.244721
O O12 0.525034 0.273603 0.376857
O O13 0.479832 0.288680 0.120409
O O14 0.750000 0.051496 0.808553
#
# Coordination Sequence:
#
# PCOD9378873 Si02
#       6
#     8   8   8   8   8   8
#     4  10  19  33  59  93 126 161 205 264 326 392
#     4  11  23  42  68  96 130 177 229 271 323 401
#     4  11  22  41  66  91 129 168 222 274 324 396
#     4  11  20  39  60  94 131 169 213 270 334 397
#     4  10  20  35  62  95 127 171 221 270 327 396
#     4  11  23  41  63  94 129 171 220 264 338 385
#
# _framework density 20.204819000000001
#
# number of rings (size 3 to 8) (size 9 to 14) (size 15 to 20)
#    0.000    1.333    6.667    0.500    0.000    0.667 
#    3.000    0.833    0.000    0.000    0.000    0.000 
#    0.000    0.000    0.000    0.000    0.000    0.000 
#
# Total GULP energy -133830.345860 kJ/mol
# GULP energy per Si atom -5576.264411 kJ/mol
# Density = 2.015883 g / cm^3
# Si number density = 20.204819 Si / 1000 Ang^3
#
#
#
# Elastic Constant Matrix: (Units=GPa)
#
#
# Indices 1 2 3 4 5 6 
#
# 1 71.9002 28.8567 13.9922 0.0000 0.0000 0.0000
# 2 28.8567 140.3234 26.1326 0.0000 0.0000 0.0000
# 3 13.9922 26.1326 35.6971 0.0000 0.0000 0.0000
# 4 0.0000 0.0000 0.0000 34.0190 0.0000 0.0000
# 5 0.0000 0.0000 0.0000 0.0000 11.9205 0.0000
# 6 0.0000 0.0000 0.0000 0.0000 0.0000 24.8607
#
#
#
# Elastic Compliance Matrix: (Units=1/GPa)
#
#
# Indices 1 2 3 4 5 6 
#
# 1 0.015734 -0.002417 -0.004398 0.000000 0.000000 0.000000
# 2 -0.002417 0.008622 -0.005365 0.000000 0.000000 0.000000
# 3 -0.004398 -0.005365 0.033665 0.000000 0.000000 0.000000
# 4 0.000000 0.000000 0.000000 0.029395 0.000000 0.000000
# 5 0.000000 0.000000 0.000000 0.000000 0.083889 0.000000
# 6 0.000000 0.000000 0.000000 0.000000 0.000000 0.040224
#
#
# Mechanical properties :
#
#
# Convention : Reuss Voigt Hill
#
# Bulk Modulus (GPa) = 29.70711 42.87596 36.29154
# Shear Modulus (GPa) = 20.23390 26.08931 23.16160
#
# Velocity S-wave (km/s) = 3.16799 3.59728 3.38944
# Velocity P-wave (km/s) = 5.30249 6.20650 5.77222
#
# Compressibility (1/GPa) = 0.03366197
#
# Stress axis : x y z
#
# Youngs Moduli (GPa) = 63.55692 115.97601 29.70440
#
# Poissons Ratio (x) = 0.28026 0.13065
# Poissons Ratio (y) = 0.15359 0.15936
# Poissons Ratio (z) = 0.27954 0.62221
#
# Static dielectric constant tensor:
#      x y z
#    x 1.695830 0.000000 0.000000 
#    y 0.000000 1.798120 0.000000 
#    z 0.000000 0.000000 1.713830 
# 
# From -- ./inp_files/5685.got.cif
#   From: 2010.05.17/outbox.cif.g08.bks.cpg/sg46_3_cif.got.tgz:5685.got - 2010.06.03 19:58:25.
