data_PCOD9378784
_publ_section_title
;
Structure prediction by ZEFSAII (Michael W. Deem and Ramdas Pophale) SiO2 
 PCOD9378784
Probable space group: I M A 2
;
_chemical_formula_sum "Si O2"
_cell_formula_units_Z 48
_cell_length_a 8.426740
_cell_length_b 9.260088
_cell_length_c 32.911238
_cell_angle_alpha 90.000000
_cell_angle_beta 90.000000
_cell_angle_gamma 90.000000
_cell_volume 2568.141373
_symmetry_space_group_name_H-M "I M A 2"
_symmetry_group_IT_number 46
_symmetry_cell_setting 'orthorhombic'
loop_
_space_group_symop_operation_xyz
x,y,z
-x,-y,z
1/2-x,y,z
1/2+x,-y,z
1/2+x,1/2+y,1/2+z
1/2-x,1/2-y,1/2+z
-x,1/2+y,1/2+z
x,1/2-y,1/2+z
loop_
_atom_site_type_symbol
_atom_site_label
_atom_site_fract_x
_atom_site_fract_y
_atom_site_fract_z
Si Si1 0.559824 0.162960 0.631340
Si Si2 0.057898 0.665034 0.710639
Si Si3 0.558370 0.334142 0.886493
Si Si4 0.058237 0.833967 0.299289
Si Si5 0.559063 0.334616 0.975417
Si Si6 0.561435 0.663048 0.553359
O O1 0.750000 0.162707 0.631822
O O2 0.502275 0.240701 0.672648
O O3 0.503740 0.250889 0.592138
O O4 0.500000 0.000000 0.629266
O O5 0.250000 0.662936 0.710087
O O6 0.006418 0.723796 0.755187
O O7 0.000000 0.500000 0.706571
O O8 0.500000 0.500000 0.886330
O O9 0.750000 0.333522 0.886470
O O10 0.505056 0.269707 0.842907
O O11 0.507968 0.276439 0.930651
O O12 0.250000 0.832789 0.299404
O O13 0.000000 0.000000 0.299341
O O14 0.500000 0.500000 0.979078
O O15 0.750000 0.335057 0.977166
O O16 0.493594 0.241327 0.012225
O O17 0.500000 0.500000 0.554236
O O18 0.750000 0.663322 0.555115
#
# Coordination Sequence:
#
# PCOD9378784 Si02
#       6
#     8   8   8   8   8   8
#     4  11  23  39  57  79 105 137 174 215 260 310
#     4   9  18  31  51  77 106 137 172 212 257 304
#     4   8  14  24  43  70 102 136 171 209 251 295
#     4   8  13  24  42  69 101 134 169 208 250 295
#     4  10  19  33  53  80 110 142 177 216 259 306
#     4  12  25  41  59  79 103 134 170 214 262 314
#
# _framework density 18.690560000000001
#
# number of rings (size 3 to 8) (size 9 to 14) (size 15 to 20)
#    0.000    2.333    0.000    3.500    0.000    3.333 
#    0.000    0.000    0.000    1.000    0.000    2.333 
#    0.000    0.000    0.000    0.000    0.000    0.000 
#
# Total GULP energy -133750.712449 kJ/mol
# GULP energy per Si atom -5572.946352 kJ/mol
# Density = 1.864802 g / cm^3
# Si number density = 18.690560 Si / 1000 Ang^3
#
#
#
# Elastic Constant Matrix: (Units=GPa)
#
#
# Indices 1 2 3 4 5 6 
#
# 1 46.5671 19.6242 37.2750 0.0000 0.0000 0.0000
# 2 19.6242 84.5244 86.9682 0.0000 0.0000 0.0000
# 3 37.2750 86.9682 250.7590 0.0000 0.0000 0.0000
# 4 0.0000 0.0000 0.0000 56.4160 0.0000 0.0000
# 5 0.0000 0.0000 0.0000 0.0000 24.5379 0.0000
# 6 0.0000 0.0000 0.0000 0.0000 0.0000 23.3556
#
#
#
# Elastic Compliance Matrix: (Units=1/GPa)
#
#
# Indices 1 2 3 4 5 6 
#
# 1 0.024875 -0.003064 -0.002635 0.000000 0.000000 0.000000
# 2 -0.003064 0.018773 -0.006055 0.000000 0.000000 0.000000
# 3 -0.002635 -0.006055 0.006480 0.000000 0.000000 0.000000
# 4 0.000000 0.000000 0.000000 0.017725 0.000000 0.000000
# 5 0.000000 0.000000 0.000000 0.000000 0.040753 0.000000
# 6 0.000000 0.000000 0.000000 0.000000 0.000000 0.042816
#
#
# Mechanical properties :
#
#
# Convention : Reuss Voigt Hill
#
# Bulk Modulus (GPa) = 37.56785 74.39835 55.98310
# Shear Modulus (GPa) = 27.20298 36.72746 31.96522
#
# Velocity S-wave (km/s) = 3.81916 4.43767 4.13998
# Velocity P-wave (km/s) = 6.29218 8.13320 7.27119
#
# Compressibility (1/GPa) = 0.02661851
#
# Stress axis : x y z
#
# Youngs Moduli (GPa) = 40.20131 53.26908 154.32950
#
# Poissons Ratio (x) = 0.16322 0.40664
# Poissons Ratio (y) = 0.12318 0.93450
# Poissons Ratio (z) = 0.10593 0.32256
#
# Static dielectric constant tensor:
#      x y z
#    x 1.627910 0.000000 0.000000 
#    y 0.000000 1.591120 0.000000 
#    z 0.000000 0.000000 1.724740 
# 
# From -- ./inp_files/24981.got.cif
#   From: 2010.05.17/outbox.cif.g08.bks.cpg/sg46_13_cif.got.tgz:24981.got - 2010.06.03 19:58:25.
