data_PCOD9378281
_publ_section_title
;
Structure prediction by ZEFSAII (Michael W. Deem and Ramdas Pophale) SiO2 
 PCOD9378281
Probable space group: I M A 2
;
_chemical_formula_sum "Si O2"
_cell_formula_units_Z 64
_cell_length_a 8.744244
_cell_length_b 34.404019
_cell_length_c 12.062219
_cell_angle_alpha 90.000000
_cell_angle_beta 90.000000
_cell_angle_gamma 90.000000
_cell_volume 3628.763426
_symmetry_space_group_name_H-M "I M A 2"
_symmetry_group_IT_number 46
_symmetry_cell_setting 'orthorhombic'
loop_
_space_group_symop_operation_xyz
x,y,z
-x,-y,z
1/2-x,y,z
1/2+x,-y,z
1/2+x,1/2+y,1/2+z
1/2-x,1/2-y,1/2+z
-x,1/2+y,1/2+z
x,1/2-y,1/2+z
loop_
_atom_site_type_symbol
_atom_site_label
_atom_site_fract_x
_atom_site_fract_y
_atom_site_fract_z
Si Si1 0.066233 0.041513 0.556530
Si Si2 0.070117 0.539684 0.302615
Si Si3 0.567574 0.684282 0.792660
Si Si4 0.429091 0.327197 0.199058
Si Si5 0.573606 0.887586 0.903069
Si Si6 0.931565 0.264277 0.354251
Si Si7 0.063886 0.126115 0.481483
Si Si8 0.568036 0.176210 0.051067
O O1 0.250000 0.039429 0.554363
O O2 0.016026 0.081164 0.494910
O O3 0.011317 0.046119 0.683746
O O4 0.000000 0.000000 0.516726
O O5 0.250000 0.535649 0.284199
O O6 0.000000 0.500000 0.348725
O O7 0.030833 0.575517 0.380571
O O8 0.750000 0.682753 0.777925
O O9 0.521377 0.724067 0.853317
O O10 0.519439 0.647843 0.868925
O O11 0.486493 0.684804 0.674213
O O12 0.250000 0.316382 0.185294
O O13 0.436867 0.360083 0.294421
O O14 0.519519 0.290584 0.248513
O O15 0.486009 0.347296 0.086125
O O16 0.750000 0.899265 0.915764
O O17 0.516982 0.861664 0.004503
O O18 0.750000 0.257379 0.350449
O O19 0.968190 0.289217 0.464286
O O20 0.250000 0.125864 0.486810
O O21 0.750000 0.170456 0.046973
#
# Coordination Sequence:
#
# PCOD9378281 Si02
#       8
#     8   8   8   8   8   8   8   8
#     4  10  18  33  53  79 114 148 183 230 282 337
#     4  11  20  30  48  79 115 148 181 221 273 331
#     4  11  23  38  58  81 105 144 191 230 273 328
#     4   9  17  33  55  79 106 141 180 219 269 330
#     4  10  18  33  57  80 106 142 181 224 273 326
#     4  10  22  38  55  79 109 141 177 228 282 325
#     4   9  19  35  55  81 112 144 183 232 276 326
#     4  10  22  40  57  78 110 144 181 226 279 331
#
# _framework density 17.636861
#
# number of rings (size 3 to 8) (size 9 to 14) (size 15 to 20)
#    0.000    2.000    1.250    3.750    1.750    2.000 
#    0.000    3.125    0.000    0.750    0.000    3.500 
#    0.000    0.000    0.000    0.000    0.000    0.000 
#
# Total GULP energy -178604.493919 kJ/mol
# GULP energy per Si atom -5581.390435 kJ/mol
# Density = 1.759672 g / cm^3
# Si number density = 17.636861 Si / 1000 Ang^3
#
#
#
# Elastic Constant Matrix: (Units=GPa)
#
#
# Indices 1 2 3 4 5 6 
#
# 1 45.6270 15.0608 12.4906 0.0001 0.0000 0.0000
# 2 15.0608 88.2153 24.4441 0.0000 0.0000 0.0000
# 3 12.4906 24.4441 68.0228 -0.0005 0.0000 0.0000
# 4 0.0001 0.0000 -0.0005 20.3207 0.0000 0.0000
# 5 0.0000 0.0000 0.0000 0.0000 20.1537 -0.0001
# 6 0.0000 0.0000 0.0000 0.0000 -0.0001 28.2699
#
#
#
# Elastic Compliance Matrix: (Units=1/GPa)
#
#
# Indices 1 2 3 4 5 6 
#
# 1 0.023851 -0.003175 -0.003239 0.000000 0.000000 0.000000
# 2 -0.003175 0.013012 -0.004093 0.000000 0.000000 0.000000
# 3 -0.003239 -0.004093 0.016767 0.000000 0.000000 0.000000
# 4 0.000000 0.000000 0.000000 0.049211 0.000000 0.000000
# 5 0.000000 0.000000 0.000000 0.000000 0.049619 0.000000
# 6 0.000000 0.000000 0.000000 0.000000 0.000000 0.035373
#
#
# Mechanical properties :
#
#
# Convention : Reuss Voigt Hill
#
# Bulk Modulus (GPa) = 30.65884 33.98402 32.32143
# Shear Modulus (GPa) = 22.75645 23.74018 23.24832
#
# Velocity S-wave (km/s) = 3.59594 3.67284 3.63459
# Velocity P-wave (km/s) = 5.88746 6.10712 5.99830
#
# Compressibility (1/GPa) = 0.03261702
#
# Stress axis : x y z
#
# Youngs Moduli (GPa) = 41.92625 76.85190 59.64274
#
# Poissons Ratio (x) = 0.24397 0.19318
# Poissons Ratio (y) = 0.13310 0.24412
# Poissons Ratio (z) = 0.13579 0.31455
#
# Static dielectric constant tensor:
#      x y z
#    x 1.590040 0.000000 0.000000 
#    y 0.000000 1.612730 0.000000 
#    z 0.000000 0.000000 1.580020 
# 
# From -- ./inp_files/9813.got.cif
#   From: 2010.05.17/outbox.cif.g08.bks.cpg/sg46_5_cif.got.tgz:9813.got - 2010.06.03 19:58:25.
