data_PCOD9378917
_publ_section_title
;
Structure prediction by ZEFSAII (Michael W. Deem and Ramdas Pophale) SiO2 
 PCOD9378917
Probable space group: I M A 2
;
_chemical_formula_sum "Si O2"
_cell_formula_units_Z 48
_cell_length_a 8.515611
_cell_length_b 9.632048
_cell_length_c 32.292788
_cell_angle_alpha 90.000000
_cell_angle_beta 90.000000
_cell_angle_gamma 90.000000
_cell_volume 2648.744049
_symmetry_space_group_name_H-M "I M A 2"
_symmetry_group_IT_number 46
_symmetry_cell_setting 'orthorhombic'
loop_
_space_group_symop_operation_xyz
x,y,z
-x,-y,z
1/2-x,y,z
1/2+x,-y,z
1/2+x,1/2+y,1/2+z
1/2-x,1/2-y,1/2+z
-x,1/2+y,1/2+z
x,1/2-y,1/2+z
loop_
_atom_site_type_symbol
_atom_site_label
_atom_site_fract_x
_atom_site_fract_y
_atom_site_fract_z
Si Si1 0.560860 0.342120 0.270880
Si Si2 0.061323 0.656159 0.511210
Si Si3 0.939097 0.158484 0.861907
Si Si4 0.060489 0.654750 0.605213
Si Si5 0.559860 0.342694 0.180921
Si Si6 0.063091 0.343445 0.937157
O O1 0.500000 0.500000 0.270453
O O2 0.750000 0.342750 0.271024
O O3 0.511723 0.287148 0.315977
O O4 0.510821 0.282787 0.226180
O O5 0.250000 0.654482 0.508884
O O6 0.013329 0.694201 0.558335
O O7 0.000000 0.500000 0.502943
O O8 0.995787 0.762895 0.477903
O O9 0.750000 0.155321 0.864016
O O10 0.003464 0.255837 0.897802
O O11 0.000000 0.000000 0.866568
O O12 0.250000 0.653729 0.605996
O O13 0.003881 0.755004 0.641665
O O14 0.000000 0.500000 0.612669
O O15 0.500000 0.500000 0.178052
O O16 0.750000 0.344819 0.180100
O O17 0.250000 0.346022 0.936985
O O18 0.000000 0.500000 0.936084
#
# Coordination Sequence:
#
# PCOD9378917 Si02
#       6
#     8   8   8   8   8   8
#     4   8  15  28  49  74 103 135 171 212 252 294
#     4  10  20  37  58  80 104 136 176 217 257 306
#     4  10  19  34  56  81 106 138 177 217 257 305
#     4   9  19  34  53  76 105 137 172 211 253 300
#     4   9  17  31  50  76 106 137 172 212 254 300
#     4  12  25  40  56  77 105 137 170 213 264 315
#
# _framework density 18.121797000000001
#
# number of rings (size 3 to 8) (size 9 to 14) (size 15 to 20)
#    0.000    2.333    0.000    3.000    0.000    2.667 
#    0.000    2.500    0.000    2.000    0.000    0.000 
#    0.000    0.000    0.000    0.000    0.000    0.000 
#
# Total GULP energy -133807.119769 kJ/mol
# GULP energy per Si atom -5575.296657 kJ/mol
# Density = 1.808055 g / cm^3
# Si number density = 18.121797 Si / 1000 Ang^3
#
#
#
# Elastic Constant Matrix: (Units=GPa)
#
#
# Indices 1 2 3 4 5 6 
#
# 1 53.8518 31.9169 47.7472 0.0000 0.0000 0.0000
# 2 31.9169 96.1569 112.9844 0.0000 0.0000 0.0000
# 3 47.7472 112.9844 212.8833 0.0000 0.0000 0.0000
# 4 0.0000 0.0000 0.0000 28.7530 0.0000 0.0000
# 5 0.0000 0.0000 0.0000 0.0000 27.7140 0.0000
# 6 0.0000 0.0000 0.0000 0.0000 0.0000 28.1067
#
#
#
# Elastic Compliance Matrix: (Units=1/GPa)
#
#
# Indices 1 2 3 4 5 6 
#
# 1 0.023839 -0.004331 -0.003048 0.000000 0.000000 0.000000
# 2 -0.004331 0.028417 -0.014111 0.000000 0.000000 0.000000
# 3 -0.003048 -0.014111 0.012870 0.000000 0.000000 0.000000
# 4 0.000000 0.000000 0.000000 0.034779 0.000000 0.000000
# 5 0.000000 0.000000 0.000000 0.000000 0.036083 0.000000
# 6 0.000000 0.000000 0.000000 0.000000 0.000000 0.035579
#
#
# Mechanical properties :
#
#
# Convention : Reuss Voigt Hill
#
# Bulk Modulus (GPa) = 45.15387 83.13209 64.14298
# Shear Modulus (GPa) = 22.52975 28.26430 25.39703
#
# Velocity S-wave (km/s) = 3.52979 3.95357 3.74767
# Velocity P-wave (km/s) = 6.44853 8.17402 7.36200
#
# Compressibility (1/GPa) = 0.02214650
#
# Stress axis : x y z
#
# Youngs Moduli (GPa) = 41.94793 35.18992 77.70018
#
# Poissons Ratio (x) = 0.15242 0.23683
# Poissons Ratio (y) = 0.18169 1.09639
# Poissons Ratio (z) = 0.12786 0.49655
#
# Static dielectric constant tensor:
#      x y z
#    x 1.607310 0.000000 0.000000 
#    y 0.000000 1.569420 0.000000 
#    z 0.000000 0.000000 1.676470 
# 
# From -- ./inp_files/24976.got.cif
#   From: 2010.05.17/outbox.cif.g08.bks.cpg/sg46_13_cif.got.tgz:24976.got - 2010.06.03 19:58:25.
