data_PCOD9378138
_publ_section_title
;
Structure prediction by ZEFSAII (Michael W. Deem and Ramdas Pophale) SiO2 
 PCOD9378138
Probable space group: I M A 2
;
_chemical_formula_sum "Si O2"
_cell_formula_units_Z 64
_cell_length_a 8.510825
_cell_length_b 20.347516
_cell_length_c 21.229028
_cell_angle_alpha 90.000000
_cell_angle_beta 90.000000
_cell_angle_gamma 90.000000
_cell_volume 3676.318834
_symmetry_space_group_name_H-M "I M A 2"
_symmetry_group_IT_number 46
_symmetry_cell_setting 'orthorhombic'
loop_
_space_group_symop_operation_xyz
x,y,z
-x,-y,z
1/2-x,y,z
1/2+x,-y,z
1/2+x,1/2+y,1/2+z
1/2-x,1/2-y,1/2+z
-x,1/2+y,1/2+z
x,1/2-y,1/2+z
loop_
_atom_site_type_symbol
_atom_site_label
_atom_site_fract_x
_atom_site_fract_y
_atom_site_fract_z
Si Si1 0.060785 0.929844 0.030140
Si Si2 0.941340 0.208964 0.600942
Si Si3 0.939991 0.290268 0.479411
Si Si4 0.062163 0.290151 0.343971
Si Si5 0.938342 0.569981 0.292966
Si Si6 0.940236 0.290189 0.725183
Si Si7 0.438619 0.930231 0.649742
Si Si8 0.060825 0.929820 0.177079
O O1 0.250000 0.930969 0.029013
O O2 0.007130 0.865191 0.993301
O O3 0.011628 0.922754 0.103630
O O4 0.000000 0.000000 0.006542
O O5 0.750000 0.210345 0.600352
O O6 0.993818 0.244401 0.537164
O O7 0.989699 0.249774 0.662848
O O8 0.989328 0.133455 0.610291
O O9 0.750000 0.290159 0.479658
O O10 0.999007 0.268571 0.411552
O O11 0.250000 0.290136 0.344464
O O12 0.008442 0.365300 0.330192
O O13 0.003886 0.244619 0.287193
O O14 0.750000 0.567937 0.292114
O O15 0.000000 0.500000 0.317578
O O16 0.998533 0.576960 0.221125
O O17 0.750000 0.288600 0.727203
O O18 0.990647 0.365681 0.715387
O O19 0.250000 0.931731 0.652532
O O20 0.500000 0.000000 0.625219
O O21 0.250000 0.930744 0.177352
O O22 0.000000 0.000000 0.200279
#
# Coordination Sequence:
#
# PCOD9378138 Si02
#       8
#     8   8   8   8   8   8   8   8
#     4   9  17  30  49  74 104 136 170 209 250 301
#     4   9  17  32  56  80 100 130 176 219 252 300
#     4  10  20  36  55  74 100 139 181 215 252 306
#     4  11  24  37  49  75 110 139 173 220 267 308
#     4  10  20  33  49  71 103 139 176 212 252 305
#     4  10  18  34  58  79 101 137 179 215 256 310
#     4  10  18  30  52  79 106 132 165 212 261 307
#     4   9  17  30  52  80 108 134 168 213 258 306
#
# _framework density 17.408718
#
# number of rings (size 3 to 8) (size 9 to 14) (size 15 to 20)
#    0.000    2.250    2.500    1.875    0.000    3.000 
#    0.000    4.375    0.000    0.750    0.000    1.750 
#    0.000    0.000    0.000    0.000    0.000    0.000 
#
# Total GULP energy -178530.437340 kJ/mol
# GULP energy per Si atom -5579.076167 kJ/mol
# Density = 1.736910 g / cm^3
# Si number density = 17.408718 Si / 1000 Ang^3
#
#
#
# Elastic Constant Matrix: (Units=GPa)
#
#
# Indices 1 2 3 4 5 6 
#
# 1 17.8459 20.2135 15.6403 0.0000 0.0000 0.0000
# 2 20.2135 139.3334 73.0384 0.0000 0.0000 0.0000
# 3 15.6403 73.0384 117.6530 0.0000 0.0000 0.0000
# 4 0.0000 0.0000 0.0000 22.2397 0.0000 0.0000
# 5 0.0000 0.0000 0.0000 0.0000 14.3075 0.0000
# 6 0.0000 0.0000 0.0000 0.0000 0.0000 25.0959
#
#
#
# Elastic Compliance Matrix: (Units=1/GPa)
#
#
# Indices 1 2 3 4 5 6 
#
# 1 0.068527 -0.007658 -0.004355 0.000000 0.000000 0.000000
# 2 -0.007658 0.011495 -0.006118 0.000000 0.000000 0.000000
# 3 -0.004355 -0.006118 0.012877 0.000000 0.000000 0.000000
# 4 0.000000 0.000000 0.000000 0.044965 0.000000 0.000000
# 5 0.000000 0.000000 0.000000 0.000000 0.069893 0.000000
# 6 0.000000 0.000000 0.000000 0.000000 0.000000 0.039847
#
#
# Mechanical properties :
#
#
# Convention : Reuss Voigt Hill
#
# Bulk Modulus (GPa) = 17.65694 54.73518 36.19606
# Shear Modulus (GPa) = 16.51552 23.39129 19.95340
#
# Velocity S-wave (km/s) = 3.08343 3.66956 3.38919
# Velocity P-wave (km/s) = 4.77926 7.03305 6.01270
#
# Compressibility (1/GPa) = 0.05663495
#
# Stress axis : x y z
#
# Youngs Moduli (GPa) = 14.59285 86.99349 77.66011
#
# Poissons Ratio (x) = 0.66622 0.33824
# Poissons Ratio (y) = 0.11176 0.47513
# Poissons Ratio (z) = 0.06356 0.53223
#
# Static dielectric constant tensor:
#      x y z
#    x 1.597510 0.000000 0.000000 
#    y 0.000000 1.609780 0.000000 
#    z 0.000000 0.000000 1.568480 
# 
# From -- ./inp_files/18589.got.cif
#   From: 2010.05.17/outbox.cif.g08.bks.cpg/sg46_10_cif.got.tgz:18589.got - 2010.06.03 19:58:25.
