data_PCOD9378275
_publ_section_title
;
Structure prediction by ZEFSAII (Michael W. Deem and Ramdas Pophale) SiO2 
 PCOD9378275
Probable space group: I M A 2
;
_chemical_formula_sum "Si O2"
_cell_formula_units_Z 64
_cell_length_a 8.166413
_cell_length_b 31.054093
_cell_length_c 15.156043
_cell_angle_alpha 90.000000
_cell_angle_beta 90.000000
_cell_angle_gamma 90.000000
_cell_volume 3843.580822
_symmetry_space_group_name_H-M "I M A 2"
_symmetry_group_IT_number 46
_symmetry_cell_setting 'orthorhombic'
loop_
_space_group_symop_operation_xyz
x,y,z
-x,-y,z
1/2-x,y,z
1/2+x,-y,z
1/2+x,1/2+y,1/2+z
1/2-x,1/2-y,1/2+z
-x,1/2+y,1/2+z
x,1/2-y,1/2+z
loop_
_atom_site_type_symbol
_atom_site_label
_atom_site_fract_x
_atom_site_fract_y
_atom_site_fract_z
Si Si1 0.060576 0.279103 0.502320
Si Si2 0.562354 0.313556 0.006365
Si Si3 0.556364 0.862611 0.673820
Si Si4 0.443519 0.548200 0.123889
Si Si5 0.549389 0.701758 0.693273
Si Si6 0.551733 0.634583 0.836194
Si Si7 0.053953 0.452494 0.920922
Si Si8 0.449595 0.213172 0.803737
O O1 0.250000 0.293077 0.497905
O O2 0.988740 0.298399 0.592502
O O3 0.989079 0.286570 0.404678
O O4 0.050993 0.227902 0.517671
O O5 0.750000 0.299116 0.003236
O O6 0.514269 0.337451 0.917224
O O7 0.535934 0.345438 0.087591
O O8 0.750000 0.856754 0.659171
O O9 0.520947 0.913229 0.680398
O O10 0.507947 0.830894 0.753357
O O11 0.500000 0.500000 0.147415
O O12 0.250000 0.550652 0.131751
O O13 0.489892 0.554833 0.020556
O O14 0.750000 0.703538 0.690614
O O15 0.501413 0.659369 0.747765
O O16 0.497158 0.744814 0.747245
O O17 0.750000 0.635598 0.839272
O O18 0.499413 0.585693 0.855948
O O19 0.250000 0.451597 0.926618
O O20 0.000000 0.500000 0.892834
O O21 0.250000 0.216024 0.807133
#
# Coordination Sequence:
#
# PCOD9378275 Si02
#       8
#     8   8   8   8   8   8   8   8
#     4  10  18  33  51  67  94 128 165 204 240 281
#     4  12  22  29  43  69  98 129 163 199 240 284
#     4  11  20  33  49  69  96 130 167 200 238 285
#     4  11  21  33  49  72  99 127 159 194 240 289
#     4   9  16  28  49  73  92 121 164 205 235 278
#     4  10  19  32  49  68  93 128 166 196 236 281
#     4  10  19  30  47  68  95 128 158 196 238 284
#     4   9  17  28  49  74  92 123 164 202 240 281
#
# _framework density 16.651139000000001
#
# number of rings (size 3 to 8) (size 9 to 14) (size 15 to 20)
#    0.000    1.750    3.750    3.750    0.000    0.500 
#    0.000    3.125    0.000    0.000    0.000    0.875 
#    0.000    2.000    0.000    0.000    0.000    0.500 
#
# Total GULP energy -178478.541614 kJ/mol
# GULP energy per Si atom -5577.454425 kJ/mol
# Density = 1.661324 g / cm^3
# Si number density = 16.651139 Si / 1000 Ang^3
#
#
#
# Elastic Constant Matrix: (Units=GPa)
#
#
# Indices 1 2 3 4 5 6 
#
# 1 21.0105 6.9770 5.4780 0.0000 0.0000 0.0000
# 2 6.9770 83.2829 22.6311 0.0000 0.0000 0.0000
# 3 5.4780 22.6311 73.4438 -0.0001 -0.0001 0.0000
# 4 0.0000 0.0000 -0.0001 22.4160 0.0000 0.0000
# 5 0.0000 0.0000 -0.0001 0.0000 -2.4471 0.0000
# 6 0.0000 0.0000 0.0000 0.0000 0.0000 17.3662
#
#
#
# Elastic Compliance Matrix: (Units=1/GPa)
#
#
# Indices 1 2 3 4 5 6 
#
# 1 0.049419 -0.003425 -0.002631 0.000000 0.000000 0.000000
# 2 -0.003425 0.013342 -0.003856 0.000000 0.000000 0.000000
# 3 -0.002631 -0.003856 0.015000 0.000000 0.000000 0.000000
# 4 0.000000 0.000000 0.000000 0.044611 0.000000 0.000000
# 5 0.000000 0.000000 0.000000 0.000000 -0.408644 0.000000
# 6 0.000000 0.000000 0.000000 0.000000 0.000000 0.057583
#
#
# Mechanical properties :
#
#
# Convention : Reuss Voigt Hill
#
# Bulk Modulus (GPa) = 17.25995 27.54550 22.40272
# Shear Modulus (GPa) = -26.37778 16.97709 -4.70035
#
# Velocity S-wave (km/s) = -3.98445 3.19654 -1.68195
# Velocity P-wave (km/s) = 3.28323 5.49568 3.11632
#
# Compressibility (1/GPa) = 0.05793761
#
# Stress axis : x y z
#
# Youngs Moduli (GPa) = 20.23533 74.95149 66.66595
#
# Poissons Ratio (x) = 0.25673 0.17537
# Poissons Ratio (y) = 0.06931 0.25705
# Poissons Ratio (z) = 0.05323 0.28899
#
# Static dielectric constant tensor:
#      x y z
#    x 1.586850 0.000000 0.000000 
#    y 0.000000 1.569590 0.000000 
#    z 0.000000 0.000000 1.564850 
# 
# From -- ./inp_files/14737.got.cif
#   From: 2010.05.17/outbox.cif.g08.bks.cpg/sg46_8_cif.got.tgz:14737.got - 2010.06.03 19:58:25.
