data_PCOD9378044
_publ_section_title
;
Structure prediction by ZEFSAII (Michael W. Deem and Ramdas Pophale) SiO2 
 PCOD9378044
Probable space group: I M A 2
;
_chemical_formula_sum "Si O2"
_cell_formula_units_Z 60
_cell_length_a 13.454641
_cell_length_b 25.066711
_cell_length_c 10.626006
_cell_angle_alpha 90.000000
_cell_angle_beta 90.000000
_cell_angle_gamma 90.000000
_cell_volume 3583.765011
_symmetry_space_group_name_H-M "I M A 2"
_symmetry_group_IT_number 46
_symmetry_cell_setting 'orthorhombic'
loop_
_space_group_symop_operation_xyz
x,y,z
-x,-y,z
1/2-x,y,z
1/2+x,-y,z
1/2+x,1/2+y,1/2+z
1/2-x,1/2-y,1/2+z
-x,1/2+y,1/2+z
x,1/2-y,1/2+z
loop_
_atom_site_type_symbol
_atom_site_label
_atom_site_fract_x
_atom_site_fract_y
_atom_site_fract_z
Si Si1 0.129771 0.293359 0.253200
Si Si2 0.128523 0.278586 0.525461
Si Si3 0.867433 0.587393 0.190266
Si Si4 0.500000 0.000000 0.829585
Si Si5 0.632449 0.490697 0.553941
Si Si6 0.134862 0.959708 0.335303
Si Si7 0.930263 0.579267 0.907601
Si Si8 0.630702 0.889967 0.141366
O O1 0.250000 0.289774 0.249578
O O2 0.095941 0.267305 0.383540
O O3 0.093181 0.263184 0.129520
O O4 0.108022 0.356128 0.253934
O O5 0.250000 0.277968 0.525784
O O6 0.097294 0.338251 0.565225
O O7 0.750000 0.575609 0.210599
O O8 0.937143 0.541092 0.245457
O O9 0.887684 0.595305 0.041825
O O10 0.422861 0.973122 0.927999
O O11 0.750000 0.490082 0.533491
O O12 0.614085 0.459414 0.684670
O O13 0.602361 0.552500 0.583467
O O14 0.250000 0.945670 0.357211
O O15 0.049662 0.926914 0.405888
O O16 0.116564 0.020958 0.376806
O O17 0.901266 0.613894 0.786698
O O18 0.750000 0.890098 0.139974
#
# Coordination Sequence:
#
# PCOD9378044 Si02
#       8
#     8   8   8   4   8   8   8   8
#     4   9  19  32  46  66  96 129 164 199 240 290
#     4   9  17  29  46  67  92 128 163 197 239 289
#     4  11  23  34  45  66 100 136 169 204 242 288
#     4  12  20  30  46  62  92 136 170 198 236 290
#     4   9  17  29  46  68  93 124 162 201 243 288
#     4   9  17  30  46  68  96 122 158 207 247 292
#     4  10  18  29  46  67  91 130 166 195 245 294
#     4   9  16  27  47  70  94 123 162 202 240 289
#
# _framework density 16.742167999999999
#
# number of rings (size 3 to 8) (size 9 to 14) (size 15 to 20)
#    0.000    2.400    0.000    5.600    1.867    2.133 
#    0.000    0.667    0.000    0.000    0.000    0.000 
#    0.000    3.200    0.000    0.000    0.000    0.133 
#
# Total GULP energy -167197.414177 kJ/mol
# GULP energy per Si atom -5573.247139 kJ/mol
# Density = 1.670406 g / cm^3
# Si number density = 16.742168 Si / 1000 Ang^3
#
#
#
# Elastic Constant Matrix: (Units=GPa)
#
#
# Indices 1 2 3 4 5 6 
#
# 1 63.4797 14.6409 14.9237 0.0001 0.0000 0.0000
# 2 14.6409 40.8523 30.9012 0.0002 0.0000 0.0000
# 3 14.9237 30.9012 101.5612 0.0005 -0.0001 -0.0001
# 4 0.0001 0.0002 0.0005 20.3036 0.0000 -0.0001
# 5 0.0000 0.0000 -0.0001 0.0000 24.2532 0.0000
# 6 0.0000 0.0000 -0.0001 -0.0001 0.0000 8.2059
#
#
#
# Elastic Compliance Matrix: (Units=1/GPa)
#
#
# Indices 1 2 3 4 5 6 
#
# 1 0.017229 -0.005533 -0.000848 0.000000 0.000000 0.000000
# 2 -0.005533 0.033573 -0.009402 0.000000 0.000000 0.000000
# 3 -0.000848 -0.009402 0.012832 0.000000 0.000000 0.000000
# 4 0.000000 0.000000 0.000000 0.049252 0.000000 0.000000
# 5 0.000000 0.000000 0.000000 0.000000 0.041232 0.000000
# 6 0.000000 0.000000 0.000000 0.000000 0.000000 0.121863
#
#
# Mechanical properties :
#
#
# Convention : Reuss Voigt Hill
#
# Bulk Modulus (GPa) = 31.18458 36.31386 33.74922
# Shear Modulus (GPa) = 15.71164 20.24771 17.97967
#
# Velocity S-wave (km/s) = 3.06673 3.48139 3.28062
# Velocity P-wave (km/s) = 5.58629 6.15608 5.87809
#
# Compressibility (1/GPa) = 0.03206713
#
# Stress axis : x y z
#
# Youngs Moduli (GPa) = 58.04314 29.78576 77.93271
#
# Poissons Ratio (x) = 0.16480 0.06610
# Poissons Ratio (y) = 0.32115 0.73272
# Poissons Ratio (z) = 0.04923 0.28005
#
# Static dielectric constant tensor:
#      x y z
#    x 1.563740 0.000000 0.000000 
#    y 0.000000 1.575340 0.000000 
#    z 0.000000 0.000000 1.610440 
# 
# From -- ./inp_files/6036.got.cif
#   From: 2010.05.17/outbox.cif.g08.bks.cpg/sg46_4_cif.got.tgz:6036.got - 2010.06.03 19:58:25.
