data_PCOD9378427
_publ_section_title
;
Structure prediction by ZEFSAII (Michael W. Deem and Ramdas Pophale) SiO2 
 PCOD9378427
Probable space group: I M A 2
;
_chemical_formula_sum "Si O2"
_cell_formula_units_Z 64
_cell_length_a 8.734632
_cell_length_b 19.283856
_cell_length_c 21.968597
_cell_angle_alpha 90.000000
_cell_angle_beta 90.000000
_cell_angle_gamma 90.000000
_cell_volume 3700.333046
_symmetry_space_group_name_H-M "I M A 2"
_symmetry_group_IT_number 46
_symmetry_cell_setting 'orthorhombic'
loop_
_space_group_symop_operation_xyz
x,y,z
-x,-y,z
1/2-x,y,z
1/2+x,-y,z
1/2+x,1/2+y,1/2+z
1/2-x,1/2-y,1/2+z
-x,1/2+y,1/2+z
x,1/2-y,1/2+z
loop_
_atom_site_type_symbol
_atom_site_label
_atom_site_fract_x
_atom_site_fract_y
_atom_site_fract_z
Si Si1 0.572906 0.571817 0.384330
Si Si2 0.574851 0.926970 0.737543
Si Si3 0.436893 0.718608 0.877568
Si Si4 0.934533 0.368169 0.695060
Si Si5 0.068587 0.424319 0.570209
Si Si6 0.566108 0.073518 0.326941
Si Si7 0.429214 0.823814 0.970481
Si Si8 0.565803 0.220172 0.747174
O O1 0.500000 0.500000 0.405445
O O2 0.750000 0.580665 0.404474
O O3 0.572781 0.571602 0.311428
O O4 0.460325 0.628424 0.411630
O O5 0.750000 0.925420 0.717109
O O6 0.495550 0.853388 0.723627
O O7 0.500000 0.000000 0.717475
O O8 0.250000 0.721599 0.876873
O O9 0.483500 0.639296 0.867080
O O10 0.485409 0.750983 0.942142
O O11 0.487309 0.760238 0.816280
O O12 0.750000 0.372037 0.688233
O O13 0.976786 0.408041 0.757210
O O14 0.974760 0.287170 0.706229
O O15 0.012513 0.402010 0.637049
O O16 0.250000 0.429922 0.568334
O O17 0.000000 0.500000 0.554816
O O18 0.013778 0.364006 0.524226
O O19 0.750000 0.071010 0.328761
O O20 0.500000 0.000000 0.345281
O O21 0.250000 0.819685 0.985578
O O22 0.750000 0.216373 0.749427
#
# Coordination Sequence:
#
# PCOD9378427 Si02
#       8
#     8   8   8   8   8   8   8   8
#     4  10  19  29  41  62  92 127 164 201 238 283
#     4  10  19  28  42  66  98 132 166 203 244 297
#     4   8  16  30  49  71  97 129 162 199 246 303
#     4   9  19  35  55  76 101 133 172 212 254 302
#     4  12  25  39  53  72 102 136 176 216 252 295
#     4   9  17  31  51  77 104 130 161 200 248 299
#     4  11  20  33  52  69  93 130 171 208 248 297
#     4   9  16  31  52  73  98 129 166 209 256 306
#
# _framework density 17.295741
#
# number of rings (size 3 to 8) (size 9 to 14) (size 15 to 20)
#    0.000    2.250    1.250    4.500    0.000    3.000 
#    0.000    3.125    0.000    0.000    0.000    0.875 
#    0.000    2.000    0.000    0.000    0.000    0.125 
#
# Total GULP energy -178320.249998 kJ/mol
# GULP energy per Si atom -5572.507812 kJ/mol
# Density = 1.725638 g / cm^3
# Si number density = 17.295741 Si / 1000 Ang^3
#
#
#
# Elastic Constant Matrix: (Units=GPa)
#
#
# Indices 1 2 3 4 5 6 
#
# 1 43.7072 28.9387 21.6338 0.0000 0.0000 0.0000
# 2 28.9387 135.4673 35.9719 0.0000 0.0000 0.0000
# 3 21.6338 35.9719 59.9981 0.0000 0.0000 0.0000
# 4 0.0000 0.0000 0.0000 14.3427 0.0000 0.0000
# 5 0.0000 0.0000 0.0000 0.0000 18.5826 0.0000
# 6 0.0000 0.0000 0.0000 0.0000 0.0000 28.2085
#
#
#
# Elastic Compliance Matrix: (Units=1/GPa)
#
#
# Indices 1 2 3 4 5 6 
#
# 1 0.029702 -0.004164 -0.008213 0.000000 0.000000 0.000000
# 2 -0.004164 0.009363 -0.004112 0.000000 0.000000 0.000000
# 3 -0.008213 -0.004112 0.022094 0.000000 0.000000 0.000000
# 4 0.000000 0.000000 0.000000 0.069722 0.000000 0.000000
# 5 0.000000 0.000000 0.000000 0.000000 0.053814 0.000000
# 6 0.000000 0.000000 0.000000 0.000000 0.000000 0.035450
#
#
# Mechanical properties :
#
#
# Convention : Reuss Voigt Hill
#
# Bulk Modulus (GPa) = 35.48581 45.80683 40.64632
# Shear Modulus (GPa) = 19.04630 22.40196 20.72413
#
# Velocity S-wave (km/s) = 3.32205 3.60283 3.46529
# Velocity P-wave (km/s) = 5.93939 6.62187 6.28989
#
# Compressibility (1/GPa) = 0.02818028
#
# Stress axis : x y z
#
# Youngs Moduli (GPa) = 33.66797 106.79909 45.26070
#
# Poissons Ratio (x) = 0.44471 0.37173
# Poissons Ratio (y) = 0.14019 0.18613
# Poissons Ratio (z) = 0.27652 0.43920
#
# Static dielectric constant tensor:
#      x y z
#    x 1.594910 0.000000 0.000000 
#    y 0.000000 1.638320 0.000000 
#    z 0.000000 0.000000 1.587540 
# 
# From -- ./inp_files/21302.got.cif
#   From: 2010.05.17/outbox.cif.g08.bks.cpg/sg46_11_cif.got.tgz:21302.got - 2010.06.03 19:58:25.
