data_PCOD9378872
_publ_section_title
;
Structure prediction by ZEFSAII (Michael W. Deem and Ramdas Pophale) SiO2 
 PCOD9378872
Probable space group: I M A 2
;
_chemical_formula_sum "Si O2"
_cell_formula_units_Z 56
_cell_length_a 16.740439
_cell_length_b 15.577585
_cell_length_c 9.842731
_cell_angle_alpha 90.000000
_cell_angle_beta 90.000000
_cell_angle_gamma 90.000000
_cell_volume 2566.744195
_symmetry_space_group_name_H-M "I M A 2"
_symmetry_group_IT_number 46
_symmetry_cell_setting 'orthorhombic'
loop_
_space_group_symop_operation_xyz
x,y,z
-x,-y,z
1/2-x,y,z
1/2+x,-y,z
1/2+x,1/2+y,1/2+z
1/2-x,1/2-y,1/2+z
-x,1/2+y,1/2+z
x,1/2-y,1/2+z
loop_
_atom_site_type_symbol
_atom_site_label
_atom_site_fract_x
_atom_site_fract_y
_atom_site_fract_z
Si Si1 0.440586 0.088191 0.013980
Si Si2 0.159177 0.394840 0.779321
Si Si3 0.415153 0.217741 0.771277
Si Si4 0.069687 0.810747 0.143678
Si Si5 0.157596 0.421298 0.069137
Si Si6 0.846148 0.220590 0.863822
Si Si7 0.085617 0.961803 0.765896
O O1 0.381288 0.083497 0.138480
O O2 0.526710 0.102338 0.088611
O O3 0.433020 0.171320 0.914338
O O4 0.415911 0.014883 0.906641
O O5 0.250000 0.422414 0.771279
O O6 0.148982 0.292218 0.794383
O O7 0.122114 0.430595 0.918690
O O8 0.492922 0.260711 0.704589
O O9 0.383808 0.150333 0.661488
O O10 0.131395 0.801874 0.268503
O O11 0.115062 0.771097 0.013459
O O12 0.250000 0.396924 0.053202
O O13 0.149174 0.506479 0.157283
O O14 0.750000 0.207985 0.869834
O O15 0.891532 0.136205 0.799519
O O16 0.000000 0.000000 0.709001
#
# Coordination Sequence:
#
# PCOD9378872 Si02
#       7
#     8   8   8   8   8   8   8
#     4  10  21  38  64  90 126 168 218 268 327 399
#     4  10  20  32  53  90 130 165 207 262 325 386
#     4  10  19  33  59  89 122 175 214 265 319 390
#     4  11  21  42  62  95 128 167 226 273 334 394
#     4  10  21  36  57  91 131 166 211 267 330 397
#     4  12  25  42  69  96 131 172 223 286 342 398
#     4  11  22  44  65  91 122 175 225 266 334 411
#
# _framework density 21.817523999999999
#
# number of rings (size 3 to 8) (size 9 to 14) (size 15 to 20)
#    0.000    1.429    2.857    3.857    2.000    4.571 
#    0.000    2.143    0.000    1.714    0.000    0.000 
#    0.000    0.000    0.000    0.000    0.000    0.000 
#
# Total GULP energy -155997.242389 kJ/mol
# GULP energy per Si atom -5571.330085 kJ/mol
# Density = 2.176787 g / cm^3
# Si number density = 21.817524 Si / 1000 Ang^3
#
#
#
# Elastic Constant Matrix: (Units=GPa)
#
#
# Indices 1 2 3 4 5 6 
#
# 1 77.0120 -7.4141 36.7546 0.0000 0.0000 0.0000
# 2 -7.4141 30.8633 22.5102 0.0000 0.0000 0.0000
# 3 36.7546 22.5102 150.7246 0.0000 0.0000 0.0000
# 4 0.0000 0.0000 0.0000 10.3612 0.0000 0.0000
# 5 0.0000 0.0000 0.0000 0.0000 21.3947 0.0000
# 6 0.0000 0.0000 0.0000 0.0000 0.0000 14.4278
#
#
#
# Elastic Compliance Matrix: (Units=1/GPa)
#
#
# Indices 1 2 3 4 5 6 
#
# 1 0.016130 0.007568 -0.005064 0.000000 0.000000 0.000000
# 2 0.007568 0.039913 -0.007806 0.000000 0.000000 0.000000
# 3 -0.005064 -0.007806 0.009035 0.000000 0.000000 0.000000
# 4 0.000000 0.000000 0.000000 0.096514 0.000000 0.000000
# 5 0.000000 0.000000 0.000000 0.000000 0.046741 0.000000
# 6 0.000000 0.000000 0.000000 0.000000 0.000000 0.069310
#
#
# Mechanical properties :
#
#
# Convention : Reuss Voigt Hill
#
# Bulk Modulus (GPa) = 18.35729 40.25570 29.30650
# Shear Modulus (GPa) = 16.31828 23.02002 19.66915
#
# Velocity S-wave (km/s) = 2.73782 3.25178 3.00581
# Velocity P-wave (km/s) = 4.29261 5.70876 5.05056
#
# Compressibility (1/GPa) = 0.05447427
#
# Stress axis : x y z
#
# Youngs Moduli (GPa) = 61.99522 25.05478 110.67748
#
# Poissons Ratio (x) = -0.18962 0.56044
# Poissons Ratio (y) = -0.46919 0.86398
# Poissons Ratio (z) = 0.31392 0.19559
#
# Static dielectric constant tensor:
#      x y z
#    x 1.880750 0.000000 0.000000 
#    y 0.000000 1.880680 0.000000 
#    z 0.000000 0.000000 1.788890 
# 
# From -- ./inp_files/6870.got.cif
#   From: 2010.05.17/outbox.cif.g08.bks.cpg/sg46_4_cif.got.tgz:6870.got - 2010.06.03 19:58:25.
