data_PCOD9378693
_publ_section_title
;
Structure prediction by ZEFSAII (Michael W. Deem and Ramdas Pophale) SiO2 
 PCOD9378693
Probable space group: I M A 2
;
_chemical_formula_sum "Si O2"
_cell_formula_units_Z 64
_cell_length_a 8.700328
_cell_length_b 20.203296
_cell_length_c 21.165240
_cell_angle_alpha 90.000000
_cell_angle_beta 90.000000
_cell_angle_gamma 90.000000
_cell_volume 3720.326450
_symmetry_space_group_name_H-M "I M A 2"
_symmetry_group_IT_number 46
_symmetry_cell_setting 'orthorhombic'
loop_
_space_group_symop_operation_xyz
x,y,z
-x,-y,z
1/2-x,y,z
1/2+x,-y,z
1/2+x,1/2+y,1/2+z
1/2-x,1/2-y,1/2+z
-x,1/2+y,1/2+z
x,1/2-y,1/2+z
loop_
_atom_site_type_symbol
_atom_site_label
_atom_site_fract_x
_atom_site_fract_y
_atom_site_fract_z
Si Si1 0.933811 0.929738 0.976170
Si Si2 0.433892 0.070228 0.213819
Si Si3 0.565427 0.788495 0.408312
Si Si4 0.434271 0.931030 0.834253
Si Si5 0.435019 0.793885 0.165358
Si Si6 0.065828 0.706230 0.524313
Si Si7 0.064737 0.711557 0.287215
Si Si8 0.565395 0.569853 0.861743
O O1 0.750000 0.931083 0.977295
O O2 0.992346 0.922082 0.903814
O O3 0.000000 0.000000 0.999294
O O4 0.997306 0.866842 0.013430
O O5 0.250000 0.068840 0.210424
O O6 0.497450 0.133487 0.177579
O O7 0.480317 0.077805 0.287898
O O8 0.500000 0.000000 0.191410
O O9 0.750000 0.785851 0.410775
O O10 0.497606 0.753740 0.469928
O O11 0.509626 0.749186 0.346343
O O12 0.516393 0.864891 0.399409
O O13 0.250000 0.935833 0.841450
O O14 0.471184 0.866182 0.793540
O O15 0.500000 0.000000 0.808515
O O16 0.250000 0.798511 0.168327
O O17 0.475851 0.770898 0.094943
O O18 0.485252 0.745466 0.221882
O O19 0.250000 0.702449 0.518772
O O20 0.250000 0.717993 0.292465
O O21 0.500000 0.500000 0.884600
O O22 0.750000 0.566763 0.863109
#
# Coordination Sequence:
#
# PCOD9378693 Si02
#       8
#     8   8   8   8   8   8   8   8
#     4  11  21  34  53  77 108 144 183 222 268 320
#     4  10  19  33  52  77 109 144 181 220 265 319
#     4  11  21  35  56  83 110 139 180 226 271 321
#     4  10  19  32  53  81 110 138 175 219 269 322
#     4  10  22  38  55  77 107 145 185 225 268 322
#     4  11  23  38  54  77 109 146 187 225 270 323
#     4  10  20  35  57  81 106 140 180 222 269 321
#     4   9  19  33  52  81 110 138 174 220 267 319
#
# _framework density 17.202791000000001
#
# number of rings (size 3 to 8) (size 9 to 14) (size 15 to 20)
#    0.000    1.750    2.500    3.375    0.000    3.500 
#    0.000    0.000    0.000    0.750    0.000    3.500 
#    0.000    0.000    0.000    0.000    0.000    0.000 
#
# Total GULP energy -178679.913737 kJ/mol
# GULP energy per Si atom -5583.747304 kJ/mol
# Density = 1.716364 g / cm^3
# Si number density = 17.202791 Si / 1000 Ang^3
#
#
#
# Elastic Constant Matrix: (Units=GPa)
#
#
# Indices 1 2 3 4 5 6 
#
# 1 48.6029 42.7369 40.1584 0.0000 0.0000 0.0000
# 2 42.7369 138.3582 75.1692 0.0000 0.0000 0.0000
# 3 40.1584 75.1692 117.1436 0.0000 0.0000 0.0000
# 4 0.0000 0.0000 0.0000 21.0314 0.0000 0.0000
# 5 0.0000 0.0000 0.0000 0.0000 -142.5568 0.0000
# 6 0.0000 0.0000 0.0000 0.0000 0.0000 29.6704
#
#
#
# Elastic Compliance Matrix: (Units=1/GPa)
#
#
# Indices 1 2 3 4 5 6 
#
# 1 0.031604 -0.005950 -0.007016 0.000000 0.000000 0.000000
# 2 -0.005950 0.012216 -0.005799 0.000000 0.000000 0.000000
# 3 -0.007016 -0.005799 0.014663 0.000000 0.000000 0.000000
# 4 0.000000 0.000000 0.000000 0.047548 0.000000 0.000000
# 5 0.000000 0.000000 0.000000 0.000000 -0.007015 0.000000
# 6 0.000000 0.000000 0.000000 0.000000 0.000000 0.033704
#
#
# Mechanical properties :
#
#
# Convention : Reuss Voigt Hill
#
# Bulk Modulus (GPa) = 47.72753 68.91486 58.32119
# Shear Modulus (GPa) = 28.21110 -8.63500 9.78805
#
# Velocity S-wave (km/s) = 4.05398 -2.24286 2.38792
# Velocity P-wave (km/s) = 7.05105 5.78273 6.44815
#
# Compressibility (1/GPa) = 0.02095227
#
# Stress axis : x y z
#
# Youngs Moduli (GPa) = 31.64147 81.85851 68.19905
#
# Poissons Ratio (x) = 0.48708 0.47849
# Poissons Ratio (y) = 0.18827 0.39549
# Poissons Ratio (z) = 0.22200 0.47471
#
# Static dielectric constant tensor:
#      x y z
#    x 1.582010 0.000000 0.000000 
#    y 0.000000 1.583290 0.000000 
#    z 0.000000 0.000000 1.578220 
# 
# From -- ./inp_files/21428.got.cif
#   From: 2010.05.17/outbox.cif.g08.bks.cpg/sg46_11_cif.got.tgz:21428.got - 2010.06.03 19:58:25.
