data_PCOD9378184
_publ_section_title
;
Structure prediction by ZEFSAII (Michael W. Deem and Ramdas Pophale) SiO2 
 PCOD9378184
Probable space group: I M A 2
;
_chemical_formula_sum "Si O2"
_cell_formula_units_Z 48
_cell_length_a 13.634303
_cell_length_b 14.718683
_cell_length_c 12.725762
_cell_angle_alpha 90.000000
_cell_angle_beta 90.000000
_cell_angle_gamma 90.000000
_cell_volume 2553.792986
_symmetry_space_group_name_H-M "I M A 2"
_symmetry_group_IT_number 46
_symmetry_cell_setting 'orthorhombic'
loop_
_space_group_symop_operation_xyz
x,y,z
-x,-y,z
1/2-x,y,z
1/2+x,-y,z
1/2+x,1/2+y,1/2+z
1/2-x,1/2-y,1/2+z
-x,1/2+y,1/2+z
x,1/2-y,1/2+z
loop_
_atom_site_type_symbol
_atom_site_label
_atom_site_fract_x
_atom_site_fract_y
_atom_site_fract_z
Si Si1 0.363355 0.989725 0.206060
Si Si2 0.539746 0.344035 0.854664
Si Si3 0.514647 0.194557 0.585208
Si Si4 0.863348 0.793886 0.219573
Si Si5 0.636494 0.164119 0.784971
Si Si6 0.633263 0.371513 0.510369
O O1 0.250000 0.968323 0.232249
O O2 0.427992 0.932573 0.289138
O O3 0.386027 0.951322 0.091273
O O4 0.369177 0.098096 0.197194
O O5 0.440828 0.292461 0.815340
O O6 0.621463 0.268350 0.825212
O O7 0.522153 0.361642 0.977592
O O8 0.410355 0.231251 0.628363
O O9 0.569796 0.149384 0.683538
O O10 0.575003 0.285681 0.555422
O O11 0.750000 0.770935 0.241017
O O12 0.750000 0.148967 0.758892
O O13 0.607835 0.108897 0.889561
O O14 0.750000 0.351232 0.512024
#
# Coordination Sequence:
#
# PCOD9378184 Si02
#       6
#     8   8   8   8   8   8
#     4  10  18  31  52  80 104 128 166 213 270 318
#     4  10  19  30  48  74 102 134 169 212 257 305
#     4  10  19  30  47  73 102 134 171 205 253 306
#     4  10  21  34  50  73 100 136 177 218 259 299
#     4   9  16  27  44  72 105 131 159 199 256 315
#     4   9  16  26  45  73 103 128 156 202 256 311
#
# _framework density 18.795570999999999
#
# number of rings (size 3 to 8) (size 9 to 14) (size 15 to 20)
#    0.000    2.333    3.333    1.500    0.000    2.667 
#    0.000    0.000    0.000    0.000   26.000    0.000 
#    0.000    0.000    0.000    0.000    0.000    0.000 
#
# Total GULP energy -133608.881307 kJ/mol
# GULP energy per Si atom -5567.036721 kJ/mol
# Density = 1.875279 g / cm^3
# Si number density = 18.795571 Si / 1000 Ang^3
#
#
#
# Elastic Constant Matrix: (Units=GPa)
#
#
# Indices 1 2 3 4 5 6 
#
# 1 96.2552 3.6923 48.0996 0.0000 0.0000 0.0000
# 2 3.6923 18.9496 17.0908 0.0000 0.0000 0.0000
# 3 48.0996 17.0908 138.5293 0.0000 0.0000 0.0000
# 4 0.0000 0.0000 0.0000 -7.5418 0.0000 0.0000
# 5 0.0000 0.0000 0.0000 0.0000 12.5594 0.0000
# 6 0.0000 0.0000 0.0000 0.0000 0.0000 15.9854
#
#
#
# Elastic Compliance Matrix: (Units=1/GPa)
#
#
# Indices 1 2 3 4 5 6 
#
# 1 0.012617 0.001680 -0.004588 0.000000 0.000000 0.000000
# 2 0.001680 0.059602 -0.007937 0.000000 0.000000 0.000000
# 3 -0.004588 -0.007937 0.009791 0.000000 0.000000 0.000000
# 4 0.000000 0.000000 0.000000 -0.132594 0.000000 0.000000
# 5 0.000000 0.000000 0.000000 0.000000 0.079622 0.000000
# 6 0.000000 0.000000 0.000000 0.000000 0.000000 0.062557
#
#
# Mechanical properties :
#
#
# Convention : Reuss Voigt Hill
#
# Bulk Modulus (GPa) = 16.57812 43.49995 30.03904
# Shear Modulus (GPa) = 37.48347 16.52403 27.00375
#
# Velocity S-wave (km/s) = 4.47057 2.96825 3.79451
# Velocity P-wave (km/s) = 5.95713 5.91112 5.93417
#
# Compressibility (1/GPa) = 0.06032046
#
# Stress axis : x y z
#
# Youngs Moduli (GPa) = 79.25582 16.77789 102.13533
#
# Poissons Ratio (x) = -0.02818 0.46862
# Poissons Ratio (y) = -0.13312 0.81060
# Poissons Ratio (z) = 0.36364 0.13316
#
# Static dielectric constant tensor:
#      x y z
#    x 1.704370 0.000000 0.000000 
#    y 0.000000 1.645490 0.000000 
#    z 0.000000 0.000000 1.693050 
# 
# From -- ./inp_files/11083.got.cif
#   From: 2010.05.17/outbox.cif.g08.bks.cpg/sg46_6_cif.got.tgz:11083.got - 2010.06.03 19:58:25.
