data_PCOD9378458
_publ_section_title
;
Structure prediction by ZEFSAII (Michael W. Deem and Ramdas Pophale) SiO2 
 PCOD9378458
Probable space group: I M A 2
;
_chemical_formula_sum "Si O2"
_cell_formula_units_Z 64
_cell_length_a 7.856427
_cell_length_b 14.380881
_cell_length_c 23.999963
_cell_angle_alpha 90.000000
_cell_angle_beta 90.000000
_cell_angle_gamma 90.000000
_cell_volume 2711.572022
_symmetry_space_group_name_H-M "I M A 2"
_symmetry_group_IT_number 46
_symmetry_cell_setting 'orthorhombic'
loop_
_space_group_symop_operation_xyz
x,y,z
-x,-y,z
1/2-x,y,z
1/2+x,-y,z
1/2+x,1/2+y,1/2+z
1/2-x,1/2-y,1/2+z
-x,1/2+y,1/2+z
x,1/2-y,1/2+z
loop_
_atom_site_type_symbol
_atom_site_label
_atom_site_fract_x
_atom_site_fract_y
_atom_site_fract_z
Si Si1 0.939744 0.399057 0.418040
Si Si2 0.547984 0.331259 0.817392
Si Si3 0.454078 0.597851 0.584600
Si Si4 0.055835 0.124016 0.798655
Si Si5 0.541837 0.668157 0.180972
Si Si6 0.445607 0.622072 0.704117
Si Si7 0.952228 0.692369 0.058214
Si Si8 0.051782 0.309657 0.937794
O O1 0.750000 0.383255 0.438735
O O2 0.000000 0.500000 0.437415
O O3 0.944110 0.406592 0.350679
O O4 0.036737 0.303599 0.432512
O O5 0.750000 0.314585 0.808462
O O6 0.448198 0.235473 0.807201
O O7 0.486983 0.395461 0.766217
O O8 0.526513 0.354182 0.882141
O O9 0.500000 0.500000 0.556835
O O10 0.250000 0.606034 0.586665
O O11 0.532232 0.590731 0.647202
O O12 0.519355 0.695901 0.561596
O O13 0.250000 0.091917 0.805823
O O14 0.998047 0.106496 0.735153
O O15 0.750000 0.677555 0.181905
O O16 0.456052 0.766767 0.195016
O O17 0.488489 0.647890 0.117106
O O18 0.250000 0.590392 0.703179
O O19 0.750000 0.676783 0.056606
O O20 0.022695 0.662212 0.998038
O O21 0.250000 0.332803 0.936640
#
# Coordination Sequence:
#
# PCOD9378458 Si02
#       8
#     8   8   8   8   8   8   8   8
#     4  11  21  32  44  58  80 109 142 174 205 240
#     4   9  15  25  41  59  79 102 130 164 205 246
#     4  10  19  30  43  59  81 109 141 173 204 239
#     4   9  15  25  42  62  81 100 127 163 205 247
#     4   8  14  25  42  61  79 101 129 162 201 242
#     4   8  15  26  40  58  78 101 129 164 205 245
#     4   9  18  31  44  59  82 112 142 170 199 234
#     4  10  19  30  43  60  83 110 141 172 201 235
#
# _framework density 23.602544999999999
#
# number of rings (size 3 to 8) (size 9 to 14) (size 15 to 20)
#    0.000    2.750    0.000    4.125    0.000    3.000 
#    0.000    0.000    0.000    0.000    0.000    0.000 
#    0.000    1.000    0.000    7.500    0.000    3.000 
#
# Total GULP energy -178234.803373 kJ/mol
# GULP energy per Si atom -5569.837605 kJ/mol
# Density = 2.354882 g / cm^3
# Si number density = 23.602545 Si / 1000 Ang^3
#
#
#
# Elastic Constant Matrix: (Units=GPa)
#
#
# Indices 1 2 3 4 5 6 
#
# 1 50.5820 -6.0185 9.3350 0.0000 0.0000 0.0000
# 2 -6.0185 23.0741 0.2220 0.0000 0.0000 0.0000
# 3 9.3350 0.2220 243.0144 0.0000 0.0000 0.0000
# 4 0.0000 0.0000 0.0000 -20.1446 0.0000 0.0000
# 5 0.0000 0.0000 0.0000 0.0000 5.1647 0.0000
# 6 0.0000 0.0000 0.0000 0.0000 0.0000 3.5289
#
#
#
# Elastic Compliance Matrix: (Units=1/GPa)
#
#
# Indices 1 2 3 4 5 6 
#
# 1 0.020555 0.005369 -0.000795 0.000000 0.000000 0.000000
# 2 0.005369 0.044742 -0.000247 0.000000 0.000000 0.000000
# 3 -0.000795 -0.000247 0.004146 0.000000 0.000000 0.000000
# 4 0.000000 0.000000 0.000000 -0.049641 0.000000 0.000000
# 5 0.000000 0.000000 0.000000 0.000000 0.193623 0.000000
# 6 0.000000 0.000000 0.000000 0.000000 0.000000 0.283372
#
#
# Mechanical properties :
#
#
# Convention : Reuss Voigt Hill
#
# Bulk Modulus (GPa) = 12.80449 35.97195 24.38822
# Shear Modulus (GPa) = 9.72434 18.58527 14.15480
#
# Velocity S-wave (km/s) = 2.03199 2.80916 2.45157
# Velocity P-wave (km/s) = 3.30789 5.07894 4.28589
#
# Compressibility (1/GPa) = 0.07809761
#
# Stress axis : x y z
#
# Youngs Moduli (GPa) = 48.64917 22.35061 241.21215
#
# Poissons Ratio (x) = -0.12000 0.19164
# Poissons Ratio (y) = -0.26120 0.05961
# Poissons Ratio (z) = 0.03865 0.00552
#
# Static dielectric constant tensor:
#      x y z
#    x 1.827080 0.000000 0.000000 
#    y 0.000000 1.918820 0.000000 
#    z 0.000000 0.000000 2.034680 
# 
# From -- ./inp_files/23319.got.cif
#   From: 2010.05.17/outbox.cif.g08.bks.cpg/sg46_12_cif.got.tgz:23319.got - 2010.06.03 19:58:25.
