data_PCOD9378924
_publ_section_title
;
Structure prediction by ZEFSAII (Michael W. Deem and Ramdas Pophale) SiO2 
 PCOD9378924
Probable space group: I M A 2
;
_chemical_formula_sum "Si O2"
_cell_formula_units_Z 48
_cell_length_a 8.832996
_cell_length_b 29.031913
_cell_length_c 10.532316
_cell_angle_alpha 90.000000
_cell_angle_beta 90.000000
_cell_angle_gamma 90.000000
_cell_volume 2700.894175
_symmetry_space_group_name_H-M "I M A 2"
_symmetry_group_IT_number 46
_symmetry_cell_setting 'orthorhombic'
loop_
_space_group_symop_operation_xyz
x,y,z
-x,-y,z
1/2-x,y,z
1/2+x,-y,z
1/2+x,1/2+y,1/2+z
1/2-x,1/2-y,1/2+z
-x,1/2+y,1/2+z
x,1/2-y,1/2+z
loop_
_atom_site_type_symbol
_atom_site_label
_atom_site_fract_x
_atom_site_fract_y
_atom_site_fract_z
Si Si1 0.068274 0.048470 0.837000
Si Si2 0.932358 0.142294 0.449332
Si Si3 0.068853 0.048835 0.539451
Si Si4 0.932729 0.200162 0.699855
Si Si5 0.067331 0.692434 0.688032
Si Si6 0.431757 0.353546 0.438828
O O1 0.250000 0.045347 0.841606
O O2 0.025344 0.055190 0.688500
O O3 0.020090 0.093470 0.914500
O O4 0.000000 0.000000 0.880365
O O5 0.750000 0.137758 0.450580
O O6 0.975185 0.172924 0.571821
O O7 0.975752 0.168083 0.320008
O O8 0.005504 0.092249 0.463622
O O9 0.250000 0.047270 0.531998
O O10 0.000000 0.000000 0.498071
O O11 0.750000 0.197941 0.713203
O O12 0.975624 0.253746 0.690171
O O13 0.007059 0.176241 0.821056
O O14 0.250000 0.690522 0.676660
O O15 0.995338 0.666844 0.568713
O O16 0.250000 0.352181 0.438956
#
# Coordination Sequence:
#
# PCOD9378924 Si02
#       6
#     8   8   8   8   8   8
#     4   9  19  34  54  81 110 140 179 227 274 327
#     4  10  20  35  57  84 112 146 189 232 277 326
#     4  10  19  34  56  82 112 142 181 231 279 331
#     4  10  20  37  61  83 108 147 193 235 273 322
#     4  10  22  39  57  81 114 152 192 230 272 328
#     4  11  22  37  56  85 118 147 184 229 281 334
#
# _framework density 17.771892999999999
#
# number of rings (size 3 to 8) (size 9 to 14) (size 15 to 20)
#    0.000    2.000    1.667    2.000    0.000    6.000 
#    0.000    2.500    0.000    2.000    0.000    0.000 
#    0.000    0.000    0.000    0.000    0.000    0.000 
#
# Total GULP energy -134020.232459 kJ/mol
# GULP energy per Si atom -5584.176352 kJ/mol
# Density = 1.773144 g / cm^3
# Si number density = 17.771893 Si / 1000 Ang^3
#
#
#
# Elastic Constant Matrix: (Units=GPa)
#
#
# Indices 1 2 3 4 5 6 
#
# 1 20.6731 48.0553 40.6647 0.0000 0.0000 0.0000
# 2 48.0553 201.7767 93.7588 -0.0001 0.0000 0.0000
# 3 40.6647 93.7588 137.2402 0.0017 0.0000 0.0000
# 4 0.0000 -0.0001 0.0017 -0.9544 0.0001 0.0000
# 5 0.0000 0.0000 0.0000 0.0001 22.3311 0.0000
# 6 0.0000 0.0000 0.0000 0.0000 0.0000 32.3163
#
#
#
# Elastic Compliance Matrix: (Units=1/GPa)
#
#
# Indices 1 2 3 4 5 6 
#
# 1 0.177323 -0.026104 -0.034708 -0.000066 0.000000 0.000000
# 2 -0.026104 0.011104 0.000149 0.000000 0.000000 0.000000
# 3 -0.034708 0.000149 0.017469 0.000033 0.000000 0.000000
# 4 -0.000066 0.000000 0.000033 -1.047766 0.000004 0.000001
# 5 0.000000 0.000000 0.000000 0.000004 0.044780 0.000000
# 6 0.000000 0.000000 0.000000 0.000001 0.000000 0.030944
#
#
# Mechanical properties :
#
#
# Convention : Reuss Voigt Hill
#
# Bulk Modulus (GPa) = 11.82456 80.51637 46.17047
# Shear Modulus (GPa) = -8.10858 22.55269 7.22205
#
# Velocity S-wave (km/s) = -2.13834 3.56618 2.01806
# Velocity P-wave (km/s) = 0.75585 7.89688 5.60945
#
# Compressibility (1/GPa) = 0.08456973
#
# Stress axis : x y z
#
# Youngs Moduli (GPa) = 5.63944 90.06032 57.24484
#
# Poissons Ratio (x) = 2.35091 1.98685
# Poissons Ratio (y) = 0.14721 -0.00852
# Poissons Ratio (z) = 0.19573 -0.01341
#
# Static dielectric constant tensor:
#      x y z
#    x 1.596770 0.000000 0.000000 
#    y 0.000000 1.593140 0.000000 
#    z 0.000000 0.000000 1.577770 
# 
# From -- ./inp_files/3897.got.cif
#   From: 2010.05.17/outbox.cif.g08.bks.cpg/sg46_2_cif.got.tgz:3897.got - 2010.06.03 19:58:25.
