data_PCOD9378580
_publ_section_title
;
Structure prediction by ZEFSAII (Michael W. Deem and Ramdas Pophale) SiO2 
 PCOD9378580
Probable space group: I M A 2
;
_chemical_formula_sum "Si O2"
_cell_formula_units_Z 64
_cell_length_a 8.763321
_cell_length_b 20.135611
_cell_length_c 21.192067
_cell_angle_alpha 90.000000
_cell_angle_beta 90.000000
_cell_angle_gamma 90.000000
_cell_volume 3739.442426
_symmetry_space_group_name_H-M "I M A 2"
_symmetry_group_IT_number 46
_symmetry_cell_setting 'orthorhombic'
loop_
_space_group_symop_operation_xyz
x,y,z
-x,-y,z
1/2-x,y,z
1/2+x,-y,z
1/2+x,1/2+y,1/2+z
1/2-x,1/2-y,1/2+z
-x,1/2+y,1/2+z
x,1/2-y,1/2+z
loop_
_atom_site_type_symbol
_atom_site_label
_atom_site_fract_x
_atom_site_fract_y
_atom_site_fract_z
Si Si1 0.066948 0.293592 0.044000
Si Si2 0.066324 0.288489 0.420457
Si Si3 0.434111 0.711463 0.287420
Si Si4 0.067368 0.931317 0.113056
Si Si5 0.933292 0.930636 0.971944
Si Si6 0.067359 0.570726 0.087753
Si Si7 0.566878 0.429857 0.236411
Si Si8 0.433639 0.788011 0.161411
O O1 0.250000 0.295909 0.045333
O O2 0.000198 0.367222 0.050450
O O3 0.008522 0.251735 0.103886
O O4 0.018495 0.256256 0.979950
O O5 0.250000 0.286945 0.417615
O O6 0.020331 0.364889 0.434170
O O7 0.998728 0.266156 0.354158
O O8 0.250000 0.711545 0.289673
O O9 0.485137 0.635732 0.273015
O O10 0.480717 0.756833 0.228151
O O11 0.250000 0.936945 0.106714
O O12 0.031499 0.865796 0.153164
O O13 0.000000 0.000000 0.139175
O O14 0.995526 0.922866 0.043338
O O15 0.750000 0.934473 0.973819
O O16 0.000000 0.000000 0.946866
O O17 0.250000 0.570272 0.083324
O O18 0.026645 0.578960 0.162228
O O19 0.000000 0.500000 0.067350
O O20 0.500000 0.500000 0.258377
O O21 0.750000 0.433266 0.240116
O O22 0.250000 0.779809 0.155971
#
# Coordination Sequence:
#
# PCOD9378580 Si02
#       8
#     8   8   8   8   8   8   8   8
#     4  11  21  35  56  81 109 142 180 225 272 318
#     4  10  23  38  51  75 110 143 181 225 267 318
#     4  10  21  37  54  75 105 141 182 223 266 318
#     4  10  19  31  53  80 108 137 172 218 269 318
#     4  10  19  33  50  73 107 142 179 219 258 310
#     4  10  19  34  55  82 113 140 177 223 270 320
#     4   9  18  32  50  74 106 140 175 217 256 311
#     4  10  20  36  56  80 107 139 180 225 268 321
#
# _framework density 17.114851000000002
#
# number of rings (size 3 to 8) (size 9 to 14) (size 15 to 20)
#    0.000    2.000    2.500    2.250    0.000    4.500 
#    0.000    2.500    0.000    0.750    0.000    3.500 
#    0.000    0.000    0.000    0.000    0.000    0.000 
#
# Total GULP energy -178623.313138 kJ/mol
# GULP energy per Si atom -5581.978536 kJ/mol
# Density = 1.707590 g / cm^3
# Si number density = 17.114851 Si / 1000 Ang^3
#
#
#
# Elastic Constant Matrix: (Units=GPa)
#
#
# Indices 1 2 3 4 5 6 
#
# 1 30.2950 38.6283 29.8555 0.0000 0.0000 0.0000
# 2 38.6283 130.0810 68.9044 0.0000 0.0000 0.0000
# 3 29.8555 68.9044 116.0953 0.0000 0.0000 0.0000
# 4 0.0000 0.0000 0.0000 21.8192 0.0000 0.0000
# 5 0.0000 0.0000 0.0000 0.0000 22.9689 0.0000
# 6 0.0000 0.0000 0.0000 0.0000 0.0000 28.6134
#
#
#
# Elastic Compliance Matrix: (Units=1/GPa)
#
#
# Indices 1 2 3 4 5 6 
#
# 1 0.056448 -0.013234 -0.006662 0.000000 0.000000 0.000000
# 2 -0.013234 0.014315 -0.005093 0.000000 0.000000 0.000000
# 3 -0.006662 -0.005093 0.013350 0.000000 0.000000 0.000000
# 4 0.000000 0.000000 0.000000 0.045831 0.000000 0.000000
# 5 0.000000 0.000000 0.000000 0.000000 0.043537 0.000000
# 6 0.000000 0.000000 0.000000 0.000000 0.000000 0.034949
#
#
# Mechanical properties :
#
#
# Convention : Reuss Voigt Hill
#
# Bulk Modulus (GPa) = 29.29515 61.24973 45.27244
# Shear Modulus (GPa) = 18.53324 23.95250 21.24287
#
# Velocity S-wave (km/s) = 3.29428 3.74507 3.52688
# Velocity P-wave (km/s) = 5.62349 7.38687 6.56466
#
# Compressibility (1/GPa) = 0.03413534
#
# Stress axis : x y z
#
# Youngs Moduli (GPa) = 17.71545 69.85614 74.90857
#
# Poissons Ratio (x) = 0.92445 0.49904
# Poissons Ratio (y) = 0.23444 0.38151
# Poissons Ratio (z) = 0.11802 0.35578
#
# Static dielectric constant tensor:
#      x y z
#    x 1.577490 0.000000 0.000000 
#    y 0.000000 1.589650 0.000000 
#    z 0.000000 0.000000 1.561650 
# 
# From -- ./inp_files/21456.got.cif
#   From: 2010.05.17/outbox.cif.g08.bks.cpg/sg46_11_cif.got.tgz:21456.got - 2010.06.03 19:58:25.
