data_PCOD9378342
_publ_section_title
;
Structure prediction by ZEFSAII (Michael W. Deem and Ramdas Pophale) SiO2 
 PCOD9378342
Probable space group: I M A 2
;
_chemical_formula_sum "Si O2"
_cell_formula_units_Z 48
_cell_length_a 26.097975
_cell_length_b 15.426255
_cell_length_c 5.300465
_cell_angle_alpha 90.000000
_cell_angle_beta 90.000000
_cell_angle_gamma 90.000000
_cell_volume 2133.935498
_symmetry_space_group_name_H-M "I M A 2"
_symmetry_group_IT_number 46
_symmetry_cell_setting 'orthorhombic'
loop_
_space_group_symop_operation_xyz
x,y,z
-x,-y,z
1/2-x,y,z
1/2+x,-y,z
1/2+x,1/2+y,1/2+z
1/2-x,1/2-y,1/2+z
-x,1/2+y,1/2+z
x,1/2-y,1/2+z
loop_
_atom_site_type_symbol
_atom_site_label
_atom_site_fract_x
_atom_site_fract_y
_atom_site_fract_z
Si Si1 0.692748 0.856005 0.096050
Si Si2 0.018056 0.844714 0.268359
Si Si3 0.807524 0.469407 0.860214
Si Si4 0.023093 0.352596 0.267326
Si Si5 0.638465 0.620539 0.091522
Si Si6 0.635894 0.302512 0.665797
O O1 0.750000 0.821625 0.143097
O O2 0.652984 0.835534 0.323136
O O3 0.695654 0.960096 0.136121
O O4 0.674203 0.843487 0.813439
O O5 0.992075 0.749179 0.301219
O O6 0.012712 0.886979 0.542276
O O7 0.076553 0.830827 0.191692
O O8 0.988001 0.890912 0.042309
O O9 0.750000 0.461131 0.967201
O O10 0.828737 0.381034 0.752639
O O11 0.846093 0.519675 0.048728
O O12 0.080691 0.365064 0.175333
O O13 0.644143 0.271211 0.379768
#
# Coordination Sequence:
#
# PCOD9378342 Si02
#       6
#     8   8   8   8   8   8
#     4   9  18  35  55  81 115 152 189 236 291 349
#     4  10  19  37  57  83 115 154 195 240 288 356
#     4   9  23  40  60  86 120 153 202 250 294 353
#     4  10  18  34  60  84 114 151 198 237 291 351
#     4  10  19  34  59  87 114 154 198 239 299 349
#     4  12  23  40  62  84 116 162 199 244 299 350
#
# _framework density 22.493649000000001
#
# number of rings (size 3 to 8) (size 9 to 14) (size 15 to 20)
#    1.000    1.000    3.333    2.000    2.333    0.667 
#    0.000    0.833    0.000    0.000    0.000   79.333 
#    0.000    0.000    0.000    0.000    0.000    0.000 
#
# Total GULP energy -133862.462148 kJ/mol
# GULP energy per Si atom -5577.602590 kJ/mol
# Density = 2.244245 g / cm^3
# Si number density = 22.493649 Si / 1000 Ang^3
#
#
#
# Elastic Constant Matrix: (Units=GPa)
#
#
# Indices 1 2 3 4 5 6 
#
# 1 57.2351 29.9956 -21.1954 0.0000 0.0000 0.0000
# 2 29.9956 34.3336 -23.7472 0.0000 0.0000 0.0000
# 3 -21.1954 -23.7472 102.8900 0.0000 0.0000 0.0000
# 4 0.0000 0.0000 0.0000 22.4204 0.0000 0.0000
# 5 0.0000 0.0000 0.0000 0.0000 18.5505 0.0000
# 6 0.0000 0.0000 0.0000 0.0000 0.0000 24.9630
#
#
#
# Elastic Compliance Matrix: (Units=1/GPa)
#
#
# Indices 1 2 3 4 5 6 
#
# 1 0.032230 -0.028042 0.000167 0.000000 0.000000 0.000000
# 2 -0.028042 0.059057 0.007854 0.000000 0.000000 0.000000
# 3 0.000167 0.007854 0.011566 0.000000 0.000000 0.000000
# 4 0.000000 0.000000 0.000000 0.044602 0.000000 0.000000
# 5 0.000000 0.000000 0.000000 0.000000 0.053907 0.000000
# 6 0.000000 0.000000 0.000000 0.000000 0.000000 0.040059
#
#
# Mechanical properties :
#
#
# Convention : Reuss Voigt Hill
#
# Bulk Modulus (GPa) = 15.92073 18.28498 17.10285
# Shear Modulus (GPa) = 16.53435 27.14715 21.84075
#
# Velocity S-wave (km/s) = 2.71415 3.47779 3.11943
# Velocity P-wave (km/s) = 4.11284 4.92679 4.53810
#
# Compressibility (1/GPa) = 0.06281118
#
# Stress axis : x y z
#
# Youngs Moduli (GPa) = 31.02708 16.93278 86.45857
#
# Poissons Ratio (x) = 0.47483 -0.01446
# Poissons Ratio (y) = 0.87006 -0.67903
# Poissons Ratio (z) = -0.00519 -0.13299
#
# Static dielectric constant tensor:
#      x y z
#    x 1.810320 0.000000 0.000000 
#    y 0.000000 2.000440 0.000000 
#    z 0.000000 0.000000 1.884890 
# 
# From -- ./inp_files/2362.got.cif
#   From: 2010.05.17/outbox.cif.g08.bks.cpg/sg46_2_cif.got.tgz:2362.got - 2010.06.03 19:58:25.
