data_PCOD9378888
_publ_section_title
;
Structure prediction by ZEFSAII (Michael W. Deem and Ramdas Pophale) SiO2 
 PCOD9378888
Probable space group: I M A 2
;
_chemical_formula_sum "Si O2"
_cell_formula_units_Z 64
_cell_length_a 8.654063
_cell_length_b 20.714420
_cell_length_c 20.334872
_cell_angle_alpha 90.000000
_cell_angle_beta 90.000000
_cell_angle_gamma 90.000000
_cell_volume 3645.308373
_symmetry_space_group_name_H-M "I M A 2"
_symmetry_group_IT_number 46
_symmetry_cell_setting 'orthorhombic'
loop_
_space_group_symop_operation_xyz
x,y,z
-x,-y,z
1/2-x,y,z
1/2+x,-y,z
1/2+x,1/2+y,1/2+z
1/2-x,1/2-y,1/2+z
-x,1/2+y,1/2+z
x,1/2-y,1/2+z
loop_
_atom_site_type_symbol
_atom_site_label
_atom_site_fract_x
_atom_site_fract_y
_atom_site_fract_z
Si Si1 0.935463 0.679478 0.630580
Si Si2 0.063789 0.929243 0.880159
Si Si3 0.435048 0.070527 0.375403
Si Si4 0.564249 0.321112 0.124925
Si Si5 0.064317 0.824104 0.275786
Si Si6 0.935539 0.570399 0.525071
Si Si7 0.935185 0.570634 0.028229
Si Si8 0.562576 0.177093 0.775679
O O1 0.750000 0.683076 0.634443
O O2 0.977666 0.624783 0.577887
O O3 0.000996 0.749475 0.610702
O O4 0.002301 0.663079 0.702408
O O5 0.250000 0.931263 0.881112
O O6 0.010103 0.875903 0.827793
O O7 0.003482 0.914019 0.953248
O O8 0.000000 0.000000 0.862809
O O9 0.250000 0.069374 0.371144
O O10 0.500723 0.124968 0.327679
O O11 0.478515 0.082718 0.451775
O O12 0.500000 0.000000 0.357526
O O13 0.750000 0.319736 0.122556
O O14 0.501264 0.374156 0.075028
O O15 0.516072 0.336496 0.200358
O O16 0.250000 0.826422 0.274797
O O17 0.015703 0.750401 0.292368
O O18 0.750000 0.566767 0.520400
O O19 0.000000 0.500000 0.543962
O O20 0.750000 0.569569 0.032558
O O21 0.000000 0.500000 0.046176
O O22 0.750000 0.176120 0.776594
#
# Coordination Sequence:
#
# PCOD9378888 Si02
#       8
#     8   8   8   8   8   8   8   8
#     4  10  21  37  55  78 109 142 179 222 267 318
#     4  10  19  34  54  76 105 137 173 215 260 310
#     4  10  21  37  56  79 108 141 177 219 267 320
#     4  10  20  36  57  80 108 142 181 223 269 320
#     4  10  20  36  57  80 107 139 178 221 266 318
#     4  10  21  36  54  77 105 136 174 217 261 312
#     4  10  21  37  56  80 110 143 181 224 270 322
#     4   8  18  35  53  76 105 138 175 215 259 312
#
# _framework density 17.556813999999999
#
# number of rings (size 3 to 8) (size 9 to 14) (size 15 to 20)
#    0.000    2.250    0.000    4.125    0.000    5.500 
#    0.000   12.500    0.000    0.000    0.000    0.000 
#    0.000    0.000    0.000    0.000    0.000    0.000 
#
# Total GULP energy -178617.029758 kJ/mol
# GULP energy per Si atom -5581.782180 kJ/mol
# Density = 1.751685 g / cm^3
# Si number density = 17.556814 Si / 1000 Ang^3
#
#
#
# Elastic Constant Matrix: (Units=GPa)
#
#
# Indices 1 2 3 4 5 6 
#
# 1 59.8394 56.9022 49.3375 0.0000 0.0000 0.0000
# 2 56.9022 176.2332 142.1975 0.0000 0.0000 0.0000
# 3 49.3375 142.1975 129.9832 0.0000 0.0000 0.0000
# 4 0.0000 0.0000 0.0000 44.7306 0.0000 0.0000
# 5 0.0000 0.0000 0.0000 0.0000 29.0475 0.0000
# 6 0.0000 0.0000 0.0000 0.0000 0.0000 33.1379
#
#
#
# Elastic Compliance Matrix: (Units=1/GPa)
#
#
# Indices 1 2 3 4 5 6 
#
# 1 0.024571 -0.003481 -0.005519 0.000000 0.000000 0.000000
# 2 -0.003481 0.048864 -0.052134 0.000000 0.000000 0.000000
# 3 -0.005519 -0.052134 0.066821 0.000000 0.000000 0.000000
# 4 0.000000 0.000000 0.000000 0.022356 0.000000 0.000000
# 5 0.000000 0.000000 0.000000 0.000000 0.034426 0.000000
# 6 0.000000 0.000000 0.000000 0.000000 0.000000 0.030177
#
#
# Mechanical properties :
#
#
# Convention : Reuss Voigt Hill
#
# Bulk Modulus (GPa) = 55.58936 95.88114 75.73525
# Shear Modulus (GPa) = 14.06549 29.22445 21.64497
#
# Velocity S-wave (km/s) = 2.83352 4.08433 3.51501
# Velocity P-wave (km/s) = 6.51432 8.77342 7.72688
#
# Compressibility (1/GPa) = 0.01798905
#
# Stress axis : x y z
#
# Youngs Moduli (GPa) = 40.69762 20.46503 14.96528
#
# Poissons Ratio (x) = 0.07123 0.08259
# Poissons Ratio (y) = 0.14166 0.78020
# Poissons Ratio (z) = 0.22460 1.06693
#
# Static dielectric constant tensor:
#      x y z
#    x 1.594400 0.000000 0.000000 
#    y 0.000000 1.573370 0.000000 
#    z 0.000000 0.000000 1.580100 
# 
# From -- ./inp_files/21322.got.cif
#   From: 2010.05.17/outbox.cif.g08.bks.cpg/sg46_11_cif.got.tgz:21322.got - 2010.06.03 19:58:25.
