data_PCOD9378974
_publ_section_title
;
Structure prediction by ZEFSAII (Michael W. Deem and Ramdas Pophale) SiO2 
 PCOD9378974
Probable space group: I M A 2
;
_chemical_formula_sum "Si O2"
_cell_formula_units_Z 48
_cell_length_a 17.846726
_cell_length_b 11.335412
_cell_length_c 12.561500
_cell_angle_alpha 90.000000
_cell_angle_beta 90.000000
_cell_angle_gamma 90.000000
_cell_volume 2541.191350
_symmetry_space_group_name_H-M "I M A 2"
_symmetry_group_IT_number 46
_symmetry_cell_setting 'orthorhombic'
loop_
_space_group_symop_operation_xyz
x,y,z
-x,-y,z
1/2-x,y,z
1/2+x,-y,z
1/2+x,1/2+y,1/2+z
1/2-x,1/2-y,1/2+z
-x,1/2+y,1/2+z
x,1/2-y,1/2+z
loop_
_atom_site_type_symbol
_atom_site_label
_atom_site_fract_x
_atom_site_fract_y
_atom_site_fract_z
Si Si1 0.089836 0.979785 0.435870
Si Si2 0.571145 0.731967 0.975664
Si Si3 0.945182 0.176465 0.628303
Si Si4 0.917046 0.438531 0.699599
Si Si5 0.161917 0.029651 0.001770
Si Si6 0.550656 0.111813 0.869354
O O1 0.100230 0.897023 0.538714
O O2 0.109917 0.929086 0.321067
O O3 0.115845 0.115489 0.441033
O O4 0.000000 0.000000 0.434449
O O5 0.624208 0.844836 0.973713
O O6 0.497723 0.773997 0.906348
O O7 0.530802 0.693590 0.086263
O O8 0.919997 0.309564 0.648401
O O9 0.940574 0.115212 0.742802
O O10 0.862329 0.510766 0.623982
O O11 0.000000 0.500000 0.696211
O O12 0.250000 0.032419 0.987787
O O13 0.125982 0.922438 0.932001
O O14 0.500000 0.000000 0.900096
#
# Coordination Sequence:
#
# PCOD9378974 Si02
#       6
#     8   8   8   8   8   8
#     4   9  20  32  57  97 117 141 189 252 304 345
#     4  10  19  36  59  90 116 150 199 256 302 353
#     4  11  18  33  62  92 116 146 190 254 304 343
#     4  11  19  36  61  86 118 151 200 248 293 353
#     4  11  23  39  58  84 120 163 200 242 304 365
#     4  10  19  34  59  87 114 148 199 253 294 350
#
# _framework density 18.888777999999999
#
# number of rings (size 3 to 8) (size 9 to 14) (size 15 to 20)
#    0.000    1.667    3.333    5.000    0.000    0.000 
#    0.000    1.667    0.000    2.000    0.000    0.000 
#    0.000    0.000    0.000    0.000    0.000    0.000 
#
# Total GULP energy -133653.564091 kJ/mol
# GULP energy per Si atom -5568.898504 kJ/mol
# Density = 1.884579 g / cm^3
# Si number density = 18.888778 Si / 1000 Ang^3
#
#
#
# Elastic Constant Matrix: (Units=GPa)
#
#
# Indices 1 2 3 4 5 6 
#
# 1 75.4301 26.5491 44.7269 0.0000 0.0000 0.0000
# 2 26.5491 122.8414 44.2280 0.0000 0.0000 0.0000
# 3 44.7269 44.2280 140.8365 0.0000 0.0000 0.0000
# 4 0.0000 0.0000 0.0000 28.6497 0.0000 0.0000
# 5 0.0000 0.0000 0.0000 0.0000 0.7841 0.0000
# 6 0.0000 0.0000 0.0000 0.0000 0.0000 11.6599
#
#
#
# Elastic Compliance Matrix: (Units=1/GPa)
#
#
# Indices 1 2 3 4 5 6 
#
# 1 0.016725 -0.001919 -0.004709 0.000000 0.000000 0.000000
# 2 -0.001919 0.009399 -0.002342 0.000000 0.000000 0.000000
# 3 -0.004709 -0.002342 0.009331 0.000000 0.000000 0.000000
# 4 0.000000 0.000000 0.000000 0.034904 0.000000 0.000000
# 5 0.000000 0.000000 0.000000 0.000000 1.275314 0.000000
# 6 0.000000 0.000000 0.000000 0.000000 0.000000 0.085764
#
#
# Mechanical properties :
#
#
# Convention : Reuss Voigt Hill
#
# Bulk Modulus (GPa) = 57.09483 63.34623 60.22053
# Shear Modulus (GPa) = 3.43592 23.12569 13.28080
#
# Velocity S-wave (km/s) = 1.35018 3.50281 2.65449
# Velocity P-wave (km/s) = 5.72041 7.06886 6.43008
#
# Compressibility (1/GPa) = 0.01751472
#
# Stress axis : x y z
#
# Youngs Moduli (GPa) = 59.79085 106.39881 107.16599
#
# Poissons Ratio (x) = 0.20421 0.50462
# Poissons Ratio (y) = 0.11476 0.25098
# Poissons Ratio (z) = 0.28154 0.24918
#
# Static dielectric constant tensor:
#      x y z
#    x 1.637520 0.000000 0.000000 
#    y 0.000000 1.792470 0.000000 
#    z 0.000000 0.000000 1.702560 
# 
# From -- ./inp_files/11785.got.cif
#   From: 2010.05.17/outbox.cif.g08.bks.cpg/sg46_6_cif.got.tgz:11785.got - 2010.06.03 19:58:25.
