data_PCOD9378659
_publ_section_title
;
Structure prediction by ZEFSAII (Michael W. Deem and Ramdas Pophale) SiO2 
 PCOD9378659
Probable space group: I M A 2
;
_chemical_formula_sum "Si O2"
_cell_formula_units_Z 64
_cell_length_a 8.945609
_cell_length_b 28.438454
_cell_length_c 14.866864
_cell_angle_alpha 90.000000
_cell_angle_beta 90.000000
_cell_angle_gamma 90.000000
_cell_volume 3782.119647
_symmetry_space_group_name_H-M "I M A 2"
_symmetry_group_IT_number 46
_symmetry_cell_setting 'orthorhombic'
loop_
_space_group_symop_operation_xyz
x,y,z
-x,-y,z
1/2-x,y,z
1/2+x,-y,z
1/2+x,1/2+y,1/2+z
1/2-x,1/2-y,1/2+z
-x,1/2+y,1/2+z
x,1/2-y,1/2+z
loop_
_atom_site_type_symbol
_atom_site_label
_atom_site_fract_x
_atom_site_fract_y
_atom_site_fract_z
Si Si1 0.070573 0.673173 0.505200
Si Si2 0.928385 0.550626 0.996230
Si Si3 0.429619 0.638186 0.895655
Si Si4 0.571616 0.550626 0.208174
Si Si5 0.419383 0.231767 0.455002
Si Si6 0.419383 0.268234 0.249404
Si Si7 0.429618 0.638185 0.308751
Si Si8 0.070572 0.673173 0.699204
O O1 0.250000 0.677246 0.501036
O O2 0.025300 0.646506 0.413644
O O3 0.030367 0.651250 0.602202
O O4 0.002021 0.725359 0.502815
O O5 0.750000 0.549048 0.983622
O O6 0.000000 0.500000 0.975421
O O7 0.000364 0.591341 0.936468
O O8 0.957834 0.560252 0.102202
O O9 0.250000 0.636904 0.900548
O O10 0.491094 0.683118 0.950972
O O11 0.474696 0.646505 0.790760
O O12 0.500000 0.500000 0.228982
O O13 0.750000 0.549047 0.220782
O O14 0.499638 0.591341 0.267937
O O15 0.250000 0.224731 0.487669
O O16 0.411640 0.250001 0.352203
O O17 0.250000 0.275274 0.216738
O O18 0.508915 0.316882 0.253431
O O19 0.502010 0.225358 0.201591
O O20 0.250000 0.636902 0.303860
O O21 0.250000 0.677249 0.703368
#
# Coordination Sequence:
#
# PCOD9378659 Si02
#       8
#     8   8   8   8   8   8   8   8
#     4   9  18  32  49  71 101 136 171 205 242 286
#     4  10  21  37  56  77 100 125 156 198 248 299
#     4  10  19  32  52  75 100 132 167 203 245 293
#     4  10  21  37  56  77 100 125 156 198 248 299
#     4   9  17  29  45  67  96 129 166 206 243 281
#     4   9  17  29  45  67  96 129 166 206 243 281
#     4  10  19  32  52  75 100 132 167 203 245 293
#     4   9  18  32  49  71 101 136 171 205 242 286
#
# _framework density 16.921727000000001
#
# number of rings (size 3 to 8) (size 9 to 14) (size 15 to 20)
#    0.000    2.500    0.000    2.250    0.000    7.000 
#    0.000    0.000    0.000    0.750    0.000    0.000 
#    0.000    0.000    0.000    0.000    0.000    0.000 
#
# Total GULP energy -178387.249306 kJ/mol
# GULP energy per Si atom -5574.601541 kJ/mol
# Density = 1.688321 g / cm^3
# Si number density = 16.921727 Si / 1000 Ang^3
#
#
#
# Elastic Constant Matrix: (Units=GPa)
#
#
# Indices 1 2 3 4 5 6 
#
# 1 58.6101 60.8598 43.5295 0.0000 0.0000 0.0000
# 2 60.8598 140.8668 76.3952 0.0001 0.0000 0.0000
# 3 43.5295 76.3952 98.0223 0.0003 -0.0001 0.0000
# 4 0.0000 0.0001 0.0003 21.8337 0.0000 0.0000
# 5 0.0000 0.0000 -0.0001 0.0000 12.7051 0.0000
# 6 0.0000 0.0000 0.0000 0.0000 0.0000 33.8749
#
#
#
# Elastic Compliance Matrix: (Units=1/GPa)
#
#
# Indices 1 2 3 4 5 6 
#
# 1 0.032939 -0.010909 -0.006125 0.000000 0.000000 0.000000
# 2 -0.010909 0.015909 -0.007554 0.000000 0.000000 0.000000
# 3 -0.006125 -0.007554 0.018810 0.000000 0.000000 0.000000
# 4 0.000000 0.000000 0.000000 0.045801 0.000000 0.000000
# 5 0.000000 0.000000 0.000000 0.000000 0.078709 0.000000
# 6 0.000000 0.000000 0.000000 0.000000 0.000000 0.029520
#
#
# Mechanical properties :
#
#
# Convention : Reuss Voigt Hill
#
# Bulk Modulus (GPa) = 54.11293 73.22979 63.67136
# Shear Modulus (GPa) = 18.04894 21.46373 19.75633
#
# Velocity S-wave (km/s) = 3.26945 3.56534 3.42060
# Velocity P-wave (km/s) = 6.80442 7.76649 7.30132
#
# Compressibility (1/GPa) = 0.01847987
#
# Stress axis : x y z
#
# Youngs Moduli (GPa) = 30.35929 62.85779 53.16434
#
# Poissons Ratio (x) = 0.68571 0.32565
# Poissons Ratio (y) = 0.33119 0.40163
# Poissons Ratio (z) = 0.18596 0.47486
#
# Static dielectric constant tensor:
#      x y z
#    x 1.571380 0.000000 0.000000 
#    y 0.000000 1.525910 0.000000 
#    z 0.000000 0.000000 1.615450 
# 
# From -- ./inp_files/6077.got.cif
#   From: 2010.05.17/outbox.cif.g08.bks.cpg/sg46_4_cif.got.tgz:6077.got - 2010.06.03 19:58:25.
