data_PCOD9378602
_publ_section_title
;
Structure prediction by ZEFSAII (Michael W. Deem and Ramdas Pophale) SiO2 
 PCOD9378602
Probable space group: I M A 2
;
_chemical_formula_sum "Si O2"
_cell_formula_units_Z 64
_cell_length_a 8.731468
_cell_length_b 31.074259
_cell_length_c 14.556417
_cell_angle_alpha 90.000000
_cell_angle_beta 90.000000
_cell_angle_gamma 90.000000
_cell_volume 3949.503803
_symmetry_space_group_name_H-M "I M A 2"
_symmetry_group_IT_number 46
_symmetry_cell_setting 'orthorhombic'
loop_
_space_group_symop_operation_xyz
x,y,z
-x,-y,z
1/2-x,y,z
1/2+x,-y,z
1/2+x,1/2+y,1/2+z
1/2-x,1/2-y,1/2+z
-x,1/2+y,1/2+z
x,1/2-y,1/2+z
loop_
_atom_site_type_symbol
_atom_site_label
_atom_site_fract_x
_atom_site_fract_y
_atom_site_fract_z
Si Si1 0.568126 0.230400 0.151330
Si Si2 0.575083 0.677598 0.139920
Si Si3 0.065060 0.453626 0.266366
Si Si4 0.565734 0.046043 0.561193
Si Si5 0.931253 0.700985 0.833021
Si Si6 0.568798 0.215996 0.938392
Si Si7 0.569838 0.133804 0.468694
Si Si8 0.072570 0.135155 0.838508
O O1 0.750000 0.237971 0.159213
O O2 0.476537 0.274631 0.164401
O O3 0.513111 0.200542 0.234178
O O4 0.535971 0.215600 0.047326
O O5 0.750000 0.677074 0.104693
O O6 0.569382 0.650226 0.232456
O O7 0.463247 0.659451 0.062869
O O8 0.250000 0.454668 0.261887
O O9 0.019341 0.414320 0.333019
O O10 0.000000 0.500000 0.294783
O O11 0.002034 0.445668 0.163086
O O12 0.750000 0.044246 0.568584
O O13 0.524627 0.084895 0.492861
O O14 0.500000 0.000000 0.531430
O O15 0.750000 0.703605 0.821389
O O16 0.986257 0.743672 0.888971
O O17 0.978226 0.659166 0.891158
O O18 0.750000 0.222664 0.925764
O O19 0.519845 0.170636 0.894717
O O20 0.750000 0.135288 0.447551
O O21 0.250000 0.136435 0.869045
#
# Coordination Sequence:
#
# PCOD9378602 Si02
#       8
#     8   8   8   8   8   8   8   8
#     4  11  23  38  53  73 104 138 175 219 261 305
#     4  11  20  31  50  75 105 141 177 214 255 300
#     4  10  19  32  49  73 104 137 172 212 257 306
#     4  10  20  32  50  74 103 137 171 211 257 307
#     4  12  24  36  54  76 102 138 177 218 259 306
#     4  11  23  36  54  76 102 137 175 215 259 309
#     4  11  22  35  51  75 105 141 179 215 258 307
#     4  10  21  34  50  74 105 139 176 214 255 304
#
# _framework density 16.204567000000001
#
# number of rings (size 3 to 8) (size 9 to 14) (size 15 to 20)
#    0.000    1.250    3.750    4.125    0.000    4.500 
#    0.000    0.000    0.000    0.000    0.000    0.875 
#    0.000    6.000    0.000    0.000    0.000    0.000 
#
# Total GULP energy -178665.232065 kJ/mol
# GULP energy per Si atom -5583.288502 kJ/mol
# Density = 1.616768 g / cm^3
# Si number density = 16.204567 Si / 1000 Ang^3
#
#
#
# Elastic Constant Matrix: (Units=GPa)
#
#
# Indices 1 2 3 4 5 6 
#
# 1 51.5811 24.0019 17.8968 0.0000 0.0000 0.0000
# 2 24.0019 92.6677 13.8027 0.0000 -0.0001 0.0000
# 3 17.8968 13.8027 46.7605 0.0000 0.0007 0.0000
# 4 0.0000 0.0000 0.0000 18.2558 0.0001 0.0000
# 5 0.0000 -0.0001 0.0007 0.0001 59.7952 0.0000
# 6 0.0000 0.0000 0.0000 0.0000 0.0000 23.3307
#
#
#
# Elastic Compliance Matrix: (Units=1/GPa)
#
#
# Indices 1 2 3 4 5 6 
#
# 1 0.024524 -0.005182 -0.007857 0.000000 0.000000 0.000000
# 2 -0.005182 0.012382 -0.001672 0.000000 0.000000 0.000000
# 3 -0.007857 -0.001672 0.024886 0.000000 0.000000 0.000000
# 4 0.000000 0.000000 0.000000 0.054777 0.000000 0.000000
# 5 0.000000 0.000000 0.000000 0.000000 0.016724 0.000000
# 6 0.000000 0.000000 0.000000 0.000000 0.000000 0.042862
#
#
# Mechanical properties :
#
#
# Convention : Reuss Voigt Hill
#
# Bulk Modulus (GPa) = 30.89075 33.60134 32.24605
# Shear Modulus (GPa) = 23.10892 29.29686 26.20289
#
# Velocity S-wave (km/s) = 3.78044 4.25660 4.02556
# Velocity P-wave (km/s) = 6.17738 6.70365 6.44589
#
# Compressibility (1/GPa) = 0.03237215
#
# Stress axis : x y z
#
# Youngs Moduli (GPa) = 40.77613 80.75987 40.18311
#
# Poissons Ratio (x) = 0.41848 0.31571
# Poissons Ratio (y) = 0.21129 0.06718
# Poissons Ratio (z) = 0.32037 0.13501
#
# Static dielectric constant tensor:
#      x y z
#    x 1.543670 0.000000 0.000000 
#    y 0.000000 1.557800 0.000000 
#    z 0.000000 0.000000 1.528960 
# 
# From -- ./inp_files/14734.got.cif
#   From: 2010.05.17/outbox.cif.g08.bks.cpg/sg46_8_cif.got.tgz:14734.got - 2010.06.03 19:58:25.
