data_PCOD9378750
_publ_section_title
;
Structure prediction by ZEFSAII (Michael W. Deem and Ramdas Pophale) SiO2 
 PCOD9378750
Probable space group: I M A 2
;
_chemical_formula_sum "Si O2"
_cell_formula_units_Z 64
_cell_length_a 15.202505
_cell_length_b 22.377124
_cell_length_c 6.945140
_cell_angle_alpha 90.000000
_cell_angle_beta 90.000000
_cell_angle_gamma 90.000000
_cell_volume 2362.655644
_symmetry_space_group_name_H-M "I M A 2"
_symmetry_group_IT_number 46
_symmetry_cell_setting 'orthorhombic'
loop_
_space_group_symop_operation_xyz
x,y,z
-x,-y,z
1/2-x,y,z
1/2+x,-y,z
1/2+x,1/2+y,1/2+z
1/2-x,1/2-y,1/2+z
-x,1/2+y,1/2+z
x,1/2-y,1/2+z
loop_
_atom_site_type_symbol
_atom_site_label
_atom_site_fract_x
_atom_site_fract_y
_atom_site_fract_z
Si Si1 0.854205 0.172471 0.285900
Si Si2 0.905763 0.302907 0.374430
Si Si3 0.142515 0.955258 0.257226
Si Si4 0.847922 0.795513 0.046455
Si Si5 0.354663 0.051083 0.692628
Si Si6 0.144397 0.419624 0.648782
Si Si7 0.148240 0.570305 0.316378
Si Si8 0.086048 0.174982 0.656263
O O1 0.750000 0.168767 0.232886
O O2 0.866636 0.236243 0.386138
O O3 0.878425 0.106960 0.366960
O O4 0.912708 0.181117 0.097121
O O5 0.852994 0.358674 0.282206
O O6 0.994989 0.309688 0.258819
O O7 0.250000 0.959363 0.269940
O O8 0.111770 0.024049 0.274491
O O9 0.115369 0.939545 0.035295
O O10 0.750000 0.785534 0.122199
O O11 0.889042 0.851432 0.163606
O O12 0.894596 0.731871 0.026221
O O13 0.844400 0.819600 0.829749
O O14 0.250000 0.056301 0.644600
O O15 0.404795 0.106562 0.593676
O O16 0.386847 0.981932 0.675291
O O17 0.367257 0.061769 0.923960
O O18 0.250000 0.415028 0.678354
O O19 0.250000 0.553556 0.325273
#
# Coordination Sequence:
#
# PCOD9378750 Si02
#       8
#     8   8   8   8   8   8   8   8
#     4  10  19  33  52  72  97 132 169 201 240 297
#     4  11  21  32  48  74 105 131 160 205 256 295
#     4   7  11  22  43  69  91 113 150 199 239 273
#     4  10  19  33  52  72  97 132 169 201 240 297
#     4   8  14  27  47  69  93 124 163 201 237 286
#     4   7  11  22  43  69  91 113 150 199 239 273
#     4   8  14  27  47  69  93 124 163 201 237 286
#     4  11  21  32  48  74 105 131 160 205 256 295
#
# _framework density 27.088160999999999
#
# number of rings (size 3 to 8) (size 9 to 14) (size 15 to 20)
#    0.000    3.000    0.000    6.000    0.000    0.500 
#    0.000    0.000    0.000    3.750    0.000    3.500 
#    0.000    0.000    0.000    0.000    0.000    0.000 
#
# Total GULP energy -178462.761862 kJ/mol
# GULP energy per Si atom -5576.961308 kJ/mol
# Density = 2.702651 g / cm^3
# Si number density = 27.088161 Si / 1000 Ang^3
#
#
#
# Elastic Constant Matrix: (Units=GPa)
#
#
# Indices 1 2 3 4 5 6 
#
# 1 57.4321 25.2716 -3.9629 0.0000 0.0000 0.0000
# 2 25.2716 318.2649 54.9846 0.0000 0.0000 0.0000
# 3 -3.9629 54.9846 54.6710 0.0000 0.0000 0.0000
# 4 0.0000 0.0000 0.0000 55.5398 0.0000 0.0000
# 5 0.0000 0.0000 0.0000 0.0000 6.0317 0.0000
# 6 0.0000 0.0000 0.0000 0.0000 0.0000 30.4054
#
#
#
# Elastic Compliance Matrix: (Units=1/GPa)
#
#
# Indices 1 2 3 4 5 6 
#
# 1 0.018556 -0.002065 0.003422 0.000000 0.000000 0.000000
# 2 -0.002065 0.004032 -0.004205 0.000000 0.000000 0.000000
# 3 0.003422 -0.004205 0.022769 0.000000 0.000000 0.000000
# 4 0.000000 0.000000 0.000000 0.018005 0.000000 0.000000
# 5 0.000000 0.000000 0.000000 0.000000 0.165790 0.000000
# 6 0.000000 0.000000 0.000000 0.000000 0.000000 0.032889
#
#
# Mechanical properties :
#
#
# Convention : Reuss Voigt Hill
#
# Bulk Modulus (GPa) = 25.21377 64.77273 44.99325
# Shear Modulus (GPa) = 17.79623 42.00039 29.89831
#
# Velocity S-wave (km/s) = 2.56593 3.94192 3.32586
# Velocity P-wave (km/s) = 4.25522 6.68446 5.60308
#
# Compressibility (1/GPa) = 0.03966087
#
# Stress axis : x y z
#
# Youngs Moduli (GPa) = 53.88976 247.98563 43.92001
#
# Poissons Ratio (x) = 0.51198 -0.15027
# Poissons Ratio (y) = 0.11126 0.18470
# Poissons Ratio (z) = -0.18438 1.04285
#
# Static dielectric constant tensor:
#      x y z
#    x 2.078150 0.000000 0.000000 
#    y 0.000000 2.255430 0.000000 
#    z 0.000000 0.000000 2.233850 
# 
# From -- ./inp_files/6920.got.cif
#   From: 2010.05.17/outbox.cif.g08.bks.cpg/sg46_4_cif.got.tgz:6920.got - 2010.06.03 19:58:25.
