data_PCOD9378726
_publ_section_title
;
Structure prediction by ZEFSAII (Michael W. Deem and Ramdas Pophale) SiO2 
 PCOD9378726
Probable space group: I M A 2
;
_chemical_formula_sum "Si O2"
_cell_formula_units_Z 52
_cell_length_a 14.871483
_cell_length_b 9.371264
_cell_length_c 19.007830
_cell_angle_alpha 90.000000
_cell_angle_beta 90.000000
_cell_angle_gamma 90.000000
_cell_volume 2649.018497
_symmetry_space_group_name_H-M "I M A 2"
_symmetry_group_IT_number 46
_symmetry_cell_setting 'orthorhombic'
loop_
_space_group_symop_operation_xyz
x,y,z
-x,-y,z
1/2-x,y,z
1/2+x,-y,z
1/2+x,1/2+y,1/2+z
1/2-x,1/2-y,1/2+z
-x,1/2+y,1/2+z
x,1/2-y,1/2+z
loop_
_atom_site_type_symbol
_atom_site_label
_atom_site_fract_x
_atom_site_fract_y
_atom_site_fract_z
Si Si1 0.850999 0.196203 0.683180
Si Si2 0.355456 0.200534 0.643664
Si Si3 0.848950 0.826551 0.349794
Si Si4 0.105380 0.480098 0.706404
Si Si5 0.856944 0.054826 0.543978
Si Si6 0.500000 0.000000 0.431430
Si Si7 0.594049 0.544574 0.282046
O O1 0.750000 0.153380 0.666979
O O2 0.858446 0.363063 0.693431
O O3 0.895597 0.146116 0.610335
O O4 0.870257 0.106371 0.753334
O O5 0.250000 0.185310 0.664567
O O6 0.378245 0.367146 0.643746
O O7 0.413368 0.131122 0.707354
O O8 0.365377 0.107869 0.573541
O O9 0.750000 0.853096 0.383036
O O10 0.857343 0.657973 0.331823
O O11 0.851370 0.908515 0.274983
O O12 0.937461 0.888298 0.388371
O O13 0.000000 0.500000 0.718694
O O14 0.750000 0.080688 0.527799
O O15 0.924295 0.075398 0.479604
O O16 0.500000 0.500000 0.314538
#
# Coordination Sequence:
#
# PCOD9378726 Si02
#       7
#     8   8   8   8   8   4   8
#     4  10  19  33  58  91 117 145 179 235 307 359
#     4   9  18  34  55  85 120 155 185 234 306 363
#     4  11  23  41  59  84 121 160 199 246 298 358
#     4  11  20  32  57  93 122 149 186 241 308 360
#     4   9  21  38  60  85 112 149 198 244 292 353
#     4  12  24  38  64  80 106 162 218 246 278 344
#     4  10  19  32  58  87 118 145 184 239 300 360
#
# _framework density 19.629912000000001
#
# number of rings (size 3 to 8) (size 9 to 14) (size 15 to 20)
#    0.000    1.846    0.769    6.923    6.462    0.000 
#    0.000    0.000    3.385    0.000    0.000    0.000 
#    0.000    0.000    0.000    0.000    0.000    0.000 
#
# Total GULP energy -144742.939335 kJ/mol
# GULP energy per Si atom -5567.036128 kJ/mol
# Density = 1.958523 g / cm^3
# Si number density = 19.629912 Si / 1000 Ang^3
#
#
#
# Elastic Constant Matrix: (Units=GPa)
#
#
# Indices 1 2 3 4 5 6 
#
# 1 112.0593 15.6490 25.5553 0.0000 0.0000 0.0000
# 2 15.6490 113.5678 7.8228 0.0000 0.0000 0.0000
# 3 25.5553 7.8228 41.2474 0.0000 0.0000 0.0000
# 4 0.0000 0.0000 0.0000 6.1087 0.0000 0.0000
# 5 0.0000 0.0000 0.0000 0.0000 44.0481 0.0000
# 6 0.0000 0.0000 0.0000 0.0000 0.0000 26.4902
#
#
#
# Elastic Compliance Matrix: (Units=1/GPa)
#
#
# Indices 1 2 3 4 5 6 
#
# 1 0.010506 -0.001013 -0.006317 0.000000 0.000000 0.000000
# 2 -0.001013 0.009019 -0.001083 0.000000 0.000000 0.000000
# 3 -0.006317 -0.001083 0.028363 0.000000 0.000000 0.000000
# 4 0.000000 0.000000 0.000000 0.163700 0.000000 0.000000
# 5 0.000000 0.000000 0.000000 0.000000 0.022702 0.000000
# 6 0.000000 0.000000 0.000000 0.000000 0.000000 0.037750
#
#
# Mechanical properties :
#
#
# Convention : Reuss Voigt Hill
#
# Bulk Modulus (GPa) = 32.19273 40.54763 36.37018
# Shear Modulus (GPa) = 16.71006 29.85255 23.28131
#
# Velocity S-wave (km/s) = 2.92079 3.90393 3.44759
# Velocity P-wave (km/s) = 5.27353 6.40483 5.86651
#
# Compressibility (1/GPa) = 0.03106292
#
# Stress axis : x y z
#
# Youngs Moduli (GPa) = 95.18505 110.87150 35.25698
#
# Poissons Ratio (x) = 0.11226 0.22272
# Poissons Ratio (y) = 0.09638 0.03819
# Poissons Ratio (z) = 0.60128 0.12010
#
# Static dielectric constant tensor:
#      x y z
#    x 1.777940 0.000000 0.000000 
#    y 0.000000 1.545110 0.000000 
#    z 0.000000 0.000000 1.712290 
# 
# From -- ./inp_files/21964.got.cif
#   From: 2010.05.17/outbox.cif.g08.bks.cpg/sg46_11_cif.got.tgz:21964.got - 2010.06.03 19:58:25.
