data_PCOD9378241
_publ_section_title
;
Structure prediction by ZEFSAII (Michael W. Deem and Ramdas Pophale) SiO2 
 PCOD9378241
Probable space group: I M A 2
;
_chemical_formula_sum "Si O2"
_cell_formula_units_Z 64
_cell_length_a 8.813725
_cell_length_b 13.460028
_cell_length_c 29.373401
_cell_angle_alpha 90.000000
_cell_angle_beta 90.000000
_cell_angle_gamma 90.000000
_cell_volume 3484.654249
_symmetry_space_group_name_H-M "I M A 2"
_symmetry_group_IT_number 46
_symmetry_cell_setting 'orthorhombic'
loop_
_space_group_symop_operation_xyz
x,y,z
-x,-y,z
1/2-x,y,z
1/2+x,-y,z
1/2+x,1/2+y,1/2+z
1/2-x,1/2-y,1/2+z
-x,1/2+y,1/2+z
x,1/2-y,1/2+z
loop_
_atom_site_type_symbol
_atom_site_label
_atom_site_fract_x
_atom_site_fract_y
_atom_site_fract_z
Si Si1 0.569090 0.604820 0.238190
Si Si2 0.068430 0.809791 0.202857
Si Si3 0.070538 0.294620 0.612268
Si Si4 0.931494 0.108301 0.932281
Si Si5 0.930885 0.108371 0.571922
Si Si6 0.567519 0.180135 0.830558
Si Si7 0.069463 0.266284 0.513089
Si Si8 0.931192 0.397439 0.798496
O O1 0.500000 0.500000 0.222334
O O2 0.750000 0.603378 0.234186
O O3 0.501336 0.700987 0.212805
O O4 0.518710 0.621605 0.290814
O O5 0.250000 0.802127 0.202595
O O6 0.022383 0.876696 0.246028
O O7 0.008952 0.847331 0.154336
O O8 0.250000 0.290885 0.619769
O O9 0.043522 0.329663 0.560093
O O10 0.001133 0.183197 0.609283
O O11 0.750000 0.106387 0.936988
O O12 0.967598 0.141658 0.880752
O O13 0.000000 0.000000 0.940089
O O14 0.001557 0.182129 0.969322
O O15 0.750000 0.107067 0.574561
O O16 0.987707 0.162564 0.525599
O O17 0.000000 0.000000 0.575993
O O18 0.750000 0.170656 0.822537
O O19 0.527830 0.296745 0.825214
O O20 0.250000 0.251671 0.509137
O O21 0.750000 0.405624 0.799644
O O22 0.000000 0.500000 0.815402
#
# Coordination Sequence:
#
# PCOD9378241 Si02
#       8
#     8   8   8   8   8   8   8   8
#     4  11  21  33  51  77 110 146 183 225 275 333
#     4  10  20  35  54  78 110 146 184 232 277 326
#     4   9  19  34  53  78 109 143 183 230 274 324
#     4  11  22  37  60  85 112 146 184 228 281 338
#     4  10  18  32  54  79 108 145 185 226 276 328
#     4   9  20  38  57  81 112 144 182 229 276 329
#     4   9  20  37  55  79 112 145 186 235 279 332
#     4   9  19  36  57  81 110 143 182 224 272 325
#
# _framework density 18.366242
#
# number of rings (size 3 to 8) (size 9 to 14) (size 15 to 20)
#    0.750    1.500    0.000    4.500    0.000    5.000 
#    0.000    3.750    0.000    3.000    0.000    0.000 
#    0.000    0.000    0.000    0.000    0.000    0.000 
#
# Total GULP energy -178382.797331 kJ/mol
# GULP energy per Si atom -5574.462417 kJ/mol
# Density = 1.832444 g / cm^3
# Si number density = 18.366242 Si / 1000 Ang^3
#
#
#
# Elastic Constant Matrix: (Units=GPa)
#
#
# Indices 1 2 3 4 5 6 
#
# 1 61.7452 -5.7001 16.7671 0.0000 0.0000 0.0000
# 2 -5.7001 32.5735 -18.4517 0.0000 0.0000 0.0000
# 3 16.7671 -18.4517 56.3280 0.0000 0.0000 0.0000
# 4 0.0000 0.0000 0.0000 11.0758 0.0000 0.0000
# 5 0.0000 0.0000 0.0000 0.0000 14.2268 0.0000
# 6 0.0000 0.0000 0.0000 0.0000 0.0000 26.0492
#
#
#
# Elastic Compliance Matrix: (Units=1/GPa)
#
#
# Indices 1 2 3 4 5 6 
#
# 1 0.017620 0.000138 -0.005200 0.000000 0.000000 0.000000
# 2 0.000138 0.037695 0.012307 0.000000 0.000000 0.000000
# 3 -0.005200 0.012307 0.023332 0.000000 0.000000 0.000000
# 4 0.000000 0.000000 0.000000 0.090287 0.000000 0.000000
# 5 0.000000 0.000000 0.000000 0.000000 0.070290 0.000000
# 6 0.000000 0.000000 0.000000 0.000000 0.000000 0.038389
#
#
# Mechanical properties :
#
#
# Convention : Reuss Voigt Hill
#
# Bulk Modulus (GPa) = 10.73670 15.09749 12.91710
# Shear Modulus (GPa) = 16.99696 20.80578 18.90137
#
# Velocity S-wave (km/s) = 3.04541 3.36940 3.21150
# Velocity P-wave (km/s) = 4.26903 4.83479 4.56070
#
# Compressibility (1/GPa) = 0.09313845
#
# Stress axis : x y z
#
# Youngs Moduli (GPa) = 56.75250 26.52839 42.85868
#
# Poissons Ratio (x) = -0.00366 0.22286
# Poissons Ratio (y) = -0.00782 -0.52746
# Poissons Ratio (z) = 0.29511 -0.32649
#
# Static dielectric constant tensor:
#      x y z
#    x 1.608900 0.000000 0.000000 
#    y 0.000000 1.623900 0.000000 
#    z 0.000000 0.000000 1.650300 
# 
# From -- ./inp_files/25226.got.cif
#   From: 2010.05.17/outbox.cif.g08.bks.cpg/sg46_13_cif.got.tgz:25226.got - 2010.06.03 19:58:25.
