data_PCOD9378752
_publ_section_title
;
Structure prediction by ZEFSAII (Michael W. Deem and Ramdas Pophale) SiO2 
 PCOD9378752
Probable space group: I M A 2
;
_chemical_formula_sum "Si O2"
_cell_formula_units_Z 64
_cell_length_a 8.744160
_cell_length_b 19.198595
_cell_length_c 21.772705
_cell_angle_alpha 90.000000
_cell_angle_beta 90.000000
_cell_angle_gamma 90.000000
_cell_volume 3655.105621
_symmetry_space_group_name_H-M "I M A 2"
_symmetry_group_IT_number 46
_symmetry_cell_setting 'orthorhombic'
loop_
_space_group_symop_operation_xyz
x,y,z
-x,-y,z
1/2-x,y,z
1/2+x,-y,z
1/2+x,1/2+y,1/2+z
1/2-x,1/2-y,1/2+z
-x,1/2+y,1/2+z
x,1/2-y,1/2+z
loop_
_atom_site_type_symbol
_atom_site_label
_atom_site_fract_x
_atom_site_fract_y
_atom_site_fract_z
Si Si1 0.063745 0.214335 0.117820
Si Si2 0.075792 0.434818 0.115012
Si Si3 0.568000 0.074913 0.810697
Si Si4 0.933015 0.073268 0.068503
Si Si5 0.435114 0.072974 0.475096
Si Si6 0.565668 0.876912 0.939671
Si Si7 0.564929 0.774327 0.485138
Si Si8 0.427070 0.182078 0.716285
O O1 0.250000 0.212788 0.117216
O O2 0.016595 0.247509 0.183251
O O3 0.996301 0.138087 0.107486
O O4 0.016962 0.258155 0.056083
O O5 0.250000 0.454215 0.105153
O O6 0.012462 0.425353 0.046813
O O7 0.071324 0.368460 0.157153
O O8 0.000000 0.500000 0.147149
O O9 0.750000 0.069575 0.811606
O O10 0.502314 0.091139 0.878159
O O11 0.517414 0.139531 0.767610
O O12 0.500000 0.000000 0.790872
O O13 0.750000 0.072444 0.067823
O O14 0.000000 0.000000 0.090582
O O15 0.996904 0.086373 0.999701
O O16 0.250000 0.069625 0.470810
O O17 0.484225 0.151528 0.456275
O O18 0.500000 0.000000 0.449034
O O19 0.750000 0.883418 0.940361
O O20 0.525838 0.794698 0.946746
O O21 0.750000 0.778039 0.488168
O O22 0.250000 0.190379 0.736604
#
# Coordination Sequence:
#
# PCOD9378752 Si02
#       8
#     8   8   8   8   8   8   8   8
#     4   9  17  32  52  74 101 134 170 210 256 310
#     4   9  16  25  40  61  90 126 163 198 232 277
#     4  12  25  39  53  73 104 139 179 221 260 306
#     4  11  21  34  53  79 108 136 168 210 262 316
#     4   9  15  25  40  64  95 127 159 193 236 286
#     4  10  20  36  57  76  97 132 177 221 267 315
#     4   8  14  28  50  71  95 128 165 205 253 306
#     4  10  19  33  52  72  99 136 175 212 252 300
#
# _framework density 17.509754000000001
#
# number of rings (size 3 to 8) (size 9 to 14) (size 15 to 20)
#    0.000    2.250    1.250    4.125    0.000    2.000 
#    0.000    3.125    0.000    0.000    0.000    0.875 
#    0.000    2.000    0.000    0.000    0.000    0.000 
#
# Total GULP energy -178199.516931 kJ/mol
# GULP energy per Si atom -5568.734904 kJ/mol
# Density = 1.746990 g / cm^3
# Si number density = 17.509754 Si / 1000 Ang^3
#
#
#
# Elastic Constant Matrix: (Units=GPa)
#
#
# Indices 1 2 3 4 5 6 
#
# 1 58.7097 38.2567 27.0762 0.0000 0.0000 0.0000
# 2 38.2567 135.4458 26.9882 0.0000 0.0000 0.0000
# 3 27.0762 26.9882 53.5155 0.0000 0.0000 0.0000
# 4 0.0000 0.0000 0.0000 26.7559 0.0000 0.0000
# 5 0.0000 0.0000 0.0000 0.0000 18.9483 0.0000
# 6 0.0000 0.0000 0.0000 0.0000 0.0000 25.7226
#
#
#
# Elastic Compliance Matrix: (Units=1/GPa)
#
#
# Indices 1 2 3 4 5 6 
#
# 1 0.024973 -0.005043 -0.010092 0.000000 0.000000 0.000000
# 2 -0.005043 0.009226 -0.002101 0.000000 0.000000 0.000000
# 3 -0.010092 -0.002101 0.024852 0.000000 0.000000 0.000000
# 4 0.000000 0.000000 0.000000 0.037375 0.000000 0.000000
# 5 0.000000 0.000000 0.000000 0.000000 0.052775 0.000000
# 6 0.000000 0.000000 0.000000 0.000000 0.000000 0.038876
#
#
# Mechanical properties :
#
#
# Convention : Reuss Voigt Hill
#
# Bulk Modulus (GPa) = 40.68543 48.03478 44.36011
# Shear Modulus (GPa) = 21.66909 24.64203 23.15556
#
# Velocity S-wave (km/s) = 3.52169 3.75551 3.64048
# Velocity P-wave (km/s) = 6.31052 6.80425 6.56203
#
# Compressibility (1/GPa) = 0.02457882
#
# Stress axis : x y z
#
# Youngs Moduli (GPa) = 40.04263 108.38847 40.23816
#
# Poissons Ratio (x) = 0.54658 0.40609
# Poissons Ratio (y) = 0.20193 0.08455
# Poissons Ratio (z) = 0.40412 0.22776
#
# Static dielectric constant tensor:
#      x y z
#    x 1.595000 0.000000 0.000000 
#    y 0.000000 1.659430 0.000000 
#    z 0.000000 0.000000 1.590180 
# 
# From -- ./inp_files/23277.got.cif
#   From: 2010.05.17/outbox.cif.g08.bks.cpg/sg46_12_cif.got.tgz:23277.got - 2010.06.03 19:58:25.
