data_PCOD9378868
_publ_section_title
;
Structure prediction by ZEFSAII (Michael W. Deem and Ramdas Pophale) SiO2 
 PCOD9378868
Probable space group: I M A 2
;
_chemical_formula_sum "Si O2"
_cell_formula_units_Z 48
_cell_length_a 16.491965
_cell_length_b 15.090079
_cell_length_c 8.109891
_cell_angle_alpha 90.000000
_cell_angle_beta 90.000000
_cell_angle_gamma 90.000000
_cell_volume 2018.268467
_symmetry_space_group_name_H-M "I M A 2"
_symmetry_group_IT_number 46
_symmetry_cell_setting 'orthorhombic'
loop_
_space_group_symop_operation_xyz
x,y,z
-x,-y,z
1/2-x,y,z
1/2+x,-y,z
1/2+x,1/2+y,1/2+z
1/2-x,1/2-y,1/2+z
-x,1/2+y,1/2+z
x,1/2-y,1/2+z
loop_
_atom_site_type_symbol
_atom_site_label
_atom_site_fract_x
_atom_site_fract_y
_atom_site_fract_z
Si Si1 0.422627 0.377694 0.282960
Si Si2 0.838205 0.226464 0.021489
Si Si3 0.589264 0.691451 0.650213
Si Si4 0.920767 0.357589 0.825489
Si Si5 0.155479 0.483819 0.717097
Si Si6 0.895617 0.442300 0.361876
O O1 0.405046 0.333298 0.459389
O O2 0.404742 0.296897 0.162937
O O3 0.516717 0.407355 0.303046
O O4 0.374828 0.470132 0.257082
O O5 0.750000 0.268066 0.016917
O O6 0.908104 0.297293 0.984514
O O7 0.844094 0.146288 0.888466
O O8 0.854867 0.181824 0.196813
O O9 0.504809 0.660605 0.734759
O O10 0.650230 0.621704 0.734722
O O11 0.894838 0.458890 0.849665
O O12 0.250000 0.508856 0.706964
O O13 0.108875 0.514427 0.547395
#
# Coordination Sequence:
#
# PCOD9378868 Si02
#       6
#     8   8   8   8   8   8
#     4  10  19  33  58  78 109 138 188 230 270 326
#     4  11  20  32  53  81 109 137 177 225 284 334
#     4  11  19  36  56  83 105 148 184 235 271 332
#     4  11  19  34  54  79 107 143 179 227 277 335
#     4  10  20  34  55  81 111 147 190 228 275 337
#     4   9  17  33  54  77 104 143 180 225 269 327
#
# _framework density 23.782762999999999
#
# number of rings (size 3 to 8) (size 9 to 14) (size 15 to 20)
#    0.000    1.667    5.000    3.500    0.000    0.000 
#    0.000    5.833    3.667    0.000    0.000    0.000 
#    0.000    0.000    0.000    0.000    0.000    0.000 
#
# Total GULP energy -133867.176910 kJ/mol
# GULP energy per Si atom -5577.799038 kJ/mol
# Density = 2.372863 g / cm^3
# Si number density = 23.782763 Si / 1000 Ang^3
#
#
#
# Elastic Constant Matrix: (Units=GPa)
#
#
# Indices 1 2 3 4 5 6 
#
# 1 46.5423 -9.0403 -1.1623 0.0000 0.0000 0.0000
# 2 -9.0403 154.5901 18.6739 0.0000 0.0000 0.0000
# 3 -1.1623 18.6739 33.1618 0.0000 0.0000 0.0000
# 4 0.0000 0.0000 0.0000 32.1190 0.0000 0.0000
# 5 0.0000 0.0000 0.0000 0.0000 7.8976 0.0000
# 6 0.0000 0.0000 0.0000 0.0000 0.0000 24.9556
#
#
#
# Elastic Compliance Matrix: (Units=1/GPa)
#
#
# Indices 1 2 3 4 5 6 
#
# 1 0.021733 0.001265 0.000049 0.000000 0.000000 0.000000
# 2 0.001265 0.007014 -0.003906 0.000000 0.000000 0.000000
# 3 0.000049 -0.003906 0.032356 0.000000 0.000000 0.000000
# 4 0.000000 0.000000 0.000000 0.031134 0.000000 0.000000
# 5 0.000000 0.000000 0.000000 0.000000 0.126621 0.000000
# 6 0.000000 0.000000 0.000000 0.000000 0.000000 0.040071
#
#
# Mechanical properties :
#
#
# Convention : Reuss Voigt Hill
#
# Bulk Modulus (GPa) = 17.88241 27.91521 22.89881
# Shear Modulus (GPa) = 17.68330 28.04930 22.86630
#
# Velocity S-wave (km/s) = 2.72974 3.43796 3.10411
# Velocity P-wave (km/s) = 4.17980 5.24619 4.74306
#
# Compressibility (1/GPa) = 0.05592088
#
# Stress axis : x y z
#
# Youngs Moduli (GPa) = 46.01348 142.56231 30.90596
#
# Poissons Ratio (x) = -0.18033 -0.00153
# Poissons Ratio (y) = -0.05820 0.12071
# Poissons Ratio (z) = -0.00227 0.55679
#
# Static dielectric constant tensor:
#      x y z
#    x 1.885060 0.000000 0.000000 
#    y 0.000000 2.051580 0.000000 
#    z 0.000000 0.000000 1.996640 
# 
# From -- ./inp_files/6598.got.cif
#   From: 2010.05.17/outbox.cif.g08.bks.cpg/sg46_4_cif.got.tgz:6598.got - 2010.06.03 19:58:25.
