data_PCOD9378210
_publ_section_title
;
Structure prediction by ZEFSAII (Michael W. Deem and Ramdas Pophale) SiO2 
 PCOD9378210
Probable space group: I M A 2
;
_chemical_formula_sum "Si O2"
_cell_formula_units_Z 56
_cell_length_a 33.195492
_cell_length_b 12.808300
_cell_length_c 5.335462
_cell_angle_alpha 90.000000
_cell_angle_beta 90.000000
_cell_angle_gamma 90.000000
_cell_volume 2268.520103
_symmetry_space_group_name_H-M "I M A 2"
_symmetry_group_IT_number 46
_symmetry_cell_setting 'orthorhombic'
loop_
_space_group_symop_operation_xyz
x,y,z
-x,-y,z
1/2-x,y,z
1/2+x,-y,z
1/2+x,1/2+y,1/2+z
1/2-x,1/2-y,1/2+z
-x,1/2+y,1/2+z
x,1/2-y,1/2+z
loop_
_atom_site_type_symbol
_atom_site_label
_atom_site_fract_x
_atom_site_fract_y
_atom_site_fract_z
Si Si1 0.657943 0.866911 0.097850
Si Si2 0.750000 0.319162 0.570320
Si Si3 0.913096 0.310532 0.537544
Si Si4 0.250000 0.311801 0.612655
Si Si5 0.030174 0.099223 0.456135
Si Si6 0.622620 0.873886 0.597936
Si Si7 0.499591 0.122252 0.955642
Si Si8 0.832741 0.319988 0.691959
O O1 0.705965 0.860490 0.064370
O O2 0.647258 0.916054 0.362873
O O3 0.636349 0.749873 0.110373
O O4 0.637864 0.918638 0.858297
O O5 0.750000 0.272888 0.287351
O O6 0.791284 0.378110 0.631453
O O7 0.910524 0.282940 0.243538
O O8 0.874727 0.374686 0.630432
O O9 0.957039 0.355405 0.570262
O O10 0.250000 0.219173 0.405556
O O11 0.075728 0.097740 0.557953
O O12 0.033591 0.138555 0.169985
O O13 0.007374 0.165222 0.674329
O O14 0.000000 0.000000 0.420662
O O15 0.500000 0.000000 0.899579
O O16 0.832197 0.228507 0.472137
#
# Coordination Sequence:
#
# PCOD9378210 Si02
#       8
#     8   4   8   4   8   8   8   8
#     4  10  19  30  48  75 107 140 163 211 262 322
#     4   8  12  20  34  58  84 121 149 166 222 286
#     4  10  19  33  48  73 101 128 166 212 260 297
#     4  12  16  30  48  70 110 147 173 188 262 336
#     4  10  21  37  54  68  94 134 177 227 255 301
#     4  10  18  32  45  70 100 129 171 212 260 302
#     4  10  21  38  53  69  95 135 182 219 263 318
#     4   8  14  23  39  59  92 121 145 186 229 286
#
# _framework density 24.685700000000001
#
# number of rings (size 3 to 8) (size 9 to 14) (size 15 to 20)
#    0.000    2.286    2.857    1.714    0.000    0.000 
#   15.429    0.000    0.000    0.000    0.000    0.000 
#    0.000   36.571    0.000    6.857    0.000    0.000 
#
# Total GULP energy -155902.850753 kJ/mol
# GULP energy per Si atom -5567.958955 kJ/mol
# Density = 2.462951 g / cm^3
# Si number density = 24.685700 Si / 1000 Ang^3
#
#
#
# Elastic Constant Matrix: (Units=GPa)
#
#
# Indices 1 2 3 4 5 6 
#
# 1 173.2331 -0.7750 0.9295 -0.0084 -0.0024 -0.0026
# 2 -0.7750 52.3162 -3.7585 -0.0003 -0.0018 -0.0002
# 3 0.9295 -3.7585 170.9630 -0.0106 -0.0080 -0.0007
# 4 -0.0084 -0.0003 -0.0106 7.0442 -0.0039 -0.0013
# 5 -0.0024 -0.0018 -0.0080 -0.0039 16.4731 0.0018
# 6 -0.0026 -0.0002 -0.0007 -0.0013 0.0018 5.0583
#
#
#
# Elastic Compliance Matrix: (Units=1/GPa)
#
#
# Indices 1 2 3 4 5 6 
#
# 1 0.005773 0.000083 -0.000030 0.000007 0.000001 0.000003
# 2 0.000083 0.019146 0.000420 0.000002 0.000002 0.000001
# 3 -0.000030 0.000420 0.005859 0.000009 0.000003 0.000001
# 4 0.000007 0.000002 0.000009 0.141961 0.000033 0.000036
# 5 0.000001 0.000002 0.000003 0.000033 0.060705 -0.000021
# 6 0.000003 0.000001 0.000001 0.000036 -0.000021 0.197696
#
#
# Mechanical properties :
#
#
# Convention : Reuss Voigt Hill
#
# Bulk Modulus (GPa) = 31.51958 43.25605 37.38781
# Shear Modulus (GPa) = 11.34385 32.38952 21.86669
#
# Velocity S-wave (km/s) = 2.14599 3.62619 2.97947
# Velocity P-wave (km/s) = 4.35160 5.92394 5.19757
#
# Compressibility (1/GPa) = 0.03172631
#
# Stress axis : x y z
#
# Youngs Moduli (GPa) = 173.21716 52.23024 170.68861
#
# Poissons Ratio (x) = -0.00436 0.00504
# Poissons Ratio (y) = -0.01445 -0.07177
# Poissons Ratio (z) = 0.00512 -0.02196
#
# Static dielectric constant tensor:
#      x y z
#    x 2.025740 0.000000 0.000000 
#    y 0.000000 2.229850 -0.000010 
#    z 0.000000 -0.000010 2.004070 
# 
# From -- ./inp_files/2735.got.cif
#   From: 2010.05.17/outbox.cif.g08.bks.cpg/sg46_2_cif.got.tgz:2735.got - 2010.06.03 19:58:25.
