data_PCOD9378406
_publ_section_title
;
Structure prediction by ZEFSAII (Michael W. Deem and Ramdas Pophale) SiO2 
 PCOD9378406
Probable space group: I M A 2
;
_chemical_formula_sum "Si O2"
_cell_formula_units_Z 44
_cell_length_a 14.352236
_cell_length_b 9.598830
_cell_length_c 16.896206
_cell_angle_alpha 90.000000
_cell_angle_beta 90.000000
_cell_angle_gamma 90.000000
_cell_volume 2327.700303
_symmetry_space_group_name_H-M "I M A 2"
_symmetry_group_IT_number 46
_symmetry_cell_setting 'orthorhombic'
loop_
_space_group_symop_operation_xyz
x,y,z
-x,-y,z
1/2-x,y,z
1/2+x,-y,z
1/2+x,1/2+y,1/2+z
1/2-x,1/2-y,1/2+z
-x,1/2+y,1/2+z
x,1/2-y,1/2+z
loop_
_atom_site_type_symbol
_atom_site_label
_atom_site_fract_x
_atom_site_fract_y
_atom_site_fract_z
Si Si1 0.109540 0.860361 0.097290
Si Si2 0.250000 0.675249 0.359729
Si Si3 0.250000 0.339628 0.996598
Si Si4 0.750000 0.771844 0.309016
Si Si5 0.750000 0.422939 0.732488
Si Si6 0.411353 0.360660 0.520162
Si Si7 0.250000 0.664274 0.024599
Si Si8 0.094274 0.440256 0.339925
O O1 0.155957 0.900259 0.180589
O O2 0.160473 0.720123 0.071247
O O3 0.000415 0.846234 0.077467
O O4 0.136421 0.992990 0.042698
O O5 0.250000 0.799413 0.296233
O O6 0.250000 0.753957 0.442498
O O7 0.162010 0.572216 0.352248
O O8 0.250000 0.305720 0.902951
O O9 0.159347 0.264566 0.031010
O O10 0.250000 0.501751 0.011546
O O11 0.842326 0.676279 0.296357
O O12 0.750000 0.919311 0.264985
O O13 0.434087 0.375993 0.426438
O O14 0.000000 0.500000 0.301739
#
# Coordination Sequence:
#
# PCOD9378406 Si02
#       8
#     8   4   4   4   4   8   4   8
#     4  10  21  37  65  81 122 158 211 239 298 373
#     4  11  20  36  62  87 126 158 198 249 308 367
#     4  10  20  31  62  93 124 142 205 269 307 325
#     4   9  21  36  58  90 126 157 193 251 309 363
#     4  11  23  41  55  93 128 162 190 241 318 373
#     4  10  18  38  62  93 106 158 210 258 286 354
#     4  11  18  34  59  93 116 159 196 268 298 348
#     4  10  18  37  66  90 113 150 210 256 296 348
#
# _framework density 18.902775999999999
#
# number of rings (size 3 to 8) (size 9 to 14) (size 15 to 20)
#    0.000    1.818    4.545    1.636    0.000    0.727 
#    6.545    7.273    0.000    0.000    0.000    0.000 
#    0.000    0.000    0.000    0.000    0.000    0.000 
#
# Total GULP energy -122600.846795 kJ/mol
# GULP energy per Si atom -5572.765763 kJ/mol
# Density = 1.885975 g / cm^3
# Si number density = 18.902776 Si / 1000 Ang^3
#
#
#
# Elastic Constant Matrix: (Units=GPa)
#
#
# Indices 1 2 3 4 5 6 
#
# 1 154.7878 75.8079 32.2165 0.0000 0.0000 0.0000
# 2 75.8079 162.9858 21.2151 0.0000 0.0000 0.0000
# 3 32.2165 21.2151 49.0373 0.0000 0.0000 0.0000
# 4 0.0000 0.0000 0.0000 27.9763 0.0000 0.0000
# 5 0.0000 0.0000 0.0000 0.0000 17.8392 0.0000
# 6 0.0000 0.0000 0.0000 0.0000 0.0000 -52.3989
#
#
#
# Elastic Compliance Matrix: (Units=1/GPa)
#
#
# Indices 1 2 3 4 5 6 
#
# 1 0.009197 -0.003699 -0.004442 0.000000 0.000000 0.000000
# 2 -0.003699 0.007990 -0.001026 0.000000 0.000000 0.000000
# 3 -0.004442 -0.001026 0.023755 0.000000 0.000000 0.000000
# 4 0.000000 0.000000 0.000000 0.035744 0.000000 0.000000
# 5 0.000000 0.000000 0.000000 0.000000 0.056056 0.000000
# 6 0.000000 0.000000 0.000000 0.000000 0.000000 -0.019084
#
#
# Mechanical properties :
#
#
# Convention : Reuss Voigt Hill
#
# Bulk Modulus (GPa) = 44.23458 69.47666 56.85562
# Shear Modulus (GPa) = 35.83523 14.52141 25.17832
#
# Velocity S-wave (km/s) = 4.35876 2.77468 3.65360
# Velocity P-wave (km/s) = 6.98453 6.86292 6.92399
#
# Compressibility (1/GPa) = 0.02260675
#
# Stress axis : x y z
#
# Youngs Moduli (GPa) = 108.73460 125.16029 42.09708
#
# Poissons Ratio (x) = 0.46302 0.18698
# Poissons Ratio (y) = 0.40226 0.04320
# Poissons Ratio (z) = 0.48295 0.12844
#
# Static dielectric constant tensor:
#      x y z
#    x 1.707210 0.000000 0.000000 
#    y 0.000000 1.626090 0.000000 
#    z 0.000000 0.000000 1.681770 
# 
# From -- ./inp_files/19365.got.cif
#   From: 2010.05.17/outbox.cif.g08.bks.cpg/sg46_10_cif.got.tgz:19365.got - 2010.06.03 19:58:25.
