data_PCOD9378067
_publ_section_title
;
Structure prediction by ZEFSAII (Michael W. Deem and Ramdas Pophale) SiO2 
 PCOD9378067
Probable space group: I M A 2
;
_chemical_formula_sum "Si O2"
_cell_formula_units_Z 56
_cell_length_a 8.274336
_cell_length_b 21.116210
_cell_length_c 14.348398
_cell_angle_alpha 90.000000
_cell_angle_beta 90.000000
_cell_angle_gamma 90.000000
_cell_volume 2506.989642
_symmetry_space_group_name_H-M "I M A 2"
_symmetry_group_IT_number 46
_symmetry_cell_setting 'orthorhombic'
loop_
_space_group_symop_operation_xyz
x,y,z
-x,-y,z
1/2-x,y,z
1/2+x,-y,z
1/2+x,1/2+y,1/2+z
1/2-x,1/2-y,1/2+z
-x,1/2+y,1/2+z
x,1/2-y,1/2+z
loop_
_atom_site_type_symbol
_atom_site_label
_atom_site_fract_x
_atom_site_fract_y
_atom_site_fract_z
Si Si1 0.941458 0.066569 0.089550
Si Si2 0.557416 0.739936 0.791977
Si Si3 0.565423 0.661562 0.445351
Si Si4 0.053636 0.568140 0.994220
Si Si5 0.933322 0.331958 0.137376
Si Si6 0.067543 0.931873 0.802621
Si Si7 0.558052 0.098070 0.290368
O O1 0.750000 0.062845 0.093963
O O2 0.011990 0.071172 0.194219
O O3 0.000000 0.000000 0.045749
O O4 0.983502 0.131359 0.035591
O O5 0.750000 0.732566 0.801246
O O6 0.497978 0.780880 0.882180
O O7 0.523405 0.777964 0.695859
O O8 0.471534 0.672990 0.789845
O O9 0.750000 0.676349 0.468331
O O10 0.550733 0.603378 0.373197
O O11 0.250000 0.570389 0.997570
O O12 0.993240 0.571727 0.887774
O O13 0.000000 0.500000 0.033879
O O14 0.996526 0.631924 0.047514
O O15 0.750000 0.309604 0.117351
O O16 0.924193 0.389597 0.210832
O O17 0.250000 0.934377 0.842778
O O18 0.000000 0.000000 0.781093
O O19 0.750000 0.085848 0.290502
#
# Coordination Sequence:
#
# PCOD9378067 Si02
#       7
#     8   8   8   8   8   8   8
#     4  11  23  39  60  86 114 150 192 236 286 337
#     4  10  22  39  60  86 115 149 191 235 283 335
#     4  10  21  37  56  81 113 147 185 233 284 337
#     4  10  21  38  60  87 116 150 190 233 282 336
#     4   9  19  35  56  82 114 149 185 227 280 339
#     4  10  18  29  48  76 110 147 184 226 277 335
#     4  10  23  41  60  82 114 154 193 234 283 337
#
# _framework density 22.337547000000001
#
# number of rings (size 3 to 8) (size 9 to 14) (size 15 to 20)
#    0.000    2.000    0.000    3.000    0.000    5.714 
#    0.000    4.286    0.000    0.000    0.000    0.000 
#    0.000    0.000    0.000    0.000    0.000    0.000 
#
# Total GULP energy -156293.160653 kJ/mol
# GULP energy per Si atom -5581.898595 kJ/mol
# Density = 2.228671 g / cm^3
# Si number density = 22.337547 Si / 1000 Ang^3
#
#
#
# Elastic Constant Matrix: (Units=GPa)
#
#
# Indices 1 2 3 4 5 6 
#
# 1 17.0030 -15.5521 -2.8497 0.0000 0.0000 0.0000
# 2 -15.5521 73.7144 7.6435 0.0000 0.0000 0.0000
# 3 -2.8497 7.6435 87.4490 0.0000 0.0000 0.0000
# 4 0.0000 0.0000 0.0000 26.7791 0.0000 0.0000
# 5 0.0000 0.0000 0.0000 0.0000 3.0429 0.0000
# 6 0.0000 0.0000 0.0000 0.0000 0.0000 24.0917
#
#
#
# Elastic Compliance Matrix: (Units=1/GPa)
#
#
# Indices 1 2 3 4 5 6 
#
# 1 0.072971 0.015287 0.001042 0.000000 0.000000 0.000000
# 2 0.015287 0.016893 -0.000978 0.000000 0.000000 0.000000
# 3 0.001042 -0.000978 0.011555 0.000000 0.000000 0.000000
# 4 0.000000 0.000000 0.000000 0.037342 0.000000 0.000000
# 5 0.000000 0.000000 0.000000 0.000000 0.328638 0.000000
# 6 0.000000 0.000000 0.000000 0.000000 0.000000 0.041508
#
#
# Mechanical properties :
#
#
# Convention : Reuss Voigt Hill
#
# Bulk Modulus (GPa) = 7.56894 17.40554 12.48724
# Shear Modulus (GPa) = 9.57405 23.37771 16.47588
#
# Velocity S-wave (km/s) = 2.07253 3.23858 2.71880
# Velocity P-wave (km/s) = 3.02043 4.66835 3.93169
#
# Compressibility (1/GPa) = 0.13211892
#
# Stress axis : x y z
#
# Youngs Moduli (GPa) = 13.70416 59.19760 86.54495
#
# Poissons Ratio (x) = -0.90496 -0.09016
# Poissons Ratio (y) = -0.20950 0.08467
# Poissons Ratio (z) = -0.01428 0.05792
#
# Static dielectric constant tensor:
#      x y z
#    x 1.841780 0.000000 0.000000 
#    y 0.000000 1.796970 0.000000 
#    z 0.000000 0.000000 1.906570 
# 
# From -- ./inp_files/14167.got.cif
#   From: 2010.05.17/outbox.cif.g08.bks.cpg/sg46_8_cif.got.tgz:14167.got - 2010.06.03 19:58:25.
