data_PCOD9378367
_publ_section_title
;
Structure prediction by ZEFSAII (Michael W. Deem and Ramdas Pophale) SiO2 
 PCOD9378367
Probable space group: I M A 2
;
_chemical_formula_sum "Si O2"
_cell_formula_units_Z 40
_cell_length_a 10.193876
_cell_length_b 8.638370
_cell_length_c 23.795664
_cell_angle_alpha 90.000000
_cell_angle_beta 90.000000
_cell_angle_gamma 90.000000
_cell_volume 2095.409827
_symmetry_space_group_name_H-M "I M A 2"
_symmetry_group_IT_number 46
_symmetry_cell_setting 'orthorhombic'
loop_
_space_group_symop_operation_xyz
x,y,z
-x,-y,z
1/2-x,y,z
1/2+x,-y,z
1/2+x,1/2+y,1/2+z
1/2-x,1/2-y,1/2+z
-x,1/2+y,1/2+z
x,1/2-y,1/2+z
loop_
_atom_site_type_symbol
_atom_site_label
_atom_site_fract_x
_atom_site_fract_y
_atom_site_fract_z
Si Si1 0.250000 0.685958 0.031891
Si Si2 0.250000 0.819225 0.154000
Si Si3 0.009003 0.815956 0.721929
Si Si4 0.250000 0.189840 0.532516
Si Si5 0.497669 0.812039 0.459014
Si Si6 0.750000 0.687527 0.661632
Si Si7 0.911588 0.156470 0.337585
O O1 0.250000 0.772998 0.089794
O O2 0.250000 0.498401 0.039178
O O3 0.123991 0.732312 0.996876
O O4 0.376405 0.743713 0.181900
O O5 0.250000 0.002311 0.162430
O O6 0.049458 0.755850 0.783471
O O7 0.875691 0.748166 0.695885
O O8 0.000000 0.000000 0.721853
O O9 0.373712 0.234749 0.493512
O O10 0.250000 0.256887 0.596011
O O11 0.465342 0.765600 0.395102
O O12 0.500000 0.000000 0.456455
O O13 0.750000 0.131974 0.340599
O O14 0.000000 0.000000 0.331981
#
# Coordination Sequence:
#
# PCOD9378367 Si02
#       7
#     4   4   8   4   8   4   8
#     4  10  18  35  60  89 123 170 212 260 319 384
#     4  12  24  43  66  95 131 174 218 274 333 394
#     4  12  26  44  66  95 132 173 220 273 334 396
#     4  10  20  37  60  93 129 168 216 264 317 390
#     4   9  19  34  61  92 126 166 215 262 316 385
#     4  12  26  43  66  99 133 172 220 272 333 396
#     4  11  23  41  67  99 134 174 222 272 328 393
#
# _framework density 19.089344000000001
#
# number of rings (size 3 to 8) (size 9 to 14) (size 15 to 20)
#    0.000    1.200    2.000    4.800    5.600    1.600 
#    0.000    2.000    0.000    0.000    0.000    0.000 
#    0.000    0.000    0.000    0.000    0.000    0.000 
#
# Total GULP energy -111627.210867 kJ/mol
# GULP energy per Si atom -5581.360543 kJ/mol
# Density = 1.904590 g / cm^3
# Si number density = 19.089344 Si / 1000 Ang^3
#
#
#
# Elastic Constant Matrix: (Units=GPa)
#
#
# Indices 1 2 3 4 5 6 
#
# 1 193.8899 43.0169 75.3038 0.0000 0.0000 0.0000
# 2 43.0169 94.6251 45.5763 0.0000 0.0000 0.0000
# 3 75.3038 45.5763 167.5356 0.0000 0.0000 0.0000
# 4 0.0000 0.0000 0.0000 35.7537 0.0000 0.0000
# 5 0.0000 0.0000 0.0000 0.0000 37.9595 0.0000
# 6 0.0000 0.0000 0.0000 0.0000 0.0000 17.5675
#
#
#
# Elastic Compliance Matrix: (Units=1/GPa)
#
#
# Indices 1 2 3 4 5 6 
#
# 1 0.006499 -0.001781 -0.002437 0.000000 0.000000 0.000000
# 2 -0.001781 0.012650 -0.002641 0.000000 0.000000 0.000000
# 3 -0.002437 -0.002641 0.007783 0.000000 0.000000 0.000000
# 4 0.000000 0.000000 0.000000 0.027969 0.000000 0.000000
# 5 0.000000 0.000000 0.000000 0.000000 0.026344 0.000000
# 6 0.000000 0.000000 0.000000 0.000000 0.000000 0.056923
#
#
# Mechanical properties :
#
#
# Convention : Reuss Voigt Hill
#
# Bulk Modulus (GPa) = 75.67444 87.09387 81.38415
# Shear Modulus (GPa) = 31.99206 37.73303 34.86255
#
# Velocity S-wave (km/s) = 4.09823 4.45078 4.27814
# Velocity P-wave (km/s) = 7.88177 8.49329 8.19324
#
# Compressibility (1/GPa) = 0.01321450
#
# Stress axis : x y z
#
# Youngs Moduli (GPa) = 153.86845 79.05449 128.49300
#
# Poissons Ratio (x) = 0.14078 0.31310
# Poissons Ratio (y) = 0.27402 0.33931
# Poissons Ratio (z) = 0.37494 0.20876
#
# Static dielectric constant tensor:
#      x y z
#    x 1.627970 0.000000 0.000000 
#    y 0.000000 1.654140 0.000000 
#    z 0.000000 0.000000 1.675000 
# 
# From -- ./inp_files/22790.got.cif
#   From: 2010.05.17/outbox.cif.g08.bks.cpg/sg46_12_cif.got.tgz:22790.got - 2010.06.03 19:58:25.
