data_PCOD9378691
_publ_section_title
;
Structure prediction by ZEFSAII (Michael W. Deem and Ramdas Pophale) SiO2 
 PCOD9378691
Probable space group: I M A 2
;
_chemical_formula_sum "Si O2"
_cell_formula_units_Z 56
_cell_length_a 8.575154
_cell_length_b 24.407495
_cell_length_c 14.255283
_cell_angle_alpha 90.000000
_cell_angle_beta 90.000000
_cell_angle_gamma 90.000000
_cell_volume 2983.602626
_symmetry_space_group_name_H-M "I M A 2"
_symmetry_group_IT_number 46
_symmetry_cell_setting 'orthorhombic'
loop_
_space_group_symop_operation_xyz
x,y,z
-x,-y,z
1/2-x,y,z
1/2+x,-y,z
1/2+x,1/2+y,1/2+z
1/2-x,1/2-y,1/2+z
-x,1/2+y,1/2+z
x,1/2-y,1/2+z
loop_
_atom_site_type_symbol
_atom_site_label
_atom_site_fract_x
_atom_site_fract_y
_atom_site_fract_z
Si Si1 0.561563 0.834607 0.875000
Si Si2 0.438357 0.118287 0.159059
Si Si3 0.435525 0.560744 0.054167
Si Si4 0.562511 0.560904 0.848550
Si Si5 0.564625 0.440333 0.478646
Si Si6 0.061007 0.163528 0.661189
Si Si7 0.060412 0.228836 0.055947
O O1 0.750000 0.835930 0.878134
O O2 0.514553 0.824158 0.768328
O O3 0.500936 0.893124 0.910872
O O4 0.509665 0.789854 0.952166
O O5 0.250000 0.114760 0.152054
O O6 0.482430 0.101218 0.263995
O O7 0.508928 0.076855 0.082882
O O8 0.483786 0.179290 0.126161
O O9 0.500000 0.500000 0.074557
O O10 0.250000 0.558587 0.053650
O O11 0.495788 0.605903 0.126327
O O12 0.495821 0.576242 0.950031
O O13 0.500000 0.500000 0.826685
O O14 0.750000 0.559128 0.854835
O O15 0.500000 0.500000 0.454765
O O16 0.750000 0.440659 0.475033
O O17 0.250000 0.161267 0.657880
O O18 0.006765 0.212774 0.593701
O O19 0.250000 0.230588 0.055228
#
# Coordination Sequence:
#
# PCOD9378691 Si02
#       7
#     8   8   8   8   8   8   8
#     4   9  19  36  56  80 111 143 179 223 266 315
#     4   9  18  33  54  81 112 145 182 223 265 315
#     4  11  23  39  57  78 108 141 178 225 271 321
#     4  10  19  32  53  80 111 145 182 223 268 319
#     4  11  21  33  52  77 109 147 185 227 273 322
#     4  10  20  36  60  84 107 141 180 219 267 318
#     4   8  16  33  56  82 110 140 178 220 261 312
#
# _framework density 18.769255999999999
#
# number of rings (size 3 to 8) (size 9 to 14) (size 15 to 20)
#    0.000    2.286    0.000    5.143    0.000    4.571 
#    0.000    7.143    0.000    1.714    0.000    0.000 
#    0.000    0.000    0.000    0.000    0.000    0.000 
#
# Total GULP energy -156290.338594 kJ/mol
# GULP energy per Si atom -5581.797807 kJ/mol
# Density = 1.872654 g / cm^3
# Si number density = 18.769256 Si / 1000 Ang^3
#
#
#
# Elastic Constant Matrix: (Units=GPa)
#
#
# Indices 1 2 3 4 5 6 
#
# 1 36.7549 24.7562 37.5207 0.0000 0.0000 0.0000
# 2 24.7562 103.2954 83.3362 0.0000 0.0000 0.0000
# 3 37.5207 83.3362 134.7424 0.0000 0.0000 0.0000
# 4 0.0000 0.0000 0.0000 16.4624 0.0000 0.0000
# 5 0.0000 0.0000 0.0000 0.0000 21.9371 0.0000
# 6 0.0000 0.0000 0.0000 0.0000 0.0000 20.5783
#
#
#
# Elastic Compliance Matrix: (Units=1/GPa)
#
#
# Indices 1 2 3 4 5 6 
#
# 1 0.038080 -0.001141 -0.009898 0.000000 0.000000 0.000000
# 2 -0.001141 0.019357 -0.011654 0.000000 0.000000 0.000000
# 3 -0.009898 -0.011654 0.017386 0.000000 0.000000 0.000000
# 4 0.000000 0.000000 0.000000 0.060745 0.000000 0.000000
# 5 0.000000 0.000000 0.000000 0.000000 0.045585 0.000000
# 6 0.000000 0.000000 0.000000 0.000000 0.000000 0.048595
#
#
# Mechanical properties :
#
#
# Convention : Reuss Voigt Hill
#
# Bulk Modulus (GPa) = 33.97182 62.89099 48.43140
# Shear Modulus (GPa) = 17.54722 20.40754 18.97738
#
# Velocity S-wave (km/s) = 3.06092 3.30098 3.18321
# Velocity P-wave (km/s) = 5.53455 6.93605 6.27456
#
# Compressibility (1/GPa) = 0.02943616
#
# Stress axis : x y z
#
# Youngs Moduli (GPa) = 26.26042 51.66180 57.51801
#
# Poissons Ratio (x) = 0.05893 0.56934
# Poissons Ratio (y) = 0.02995 0.67033
# Poissons Ratio (z) = 0.25994 0.60208
#
# Static dielectric constant tensor:
#      x y z
#    x 1.636750 0.000000 0.000000 
#    y 0.000000 1.632090 0.000000 
#    z 0.000000 0.000000 1.651740 
# 
# From -- ./inp_files/14217.got.cif
#   From: 2010.05.17/outbox.cif.g08.bks.cpg/sg46_8_cif.got.tgz:14217.got - 2010.06.03 19:58:25.
