data_PCOD9378756
_publ_section_title
;
Structure prediction by ZEFSAII (Michael W. Deem and Ramdas Pophale) SiO2 
 PCOD9378756
Probable space group: I M A 2
;
_chemical_formula_sum "Si O2"
_cell_formula_units_Z 64
_cell_length_a 8.375291
_cell_length_b 31.152731
_cell_length_c 14.791222
_cell_angle_alpha 90.000000
_cell_angle_beta 90.000000
_cell_angle_gamma 90.000000
_cell_volume 3859.224880
_symmetry_space_group_name_H-M "I M A 2"
_symmetry_group_IT_number 46
_symmetry_cell_setting 'orthorhombic'
loop_
_space_group_symop_operation_xyz
x,y,z
-x,-y,z
1/2-x,y,z
1/2+x,-y,z
1/2+x,1/2+y,1/2+z
1/2-x,1/2-y,1/2+z
-x,1/2+y,1/2+z
x,1/2-y,1/2+z
loop_
_atom_site_type_symbol
_atom_site_label
_atom_site_fract_x
_atom_site_fract_y
_atom_site_fract_z
Si Si1 0.436143 0.233045 0.107620
Si Si2 0.565957 0.634193 0.914452
Si Si3 0.058885 0.952226 0.487424
Si Si4 0.443925 0.796546 0.924111
Si Si5 0.942733 0.452647 0.196998
Si Si6 0.443054 0.632747 0.283799
Si Si7 0.564879 0.174027 0.591518
Si Si8 0.561160 0.213039 0.303564
O O1 0.250000 0.244606 0.102475
O O2 0.542556 0.275273 0.091942
O O3 0.474938 0.215774 0.207152
O O4 0.481653 0.203141 0.023459
O O5 0.750000 0.634752 0.887916
O O6 0.504673 0.585509 0.923463
O O7 0.472361 0.667607 0.851165
O O8 0.542215 0.653356 0.014780
O O9 0.250000 0.951441 0.486104
O O10 0.007197 0.944014 0.592436
O O11 0.000000 0.000000 0.463857
O O12 0.250000 0.796603 0.930418
O O13 0.498388 0.837686 0.865887
O O14 0.488529 0.752728 0.869395
O O15 0.750000 0.451907 0.196729
O O16 0.000530 0.415527 0.264730
O O17 0.000000 0.500000 0.221217
O O18 0.250000 0.630896 0.292039
O O19 0.476961 0.657583 0.190709
O O20 0.750000 0.162381 0.572756
O O21 0.750000 0.218407 0.288387
#
# Coordination Sequence:
#
# PCOD9378756 Si02
#       8
#     8   8   8   8   8   8   8   8
#     4  12  24  36  50  75 109 137 171 223 270 307
#     4  12  23  34  50  78 109 140 178 220 267 313
#     4  10  19  33  52  75 106 141 176 216 262 315
#     4  10  20  35  55  74  97 136 182 216 254 311
#     4   9  17  30  48  72 102 134 169 211 256 304
#     4   9  17  32  52  73  97 134 179 217 247 296
#     4  11  19  33  52  72 102 142 183 216 254 308
#     4  11  22  37  57  75  99 140 183 216 257 317
#
# _framework density 16.583641
#
# number of rings (size 3 to 8) (size 9 to 14) (size 15 to 20)
#    0.000    1.500    3.750    3.375    0.000    1.000 
#    0.000    0.625    0.000    0.000    0.000    0.875 
#    0.000    2.000    0.000    0.000    0.000    0.000 
#
# Total GULP energy -178591.128109 kJ/mol
# GULP energy per Si atom -5580.972753 kJ/mol
# Density = 1.654590 g / cm^3
# Si number density = 16.583641 Si / 1000 Ang^3
#
#
#
# Elastic Constant Matrix: (Units=GPa)
#
#
# Indices 1 2 3 4 5 6 
#
# 1 26.5197 -4.5913 7.4345 0.0000 0.0000 0.0000
# 2 -4.5913 85.4859 21.5222 0.0000 0.0000 0.0000
# 3 7.4345 21.5222 64.8944 -0.0001 -0.0001 0.0000
# 4 0.0000 0.0000 -0.0001 21.7391 -0.0001 0.0000
# 5 0.0000 0.0000 -0.0001 -0.0001 10.8930 0.0000
# 6 0.0000 0.0000 0.0000 0.0000 0.0000 22.7096
#
#
#
# Elastic Compliance Matrix: (Units=1/GPa)
#
#
# Indices 1 2 3 4 5 6 
#
# 1 0.039948 0.003598 -0.005770 0.000000 0.000000 0.000000
# 2 0.003598 0.013088 -0.004753 0.000000 0.000000 0.000000
# 3 -0.005770 -0.004753 0.017647 0.000000 0.000000 0.000000
# 4 0.000000 0.000000 0.000000 0.046000 0.000000 0.000000
# 5 0.000000 0.000000 0.000000 0.000000 0.091802 0.000000
# 6 0.000000 0.000000 0.000000 0.000000 0.000000 0.044034
#
#
# Mechanical properties :
#
#
# Convention : Reuss Voigt Hill
#
# Bulk Modulus (GPa) = 17.59514 25.07011 21.33263
# Shear Modulus (GPa) = 17.52462 21.23730 19.38096
#
# Velocity S-wave (km/s) = 3.25428 3.58245 3.42230
# Velocity P-wave (km/s) = 4.97528 5.67998 5.33927
#
# Compressibility (1/GPa) = 0.05683387
#
# Stress axis : x y z
#
# Youngs Moduli (GPa) = 25.03237 76.40792 56.66712
#
# Poissons Ratio (x) = -0.27493 0.32697
# Poissons Ratio (y) = -0.09007 0.26932
# Poissons Ratio (z) = 0.14444 0.36315
#
# Static dielectric constant tensor:
#      x y z
#    x 1.585150 0.000000 0.000000 
#    y 0.000000 1.576750 0.000000 
#    z 0.000000 0.000000 1.544440 
# 
# From -- ./inp_files/9696.got.cif
#   From: 2010.05.17/outbox.cif.g08.bks.cpg/sg46_5_cif.got.tgz:9696.got - 2010.06.03 19:58:25.
