data_PCOD9378558
_publ_section_title
;
Structure prediction by ZEFSAII (Michael W. Deem and Ramdas Pophale) SiO2 
 PCOD9378558
Probable space group: I M A 2
;
_chemical_formula_sum "Si O2"
_cell_formula_units_Z 56
_cell_length_a 8.385359
_cell_length_b 24.869932
_cell_length_c 14.089672
_cell_angle_alpha 90.000000
_cell_angle_beta 90.000000
_cell_angle_gamma 90.000000
_cell_volume 2938.306809
_symmetry_space_group_name_H-M "I M A 2"
_symmetry_group_IT_number 46
_symmetry_cell_setting 'orthorhombic'
loop_
_space_group_symop_operation_xyz
x,y,z
-x,-y,z
1/2-x,y,z
1/2+x,-y,z
1/2+x,1/2+y,1/2+z
1/2-x,1/2-y,1/2+z
-x,1/2+y,1/2+z
x,1/2-y,1/2+z
loop_
_atom_site_type_symbol
_atom_site_label
_atom_site_fract_x
_atom_site_fract_y
_atom_site_fract_z
Si Si1 0.554647 0.833359 0.350690
Si Si2 0.059287 0.939818 0.671834
Si Si3 0.442451 0.336590 0.065487
Si Si4 0.440835 0.058969 0.030521
Si Si5 0.557715 0.941468 0.249337
Si Si6 0.559573 0.374870 0.357735
Si Si7 0.441839 0.226806 0.748563
O O1 0.750000 0.833183 0.350109
O O2 0.502832 0.824472 0.459078
O O3 0.503010 0.891390 0.312177
O O4 0.501024 0.784956 0.282645
O O5 0.250000 0.939087 0.667629
O O6 0.009641 0.917599 0.775921
O O7 0.992884 0.896160 0.597980
O O8 0.000000 0.000000 0.656193
O O9 0.250000 0.334490 0.065770
O O10 0.501243 0.295564 0.147084
O O11 0.250000 0.059636 0.028728
O O12 0.504306 0.103511 0.958850
O O13 0.500000 0.000000 0.999483
O O14 0.494339 0.066355 0.139644
O O15 0.750000 0.941903 0.249815
O O16 0.500000 0.000000 0.281578
O O17 0.750000 0.370863 0.355584
O O18 0.487254 0.318140 0.325922
O O19 0.250000 0.229223 0.742839
#
# Coordination Sequence:
#
# PCOD9378558 Si02
#       7
#     8   8   8   8   8   8   8
#     4   9  18  34  56  79 102 133 172 210 251 302
#     4  10  20  33  50  73 103 137 172 211 255 303
#     4   9  18  33  53  76 103 134 169 210 253 300
#     4  10  19  31  50  75 104 138 174 213 257 304
#     4   9  19  35  53  75 104 135 170 212 254 300
#     4  10  20  33  50  74 105 138 172 212 257 305
#     4   9  18  33  53  76 102 133 171 212 253 300
#
# _framework density 19.058596999999999
#
# number of rings (size 3 to 8) (size 9 to 14) (size 15 to 20)
#    0.000    2.571    0.000    1.714    0.000    5.143 
#    0.000    7.857    0.000    3.429    0.000    0.000 
#    0.000    0.000    0.000    0.000    0.000    0.000 
#
# Total GULP energy -156230.595696 kJ/mol
# GULP energy per Si atom -5579.664132 kJ/mol
# Density = 1.901522 g / cm^3
# Si number density = 19.058597 Si / 1000 Ang^3
#
#
#
# Elastic Constant Matrix: (Units=GPa)
#
#
# Indices 1 2 3 4 5 6 
#
# 1 6.5478 9.1338 8.9192 0.0000 0.0000 0.0000
# 2 9.1338 158.1557 85.5631 0.0000 0.0000 0.0000
# 3 8.9192 85.5631 97.8568 -0.0001 0.0000 0.0000
# 4 0.0000 0.0000 -0.0001 21.4529 0.0000 0.0000
# 5 0.0000 0.0000 0.0000 0.0000 12.3547 0.0000
# 6 0.0000 0.0000 0.0000 0.0000 0.0000 22.5955
#
#
#
# Elastic Compliance Matrix: (Units=1/GPa)
#
#
# Indices 1 2 3 4 5 6 
#
# 1 0.175026 -0.002804 -0.013501 0.000000 0.000000 0.000000
# 2 -0.002804 0.012044 -0.010275 0.000000 0.000000 0.000000
# 3 -0.013501 -0.010275 0.020434 0.000000 0.000000 0.000000
# 4 0.000000 0.000000 0.000000 0.046614 0.000000 0.000000
# 5 0.000000 0.000000 0.000000 0.000000 0.080941 0.000000
# 6 0.000000 0.000000 0.000000 0.000000 0.000000 0.044257
#
#
# Mechanical properties :
#
#
# Convention : Reuss Voigt Hill
#
# Bulk Modulus (GPa) = 6.47908 52.19919 29.33914
# Shear Modulus (GPa) = 10.33224 21.87690 16.10457
#
# Velocity S-wave (km/s) = 2.33090 3.39171 2.91005
# Velocity P-wave (km/s) = 3.26359 6.54114 5.16902
#
# Compressibility (1/GPa) = 0.15434292
#
# Stress axis : x y z
#
# Youngs Moduli (GPa) = 5.71345 83.03103 48.93853
#
# Poissons Ratio (x) = 0.23282 0.66072
# Poissons Ratio (y) = 0.01602 0.50285
# Poissons Ratio (z) = 0.07714 0.85315
#
# Static dielectric constant tensor:
#      x y z
#    x 1.656400 0.000000 0.000000 
#    y 0.000000 1.629130 0.000000 
#    z 0.000000 0.000000 1.670670 
# 
# From -- ./inp_files/14203.got.cif
#   From: 2010.05.17/outbox.cif.g08.bks.cpg/sg46_8_cif.got.tgz:14203.got - 2010.06.03 19:58:25.
