data_PCOD9378002
_publ_section_title
;
Structure prediction by ZEFSAII (Michael W. Deem and Ramdas Pophale) SiO2 
 PCOD9378002
Probable space group: I M A 2
;
_chemical_formula_sum "Si O2"
_cell_formula_units_Z 56
_cell_length_a 7.591679
_cell_length_b 19.775032
_cell_length_c 18.499781
_cell_angle_alpha 90.000000
_cell_angle_beta 90.000000
_cell_angle_gamma 90.000000
_cell_volume 2777.292483
_symmetry_space_group_name_H-M "I M A 2"
_symmetry_group_IT_number 46
_symmetry_cell_setting 'orthorhombic'
loop_
_space_group_symop_operation_xyz
x,y,z
-x,-y,z
1/2-x,y,z
1/2+x,-y,z
1/2+x,1/2+y,1/2+z
1/2-x,1/2-y,1/2+z
-x,1/2+y,1/2+z
x,1/2-y,1/2+z
loop_
_atom_site_type_symbol
_atom_site_label
_atom_site_fract_x
_atom_site_fract_y
_atom_site_fract_z
Si Si1 0.462024 0.422268 0.905830
Si Si2 0.034312 0.191248 0.702520
Si Si3 0.459730 0.205485 0.314623
Si Si4 0.048245 0.148319 0.546973
Si Si5 0.041124 0.072267 0.810252
Si Si6 0.444956 0.925248 0.975074
Si Si7 0.463482 0.720021 0.459998
O O1 0.500000 0.500000 0.887848
O O2 0.250000 0.414219 0.908656
O O3 0.527643 0.365408 0.848472
O O4 0.529425 0.402572 0.986591
O O5 0.250000 0.194948 0.698098
O O6 0.974012 0.261662 0.739588
O O7 0.968233 0.166277 0.624693
O O8 0.988003 0.132573 0.758807
O O9 0.250000 0.197204 0.306190
O O10 0.489952 0.261550 0.377340
O O11 0.250000 0.125974 0.560172
O O12 0.044444 0.219677 0.505702
O O13 0.250000 0.077245 0.824666
O O14 0.946722 0.072397 0.887567
O O15 0.000000 0.000000 0.775152
O O16 0.250000 0.917330 0.004046
O O17 0.533782 0.852579 0.987101
O O18 0.500000 0.000000 0.999105
O O19 0.250000 0.721778 0.465203
#
# Coordination Sequence:
#
# PCOD9378002 Si02
#       7
#     8   8   8   8   8   8   8
#     4   9  18  31  50  73  98 127 164 203 244 293
#     4   9  17  31  51  72  95 127 168 204 239 289
#     4   9  17  32  53  73  93 126 166 206 246 292
#     4   9  19  34  51  71  95 129 168 201 242 301
#     4  10  18  28  44  67  97 128 157 190 230 275
#     4  10  19  29  44  67  94 122 156 193 234 282
#     4  10  19  31  47  71  98 123 157 204 247 287
#
# _framework density 20.163522
#
# number of rings (size 3 to 8) (size 9 to 14) (size 15 to 20)
#    0.000    2.571    1.429    3.000    0.000    4.571 
#    0.000    2.143    0.000    0.857    0.000    4.000 
#    0.000    0.000    0.000    0.000    0.000    0.000 
#
# Total GULP energy -155869.896229 kJ/mol
# GULP energy per Si atom -5566.782008 kJ/mol
# Density = 2.011763 g / cm^3
# Si number density = 20.163522 Si / 1000 Ang^3
#
#
#
# Elastic Constant Matrix: (Units=GPa)
#
#
# Indices 1 2 3 4 5 6 
#
# 1 40.1204 -1.1704 1.5124 0.0000 0.0000 0.0000
# 2 -1.1704 119.7116 4.2843 0.0000 0.0000 0.0000
# 3 1.5124 4.2843 42.4283 0.0000 0.0000 0.0000
# 4 0.0000 0.0000 0.0000 12.1081 0.0000 0.0000
# 5 0.0000 0.0000 0.0000 0.0000 -5.7024 0.0000
# 6 0.0000 0.0000 0.0000 0.0000 0.0000 20.3084
#
#
#
# Elastic Compliance Matrix: (Units=1/GPa)
#
#
# Indices 1 2 3 4 5 6 
#
# 1 0.024968 0.000277 -0.000918 0.000000 0.000000 0.000000
# 2 0.000277 0.008387 -0.000857 0.000000 0.000000 0.000000
# 3 -0.000918 -0.000857 0.023688 0.000000 0.000000 0.000000
# 4 0.000000 0.000000 0.000000 0.082589 0.000000 0.000000
# 5 0.000000 0.000000 0.000000 0.000000 -0.175365 0.000000
# 6 0.000000 0.000000 0.000000 0.000000 0.000000 0.049241
#
#
# Mechanical properties :
#
#
# Convention : Reuss Voigt Hill
#
# Bulk Modulus (GPa) = 18.50232 23.50143 21.00187
# Shear Modulus (GPa) = 144.84877 18.51844 81.68360
#
# Velocity S-wave (km/s) = 8.48487 3.03382 6.37170
# Velocity P-wave (km/s) = 10.25606 4.89416 8.03553
#
# Compressibility (1/GPa) = 0.05404729
#
# Stress axis : x y z
#
# Youngs Moduli (GPa) = 40.05185 119.23527 42.21473
#
# Poissons Ratio (x) = -0.03302 0.03875
# Poissons Ratio (y) = -0.01109 0.03617
# Poissons Ratio (z) = 0.03677 0.10215
#
# Static dielectric constant tensor:
#      x y z
#    x 1.797570 0.000000 0.000000 
#    y 0.000000 1.759510 0.000000 
#    z 0.000000 0.000000 1.721420 
# 
# From -- ./inp_files/18485.got.cif
#   From: 2010.05.17/outbox.cif.g08.bks.cpg/sg46_10_cif.got.tgz:18485.got - 2010.06.03 19:58:25.
