data_PCOD9378834
_publ_section_title
;
Structure prediction by ZEFSAII (Michael W. Deem and Ramdas Pophale) SiO2 
 PCOD9378834
Probable space group: I M A 2
;
_chemical_formula_sum "Si O2"
_cell_formula_units_Z 56
_cell_length_a 14.665456
_cell_length_b 14.066777
_cell_length_c 12.643951
_cell_angle_alpha 90.000000
_cell_angle_beta 90.000000
_cell_angle_gamma 90.000000
_cell_volume 2608.392712
_symmetry_space_group_name_H-M "I M A 2"
_symmetry_group_IT_number 46
_symmetry_cell_setting 'orthorhombic'
loop_
_space_group_symop_operation_xyz
x,y,z
-x,-y,z
1/2-x,y,z
1/2+x,-y,z
1/2+x,1/2+y,1/2+z
1/2-x,1/2-y,1/2+z
-x,1/2+y,1/2+z
x,1/2-y,1/2+z
loop_
_atom_site_type_symbol
_atom_site_label
_atom_site_fract_x
_atom_site_fract_y
_atom_site_fract_z
Si Si1 0.041443 0.322574 0.292570
Si Si2 0.357343 0.369569 0.851150
Si Si3 0.902147 0.608058 0.517215
Si Si4 0.648698 0.816281 0.591526
Si Si5 0.612422 0.400614 0.577625
Si Si6 0.353840 0.726910 0.380855
Si Si7 0.355148 0.923094 0.316079
O O1 0.083114 0.216621 0.307192
O O2 0.085361 0.380935 0.390498
O O3 0.074796 0.349592 0.176487
O O4 0.933023 0.321931 0.311383
O O5 0.250000 0.356153 0.820442
O O6 0.395264 0.471470 0.815570
O O7 0.361351 0.365651 0.978114
O O8 0.858272 0.703613 0.563505
O O9 0.858033 0.507726 0.546577
O O10 0.003481 0.604974 0.565565
O O11 0.750000 0.834998 0.634457
O O12 0.647386 0.325206 0.493112
O O13 0.638896 0.382931 0.697656
O O14 0.250000 0.725482 0.338514
O O15 0.385797 0.836956 0.390251
O O16 0.250000 0.940873 0.345401
#
# Coordination Sequence:
#
# PCOD9378834 Si02
#       7
#     8   8   8   8   8   8   8
#     4  10  19  34  56  81 115 150 183 228 284 338
#     4   9  19  34  54  85 117 145 186 234 280 340
#     4   9  20  34  54  84 110 137 183 234 275 337
#     4  10  19  33  55  84 117 148 178 223 288 347
#     4  10  19  36  58  79 107 146 189 231 280 329
#     4  10  22  37  54  79 110 147 195 241 275 320
#     4  10  20  35  56  82 112 147 189 233 275 327
#
# _framework density 21.469159000000001
#
# number of rings (size 3 to 8) (size 9 to 14) (size 15 to 20)
#    0.000    2.286    0.000    2.571    0.000    4.571 
#    0.000    1.429    0.000   12.000    0.000    0.000 
#    0.000    0.000    0.000    0.000    0.000    0.000 
#
# Total GULP energy -156345.845319 kJ/mol
# GULP energy per Si atom -5583.780190 kJ/mol
# Density = 2.142029 g / cm^3
# Si number density = 21.469159 Si / 1000 Ang^3
#
#
#
# Elastic Constant Matrix: (Units=GPa)
#
#
# Indices 1 2 3 4 5 6 
#
# 1 91.6228 2.4859 18.4812 0.0000 0.0000 0.0000
# 2 2.4859 67.5473 27.4691 0.0000 0.0000 0.0000
# 3 18.4812 27.4691 74.5918 0.0000 0.0000 0.0000
# 4 0.0000 0.0000 0.0000 17.0883 0.0000 0.0000
# 5 0.0000 0.0000 0.0000 0.0000 0.3433 0.0000
# 6 0.0000 0.0000 0.0000 0.0000 0.0000 71.9790
#
#
#
# Elastic Compliance Matrix: (Units=1/GPa)
#
#
# Indices 1 2 3 4 5 6 
#
# 1 0.011532 0.000867 -0.003177 0.000000 0.000000 0.000000
# 2 0.000867 0.017477 -0.006651 0.000000 0.000000 0.000000
# 3 -0.003177 -0.006651 0.016643 0.000000 0.000000 0.000000
# 4 0.000000 0.000000 0.000000 0.058519 0.000000 0.000000
# 5 0.000000 0.000000 0.000000 0.000000 2.912779 0.000000
# 6 0.000000 0.000000 0.000000 0.000000 0.000000 0.013893
#
#
# Mechanical properties :
#
#
# Convention : Reuss Voigt Hill
#
# Bulk Modulus (GPa) = 36.06070 36.73715 36.39892
# Shear Modulus (GPa) = 1.63505 30.23717 15.93611
#
# Velocity S-wave (km/s) = 0.87363 3.75694 2.72744
# Velocity P-wave (km/s) = 4.22500 5.99735 5.18743
#
# Compressibility (1/GPa) = 0.02773102
#
# Stress axis : x y z
#
# Youngs Moduli (GPa) = 86.71888 57.21719 60.08659
#
# Poissons Ratio (x) = -0.04963 0.19087
# Poissons Ratio (y) = -0.07522 0.39964
# Poissons Ratio (z) = 0.27546 0.38056
#
# Static dielectric constant tensor:
#      x y z
#    x 1.818070 0.000000 0.000000 
#    y 0.000000 1.816530 0.000000 
#    z 0.000000 0.000000 1.757040 
# 
# From -- ./inp_files/11130.got.cif
#   From: 2010.05.17/outbox.cif.g08.bks.cpg/sg46_6_cif.got.tgz:11130.got - 2010.06.03 19:58:25.
