data_PCOD9378407
_publ_section_title
;
Structure prediction by ZEFSAII (Michael W. Deem and Ramdas Pophale) SiO2 
 PCOD9378407
Probable space group: I M A 2
;
_chemical_formula_sum "Si O2"
_cell_formula_units_Z 48
_cell_length_a 9.836548
_cell_length_b 8.759911
_cell_length_c 27.831530
_cell_angle_alpha 90.000000
_cell_angle_beta 90.000000
_cell_angle_gamma 90.000000
_cell_volume 2398.167378
_symmetry_space_group_name_H-M "I M A 2"
_symmetry_group_IT_number 46
_symmetry_cell_setting 'orthorhombic'
loop_
_space_group_symop_operation_xyz
x,y,z
-x,-y,z
1/2-x,y,z
1/2+x,-y,z
1/2+x,1/2+y,1/2+z
1/2-x,1/2-y,1/2+z
-x,1/2+y,1/2+z
x,1/2-y,1/2+z
loop_
_atom_site_type_symbol
_atom_site_label
_atom_site_fract_x
_atom_site_fract_y
_atom_site_fract_z
Si Si1 0.750000 0.659447 0.596390
Si Si2 0.976193 0.182590 0.446542
Si Si3 0.911682 0.345533 0.841006
Si Si4 0.524876 0.681318 0.158979
Si Si5 0.250000 0.276918 0.992761
Si Si6 0.750000 0.195167 0.123517
Si Si7 0.910067 0.847193 0.766440
Si Si8 0.750000 0.139947 0.521074
O O1 0.621487 0.748366 0.618529
O O2 0.750000 0.674081 0.539474
O O3 0.750000 0.482526 0.610466
O O4 0.919474 0.227449 0.394553
O O5 0.877641 0.204682 0.491582
O O6 0.120042 0.251149 0.459932
O O7 0.000000 0.000000 0.444472
O O8 0.750000 0.366275 0.829419
O O9 0.000000 0.500000 0.844242
O O10 0.999583 0.253283 0.802316
O O11 0.500000 0.500000 0.152153
O O12 0.381285 0.762862 0.154119
O O13 0.587419 0.710805 0.211437
O O14 0.250000 0.454720 0.012789
O O15 0.750000 0.301920 0.075539
O O16 0.750000 0.865219 0.780537
O O17 0.000000 0.000000 0.764347
#
# Coordination Sequence:
#
# PCOD9378407 Si02
#       8
#     4   8   8   8   4   4   8   4
#     4  12  24  44  59 100 137 167 218 277 349 388
#     4   9  19  34  60  90 122 164 225 273 313 374
#     4  11  23  40  66  99 137 173 218 273 333 393
#     4  11  24  44  69  92 126 176 230 266 321 404
#     4  10  20  34  63  84 123 171 224 275 315 400
#     4  12  26  38  67  96 137 173 208 285 341 394
#     4  11  25  45  70  96 129 168 220 276 330 400
#     4  10  18  38  57  90 119 171 226 265 323 386
#
# _framework density 20.015284000000001
#
# number of rings (size 3 to 8) (size 9 to 14) (size 15 to 20)
#    0.000    1.333    1.667    4.000    9.333    2.667 
#    0.000    1.667    0.000    0.000    0.000    0.000 
#    0.000    0.000    0.000    0.000    0.000    0.000 
#
# Total GULP energy -133933.939841 kJ/mol
# GULP energy per Si atom -5580.580827 kJ/mol
# Density = 1.996973 g / cm^3
# Si number density = 20.015284 Si / 1000 Ang^3
#
#
#
# Elastic Constant Matrix: (Units=GPa)
#
#
# Indices 1 2 3 4 5 6 
#
# 1 191.4765 24.9424 33.4814 0.0000 0.0000 0.0000
# 2 24.9424 53.6283 21.5428 0.0000 0.0000 0.0000
# 3 33.4814 21.5428 76.2060 0.0000 0.0000 0.0000
# 4 0.0000 0.0000 0.0000 19.6397 0.0000 0.0000
# 5 0.0000 0.0000 0.0000 0.0000 37.3909 0.0000
# 6 0.0000 0.0000 0.0000 0.0000 0.0000 17.8197
#
#
#
# Elastic Compliance Matrix: (Units=1/GPa)
#
#
# Indices 1 2 3 4 5 6 
#
# 1 0.005823 -0.001896 -0.002022 0.000000 0.000000 0.000000
# 2 -0.001896 0.021653 -0.005288 0.000000 0.000000 0.000000
# 3 -0.002022 -0.005288 0.015506 0.000000 0.000000 0.000000
# 4 0.000000 0.000000 0.000000 0.050917 0.000000 0.000000
# 5 0.000000 0.000000 0.000000 0.000000 0.026744 0.000000
# 6 0.000000 0.000000 0.000000 0.000000 0.000000 0.056118
#
#
# Mechanical properties :
#
#
# Convention : Reuss Voigt Hill
#
# Bulk Modulus (GPa) = 40.70189 53.47158 47.08674
# Shear Modulus (GPa) = 24.58647 31.05969 27.82308
#
# Velocity S-wave (km/s) = 3.50863 3.94356 3.73244
# Velocity P-wave (km/s) = 6.06577 6.89267 6.49240
#
# Compressibility (1/GPa) = 0.02456888
#
# Stress axis : x y z
#
# Youngs Moduli (GPa) = 171.72718 46.18315 64.49188
#
# Poissons Ratio (x) = 0.08756 0.13043
# Poissons Ratio (y) = 0.32558 0.34104
# Poissons Ratio (z) = 0.34732 0.24422
#
# Static dielectric constant tensor:
#      x y z
#    x 2.415100 0.000000 0.000000 
#    y 0.000000 1.775640 0.000000 
#    z 0.000000 0.000000 1.710540 
# 
# From -- ./inp_files/25085.got.cif
#   From: 2010.05.17/outbox.cif.g08.bks.cpg/sg46_13_cif.got.tgz:25085.got - 2010.06.03 19:58:25.
