data_PCOD9378822
_publ_section_title
;
Structure prediction by ZEFSAII (Michael W. Deem and Ramdas Pophale) SiO2 
 PCOD9378822
Probable space group: I M A 2
;
_chemical_formula_sum "Si O2"
_cell_formula_units_Z 64
_cell_length_a 9.059191
_cell_length_b 20.042525
_cell_length_c 20.812144
_cell_angle_alpha 90.000000
_cell_angle_beta 90.000000
_cell_angle_gamma 90.000000
_cell_volume 3778.841466
_symmetry_space_group_name_H-M "I M A 2"
_symmetry_group_IT_number 46
_symmetry_cell_setting 'orthorhombic'
loop_
_space_group_symop_operation_xyz
x,y,z
-x,-y,z
1/2-x,y,z
1/2+x,-y,z
1/2+x,1/2+y,1/2+z
1/2-x,1/2-y,1/2+z
-x,1/2+y,1/2+z
x,1/2-y,1/2+z
loop_
_atom_site_type_symbol
_atom_site_label
_atom_site_fract_x
_atom_site_fract_y
_atom_site_fract_z
Si Si1 0.425570 0.430504 0.371660
Si Si2 0.424675 0.068350 0.025387
Si Si3 0.927400 0.785221 0.211709
Si Si4 0.425570 0.069496 0.405700
Si Si5 0.573683 0.295897 0.951013
Si Si6 0.575325 0.931651 0.251972
Si Si7 0.426317 0.795897 0.826348
Si Si8 0.427400 0.214780 0.065653
O O1 0.500000 0.500000 0.351460
O O2 0.250000 0.431974 0.361095
O O3 0.450708 0.424105 0.448693
O O4 0.498610 0.367264 0.337760
O O5 0.250000 0.061692 0.035823
O O6 0.473834 0.137345 0.057390
O O7 0.500000 0.000000 0.047253
O O8 0.750000 0.782877 0.223070
O O9 0.973836 0.862655 0.219969
O O10 0.955704 0.763785 0.138681
O O11 0.008362 0.740648 0.264192
O O12 0.250000 0.068027 0.416266
O O13 0.498611 0.132736 0.439599
O O14 0.450706 0.075894 0.328666
O O15 0.500000 0.000000 0.425900
O O16 0.750000 0.302897 0.955905
O O17 0.541023 0.249999 0.888681
O O18 0.508362 0.259354 0.013171
O O19 0.750000 0.938308 0.241535
O O20 0.500000 0.000000 0.230105
O O21 0.250000 0.802897 0.821457
O O22 0.250000 0.217125 0.054292
#
# Coordination Sequence:
#
# PCOD9378822 Si02
#       8
#     8   8   8   8   8   8   8   8
#     4  10  19  33  55  81 111 142 178 225 275 322
#     4   9  18  31  49  75 107 143 181 220 262 316
#     4  10  21  37  55  77 108 147 187 225 272 327
#     4  10  19  33  55  81 111 142 178 225 275 322
#     4  11  22  35  55  82 110 142 184 229 273 321
#     4   9  18  31  49  75 107 143 181 220 262 316
#     4  11  22  35  55  82 110 142 184 229 273 321
#     4  10  21  37  55  77 108 147 187 225 272 327
#
# _framework density 16.936408
#
# number of rings (size 3 to 8) (size 9 to 14) (size 15 to 20)
#    0.000    2.000    2.500    1.500    0.000    4.000 
#    0.000    0.000    0.000    0.750    0.000    0.000 
#    0.000    0.000    0.000    0.000    0.000    0.000 
#
# Total GULP energy -178649.821907 kJ/mol
# GULP energy per Si atom -5582.806935 kJ/mol
# Density = 1.689786 g / cm^3
# Si number density = 16.936408 Si / 1000 Ang^3
#
#
#
# Elastic Constant Matrix: (Units=GPa)
#
#
# Indices 1 2 3 4 5 6 
#
# 1 54.8052 64.4949 63.5049 0.0000 0.0000 0.0000
# 2 64.4949 142.8073 67.4271 0.0000 0.0000 0.0000
# 3 63.5049 67.4271 88.7661 0.0000 0.0000 0.0000
# 4 0.0000 0.0000 0.0000 18.3901 0.0000 0.0000
# 5 0.0000 0.0000 0.0000 0.0000 10.7252 0.0000
# 6 0.0000 0.0000 0.0000 0.0000 0.0000 35.9836
#
#
#
# Elastic Compliance Matrix: (Units=1/GPa)
#
#
# Indices 1 2 3 4 5 6 
#
# 1 0.154149 -0.027360 -0.089498 0.000000 0.000000 0.000000
# 2 -0.027360 0.015774 0.007591 0.000000 0.000000 0.000000
# 3 -0.089498 0.007591 0.069528 0.000000 0.000000 0.000000
# 4 0.000000 0.000000 0.000000 0.054377 0.000000 0.000000
# 5 0.000000 0.000000 0.000000 0.000000 0.093238 0.000000
# 6 0.000000 0.000000 0.000000 0.000000 0.000000 0.027790
#
#
# Mechanical properties :
#
#
# Convention : Reuss Voigt Hill
#
# Bulk Modulus (GPa) = 47.80658 75.24805 61.52732
# Shear Modulus (GPa) = 7.80808 19.08323 13.44565
#
# Velocity S-wave (km/s) = 2.14948 3.36036 2.82066
# Velocity P-wave (km/s) = 5.86930 7.71895 6.85678
#
# Compressibility (1/GPa) = 0.02091762
#
# Stress axis : x y z
#
# Youngs Moduli (GPa) = 6.48725 63.39380 14.38275
#
# Poissons Ratio (x) = 1.73445 1.28723
# Poissons Ratio (y) = 0.17749 -0.10919
# Poissons Ratio (z) = 0.58060 -0.48125
#
# Static dielectric constant tensor:
#      x y z
#    x 1.563460 0.000000 0.000000 
#    y 0.000000 1.553010 0.000000 
#    z 0.000000 0.000000 1.564840 
# 
# From -- ./inp_files/6931.got.cif
#   From: 2010.05.17/outbox.cif.g08.bks.cpg/sg46_4_cif.got.tgz:6931.got - 2010.06.03 19:58:25.
