data_PCOD9378596
_publ_section_title
;
Structure prediction by ZEFSAII (Michael W. Deem and Ramdas Pophale) SiO2 
 PCOD9378596
Probable space group: I M A 2
;
_chemical_formula_sum "Si O2"
_cell_formula_units_Z 40
_cell_length_a 9.922255
_cell_length_b 10.121704
_cell_length_c 16.837821
_cell_angle_alpha 90.000000
_cell_angle_beta 90.000000
_cell_angle_gamma 90.000000
_cell_volume 1691.024520
_symmetry_space_group_name_H-M "I M A 2"
_symmetry_group_IT_number 46
_symmetry_cell_setting 'orthorhombic'
loop_
_space_group_symop_operation_xyz
x,y,z
-x,-y,z
1/2-x,y,z
1/2+x,-y,z
1/2+x,1/2+y,1/2+z
1/2-x,1/2-y,1/2+z
-x,1/2+y,1/2+z
x,1/2-y,1/2+z
loop_
_atom_site_type_symbol
_atom_site_label
_atom_site_fract_x
_atom_site_fract_y
_atom_site_fract_z
Si Si1 0.250000 0.069865 0.623020
Si Si2 0.750000 0.947141 0.799086
Si Si3 0.250000 0.129616 0.444960
Si Si4 0.750000 0.290611 0.554242
Si Si5 0.543044 0.707101 0.820219
Si Si6 0.250000 0.726175 0.379484
Si Si7 0.750000 0.591482 0.533954
Si Si8 0.970081 0.707348 0.640655
O O1 0.250000 0.994521 0.708158
O O2 0.250000 0.046600 0.527364
O O3 0.115493 0.157834 0.633504
O O4 0.622477 0.848966 0.813791
O O5 0.750000 0.069861 0.857631
O O6 0.122353 0.121653 0.385929
O O7 0.250000 0.284885 0.474107
O O8 0.750000 0.220602 0.469620
O O9 0.750000 0.438362 0.518993
O O10 0.618547 0.269967 0.607566
O O11 0.389182 0.724375 0.842897
O O12 0.545065 0.656711 0.730067
O O13 0.885263 0.612151 0.584487
#
# Coordination Sequence:
#
# PCOD9378596 Si02
#       8
#     4   4   4   4   8   4   4   8
#     4   8  16  33  50  66  96 138 172 193 230 297
#     4   9  19  32  47  70 104 137 162 196 246 301
#     4   9  16  32  54  74  96 127 171 206 232 292
#     4  12  21  30  48  78 108 126 153 206 262 297
#     4  10  19  32  49  71  99 133 167 200 241 292
#     4  12  21  29  48  80 108 125 153 207 261 293
#     4  10  19  32  51  74  98 127 159 200 249 296
#     4   9  19  33  46  68 101 136 166 192 241 302
#
# _framework density 23.654299999999999
#
# number of rings (size 3 to 8) (size 9 to 14) (size 15 to 20)
#    0.000    2.400    0.000    7.200    0.000    1.600 
#    0.000    0.000    0.000    0.000    0.000   50.400 
#    0.000    0.000    0.000    0.000    0.000    0.000 
#
# Total GULP energy -111594.571253 kJ/mol
# GULP energy per Si atom -5579.728563 kJ/mol
# Density = 2.360046 g / cm^3
# Si number density = 23.654300 Si / 1000 Ang^3
#
#
#
# Elastic Constant Matrix: (Units=GPa)
#
#
# Indices 1 2 3 4 5 6 
#
# 1 199.1832 7.7279 64.7322 0.0000 0.0000 0.0000
# 2 7.7279 56.5008 17.8376 0.0000 0.0000 0.0000
# 3 64.7322 17.8376 203.5473 0.0000 0.0000 0.0000
# 4 0.0000 0.0000 0.0000 1.8485 0.0000 0.0000
# 5 0.0000 0.0000 0.0000 0.0000 43.1772 0.0000
# 6 0.0000 0.0000 0.0000 0.0000 0.0000 -3.8268
#
#
#
# Elastic Compliance Matrix: (Units=1/GPa)
#
#
# Indices 1 2 3 4 5 6 
#
# 1 0.005602 -0.000210 -0.001763 0.000000 0.000000 0.000000
# 2 -0.000210 0.018210 -0.001529 0.000000 0.000000 0.000000
# 3 -0.001763 -0.001529 0.005608 0.000000 0.000000 0.000000
# 4 0.000000 0.000000 0.000000 0.540983 0.000000 0.000000
# 5 0.000000 0.000000 0.000000 0.000000 0.023160 0.000000
# 6 0.000000 0.000000 0.000000 0.000000 0.000000 -0.261317
#
#
# Mechanical properties :
#
#
# Convention : Reuss Voigt Hill
#
# Bulk Modulus (GPa) = 44.61129 71.09185 57.85157
# Shear Modulus (GPa) = 14.42080 32.83536 23.62808
#
# Velocity S-wave (km/s) = 2.47178 3.72981 3.16395
# Velocity P-wave (km/s) = 5.20067 6.97627 6.15286
#
# Compressibility (1/GPa) = 0.02241585
#
# Stress axis : x y z
#
# Youngs Moduli (GPa) = 178.52012 54.91401 178.33062
#
# Poissons Ratio (x) = 0.01151 0.31441
# Poissons Ratio (y) = 0.03741 0.27270
# Poissons Ratio (z) = 0.31474 0.08397
#
# Static dielectric constant tensor:
#      x y z
#    x 1.824500 0.000000 0.000000 
#    y 0.000000 1.995190 0.000000 
#    z 0.000000 0.000000 1.923580 
# 
# From -- ./inp_files/18095.got.cif
#   From: 2010.05.17/outbox.cif.g08.bks.cpg/sg46_10_cif.got.tgz:18095.got - 2010.06.03 19:58:25.
