data_PCOD9378500
_publ_section_title
;
Structure prediction by ZEFSAII (Michael W. Deem and Ramdas Pophale) SiO2 
 PCOD9378500
Probable space group: I M A 2
;
_chemical_formula_sum "Si O2"
_cell_formula_units_Z 56
_cell_length_a 8.483319
_cell_length_b 21.050664
_cell_length_c 14.213321
_cell_angle_alpha 90.000000
_cell_angle_beta 90.000000
_cell_angle_gamma 90.000000
_cell_volume 2538.207727
_symmetry_space_group_name_H-M "I M A 2"
_symmetry_group_IT_number 46
_symmetry_cell_setting 'orthorhombic'
loop_
_space_group_symop_operation_xyz
x,y,z
-x,-y,z
1/2-x,y,z
1/2+x,-y,z
1/2+x,1/2+y,1/2+z
1/2-x,1/2-y,1/2+z
-x,1/2+y,1/2+z
x,1/2-y,1/2+z
loop_
_atom_site_type_symbol
_atom_site_label
_atom_site_fract_x
_atom_site_fract_y
_atom_site_fract_z
Si Si1 0.934800 0.931894 0.976330
Si Si2 0.067192 0.339631 0.921944
Si Si3 0.928600 0.433223 0.780292
Si Si4 0.572387 0.331497 0.614115
Si Si5 0.060714 0.259962 0.266872
Si Si6 0.439821 0.432990 0.072595
Si Si7 0.935549 0.401056 0.275298
O O1 0.750000 0.931891 0.992635
O O2 0.975967 0.927413 0.866433
O O3 0.000000 0.000000 0.011711
O O4 0.003028 0.868024 0.024500
O O5 0.250000 0.324452 0.938411
O O6 0.004336 0.282178 0.857320
O O7 0.044976 0.399787 0.853433
O O8 0.001312 0.369290 0.018232
O O9 0.750000 0.438437 0.818603
O O10 0.921214 0.387732 0.690855
O O11 0.000000 0.500000 0.753680
O O12 0.750000 0.308782 0.594774
O O13 0.476312 0.277260 0.669470
O O14 0.250000 0.268573 0.273437
O O15 0.972783 0.326276 0.269744
O O16 0.500000 0.500000 0.030737
O O17 0.250000 0.432768 0.069523
O O18 0.499969 0.429415 0.178664
O O19 0.750000 0.413111 0.285009
#
# Coordination Sequence:
#
# PCOD9378500 Si02
#       7
#     8   8   8   8   8   8   8
#     4  12  25  43  66  93 124 162 207 259 315 374
#     4   9  20  37  60  87 119 156 197 244 298 358
#     4  10  19  30  50  80 118 157 196 241 294 354
#     4  10  21  38  60  90 124 161 203 251 305 366
#     4  10  21  41  65  93 127 165 207 252 304 365
#     4  11  23  41  63  91 123 159 204 254 308 368
#     4  12  26  44  64  88 121 164 210 261 312 367
#
# _framework density 22.062812000000001
#
# number of rings (size 3 to 8) (size 9 to 14) (size 15 to 20)
#    0.000    1.429    0.000    5.571    0.000    6.857 
#    0.000    4.286    0.000    0.000    0.000    0.000 
#    0.000    0.000    0.000    0.000    0.000    0.000 
#
# Total GULP energy -156439.343690 kJ/mol
# GULP energy per Si atom -5587.119417 kJ/mol
# Density = 2.201260 g / cm^3
# Si number density = 22.062812 Si / 1000 Ang^3
#
#
#
# Elastic Constant Matrix: (Units=GPa)
#
#
# Indices 1 2 3 4 5 6 
#
# 1 47.8207 -10.9902 -14.9313 0.0000 0.0000 0.0000
# 2 -10.9902 81.0234 0.5379 0.0000 0.0000 0.0000
# 3 -14.9313 0.5379 69.4317 0.0000 0.0000 0.0000
# 4 0.0000 0.0000 0.0000 27.4229 0.0000 0.0000
# 5 0.0000 0.0000 0.0000 0.0000 23.6117 0.0000
# 6 0.0000 0.0000 0.0000 0.0000 0.0000 30.2735
#
#
#
# Elastic Compliance Matrix: (Units=1/GPa)
#
#
# Indices 1 2 3 4 5 6 
#
# 1 0.023175 0.003111 0.004960 0.000000 0.000000 0.000000
# 2 0.003111 0.012760 0.000570 0.000000 0.000000 0.000000
# 3 0.004960 0.000570 0.015465 0.000000 0.000000 0.000000
# 4 0.000000 0.000000 0.000000 0.036466 0.000000 0.000000
# 5 0.000000 0.000000 0.000000 0.000000 0.042352 0.000000
# 6 0.000000 0.000000 0.000000 0.000000 0.000000 0.033032
#
#
# Mechanical properties :
#
#
# Convention : Reuss Voigt Hill
#
# Bulk Modulus (GPa) = 14.56017 16.38986 15.47501
# Shear Modulus (GPa) = 29.60985 31.17226 30.39106
#
# Velocity S-wave (km/s) = 3.66740 3.76292 3.71547
# Velocity P-wave (km/s) = 4.95448 5.13072 5.04337
#
# Compressibility (1/GPa) = 0.06868053
#
# Stress axis : x y z
#
# Youngs Moduli (GPa) = 43.15014 78.36842 64.66296
#
# Poissons Ratio (x) = -0.24377 -0.32071
# Poissons Ratio (y) = -0.13422 -0.03686
# Poissons Ratio (z) = -0.21401 -0.04468
#
# Static dielectric constant tensor:
#      x y z
#    x 1.786390 0.000000 0.000000 
#    y 0.000000 1.815110 0.000000 
#    z 0.000000 0.000000 1.836110 
# 
# From -- ./inp_files/14212.got.cif
#   From: 2010.05.17/outbox.cif.g08.bks.cpg/sg46_8_cif.got.tgz:14212.got - 2010.06.03 19:58:25.
