data_PCOD9378387
_publ_section_title
;
Structure prediction by ZEFSAII (Michael W. Deem and Ramdas Pophale) SiO2 
 PCOD9378387
Probable space group: I M A 2
;
_chemical_formula_sum "Si O2"
_cell_formula_units_Z 40
_cell_length_a 25.612367
_cell_length_b 5.227724
_cell_length_c 13.334890
_cell_angle_alpha 90.000000
_cell_angle_beta 90.000000
_cell_angle_gamma 90.000000
_cell_volume 1785.466904
_symmetry_space_group_name_H-M "I M A 2"
_symmetry_group_IT_number 46
_symmetry_cell_setting 'orthorhombic'
loop_
_space_group_symop_operation_xyz
x,y,z
-x,-y,z
1/2-x,y,z
1/2+x,-y,z
1/2+x,1/2+y,1/2+z
1/2-x,1/2-y,1/2+z
-x,1/2+y,1/2+z
x,1/2-y,1/2+z
loop_
_atom_site_type_symbol
_atom_site_label
_atom_site_fract_x
_atom_site_fract_y
_atom_site_fract_z
Si Si1 0.857808 0.130422 0.135290
Si Si2 0.250000 0.777337 0.161132
Si Si3 0.531429 0.743043 0.226242
Si Si4 0.365049 0.124759 0.335837
Si Si5 0.905539 0.880504 0.556155
Si Si6 0.750000 0.781875 0.796601
O O1 0.802739 0.241539 0.099028
O O2 0.899450 0.340830 0.105744
O O3 0.856240 0.105819 0.256287
O O4 0.866414 0.849950 0.089567
O O5 0.250000 0.555770 0.243522
O O6 0.250000 0.058462 0.211705
O O7 0.500000 0.500000 0.261445
O O8 0.589001 0.727714 0.275718
O O9 0.541566 0.727575 0.105963
O O10 0.500000 0.000000 0.250872
O O11 0.392729 0.072512 0.440734
O O12 0.306924 0.245066 0.349003
#
# Coordination Sequence:
#
# PCOD9378387 Si02
#       6
#     8   4   8   8   8   4
#     4  10  22  39  61  93 130 171 217 265 319 392
#     4  10  18  36  60  86 129 174 207 260 316 364
#     4  11  24  43  67  96 131 172 224 276 328 395
#     4  10  24  44  68  98 136 175 216 276 335 390
#     4  11  24  41  65  94 129 171 221 271 330 392
#     4  10  22  38  66  98 129 172 219 256 320 406
#
# _framework density 22.403102000000001
#
# number of rings (size 3 to 8) (size 9 to 14) (size 15 to 20)
#    0.000    1.600    0.000    6.000    0.000   12.800 
#    0.000    1.000    0.000    0.000    0.000    0.000 
#    0.000    0.000    0.000    0.000    0.000    0.000 
#
# Total GULP energy -111385.471064 kJ/mol
# GULP energy per Si atom -5569.273553 kJ/mol
# Density = 2.235211 g / cm^3
# Si number density = 22.403102 Si / 1000 Ang^3
#
#
#
# Elastic Constant Matrix: (Units=GPa)
#
#
# Indices 1 2 3 4 5 6 
#
# 1 119.6833 26.7879 0.7825 0.0000 0.0000 0.0000
# 2 26.7879 111.8332 25.6289 0.0000 0.0000 0.0000
# 3 0.7825 25.6289 92.2145 0.0000 0.0000 0.0000
# 4 0.0000 0.0000 0.0000 17.1110 0.0000 0.0000
# 5 0.0000 0.0000 0.0000 0.0000 20.2448 0.0000
# 6 0.0000 0.0000 0.0000 0.0000 0.0000 31.1777
#
#
#
# Elastic Compliance Matrix: (Units=1/GPa)
#
#
# Indices 1 2 3 4 5 6 
#
# 1 0.008855 -0.002247 0.000549 0.000000 0.000000 0.000000
# 2 -0.002247 0.010120 -0.002794 0.000000 0.000000 0.000000
# 3 0.000549 -0.002794 0.011616 0.000000 0.000000 0.000000
# 4 0.000000 0.000000 0.000000 0.058442 0.000000 0.000000
# 5 0.000000 0.000000 0.000000 0.000000 0.049395 0.000000
# 6 0.000000 0.000000 0.000000 0.000000 0.000000 0.032074
#
#
# Mechanical properties :
#
#
# Convention : Reuss Voigt Hill
#
# Bulk Modulus (GPa) = 46.27776 47.79219 47.03497
# Shear Modulus (GPa) = 26.78268 31.74216 29.26242
#
# Velocity S-wave (km/s) = 3.46134 3.76821 3.61803
# Velocity P-wave (km/s) = 6.05608 6.34915 6.20435
#
# Compressibility (1/GPa) = 0.02160865
#
# Stress axis : x y z
#
# Youngs Moduli (GPa) = 112.93439 98.81113 86.08777
#
# Poissons Ratio (x) = 0.22202 -0.04729
# Poissons Ratio (y) = 0.25375 0.24050
# Poissons Ratio (z) = -0.06204 0.27604
#
# Static dielectric constant tensor:
#      x y z
#    x 1.974810 0.000000 0.000000 
#    y 0.000000 1.809870 0.000000 
#    z 0.000000 0.000000 1.886460 
# 
# From -- ./inp_files/17275.got.cif
#   From: 2010.05.17/outbox.cif.g08.bks.cpg/sg46_9_cif.got.tgz:17275.got - 2010.06.03 19:58:25.
