data_PCOD9378519
_publ_section_title
;
Structure prediction by ZEFSAII (Michael W. Deem and Ramdas Pophale) SiO2 
 PCOD9378519
Probable space group: I M A 2
;
_chemical_formula_sum "Si O2"
_cell_formula_units_Z 64
_cell_length_a 15.129404
_cell_length_b 28.098475
_cell_length_c 8.842377
_cell_angle_alpha 90.000000
_cell_angle_beta 90.000000
_cell_angle_gamma 90.000000
_cell_volume 3759.011006
_symmetry_space_group_name_H-M "I M A 2"
_symmetry_group_IT_number 46
_symmetry_cell_setting 'orthorhombic'
loop_
_space_group_symop_operation_xyz
x,y,z
-x,-y,z
1/2-x,y,z
1/2+x,-y,z
1/2+x,1/2+y,1/2+z
1/2-x,1/2-y,1/2+z
-x,1/2+y,1/2+z
x,1/2-y,1/2+z
loop_
_atom_site_type_symbol
_atom_site_label
_atom_site_fract_x
_atom_site_fract_y
_atom_site_fract_z
Si Si1 0.152940 0.926054 0.246270
Si Si2 0.649854 0.531692 0.239574
Si Si3 0.852130 0.698725 0.242761
Si Si4 0.967424 0.615024 0.105329
Si Si5 0.850245 0.073077 0.608671
Si Si6 0.964512 0.887104 0.243656
Si Si7 0.647915 0.802825 0.104645
Si Si8 0.597499 0.980087 0.077273
O O1 0.250000 0.905388 0.213753
O O2 0.146555 0.934221 0.427049
O O3 0.068088 0.894536 0.202632
O O4 0.144581 0.976661 0.162993
O O5 0.750000 0.543825 0.192762
O O6 0.581980 0.568071 0.165747
O O7 0.632748 0.477589 0.187700
O O8 0.642451 0.533994 0.420604
O O9 0.750000 0.685791 0.204219
O O10 0.919164 0.660232 0.176615
O O11 0.868763 0.750999 0.175511
O O12 0.859121 0.699960 0.423783
O O13 0.070783 0.609040 0.146749
O O14 0.959016 0.616640 0.924309
O O15 0.750000 0.088257 0.647733
O O16 0.918660 0.841892 0.168609
O O17 0.915637 0.934613 0.184367
O O18 0.750000 0.815904 0.142236
O O19 0.500000 0.000000 0.038693
#
# Coordination Sequence:
#
# PCOD9378519 Si02
#       8
#     8   8   8   8   8   8   8   8
#     4   9  18  34  52  71  99 134 170 208 247 291
#     4  11  21  31  46  71 102 136 171 207 247 292
#     4  10  21  37  56  78 102 130 161 198 246 296
#     4  11  20  33  52  74 101 132 166 207 247 294
#     4   9  19  34  51  71  98 134 172 207 247 291
#     4  10  21  33  51  76 100 131 169 204 248 296
#     4  10  21  37  56  77 103 130 160 199 244 295
#     4  10  19  31  47  70 101 135 170 208 247 291
#
# _framework density 17.025753999999999
#
# number of rings (size 3 to 8) (size 9 to 14) (size 15 to 20)
#    0.000    2.000    0.000    4.125    0.000    7.000 
#    0.000    0.000    0.000    0.750    0.000    0.000 
#    0.000    0.000    0.000    0.000    0.000    0.000 
#
# Total GULP energy -178621.201434 kJ/mol
# GULP energy per Si atom -5581.912545 kJ/mol
# Density = 1.698700 g / cm^3
# Si number density = 17.025754 Si / 1000 Ang^3
#
#
#
# Elastic Constant Matrix: (Units=GPa)
#
#
# Indices 1 2 3 4 5 6 
#
# 1 137.4003 85.6083 53.3679 -0.0003 -0.0001 0.0000
# 2 85.6083 94.4215 44.3086 0.0002 0.0002 0.0000
# 3 53.3679 44.3086 56.1842 -0.0013 0.0002 -0.0013
# 4 -0.0003 0.0002 -0.0013 32.8499 -0.0003 -0.0006
# 5 -0.0001 0.0002 0.0002 -0.0003 24.5909 0.0000
# 6 0.0000 0.0000 -0.0013 -0.0006 0.0000 26.5108
#
#
#
# Elastic Compliance Matrix: (Units=1/GPa)
#
#
# Indices 1 2 3 4 5 6 
#
# 1 0.018227 -0.013337 -0.006796 0.000000 0.000000 0.000000
# 2 -0.013337 0.026572 -0.008287 -0.000001 0.000000 0.000000
# 3 -0.006796 -0.008287 0.030789 0.000001 0.000000 0.000002
# 4 0.000000 -0.000001 0.000001 0.030441 0.000000 0.000001
# 5 0.000000 0.000000 0.000000 0.000000 0.040665 0.000000
# 6 0.000000 0.000000 0.000002 0.000001 0.000000 0.037720
#
#
# Mechanical properties :
#
#
# Convention : Reuss Voigt Hill
#
# Bulk Modulus (GPa) = 53.33641 72.73062 63.03352
# Shear Modulus (GPa) = 20.20176 23.77174 21.98675
#
# Velocity S-wave (km/s) = 3.44836 3.74066 3.59748
# Velocity P-wave (km/s) = 6.87385 7.84012 7.37283
#
# Compressibility (1/GPa) = 0.01874892
#
# Stress axis : x y z
#
# Youngs Moduli (GPa) = 54.86314 37.63418 32.47937
#
# Poissons Ratio (x) = 0.50193 0.22072
# Poissons Ratio (y) = 0.73171 0.26915
# Poissons Ratio (z) = 0.37283 0.31187
#
# Static dielectric constant tensor:
#      x y z
#    x 1.603270 0.000000 0.000000 
#    y 0.000000 1.531760 0.000000 
#    z 0.000000 0.000000 1.569120 
# 
# From -- ./inp_files/6079.got.cif
#   From: 2010.05.17/outbox.cif.g08.bks.cpg/sg46_4_cif.got.tgz:6079.got - 2010.06.03 19:58:25.
