data_PCOD9378426
_publ_section_title
;
Structure prediction by ZEFSAII (Michael W. Deem and Ramdas Pophale) SiO2 
 PCOD9378426
Probable space group: I M A 2
;
_chemical_formula_sum "Si O2"
_cell_formula_units_Z 64
_cell_length_a 8.728099
_cell_length_b 18.773884
_cell_length_c 26.911351
_cell_angle_alpha 90.000000
_cell_angle_beta 90.000000
_cell_angle_gamma 90.000000
_cell_volume 4409.702537
_symmetry_space_group_name_H-M "I M A 2"
_symmetry_group_IT_number 46
_symmetry_cell_setting 'orthorhombic'
loop_
_space_group_symop_operation_xyz
x,y,z
-x,-y,z
1/2-x,y,z
1/2+x,-y,z
1/2+x,1/2+y,1/2+z
1/2-x,1/2-y,1/2+z
-x,1/2+y,1/2+z
x,1/2-y,1/2+z
loop_
_atom_site_type_symbol
_atom_site_label
_atom_site_fract_x
_atom_site_fract_y
_atom_site_fract_z
Si Si1 0.566279 0.078061 0.215350
Si Si2 0.426141 0.798129 0.460101
Si Si3 0.934015 0.578274 0.606227
Si Si4 0.065867 0.166619 0.304828
Si Si5 0.935483 0.339418 0.513974
Si Si6 0.066678 0.421261 0.418003
Si Si7 0.927411 0.296104 0.358975
Si Si8 0.931545 0.578122 0.903275
O O1 0.750000 0.074396 0.213063
O O2 0.498051 0.094979 0.161053
O O3 0.510568 0.134529 0.255897
O O4 0.500000 0.000000 0.229163
O O5 0.250000 0.817580 0.469892
O O6 0.479966 0.742382 0.501731
O O7 0.429436 0.750492 0.409832
O O8 0.518940 0.868613 0.447244
O O9 0.750000 0.576045 0.606764
O O10 0.000000 0.500000 0.593391
O O11 0.996370 0.632318 0.565145
O O12 0.250000 0.165724 0.300775
O O13 0.020163 0.115568 0.351315
O O14 0.008406 0.245612 0.318809
O O15 0.750000 0.343405 0.513571
O O16 0.999307 0.388209 0.469133
O O17 0.250000 0.422726 0.421009
O O18 0.000000 0.500000 0.411356
O O19 0.012544 0.368538 0.373949
O O20 0.750000 0.309318 0.346319
O O21 0.750000 0.572929 0.902213
O O22 0.000000 0.500000 0.907851
#
# Coordination Sequence:
#
# PCOD9378426 Si02
#       8
#     8   8   8   8   8   8   8   8
#     4  11  21  33  47  64  87 116 149 187 224 260
#     4   8  16  29  44  60  83 111 141 176 214 254
#     4  11  21  33  47  64  87 115 147 185 222 260
#     4  10  19  31  46  65  87 116 150 183 219 262
#     4  10  19  32  47  64  86 115 148 182 220 264
#     4  11  20  30  44  64  89 118 150 184 219 260
#     4   9  17  30  45  63  86 114 145 180 219 260
#     4  10  19  28  42  62  87 115 146 179 213 254
#
# _framework density 14.513450000000001
#
# number of rings (size 3 to 8) (size 9 to 14) (size 15 to 20)
#    0.000    2.000    0.000    7.125    0.000    6.000 
#    0.000    0.000    0.000    0.000    0.000    0.000 
#    0.000    1.000    0.000    7.000    0.000    5.500 
#
# Total GULP energy -178501.635069 kJ/mol
# GULP energy per Si atom -5578.176096 kJ/mol
# Density = 1.448042 g / cm^3
# Si number density = 14.513450 Si / 1000 Ang^3
#
#
#
# Elastic Constant Matrix: (Units=GPa)
#
#
# Indices 1 2 3 4 5 6 
#
# 1 102.4252 46.9177 33.3257 0.0000 0.0000 0.0000
# 2 46.9177 99.8153 41.7313 0.0000 0.0000 0.0000
# 3 33.3257 41.7313 64.6899 0.0000 0.0000 0.0000
# 4 0.0000 0.0000 0.0000 27.3964 0.0000 0.0000
# 5 0.0000 0.0000 0.0000 0.0000 21.4115 0.0000
# 6 0.0000 0.0000 0.0000 0.0000 0.0000 25.2903
#
#
#
# Elastic Compliance Matrix: (Units=1/GPa)
#
#
# Indices 1 2 3 4 5 6 
#
# 1 0.013090 -0.004565 -0.003799 0.000000 0.000000 0.000000
# 2 -0.004565 0.015310 -0.007525 0.000000 0.000000 0.000000
# 3 -0.003799 -0.007525 0.022270 0.000000 0.000000 0.000000
# 4 0.000000 0.000000 0.000000 0.036501 0.000000 0.000000
# 5 0.000000 0.000000 0.000000 0.000000 0.046704 0.000000
# 6 0.000000 0.000000 0.000000 0.000000 0.000000 0.039541
#
#
# Mechanical properties :
#
#
# Convention : Reuss Voigt Hill
#
# Bulk Modulus (GPa) = 52.92977 56.76444 54.84710
# Shear Modulus (GPa) = 23.64165 24.48334 24.06250
#
# Velocity S-wave (km/s) = 4.04040 4.11170 4.07620
# Velocity P-wave (km/s) = 7.63643 7.85735 7.74768
#
# Compressibility (1/GPa) = 0.01889296
#
# Stress axis : x y z
#
# Youngs Moduli (GPa) = 76.39298 65.31569 44.90386
#
# Poissons Ratio (x) = 0.29815 0.17058
# Poissons Ratio (y) = 0.34871 0.33790
# Poissons Ratio (z) = 0.29021 0.49150
#
# Static dielectric constant tensor:
#      x y z
#    x 1.485220 0.000000 0.000000 
#    y 0.000000 1.474610 0.000000 
#    z 0.000000 0.000000 1.467520 
# 
# From -- ./inp_files/23301.got.cif
#   From: 2010.05.17/outbox.cif.g08.bks.cpg/sg46_12_cif.got.tgz:23301.got - 2010.06.03 19:58:25.
