data_PCOD9378964
_publ_section_title
;
Structure prediction by ZEFSAII (Michael W. Deem and Ramdas Pophale) SiO2 
 PCOD9378964
Probable space group: I M A 2
;
_chemical_formula_sum "Si O2"
_cell_formula_units_Z 64
_cell_length_a 7.684213
_cell_length_b 14.911580
_cell_length_c 25.029971
_cell_angle_alpha 90.000000
_cell_angle_beta 90.000000
_cell_angle_gamma 90.000000
_cell_volume 2868.028112
_symmetry_space_group_name_H-M "I M A 2"
_symmetry_group_IT_number 46
_symmetry_cell_setting 'orthorhombic'
loop_
_space_group_symop_operation_xyz
x,y,z
-x,-y,z
1/2-x,y,z
1/2+x,-y,z
1/2+x,1/2+y,1/2+z
1/2-x,1/2-y,1/2+z
-x,1/2+y,1/2+z
x,1/2-y,1/2+z
loop_
_atom_site_type_symbol
_atom_site_label
_atom_site_fract_x
_atom_site_fract_y
_atom_site_fract_z
Si Si1 0.549182 0.896154 0.104110
Si Si2 0.458683 0.102898 0.763016
Si Si3 0.543420 0.685489 0.375655
Si Si4 0.052125 0.886263 0.375918
Si Si5 0.040375 0.597479 0.992862
Si Si6 0.052680 0.247602 0.185181
Si Si7 0.958850 0.303953 0.496221
Si Si8 0.041016 0.594144 0.760644
O O1 0.750000 0.892595 0.119624
O O2 0.466139 0.813995 0.138851
O O3 0.524601 0.867705 0.042967
O O4 0.500000 0.000000 0.111404
O O5 0.250000 0.115291 0.762587
O O6 0.515295 0.128714 0.823800
O O7 0.528364 0.166027 0.714884
O O8 0.500000 0.000000 0.753125
O O9 0.750000 0.700374 0.369794
O O10 0.444993 0.779383 0.372919
O O11 0.514434 0.659563 0.437715
O O12 0.250000 0.920379 0.376632
O O13 0.968117 0.909159 0.432209
O O14 0.967992 0.912713 0.320548
O O15 0.250000 0.602624 0.991597
O O16 0.983357 0.699517 0.008225
O O17 0.000000 0.500000 0.019264
O O18 0.250000 0.272735 0.168358
O O19 0.052315 0.175800 0.232911
O O20 0.750000 0.303323 0.496709
O O21 0.250000 0.608989 0.761315
O O22 0.000000 0.500000 0.733024
#
# Coordination Sequence:
#
# PCOD9378964 Si02
#       8
#     8   8   8   8   8   8   8   8
#     4  11  24  43  68  92 119 155 201 253 309 367
#     4  10  22  39  61  90 123 160 201 247 299 361
#     4  10  19  34  58  86 120 161 204 248 302 357
#     4   9  18  31  47  75 114 155 197 240 289 346
#     4   9  18  32  51  78 114 156 196 240 290 345
#     4  10  22  42  62  85 119 154 196 250 301 359
#     4  10  22  40  61  88 125 161 205 258 306 362
#     4  11  21  31  50  80 114 154 197 240 292 355
#
# _framework density 22.314983000000002
#
# number of rings (size 3 to 8) (size 9 to 14) (size 15 to 20)
#    0.000    2.000    1.250    3.000    0.000    7.000 
#    0.000    1.875    0.000    3.000    0.000    0.000 
#    0.000    0.000    0.000    0.000    0.000    0.000 
#
# Total GULP energy -178262.167086 kJ/mol
# GULP energy per Si atom -5570.692721 kJ/mol
# Density = 2.226419 g / cm^3
# Si number density = 22.314983 Si / 1000 Ang^3
#
#
#
# Elastic Constant Matrix: (Units=GPa)
#
#
# Indices 1 2 3 4 5 6 
#
# 1 61.2307 3.3208 -3.7453 0.0000 0.0000 0.0000
# 2 3.3208 145.1920 64.4432 0.0000 0.0000 0.0000
# 3 -3.7453 64.4432 110.2424 0.0000 0.0000 0.0000
# 4 0.0000 0.0000 0.0000 -21.5745 0.0000 0.0000
# 5 0.0000 0.0000 0.0000 0.0000 9.8905 0.0000
# 6 0.0000 0.0000 0.0000 0.0000 0.0000 25.0839
#
#
#
# Elastic Compliance Matrix: (Units=1/GPa)
#
#
# Indices 1 2 3 4 5 6 
#
# 1 0.016442 -0.000843 0.001051 0.000000 0.000000 0.000000
# 2 -0.000843 0.009344 -0.005491 0.000000 0.000000 0.000000
# 3 0.001051 -0.005491 0.012316 0.000000 0.000000 0.000000
# 4 0.000000 0.000000 0.000000 -0.046351 0.000000 0.000000
# 5 0.000000 0.000000 0.000000 0.000000 0.101107 0.000000
# 6 0.000000 0.000000 0.000000 0.000000 0.000000 0.039866
#
#
# Mechanical properties :
#
#
# Convention : Reuss Voigt Hill
#
# Bulk Modulus (GPa) = 36.31415 49.41140 42.86277
# Shear Modulus (GPa) = 32.79393 19.52307 26.15850
#
# Velocity S-wave (km/s) = 3.83768 2.96106 3.42751
# Velocity P-wave (km/s) = 5.99549 5.82076 5.90877
#
# Compressibility (1/GPa) = 0.02753748
#
# Stress axis : x y z
#
# Youngs Moduli (GPa) = 60.82108 107.02417 81.19398
#
# Poissons Ratio (x) = 0.09018 -0.08535
# Poissons Ratio (y) = 0.05125 0.44580
# Poissons Ratio (z) = -0.06393 0.58762
#
# Static dielectric constant tensor:
#      x y z
#    x 1.718130 0.000000 0.000000 
#    y 0.000000 1.847950 0.000000 
#    z 0.000000 0.000000 1.875630 
# 
# From -- ./inp_files/23228.got.cif
#   From: 2010.05.17/outbox.cif.g08.bks.cpg/sg46_12_cif.got.tgz:23228.got - 2010.06.03 19:58:25.
