data_PCOD9378611
_publ_section_title
;
Structure prediction by ZEFSAII (Michael W. Deem and Ramdas Pophale) SiO2 
 PCOD9378611
Probable space group: I M A 2
;
_chemical_formula_sum "Si O2"
_cell_formula_units_Z 64
_cell_length_a 8.353239
_cell_length_b 31.400427
_cell_length_c 14.808051
_cell_angle_alpha 90.000000
_cell_angle_beta 90.000000
_cell_angle_gamma 90.000000
_cell_volume 3884.081756
_symmetry_space_group_name_H-M "I M A 2"
_symmetry_group_IT_number 46
_symmetry_cell_setting 'orthorhombic'
loop_
_space_group_symop_operation_xyz
x,y,z
-x,-y,z
1/2-x,y,z
1/2+x,-y,z
1/2+x,1/2+y,1/2+z
1/2-x,1/2-y,1/2+z
-x,1/2+y,1/2+z
x,1/2-y,1/2+z
loop_
_atom_site_type_symbol
_atom_site_label
_atom_site_fract_x
_atom_site_fract_y
_atom_site_fract_z
Si Si1 0.443935 0.132538 0.942550
Si Si2 0.943556 0.952983 0.856069
Si Si3 0.443487 0.714732 0.972720
Si Si4 0.939993 0.953232 0.647911
Si Si5 0.935350 0.368216 0.075772
Si Si6 0.936368 0.826799 0.751161
Si Si7 0.057531 0.201931 0.083310
Si Si8 0.060273 0.733818 0.765523
O O1 0.250000 0.131005 0.949533
O O2 0.500112 0.084560 0.922464
O O3 0.480930 0.158153 0.850971
O O4 0.500027 0.160945 0.026087
O O5 0.750000 0.952079 0.855342
O O6 0.997684 0.945075 0.751848
O O7 0.000000 0.000000 0.881626
O O8 0.250000 0.716050 0.983973
O O9 0.479484 0.718507 0.866449
O O10 0.502317 0.669429 0.012064
O O11 0.511305 0.755039 0.028183
O O12 0.750000 0.954404 0.652249
O O13 0.989317 0.914902 0.582531
O O14 0.000000 0.000000 0.621212
O O15 0.750000 0.373485 0.053228
O O16 0.958057 0.348960 0.175678
O O17 0.750000 0.838315 0.735245
O O18 0.962012 0.776652 0.746449
O O19 0.250000 0.200866 0.090093
O O20 0.982322 0.203242 0.182682
O O21 0.250000 0.743463 0.763267
#
# Coordination Sequence:
#
# PCOD9378611 Si02
#       8
#     8   8   8   8   8   8   8   8
#     4   9  18  32  48  70 100 131 165 206 246 288
#     4   9  17  31  47  68  98 128 160 198 242 292
#     4  10  22  36  50  70 100 135 169 209 254 299
#     4  10  19  32  50  73 102 134 166 204 248 301
#     4  11  21  33  49  73 101 134 172 209 253 300
#     4  11  19  31  49  71  99 135 172 207 247 294
#     4  11  21  33  52  74  97 131 172 211 251 296
#     4  11  22  36  49  69 102 136 169 212 256 296
#
# _framework density 16.477511
#
# number of rings (size 3 to 8) (size 9 to 14) (size 15 to 20)
#    0.000    1.750    3.750    1.875    0.000    1.500 
#    0.000    1.250    0.000    0.000    0.000    0.875 
#    0.000    4.000    0.000    0.000    0.000    0.000 
#
# Total GULP energy -178483.454014 kJ/mol
# GULP energy per Si atom -5577.607938 kJ/mol
# Density = 1.644001 g / cm^3
# Si number density = 16.477511 Si / 1000 Ang^3
#
#
#
# Elastic Constant Matrix: (Units=GPa)
#
#
# Indices 1 2 3 4 5 6 
#
# 1 17.2619 8.5432 7.4770 0.0000 0.0000 0.0000
# 2 8.5432 105.1345 24.3007 0.0000 0.0000 0.0000
# 3 7.4770 24.3007 63.5976 -0.0001 0.0000 0.0000
# 4 0.0000 0.0000 -0.0001 22.8802 0.0000 0.0000
# 5 0.0000 0.0000 0.0000 0.0000 18.5229 0.0000
# 6 0.0000 0.0000 0.0000 0.0000 0.0000 24.2219
#
#
#
# Elastic Compliance Matrix: (Units=1/GPa)
#
#
# Indices 1 2 3 4 5 6 
#
# 1 0.062323 -0.003697 -0.005914 0.000000 0.000000 0.000000
# 2 -0.003697 0.010652 -0.003636 0.000000 0.000000 0.000000
# 3 -0.005914 -0.003636 0.017808 0.000000 0.000000 0.000000
# 4 0.000000 0.000000 0.000000 0.043706 0.000000 0.000000
# 5 0.000000 0.000000 0.000000 0.000000 0.053987 0.000000
# 6 0.000000 0.000000 0.000000 0.000000 0.000000 0.041285
#
#
# Mechanical properties :
#
#
# Convention : Reuss Voigt Hill
#
# Bulk Modulus (GPa) = 15.55474 29.62620 22.59047
# Shear Modulus (GPa) = 18.00596 22.83655 20.42126
#
# Velocity S-wave (km/s) = 3.30928 3.72684 3.52425
# Velocity P-wave (km/s) = 4.90533 6.04466 5.50455
#
# Compressibility (1/GPa) = 0.06428907
#
# Stress axis : x y z
#
# Youngs Moduli (GPa) = 16.04547 93.87558 56.15332
#
# Poissons Ratio (x) = 0.34708 0.33211
# Poissons Ratio (y) = 0.05932 0.20415
# Poissons Ratio (z) = 0.09490 0.34130
#
# Static dielectric constant tensor:
#      x y z
#    x 1.576290 0.000000 0.000000 
#    y 0.000000 1.572380 0.000000 
#    z 0.000000 0.000000 1.546430 
# 
# From -- ./inp_files/14747.got.cif
#   From: 2010.05.17/outbox.cif.g08.bks.cpg/sg46_8_cif.got.tgz:14747.got - 2010.06.03 19:58:25.
