data_PCOD9378191
_publ_section_title
;
Structure prediction by ZEFSAII (Michael W. Deem and Ramdas Pophale) SiO2 
 PCOD9378191
Probable space group: I M A 2
;
_chemical_formula_sum "Si O2"
_cell_formula_units_Z 48
_cell_length_a 8.692565
_cell_length_b 9.580239
_cell_length_c 31.703016
_cell_angle_alpha 90.000000
_cell_angle_beta 90.000000
_cell_angle_gamma 90.000000
_cell_volume 2640.127315
_symmetry_space_group_name_H-M "I M A 2"
_symmetry_group_IT_number 46
_symmetry_cell_setting 'orthorhombic'
loop_
_space_group_symop_operation_xyz
x,y,z
-x,-y,z
1/2-x,y,z
1/2+x,-y,z
1/2+x,1/2+y,1/2+z
1/2-x,1/2-y,1/2+z
-x,1/2+y,1/2+z
x,1/2-y,1/2+z
loop_
_atom_site_type_symbol
_atom_site_label
_atom_site_fract_x
_atom_site_fract_y
_atom_site_fract_z
Si Si1 0.434490 0.154810 0.606960
Si Si2 0.934051 0.658165 0.767691
Si Si3 0.566171 0.654771 0.009586
Si Si4 0.934727 0.343223 0.855402
Si Si5 0.566336 0.156561 0.180619
Si Si6 0.934088 0.344745 0.436183
O O1 0.250000 0.155534 0.611931
O O2 0.470315 0.192101 0.558243
O O3 0.511013 0.256908 0.640474
O O4 0.500000 0.000000 0.613816
O O5 0.750000 0.655748 0.767045
O O6 0.000000 0.500000 0.767903
O O7 0.995826 0.716979 0.811854
O O8 0.998904 0.720091 0.724209
O O9 0.500000 0.500000 0.001347
O O10 0.750000 0.649661 0.005226
O O11 0.497552 0.764322 0.976955
O O12 0.750000 0.352340 0.851563
O O13 0.975304 0.246689 0.894988
O O14 0.000000 0.500000 0.861655
O O15 0.750000 0.150963 0.183336
O O16 0.500000 0.000000 0.176929
O O17 0.750000 0.350995 0.438557
O O18 0.000000 0.500000 0.433418
#
# Coordination Sequence:
#
# PCOD9378191 Si02
#       6
#     8   8   8   8   8   8
#     4  10  21  38  58  83 112 145 183 226 274 326
#     4  10  18  31  53  80 109 142 181 227 272 321
#     4  10  21  38  61  84 110 143 184 228 271 324
#     4  10  20  35  56  82 108 141 183 226 271 324
#     4  11  21  35  56  82 113 148 185 229 275 325
#     4  11  24  39  57  81 113 147 182 226 278 330
#
# _framework density 18.180942000000002
#
# number of rings (size 3 to 8) (size 9 to 14) (size 15 to 20)
#    0.000    1.667    0.000    7.500    0.000    6.667 
#    0.000    0.833    0.000    2.000    0.000    0.000 
#    0.000    0.000    0.000    0.000    0.000    0.000 
#
# Total GULP energy -134052.989624 kJ/mol
# GULP energy per Si atom -5585.541234 kJ/mol
# Density = 1.813956 g / cm^3
# Si number density = 18.180942 Si / 1000 Ang^3
#
#
#
# Elastic Constant Matrix: (Units=GPa)
#
#
# Indices 1 2 3 4 5 6 
#
# 1 120.5986 53.1807 85.5027 0.0000 0.0000 0.0000
# 2 53.1807 91.9162 100.6295 0.0000 0.0000 0.0000
# 3 85.5027 100.6295 176.9424 0.0000 0.0000 0.0000
# 4 0.0000 0.0000 0.0000 -11.5434 0.0000 0.0000
# 5 0.0000 0.0000 0.0000 0.0000 27.8729 0.0000
# 6 0.0000 0.0000 0.0000 0.0000 0.0000 30.3034
#
#
#
# Elastic Compliance Matrix: (Units=1/GPa)
#
#
# Indices 1 2 3 4 5 6 
#
# 1 0.012709 -0.001669 -0.005192 0.000000 0.000000 0.000000
# 2 -0.001669 0.029048 -0.015714 0.000000 0.000000 0.000000
# 3 -0.005192 -0.015714 0.017097 0.000000 0.000000 0.000000
# 4 0.000000 0.000000 0.000000 -0.086630 0.000000 0.000000
# 5 0.000000 0.000000 0.000000 0.000000 0.035877 0.000000
# 6 0.000000 0.000000 0.000000 0.000000 0.000000 0.033000
#
#
# Mechanical properties :
#
#
# Convention : Reuss Voigt Hill
#
# Bulk Modulus (GPa) = 72.96576 96.45367 84.70972
# Shear Modulus (GPa) = 55.05407 19.33620 37.19514
#
# Velocity S-wave (km/s) = 5.50881 3.26474 4.52799
# Velocity P-wave (km/s) = 8.98236 8.20845 8.60411
#
# Compressibility (1/GPa) = 0.01370506
#
# Stress axis : x y z
#
# Youngs Moduli (GPa) = 78.68372 34.42531 58.48868
#
# Poissons Ratio (x) = 0.05744 0.30369
# Poissons Ratio (y) = 0.13129 0.91908
# Poissons Ratio (z) = 0.40855 0.54096
#
# Static dielectric constant tensor:
#      x y z
#    x 1.605870 0.000000 0.000000 
#    y 0.000000 1.695910 0.000000 
#    z 0.000000 0.000000 1.652530 
# 
# From -- ./inp_files/24995.got.cif
#   From: 2010.05.17/outbox.cif.g08.bks.cpg/sg46_13_cif.got.tgz:24995.got - 2010.06.03 19:58:25.
