data_PCOD9378121
_publ_section_title
;
Structure prediction by ZEFSAII (Michael W. Deem and Ramdas Pophale) SiO2 
 PCOD9378121
Probable space group: I M A 2
;
_chemical_formula_sum "Si O2"
_cell_formula_units_Z 56
_cell_length_a 8.116828
_cell_length_b 21.099409
_cell_length_c 14.265973
_cell_angle_alpha 90.000000
_cell_angle_beta 90.000000
_cell_angle_gamma 90.000000
_cell_volume 2443.194441
_symmetry_space_group_name_H-M "I M A 2"
_symmetry_group_IT_number 46
_symmetry_cell_setting 'orthorhombic'
loop_
_space_group_symop_operation_xyz
x,y,z
-x,-y,z
1/2-x,y,z
1/2+x,-y,z
1/2+x,1/2+y,1/2+z
1/2-x,1/2-y,1/2+z
-x,1/2+y,1/2+z
x,1/2-y,1/2+z
loop_
_atom_site_type_symbol
_atom_site_label
_atom_site_fract_x
_atom_site_fract_y
_atom_site_fract_z
Si Si1 0.062444 0.165171 0.120150
Si Si2 0.058233 0.095521 0.475415
Si Si3 0.062551 0.668644 0.310996
Si Si4 0.946547 0.237162 0.467801
Si Si5 0.057937 0.568460 0.177479
Si Si6 0.063568 0.569287 0.478817
Si Si7 0.050558 0.068762 0.267852
O O1 0.250000 0.185778 0.137085
O O2 0.991165 0.131960 0.213320
O O3 0.973264 0.219852 0.060867
O O4 0.055298 0.105237 0.049953
O O5 0.250000 0.078130 0.483245
O O6 0.993050 0.071993 0.375365
O O7 0.037323 0.171125 0.475919
O O8 0.967526 0.070342 0.566599
O O9 0.250000 0.688891 0.285927
O O10 0.991581 0.725196 0.374627
O O11 0.981550 0.632656 0.223013
O O12 0.070048 0.611444 0.385938
O O13 0.750000 0.227619 0.458678
O O14 0.250000 0.572321 0.198884
O O15 0.000000 0.500000 0.213217
O O16 0.250000 0.568208 0.517924
O O17 0.000000 0.500000 0.458958
O O18 0.250000 0.071896 0.265929
O O19 0.000000 0.000000 0.227628
#
# Coordination Sequence:
#
# PCOD9378121 Si02
#       7
#     8   8   8   8   8   8   8
#     4  10  20  36  57  84 115 149 187 235 287 343
#     4  11  24  42  60  83 115 155 198 244 289 339
#     4   8  18  35  56  82 115 148 186 232 284 343
#     4  10  21  40  62  88 118 153 192 234 285 346
#     4  11  22  39  61  88 118 153 194 240 289 342
#     4  10  18  30  49  78 113 150 187 230 282 341
#     4  10  23  40  60  85 116 152 194 239 290 342
#
# _framework density 22.920809999999999
#
# number of rings (size 3 to 8) (size 9 to 14) (size 15 to 20)
#    0.000    2.000    0.000    4.286    0.000    5.714 
#    0.000   10.714    0.000    0.000    0.000    0.000 
#    0.000    0.000    0.000    0.000    0.000    0.000 
#
# Total GULP energy -156312.173525 kJ/mol
# GULP energy per Si atom -5582.577626 kJ/mol
# Density = 2.286864 g / cm^3
# Si number density = 22.920810 Si / 1000 Ang^3
#
#
#
# Elastic Constant Matrix: (Units=GPa)
#
#
# Indices 1 2 3 4 5 6 
#
# 1 34.9633 -8.5073 -0.9419 0.0000 0.0000 0.0000
# 2 -8.5073 89.8773 6.7402 0.0000 0.0000 0.0000
# 3 -0.9419 6.7402 86.1571 0.0000 0.0000 0.0000
# 4 0.0000 0.0000 0.0000 27.7896 0.0000 0.0000
# 5 0.0000 0.0000 0.0000 0.0000 19.3160 0.0000
# 6 0.0000 0.0000 0.0000 0.0000 0.0000 7.6782
#
#
#
# Elastic Compliance Matrix: (Units=1/GPa)
#
#
# Indices 1 2 3 4 5 6 
#
# 1 0.029277 0.002763 0.000104 0.000000 0.000000 0.000000
# 2 0.002763 0.011453 -0.000866 0.000000 0.000000 0.000000
# 3 0.000104 -0.000866 0.011676 0.000000 0.000000 0.000000
# 4 0.000000 0.000000 0.000000 0.035985 0.000000 0.000000
# 5 0.000000 0.000000 0.000000 0.000000 0.051771 0.000000
# 6 0.000000 0.000000 0.000000 0.000000 0.000000 0.130239
#
#
# Mechanical properties :
#
#
# Convention : Reuss Voigt Hill
#
# Bulk Modulus (GPa) = 17.72799 22.84218 20.28509
# Shear Modulus (GPa) = 17.53162 25.20387 21.36774
#
# Velocity S-wave (km/s) = 2.76864 3.31963 3.05658
# Velocity P-wave (km/s) = 4.23931 4.96795 4.61803
#
# Compressibility (1/GPa) = 0.05640797
#
# Stress axis : x y z
#
# Youngs Moduli (GPa) = 34.15695 87.31513 85.64888
#
# Poissons Ratio (x) = -0.24128 -0.00890
# Poissons Ratio (y) = -0.09439 0.07415
# Poissons Ratio (z) = -0.00355 0.07559
#
# Static dielectric constant tensor:
#      x y z
#    x 1.849700 0.000000 0.000000 
#    y 0.000000 1.864220 0.000000 
#    z 0.000000 0.000000 1.918110 
# 
# From -- ./inp_files/14199.got.cif
#   From: 2010.05.17/outbox.cif.g08.bks.cpg/sg46_8_cif.got.tgz:14199.got - 2010.06.03 19:58:25.
