data_PCOD9378656
_publ_section_title
;
Structure prediction by ZEFSAII (Michael W. Deem and Ramdas Pophale) SiO2 
 PCOD9378656
Probable space group: I M A 2
;
_chemical_formula_sum "Si O2"
_cell_formula_units_Z 64
_cell_length_a 8.742237
_cell_length_b 30.684762
_cell_length_c 14.689581
_cell_angle_alpha 90.000000
_cell_angle_beta 90.000000
_cell_angle_gamma 90.000000
_cell_volume 3940.530954
_symmetry_space_group_name_H-M "I M A 2"
_symmetry_group_IT_number 46
_symmetry_cell_setting 'orthorhombic'
loop_
_space_group_symop_operation_xyz
x,y,z
-x,-y,z
1/2-x,y,z
1/2+x,-y,z
1/2+x,1/2+y,1/2+z
1/2-x,1/2-y,1/2+z
-x,1/2+y,1/2+z
x,1/2-y,1/2+z
loop_
_atom_site_type_symbol
_atom_site_label
_atom_site_fract_x
_atom_site_fract_y
_atom_site_fract_z
Si Si1 0.931235 0.296014 0.914940
Si Si2 0.567122 0.047136 0.203747
Si Si3 0.434032 0.210595 0.813460
Si Si4 0.928673 0.131987 0.927240
Si Si5 0.070638 0.129543 0.292424
Si Si6 0.432846 0.452667 0.501854
Si Si7 0.077281 0.327065 0.595340
Si Si8 0.072105 0.222885 0.604456
O O1 0.750000 0.294591 0.903112
O O2 0.001746 0.252884 0.866590
O O3 0.999249 0.338928 0.867479
O O4 0.975547 0.295503 0.021120
O O5 0.750000 0.045259 0.195465
O O6 0.515251 0.084321 0.273651
O O7 0.500000 0.000000 0.229584
O O8 0.495527 0.057210 0.103952
O O9 0.250000 0.212635 0.819296
O O10 0.494718 0.166529 0.859329
O O11 0.477857 0.211904 0.706969
O O12 0.750000 0.127271 0.908077
O O13 0.009101 0.085112 0.935035
O O14 0.955703 0.153214 0.026699
O O15 0.250000 0.121872 0.310386
O O16 0.059096 0.155566 0.196910
O O17 0.500000 0.500000 0.477611
O O18 0.250000 0.454220 0.505191
O O19 0.250000 0.339524 0.563722
O O20 0.067385 0.275202 0.595996
O O21 0.250000 0.209547 0.593811
#
# Coordination Sequence:
#
# PCOD9378656 Si02
#       8
#     8   8   8   8   8   8   8   8
#     4  12  24  35  52  79 109 140 178 225 271 319
#     4  11  21  34  52  78 109 141 178 221 268 320
#     4  11  22  38  56  75 103 142 185 224 266 319
#     4  12  23  34  51  79 109 142 180 221 267 321
#     4  11  21  36  55  76 105 145 185 221 264 319
#     4  11  21  35  53  76 107 143 179 219 266 319
#     4  10  19  32  52  74 103 143 183 220 261 311
#     4  10  21  38  56  73 101 142 185 225 266 314
#
# _framework density 16.241465000000002
#
# number of rings (size 3 to 8) (size 9 to 14) (size 15 to 20)
#    0.000    1.000    3.750    6.000    0.000    1.500 
#    0.000    0.000    0.000    0.000    0.000    0.875 
#    0.000    6.000    0.000    0.000    0.000    0.000 
#
# Total GULP energy -178803.128164 kJ/mol
# GULP energy per Si atom -5587.597755 kJ/mol
# Density = 1.620450 g / cm^3
# Si number density = 16.241465 Si / 1000 Ang^3
#
#
#
# Elastic Constant Matrix: (Units=GPa)
#
#
# Indices 1 2 3 4 5 6 
#
# 1 126.4566 49.8821 45.3162 0.0000 0.0044 0.0000
# 2 49.8821 111.3877 43.8105 0.0000 0.0025 0.0000
# 3 45.3162 43.8105 76.5467 0.0000 0.0339 0.0000
# 4 0.0000 0.0000 0.0000 25.5275 0.0101 0.0000
# 5 0.0044 0.0025 0.0339 0.0101-1830.1474 -0.0009
# 6 0.0000 0.0000 0.0000 0.0000 -0.0009 26.7426
#
#
#
# Elastic Compliance Matrix: (Units=1/GPa)
#
#
# Indices 1 2 3 4 5 6 
#
# 1 0.010754 -0.002984 -0.004659 0.000000 0.000000 0.000000
# 2 -0.002984 0.012413 -0.005338 0.000000 0.000000 0.000000
# 3 -0.004659 -0.005338 0.018877 0.000000 0.000000 0.000000
# 4 0.000000 0.000000 0.000000 0.039173 0.000000 0.000000
# 5 0.000000 0.000000 0.000000 0.000000 -0.000546 0.000000
# 6 0.000000 0.000000 0.000000 0.000000 0.000000 0.037394
#
#
# Mechanical properties :
#
#
# Convention : Reuss Voigt Hill
#
# Bulk Modulus (GPa) = 62.17645 65.82319 63.99982
# Shear Modulus (GPa) = 33.46971 -343.88331 -155.20680
#
# Velocity S-wave (km/s) = 4.54448 -14.56679 -9.78619
# Velocity P-wave (km/s) = 8.11801 15.56618 9.39159
#
# Compressibility (1/GPa) = 0.01608326
#
# Stress axis : x y z
#
# Youngs Moduli (GPa) = 92.98573 80.55793 52.97327
#
# Poissons Ratio (x) = 0.24035 0.24680
# Poissons Ratio (y) = 0.27743 0.28279
# Poissons Ratio (z) = 0.43322 0.43005
#
# Static dielectric constant tensor:
#      x y z
#    x 3.264700 0.000000 0.000000 
#    y 0.000000 1.546340 0.000000 
#    z 0.000000 0.000000 1.529390 
# 
# From -- ./inp_files/14772.got.cif
#   From: 2010.05.17/outbox.cif.g08.bks.cpg/sg46_8_cif.got.tgz:14772.got - 2010.06.03 19:58:25.
