data_PCOD9378493
_publ_section_title
;
Structure prediction by ZEFSAII (Michael W. Deem and Ramdas Pophale) SiO2 
 PCOD9378493
Probable space group: I M A 2
;
_chemical_formula_sum "Si O2"
_cell_formula_units_Z 28
_cell_length_a 5.664567
_cell_length_b 14.125076
_cell_length_c 12.777290
_cell_angle_alpha 90.000000
_cell_angle_beta 90.000000
_cell_angle_gamma 90.000000
_cell_volume 1022.342142
_symmetry_space_group_name_H-M "I M A 2"
_symmetry_group_IT_number 46
_symmetry_cell_setting 'orthorhombic'
loop_
_space_group_symop_operation_xyz
x,y,z
-x,-y,z
1/2-x,y,z
1/2+x,-y,z
1/2+x,1/2+y,1/2+z
1/2-x,1/2-y,1/2+z
-x,1/2+y,1/2+z
x,1/2-y,1/2+z
loop_
_atom_site_type_symbol
_atom_site_label
_atom_site_fract_x
_atom_site_fract_y
_atom_site_fract_z
Si Si1 0.750000 0.193359 0.688040
Si Si2 0.250000 0.950401 0.219096
Si Si3 0.250000 0.498736 0.060253
Si Si4 0.250000 0.305932 0.191235
Si Si5 0.750000 0.982145 0.984379
Si Si6 0.250000 0.275737 0.437005
Si Si7 0.250000 0.780811 0.385376
O O1 0.499106 0.240973 0.662821
O O2 0.750000 0.185517 0.814358
O O3 0.750000 0.092284 0.632111
O O4 0.250000 0.860581 0.296308
O O5 0.500000 0.000000 0.243335
O O6 0.250000 0.953654 0.090460
O O7 0.500000 0.500000 0.000735
O O8 0.250000 0.407656 0.135722
O O9 0.250000 0.309961 0.316117
O O10 0.500000 0.000000 0.929186
O O11 0.750000 0.869706 0.006282
O O12 0.498987 0.219126 0.444638
#
# Coordination Sequence:
#
# PCOD9378493 Si02
#       7
#     4   4   4   4   4   4   4
#     4   8  14  22  33  53  80 115 160 207 255 313
#     4  10  21  38  57  77 109 165 211 239 294 392
#     4   8  12  18  27  43  71 109 145 179 233 309
#     4   8  14  21  32  52  84 122 158 195 260 330
#     4  10  21  35  53  80 118 167 207 240 300 389
#     4  10  19  30  48  77 109 146 195 255 306 349
#     4  10  19  32  50  74 105 146 196 253 304 352
#
# _framework density 27.388090999999999
#
# number of rings (size 3 to 8) (size 9 to 14) (size 15 to 20)
#    0.000    2.857    0.000    1.714    0.000    5.714 
#    0.000    0.000    0.000    0.000    0.000    0.000 
#    0.000    0.000    0.000  874.286    0.000    0.000 
#
# Total GULP energy -78107.852363 kJ/mol
# GULP energy per Si atom -5579.132312 kJ/mol
# Density = 2.732575 g / cm^3
# Si number density = 27.388091 Si / 1000 Ang^3
#
#
#
# Elastic Constant Matrix: (Units=GPa)
#
#
# Indices 1 2 3 4 5 6 
#
# 1 381.7325 42.2704 6.6143 0.0000 0.0000 0.0000
# 2 42.2704 73.7508 14.1410 0.0000 0.0000 0.0000
# 3 6.6143 14.1410 105.5808 0.0000 0.0000 0.0000
# 4 0.0000 0.0000 0.0000 45.4153 0.0000 0.0000
# 5 0.0000 0.0000 0.0000 0.0000 1409.8561 0.0000
# 6 0.0000 0.0000 0.0000 0.0000 0.0000 110.2987
#
#
#
# Elastic Compliance Matrix: (Units=1/GPa)
#
#
# Indices 1 2 3 4 5 6 
#
# 1 0.002797 -0.001611 0.000041 0.000000 0.000000 0.000000
# 2 -0.001611 0.014844 -0.001887 0.000000 0.000000 0.000000
# 3 0.000041 -0.001887 0.009722 0.000000 0.000000 0.000000
# 4 0.000000 0.000000 0.000000 0.022019 0.000000 0.000000
# 5 0.000000 0.000000 0.000000 0.000000 0.000709 0.000000
# 6 0.000000 0.000000 0.000000 0.000000 0.000000 0.009066
#
#
# Mechanical properties :
#
#
# Convention : Reuss Voigt Hill
#
# Bulk Modulus (GPa) = 48.90496 76.34616 62.62556
# Shear Modulus (GPa) = 68.59696 346.31657 207.45676
#
# Velocity S-wave (km/s) = 5.01005 11.25710 8.71272
# Velocity P-wave (km/s) = 7.16677 14.03208 11.14141
#
# Compressibility (1/GPa) = 0.02044782
#
# Stress axis : x y z
#
# Youngs Moduli (GPa) = 357.48348 67.36536 102.86317
#
# Poissons Ratio (x) = 0.10853 -0.00417
# Poissons Ratio (y) = 0.57593 0.19413
# Poissons Ratio (z) = -0.01449 0.12714
#
# Static dielectric constant tensor:
#      x y z
#    x 2.124160 0.000000 0.000000 
#    y 0.000000 2.097120 0.000000 
#    z 0.000000 0.000000 2.104600 
# 
# From -- ./inp_files/13287.got.cif
#   From: 2010.05.17/outbox.cif.g08.bks.cpg/sg46_7_cif.got.tgz:13287.got - 2010.06.03 19:58:25.
