data_PCOD9378050
_publ_section_title
;
Structure prediction by ZEFSAII (Michael W. Deem and Ramdas Pophale) SiO2 
 PCOD9378050
Probable space group: I M A 2
;
_chemical_formula_sum "Si O2"
_cell_formula_units_Z 64
_cell_length_a 17.042987
_cell_length_b 7.255384
_cell_length_c 22.359443
_cell_angle_alpha 90.000000
_cell_angle_beta 90.000000
_cell_angle_gamma 90.000000
_cell_volume 2764.821489
_symmetry_space_group_name_H-M "I M A 2"
_symmetry_group_IT_number 46
_symmetry_cell_setting 'orthorhombic'
loop_
_space_group_symop_operation_xyz
x,y,z
-x,-y,z
1/2-x,y,z
1/2+x,-y,z
1/2+x,1/2+y,1/2+z
1/2-x,1/2-y,1/2+z
-x,1/2+y,1/2+z
x,1/2-y,1/2+z
loop_
_atom_site_type_symbol
_atom_site_label
_atom_site_fract_x
_atom_site_fract_y
_atom_site_fract_z
Si Si1 0.406846 0.972769 0.028830
Si Si2 0.593154 0.027231 0.274311
Si Si3 0.093273 0.530470 0.397991
Si Si4 0.093273 0.530470 0.905150
Si Si5 0.157295 0.556395 0.028216
Si Si6 0.657295 0.443604 0.274926
Si Si7 0.907917 0.034718 0.651571
Si Si8 0.342427 0.549635 0.651571
O O1 0.385784 0.755308 0.027101
O O2 0.366495 0.043946 0.089235
O O3 0.500000 0.000000 0.033965
O O4 0.382439 0.045031 0.963145
O O5 0.617561 0.954969 0.339997
O O6 0.614215 0.244693 0.276041
O O7 0.633505 0.956054 0.213907
O O8 0.500000 0.000000 0.269176
O O9 0.108165 0.750000 0.401571
O O10 0.134327 0.463671 0.337614
O O11 0.000000 0.500000 0.391760
O O12 0.000000 0.500000 0.911382
O O13 0.134327 0.463671 0.965528
O O14 0.250000 0.585775 0.031165
O O15 0.128470 0.463782 0.089465
O O16 0.750000 0.414223 0.271977
O O17 0.628471 0.536218 0.213676
O O18 0.887320 0.253445 0.651571
O O19 0.000000 0.000000 0.651571
O O20 0.250000 0.585287 0.651571
#
# Coordination Sequence:
#
# PCOD9378050 Si02
#       8
#     8   8   8   8   8   8   8   8
#     4   9  17  29  46  70  98 125 155 196 242 288
#     4   9  17  29  46  70  98 125 155 196 242 288
#     4   9  18  31  49  74 100 129 165 206 245 292
#     4   9  18  31  49  74 100 129 165 206 245 292
#     4  10  19  31  49  74  98 121 160 207 245 284
#     4  10  19  31  49  74  98 121 160 207 245 284
#     4  10  18  29  46  69  94 123 156 194 242 290
#     4  10  19  31  48  73  98 119 157 206 246 284
#
# _framework density 23.147970000000001
#
# number of rings (size 3 to 8) (size 9 to 14) (size 15 to 20)
#    0.000    2.500    0.000    4.500    0.000    5.500 
#    0.000    0.000    0.000    0.750    0.000  143.500 
#    0.000    0.000    0.000    0.000    0.000    0.000 
#
# Total GULP energy -178623.864933 kJ/mol
# GULP energy per Si atom -5581.995779 kJ/mol
# Density = 2.309528 g / cm^3
# Si number density = 23.147970 Si / 1000 Ang^3
#
#
#
# Elastic Constant Matrix: (Units=GPa)
#
#
# Indices 1 2 3 4 5 6 
#
# 1 142.1361 30.6481 92.8859 0.0000 0.0000 0.0000
# 2 30.6481 104.8327 21.9617 0.0000 0.0000 0.0000
# 3 92.8859 21.9617 307.6555 0.0000 0.0000 0.0000
# 4 0.0000 0.0000 0.0000 -23.0380 0.0000 0.0000
# 5 0.0000 0.0000 0.0000 0.0000 113.7677 0.0000
# 6 0.0000 0.0000 0.0000 0.0000 0.0000 27.8451
#
#
#
# Elastic Compliance Matrix: (Units=1/GPa)
#
#
# Indices 1 2 3 4 5 6 
#
# 1 0.009216 -0.002143 -0.002629 0.000000 0.000000 0.000000
# 2 -0.002143 0.010182 -0.000080 0.000000 0.000000 0.000000
# 3 -0.002629 -0.000080 0.004050 0.000000 0.000000 0.000000
# 4 0.000000 0.000000 0.000000 -0.043407 0.000000 0.000000
# 5 0.000000 0.000000 0.000000 0.000000 0.008790 0.000000
# 6 0.000000 0.000000 0.000000 0.000000 0.000000 0.035913
#
#
# Mechanical properties :
#
#
# Convention : Reuss Voigt Hill
#
# Bulk Modulus (GPa) = 72.76399 93.95732 83.36066
# Shear Modulus (GPa) = 128.10353 50.99018 89.54686
#
# Velocity S-wave (km/s) = 7.44723 4.69848 6.22644
# Velocity P-wave (km/s) = 10.26893 8.37331 9.36918
#
# Compressibility (1/GPa) = 0.01374306
#
# Stress axis : x y z
#
# Youngs Moduli (GPa) = 108.50635 98.20908 246.91649
#
# Poissons Ratio (x) = 0.21051 0.64926
# Poissons Ratio (y) = 0.23258 0.01968
# Poissons Ratio (z) = 0.28531 0.00783
#
# Static dielectric constant tensor:
#      x y z
#    x 1.722680 0.000000 0.000000 
#    y 0.000000 1.809380 0.000000 
#    z 0.000000 0.000000 1.984020 
# 
# From -- ./inp_files/23709.got.cif
#   From: 2010.05.17/outbox.cif.g08.bks.cpg/sg46_12_cif.got.tgz:23709.got - 2010.06.03 19:58:25.
