data_PCOD9378176
_publ_section_title
;
Structure prediction by ZEFSAII (Michael W. Deem and Ramdas Pophale) SiO2 
 PCOD9378176
Probable space group: I M A 2
;
_chemical_formula_sum "Si O2"
_cell_formula_units_Z 48
_cell_length_a 17.212004
_cell_length_b 8.473968
_cell_length_c 19.224328
_cell_angle_alpha 90.000000
_cell_angle_beta 90.000000
_cell_angle_gamma 90.000000
_cell_volume 2803.944581
_symmetry_space_group_name_H-M "I M A 2"
_symmetry_group_IT_number 46
_symmetry_cell_setting 'orthorhombic'
loop_
_space_group_symop_operation_xyz
x,y,z
-x,-y,z
1/2-x,y,z
1/2+x,-y,z
1/2+x,1/2+y,1/2+z
1/2-x,1/2-y,1/2+z
-x,1/2+y,1/2+z
x,1/2-y,1/2+z
loop_
_atom_site_type_symbol
_atom_site_label
_atom_site_fract_x
_atom_site_fract_y
_atom_site_fract_z
Si Si1 0.020967 0.680665 0.442110
Si Si2 0.929931 0.630027 0.222333
Si Si3 0.428204 0.385703 0.841354
Si Si4 0.660039 0.190852 0.348037
Si Si5 0.520104 0.183520 0.593001
Si Si6 0.838902 0.337962 0.196595
O O1 0.099965 0.727013 0.401117
O O2 0.024260 0.715368 0.523853
O O3 0.000000 0.500000 0.428110
O O4 0.955348 0.795833 0.410471
O O5 0.919919 0.752566 0.283504
O O6 0.854783 0.522279 0.212097
O O7 0.000000 0.500000 0.235383
O O8 0.955160 0.718707 0.151650
O O9 0.500000 0.500000 0.821143
O O10 0.356939 0.503890 0.851187
O O11 0.750000 0.226881 0.362890
O O12 0.643118 0.247926 0.268960
O O13 0.600835 0.198827 0.635170
O O14 0.500000 0.000000 0.574486
O O15 0.750000 0.306708 0.178092
#
# Coordination Sequence:
#
# PCOD9378176 Si02
#       6
#     8   8   8   8   8   8
#     4  11  21  34  54  76 100 134 174 213 251 296
#     4   9  17  31  52  76 100 128 164 206 246 291
#     4  10  18  31  52  75 101 132 167 207 248 296
#     4  10  21  35  52  76 105 135 167 207 255 302
#     4   9  18  32  50  74 101 130 166 205 247 295
#     4   9  18  33  52  73 100 133 164 198 248 304
#
# _framework density 17.118742000000001
#
# number of rings (size 3 to 8) (size 9 to 14) (size 15 to 20)
#    0.000    2.667    0.000    7.000    0.000    4.000 
#    0.000    0.833    0.000    4.000    0.000    0.000 
#    0.000    0.000    0.000    0.000    0.000    0.000 
#
# Total GULP energy -133712.984861 kJ/mol
# GULP energy per Si atom -5571.374369 kJ/mol
# Density = 1.707978 g / cm^3
# Si number density = 17.118742 Si / 1000 Ang^3
#
#
#
# Elastic Constant Matrix: (Units=GPa)
#
#
# Indices 1 2 3 4 5 6 
#
# 1 65.5857 34.1990 43.1555 0.0000 0.0000 0.0000
# 2 34.1990 74.8404 55.4805 0.0000 0.0000 0.0000
# 3 43.1555 55.4805 115.0100 0.0000 0.0000 0.0000
# 4 0.0000 0.0000 0.0000 28.8059 0.0000 0.0000
# 5 0.0000 0.0000 0.0000 0.0000 -1.8178 0.0000
# 6 0.0000 0.0000 0.0000 0.0000 0.0000 12.7422
#
#
#
# Elastic Compliance Matrix: (Units=1/GPa)
#
#
# Indices 1 2 3 4 5 6 
#
# 1 0.021897 -0.006094 -0.005277 0.000000 0.000000 0.000000
# 2 -0.006094 0.022496 -0.008565 0.000000 0.000000 0.000000
# 3 -0.005277 -0.008565 0.014807 0.000000 0.000000 0.000000
# 4 0.000000 0.000000 0.000000 0.034715 0.000000 0.000000
# 5 0.000000 0.000000 0.000000 0.000000 -0.550130 0.000000
# 6 0.000000 0.000000 0.000000 0.000000 0.000000 0.078479
#
#
# Mechanical properties :
#
#
# Convention : Reuss Voigt Hill
#
# Bulk Modulus (GPa) = 51.73988 57.90070 54.82029
# Shear Modulus (GPa) = -15.08658 16.11948 0.51645
#
# Velocity S-wave (km/s) = -2.97187 3.07192 0.54986
# Velocity P-wave (km/s) = 4.30275 6.81753 5.70054
#
# Compressibility (1/GPa) = 0.01932745
#
# Stress axis : x y z
#
# Youngs Moduli (GPa) = 45.66808 44.45170 67.53693
#
# Poissons Ratio (x) = 0.27091 0.35636
# Poissons Ratio (y) = 0.27832 0.57848
# Poissons Ratio (z) = 0.24097 0.38074
#
# Static dielectric constant tensor:
#      x y z
#    x 1.589180 0.000000 0.000000 
#    y 0.000000 1.591300 0.000000 
#    z 0.000000 0.000000 1.577710 
# 
# From -- ./inp_files/19849.got.cif
#   From: 2010.05.17/outbox.cif.g08.bks.cpg/sg46_10_cif.got.tgz:19849.got - 2010.06.03 19:58:25.
