data_PCOD9378754
_publ_section_title
;
Structure prediction by ZEFSAII (Michael W. Deem and Ramdas Pophale) SiO2 
 PCOD9378754
Probable space group: I M A 2
;
_chemical_formula_sum "Si O2"
_cell_formula_units_Z 64
_cell_length_a 8.567272
_cell_length_b 28.444139
_cell_length_c 15.131874
_cell_angle_alpha 90.000000
_cell_angle_beta 90.000000
_cell_angle_gamma 90.000000
_cell_volume 3687.466335
_symmetry_space_group_name_H-M "I M A 2"
_symmetry_group_IT_number 46
_symmetry_cell_setting 'orthorhombic'
loop_
_space_group_symop_operation_xyz
x,y,z
-x,-y,z
1/2-x,y,z
1/2+x,-y,z
1/2+x,1/2+y,1/2+z
1/2-x,1/2-y,1/2+z
-x,1/2+y,1/2+z
x,1/2-y,1/2+z
loop_
_atom_site_type_symbol
_atom_site_label
_atom_site_fract_x
_atom_site_fract_y
_atom_site_fract_z
Si Si1 0.562496 0.136304 0.349700
Si Si2 0.437593 0.718535 0.162877
Si Si3 0.560831 0.172745 0.166034
Si Si4 0.063610 0.220246 0.468812
Si Si5 0.062653 0.138511 0.790042
Si Si6 0.562303 0.325743 0.467365
Si Si7 0.938119 0.551788 0.169584
Si Si8 0.937161 0.948001 0.467028
O O1 0.750000 0.135429 0.351283
O O2 0.508196 0.141285 0.247969
O O3 0.504893 0.182520 0.401263
O O4 0.499393 0.090945 0.400304
O O5 0.250000 0.783658 0.656239
O O6 0.482250 0.772668 0.182387
O O7 0.497050 0.683233 0.236904
O O8 0.511227 0.706318 0.067949
O O9 0.750000 0.171378 0.165321
O O10 0.510220 0.160363 0.066616
O O11 0.250000 0.221076 0.463190
O O12 0.996471 0.272368 0.452459
O O13 0.250000 0.140299 0.788823
O O14 0.010471 0.091923 0.737459
O O15 0.003094 0.141968 0.889898
O O16 0.750000 0.325406 0.464514
O O17 0.750000 0.550508 0.170565
O O18 0.000000 0.500000 0.191271
O O19 0.986680 0.563125 0.068467
O O20 0.750000 0.948310 0.464727
O O21 0.000000 0.000000 0.446516
#
# Coordination Sequence:
#
# PCOD9378754 Si02
#       8
#     8   8   8   8   8   8   8   8
#     4  11  20  33  54  78 102 135 176 217 260 314
#     4  10  19  33  52  75 104 142 179 212 253 311
#     4   8  18  34  51  71  99 133 175 218 252 291
#     4  11  21  33  49  75 109 141 173 217 263 308
#     4  11  21  33  51  79 108 135 169 216 265 311
#     4  10  20  36  53  72 101 141 182 218 256 308
#     4   9  20  36  54  75 104 133 163 203 252 308
#     4  10  20  36  55  79 107 136 166 205 257 313
#
# _framework density 17.356092
#
# number of rings (size 3 to 8) (size 9 to 14) (size 15 to 20)
#    0.000    2.000    0.000    5.250    0.000    3.500 
#    0.000    6.875    0.000    0.750    0.000    1.750 
#    0.000    0.000    0.000    0.000    0.000    0.000 
#
# Total GULP energy -178681.943134 kJ/mol
# GULP energy per Si atom -5583.810723 kJ/mol
# Density = 1.731659 g / cm^3
# Si number density = 17.356092 Si / 1000 Ang^3
#
#
#
# Elastic Constant Matrix: (Units=GPa)
#
#
# Indices 1 2 3 4 5 6 
#
# 1 57.2046 22.8427 29.9926 0.0000 0.0000 0.0000
# 2 22.8427 83.2295 91.2855 0.0000 0.0000 0.0000
# 3 29.9926 91.2855 151.5202 0.0003 0.0000 0.0000
# 4 0.0000 0.0000 0.0003 31.6365 0.0000 0.0000
# 5 0.0000 0.0000 0.0000 0.0000 24.4757 0.0000
# 6 0.0000 0.0000 0.0000 0.0000 0.0000 25.7963
#
#
#
# Elastic Compliance Matrix: (Units=1/GPa)
#
#
# Indices 1 2 3 4 5 6 
#
# 1 0.019817 -0.003350 -0.001904 0.000000 0.000000 0.000000
# 2 -0.003350 0.035986 -0.021017 0.000000 0.000000 0.000000
# 3 -0.001904 -0.021017 0.019639 0.000000 0.000000 0.000000
# 4 0.000000 0.000000 0.000000 0.031609 0.000000 0.000000
# 5 0.000000 0.000000 0.000000 0.000000 0.040857 0.000000
# 6 0.000000 0.000000 0.000000 0.000000 0.000000 0.038765
#
#
# Mechanical properties :
#
#
# Convention : Reuss Voigt Hill
#
# Bulk Modulus (GPa) = 43.67072 64.46618 54.06845
# Shear Modulus (GPa) = 20.25531 26.23725 23.24628
#
# Velocity S-wave (km/s) = 3.41991 3.89228 3.66372
# Velocity P-wave (km/s) = 6.38832 7.57784 7.00836
#
# Compressibility (1/GPa) = 0.02289864
#
# Stress axis : x y z
#
# Youngs Moduli (GPa) = 50.46072 27.78886 50.92006
#
# Poissons Ratio (x) = 0.09310 0.09696
# Poissons Ratio (y) = 0.16906 1.07018
# Poissons Ratio (z) = 0.09609 0.58403
#
# Static dielectric constant tensor:
#      x y z
#    x 1.586920 0.000000 0.000000 
#    y 0.000000 1.559460 0.000000 
#    z 0.000000 0.000000 1.608060 
# 
# From -- ./inp_files/14496.got.cif
#   From: 2010.05.17/outbox.cif.g08.bks.cpg/sg46_8_cif.got.tgz:14496.got - 2010.06.03 19:58:25.
