data_PCOD9378992
_publ_section_title
;
Structure prediction by ZEFSAII (Michael W. Deem and Ramdas Pophale) SiO2 
 PCOD9378992
Probable space group: I M A 2
;
_chemical_formula_sum "Si O2"
_cell_formula_units_Z 64
_cell_length_a 8.634563
_cell_length_b 23.794060
_cell_length_c 19.701002
_cell_angle_alpha 90.000000
_cell_angle_beta 90.000000
_cell_angle_gamma 90.000000
_cell_volume 4047.596671
_symmetry_space_group_name_H-M "I M A 2"
_symmetry_group_IT_number 46
_symmetry_cell_setting 'orthorhombic'
loop_
_space_group_symop_operation_xyz
x,y,z
-x,-y,z
1/2-x,y,z
1/2+x,-y,z
1/2+x,1/2+y,1/2+z
1/2-x,1/2-y,1/2+z
-x,1/2+y,1/2+z
x,1/2-y,1/2+z
loop_
_atom_site_type_symbol
_atom_site_label
_atom_site_fract_x
_atom_site_fract_y
_atom_site_fract_z
Si Si1 0.435747 0.158976 0.149310
Si Si2 0.062783 0.168044 0.696038
Si Si3 0.436268 0.248302 0.914919
Si Si4 0.934310 0.276547 0.773506
Si Si5 0.062331 0.269596 0.065101
Si Si6 0.064628 0.937257 0.058584
Si Si7 0.936163 0.121578 0.916142
Si Si8 0.064019 0.438280 0.282602
O O1 0.250000 0.157973 0.151178
O O2 0.499188 0.176479 0.222752
O O3 0.484117 0.209968 0.098562
O O4 0.499655 0.101680 0.118518
O O5 0.250000 0.173235 0.699840
O O6 0.014671 0.182831 0.619047
O O7 0.020252 0.107481 0.725287
O O8 0.993218 0.216912 0.743263
O O9 0.250000 0.249432 0.911620
O O10 0.504192 0.279838 0.849944
O O11 0.491123 0.183536 0.912453
O O12 0.489774 0.272804 0.987572
O O13 0.750000 0.277568 0.772360
O O14 0.250000 0.269762 0.063439
O O15 0.250000 0.938544 0.061883
O O16 0.020324 0.908086 0.987008
O O17 0.000000 0.000000 0.061289
O O18 0.750000 0.126103 0.912723
O O19 0.996698 0.084887 0.853385
O O20 0.250000 0.440005 0.287323
O O21 0.000000 0.500000 0.268603
#
# Coordination Sequence:
#
# PCOD9378992 Si02
#       8
#     8   8   8   8   8   8   8   8
#     4  10  19  35  54  73  98 132 171 212 255 303
#     4   9  18  34  51  71  95 130 169 208 251 301
#     4  11  19  31  51  75 101 135 169 205 254 305
#     4  11  21  32  49  74 103 132 164 209 255 304
#     4   8  16  30  51  73  95 124 164 206 249 300
#     4  11  23  36  51  73 102 138 177 215 254 300
#     4  11  22  34  48  71 104 137 175 212 248 295
#     4  11  22  34  51  70  99 136 176 213 250 297
#
# _framework density 15.811852
#
# number of rings (size 3 to 8) (size 9 to 14) (size 15 to 20)
#    0.000    1.750    2.500    4.125    0.000    3.000 
#    0.000    0.625    0.000    0.000    0.000    0.875 
#    0.000    4.000    0.000    0.000    0.000    0.000 
#
# Total GULP energy -178626.911513 kJ/mol
# GULP energy per Si atom -5582.090985 kJ/mol
# Density = 1.577586 g / cm^3
# Si number density = 15.811852 Si / 1000 Ang^3
#
#
#
# Elastic Constant Matrix: (Units=GPa)
#
#
# Indices 1 2 3 4 5 6 
#
# 1 49.9010 32.0343 37.7667 0.0000 0.0000 0.0000
# 2 32.0343 85.7266 64.7145 0.0000 0.0000 0.0000
# 3 37.7667 64.7145 147.9497 0.0000 0.0000 0.0000
# 4 0.0000 0.0000 0.0000 19.6943 0.0000 0.0000
# 5 0.0000 0.0000 0.0000 0.0000 17.6251 0.0000
# 6 0.0000 0.0000 0.0000 0.0000 0.0000 23.2722
#
#
#
# Elastic Compliance Matrix: (Units=1/GPa)
#
#
# Indices 1 2 3 4 5 6 
#
# 1 0.027725 -0.007491 -0.003801 0.000000 0.000000 0.000000
# 2 -0.007491 0.019440 -0.006591 0.000000 0.000000 0.000000
# 3 -0.003801 -0.006591 0.010612 0.000000 0.000000 0.000000
# 4 0.000000 0.000000 0.000000 0.050776 0.000000 0.000000
# 5 0.000000 0.000000 0.000000 0.000000 0.056737 0.000000
# 6 0.000000 0.000000 0.000000 0.000000 0.000000 0.042970
#
#
# Mechanical properties :
#
#
# Convention : Reuss Voigt Hill
#
# Bulk Modulus (GPa) = 45.43060 61.40091 53.41576
# Shear Modulus (GPa) = 19.89159 22.05578 20.97368
#
# Velocity S-wave (km/s) = 3.55070 3.73887 3.64600
# Velocity P-wave (km/s) = 6.75310 7.58653 7.18191
#
# Compressibility (1/GPa) = 0.02201160
#
# Stress axis : x y z
#
# Youngs Moduli (GPa) = 36.06829 51.44108 94.23213
#
# Poissons Ratio (x) = 0.38536 0.35814
# Poissons Ratio (y) = 0.27020 0.62107
# Poissons Ratio (z) = 0.13708 0.33904
#
# Static dielectric constant tensor:
#      x y z
#    x 1.531650 0.000000 0.000000 
#    y 0.000000 1.499680 0.000000 
#    z 0.000000 0.000000 1.540830 
# 
# From -- ./inp_files/21438.got.cif
#   From: 2010.05.17/outbox.cif.g08.bks.cpg/sg46_11_cif.got.tgz:21438.got - 2010.06.03 19:58:25.
