data_PCOD9378762
_publ_section_title
;
Structure prediction by ZEFSAII (Michael W. Deem and Ramdas Pophale) SiO2 
 PCOD9378762
Probable space group: I M A 2
;
_chemical_formula_sum "Si O2"
_cell_formula_units_Z 64
_cell_length_a 9.229713
_cell_length_b 25.106308
_cell_length_c 13.568201
_cell_angle_alpha 90.000000
_cell_angle_beta 90.000000
_cell_angle_gamma 90.000000
_cell_volume 3144.078044
_symmetry_space_group_name_H-M "I M A 2"
_symmetry_group_IT_number 46
_symmetry_cell_setting 'orthorhombic'
loop_
_space_group_symop_operation_xyz
x,y,z
-x,-y,z
1/2-x,y,z
1/2+x,-y,z
1/2+x,1/2+y,1/2+z
1/2-x,1/2-y,1/2+z
-x,1/2+y,1/2+z
x,1/2-y,1/2+z
loop_
_atom_site_type_symbol
_atom_site_label
_atom_site_fract_x
_atom_site_fract_y
_atom_site_fract_z
Si Si1 0.076005 0.141997 0.190520
Si Si2 0.411734 0.449775 0.043119
Si Si3 0.575667 0.168129 0.741956
Si Si4 0.425658 0.723356 0.823199
Si Si5 0.579604 0.057350 0.049513
Si Si6 0.581805 0.055449 0.815124
Si Si7 0.423099 0.661732 0.023285
Si Si8 0.595495 0.545969 0.811454
O O1 0.250000 0.149334 0.176728
O O2 0.046233 0.104396 0.286146
O O3 0.996810 0.194934 0.227852
O O4 0.003550 0.105702 0.105256
O O5 0.500000 0.500000 0.085118
O O6 0.250000 0.444024 0.085557
O O7 0.500724 0.395351 0.036025
O O8 0.392730 0.462333 0.926941
O O9 0.750000 0.163301 0.751593
O O10 0.530801 0.214483 0.816928
O O11 0.519797 0.108273 0.761807
O O12 0.547286 0.187315 0.630262
O O13 0.250000 0.719668 0.815575
O O14 0.467997 0.695831 0.927471
O O15 0.750000 0.055321 0.079902
O O16 0.500000 0.000000 0.061827
O O17 0.577474 0.067542 0.932045
O O18 0.750000 0.048398 0.785670
O O19 0.500000 0.000000 0.800072
O O20 0.250000 0.653194 0.014662
O O21 0.500000 0.500000 0.769485
O O22 0.750000 0.540740 0.762496
#
# Coordination Sequence:
#
# PCOD9378762 Si02
#       8
#     8   8   8   8   8   8   8   8
#     4  11  21  34  52  78 115 155 193 237 286 337
#     4  10  19  33  52  78 113 151 190 231 280 337
#     4   9  20  39  62  88 115 148 191 236 284 342
#     4  10  21  37  58  83 112 151 195 239 285 337
#     4  10  20  34  55  85 117 154 196 241 291 344
#     4   9  19  38  63  87 116 149 186 236 290 342
#     4  10  20  36  59  85 114 149 192 239 286 340
#     4   9  18  29  44  68 101 143 182 221 267 321
#
# _framework density 20.355727999999999
#
# number of rings (size 3 to 8) (size 9 to 14) (size 15 to 20)
#    0.000    2.250    1.250    1.500    0.000    4.500 
#    0.000    6.875    0.000    1.500    0.000    0.000 
#    0.000    0.000    0.000    0.000    0.000    0.000 
#
# Total GULP energy -178205.139960 kJ/mol
# GULP energy per Si atom -5568.910624 kJ/mol
# Density = 2.030940 g / cm^3
# Si number density = 20.355728 Si / 1000 Ang^3
#
#
#
# Elastic Constant Matrix: (Units=GPa)
#
#
# Indices 1 2 3 4 5 6 
#
# 1 43.6846 45.1102 32.7176 0.0000 0.0000 0.0000
# 2 45.1102 149.5607 46.1811 0.0000 0.0000 0.0000
# 3 32.7176 46.1811 89.7803 -0.0003 0.0000 0.0000
# 4 0.0000 0.0000 -0.0003 24.9621 0.0000 0.0000
# 5 0.0000 0.0000 0.0000 0.0000 18.1149 0.0000
# 6 0.0000 0.0000 0.0000 0.0000 0.0000 22.7237
#
#
#
# Elastic Compliance Matrix: (Units=1/GPa)
#
#
# Indices 1 2 3 4 5 6 
#
# 1 0.039364 -0.008849 -0.009793 0.000000 0.000000 0.000000
# 2 -0.008849 0.009938 -0.001887 0.000000 0.000000 0.000000
# 3 -0.009793 -0.001887 0.015678 0.000000 0.000000 0.000000
# 4 0.000000 0.000000 0.000000 0.040061 0.000000 0.000000
# 5 0.000000 0.000000 0.000000 0.000000 0.055203 0.000000
# 6 0.000000 0.000000 0.000000 0.000000 0.000000 0.044007
#
#
# Mechanical properties :
#
#
# Convention : Reuss Voigt Hill
#
# Bulk Modulus (GPa) = 41.80430 59.00483 50.40457
# Shear Modulus (GPa) = 19.74083 23.76125 21.75104
#
# Velocity S-wave (km/s) = 3.11753 3.42028 3.27241
# Velocity P-wave (km/s) = 5.79138 6.68188 6.25251
#
# Compressibility (1/GPa) = 0.02392099
#
# Stress axis : x y z
#
# Youngs Moduli (GPa) = 25.40419 100.62437 63.78437
#
# Poissons Ratio (x) = 0.89041 0.62465
# Poissons Ratio (y) = 0.22480 0.12037
# Poissons Ratio (z) = 0.24879 0.18990
#
# Static dielectric constant tensor:
#      x y z
#    x 1.724170 0.000000 0.000000 
#    y 0.000000 1.731340 0.000000 
#    z 0.000000 0.000000 1.767130 
# 
# From -- ./inp_files/14554.got.cif
#   From: 2010.05.17/outbox.cif.g08.bks.cpg/sg46_8_cif.got.tgz:14554.got - 2010.06.03 19:58:25.
