data_PCOD9378045
_publ_section_title
;
Structure prediction by ZEFSAII (Michael W. Deem and Ramdas Pophale) SiO2 
 PCOD9378045
Probable space group: I M A 2
;
_chemical_formula_sum "Si O2"
_cell_formula_units_Z 56
_cell_length_a 8.563412
_cell_length_b 19.063599
_cell_length_c 21.448617
_cell_angle_alpha 90.000000
_cell_angle_beta 90.000000
_cell_angle_gamma 90.000000
_cell_volume 3501.474981
_symmetry_space_group_name_H-M "I M A 2"
_symmetry_group_IT_number 46
_symmetry_cell_setting 'orthorhombic'
loop_
_space_group_symop_operation_xyz
x,y,z
-x,-y,z
1/2-x,y,z
1/2+x,-y,z
1/2+x,1/2+y,1/2+z
1/2-x,1/2-y,1/2+z
-x,1/2+y,1/2+z
x,1/2-y,1/2+z
loop_
_atom_site_type_symbol
_atom_site_label
_atom_site_fract_x
_atom_site_fract_y
_atom_site_fract_z
Si Si1 0.558830 0.850830 0.959290
Si Si2 0.930032 0.711263 0.904167
Si Si3 0.062551 0.421081 0.588771
Si Si4 0.938838 0.922636 0.829789
Si Si5 0.569864 0.715624 0.267412
Si Si6 0.565686 0.149372 0.212623
Si Si7 0.938279 0.922230 0.337733
O O1 0.750000 0.848511 0.958089
O O2 0.501568 0.770707 0.949362
O O3 0.511369 0.896600 0.898957
O O4 0.510349 0.885596 0.023851
O O5 0.750000 0.700229 0.923563
O O6 0.927808 0.749624 0.836597
O O7 0.997858 0.634915 0.888620
O O8 0.250000 0.422529 0.589368
O O9 0.000000 0.500000 0.592442
O O10 0.003420 0.377847 0.648038
O O11 0.750000 0.922394 0.829281
O O12 0.988942 0.863040 0.780164
O O13 0.000000 0.000000 0.817280
O O14 0.750000 0.713770 0.245837
O O15 0.474526 0.769099 0.225097
O O16 0.750000 0.138513 0.213656
O O17 0.491794 0.105625 0.270011
O O18 0.750000 0.921445 0.338667
O O19 0.000000 0.000000 0.348423
#
# Coordination Sequence:
#
# PCOD9378045 Si02
#       7
#     8   8   8   8   8   8   8
#     4   8  15  28  45  64  87 118 151 180 212 255
#     4   7  12  25  44  63  83 110 143 178 215 256
#     4  11  21  32  46  64  89 119 152 183 213 254
#     4   9  16  27  45  69  95 119 145 179 219 262
#     4   8  15  29  46  63  86 116 147 179 219 265
#     4  11  21  32  45  62  87 117 152 188 222 259
#     4  10  18  29  46  67  92 117 144 179 220 265
#
# _framework density 15.993261
#
# number of rings (size 3 to 8) (size 9 to 14) (size 15 to 20)
#    0.000    2.857    0.000    5.571    0.000    0.571 
#    0.000    0.714    0.000    8.571    0.000    1.000 
#    0.000    2.286    0.000    0.000    0.000    0.000 
#
# Total GULP energy -155919.796032 kJ/mol
# GULP energy per Si atom -5568.564144 kJ/mol
# Density = 1.595686 g / cm^3
# Si number density = 15.993261 Si / 1000 Ang^3
#
#
#
# Elastic Constant Matrix: (Units=GPa)
#
#
# Indices 1 2 3 4 5 6 
#
# 1 39.7913 26.9684 19.7838 0.0000 0.0000 0.0000
# 2 26.9684 163.8507 58.1525 0.0000 0.0000 0.0000
# 3 19.7838 58.1525 66.9778 0.0000 0.0000 0.0000
# 4 0.0000 0.0000 0.0000 6.6045 0.0000 0.0000
# 5 0.0000 0.0000 0.0000 0.0000 8.6063 0.0000
# 6 0.0000 0.0000 0.0000 0.0000 0.0000 24.3095
#
#
#
# Elastic Compliance Matrix: (Units=1/GPa)
#
#
# Indices 1 2 3 4 5 6 
#
# 1 0.030210 -0.002609 -0.006658 0.000000 0.000000 0.000000
# 2 -0.002609 0.009047 -0.007084 0.000000 0.000000 0.000000
# 3 -0.006658 -0.007084 0.023047 0.000000 0.000000 0.000000
# 4 0.000000 0.000000 0.000000 0.151412 0.000000 0.000000
# 5 0.000000 0.000000 0.000000 0.000000 0.116195 0.000000
# 6 0.000000 0.000000 0.000000 0.000000 0.000000 0.041136
#
#
# Mechanical properties :
#
#
# Convention : Reuss Voigt Hill
#
# Bulk Modulus (GPa) = 33.78177 53.38102 43.58139
# Shear Modulus (GPa) = 12.08850 18.95172 15.52011
#
# Velocity S-wave (km/s) = 2.75225 3.44609 3.11853
# Velocity P-wave (km/s) = 5.59180 7.02024 6.34633
#
# Compressibility (1/GPa) = 0.02960177
#
# Stress axis : x y z
#
# Youngs Moduli (GPa) = 33.10183 110.53651 43.38870
#
# Poissons Ratio (x) = 0.28843 0.28887
# Poissons Ratio (y) = 0.08637 0.30737
# Poissons Ratio (z) = 0.22039 0.78304
#
# Static dielectric constant tensor:
#      x y z
#    x 1.548080 0.000000 0.000000 
#    y 0.000000 1.566500 0.000000 
#    z 0.000000 0.000000 1.515290 
# 
# From -- ./inp_files/18476.got.cif
#   From: 2010.05.17/outbox.cif.g08.bks.cpg/sg46_10_cif.got.tgz:18476.got - 2010.06.03 19:58:25.
