data_PCOD9378849
_publ_section_title
;
Structure prediction by ZEFSAII (Michael W. Deem and Ramdas Pophale) SiO2 
 PCOD9378849
Probable space group: I M A 2
;
_chemical_formula_sum "Si O2"
_cell_formula_units_Z 48
_cell_length_a 8.521674
_cell_length_b 23.301918
_cell_length_c 12.032437
_cell_angle_alpha 90.000000
_cell_angle_beta 90.000000
_cell_angle_gamma 90.000000
_cell_volume 2389.297244
_symmetry_space_group_name_H-M "I M A 2"
_symmetry_group_IT_number 46
_symmetry_cell_setting 'orthorhombic'
loop_
_space_group_symop_operation_xyz
x,y,z
-x,-y,z
1/2-x,y,z
1/2+x,-y,z
1/2+x,1/2+y,1/2+z
1/2-x,1/2-y,1/2+z
-x,1/2+y,1/2+z
x,1/2-y,1/2+z
loop_
_atom_site_type_symbol
_atom_site_label
_atom_site_fract_x
_atom_site_fract_y
_atom_site_fract_z
Si Si1 0.567852 0.160931 0.500000
Si Si2 0.438108 0.858197 0.252562
Si Si3 0.930483 0.061412 0.674017
Si Si4 0.434070 0.139547 0.861151
Si Si5 0.062609 0.563948 0.558686
Si Si6 0.436851 0.262501 0.193651
O O1 0.750000 0.180510 0.491500
O O2 0.501070 0.149663 0.377925
O O3 0.567955 0.101297 0.566328
O O4 0.476937 0.204562 0.579773
O O5 0.250000 0.864054 0.260469
O O6 0.494865 0.911334 0.177802
O O7 0.480667 0.798591 0.193865
O O8 0.750000 0.058081 0.714460
O O9 0.035976 0.091977 0.766514
O O10 0.000000 0.000000 0.649374
O O11 0.250000 0.146499 0.884437
O O12 0.490977 0.198020 0.799378
O O13 0.514990 0.112449 0.968808
O O14 0.250000 0.560283 0.559734
O O15 0.000000 0.500000 0.533714
O O16 0.250000 0.255905 0.202956
#
# Coordination Sequence:
#
# PCOD9378849 Si02
#       6
#     8   8   8   8   8   8
#     4   9  20  39  59  82 113 151 194 237 286 353
#     4  10  23  41  61  85 116 157 199 240 293 358
#     4  10  19  33  56  84 114 149 190 237 289 343
#     4  10  21  38  59  86 119 154 194 244 295 349
#     4  11  24  41  61  87 120 161 204 247 296 355
#     4  10  22  38  60  90 120 150 192 247 303 352
#
# _framework density 20.089589
#
# number of rings (size 3 to 8) (size 9 to 14) (size 15 to 20)
#    0.000    2.000    0.000    2.500    2.333    5.333 
#    0.000    0.000    0.000    0.000    0.000    0.000 
#    0.000    0.000    0.000    0.000    0.000    0.000 
#
# Total GULP energy -133950.135513 kJ/mol
# GULP energy per Si atom -5581.255646 kJ/mol
# Density = 2.004386 g / cm^3
# Si number density = 20.089589 Si / 1000 Ang^3
#
#
#
# Elastic Constant Matrix: (Units=GPa)
#
#
# Indices 1 2 3 4 5 6 
#
# 1 12.1311 -2.1986 -1.9455 0.0000 0.0000 0.0000
# 2 -2.1986 47.8944 9.5496 0.0000 0.0000 0.0000
# 3 -1.9455 9.5496 87.4566 0.0002 0.0000 0.0000
# 4 0.0000 0.0000 0.0002 7.4362 0.0000 0.0000
# 5 0.0000 0.0000 0.0000 0.0000 8.0227 0.0000
# 6 0.0000 0.0000 0.0000 0.0000 0.0000 15.8200
#
#
#
# Elastic Compliance Matrix: (Units=1/GPa)
#
#
# Indices 1 2 3 4 5 6 
#
# 1 0.083308 0.003532 0.001468 0.000000 0.000000 0.000000
# 2 0.003532 0.021494 -0.002268 0.000000 0.000000 0.000000
# 3 0.001468 -0.002268 0.011715 0.000000 0.000000 0.000000
# 4 0.000000 0.000000 0.000000 0.134477 0.000000 0.000000
# 5 0.000000 0.000000 0.000000 0.000000 0.124646 0.000000
# 6 0.000000 0.000000 0.000000 0.000000 0.000000 0.063211
#
#
# Mechanical properties :
#
#
# Convention : Reuss Voigt Hill
#
# Bulk Modulus (GPa) = 8.19820 17.58812 12.89316
# Shear Modulus (GPa) = 10.54744 15.72756 13.13750
#
# Velocity S-wave (km/s) = 2.29382 2.80102 2.56001
# Velocity P-wave (km/s) = 3.33244 4.38575 3.89486
#
# Compressibility (1/GPa) = 0.12197805
#
# Stress axis : x y z
#
# Youngs Moduli (GPa) = 12.00364 46.52536 85.36369
#
# Poissons Ratio (x) = -0.16431 -0.12528
# Poissons Ratio (y) = -0.04239 0.19364
# Poissons Ratio (z) = -0.01762 0.10554
#
# Static dielectric constant tensor:
#      x y z
#    x 1.707890 0.000000 0.000000 
#    y 0.000000 1.695710 0.000000 
#    z 0.000000 0.000000 1.742100 
# 
# From -- ./inp_files/9303.got.cif
#   From: 2010.05.17/outbox.cif.g08.bks.cpg/sg46_5_cif.got.tgz:9303.got - 2010.06.03 19:58:25.
