data_PCOD9378599
_publ_section_title
;
Structure prediction by ZEFSAII (Michael W. Deem and Ramdas Pophale) SiO2 
 PCOD9378599
Probable space group: I M A 2
;
_chemical_formula_sum "Si O2"
_cell_formula_units_Z 64
_cell_length_a 8.495602
_cell_length_b 14.979690
_cell_length_c 28.864039
_cell_angle_alpha 90.000000
_cell_angle_beta 90.000000
_cell_angle_gamma 90.000000
_cell_volume 3673.280447
_symmetry_space_group_name_H-M "I M A 2"
_symmetry_group_IT_number 46
_symmetry_cell_setting 'orthorhombic'
loop_
_space_group_symop_operation_xyz
x,y,z
-x,-y,z
1/2-x,y,z
1/2+x,-y,z
1/2+x,1/2+y,1/2+z
1/2-x,1/2-y,1/2+z
-x,1/2+y,1/2+z
x,1/2-y,1/2+z
loop_
_atom_site_type_symbol
_atom_site_label
_atom_site_fract_x
_atom_site_fract_y
_atom_site_fract_z
Si Si1 0.940011 0.900905 0.694010
Si Si2 0.435602 0.718627 0.381979
Si Si3 0.442992 0.287064 0.107077
Si Si4 0.071275 0.355340 0.012134
Si Si5 0.940426 0.906934 0.072661
Si Si6 0.071174 0.348347 0.474977
Si Si7 0.560861 0.907582 0.414677
Si Si8 0.938693 0.599320 0.299688
O O1 0.750000 0.902354 0.693437
O O2 0.992523 0.830312 0.655345
O O3 0.989801 0.880157 0.746752
O O4 0.000000 0.000000 0.682591
O O5 0.250000 0.728347 0.379527
O O6 0.479396 0.659152 0.427146
O O7 0.509452 0.816727 0.389636
O O8 0.499026 0.669754 0.336614
O O9 0.250000 0.288070 0.104949
O O10 0.489851 0.184104 0.098595
O O11 0.499550 0.347028 0.063309
O O12 0.250000 0.390403 0.017241
O O13 0.081869 0.252715 0.994802
O O14 0.995002 0.402007 0.967765
O O15 0.750000 0.906744 0.071145
O O16 0.997336 0.900035 0.019076
O O17 0.000000 0.000000 0.092935
O O18 0.250000 0.378766 0.465354
O O19 0.750000 0.907691 0.416893
O O20 0.500000 0.000000 0.393656
O O21 0.750000 0.598514 0.301095
O O22 0.000000 0.500000 0.310805
#
# Coordination Sequence:
#
# PCOD9378599 Si02
#       8
#     8   8   8   8   8   8   8   8
#     4   9  18  32  52  74  96 122 155 195 243 293
#     4  11  21  33  51  74  98 129 166 206 248 294
#     4   8  14  28  48  70  96 129 162 192 234 289
#     4   7  12  24  43  64  90 124 160 194 230 272
#     4   9  17  29  47  69  98 133 166 197 233 278
#     4   8  15  29  45  63  91 128 162 196 236 279
#     4  10  19  32  49  72 103 138 171 204 240 284
#     4  10  20  35  53  74  97 123 156 200 251 303
#
# _framework density 17.423117000000001
#
# number of rings (size 3 to 8) (size 9 to 14) (size 15 to 20)
#    0.000    3.000    0.000    4.125    0.000    2.000 
#    0.000    1.875    0.000    3.750    0.000    1.750 
#    0.000    0.000    0.000    0.000    0.000    0.000 
#
# Total GULP energy -178177.630920 kJ/mol
# GULP energy per Si atom -5568.050966 kJ/mol
# Density = 1.738346 g / cm^3
# Si number density = 17.423117 Si / 1000 Ang^3
#
#
#
# Elastic Constant Matrix: (Units=GPa)
#
#
# Indices 1 2 3 4 5 6 
#
# 1 36.9821 22.1146 27.3099 0.0000 0.0000 0.0000
# 2 22.1146 113.2892 80.1058 0.0000 0.0000 0.0000
# 3 27.3099 80.1058 115.7439 0.0000 0.0000 0.0000
# 4 0.0000 0.0000 0.0000 24.2291 0.0000 0.0000
# 5 0.0000 0.0000 0.0000 0.0000 5.9226 0.0000
# 6 0.0000 0.0000 0.0000 0.0000 0.0000 23.6601
#
#
#
# Elastic Compliance Matrix: (Units=1/GPa)
#
#
# Indices 1 2 3 4 5 6 
#
# 1 0.032938 -0.001830 -0.006505 0.000000 0.000000 0.000000
# 2 -0.001830 0.017388 -0.011603 0.000000 0.000000 0.000000
# 3 -0.006505 -0.011603 0.018205 0.000000 0.000000 0.000000
# 4 0.000000 0.000000 0.000000 0.041273 0.000000 0.000000
# 5 0.000000 0.000000 0.000000 0.000000 0.168845 0.000000
# 6 0.000000 0.000000 0.000000 0.000000 0.000000 0.042265
#
#
# Mechanical properties :
#
#
# Convention : Reuss Voigt Hill
#
# Bulk Modulus (GPa) = 34.89704 58.34176 46.61940
# Shear Modulus (GPa) = 13.50105 19.86135 16.68120
#
# Velocity S-wave (km/s) = 2.78671 3.37997 3.09757
# Velocity P-wave (km/s) = 5.51607 6.98500 6.29353
#
# Compressibility (1/GPa) = 0.02865572
#
# Stress axis : x y z
#
# Youngs Moduli (GPa) = 30.35982 57.51021 54.93057
#
# Poissons Ratio (x) = 0.10523 0.35735
# Poissons Ratio (y) = 0.05555 0.63733
# Poissons Ratio (z) = 0.19750 0.66727
#
# Static dielectric constant tensor:
#      x y z
#    x 1.606030 0.000000 0.000000 
#    y 0.000000 1.597060 0.000000 
#    z 0.000000 0.000000 1.611150 
# 
# From -- ./inp_files/25299.got.cif
#   From: 2010.05.17/outbox.cif.g08.bks.cpg/sg46_13_cif.got.tgz:25299.got - 2010.06.03 19:58:25.
