data_PCOD9378968
_publ_section_title
;
Structure prediction by ZEFSAII (Michael W. Deem and Ramdas Pophale) SiO2 
 PCOD9378968
Probable space group: I M A 2
;
_chemical_formula_sum "Si O2"
_cell_formula_units_Z 64
_cell_length_a 19.832407
_cell_length_b 9.429737
_cell_length_c 19.812343
_cell_angle_alpha 90.000000
_cell_angle_beta 90.000000
_cell_angle_gamma 90.000000
_cell_volume 3705.193084
_symmetry_space_group_name_H-M "I M A 2"
_symmetry_group_IT_number 46
_symmetry_cell_setting 'orthorhombic'
loop_
_space_group_symop_operation_xyz
x,y,z
-x,-y,z
1/2-x,y,z
1/2+x,-y,z
1/2+x,1/2+y,1/2+z
1/2-x,1/2-y,1/2+z
-x,1/2+y,1/2+z
x,1/2-y,1/2+z
loop_
_atom_site_type_symbol
_atom_site_label
_atom_site_fract_x
_atom_site_fract_y
_atom_site_fract_z
Si Si1 0.442477 0.122844 0.341230
Si Si2 0.455455 0.286649 0.481988
Si Si3 0.329519 0.643897 0.020944
Si Si4 0.170402 0.909566 0.360709
Si Si5 0.566409 0.599842 0.252552
Si Si6 0.426341 0.431790 0.099127
Si Si7 0.894083 0.091740 0.980220
Si Si8 0.829991 0.405664 0.333684
O O1 0.439509 0.202133 0.413450
O O2 0.449814 0.249330 0.287265
O O3 0.500000 0.000000 0.340796
O O4 0.373317 0.037039 0.332551
O O5 0.436285 0.190727 0.544879
O O6 0.415411 0.431883 0.494316
O O7 0.534488 0.325811 0.474550
O O8 0.250000 0.624948 0.030988
O O9 0.372907 0.543464 0.069128
O O10 0.344735 0.609301 0.941370
O O11 0.350747 0.808483 0.029387
O O12 0.250000 0.934042 0.355642
O O13 0.154815 0.761717 0.322371
O O14 0.500000 0.500000 0.256881
O O15 0.588741 0.617110 0.174994
O O16 0.625022 0.514104 0.291518
O O17 0.500000 0.500000 0.103118
O O18 0.851909 0.079211 0.911404
O O19 0.750000 0.427787 0.325346
#
# Coordination Sequence:
#
# PCOD9378968 Si02
#       8
#     8   8   8   8   8   8   8   8
#     4  12  21  35  59  85 117 153 194 251 301 351
#     4  11  20  34  61  88 117 152 198 250 301 351
#     4  10  19  36  59  86 119 154 195 244 302 364
#     4   9  19  34  57  87 114 143 189 244 296 354
#     4  11  24  40  57  84 121 158 206 248 300 360
#     4  11  22  40  58  84 116 160 202 248 293 367
#     4  10  19  34  58  90 118 145 194 250 303 351
#     4  10  20  38  61  87 119 153 194 246 304 363
#
# _framework density 17.273052
#
# number of rings (size 3 to 8) (size 9 to 14) (size 15 to 20)
#    0.000    1.500    3.750    4.500    0.000    1.000 
#    2.250    2.500    0.000    0.000    0.000    0.000 
#    0.000    0.000    0.000    0.000    0.000    0.000 
#
# Total GULP energy -178399.411361 kJ/mol
# GULP energy per Si atom -5574.981605 kJ/mol
# Density = 1.723374 g / cm^3
# Si number density = 17.273052 Si / 1000 Ang^3
#
#
#
# Elastic Constant Matrix: (Units=GPa)
#
#
# Indices 1 2 3 4 5 6 
#
# 1 61.6100 53.5035 24.8512 0.0000 0.0000 0.0000
# 2 53.5035 124.2746 57.3989 0.0000 0.0000 0.0000
# 3 24.8512 57.3989 78.8959 0.0000 0.0000 0.0000
# 4 0.0000 0.0000 0.0000 27.8903 0.0000 0.0000
# 5 0.0000 0.0000 0.0000 0.0000 9.5133 0.0000
# 6 0.0000 0.0000 0.0000 0.0000 0.0000 22.7907
#
#
#
# Elastic Compliance Matrix: (Units=1/GPa)
#
#
# Indices 1 2 3 4 5 6 
#
# 1 0.025924 -0.011129 -0.000069 0.000000 0.000000 0.000000
# 2 -0.011129 0.016897 -0.008787 0.000000 0.000000 0.000000
# 3 -0.000069 -0.008787 0.019090 0.000000 0.000000 0.000000
# 4 0.000000 0.000000 0.000000 0.035855 0.000000 0.000000
# 5 0.000000 0.000000 0.000000 0.000000 0.105116 0.000000
# 6 0.000000 0.000000 0.000000 0.000000 0.000000 0.043878
#
#
# Mechanical properties :
#
#
# Convention : Reuss Voigt Hill
#
# Bulk Modulus (GPa) = 45.58003 59.58750 52.58376
# Shear Modulus (GPa) = 17.00440 20.64065 18.82253
#
# Velocity S-wave (km/s) = 3.14099 3.46057 3.30465
# Velocity P-wave (km/s) = 6.29283 7.10913 6.71340
#
# Compressibility (1/GPa) = 0.02193943
#
# Stress axis : x y z
#
# Youngs Moduli (GPa) = 38.57499 59.18366 52.38451
#
# Poissons Ratio (x) = 0.65865 0.00361
# Poissons Ratio (y) = 0.42930 0.46032
# Poissons Ratio (z) = 0.00266 0.52006
#
# Static dielectric constant tensor:
#      x y z
#    x 1.602680 0.000000 0.000000 
#    y 0.000000 1.585710 0.000000 
#    z 0.000000 0.000000 1.580280 
# 
# From -- ./inp_files/22467.got.cif
#   From: 2010.05.17/outbox.cif.g08.bks.cpg/sg46_12_cif.got.tgz:22467.got - 2010.06.03 19:58:25.
