data_PCOD9378869
_publ_section_title
;
Structure prediction by ZEFSAII (Michael W. Deem and Ramdas Pophale) SiO2 
 PCOD9378869
Probable space group: I M A 2
;
_chemical_formula_sum "Si O2"
_cell_formula_units_Z 48
_cell_length_a 16.626755
_cell_length_b 13.729179
_cell_length_c 11.834564
_cell_angle_alpha 90.000000
_cell_angle_beta 90.000000
_cell_angle_gamma 90.000000
_cell_volume 2701.495991
_symmetry_space_group_name_H-M "I M A 2"
_symmetry_group_IT_number 46
_symmetry_cell_setting 'orthorhombic'
loop_
_space_group_symop_operation_xyz
x,y,z
-x,-y,z
1/2-x,y,z
1/2+x,-y,z
1/2+x,1/2+y,1/2+z
1/2-x,1/2-y,1/2+z
-x,1/2+y,1/2+z
x,1/2-y,1/2+z
loop_
_atom_site_type_symbol
_atom_site_label
_atom_site_fract_x
_atom_site_fract_y
_atom_site_fract_z
Si Si1 0.155208 0.030294 0.137990
Si Si2 0.436012 0.921298 0.938320
Si Si3 0.529146 0.109156 0.554492
Si Si4 0.578190 0.375371 0.793145
Si Si5 0.044154 0.299950 0.610573
Si Si6 0.843184 0.180897 0.736084
O O1 0.250000 0.021516 0.152648
O O2 0.126831 0.141344 0.119321
O O3 0.106876 0.977666 0.239973
O O4 0.122702 0.972903 0.028079
O O5 0.384556 0.872054 0.841895
O O6 0.500000 0.000000 0.892790
O O7 0.489893 0.845620 0.009735
O O8 0.555033 0.115992 0.423490
O O9 0.458689 0.185539 0.587897
O O10 0.604687 0.146945 0.628514
O O11 0.500000 0.000000 0.579251
O O12 0.503269 0.330514 0.723940
O O13 0.646383 0.295654 0.763147
O O14 0.750000 0.156763 0.723004
#
# Coordination Sequence:
#
# PCOD9378869 Si02
#       6
#     8   8   8   8   8   8
#     4  10  19  33  58  86 111 143 186 239 284 324
#     4   9  17  34  56  81 110 146 191 230 274 338
#     4  11  22  38  58  82 110 154 188 231 278 343
#     4  10  20  37  57  83 111 147 187 234 280 339
#     4   9  19  36  57  80 108 148 194 228 272 338
#     4  11  22  34  53  84 117 144 180 234 293 336
#
# _framework density 17.767932999999999
#
# number of rings (size 3 to 8) (size 9 to 14) (size 15 to 20)
#    0.000    2.000    1.667    4.000    0.000    1.333 
#    0.000    0.833    0.000    1.000    0.000    0.000 
#    0.000    0.000    0.000    0.000    0.000    0.000 
#
# Total GULP energy -133870.896204 kJ/mol
# GULP energy per Si atom -5577.954009 kJ/mol
# Density = 1.772749 g / cm^3
# Si number density = 17.767933 Si / 1000 Ang^3
#
#
#
# Elastic Constant Matrix: (Units=GPa)
#
#
# Indices 1 2 3 4 5 6 
#
# 1 47.3055 27.7274 20.1340 0.0000 0.0000 0.0000
# 2 27.7274 136.2341 30.7290 0.0000 0.0000 0.0000
# 3 20.1340 30.7290 87.9617 0.0000 0.0000 0.0000
# 4 0.0000 0.0000 0.0000 9.1082 0.0000 0.0000
# 5 0.0000 0.0000 0.0000 0.0000 5.5169 0.0000
# 6 0.0000 0.0000 0.0000 0.0000 0.0000 21.3690
#
#
#
# Elastic Compliance Matrix: (Units=1/GPa)
#
#
# Indices 1 2 3 4 5 6 
#
# 1 0.025455 -0.004197 -0.004360 0.000000 0.000000 0.000000
# 2 -0.004197 0.008660 -0.002065 0.000000 0.000000 0.000000
# 3 -0.004360 -0.002065 0.013088 0.000000 0.000000 0.000000
# 4 0.000000 0.000000 0.000000 0.109791 0.000000 0.000000
# 5 0.000000 0.000000 0.000000 0.000000 0.181260 0.000000
# 6 0.000000 0.000000 0.000000 0.000000 0.000000 0.046797
#
#
# Mechanical properties :
#
#
# Convention : Reuss Voigt Hill
#
# Bulk Modulus (GPa) = 38.52250 47.63136 43.07693
# Shear Modulus (GPa) = 12.04967 20.05955 16.05461
#
# Velocity S-wave (km/s) = 2.60699 3.36367 3.00921
# Velocity P-wave (km/s) = 5.54886 6.47699 6.03081
#
# Compressibility (1/GPa) = 0.02595885
#
# Stress axis : x y z
#
# Youngs Moduli (GPa) = 39.28473 115.46958 76.40638
#
# Poissons Ratio (x) = 0.48466 0.33315
# Poissons Ratio (y) = 0.16489 0.15775
# Poissons Ratio (z) = 0.17129 0.23841
#
# Static dielectric constant tensor:
#      x y z
#    x 1.582170 0.000000 0.000000 
#    y 0.000000 1.659750 0.000000 
#    z 0.000000 0.000000 1.601930 
# 
# From -- ./inp_files/11079.got.cif
#   From: 2010.05.17/outbox.cif.g08.bks.cpg/sg46_6_cif.got.tgz:11079.got - 2010.06.03 19:58:25.
