data_PCOD9378889
_publ_section_title
;
Structure prediction by ZEFSAII (Michael W. Deem and Ramdas Pophale) SiO2 
 PCOD9378889
Probable space group: I M A 2
;
_chemical_formula_sum "Si O2"
_cell_formula_units_Z 64
_cell_length_a 9.753510
_cell_length_b 28.038844
_cell_length_c 12.566020
_cell_angle_alpha 90.000000
_cell_angle_beta 90.000000
_cell_angle_gamma 90.000000
_cell_volume 3436.519278
_symmetry_space_group_name_H-M "I M A 2"
_symmetry_group_IT_number 46
_symmetry_cell_setting 'orthorhombic'
loop_
_space_group_symop_operation_xyz
x,y,z
-x,-y,z
1/2-x,y,z
1/2+x,-y,z
1/2+x,1/2+y,1/2+z
1/2-x,1/2-y,1/2+z
-x,1/2+y,1/2+z
x,1/2-y,1/2+z
loop_
_atom_site_type_symbol
_atom_site_label
_atom_site_fract_x
_atom_site_fract_y
_atom_site_fract_z
Si Si1 0.409508 0.694319 0.187350
Si Si2 0.906927 0.681160 0.991709
Si Si3 0.097284 0.431209 0.048378
Si Si4 0.909732 0.385964 0.674499
Si Si5 0.411495 0.455818 0.806285
Si Si6 0.092930 0.705934 0.793960
Si Si7 0.087363 0.585152 0.242098
Si Si8 0.086434 0.952854 0.975807
O O1 0.250000 0.692615 0.152456
O O2 0.423777 0.738821 0.265648
O O3 0.440782 0.642287 0.236835
O O4 0.508008 0.703474 0.088186
O O5 0.750000 0.697417 0.986559
O O6 0.986641 0.690712 0.883358
O O7 0.906314 0.624855 0.018223
O O8 0.250000 0.443343 0.087068
O O9 0.990169 0.438542 0.142646
O O10 0.076023 0.455206 0.934207
O O11 0.750000 0.397920 0.701160
O O12 0.922631 0.329170 0.691855
O O13 0.936958 0.409997 0.560206
O O14 0.014806 0.410066 0.756479
O O15 0.500000 0.500000 0.764379
O O16 0.250000 0.458299 0.779982
O O17 0.250000 0.698653 0.832106
O O18 0.250000 0.578964 0.228879
O O19 0.048679 0.564127 0.356689
O O20 0.250000 0.963219 0.977862
O O21 0.000000 0.000000 0.002920
#
# Coordination Sequence:
#
# PCOD9378889 Si02
#       8
#     8   8   8   8   8   8   8   8
#     4   9  19  35  56  84 112 147 190 234 286 341
#     4  10  19  34  54  77 110 147 181 227 282 339
#     4   9  19  35  54  77 107 142 178 223 278 333
#     4  10  21  37  57  82 112 147 187 234 285 343
#     4  11  22  36  54  80 111 143 180 228 280 335
#     4  10  20  34  57  85 112 146 190 237 287 346
#     4   9  19  36  58  81 110 145 185 233 282 336
#     4  10  22  39  57  80 111 150 192 237 288 338
#
# _framework density 18.623495999999999
#
# number of rings (size 3 to 8) (size 9 to 14) (size 15 to 20)
#    0.000    2.250    1.250    1.125    0.000    5.500 
#    0.000    6.250    0.000    1.500    0.000    0.000 
#    0.000    0.000    0.000    0.000    0.000    0.000 
#
# Total GULP energy -178455.191881 kJ/mol
# GULP energy per Si atom -5576.724746 kJ/mol
# Density = 1.858111 g / cm^3
# Si number density = 18.623496 Si / 1000 Ang^3
#
#
#
# Elastic Constant Matrix: (Units=GPa)
#
#
# Indices 1 2 3 4 5 6 
#
# 1 76.2602 27.1074 52.7436 0.0001 0.0000 0.0000
# 2 27.1074 46.2498 7.5895 0.0001 0.0000 0.0000
# 3 52.7436 7.5895 81.6748 0.0003 0.0000 0.0000
# 4 0.0001 0.0001 0.0003 15.3039 0.0000 0.0000
# 5 0.0000 0.0000 0.0000 0.0000 23.0448 0.0000
# 6 0.0000 0.0000 0.0000 0.0000 0.0000 18.2237
#
#
#
# Elastic Compliance Matrix: (Units=1/GPa)
#
#
# Indices 1 2 3 4 5 6 
#
# 1 0.031875 -0.015541 -0.019140 0.000000 0.000000 0.000000
# 2 -0.015541 0.029534 0.007292 0.000000 0.000000 0.000000
# 3 -0.019140 0.007292 0.023926 0.000000 0.000000 0.000000
# 4 0.000000 0.000000 0.000000 0.065343 0.000000 0.000000
# 5 0.000000 0.000000 0.000000 0.000000 0.043394 0.000000
# 6 0.000000 0.000000 0.000000 0.000000 0.000000 0.054874
#
#
# Mechanical properties :
#
#
# Convention : Reuss Voigt Hill
#
# Bulk Modulus (GPa) = 32.72645 42.11840 37.42242
# Shear Modulus (GPa) = 15.92813 19.09743 17.51278
#
# Velocity S-wave (km/s) = 2.92767 3.20574 3.06986
# Velocity P-wave (km/s) = 5.38880 6.03052 5.71867
#
# Compressibility (1/GPa) = 0.03055633
#
# Stress axis : x y z
#
# Youngs Moduli (GPa) = 31.37252 33.85918 41.79519
#
# Poissons Ratio (x) = 0.52622 0.79996
# Poissons Ratio (y) = 0.48757 -0.30476
# Poissons Ratio (z) = 0.60047 -0.24690
#
# Static dielectric constant tensor:
#      x y z
#    x 1.632200 0.000000 0.000000 
#    y 0.000000 1.664900 0.000000 
#    z 0.000000 0.000000 1.627970 
# 
# From -- ./inp_files/9732.got.cif
#   From: 2010.05.17/outbox.cif.g08.bks.cpg/sg46_5_cif.got.tgz:9732.got - 2010.06.03 19:58:25.
