data_PCOD9378839
_publ_section_title
;
Structure prediction by ZEFSAII (Michael W. Deem and Ramdas Pophale) SiO2 
 PCOD9378839
Probable space group: I M A 2
;
_chemical_formula_sum "Si O2"
_cell_formula_units_Z 40
_cell_length_a 7.815066
_cell_length_b 19.265553
_cell_length_c 11.194706
_cell_angle_alpha 90.000000
_cell_angle_beta 90.000000
_cell_angle_gamma 90.000000
_cell_volume 1685.492491
_symmetry_space_group_name_H-M "I M A 2"
_symmetry_group_IT_number 46
_symmetry_cell_setting 'orthorhombic'
loop_
_space_group_symop_operation_xyz
x,y,z
-x,-y,z
1/2-x,y,z
1/2+x,-y,z
1/2+x,1/2+y,1/2+z
1/2-x,1/2-y,1/2+z
-x,1/2+y,1/2+z
x,1/2-y,1/2+z
loop_
_atom_site_type_symbol
_atom_site_label
_atom_site_fract_x
_atom_site_fract_y
_atom_site_fract_z
Si Si1 0.050153 0.717524 0.875000
Si Si2 0.455195 0.080890 0.479499
Si Si3 0.038486 0.715322 0.618019
Si Si4 0.546276 0.581695 0.243634
Si Si5 0.051032 0.919924 0.005292
O O1 0.250000 0.736387 0.875603
O O2 0.977632 0.741104 0.747288
O O3 0.976489 0.745694 0.999242
O O4 0.033213 0.634225 0.885672
O O5 0.250000 0.086765 0.477376
O O6 0.518529 0.103660 0.613034
O O7 0.500000 0.000000 0.461850
O O8 0.250000 0.718212 0.620875
O O9 0.977988 0.636138 0.596429
O O10 0.500000 0.500000 0.246572
O O11 0.750000 0.589077 0.246011
O O12 0.477522 0.608065 0.369947
O O13 0.250000 0.919818 0.026722
O O14 0.000000 0.000000 0.014129
#
# Coordination Sequence:
#
# PCOD9378839 Si02
#       5
#     8   8   8   8   8
#     4  10  21  40  62  86 116 156 199 242 291 349
#     4  10  21  37  58  88 120 154 194 243 296 349
#     4   9  21  38  60  87 116 153 199 241 289 350
#     4   9  17  30  50  80 115 148 185 228 282 339
#     4  10  19  33  55  85 116 151 194 240 291 345
#
# _framework density 23.731936999999999
#
# number of rings (size 3 to 8) (size 9 to 14) (size 15 to 20)
#    0.000    2.400    0.000    3.000    2.800    3.200 
#    0.000    7.000    0.000    0.000    0.000    0.000 
#    0.000    0.000    0.000    0.000    0.000    0.000 
#
# Total GULP energy -111647.103742 kJ/mol
# GULP energy per Si atom -5582.355187 kJ/mol
# Density = 2.367792 g / cm^3
# Si number density = 23.731937 Si / 1000 Ang^3
#
#
#
# Elastic Constant Matrix: (Units=GPa)
#
#
# Indices 1 2 3 4 5 6 
#
# 1 36.8848 -2.7122 -7.4133 0.0000 0.0000 0.0000
# 2 -2.7122 85.9775 60.2766 0.0000 0.0000 0.0000
# 3 -7.4133 60.2766 178.1402 -0.0001 0.0000 0.0000
# 4 0.0000 0.0000 -0.0001 42.0779 0.0000 0.0000
# 5 0.0000 0.0000 0.0000 0.0000 5.0494 0.0000
# 6 0.0000 0.0000 0.0000 0.0000 0.0000 16.4602
#
#
#
# Elastic Compliance Matrix: (Units=1/GPa)
#
#
# Indices 1 2 3 4 5 6 
#
# 1 0.027341 0.000085 0.001109 0.000000 0.000000 0.000000
# 2 0.000085 0.015248 -0.005156 0.000000 0.000000 0.000000
# 3 0.001109 -0.005156 0.007404 0.000000 0.000000 0.000000
# 4 0.000000 0.000000 0.000000 0.023765 0.000000 0.000000
# 5 0.000000 0.000000 0.000000 0.000000 0.198043 0.000000
# 6 0.000000 0.000000 0.000000 0.000000 0.000000 0.060753
#
#
# Mechanical properties :
#
#
# Convention : Reuss Voigt Hill
#
# Bulk Modulus (GPa) = 23.77033 44.58942 34.17987
# Shear Modulus (GPa) = 14.10430 29.44092 21.77261
#
# Velocity S-wave (km/s) = 2.44051 3.52598 3.03221
# Velocity P-wave (km/s) = 4.24021 5.95032 5.16651
#
# Compressibility (1/GPa) = 0.04206925
#
# Stress axis : x y z
#
# Youngs Moduli (GPa) = 36.57566 65.58083 135.05627
#
# Poissons Ratio (x) = -0.00557 -0.14978
# Poissons Ratio (y) = -0.00311 0.69635
# Poissons Ratio (z) = -0.04056 0.33813
#
# Static dielectric constant tensor:
#      x y z
#    x 1.844530 0.000000 0.000000 
#    y 0.000000 1.970280 0.000000 
#    z 0.000000 0.000000 1.941810 
# 
# From -- ./inp_files/9166.got.cif
#   From: 2010.05.17/outbox.cif.g08.bks.cpg/sg46_5_cif.got.tgz:9166.got - 2010.06.03 19:58:25.
