data_PCOD9378317
_publ_section_title
;
Structure prediction by ZEFSAII (Michael W. Deem and Ramdas Pophale) SiO2 
 PCOD9378317
Probable space group: I M A 2
;
_chemical_formula_sum "Si O2"
_cell_formula_units_Z 64
_cell_length_a 8.296283
_cell_length_b 31.420472
_cell_length_c 14.950402
_cell_angle_alpha 90.000000
_cell_angle_beta 90.000000
_cell_angle_gamma 90.000000
_cell_volume 3897.168050
_symmetry_space_group_name_H-M "I M A 2"
_symmetry_group_IT_number 46
_symmetry_cell_setting 'orthorhombic'
loop_
_space_group_symop_operation_xyz
x,y,z
-x,-y,z
1/2-x,y,z
1/2+x,-y,z
1/2+x,1/2+y,1/2+z
1/2-x,1/2-y,1/2+z
-x,1/2+y,1/2+z
x,1/2-y,1/2+z
loop_
_atom_site_type_symbol
_atom_site_label
_atom_site_fract_x
_atom_site_fract_y
_atom_site_fract_z
Si Si1 0.442680 0.133973 0.540120
Si Si2 0.053206 0.294601 0.566880
Si Si3 0.435937 0.826143 0.358085
Si Si4 0.443597 0.952561 0.481896
Si Si5 0.945463 0.769404 0.869547
Si Si6 0.440815 0.953353 0.276303
Si Si7 0.936054 0.629571 0.687604
Si Si8 0.945807 0.791484 0.671548
O O1 0.250000 0.138224 0.530137
O O2 0.527246 0.150656 0.450494
O O3 0.487333 0.084417 0.544773
O O4 0.494932 0.165918 0.619092
O O5 0.250000 0.294723 0.572724
O O6 0.010141 0.291832 0.462575
O O7 0.994523 0.337756 0.614237
O O8 0.000368 0.251737 0.620005
O O9 0.250000 0.833089 0.332681
O O10 0.475825 0.776931 0.370370
O O11 0.546662 0.844612 0.280153
O O12 0.250000 0.950497 0.483140
O O13 0.501461 0.944993 0.378463
O O14 0.500000 0.000000 0.505842
O O15 0.750000 0.764513 0.869561
O O16 0.993160 0.790656 0.775561
O O17 0.250000 0.954568 0.283058
O O18 0.487486 0.915903 0.209076
O O19 0.500000 0.000000 0.249180
O O20 0.750000 0.622186 0.665920
O O21 0.750000 0.790388 0.669424
#
# Coordination Sequence:
#
# PCOD9378317 Si02
#       8
#     8   8   8   8   8   8   8   8
#     4  11  20  32  50  71  97 132 169 201 241 287
#     4   9  17  29  49  75  95 125 168 205 240 285
#     4  12  22  30  43  69 100 131 167 204 245 285
#     4  10  20  33  49  72 101 129 161 196 241 292
#     4  10  18  34  52  67  96 131 168 208 241 285
#     4  10  20  33  49  72 101 129 161 196 241 292
#     4  11  20  32  50  71  97 132 169 201 241 287
#     4   9  17  29  49  75  95 125 168 205 240 285
#
# _framework density 16.422180999999998
#
# number of rings (size 3 to 8) (size 9 to 14) (size 15 to 20)
#    0.000    1.750    3.750    2.625    0.000    1.000 
#    0.000    3.750    0.000    0.000    0.000    0.875 
#    0.000    0.000    0.000    0.000    0.000    0.000 
#
# Total GULP energy -178498.656570 kJ/mol
# GULP energy per Si atom -5578.083018 kJ/mol
# Density = 1.638480 g / cm^3
# Si number density = 16.422181 Si / 1000 Ang^3
#
#
#
# Elastic Constant Matrix: (Units=GPa)
#
#
# Indices 1 2 3 4 5 6 
#
# 1 19.1982 10.4511 -1.0252 0.0000 0.0000 0.0000
# 2 10.4511 136.3138 52.2399 0.0000 0.0000 0.0000
# 3 -1.0252 52.2399 89.6884 0.0000 0.0000 0.0000
# 4 0.0000 0.0000 0.0000 18.2657 0.0000 0.0000
# 5 0.0000 0.0000 0.0000 0.0000 5.8597 0.0000
# 6 0.0000 0.0000 0.0000 0.0000 0.0000 21.5195
#
#
#
# Elastic Compliance Matrix: (Units=1/GPa)
#
#
# Indices 1 2 3 4 5 6 
#
# 1 0.055452 -0.005786 0.004004 0.000000 0.000000 0.000000
# 2 -0.005786 0.010048 -0.005919 0.000000 0.000000 0.000000
# 3 0.004004 -0.005919 0.014643 0.000000 0.000000 0.000000
# 4 0.000000 0.000000 0.000000 0.054747 0.000000 0.000000
# 5 0.000000 0.000000 0.000000 0.000000 0.170656 0.000000
# 6 0.000000 0.000000 0.000000 0.000000 0.000000 0.046469
#
#
# Mechanical properties :
#
#
# Convention : Reuss Voigt Hill
#
# Bulk Modulus (GPa) = 15.44608 40.94797 28.19702
# Shear Modulus (GPa) = 12.85358 21.36463 17.10910
#
# Velocity S-wave (km/s) = 2.80071 3.61080 3.23124
# Velocity P-wave (km/s) = 4.45922 6.50942 5.57930
#
# Compressibility (1/GPa) = 0.06474137
#
# Stress axis : x y z
#
# Youngs Moduli (GPa) = 18.03367 99.52422 68.29284
#
# Poissons Ratio (x) = 0.57583 -0.27344
# Poissons Ratio (y) = 0.10434 0.40420
# Poissons Ratio (z) = -0.07221 0.58904
#
# Static dielectric constant tensor:
#      x y z
#    x 1.573320 0.000000 0.000000 
#    y 0.000000 1.566010 0.000000 
#    z 0.000000 0.000000 1.551570 
# 
# From -- ./inp_files/14745.got.cif
#   From: 2010.05.17/outbox.cif.g08.bks.cpg/sg46_8_cif.got.tgz:14745.got - 2010.06.03 19:58:25.
