data_PCOD9378799
_publ_section_title
;
Structure prediction by ZEFSAII (Michael W. Deem and Ramdas Pophale) SiO2 
 PCOD9378799
Probable space group: I M A 2
;
_chemical_formula_sum "Si O2"
_cell_formula_units_Z 56
_cell_length_a 16.538734
_cell_length_b 5.112466
_cell_length_c 34.043414
_cell_angle_alpha 90.000000
_cell_angle_beta 90.000000
_cell_angle_gamma 90.000000
_cell_volume 2878.497134
_symmetry_space_group_name_H-M "I M A 2"
_symmetry_group_IT_number 46
_symmetry_cell_setting 'orthorhombic'
loop_
_space_group_symop_operation_xyz
x,y,z
-x,-y,z
1/2-x,y,z
1/2+x,-y,z
1/2+x,1/2+y,1/2+z
1/2-x,1/2-y,1/2+z
-x,1/2+y,1/2+z
x,1/2-y,1/2+z
loop_
_atom_site_type_symbol
_atom_site_label
_atom_site_fract_x
_atom_site_fract_y
_atom_site_fract_z
Si Si1 0.590613 0.392618 0.348120
Si Si2 0.441506 0.250380 0.551403
Si Si3 0.346582 0.197884 0.716297
Si Si4 0.843949 0.615320 0.889307
Si Si5 0.441765 0.249527 0.136631
Si Si6 0.941385 0.750210 0.965536
Si Si7 0.652487 0.307559 0.765323
O O1 0.500000 0.500000 0.351709
O O2 0.644620 0.645706 0.358693
O O3 0.610077 0.282129 0.305077
O O4 0.608220 0.145799 0.376396
O O5 0.500000 0.500000 0.551646
O O6 0.398328 0.249142 0.593749
O O7 0.399869 0.257559 0.508785
O O8 0.500000 0.000000 0.551296
O O9 0.250000 0.223075 0.713537
O O10 0.384414 0.248295 0.674046
O O11 0.373672 0.412674 0.748366
O O12 0.365187 0.909995 0.732344
O O13 0.750000 0.546535 0.891976
O O14 0.879135 0.722874 0.930155
O O15 0.500000 0.500000 0.138530
O O16 0.500000 0.000000 0.138426
O O17 0.000000 0.500000 0.964537
O O18 0.000000 0.000000 0.960888
O O19 0.750000 0.311776 0.772213
#
# Coordination Sequence:
#
# PCOD9378799 Si02
#       7
#     8   8   8   8   8   8   8
#     4  12  25  41  61  85 111 145 192 237 278 330
#     4   8  16  30  51  78 106 140 178 221 269 316
#     4  10  21  36  55  79 109 144 178 218 274 329
#     4  12  24  39  59  85 117 150 184 228 286 339
#     4  10  19  33  54  80 109 141 182 224 265 317
#     4  10  19  35  58  81 109 144 186 228 270 324
#     4  10  21  38  57  78 108 144 180 222 276 329
#
# _framework density 19.454597
#
# number of rings (size 3 to 8) (size 9 to 14) (size 15 to 20)
#    0.000    1.714    0.000    5.571    0.000    2.857 
#    0.000    0.714    0.000    0.000    0.000   16.000 
#    0.000    0.000    0.000    0.000    0.000    0.000 
#
# Total GULP energy -156339.341347 kJ/mol
# GULP energy per Si atom -5583.547905 kJ/mol
# Density = 1.941032 g / cm^3
# Si number density = 19.454597 Si / 1000 Ang^3
#
#
#
# Elastic Constant Matrix: (Units=GPa)
#
#
# Indices 1 2 3 4 5 6 
#
# 1 33.3803 8.9280 29.7417 0.0000 0.0000 0.0000
# 2 8.9280 112.9368 -2.7160 0.0000 0.0000 0.0000
# 3 29.7417 -2.7160 112.1568 0.0000 0.0000 0.0000
# 4 0.0000 0.0000 0.0000 16.7061 0.0000 0.0000
# 5 0.0000 0.0000 0.0000 0.0000 -478.5289 0.0000
# 6 0.0000 0.0000 0.0000 0.0000 0.0000 16.4373
#
#
#
# Elastic Compliance Matrix: (Units=1/GPa)
#
#
# Indices 1 2 3 4 5 6 
#
# 1 0.040537 -0.003465 -0.010834 0.000000 0.000000 0.000000
# 2 -0.003465 0.009156 0.001141 0.000000 0.000000 0.000000
# 3 -0.010834 0.001141 0.011817 0.000000 0.000000 0.000000
# 4 0.000000 0.000000 0.000000 0.059859 0.000000 0.000000
# 5 0.000000 0.000000 0.000000 0.000000 -0.002090 0.000000
# 6 0.000000 0.000000 0.000000 0.000000 0.000000 0.060837
#
#
# Mechanical properties :
#
#
# Convention : Reuss Voigt Hill
#
# Bulk Modulus (GPa) = 28.41431 36.70900 32.56166
# Shear Modulus (GPa) = 22.91861 -74.24243 -25.66191
#
# Velocity S-wave (km/s) = 3.43601 -6.18423 -3.63584
# Velocity P-wave (km/s) = 5.51169 5.66418 0.92312
#
# Compressibility (1/GPa) = 0.03519353
#
# Stress axis : x y z
#
# Youngs Moduli (GPa) = 24.66864 109.21957 84.62702
#
# Poissons Ratio (x) = 0.37846 0.91681
# Poissons Ratio (y) = 0.08548 -0.09653
# Poissons Ratio (z) = 0.26725 -0.12458
#
# Static dielectric constant tensor:
#      x y z
#    x 2.006480 0.000000 0.000000 
#    y 0.000000 1.771370 0.000000 
#    z 0.000000 0.000000 1.733720 
# 
# From -- ./inp_files/25385.got.cif
#   From: 2010.05.17/outbox.cif.g08.bks.cpg/sg46_13_cif.got.tgz:25385.got - 2010.06.03 19:58:25.
