data_PCOD9378252
_publ_section_title
;
Structure prediction by ZEFSAII (Michael W. Deem and Ramdas Pophale) SiO2 
 PCOD9378252
Probable space group: I M A 2
;
_chemical_formula_sum "Si O2"
_cell_formula_units_Z 52
_cell_length_a 14.601890
_cell_length_b 28.363673
_cell_length_c 7.291286
_cell_angle_alpha 90.000000
_cell_angle_beta 90.000000
_cell_angle_gamma 90.000000
_cell_volume 3019.782584
_symmetry_space_group_name_H-M "I M A 2"
_symmetry_group_IT_number 46
_symmetry_cell_setting 'orthorhombic'
loop_
_space_group_symop_operation_xyz
x,y,z
-x,-y,z
1/2-x,y,z
1/2+x,-y,z
1/2+x,1/2+y,1/2+z
1/2-x,1/2-y,1/2+z
-x,1/2+y,1/2+z
x,1/2-y,1/2+z
loop_
_atom_site_type_symbol
_atom_site_label
_atom_site_fract_x
_atom_site_fract_y
_atom_site_fract_z
Si Si1 0.250000 0.022176 0.731330
Si Si2 0.453611 0.450086 0.291907
Si Si3 0.146220 0.684931 0.064424
Si Si4 0.644987 0.210196 0.135798
Si Si5 0.563441 0.408443 0.972806
Si Si6 0.250000 0.937331 0.998342
Si Si7 0.560178 0.382740 0.554103
Si Si8 0.250000 0.534417 0.898499
O O1 0.155400 0.045610 0.790426
O O2 0.250000 0.013239 0.513656
O O3 0.250000 0.969969 0.821460
O O4 0.500000 0.500000 0.349282
O O5 0.488853 0.409018 0.424975
O O6 0.492194 0.438742 0.088856
O O7 0.250000 0.675816 0.130220
O O8 0.150864 0.692058 0.844132
O O9 0.084787 0.639133 0.087300
O O10 0.114836 0.735495 0.138415
O O11 0.750000 0.209985 0.061131
O O12 0.579019 0.173184 0.035684
O O13 0.535659 0.394769 0.766036
O O14 0.659337 0.436201 0.951822
O O15 0.159501 0.905852 0.012419
O O16 0.250000 0.970189 0.179549
#
# Coordination Sequence:
#
# PCOD9378252 Si02
#       8
#     4   8   8   8   8   4   8   4
#     4  12  24  40  48  82 106 130 194 232 260 316
#     4  12  24  36  56  78 104 144 184 224 271 316
#     4   9  17  29  46  76 111 142 172 210 256 314
#     4   9  17  29  46  76 111 142 172 210 256 314
#     4  10  20  35  53  77 111 147 179 211 262 322
#     4  10  18  32  55  75 108 148 171 216 263 310
#     4  10  20  35  53  77 111 147 179 211 262 322
#     4  10  18  32  55  75 108 148 171 216 263 310
#
# _framework density 17.219783
#
# number of rings (size 3 to 8) (size 9 to 14) (size 15 to 20)
#    0.000    1.846    4.615    0.000    2.154    1.846 
#    0.000    0.000    0.000    0.000    0.000    1.077 
#    0.000    0.000    0.000    0.000    0.000    0.000 
#
# Total GULP energy -145128.875144 kJ/mol
# GULP energy per Si atom -5581.879813 kJ/mol
# Density = 1.718059 g / cm^3
# Si number density = 17.219783 Si / 1000 Ang^3
#
#
#
# Elastic Constant Matrix: (Units=GPa)
#
#
# Indices 1 2 3 4 5 6 
#
# 1 81.2424 21.6999 14.9557 0.0029 -0.0014 -0.0008
# 2 21.6999 60.8190 7.0774 0.0060 -0.0040 0.0001
# 3 14.9557 7.0774 48.7796 0.0071 -0.0053 -0.0091
# 4 0.0029 0.0060 0.0071 30.4486 -0.0007 -0.0029
# 5 -0.0014 -0.0040 -0.0053 -0.0007 14.0765 0.0011
# 6 -0.0008 0.0001 -0.0091 -0.0029 0.0011 12.5326
#
#
#
# Elastic Compliance Matrix: (Units=1/GPa)
#
#
# Indices 1 2 3 4 5 6 
#
# 1 0.014229 -0.004648 -0.003688 0.000000 -0.000001 -0.000002
# 2 -0.004648 0.018243 -0.001222 -0.000003 0.000004 -0.000001
# 3 -0.003688 -0.001222 0.021808 -0.000004 0.000007 0.000016
# 4 0.000000 -0.000003 -0.000004 0.032842 0.000002 0.000007
# 5 -0.000001 0.000004 0.000007 0.000002 0.071041 -0.000006
# 6 -0.000002 -0.000001 0.000016 0.000007 -0.000006 0.079792
#
#
# Mechanical properties :
#
#
# Convention : Reuss Voigt Hill
#
# Bulk Modulus (GPa) = 28.43765 30.92301 29.68033
# Shear Modulus (GPa) = 18.60171 21.21873 19.91022
#
# Velocity S-wave (km/s) = 3.29028 3.51412 3.40404
# Velocity P-wave (km/s) = 5.56642 5.87045 5.72046
#
# Compressibility (1/GPa) = 0.03516465
#
# Stress axis : x y z
#
# Youngs Moduli (GPa) = 70.27791 54.81647 45.85374
#
# Poissons Ratio (x) = 0.25477 0.16912
# Poissons Ratio (y) = 0.32663 0.05603
# Poissons Ratio (z) = 0.25921 0.06698
#
# Static dielectric constant tensor:
#      x y z
#    x 1.546800 0.000000 0.000000 
#    y 0.000000 1.602700 0.000000 
#    z 0.000000 0.000000 1.653410 
# 
# From -- ./inp_files/4967.got.cif
#   From: 2010.05.17/outbox.cif.g08.bks.cpg/sg46_3_cif.got.tgz:4967.got - 2010.06.03 19:58:25.
