data_PCOD9378626
_publ_section_title
;
Structure prediction by ZEFSAII (Michael W. Deem and Ramdas Pophale) SiO2 
 PCOD9378626
Probable space group: I M A 2
;
_chemical_formula_sum "Si O2"
_cell_formula_units_Z 64
_cell_length_a 8.713036
_cell_length_b 23.768042
_cell_length_c 19.602864
_cell_angle_alpha 90.000000
_cell_angle_beta 90.000000
_cell_angle_gamma 90.000000
_cell_volume 4059.592501
_symmetry_space_group_name_H-M "I M A 2"
_symmetry_group_IT_number 46
_symmetry_cell_setting 'orthorhombic'
loop_
_space_group_symop_operation_xyz
x,y,z
-x,-y,z
1/2-x,y,z
1/2+x,-y,z
1/2+x,1/2+y,1/2+z
1/2-x,1/2-y,1/2+z
-x,1/2+y,1/2+z
x,1/2-y,1/2+z
loop_
_atom_site_type_symbol
_atom_site_label
_atom_site_fract_x
_atom_site_fract_y
_atom_site_fract_z
Si Si1 0.934202 0.334379 0.769610
Si Si2 0.433234 0.937657 0.901393
Si Si3 0.565517 0.728548 0.892645
Si Si4 0.934945 0.747822 0.544394
Si Si5 0.065168 0.561540 0.678309
Si Si6 0.433603 0.777842 0.686673
Si Si7 0.933948 0.658322 0.310249
Si Si8 0.934481 0.885048 0.040406
O O1 0.750000 0.334169 0.773848
O O2 0.982519 0.392659 0.735165
O O3 0.979103 0.282677 0.719689
O O4 0.000804 0.319367 0.843338
O O5 0.250000 0.939511 0.904160
O O6 0.489265 0.896927 0.840917
O O7 0.500000 0.000000 0.893402
O O8 0.497876 0.911324 0.971598
O O9 0.750000 0.726132 0.891330
O O10 0.521976 0.788671 0.858918
O O11 0.515762 0.727751 0.971155
O O12 0.750000 0.752095 0.549342
O O13 0.973123 0.681240 0.544847
O O14 0.009933 0.777320 0.609276
O O15 0.250000 0.560077 0.675327
O O16 0.000000 0.500000 0.692596
O O17 0.001522 0.583282 0.605941
O O18 0.250000 0.782486 0.690033
O O19 0.509591 0.824382 0.735224
O O20 0.750000 0.652990 0.312055
O O21 0.750000 0.890242 0.039034
#
# Coordination Sequence:
#
# PCOD9378626 Si02
#       8
#     8   8   8   8   8   8   8   8
#     4   9  19  33  48  70  99 128 165 209 253 296
#     4  12  24  37  53  73 101 138 177 216 255 300
#     4   9  18  32  51  73  99 129 167 206 251 304
#     4  10  19  32  50  75 103 135 169 205 250 305
#     4  11  22  36  50  71 100 135 176 215 252 299
#     4  10  19  32  50  75 102 132 168 208 254 303
#     4  10  19  35  53  74 101 133 170 212 255 302
#     4  11  21  35  51  71 102 139 177 212 249 298
#
# _framework density 15.765129
#
# number of rings (size 3 to 8) (size 9 to 14) (size 15 to 20)
#    0.000    1.750    2.500    3.000    0.000    3.000 
#    0.000    0.000    0.000    0.000    0.000    0.875 
#    0.000    4.000    0.000    0.000    0.000    0.000 
#
# Total GULP energy -178668.850386 kJ/mol
# GULP energy per Si atom -5583.401575 kJ/mol
# Density = 1.572925 g / cm^3
# Si number density = 15.765129 Si / 1000 Ang^3
#
#
#
# Elastic Constant Matrix: (Units=GPa)
#
#
# Indices 1 2 3 4 5 6 
#
# 1 54.7178 38.4384 39.4935 0.0000 0.0000 0.0000
# 2 38.4384 95.4718 67.4824 0.0000 0.0000 0.0000
# 3 39.4935 67.4824 136.6546 0.0000 0.0000 0.0000
# 4 0.0000 0.0000 0.0000 18.2826 0.0000 0.0000
# 5 0.0000 0.0000 0.0000 0.0000 30.1104 0.0000
# 6 0.0000 0.0000 0.0000 0.0000 0.0000 23.2416
#
#
#
# Elastic Compliance Matrix: (Units=1/GPa)
#
#
# Indices 1 2 3 4 5 6 
#
# 1 0.026642 -0.008118 -0.003691 0.000000 0.000000 0.000000
# 2 -0.008118 0.018564 -0.006821 0.000000 0.000000 0.000000
# 3 -0.003691 -0.006821 0.011753 0.000000 0.000000 0.000000
# 4 0.000000 0.000000 0.000000 0.054697 0.000000 0.000000
# 5 0.000000 0.000000 0.000000 0.000000 0.033211 0.000000
# 6 0.000000 0.000000 0.000000 0.000000 0.000000 0.043026
#
#
# Mechanical properties :
#
#
# Convention : Reuss Voigt Hill
#
# Bulk Modulus (GPa) = 50.76317 64.18587 57.47452
# Shear Modulus (GPa) = 21.57783 23.75559 22.66671
#
# Velocity S-wave (km/s) = 3.70362 3.88602 3.79591
# Velocity P-wave (km/s) = 7.11046 7.80622 7.46645
#
# Compressibility (1/GPa) = 0.01969932
#
# Stress axis : x y z
#
# Youngs Moduli (GPa) = 37.53455 53.86772 85.08558
#
# Poissons Ratio (x) = 0.43728 0.31405
# Poissons Ratio (y) = 0.30469 0.58039
# Poissons Ratio (z) = 0.13854 0.36744
#
# Static dielectric constant tensor:
#      x y z
#    x 1.528410 0.000000 0.000000 
#    y 0.000000 1.507920 0.000000 
#    z 0.000000 0.000000 1.516780 
# 
# From -- ./inp_files/18555.got.cif
#   From: 2010.05.17/outbox.cif.g08.bks.cpg/sg46_10_cif.got.tgz:18555.got - 2010.06.03 19:58:25.
