data_PCOD9378936
_publ_section_title
;
Structure prediction by ZEFSAII (Michael W. Deem and Ramdas Pophale) SiO2 
 PCOD9378936
Probable space group: I M A 2
;
_chemical_formula_sum "Si O2"
_cell_formula_units_Z 64
_cell_length_a 8.700037
_cell_length_b 25.526979
_cell_length_c 15.384755
_cell_angle_alpha 90.000000
_cell_angle_beta 90.000000
_cell_angle_gamma 90.000000
_cell_volume 3416.733496
_symmetry_space_group_name_H-M "I M A 2"
_symmetry_group_IT_number 46
_symmetry_cell_setting 'orthorhombic'
loop_
_space_group_symop_operation_xyz
x,y,z
-x,-y,z
1/2-x,y,z
1/2+x,-y,z
1/2+x,1/2+y,1/2+z
1/2-x,1/2-y,1/2+z
-x,1/2+y,1/2+z
x,1/2-y,1/2+z
loop_
_atom_site_type_symbol
_atom_site_label
_atom_site_fract_x
_atom_site_fract_y
_atom_site_fract_z
Si Si1 0.934281 0.648616 0.021770
Si Si2 0.567092 0.443366 0.904367
Si Si3 0.434579 0.636543 0.397021
Si Si4 0.933971 0.836198 0.722163
Si Si5 0.434884 0.219909 0.187493
Si Si6 0.935519 0.058425 0.050604
Si Si7 0.933973 0.239004 0.998129
Si Si8 0.565819 0.604275 0.730029
O O1 0.750000 0.646023 0.015917
O O2 0.978533 0.648099 0.124037
O O3 0.007638 0.601080 0.969783
O O4 0.989266 0.704607 0.984774
O O5 0.500000 0.500000 0.927578
O O6 0.750000 0.445289 0.904653
O O7 0.507833 0.427390 0.808767
O O8 0.250000 0.636516 0.395572
O O9 0.495185 0.630616 0.299764
O O10 0.482558 0.592999 0.467031
O O11 0.485437 0.693324 0.433113
O O12 0.750000 0.839429 0.727411
O O13 0.978342 0.774747 0.732010
O O14 0.250000 0.221403 0.172537
O O15 0.470045 0.166354 0.237276
O O16 0.517531 0.220024 0.094358
O O17 0.750000 0.057832 0.055706
O O18 0.001865 0.084305 0.138106
O O19 0.000000 0.000000 0.043336
O O20 0.750000 0.244283 0.993720
O O21 0.750000 0.597996 0.732089
#
# Coordination Sequence:
#
# PCOD9378936 Si02
#       8
#     8   8   8   8   8   8   8   8
#     4  10  22  42  63  88 120 157 202 253 302 360
#     4  12  26  44  65  90 119 157 203 253 306 362
#     4  10  22  37  56  86 123 158 198 247 302 356
#     4   9  20  37  59  87 120 157 198 245 298 354
#     4   9  19  35  55  85 120 158 198 238 292 355
#     4  11  23  41  60  85 120 160 205 253 300 357
#     4  10  19  34  56  87 121 158 197 242 299 355
#     4  11  22  38  61  90 123 162 201 244 300 361
#
# _framework density 18.731341
#
# number of rings (size 3 to 8) (size 9 to 14) (size 15 to 20)
#    0.000    1.750    1.250    3.750    1.750    5.000 
#    0.000    0.625    0.000    1.500    0.000    0.000 
#    0.000    0.000    0.000    0.000    0.000    0.000 
#
# Total GULP energy -178784.681489 kJ/mol
# GULP energy per Si atom -5587.021297 kJ/mol
# Density = 1.868871 g / cm^3
# Si number density = 18.731341 Si / 1000 Ang^3
#
#
#
# Elastic Constant Matrix: (Units=GPa)
#
#
# Indices 1 2 3 4 5 6 
#
# 1 60.2680 43.5881 26.9936 0.0000 0.0000 0.0000
# 2 43.5881 123.1987 56.1249 0.0000 -0.0001 0.0000
# 3 26.9936 56.1249 87.3493 0.0000 -0.0003 0.0000
# 4 0.0000 0.0000 0.0000 25.5573 -0.0001 0.0000
# 5 0.0000 -0.0001 -0.0003 -0.0001 44.5131 0.0000
# 6 0.0000 0.0000 0.0000 0.0000 0.0000 26.4029
#
#
#
# Elastic Compliance Matrix: (Units=1/GPa)
#
#
# Indices 1 2 3 4 5 6 
#
# 1 0.022716 -0.006842 -0.002624 0.000000 0.000000 0.000000
# 2 -0.006842 0.013537 -0.006584 0.000000 0.000000 0.000000
# 3 -0.002624 -0.006584 0.016489 0.000000 0.000000 0.000000
# 4 0.000000 0.000000 0.000000 0.039128 0.000000 0.000000
# 5 0.000000 0.000000 0.000000 0.000000 0.022465 0.000000
# 6 0.000000 0.000000 0.000000 0.000000 0.000000 0.037875
#
#
# Mechanical properties :
#
#
# Convention : Reuss Voigt Hill
#
# Bulk Modulus (GPa) = 48.44075 58.24770 53.34422
# Shear Modulus (GPa) = 26.15210 28.90195 27.52703
#
# Velocity S-wave (km/s) = 3.74059 3.93233 3.83766
# Velocity P-wave (km/s) = 6.67630 7.19594 6.94098
#
# Compressibility (1/GPa) = 0.02064378
#
# Stress axis : x y z
#
# Youngs Moduli (GPa) = 44.02206 73.87277 60.64515
#
# Poissons Ratio (x) = 0.50541 0.15913
# Poissons Ratio (y) = 0.30118 0.39926
# Poissons Ratio (z) = 0.11551 0.48635
#
# Static dielectric constant tensor:
#      x y z
#    x 1.624080 0.000000 0.000000 
#    y 0.000000 1.640470 0.000000 
#    z 0.000000 0.000000 1.640060 
# 
# From -- ./inp_files/14466.got.cif
#   From: 2010.05.17/outbox.cif.g08.bks.cpg/sg46_8_cif.got.tgz:14466.got - 2010.06.03 19:58:25.
