data_PCOD9378228
_publ_section_title
;
Structure prediction by ZEFSAII (Michael W. Deem and Ramdas Pophale) SiO2 
 PCOD9378228
Probable space group: I M A 2
;
_chemical_formula_sum "Si O2"
_cell_formula_units_Z 64
_cell_length_a 14.103114
_cell_length_b 5.382021
_cell_length_c 34.590770
_cell_angle_alpha 90.000000
_cell_angle_beta 90.000000
_cell_angle_gamma 90.000000
_cell_volume 2625.552061
_symmetry_space_group_name_H-M "I M A 2"
_symmetry_group_IT_number 46
_symmetry_cell_setting 'orthorhombic'
loop_
_space_group_symop_operation_xyz
x,y,z
-x,-y,z
1/2-x,y,z
1/2+x,-y,z
1/2+x,1/2+y,1/2+z
1/2-x,1/2-y,1/2+z
-x,1/2+y,1/2+z
x,1/2-y,1/2+z
loop_
_atom_site_type_symbol
_atom_site_label
_atom_site_fract_x
_atom_site_fract_y
_atom_site_fract_z
Si Si1 0.634555 0.809181 0.630450
Si Si2 0.611936 0.441782 0.924631
Si Si3 0.113058 0.759433 0.510924
Si Si4 0.134854 0.168387 0.808139
Si Si5 0.900000 0.754454 0.043338
Si Si6 0.134726 0.809740 0.175463
Si Si7 0.865860 0.168271 0.263668
Si Si8 0.895018 0.555544 0.395016
O O1 0.750000 0.810814 0.625213
O O2 0.588383 0.747809 0.589222
O O3 0.610765 0.578169 0.658083
O O4 0.606755 0.073654 0.649185
O O5 0.500000 0.500000 0.919706
O O6 0.650584 0.720746 0.919267
O O7 0.645527 0.224813 0.895510
O O8 0.628728 0.319495 0.966286
O O9 0.148525 0.499629 0.527070
O O10 0.000613 0.751794 0.521007
O O11 0.149284 0.996961 0.533720
O O12 0.250000 0.173373 0.810512
O O13 0.105222 0.409969 0.783789
O O14 0.098519 0.162243 0.851891
O O15 0.107164 0.910646 0.787953
O O16 0.250000 0.797848 0.176586
O O17 0.100888 0.798440 0.219641
O O18 0.750000 0.162722 0.262618
O O19 0.000000 0.500000 0.411119
#
# Coordination Sequence:
#
# PCOD9378228 Si02
#       8
#     8   8   8   8   8   8   8   8
#     4  10  19  31  48  74 108 135 161 205 256 306
#     4  10  18  32  52  75  97 120 168 216 258 281
#     4  10  19  32  52  75  91 125 167 222 239 287
#     4  10  19  33  52  78 107 133 166 215 261 298
#     4  10  19  30  50  75  97 126 161 209 263 283
#     4   9  17  30  48  74 102 132 173 208 240 290
#     4   9  17  30  52  77 101 132 171 212 247 291
#     4  10  21  32  52  80 100 133 168 213 250 312
#
# _framework density 24.375824999999999
#
# number of rings (size 3 to 8) (size 9 to 14) (size 15 to 20)
#    0.000    2.250    1.250    3.000    3.500    3.000 
#    0.000    0.000    0.000    4.500   32.500    0.000 
#    0.000    0.000    0.000    0.000    0.000    0.000 
#
# Total GULP energy -178883.212358 kJ/mol
# GULP energy per Si atom -5590.100386 kJ/mol
# Density = 2.432034 g / cm^3
# Si number density = 24.375825 Si / 1000 Ang^3
#
#
#
# Elastic Constant Matrix: (Units=GPa)
#
#
# Indices 1 2 3 4 5 6 
#
# 1 87.3870 6.1716 -15.2206 0.0000 0.0000 0.0000
# 2 6.1716 259.9707 75.8117 0.0000 0.0000 0.0000
# 3 -15.2206 75.8117 149.7628 0.0000 0.0000 0.0000
# 4 0.0000 0.0000 0.0000 54.1168 0.0000 0.0000
# 5 0.0000 0.0000 0.0000 0.0000 35.7396 0.0000
# 6 0.0000 0.0000 0.0000 0.0000 0.0000 35.2449
#
#
#
# Elastic Compliance Matrix: (Units=1/GPa)
#
#
# Indices 1 2 3 4 5 6 
#
# 1 0.011769 -0.000737 0.001569 0.000000 0.000000 0.000000
# 2 -0.000737 0.004559 -0.002383 0.000000 0.000000 0.000000
# 3 0.001569 -0.002383 0.008043 0.000000 0.000000 0.000000
# 4 0.000000 0.000000 0.000000 0.018479 0.000000 0.000000
# 5 0.000000 0.000000 0.000000 0.000000 0.027980 0.000000
# 6 0.000000 0.000000 0.000000 0.000000 0.000000 0.028373
#
#
# Mechanical properties :
#
#
# Convention : Reuss Voigt Hill
#
# Bulk Modulus (GPa) = 47.01586 70.07177 58.54381
# Shear Modulus (GPa) = 45.70679 53.71076 49.70878
#
# Velocity S-wave (km/s) = 4.33493 4.69918 4.52072
# Velocity P-wave (km/s) = 6.66222 7.63229 7.16370
#
# Compressibility (1/GPa) = 0.02126942
#
# Stress axis : x y z
#
# Youngs Moduli (GPa) = 84.97115 219.35071 124.33430
#
# Poissons Ratio (x) = 0.16165 -0.19510
# Poissons Ratio (y) = 0.06262 0.29625
# Poissons Ratio (z) = -0.13333 0.52264
#
# Static dielectric constant tensor:
#      x y z
#    x 1.976950 0.000000 0.000000 
#    y 0.000000 1.892500 0.000000 
#    z 0.000000 0.000000 1.879190 
# 
# From -- ./inp_files/25512.got.cif
#   From: 2010.05.17/outbox.cif.g08.bks.cpg/sg46_13_cif.got.tgz:25512.got - 2010.06.03 19:58:25.
