data_PCOD9378758
_publ_section_title
;
Structure prediction by ZEFSAII (Michael W. Deem and Ramdas Pophale) SiO2 
 PCOD9378758
Probable space group: I M A 2
;
_chemical_formula_sum "Si O2"
_cell_formula_units_Z 64
_cell_length_a 7.924597
_cell_length_b 21.925832
_cell_length_c 17.424515
_cell_angle_alpha 90.000000
_cell_angle_beta 90.000000
_cell_angle_gamma 90.000000
_cell_volume 3027.568419
_symmetry_space_group_name_H-M "I M A 2"
_symmetry_group_IT_number 46
_symmetry_cell_setting 'orthorhombic'
loop_
_space_group_symop_operation_xyz
x,y,z
-x,-y,z
1/2-x,y,z
1/2+x,-y,z
1/2+x,1/2+y,1/2+z
1/2-x,1/2-y,1/2+z
-x,1/2+y,1/2+z
x,1/2-y,1/2+z
loop_
_atom_site_type_symbol
_atom_site_label
_atom_site_fract_x
_atom_site_fract_y
_atom_site_fract_z
Si Si1 0.560944 0.166590 0.674500
Si Si2 0.555051 0.137564 0.960605
Si Si3 0.547922 0.570418 0.609426
Si Si4 0.045643 0.927647 0.805375
Si Si5 0.043673 0.762694 0.532262
Si Si6 0.440015 0.435347 0.076089
Si Si7 0.951194 0.571303 0.776427
Si Si8 0.447933 0.618936 0.935109
O O1 0.750000 0.185468 0.698212
O O2 0.486691 0.125004 0.744069
O O3 0.484932 0.220763 0.620015
O O4 0.564837 0.114505 0.609334
O O5 0.750000 0.150607 0.940059
O O6 0.487613 0.098888 0.888236
O O7 0.543875 0.097427 0.036587
O O8 0.479769 0.201406 0.991152
O O9 0.500000 0.500000 0.612734
O O10 0.750000 0.577891 0.600752
O O11 0.492838 0.594887 0.692764
O O12 0.250000 0.927305 0.800768
O O13 0.000000 0.000000 0.794870
O O14 0.250000 0.759521 0.537921
O O15 0.000833 0.817022 0.473217
O O16 0.500000 0.500000 0.104551
O O17 0.250000 0.421939 0.100481
O O18 0.452314 0.431076 0.984567
O O19 0.750000 0.573267 0.777052
O O20 0.000000 0.500000 0.786036
O O21 0.017886 0.611050 0.846115
O O22 0.250000 0.609713 0.947802
#
# Coordination Sequence:
#
# PCOD9378758 Si02
#       8
#     8   8   8   8   8   8   8   8
#     4   9  18  35  54  76 107 145 183 231 279 327
#     4  10  20  37  58  83 111 144 185 230 280 339
#     4  10  21  37  57  81 109 142 180 227 279 332
#     4  10  21  35  56  84 115 145 182 233 289 338
#     4   8  17  35  56  78 108 144 186 227 268 325
#     4  11  20  30  47  73 104 142 181 224 274 330
#     4  10  20  34  52  77 110 142 179 226 275 327
#     4  10  19  33  52  76 106 142 183 226 270 322
#
# _framework density 21.139075999999999
#
# number of rings (size 3 to 8) (size 9 to 14) (size 15 to 20)
#    0.000    2.250    0.000    4.125    0.000    4.500 
#    2.250    3.125    0.000    0.000    0.000    0.000 
#    0.000    0.000    0.000    0.000    0.000    0.000 
#
# Total GULP energy -178149.488237 kJ/mol
# GULP energy per Si atom -5567.171507 kJ/mol
# Density = 2.109096 g / cm^3
# Si number density = 21.139076 Si / 1000 Ang^3
#
#
#
# Elastic Constant Matrix: (Units=GPa)
#
#
# Indices 1 2 3 4 5 6 
#
# 1 47.1698 -1.4762 6.5653 -0.0001 0.0000 0.0000
# 2 -1.4762 68.6997 47.2051 -0.0010 0.0000 0.0000
# 3 6.5653 47.2051 163.3365 0.0021 0.0000 0.0000
# 4 -0.0001 -0.0010 0.0021 -925.4353 -0.0001 0.0000
# 5 0.0000 0.0000 0.0000 -0.0001 18.9814 0.0000
# 6 0.0000 0.0000 0.0000 0.0000 0.0000 11.9549
#
#
#
# Elastic Compliance Matrix: (Units=1/GPa)
#
#
# Indices 1 2 3 4 5 6 
#
# 1 0.021414 0.001312 -0.001240 0.000000 0.000000 0.000000
# 2 0.001312 0.018243 -0.005325 0.000000 0.000000 0.000000
# 3 -0.001240 -0.005325 0.007711 0.000000 0.000000 0.000000
# 4 0.000000 0.000000 0.000000 -0.001081 0.000000 0.000000
# 5 0.000000 0.000000 0.000000 0.000000 0.052683 0.000000
# 6 0.000000 0.000000 0.000000 0.000000 0.000000 0.083648
#
#
# Mechanical properties :
#
#
# Convention : Reuss Voigt Hill
#
# Bulk Modulus (GPa) = 27.12803 42.64381 34.88592
# Shear Modulus (GPa) = 24.34133 -163.77236 -69.71552
#
# Velocity S-wave (km/s) = 3.39703 -8.81147 -5.74900
# Velocity P-wave (km/s) = 5.31483 9.12720 5.24683
#
# Compressibility (1/GPa) = 0.03686225
#
# Stress axis : x y z
#
# Youngs Moduli (GPa) = 46.69916 54.81447 129.68195
#
# Poissons Ratio (x) = -0.07192 0.16080
# Poissons Ratio (y) = -0.06128 0.69058
# Poissons Ratio (z) = 0.05790 0.29190
#
# Static dielectric constant tensor:
#      x y z
#    x 1.807200 0.000000 0.000000 
#    y 0.000000 4.709630 0.000000 
#    z 0.000000 0.000000 1.809960 
# 
# From -- ./inp_files/18535.got.cif
#   From: 2010.05.17/outbox.cif.g08.bks.cpg/sg46_10_cif.got.tgz:18535.got - 2010.06.03 19:58:25.
