data_PCOD9378093
_publ_section_title
;
Structure prediction by ZEFSAII (Michael W. Deem and Ramdas Pophale) SiO2 
 PCOD9378093
Probable space group: I M A 2
;
_chemical_formula_sum "Si O2"
_cell_formula_units_Z 56
_cell_length_a 8.606966
_cell_length_b 13.939651
_cell_length_c 29.981953
_cell_angle_alpha 90.000000
_cell_angle_beta 90.000000
_cell_angle_gamma 90.000000
_cell_volume 3597.177821
_symmetry_space_group_name_H-M "I M A 2"
_symmetry_group_IT_number 46
_symmetry_cell_setting 'orthorhombic'
loop_
_space_group_symop_operation_xyz
x,y,z
-x,-y,z
1/2-x,y,z
1/2+x,-y,z
1/2+x,1/2+y,1/2+z
1/2-x,1/2-y,1/2+z
-x,1/2+y,1/2+z
x,1/2-y,1/2+z
loop_
_atom_site_type_symbol
_atom_site_label
_atom_site_fract_x
_atom_site_fract_y
_atom_site_fract_z
Si Si1 0.435699 0.108770 0.070920
Si Si2 0.436065 0.395074 0.935695
Si Si3 0.562702 0.290046 0.483607
Si Si4 0.562622 0.201051 0.346697
Si Si5 0.064209 0.890991 0.164378
Si Si6 0.064340 0.108712 0.257523
Si Si7 0.063854 0.895793 0.893304
O O1 0.250000 0.104528 0.072528
O O2 0.500374 0.149417 0.117847
O O3 0.500000 0.000000 0.065682
O O4 0.493660 0.170898 0.029396
O O5 0.500000 0.500000 0.946872
O O6 0.250000 0.394646 0.935384
O O7 0.499817 0.313834 0.969157
O O8 0.499033 0.365094 0.886765
O O9 0.750000 0.287630 0.485680
O O10 0.516449 0.361269 0.442945
O O11 0.750000 0.194104 0.346089
O O12 0.493824 0.167794 0.299945
O O13 0.517873 0.309802 0.360112
O O14 0.250000 0.891830 0.164318
O O15 0.000908 0.849768 0.210848
O O16 0.000000 0.000000 0.164494
O O17 0.250000 0.104858 0.255781
O O18 0.000000 0.000000 0.262231
O O19 0.250000 0.900011 0.893044
O O20 0.000000 0.000000 0.882581
#
# Coordination Sequence:
#
# PCOD9378093 Si02
#       7
#     8   8   8   8   8   8   8
#     4  11  20  31  47  70  98 129 161 196 235 281
#     4  11  21  34  50  70  95 126 159 197 238 280
#     4  10  20  34  49  70  96 126 161 197 235 281
#     4  10  20  34  48  68  95 126 160 195 233 279
#     4  10  18  30  46  66  93 125 156 192 234 281
#     4  11  20  31  47  69  95 125 157 194 235 282
#     4   9  19  32  48  67  93 123 155 193 232 272
#
# _framework density 15.56776
#
# number of rings (size 3 to 8) (size 9 to 14) (size 15 to 20)
#    0.000    1.714    0.000    9.429    0.000    4.571 
#    0.000    0.000    0.000    0.000    0.000    1.000 
#    0.000    2.286    0.000    0.000    0.000    0.000 
#
# Total GULP energy -156291.542301 kJ/mol
# GULP energy per Si atom -5581.840796 kJ/mol
# Density = 1.553233 g / cm^3
# Si number density = 15.567760 Si / 1000 Ang^3
#
#
#
# Elastic Constant Matrix: (Units=GPa)
#
#
# Indices 1 2 3 4 5 6 
#
# 1 136.4841 37.8354 63.7554 0.0000 0.0000 0.0000
# 2 37.8354 86.0194 59.8099 0.0000 0.0000 0.0000
# 3 63.7554 59.8099 160.7300 0.0000 0.0000 0.0000
# 4 0.0000 0.0000 0.0000 21.3594 0.0000 0.0000
# 5 0.0000 0.0000 0.0000 0.0000 28.5436 0.0000
# 6 0.0000 0.0000 0.0000 0.0000 0.0000 25.2064
#
#
#
# Elastic Compliance Matrix: (Units=1/GPa)
#
#
# Indices 1 2 3 4 5 6 
#
# 1 0.009253 -0.002048 -0.002908 0.000000 0.000000 0.000000
# 2 -0.002048 0.016136 -0.005192 0.000000 0.000000 0.000000
# 3 -0.002908 -0.005192 0.009307 0.000000 0.000000 0.000000
# 4 0.000000 0.000000 0.000000 0.046818 0.000000 0.000000
# 5 0.000000 0.000000 0.000000 0.000000 0.035034 0.000000
# 6 0.000000 0.000000 0.000000 0.000000 0.000000 0.039672
#
#
# Mechanical properties :
#
#
# Convention : Reuss Voigt Hill
#
# Bulk Modulus (GPa) = 69.44467 78.44832 73.94649
# Shear Modulus (GPa) = 27.57591 29.81073 28.69332
#
# Velocity S-wave (km/s) = 4.21330 4.38071 4.29782
# Velocity P-wave (km/s) = 8.26886 8.72287 8.49890
#
# Compressibility (1/GPa) = 0.01439995
#
# Stress axis : x y z
#
# Youngs Moduli (GPa) = 108.07195 61.97248 107.44190
#
# Poissons Ratio (x) = 0.12690 0.31248
# Poissons Ratio (y) = 0.22130 0.55786
# Poissons Ratio (z) = 0.31431 0.32178
#
# Static dielectric constant tensor:
#      x y z
#    x 1.519250 0.000000 0.000000 
#    y 0.000000 1.515800 0.000000 
#    z 0.000000 0.000000 1.533860 
# 
# From -- ./inp_files/25229.got.cif
#   From: 2010.05.17/outbox.cif.g08.bks.cpg/sg46_13_cif.got.tgz:25229.got - 2010.06.03 19:58:25.
