data_PCOD9378614
_publ_section_title
;
Structure prediction by ZEFSAII (Michael W. Deem and Ramdas Pophale) SiO2 
 PCOD9378614
Probable space group: I M A 2
;
_chemical_formula_sum "Si O2"
_cell_formula_units_Z 48
_cell_length_a 8.310359
_cell_length_b 18.177960
_cell_length_c 13.653274
_cell_angle_alpha 90.000000
_cell_angle_beta 90.000000
_cell_angle_gamma 90.000000
_cell_volume 2062.536936
_symmetry_space_group_name_H-M "I M A 2"
_symmetry_group_IT_number 46
_symmetry_cell_setting 'orthorhombic'
loop_
_space_group_symop_operation_xyz
x,y,z
-x,-y,z
1/2-x,y,z
1/2+x,-y,z
1/2+x,1/2+y,1/2+z
1/2-x,1/2-y,1/2+z
-x,1/2+y,1/2+z
x,1/2-y,1/2+z
loop_
_atom_site_type_symbol
_atom_site_label
_atom_site_fract_x
_atom_site_fract_y
_atom_site_fract_z
Si Si1 0.065089 0.731714 0.634840
Si Si2 0.061379 0.079143 0.125294
Si Si3 0.561438 0.108000 0.907398
Si Si4 0.440686 0.078190 0.479969
Si Si5 0.061731 0.606741 0.198108
Si Si6 0.565911 0.764548 0.433100
O O1 0.750000 0.740438 0.895944
O O2 0.023897 0.650562 0.672184
O O3 0.055532 0.804245 0.699351
O O4 0.937550 0.749199 0.549807
O O5 0.250000 0.084837 0.141243
O O6 0.000000 0.000000 0.159677
O O7 0.024120 0.084037 0.007701
O O8 0.750000 0.089208 0.915721
O O9 0.494631 0.080675 0.802747
O O10 0.540658 0.196237 0.900687
O O11 0.750000 0.918408 0.471745
O O12 0.484716 0.082815 0.595691
O O13 0.501319 0.152532 0.426556
O O14 0.500000 0.000000 0.441572
O O15 0.250000 0.585717 0.193148
O O16 0.250000 0.729287 0.596913
#
# Coordination Sequence:
#
# PCOD9378614 Si02
#       6
#     8   8   8   8   8   8
#     4   9  16  30  50  70  92 122 158 196 233 277
#     4  11  21  33  49  71  97 127 160 197 237 281
#     4  10  19  32  50  73  98 127 158 192 234 282
#     4  10  20  32  49  71  97 127 160 196 237 280
#     4   9  19  33  50  72  99 127 157 191 234 284
#     4   9  17  30  47  69  93 122 160 198 233 276
#
# _framework density 23.272310999999998
#
# number of rings (size 3 to 8) (size 9 to 14) (size 15 to 20)
#    0.000    2.333    0.000    5.500    0.000    4.667 
#    0.000    0.000    0.000    1.000    0.000    2.333 
#    0.000    0.000    0.000    0.000    0.000    0.000 
#
# Total GULP energy -133858.570291 kJ/mol
# GULP energy per Si atom -5577.440429 kJ/mol
# Density = 2.321934 g / cm^3
# Si number density = 23.272311 Si / 1000 Ang^3
#
#
#
# Elastic Constant Matrix: (Units=GPa)
#
#
# Indices 1 2 3 4 5 6 
#
# 1 54.0251 9.8103 -2.8312 0.0000 0.0000 0.0000
# 2 9.8103 184.1930 -10.1153 0.0000 0.0000 0.0000
# 3 -2.8312 -10.1153 30.4638 0.0000 0.0000 0.0000
# 4 0.0000 0.0000 0.0000 -12.3072 0.0000 0.0000
# 5 0.0000 0.0000 0.0000 0.0000 -15.9642 0.0000
# 6 0.0000 0.0000 0.0000 0.0000 0.0000 33.0202
#
#
#
# Elastic Compliance Matrix: (Units=1/GPa)
#
#
# Indices 1 2 3 4 5 6 
#
# 1 0.018752 -0.000920 0.001437 0.000000 0.000000 0.000000
# 2 -0.000920 0.005575 0.001766 0.000000 0.000000 0.000000
# 3 0.001437 0.001766 0.033546 0.000000 0.000000 0.000000
# 4 0.000000 0.000000 0.000000 -0.081253 0.000000 0.000000
# 5 0.000000 0.000000 0.000000 0.000000 -0.062640 0.000000
# 6 0.000000 0.000000 0.000000 0.000000 0.000000 0.030284
#
#
# Mechanical properties :
#
#
# Convention : Reuss Voigt Hill
#
# Bulk Modulus (GPa) = 16.01555 29.15661 22.58608
# Shear Modulus (GPa) = -126.61642 19.07099 -53.77272
#
# Velocity S-wave (km/s) = -7.38408 2.86575 -4.81207
# Velocity P-wave (km/s) = 8.11189 4.84826 4.59875
#
# Compressibility (1/GPa) = 0.06243933
#
# Stress axis : x y z
#
# Youngs Moduli (GPa) = 53.32693 179.37079 29.81011
#
# Poissons Ratio (x) = 0.16499 -0.04285
# Poissons Ratio (y) = 0.04905 -0.05264
# Poissons Ratio (z) = -0.07665 -0.31671
#
# Static dielectric constant tensor:
#      x y z
#    x 1.829260 0.000000 0.000000 
#    y 0.000000 1.958980 0.000000 
#    z 0.000000 0.000000 1.985560 
# 
# From -- ./inp_files/13919.got.cif
#   From: 2010.05.17/outbox.cif.g08.bks.cpg/sg46_7_cif.got.tgz:13919.got - 2010.06.03 19:58:25.
