data_PCOD9378846
_publ_section_title
;
Structure prediction by ZEFSAII (Michael W. Deem and Ramdas Pophale) SiO2 
 PCOD9378846
Probable space group: I M A 2
;
_chemical_formula_sum "Si O2"
_cell_formula_units_Z 64
_cell_length_a 8.703823
_cell_length_b 20.061111
_cell_length_c 21.021503
_cell_angle_alpha 90.000000
_cell_angle_beta 90.000000
_cell_angle_gamma 90.000000
_cell_volume 3670.530149
_symmetry_space_group_name_H-M "I M A 2"
_symmetry_group_IT_number 46
_symmetry_cell_setting 'orthorhombic'
loop_
_space_group_symop_operation_xyz
x,y,z
-x,-y,z
1/2-x,y,z
1/2+x,-y,z
1/2+x,1/2+y,1/2+z
1/2-x,1/2-y,1/2+z
-x,1/2+y,1/2+z
x,1/2-y,1/2+z
loop_
_atom_site_type_symbol
_atom_site_label
_atom_site_fract_x
_atom_site_fract_y
_atom_site_fract_z
Si Si1 0.433605 0.296464 0.912810
Si Si2 0.433877 0.707382 0.672471
Si Si3 0.565938 0.708339 0.288843
Si Si4 0.433415 0.570054 0.861628
Si Si5 0.435087 0.714272 0.529326
Si Si6 0.565979 0.429988 0.482767
Si Si7 0.066299 0.429358 0.718763
Si Si8 0.934100 0.070899 0.833351
O O1 0.250000 0.305315 0.911810
O O2 0.476496 0.250121 0.852308
O O3 0.515142 0.367237 0.903126
O O4 0.486019 0.259857 0.976705
O O5 0.250000 0.702327 0.678583
O O6 0.498863 0.754003 0.727874
O O7 0.470131 0.733220 0.601794
O O8 0.504648 0.633933 0.680805
O O9 0.750000 0.706918 0.284887
O O10 0.501277 0.634124 0.296849
O O11 0.500000 0.500000 0.886252
O O12 0.250000 0.566482 0.855933
O O13 0.505912 0.579136 0.791244
O O14 0.250000 0.717350 0.520234
O O15 0.482744 0.637228 0.518055
O O16 0.500000 0.500000 0.506720
O O17 0.750000 0.434105 0.485838
O O18 0.521875 0.422563 0.408221
O O19 0.250000 0.431101 0.719057
O O20 0.000000 0.500000 0.695459
O O21 0.750000 0.070819 0.829534
O O22 0.000000 0.000000 0.811137
#
# Coordination Sequence:
#
# PCOD9378846 Si02
#       8
#     8   8   8   8   8   8   8   8
#     4  11  22  36  58  86 114 147 190 235 283 335
#     4  11  23  38  57  81 113 153 193 235 284 338
#     4  11  22  36  57  84 114 147 190 236 280 335
#     4  11  21  35  58  85 116 147 185 234 284 336
#     4  10  22  39  56  80 113 151 193 233 281 337
#     4   9  18  32  51  76 109 145 183 225 267 323
#     4  11  21  35  54  79 113 151 192 234 280 337
#     4  10  19  33  56  83 114 145 183 230 283 333
#
# _framework density 17.436174000000001
#
# number of rings (size 3 to 8) (size 9 to 14) (size 15 to 20)
#    0.000    1.500    2.500    4.500    0.000    3.500 
#    0.000    1.250    0.000    0.750    0.000    0.000 
#    0.000    0.000    0.000    0.000    0.000    0.000 
#
# Total GULP energy -178798.793328 kJ/mol
# GULP energy per Si atom -5587.462292 kJ/mol
# Density = 1.739649 g / cm^3
# Si number density = 17.436174 Si / 1000 Ang^3
#
#
#
# Elastic Constant Matrix: (Units=GPa)
#
#
# Indices 1 2 3 4 5 6 
#
# 1 82.2510 53.9843 50.4141 0.0000 0.0000 0.0000
# 2 53.9843 129.9842 60.9926 0.0000 0.0000 0.0000
# 3 50.4141 60.9926 97.7525 0.0000 0.0000 0.0000
# 4 0.0000 0.0000 0.0000 22.2567 0.0000 0.0000
# 5 0.0000 0.0000 0.0000 0.0000 14.3374 0.0000
# 6 0.0000 0.0000 0.0000 0.0000 0.0000 34.6039
#
#
#
# Elastic Compliance Matrix: (Units=1/GPa)
#
#
# Indices 1 2 3 4 5 6 
#
# 1 0.019712 -0.004831 -0.007152 0.000000 0.000000 0.000000
# 2 -0.004831 0.012062 -0.005035 0.000000 0.000000 0.000000
# 3 -0.007152 -0.005035 0.017060 0.000000 0.000000 0.000000
# 4 0.000000 0.000000 0.000000 0.044930 0.000000 0.000000
# 5 0.000000 0.000000 0.000000 0.000000 0.069748 0.000000
# 6 0.000000 0.000000 0.000000 0.000000 0.000000 0.028898
#
#
# Mechanical properties :
#
#
# Convention : Reuss Voigt Hill
#
# Bulk Modulus (GPa) = 67.57212 71.19664 69.38438
# Shear Modulus (GPa) = 21.60962 23.87938 22.74450
#
# Velocity S-wave (km/s) = 3.52427 3.70473 3.61563
# Velocity P-wave (km/s) = 7.44303 7.69555 7.57034
#
# Compressibility (1/GPa) = 0.01479900
#
# Stress axis : x y z
#
# Youngs Moduli (GPa) = 50.72984 82.90523 58.61718
#
# Poissons Ratio (x) = 0.40050 0.41923
# Poissons Ratio (y) = 0.24507 0.29512
# Poissons Ratio (z) = 0.36282 0.41740
#
# Static dielectric constant tensor:
#      x y z
#    x 1.582970 0.000000 0.000000 
#    y 0.000000 1.585180 0.000000 
#    z 0.000000 0.000000 1.582690 
# 
# From -- ./inp_files/21310.got.cif
#   From: 2010.05.17/outbox.cif.g08.bks.cpg/sg46_11_cif.got.tgz:21310.got - 2010.06.03 19:58:25.
