data_PCOD9378932
_publ_section_title
;
Structure prediction by ZEFSAII (Michael W. Deem and Ramdas Pophale) SiO2 
 PCOD9378932
Probable space group: I M A 2
;
_chemical_formula_sum "Si O2"
_cell_formula_units_Z 64
_cell_length_a 8.529143
_cell_length_b 25.533890
_cell_length_c 15.546572
_cell_angle_alpha 90.000000
_cell_angle_beta 90.000000
_cell_angle_gamma 90.000000
_cell_volume 3385.766640
_symmetry_space_group_name_H-M "I M A 2"
_symmetry_group_IT_number 46
_symmetry_cell_setting 'orthorhombic'
loop_
_space_group_symop_operation_xyz
x,y,z
-x,-y,z
1/2-x,y,z
1/2+x,-y,z
1/2+x,1/2+y,1/2+z
1/2-x,1/2-y,1/2+z
-x,1/2+y,1/2+z
x,1/2-y,1/2+z
loop_
_atom_site_type_symbol
_atom_site_label
_atom_site_fract_x
_atom_site_fract_y
_atom_site_fract_z
Si Si1 0.439935 0.638340 0.313550
Si Si2 0.937690 0.058843 0.961199
Si Si3 0.937721 0.217388 0.107138
Si Si4 0.937210 0.735633 0.415729
Si Si5 0.438159 0.442529 0.817945
Si Si6 0.563033 0.606704 0.638526
Si Si7 0.559817 0.164738 0.630992
Si Si8 0.938676 0.150545 0.435711
O O1 0.250000 0.639400 0.315774
O O2 0.493075 0.593932 0.380421
O O3 0.501495 0.693931 0.347297
O O4 0.490677 0.632276 0.214353
O O5 0.750000 0.057875 0.959843
O O6 0.000000 0.000000 0.956556
O O7 0.990631 0.085390 0.050251
O O8 0.750000 0.212946 0.112022
O O9 0.985814 0.274261 0.142547
O O10 0.013667 0.167027 0.150574
O O11 0.989091 0.218557 0.007329
O O12 0.750000 0.734076 0.421377
O O13 0.994119 0.794799 0.399618
O O14 0.500000 0.500000 0.839349
O O15 0.250000 0.441943 0.820847
O O16 0.488138 0.426825 0.720983
O O17 0.503248 0.398602 0.881857
O O18 0.750000 0.603567 0.631273
O O19 0.750000 0.163901 0.629103
O O20 0.508841 0.147307 0.535989
O O21 0.750000 0.153485 0.433712
#
# Coordination Sequence:
#
# PCOD9378932 Si02
#       8
#     8   8   8   8   8   8   8   8
#     4  10  20  37  59  86 117 156 199 244 294 356
#     4  11  23  38  60  84 117 158 201 244 294 355
#     4  10  19  34  56  85 118 158 199 236 290 353
#     4  11  21  34  55  86 122 157 194 243 293 350
#     4  11  25  43  62  88 118 155 202 252 305 359
#     4  11  23  38  58  86 122 156 194 244 298 358
#     4   8  18  36  59  86 117 153 197 242 290 351
#     4  10  21  40  64  87 116 157 200 249 303 356
#
# _framework density 18.902660999999998
#
# number of rings (size 3 to 8) (size 9 to 14) (size 15 to 20)
#    0.000    1.750    1.250    4.125    1.750    3.500 
#    0.000    3.750    0.000    1.500    0.000    0.000 
#    0.000    0.000    0.000    0.000    0.000    0.000 
#
# Total GULP energy -178763.367955 kJ/mol
# GULP energy per Si atom -5586.355249 kJ/mol
# Density = 1.885964 g / cm^3
# Si number density = 18.902661 Si / 1000 Ang^3
#
#
#
# Elastic Constant Matrix: (Units=GPa)
#
#
# Indices 1 2 3 4 5 6 
#
# 1 30.6584 20.1499 17.5536 0.0000 0.0000 0.0000
# 2 20.1499 117.7345 60.8328 0.0001 0.0000 0.0000
# 3 17.5536 60.8328 101.1986 0.0001 0.0000 0.0000
# 4 0.0000 0.0001 0.0001 29.3742 0.0000 0.0000
# 5 0.0000 0.0000 0.0000 0.0000 13.9909 0.0000
# 6 0.0000 0.0000 0.0000 0.0000 0.0000 31.9420
#
#
#
# Elastic Compliance Matrix: (Units=1/GPa)
#
#
# Indices 1 2 3 4 5 6 
#
# 1 0.037766 -0.004466 -0.003866 0.000000 0.000000 0.000000
# 2 -0.004466 0.012848 -0.006949 0.000000 0.000000 0.000000
# 3 -0.003866 -0.006949 0.014729 0.000000 0.000000 0.000000
# 4 0.000000 0.000000 0.000000 0.034043 0.000000 0.000000
# 5 0.000000 0.000000 0.000000 0.000000 0.071475 0.000000
# 6 0.000000 0.000000 0.000000 0.000000 0.000000 0.031307
#
#
# Mechanical properties :
#
#
# Convention : Reuss Voigt Hill
#
# Bulk Modulus (GPa) = 28.75050 49.62933 39.18992
# Shear Modulus (GPa) = 20.46451 25.13176 22.79814
#
# Velocity S-wave (km/s) = 3.29390 3.65024 3.47664
# Velocity P-wave (km/s) = 5.45061 6.63911 6.07400
#
# Compressibility (1/GPa) = 0.03478200
#
# Stress axis : x y z
#
# Youngs Moduli (GPa) = 26.47865 77.83039 67.89193
#
# Poissons Ratio (x) = 0.34758 0.26249
# Poissons Ratio (y) = 0.11825 0.47177
# Poissons Ratio (z) = 0.10237 0.54083
#
# Static dielectric constant tensor:
#      x y z
#    x 1.638560 0.000000 0.000000 
#    y 0.000000 1.630980 0.000000 
#    z 0.000000 0.000000 1.682410 
# 
# From -- ./inp_files/14551.got.cif
#   From: 2010.05.17/outbox.cif.g08.bks.cpg/sg46_8_cif.got.tgz:14551.got - 2010.06.03 19:58:25.
