data_PCOD9378619
_publ_section_title
;
Structure prediction by ZEFSAII (Michael W. Deem and Ramdas Pophale) SiO2 
 PCOD9378619
Probable space group: I M A 2
;
_chemical_formula_sum "Si O2"
_cell_formula_units_Z 64
_cell_length_a 8.598683
_cell_length_b 19.154608
_cell_length_c 22.156061
_cell_angle_alpha 90.000000
_cell_angle_beta 90.000000
_cell_angle_gamma 90.000000
_cell_volume 3649.200782
_symmetry_space_group_name_H-M "I M A 2"
_symmetry_group_IT_number 46
_symmetry_cell_setting 'orthorhombic'
loop_
_space_group_symop_operation_xyz
x,y,z
-x,-y,z
1/2-x,y,z
1/2+x,-y,z
1/2+x,1/2+y,1/2+z
1/2-x,1/2-y,1/2+z
-x,1/2+y,1/2+z
x,1/2-y,1/2+z
loop_
_atom_site_type_symbol
_atom_site_label
_atom_site_fract_x
_atom_site_fract_y
_atom_site_fract_z
Si Si1 0.932683 0.425986 0.780800
Si Si2 0.562545 0.133939 0.819772
Si Si3 0.931803 0.932244 0.147818
Si Si4 0.435912 0.276919 0.771815
Si Si5 0.435477 0.675920 0.557660
Si Si6 0.936872 0.423603 0.448208
Si Si7 0.436512 0.575380 0.189548
Si Si8 0.563642 0.782317 0.639956
O O1 0.750000 0.425644 0.790853
O O2 0.000000 0.500000 0.804838
O O3 0.972229 0.427250 0.709385
O O4 0.003011 0.350592 0.797558
O O5 0.750000 0.139836 0.822026
O O6 0.493918 0.211108 0.810304
O O7 0.521787 0.090427 0.759820
O O8 0.508645 0.097172 0.881064
O O9 0.750000 0.938518 0.161827
O O10 0.966307 0.868284 0.105599
O O11 0.000000 0.000000 0.115057
O O12 0.250000 0.279703 0.770793
O O13 0.485436 0.259750 0.701912
O O14 0.250000 0.667406 0.566375
O O15 0.475207 0.640069 0.493830
O O16 0.483639 0.752908 0.579293
O O17 0.750000 0.428986 0.447651
O O18 0.000000 0.500000 0.465445
O O19 0.500000 0.500000 0.171914
O O20 0.250000 0.578204 0.184209
O O21 0.512285 0.638617 0.152638
O O22 0.750000 0.776924 0.635407
#
# Coordination Sequence:
#
# PCOD9378619 Si02
#       8
#     8   8   8   8   8   8   8   8
#     4  11  20  30  46  68  98 132 166 206 252 304
#     4   9  19  35  53  74 102 137 176 217 261 306
#     4  11  20  30  43  63  92 129 169 207 246 294
#     4  10  19  32  50  74 101 131 171 215 262 312
#     4  11  21  33  49  70  99 136 175 214 257 302
#     4  10  22  37  53  75 104 140 182 222 257 303
#     4  10  19  32  53  78 105 134 167 209 261 314
#     4  10  20  33  50  72 101 133 169 212 258 311
#
# _framework density 17.538087999999998
#
# number of rings (size 3 to 8) (size 9 to 14) (size 15 to 20)
#    0.000    1.750    1.250    5.250    0.000    4.000 
#    0.000    0.000    0.000    0.000    0.000    0.875 
#    0.000    0.000    0.000    0.000    0.000    0.000 
#
# Total GULP energy -178420.606261 kJ/mol
# GULP energy per Si atom -5575.643946 kJ/mol
# Density = 1.749817 g / cm^3
# Si number density = 17.538088 Si / 1000 Ang^3
#
#
#
# Elastic Constant Matrix: (Units=GPa)
#
#
# Indices 1 2 3 4 5 6 
#
# 1 43.3946 25.5474 12.2631 0.0000 0.0000 0.0000
# 2 25.5474 128.0109 31.4820 0.0000 0.0000 0.0000
# 3 12.2631 31.4820 59.2623 0.0000 0.0000 0.0000
# 4 0.0000 0.0000 0.0000 20.1900 0.0000 0.0000
# 5 0.0000 0.0000 0.0000 0.0000 8.0733 0.0000
# 6 0.0000 0.0000 0.0000 0.0000 0.0000 31.3258
#
#
#
# Elastic Compliance Matrix: (Units=1/GPa)
#
#
# Indices 1 2 3 4 5 6 
#
# 1 0.026594 -0.004548 -0.003087 0.000000 0.000000 0.000000
# 2 -0.004548 0.009764 -0.004246 0.000000 0.000000 0.000000
# 3 -0.003087 -0.004246 0.019768 0.000000 0.000000 0.000000
# 4 0.000000 0.000000 0.000000 0.049530 0.000000 0.000000
# 5 0.000000 0.000000 0.000000 0.000000 0.123865 0.000000
# 6 0.000000 0.000000 0.000000 0.000000 0.000000 0.031923
#
#
# Mechanical properties :
#
#
# Convention : Reuss Voigt Hill
#
# Bulk Modulus (GPa) = 30.89788 41.02807 35.96298
# Shear Modulus (GPa) = 16.89223 22.67616 19.78420
#
# Velocity S-wave (km/s) = 3.10687 3.59968 3.36232
# Velocity P-wave (km/s) = 5.52504 6.38134 5.96856
#
# Compressibility (1/GPa) = 0.03236468
#
# Stress axis : x y z
#
# Youngs Moduli (GPa) = 37.60186 102.42037 50.58597
#
# Poissons Ratio (x) = 0.46584 0.15616
# Poissons Ratio (y) = 0.17103 0.21477
# Poissons Ratio (z) = 0.11608 0.43484
#
# Static dielectric constant tensor:
#      x y z
#    x 1.588290 0.000000 0.000000 
#    y 0.000000 1.760030 0.000000 
#    z 0.000000 0.000000 1.600620 
# 
# From -- ./inp_files/23288.got.cif
#   From: 2010.05.17/outbox.cif.g08.bks.cpg/sg46_12_cif.got.tgz:23288.got - 2010.06.03 19:58:25.
