data_PCOD9378106
_publ_section_title
;
Structure prediction by ZEFSAII (Michael W. Deem and Ramdas Pophale) SiO2 
 PCOD9378106
Probable space group: I M A 2
;
_chemical_formula_sum "Si O2"
_cell_formula_units_Z 64
_cell_length_a 8.359346
_cell_length_b 14.921046
_cell_length_c 28.756142
_cell_angle_alpha 90.000000
_cell_angle_beta 90.000000
_cell_angle_gamma 90.000000
_cell_volume 3586.758946
_symmetry_space_group_name_H-M "I M A 2"
_symmetry_group_IT_number 46
_symmetry_cell_setting 'orthorhombic'
loop_
_space_group_symop_operation_xyz
x,y,z
-x,-y,z
1/2-x,y,z
1/2+x,-y,z
1/2+x,1/2+y,1/2+z
1/2-x,1/2-y,1/2+z
-x,1/2+y,1/2+z
x,1/2-y,1/2+z
loop_
_atom_site_type_symbol
_atom_site_label
_atom_site_fract_x
_atom_site_fract_y
_atom_site_fract_z
Si Si1 0.943142 0.899838 0.692770
Si Si2 0.441125 0.709224 0.385637
Si Si3 0.439983 0.279674 0.108046
Si Si4 0.934741 0.351176 0.015685
Si Si5 0.560775 0.091312 0.070252
Si Si6 0.064184 0.331305 0.480677
Si Si7 0.442849 0.906761 0.417614
Si Si8 0.941950 0.600539 0.299002
O O1 0.750000 0.899886 0.691878
O O2 0.998266 0.827609 0.654904
O O3 0.994214 0.880359 0.745808
O O4 0.000000 0.000000 0.680876
O O5 0.250000 0.704997 0.390837
O O6 0.521106 0.651662 0.427277
O O7 0.492032 0.813370 0.393347
O O8 0.490552 0.669713 0.336325
O O9 0.250000 0.265826 0.110467
O O10 0.475917 0.345931 0.064546
O O11 0.517744 0.183364 0.097016
O O12 0.750000 0.375234 0.023552
O O13 0.003067 0.403556 0.971311
O O14 0.948673 0.249876 0.996085
O O15 0.750000 0.087867 0.063327
O O16 0.500000 0.000000 0.093893
O O17 0.470347 0.097090 0.020475
O O18 0.250000 0.303968 0.483977
O O19 0.250000 0.906300 0.419355
O O20 0.500000 0.000000 0.396000
O O21 0.750000 0.602453 0.300586
O O22 0.000000 0.500000 0.310270
#
# Coordination Sequence:
#
# PCOD9378106 Si02
#       8
#     8   8   8   8   8   8   8   8
#     4   9  20  36  55  78 105 131 164 207 255 307
#     4  10  20  35  52  75 104 135 170 212 255 303
#     4  10  19  33  52  76 103 135 171 210 251 299
#     4   9  17  30  45  67  98 132 167 206 245 287
#     4  11  21  34  51  74 104 139 174 212 252 298
#     4  10  18  30  48  71  97 130 168 206 245 292
#     4   9  19  32  48  70 101 136 171 207 246 289
#     4  10  20  36  56  79 102 130 164 206 257 309
#
# _framework density 17.843406999999999
#
# number of rings (size 3 to 8) (size 9 to 14) (size 15 to 20)
#    0.000    2.250    0.000    6.000    0.000    5.500 
#    0.000    5.000    0.000    0.750    0.000    1.750 
#    0.000    0.000    0.000    0.000    0.000    0.000 
#
# Total GULP energy -178358.169362 kJ/mol
# GULP energy per Si atom -5573.692793 kJ/mol
# Density = 1.780279 g / cm^3
# Si number density = 17.843407 Si / 1000 Ang^3
#
#
#
# Elastic Constant Matrix: (Units=GPa)
#
#
# Indices 1 2 3 4 5 6 
#
# 1 54.8990 18.1143 22.1629 0.0000 0.0000 0.0000
# 2 18.1143 105.5176 69.4691 0.0000 0.0000 0.0000
# 3 22.1629 69.4691 106.7322 0.0000 0.0000 0.0000
# 4 0.0000 0.0000 0.0000 24.1419 0.0000 0.0000
# 5 0.0000 0.0000 0.0000 0.0000 -50.3033 0.0000
# 6 0.0000 0.0000 0.0000 0.0000 0.0000 21.4560
#
#
#
# Elastic Compliance Matrix: (Units=1/GPa)
#
#
# Indices 1 2 3 4 5 6 
#
# 1 0.019972 -0.001222 -0.003352 0.000000 0.000000 0.000000
# 2 -0.001222 0.016658 -0.010589 0.000000 0.000000 0.000000
# 3 -0.003352 -0.010589 0.016957 0.000000 0.000000 0.000000
# 4 0.000000 0.000000 0.000000 0.041422 0.000000 0.000000
# 5 0.000000 0.000000 0.000000 0.000000 -0.019879 0.000000
# 6 0.000000 0.000000 0.000000 0.000000 0.000000 0.046607
#
#
# Mechanical properties :
#
#
# Convention : Reuss Voigt Hill
#
# Bulk Modulus (GPa) = 42.98813 54.07128 48.52970
# Shear Modulus (GPa) = 31.28630 9.55241 20.41936
#
# Velocity S-wave (km/s) = 4.19188 2.31627 3.38652
# Velocity P-wave (km/s) = 6.89734 6.12556 6.52288
#
# Compressibility (1/GPa) = 0.02326224
#
# Stress axis : x y z
#
# Youngs Moduli (GPa) = 50.07116 60.03140 58.97257
#
# Poissons Ratio (x) = 0.07335 0.19767
# Poissons Ratio (y) = 0.06118 0.62443
# Poissons Ratio (z) = 0.16783 0.63564
#
# Static dielectric constant tensor:
#      x y z
#    x 1.671190 0.000000 0.000000 
#    y 0.000000 1.631130 0.000000 
#    z 0.000000 0.000000 1.629810 
# 
# From -- ./inp_files/25294.got.cif
#   From: 2010.05.17/outbox.cif.g08.bks.cpg/sg46_13_cif.got.tgz:25294.got - 2010.06.03 19:58:25.
