data_PCOD9378312
_publ_section_title
;
Structure prediction by ZEFSAII (Michael W. Deem and Ramdas Pophale) SiO2 
 PCOD9378312
Probable space group: I M A 2
;
_chemical_formula_sum "Si O2"
_cell_formula_units_Z 64
_cell_length_a 17.860532
_cell_length_b 6.257456
_cell_length_c 24.954482
_cell_angle_alpha 90.000000
_cell_angle_beta 90.000000
_cell_angle_gamma 90.000000
_cell_volume 2788.950169
_symmetry_space_group_name_H-M "I M A 2"
_symmetry_group_IT_number 46
_symmetry_cell_setting 'orthorhombic'
loop_
_space_group_symop_operation_xyz
x,y,z
-x,-y,z
1/2-x,y,z
1/2+x,-y,z
1/2+x,1/2+y,1/2+z
1/2-x,1/2-y,1/2+z
-x,1/2+y,1/2+z
x,1/2-y,1/2+z
loop_
_atom_site_type_symbol
_atom_site_label
_atom_site_fract_x
_atom_site_fract_y
_atom_site_fract_z
Si Si1 0.839397 0.176566 0.759460
Si Si2 0.841909 0.815231 0.280455
Si Si3 0.074073 0.411911 0.071738
Si Si4 0.927278 0.865602 0.172225
Si Si5 0.838635 0.743852 0.976697
Si Si6 0.839042 0.258341 0.139212
Si Si7 0.660644 0.047944 0.383520
Si Si8 0.342805 0.464803 0.368030
O O1 0.750000 0.173112 0.757918
O O2 0.864753 0.157770 0.698177
O O3 0.857767 0.416369 0.778910
O O4 0.869912 0.219008 0.871125
O O5 0.750000 0.805908 0.271780
O O6 0.887152 0.776851 0.224687
O O7 0.857346 0.529617 0.298243
O O8 0.858174 0.823931 0.349244
O O9 0.048534 0.298239 0.126564
O O10 0.127295 0.602268 0.091792
O O11 0.000000 0.500000 0.044043
O O12 0.117103 0.258180 0.031409
O O13 0.868392 0.018178 0.141782
O O14 0.000000 0.000000 0.188758
O O15 0.750000 0.766872 0.986146
O O16 0.851792 0.519593 0.944840
O O17 0.863026 0.906424 0.930393
O O18 0.750000 0.267031 0.137087
O O19 0.750000 0.060614 0.375503
O O20 0.250000 0.462737 0.368912
#
# Coordination Sequence:
#
# PCOD9378312 Si02
#       8
#     8   8   8   8   8   8   8   8
#     4   9  16  31  58  91 130 162 195 252 322 389
#     4   9  20  33  57  92 127 165 209 250 312 402
#     4  12  25  48  68  85 127 181 228 281 340 398
#     4  12  25  44  67  94 129 179 224 267 339 408
#     4  10  22  38  62  94 123 161 219 279 327 381
#     4  11  24  41  66 103 133 166 223 282 332 398
#     4  10  18  33  59  93 133 167 202 258 330 392
#     4   9  18  34  57  90 130 167 200 256 329 393
#
# _framework density 22.947702
#
# number of rings (size 3 to 8) (size 9 to 14) (size 15 to 20)
#    0.750    1.000    2.500    2.625    0.000    4.000 
#    0.000    2.500    0.000    1.500    0.000    0.000 
#    0.000    0.000    0.000    0.000    0.000    0.000 
#
# Total GULP energy -178195.703856 kJ/mol
# GULP energy per Si atom -5568.615746 kJ/mol
# Density = 2.289547 g / cm^3
# Si number density = 22.947702 Si / 1000 Ang^3
#
#
#
# Elastic Constant Matrix: (Units=GPa)
#
#
# Indices 1 2 3 4 5 6 
#
# 1 48.0457 15.5595 29.5642 0.0000 0.0000 0.0000
# 2 15.5595 114.6164 37.2452 0.0000 0.0000 0.0000
# 3 29.5642 37.2452 116.3606 0.0000 0.0000 0.0000
# 4 0.0000 0.0000 0.0000 31.7477 0.0000 0.0000
# 5 0.0000 0.0000 0.0000 0.0000 -7.0300 0.0000
# 6 0.0000 0.0000 0.0000 0.0000 0.0000 -117.8509
#
#
#
# Elastic Compliance Matrix: (Units=1/GPa)
#
#
# Indices 1 2 3 4 5 6 
#
# 1 0.024893 -0.001478 -0.005852 0.000000 0.000000 0.000000
# 2 -0.001478 0.009825 -0.002769 0.000000 0.000000 0.000000
# 3 -0.005852 -0.002769 0.010967 0.000000 0.000000 0.000000
# 4 0.000000 0.000000 0.000000 0.031498 0.000000 0.000000
# 5 0.000000 0.000000 0.000000 0.000000 -0.142248 0.000000
# 6 0.000000 0.000000 0.000000 0.000000 0.000000 -0.008485
#
#
# Mechanical properties :
#
#
# Convention : Reuss Voigt Hill
#
# Bulk Modulus (GPa) = 39.23476 49.30674 44.27075
# Shear Modulus (GPa) = -111.46673 -5.51636 -58.49154
#
# Velocity S-wave (km/s) = -6.97708 -1.55213 -5.05415
# Velocity P-wave (km/s) = 6.91171 4.28031 3.83736
#
# Compressibility (1/GPa) = 0.02548760
#
# Stress axis : x y z
#
# Youngs Moduli (GPa) = 40.17234 101.77791 91.18125
#
# Poissons Ratio (x) = 0.15040 0.53355
# Poissons Ratio (y) = 0.05937 0.25252
# Poissons Ratio (z) = 0.23507 0.28187
#
# Static dielectric constant tensor:
#      x y z
#    x 1.766950 0.000000 0.000000 
#    y 0.000000 2.047710 0.000000 
#    z 0.000000 0.000000 1.913360 
# 
# From -- ./inp_files/22253.got.cif
#   From: 2010.05.17/outbox.cif.g08.bks.cpg/sg46_12_cif.got.tgz:22253.got - 2010.06.03 19:58:25.
