data_PCOD9378358
_publ_section_title
;
Structure prediction by ZEFSAII (Michael W. Deem and Ramdas Pophale) SiO2 
 PCOD9378358
Probable space group: I M A 2
;
_chemical_formula_sum "Si O2"
_cell_formula_units_Z 60
_cell_length_a 13.404324
_cell_length_b 12.420968
_cell_length_c 18.814550
_cell_angle_alpha 90.000000
_cell_angle_beta 90.000000
_cell_angle_gamma 90.000000
_cell_volume 3132.522472
_symmetry_space_group_name_H-M "I M A 2"
_symmetry_group_IT_number 46
_symmetry_cell_setting 'orthorhombic'
loop_
_space_group_symop_operation_xyz
x,y,z
-x,-y,z
1/2-x,y,z
1/2+x,-y,z
1/2+x,1/2+y,1/2+z
1/2-x,1/2-y,1/2+z
-x,1/2+y,1/2+z
x,1/2-y,1/2+z
loop_
_atom_site_type_symbol
_atom_site_label
_atom_site_fract_x
_atom_site_fract_y
_atom_site_fract_z
Si Si1 0.143129 0.067915 0.824560
Si Si2 0.066124 0.833671 0.839894
Si Si3 0.500000 0.500000 0.722014
Si Si4 0.057446 0.855864 0.429008
Si Si5 0.046905 0.733027 0.682920
Si Si6 0.365693 0.435821 0.852449
Si Si7 0.364423 0.897409 0.579092
Si Si8 0.361553 0.377287 0.157513
O O1 0.250000 0.105238 0.852496
O O2 0.139960 0.089639 0.740285
O O3 0.046483 0.126054 0.854732
O O4 0.130465 0.940563 0.832951
O O5 0.099367 0.757088 0.903001
O O6 0.063429 0.768524 0.765269
O O7 0.456997 0.603594 0.680527
O O8 0.414494 0.450789 0.774379
O O9 0.065327 0.875420 0.512127
O O10 0.944767 0.865299 0.397716
O O11 0.120788 0.948505 0.389918
O O12 0.124365 0.800906 0.635737
O O13 0.942647 0.783634 0.654803
O O14 0.250000 0.402603 0.850858
O O15 0.250000 0.901899 0.553845
O O16 0.386023 0.012890 0.615433
O O17 0.250000 0.342900 0.136677
#
# Coordination Sequence:
#
# PCOD9378358 Si02
#       8
#     8   8   4   8   8   8   8   8
#     4   9  18  31  54  87 115 145 191 239 285 345
#     4  10  18  35  56  81 118 152 190 243 295 340
#     4  10  22  40  56  88 124 156 200 248 298 352
#     4  10  22  39  55  85 119 151 192 240 298 351
#     4  11  20  37  58  82 120 158 198 241 292 356
#     4  10  21  37  59  84 115 151 189 239 296 356
#     4  11  23  38  59  88 120 156 194 245 306 360
#     4   9  19  33  56  86 114 147 188 242 300 347
#
# _framework density 19.153893
#
# number of rings (size 3 to 8) (size 9 to 14) (size 15 to 20)
#    0.000    2.133    4.000    0.800    3.733    2.667 
#    0.000    1.333    0.000    0.000    0.000    0.000 
#    0.000    0.000    0.000    0.000    0.000    0.000 
#
# Total GULP energy -167314.764595 kJ/mol
# GULP energy per Si atom -5577.158820 kJ/mol
# Density = 1.911030 g / cm^3
# Si number density = 19.153893 Si / 1000 Ang^3
#
#
#
# Elastic Constant Matrix: (Units=GPa)
#
#
# Indices 1 2 3 4 5 6 
#
# 1 89.4352 -3.9823 7.5003 0.0000 0.0000 0.0000
# 2 -3.9823 80.5910 13.2279 0.0000 0.0000 0.0000
# 3 7.5003 13.2279 34.7826 0.0000 0.0000 0.0000
# 4 0.0000 0.0000 0.0000 17.0855 0.0000 0.0000
# 5 0.0000 0.0000 0.0000 0.0000 9.9917 0.0000
# 6 0.0000 0.0000 0.0000 0.0000 0.0000 2.9094
#
#
#
# Elastic Compliance Matrix: (Units=1/GPa)
#
#
# Indices 1 2 3 4 5 6 
#
# 1 0.011468 0.001037 -0.002867 0.000000 0.000000 0.000000
# 2 0.001037 0.013328 -0.005292 0.000000 0.000000 0.000000
# 3 -0.002867 -0.005292 0.031381 0.000000 0.000000 0.000000
# 4 0.000000 0.000000 0.000000 0.058529 0.000000 0.000000
# 5 0.000000 0.000000 0.000000 0.000000 0.100084 0.000000
# 6 0.000000 0.000000 0.000000 0.000000 0.000000 0.343715
#
#
# Mechanical properties :
#
#
# Convention : Reuss Voigt Hill
#
# Bulk Modulus (GPa) = 23.84799 26.47783 25.16291
# Shear Modulus (GPa) = 8.52185 18.53484 13.52834
#
# Velocity S-wave (km/s) = 2.11159 3.11413 2.66051
# Velocity P-wave (km/s) = 4.29218 5.17534 4.75431
#
# Compressibility (1/GPa) = 0.04193226
#
# Stress axis : x y z
#
# Youngs Moduli (GPa) = 87.19961 75.02847 31.86634
#
# Poissons Ratio (x) = -0.07783 0.09137
# Poissons Ratio (y) = -0.09045 0.16865
# Poissons Ratio (z) = 0.25003 0.39709
#
# Static dielectric constant tensor:
#      x y z
#    x 1.731100 0.000000 0.000000 
#    y 0.000000 1.678560 0.000000 
#    z 0.000000 0.000000 1.650820 
# 
# From -- ./inp_files/19605.got.cif
#   From: 2010.05.17/outbox.cif.g08.bks.cpg/sg46_10_cif.got.tgz:19605.got - 2010.06.03 19:58:25.
