data_PCOD9378634
_publ_section_title
;
Structure prediction by ZEFSAII (Michael W. Deem and Ramdas Pophale) SiO2 
 PCOD9378634
Probable space group: I M A 2
;
_chemical_formula_sum "Si O2"
_cell_formula_units_Z 64
_cell_length_a 8.614567
_cell_length_b 24.043476
_cell_length_c 19.647539
_cell_angle_alpha 90.000000
_cell_angle_beta 90.000000
_cell_angle_gamma 90.000000
_cell_volume 4069.479519
_symmetry_space_group_name_H-M "I M A 2"
_symmetry_group_IT_number 46
_symmetry_cell_setting 'orthorhombic'
loop_
_space_group_symop_operation_xyz
x,y,z
-x,-y,z
1/2-x,y,z
1/2+x,-y,z
1/2+x,1/2+y,1/2+z
1/2-x,1/2-y,1/2+z
-x,1/2+y,1/2+z
x,1/2-y,1/2+z
loop_
_atom_site_type_symbol
_atom_site_label
_atom_site_fract_x
_atom_site_fract_y
_atom_site_fract_z
Si Si1 0.062250 0.883167 0.773700
Si Si2 0.436579 0.230928 0.126813
Si Si3 0.938243 0.663903 0.498839
Si Si4 0.063636 0.438426 0.410763
Si Si5 0.936163 0.726016 0.915747
Si Si6 0.563415 0.164860 0.541826
Si Si7 0.435874 0.747063 0.271974
Si Si8 0.937030 0.061682 0.630490
O O1 0.250000 0.885328 0.777875
O O2 0.015999 0.818240 0.773223
O O3 0.014163 0.912728 0.703443
O O4 0.992009 0.914395 0.838340
O O5 0.250000 0.233144 0.128080
O O6 0.499085 0.287645 0.092524
O O7 0.501007 0.226744 0.202505
O O8 0.485649 0.181996 0.074639
O O9 0.750000 0.663098 0.498330
O O10 0.991360 0.605628 0.467994
O O11 0.985160 0.714537 0.448904
O O12 0.250000 0.439921 0.411088
O O13 0.000000 0.500000 0.421241
O O14 0.750000 0.724188 0.915531
O O15 0.999936 0.724218 0.839716
O O16 0.000137 0.679749 0.967352
O O17 0.750000 0.168130 0.542006
O O18 0.515789 0.105297 0.572042
O O19 0.250000 0.748693 0.271862
O O20 0.750000 0.059754 0.630996
O O21 0.000000 0.000000 0.621376
#
# Coordination Sequence:
#
# PCOD9378634 Si02
#       8
#     8   8   8   8   8   8   8   8
#     4  10  20  34  47  68  99 134 172 204 237 288
#     4  10  19  32  51  73  97 129 166 205 248 300
#     4   8  17  32  48  68  95 125 162 204 243 284
#     4  11  21  34  49  69  97 132 170 208 244 286
#     4  10  19  33  51  74  98 128 168 204 247 302
#     4  10  19  34  50  71 100 131 164 209 255 294
#     4  11  20  32  50  75 104 133 163 202 252 301
#     4  10  21  35  49  68  98 133 173 209 244 291
#
# _framework density 15.726826000000001
#
# number of rings (size 3 to 8) (size 9 to 14) (size 15 to 20)
#    0.000    2.000    2.500    3.000    0.000    3.000 
#    0.000    1.875    0.000    0.000    0.000    0.875 
#    0.000    4.000    0.000    0.000    0.000    0.000 
#
# Total GULP energy -178555.975864 kJ/mol
# GULP energy per Si atom -5579.874246 kJ/mol
# Density = 1.569103 g / cm^3
# Si number density = 15.726826 Si / 1000 Ang^3
#
#
#
# Elastic Constant Matrix: (Units=GPa)
#
#
# Indices 1 2 3 4 5 6 
#
# 1 39.8558 28.3209 38.9975 0.0000 0.0000 0.0000
# 2 28.3209 108.9790 82.0791 0.0000 0.0000 0.0000
# 3 38.9975 82.0791 162.1751 0.0000 0.0000 0.0000
# 4 0.0000 0.0000 0.0000 20.3012 0.0000 0.0000
# 5 0.0000 0.0000 0.0000 0.0000 26.5000 0.0000
# 6 0.0000 0.0000 0.0000 0.0000 0.0000 19.6964
#
#
#
# Elastic Compliance Matrix: (Units=1/GPa)
#
#
# Indices 1 2 3 4 5 6 
#
# 1 0.034030 -0.004331 -0.005991 0.000000 0.000000 0.000000
# 2 -0.004331 0.015380 -0.006742 0.000000 0.000000 0.000000
# 3 -0.005991 -0.006742 0.011019 0.000000 0.000000 0.000000
# 4 0.000000 0.000000 0.000000 0.049258 0.000000 0.000000
# 5 0.000000 0.000000 0.000000 0.000000 0.037736 0.000000
# 6 0.000000 0.000000 0.000000 0.000000 0.000000 0.050771
#
#
# Mechanical properties :
#
#
# Convention : Reuss Voigt Hill
#
# Bulk Modulus (GPa) = 38.02320 67.75609 52.88965
# Shear Modulus (GPa) = 20.73917 24.07370 22.40644
#
# Velocity S-wave (km/s) = 3.63535 3.91671 3.77865
# Velocity P-wave (km/s) = 6.46922 7.97689 7.26229
#
# Compressibility (1/GPa) = 0.02629973
#
# Stress axis : x y z
#
# Youngs Moduli (GPa) = 29.38575 65.02013 90.75083
#
# Poissons Ratio (x) = 0.28163 0.54367
# Poissons Ratio (y) = 0.12728 0.61188
# Poissons Ratio (z) = 0.17605 0.43839
#
# Static dielectric constant tensor:
#      x y z
#    x 1.532050 0.000000 0.000000 
#    y 0.000000 1.510270 0.000000 
#    z 0.000000 0.000000 1.520780 
# 
# From -- ./inp_files/18624.got.cif
#   From: 2010.05.17/outbox.cif.g08.bks.cpg/sg46_10_cif.got.tgz:18624.got - 2010.06.03 19:58:25.
