data_PCOD9378000
_publ_section_title
;
Structure prediction by ZEFSAII (Michael W. Deem and Ramdas Pophale) SiO2 
 PCOD9378000
Probable space group: I M A 2
;
_chemical_formula_sum "Si O2"
_cell_formula_units_Z 64
_cell_length_a 8.670467
_cell_length_b 19.118146
_cell_length_c 22.268137
_cell_angle_alpha 90.000000
_cell_angle_beta 90.000000
_cell_angle_gamma 90.000000
_cell_volume 3691.238850
_symmetry_space_group_name_H-M "I M A 2"
_symmetry_group_IT_number 46
_symmetry_cell_setting 'orthorhombic'
loop_
_space_group_symop_operation_xyz
x,y,z
-x,-y,z
1/2-x,y,z
1/2+x,-y,z
1/2+x,1/2+y,1/2+z
1/2-x,1/2-y,1/2+z
-x,1/2+y,1/2+z
x,1/2-y,1/2+z
loop_
_atom_site_type_symbol
_atom_site_label
_atom_site_fract_x
_atom_site_fract_y
_atom_site_fract_z
Si Si1 0.063299 0.220978 0.082560
Si Si2 0.074024 0.434085 0.086481
Si Si3 0.435104 0.077181 0.780702
Si Si4 0.065847 0.072317 0.030202
Si Si5 0.435801 0.073975 0.450364
Si Si6 0.065799 0.872454 0.906213
Si Si7 0.434220 0.779324 0.457265
Si Si8 0.428326 0.186486 0.683475
O O1 0.250000 0.230316 0.081539
O O2 0.028916 0.139967 0.070363
O O3 0.005181 0.246741 0.147953
O O4 0.999052 0.262679 0.024368
O O5 0.250000 0.452718 0.075900
O O6 0.006487 0.424559 0.020227
O O7 0.069477 0.367794 0.128098
O O8 0.000000 0.500000 0.118329
O O9 0.250000 0.074195 0.773554
O O10 0.481662 0.097347 0.848161
O O11 0.494941 0.140737 0.737997
O O12 0.500000 0.000000 0.766615
O O13 0.250000 0.068407 0.023257
O O14 0.989741 0.087137 0.965520
O O15 0.000000 0.000000 0.054549
O O16 0.250000 0.073426 0.447197
O O17 0.495822 0.149709 0.429214
O O18 0.500000 0.000000 0.425350
O O19 0.750000 0.120026 0.899411
O O20 0.030111 0.790451 0.918648
O O21 0.250000 0.786194 0.461311
O O22 0.250000 0.202601 0.699900
#
# Coordination Sequence:
#
# PCOD9378000 Si02
#       8
#     8   8   8   8   8   8   8   8
#     4   9  17  32  50  69  95 129 162 197 244 299
#     4   9  16  26  40  59  87 122 155 188 223 265
#     4  11  22  35  52  72  98 132 171 209 243 287
#     4  10  19  31  52  76 100 128 160 200 250 302
#     4  10  18  28  44  66  96 129 160 196 236 289
#     4  10  21  36  52  70  98 130 168 212 251 293
#     4  10  19  31  48  71  96 126 162 206 254 297
#     4   9  17  31  48  67  93 126 164 201 237 281
#
# _framework density 17.338352
#
# number of rings (size 3 to 8) (size 9 to 14) (size 15 to 20)
#    0.000    2.250    1.250    2.625    0.000    2.500 
#    0.000    1.875    0.000    0.000    0.000    0.875 
#    0.000    4.000    0.000    0.000    0.000    0.000 
#
# Total GULP energy -178191.487665 kJ/mol
# GULP energy per Si atom -5568.483990 kJ/mol
# Density = 1.729889 g / cm^3
# Si number density = 17.338352 Si / 1000 Ang^3
#
#
#
# Elastic Constant Matrix: (Units=GPa)
#
#
# Indices 1 2 3 4 5 6 
#
# 1 31.5668 34.3044 9.6383 0.0000 0.0000 0.0000
# 2 34.3044 128.5051 26.4788 0.0000 0.0000 0.0000
# 3 9.6383 26.4788 57.7682 0.0000 0.0000 0.0000
# 4 0.0000 0.0000 0.0000 15.0305 0.0000 0.0000
# 5 0.0000 0.0000 0.0000 0.0000 7.5143 0.0000
# 6 0.0000 0.0000 0.0000 0.0000 0.0000 28.1932
#
#
#
# Elastic Compliance Matrix: (Units=1/GPa)
#
#
# Indices 1 2 3 4 5 6 
#
# 1 0.044877 -0.011526 -0.002205 0.000000 0.000000 0.000000
# 2 -0.011526 0.011554 -0.003373 0.000000 0.000000 0.000000
# 3 -0.002205 -0.003373 0.019224 0.000000 0.000000 0.000000
# 4 0.000000 0.000000 0.000000 0.066531 0.000000 0.000000
# 5 0.000000 0.000000 0.000000 0.000000 0.133080 0.000000
# 6 0.000000 0.000000 0.000000 0.000000 0.000000 0.035469
#
#
# Mechanical properties :
#
#
# Convention : Reuss Voigt Hill
#
# Bulk Modulus (GPa) = 24.12597 39.85369 31.98983
# Shear Modulus (GPa) = 13.93697 19.97552 16.95624
#
# Velocity S-wave (km/s) = 2.83825 3.39794 3.13063
# Velocity P-wave (km/s) = 4.96849 6.19923 5.61767
#
# Compressibility (1/GPa) = 0.04144911
#
# Stress axis : x y z
#
# Youngs Moduli (GPa) = 22.28301 86.55358 52.01747
#
# Poissons Ratio (x) = 0.99759 0.11468
# Poissons Ratio (y) = 0.25683 0.17544
# Poissons Ratio (z) = 0.04912 0.29192
#
# Static dielectric constant tensor:
#      x y z
#    x 1.597670 0.000000 0.000000 
#    y 0.000000 1.674990 0.000000 
#    z 0.000000 0.000000 1.583410 
# 
# From -- ./inp_files/23278.got.cif
#   From: 2010.05.17/outbox.cif.g08.bks.cpg/sg46_12_cif.got.tgz:23278.got - 2010.06.03 19:58:25.
