data_PCOD9378734
_publ_section_title
;
Structure prediction by ZEFSAII (Michael W. Deem and Ramdas Pophale) SiO2 
 PCOD9378734
Probable space group: I M A 2
;
_chemical_formula_sum "Si O2"
_cell_formula_units_Z 64
_cell_length_a 8.631672
_cell_length_b 23.904138
_cell_length_c 19.590970
_cell_angle_alpha 90.000000
_cell_angle_beta 90.000000
_cell_angle_gamma 90.000000
_cell_volume 4042.257318
_symmetry_space_group_name_H-M "I M A 2"
_symmetry_group_IT_number 46
_symmetry_cell_setting 'orthorhombic'
loop_
_space_group_symop_operation_xyz
x,y,z
-x,-y,z
1/2-x,y,z
1/2+x,-y,z
1/2+x,1/2+y,1/2+z
1/2-x,1/2-y,1/2+z
-x,1/2+y,1/2+z
x,1/2-y,1/2+z
loop_
_atom_site_type_symbol
_atom_site_label
_atom_site_fract_x
_atom_site_fract_y
_atom_site_fract_z
Si Si1 0.434105 0.248812 0.024200
Si Si2 0.064054 0.937431 0.879458
Si Si3 0.064125 0.776935 0.667507
Si Si4 0.937802 0.165098 0.248981
Si Si5 0.936970 0.061855 0.162015
Si Si6 0.063572 0.767932 0.378348
Si Si7 0.565183 0.837791 0.794991
Si Si8 0.436832 0.877045 0.021727
O O1 0.250000 0.251322 0.027316
O O2 0.505933 0.278531 0.090384
O O3 0.494533 0.273958 0.953158
O O4 0.488356 0.184033 0.024451
O O5 0.250000 0.937927 0.874788
O O6 0.021765 0.909518 0.952478
O O7 0.994914 0.897177 0.821569
O O8 0.000000 0.000000 0.875678
O O9 0.250000 0.780808 0.670145
O O10 0.018774 0.715980 0.698435
O O11 0.991901 0.821761 0.719286
O O12 0.750000 0.163636 0.248837
O O13 0.992116 0.106410 0.218766
O O14 0.985066 0.184032 0.324609
O O15 0.750000 0.060045 0.163861
O O16 0.981053 0.087011 0.088103
O O17 0.000000 0.000000 0.171493
O O18 0.250000 0.766128 0.381912
O O19 0.006699 0.709703 0.344821
O O20 0.750000 0.834996 0.798816
O O21 0.250000 0.869483 0.022930
#
# Coordination Sequence:
#
# PCOD9378734 Si02
#       8
#     8   8   8   8   8   8   8   8
#     4  12  22  31  49  78 106 133 167 214 263 305
#     4  11  22  35  52  73 101 143 184 217 257 303
#     4  10  19  35  55  72  98 136 171 207 255 314
#     4   8  16  31  51  70  93 128 170 207 243 294
#     4  10  19  33  49  71  98 134 174 212 249 291
#     4  10  19  33  52  72  97 136 174 207 255 312
#     4  11  21  34  51  77 105 130 168 218 261 306
#     4  10  20  34  50  67 100 143 180 209 246 303
#
# _framework density 15.832737
#
# number of rings (size 3 to 8) (size 9 to 14) (size 15 to 20)
#    0.000    1.750    2.500    4.500    0.000    1.000 
#    0.000    1.250    0.000    0.000    0.000    0.875 
#    0.000    2.000    0.000    0.000    0.000    0.000 
#
# Total GULP energy -178649.183674 kJ/mol
# GULP energy per Si atom -5582.786990 kJ/mol
# Density = 1.579670 g / cm^3
# Si number density = 15.832737 Si / 1000 Ang^3
#
#
#
# Elastic Constant Matrix: (Units=GPa)
#
#
# Indices 1 2 3 4 5 6 
#
# 1 54.1648 31.3430 34.3222 0.0000 0.0000 0.0000
# 2 31.3430 93.8533 65.4198 0.0000 0.0000 0.0000
# 3 34.3222 65.4198 136.7588 0.0000 0.0000 0.0000
# 4 0.0000 0.0000 0.0000 20.7295 0.0000 0.0000
# 5 0.0000 0.0000 0.0000 0.0000 17.8998 0.0000
# 6 0.0000 0.0000 0.0000 0.0000 0.0000 25.0108
#
#
#
# Elastic Compliance Matrix: (Units=1/GPa)
#
#
# Indices 1 2 3 4 5 6 
#
# 1 0.023815 -0.005682 -0.003259 0.000000 0.000000 0.000000
# 2 -0.005682 0.017340 -0.006869 0.000000 0.000000 0.000000
# 3 -0.003259 -0.006869 0.011416 0.000000 0.000000 0.000000
# 4 0.000000 0.000000 0.000000 0.048241 0.000000 0.000000
# 5 0.000000 0.000000 0.000000 0.000000 0.055867 0.000000
# 6 0.000000 0.000000 0.000000 0.000000 0.000000 0.039983
#
#
# Mechanical properties :
#
#
# Convention : Reuss Voigt Hill
#
# Bulk Modulus (GPa) = 47.72787 60.77186 54.24986
# Shear Modulus (GPa) = 21.25271 22.97414 22.11343
#
# Velocity S-wave (km/s) = 3.66775 3.81340 3.74129
# Velocity P-wave (km/s) = 6.93881 7.60634 7.28023
#
# Compressibility (1/GPa) = 0.02095212
#
# Stress axis : x y z
#
# Youngs Moduli (GPa) = 41.99042 57.66913 87.59714
#
# Poissons Ratio (x) = 0.32765 0.28548
# Poissons Ratio (y) = 0.23857 0.60171
# Poissons Ratio (z) = 0.13685 0.39613
#
# Static dielectric constant tensor:
#      x y z
#    x 1.533030 0.000000 0.000000 
#    y 0.000000 1.504280 0.000000 
#    z 0.000000 0.000000 1.535220 
# 
# From -- ./inp_files/18657.got.cif
#   From: 2010.05.17/outbox.cif.g08.bks.cpg/sg46_10_cif.got.tgz:18657.got - 2010.06.03 19:58:25.
