data_PCOD9378440
_publ_section_title
;
Structure prediction by ZEFSAII (Michael W. Deem and Ramdas Pophale) SiO2 
 PCOD9378440
Probable space group: I M A 2
;
_chemical_formula_sum "Si O2"
_cell_formula_units_Z 56
_cell_length_a 9.027523
_cell_length_b 18.832096
_cell_length_c 21.230503
_cell_angle_alpha 90.000000
_cell_angle_beta 90.000000
_cell_angle_gamma 90.000000
_cell_volume 3609.337940
_symmetry_space_group_name_H-M "I M A 2"
_symmetry_group_IT_number 46
_symmetry_cell_setting 'orthorhombic'
loop_
_space_group_symop_operation_xyz
x,y,z
-x,-y,z
1/2-x,y,z
1/2+x,-y,z
1/2+x,1/2+y,1/2+z
1/2-x,1/2-y,1/2+z
-x,1/2+y,1/2+z
x,1/2-y,1/2+z
loop_
_atom_site_type_symbol
_atom_site_label
_atom_site_fract_x
_atom_site_fract_y
_atom_site_fract_z
Si Si1 0.570880 0.923989 0.435650
Si Si2 0.925979 0.423685 0.446311
Si Si3 0.574095 0.153122 0.813234
Si Si4 0.430053 0.153064 0.564610
Si Si5 0.928299 0.577700 0.194668
Si Si6 0.420646 0.205092 0.006920
Si Si7 0.579632 0.717048 0.870491
O O1 0.750000 0.928758 0.436051
O O2 0.523468 0.894351 0.504557
O O3 0.531090 0.863397 0.384615
O O4 0.500000 0.000000 0.423779
O O5 0.750000 0.429596 0.451573
O O6 0.959892 0.392640 0.376382
O O7 0.000000 0.500000 0.454001
O O8 0.986935 0.365732 0.495610
O O9 0.750000 0.150147 0.802812
O O10 0.487270 0.120440 0.754764
O O11 0.521290 0.233210 0.827700
O O12 0.250000 0.155645 0.562127
O O13 0.472384 0.117892 0.630272
O O14 0.479284 0.234573 0.554449
O O15 0.750000 0.572287 0.196648
O O16 0.000000 0.500000 0.195140
O O17 0.250000 0.187256 0.022208
O O18 0.419148 0.246131 0.939636
O O19 0.750000 0.717554 0.847770
#
# Coordination Sequence:
#
# PCOD9378440 Si02
#       7
#     8   8   8   8   8   8   8
#     4   9  16  27  44  67  93 118 146 180 220 263
#     4  10  19  29  43  65  90 115 144 180 222 264
#     4  10  20  32  45  63  88 118 153 188 221 259
#     4   8  16  30  46  64  88 120 152 180 213 257
#     4  11  21  32  46  65  91 122 155 184 213 252
#     4   8  14  28  47  63  83 112 145 180 219 262
#     4   8  15  28  45  63  85 115 147 180 221 267
#
# _framework density 15.515311000000001
#
# number of rings (size 3 to 8) (size 9 to 14) (size 15 to 20)
#    0.000    2.857    0.000    3.857    0.000    3.429 
#    0.000    4.286    0.000    0.000    0.000    1.000 
#    0.000    4.571    0.000    0.000    0.000    0.000 
#
# Total GULP energy -155985.382742 kJ/mol
# GULP energy per Si atom -5570.906526 kJ/mol
# Density = 1.548000 g / cm^3
# Si number density = 15.515311 Si / 1000 Ang^3
#
#
#
# Elastic Constant Matrix: (Units=GPa)
#
#
# Indices 1 2 3 4 5 6 
#
# 1 41.1778 54.2199 33.2926 0.0000 0.0000 0.0000
# 2 54.2199 161.9590 58.2002 0.0000 0.0000 0.0000
# 3 33.2926 58.2002 64.9666 0.0000 0.0000 0.0000
# 4 0.0000 0.0000 0.0000 22.6612 0.0000 0.0000
# 5 0.0000 0.0000 0.0000 0.0000 13.5916 0.0000
# 6 0.0000 0.0000 0.0000 0.0000 0.0000 29.2812
#
#
#
# Elastic Compliance Matrix: (Units=1/GPa)
#
#
# Indices 1 2 3 4 5 6 
#
# 1 0.053482 -0.011880 -0.016764 0.000000 0.000000 0.000000
# 2 -0.011880 0.011745 -0.004433 0.000000 0.000000 0.000000
# 3 -0.016764 -0.004433 0.027955 0.000000 0.000000 0.000000
# 4 0.000000 0.000000 0.000000 0.044128 0.000000 0.000000
# 5 0.000000 0.000000 0.000000 0.000000 0.073575 0.000000
# 6 0.000000 0.000000 0.000000 0.000000 0.000000 0.034152
#
#
# Mechanical properties :
#
#
# Convention : Reuss Voigt Hill
#
# Bulk Modulus (GPa) = 37.00140 62.16985 49.58563
# Shear Modulus (GPa) = 15.61516 21.26619 18.44068
#
# Velocity S-wave (km/s) = 3.17588 3.70626 3.45127
# Velocity P-wave (km/s) = 6.11133 7.64671 6.92172
#
# Compressibility (1/GPa) = 0.02702600
#
# Stress axis : x y z
#
# Youngs Moduli (GPa) = 18.69784 85.14445 35.77138
#
# Poissons Ratio (x) = 1.01153 0.59969
# Poissons Ratio (y) = 0.22213 0.15859
# Poissons Ratio (z) = 0.31346 0.37748
#
# Static dielectric constant tensor:
#      x y z
#    x 1.517640 0.000000 0.000000 
#    y 0.000000 1.520080 0.000000 
#    z 0.000000 0.000000 1.503850 
# 
# From -- ./inp_files/21213.got.cif
#   From: 2010.05.17/outbox.cif.g08.bks.cpg/sg46_11_cif.got.tgz:21213.got - 2010.06.03 19:58:25.
