data_PCOD9378429
_publ_section_title
;
Structure prediction by ZEFSAII (Michael W. Deem and Ramdas Pophale) SiO2 
 PCOD9378429
Probable space group: I M A 2
;
_chemical_formula_sum "Si O2"
_cell_formula_units_Z 40
_cell_length_a 11.219653
_cell_length_b 7.258028
_cell_length_c 22.649584
_cell_angle_alpha 90.000000
_cell_angle_beta 90.000000
_cell_angle_gamma 90.000000
_cell_volume 1844.413509
_symmetry_space_group_name_H-M "I M A 2"
_symmetry_group_IT_number 46
_symmetry_cell_setting 'orthorhombic'
loop_
_space_group_symop_operation_xyz
x,y,z
-x,-y,z
1/2-x,y,z
1/2+x,-y,z
1/2+x,1/2+y,1/2+z
1/2-x,1/2-y,1/2+z
-x,1/2+y,1/2+z
x,1/2-y,1/2+z
loop_
_atom_site_type_symbol
_atom_site_label
_atom_site_fract_x
_atom_site_fract_y
_atom_site_fract_z
Si Si1 0.120615 0.274403 0.822560
Si Si2 0.116129 0.130226 0.189295
Si Si3 0.379475 0.288753 0.062047
Si Si4 0.121247 0.806065 0.371392
Si Si5 0.121044 0.702350 0.011985
O O1 0.250000 0.200804 0.841894
O O2 0.111776 0.266732 0.751909
O O3 0.122754 0.491340 0.841501
O O4 0.997687 0.205968 0.850149
O O5 0.250000 0.039438 0.187707
O O6 0.111257 0.259680 0.132068
O O7 0.000000 0.000000 0.187040
O O8 0.250000 0.213751 0.042688
O O9 0.377153 0.502705 0.043399
O O10 0.498632 0.207134 0.033203
O O11 0.250000 0.721239 0.356836
O O12 0.114259 0.828269 0.441847
O O13 0.250000 0.790284 0.025418
#
# Coordination Sequence:
#
# PCOD9378429 Si02
#       5
#     8   8   8   8   8
#     4   9  15  23  36  56  82 109 134 163 205 251
#     4  10  19  29  41  59  88 121 149 173 205 255
#     4   9  17  28  42  60  85 116 146 176 207 249
#     4   9  15  24  41  62  85 107 130 169 217 260
#     4   9  17  29  45  66  89 111 140 176 216 257
#
# _framework density 21.687110000000001
#
# number of rings (size 3 to 8) (size 9 to 14) (size 15 to 20)
#    0.000    2.800    2.000    2.400    0.000    3.200 
#    0.000    0.000    0.000    0.000    0.000    0.000 
#   24.000    0.000   21.600    0.000    8.800    0.000 
#
# Total GULP energy -111382.174648 kJ/mol
# GULP energy per Si atom -5569.108732 kJ/mol
# Density = 2.163775 g / cm^3
# Si number density = 21.687110 Si / 1000 Ang^3
#
#
#
# Elastic Constant Matrix: (Units=GPa)
#
#
# Indices 1 2 3 4 5 6 
#
# 1 288.5832 21.2712 67.9705 0.0000 0.0000 0.0000
# 2 21.2712 68.1535 10.3019 0.0000 0.0000 0.0000
# 3 67.9705 10.3019 95.2438 0.0000 0.0000 0.0000
# 4 0.0000 0.0000 0.0000 16.7045 0.0000 0.0000
# 5 0.0000 0.0000 0.0000 0.0000 40.5233 0.0000
# 6 0.0000 0.0000 0.0000 0.0000 0.0000 -16.3363
#
#
#
# Elastic Compliance Matrix: (Units=1/GPa)
#
#
# Indices 1 2 3 4 5 6 
#
# 1 0.004216 -0.000875 -0.002914 0.000000 0.000000 0.000000
# 2 -0.000875 0.015098 -0.001008 0.000000 0.000000 0.000000
# 3 -0.002914 -0.001008 0.012688 0.000000 0.000000 0.000000
# 4 0.000000 0.000000 0.000000 0.059864 0.000000 0.000000
# 5 0.000000 0.000000 0.000000 0.000000 0.024677 0.000000
# 6 0.000000 0.000000 0.000000 0.000000 0.000000 -0.061213
#
#
# Mechanical properties :
#
#
# Convention : Reuss Voigt Hill
#
# Bulk Modulus (GPa) = 44.62925 72.34086 58.48505
# Shear Modulus (GPa) = 69.06540 31.67409 50.36975
#
# Velocity S-wave (km/s) = 5.64937 3.82580 4.82453
# Velocity P-wave (km/s) = 7.94841 7.27631 7.61978
#
# Compressibility (1/GPa) = 0.02240683
#
# Stress axis : x y z
#
# Youngs Moduli (GPa) = 237.18611 66.23216 78.81406
#
# Poissons Ratio (x) = 0.05798 0.22967
# Poissons Ratio (y) = 0.20763 0.07947
# Poissons Ratio (z) = 0.69119 0.06679
#
# Static dielectric constant tensor:
#      x y z
#    x 1.914320 0.000000 0.000000 
#    y 0.000000 1.727240 0.000000 
#    z 0.000000 0.000000 1.733760 
# 
# From -- ./inp_files/18788.got.cif
#   From: 2010.05.17/outbox.cif.g08.bks.cpg/sg46_10_cif.got.tgz:18788.got - 2010.06.03 19:58:25.
