data_PCOD9378134
_publ_section_title
;
Structure prediction by ZEFSAII (Michael W. Deem and Ramdas Pophale) SiO2 
 PCOD9378134
Probable space group: I M A 2
;
_chemical_formula_sum "Si O2"
_cell_formula_units_Z 48
_cell_length_a 8.327558
_cell_length_b 14.258426
_cell_length_c 19.066173
_cell_angle_alpha 90.000000
_cell_angle_beta 90.000000
_cell_angle_gamma 90.000000
_cell_volume 2263.876762
_symmetry_space_group_name_H-M "I M A 2"
_symmetry_group_IT_number 46
_symmetry_cell_setting 'orthorhombic'
loop_
_space_group_symop_operation_xyz
x,y,z
-x,-y,z
1/2-x,y,z
1/2+x,-y,z
1/2+x,1/2+y,1/2+z
1/2-x,1/2-y,1/2+z
-x,1/2+y,1/2+z
x,1/2-y,1/2+z
loop_
_atom_site_type_symbol
_atom_site_label
_atom_site_fract_x
_atom_site_fract_y
_atom_site_fract_z
Si Si1 0.067473 0.600490 0.914010
Si Si2 0.565934 0.399878 0.083238
Si Si3 0.056723 0.804858 0.926275
Si Si4 0.942508 0.602374 0.290406
Si Si5 0.943290 0.606621 0.571648
Si Si6 0.935381 0.749392 0.679292
O O1 0.250000 0.603548 0.888542
O O2 0.991336 0.702704 0.900608
O O3 0.000000 0.500000 0.890438
O O4 0.066784 0.599415 0.999028
O O5 0.500000 0.500000 0.106153
O O6 0.750000 0.383898 0.106124
O O7 0.450504 0.322113 0.114763
O O8 0.250000 0.799051 0.928072
O O9 0.000729 0.879638 0.869202
O O10 0.001173 0.835855 0.003353
O O11 0.750000 0.603358 0.286914
O O12 0.006281 0.689106 0.242832
O O13 0.000000 0.500000 0.266858
O O14 0.750000 0.609733 0.572422
O O15 0.004523 0.655505 0.643940
O O16 0.000000 0.500000 0.566046
O O17 0.750000 0.730566 0.697277
#
# Coordination Sequence:
#
# PCOD9378134 Si02
#       6
#     8   8   8   8   8   8
#     4   9  19  33  53  83 117 151 191 238 289 346
#     4  10  18  30  51  81 115 149 186 233 287 343
#     4  11  22  40  62  90 124 161 204 250 299 357
#     4  11  24  42  62  89 122 161 202 247 301 362
#     4  11  23  40  63  90 119 157 201 251 304 360
#     4  10  22  39  59  85 117 153 198 245 298 356
#
# _framework density 21.202566999999998
#
# number of rings (size 3 to 8) (size 9 to 14) (size 15 to 20)
#    0.000    1.667    1.667    3.000    0.000    5.333 
#    0.000    0.833    0.000    4.000    0.000    0.000 
#    0.000    0.000    0.000    0.000    0.000    0.000 
#
# Total GULP energy -133863.131851 kJ/mol
# GULP energy per Si atom -5577.630494 kJ/mol
# Density = 2.115431 g / cm^3
# Si number density = 21.202567 Si / 1000 Ang^3
#
#
#
# Elastic Constant Matrix: (Units=GPa)
#
#
# Indices 1 2 3 4 5 6 
#
# 1 43.7330 11.0282 8.7930 0.0000 0.0000 0.0000
# 2 11.0282 131.9287 24.6532 0.0000 0.0000 0.0000
# 3 8.7930 24.6532 72.8543 0.0000 0.0000 0.0000
# 4 0.0000 0.0000 0.0000 13.0790 0.0000 0.0000
# 5 0.0000 0.0000 0.0000 0.0000 6.2941 0.0000
# 6 0.0000 0.0000 0.0000 0.0000 0.0000 24.2488
#
#
#
# Elastic Compliance Matrix: (Units=1/GPa)
#
#
# Indices 1 2 3 4 5 6 
#
# 1 0.023726 -0.001546 -0.002340 0.000000 0.000000 0.000000
# 2 -0.001546 0.008192 -0.002586 0.000000 0.000000 0.000000
# 3 -0.002340 -0.002586 0.014883 0.000000 0.000000 0.000000
# 4 0.000000 0.000000 0.000000 0.076458 0.000000 0.000000
# 5 0.000000 0.000000 0.000000 0.000000 0.158878 0.000000
# 6 0.000000 0.000000 0.000000 0.000000 0.000000 0.041239
#
#
# Mechanical properties :
#
#
# Convention : Reuss Voigt Hill
#
# Bulk Modulus (GPa) = 29.53506 37.49608 33.51557
# Shear Modulus (GPa) = 14.38404 22.32717 18.35560
#
# Velocity S-wave (km/s) = 2.60746 3.24858 2.94551
# Velocity P-wave (km/s) = 4.79847 5.63863 5.23543
#
# Compressibility (1/GPa) = 0.03385807
#
# Stress axis : x y z
#
# Youngs Moduli (GPa) = 42.14707 122.06659 67.18873
#
# Poissons Ratio (x) = 0.18871 0.15725
# Poissons Ratio (y) = 0.06516 0.17372
# Poissons Ratio (z) = 0.09864 0.31561
#
# Static dielectric constant tensor:
#      x y z
#    x 1.757970 0.000000 0.000000 
#    y 0.000000 1.808380 0.000000 
#    z 0.000000 0.000000 1.761640 
# 
# From -- ./inp_files/18187.got.cif
#   From: 2010.05.17/outbox.cif.g08.bks.cpg/sg46_10_cif.got.tgz:18187.got - 2010.06.03 19:58:25.
