data_PCOD9378361
_publ_section_title
;
Structure prediction by ZEFSAII (Michael W. Deem and Ramdas Pophale) SiO2 
 PCOD9378361
Probable space group: I M A 2
;
_chemical_formula_sum "Si O2"
_cell_formula_units_Z 64
_cell_length_a 20.117152
_cell_length_b 22.762325
_cell_length_c 8.397911
_cell_angle_alpha 90.000000
_cell_angle_beta 90.000000
_cell_angle_gamma 90.000000
_cell_volume 3845.513895
_symmetry_space_group_name_H-M "I M A 2"
_symmetry_group_IT_number 46
_symmetry_cell_setting 'orthorhombic'
loop_
_space_group_symop_operation_xyz
x,y,z
-x,-y,z
1/2-x,y,z
1/2+x,-y,z
1/2+x,1/2+y,1/2+z
1/2-x,1/2-y,1/2+z
-x,1/2+y,1/2+z
x,1/2-y,1/2+z
loop_
_atom_site_type_symbol
_atom_site_label
_atom_site_fract_x
_atom_site_fract_y
_atom_site_fract_z
Si Si1 0.593052 0.272678 0.725450
Si Si2 0.325851 0.944578 0.813653
Si Si3 0.070351 0.033325 0.961539
Si Si4 0.171839 0.815763 0.940463
Si Si5 0.534894 0.935629 0.629785
Si Si6 0.937337 0.164342 0.507578
Si Si7 0.327585 0.926262 0.446118
Si Si8 0.577043 0.522186 0.812262
O O1 0.645669 0.239081 0.838485
O O2 0.631020 0.314475 0.603206
O O3 0.562252 0.219201 0.626028
O O4 0.543209 0.309257 0.835849
O O5 0.250000 0.955008 0.864102
O O6 0.341027 0.876365 0.848458
O O7 0.330045 0.953892 0.624096
O O8 0.375572 0.985700 0.907193
O O9 0.063772 0.075476 0.806660
O O10 0.086926 0.053442 0.141540
O O11 0.000000 0.000000 0.976684
O O12 0.250000 0.810532 0.969473
O O13 0.480878 0.887547 0.579961
O O14 0.582871 0.940738 0.475983
O O15 0.500000 0.000000 0.643360
O O16 0.864909 0.135831 0.470720
O O17 0.250000 0.920814 0.399624
O O18 0.372408 0.967257 0.332251
O O19 0.500000 0.500000 0.814284
#
# Coordination Sequence:
#
# PCOD9378361 Si02
#       8
#     8   8   8   8   8   8   8   8
#     4  10  23  33  48  65  98 142 185 239 270 315
#     4  10  20  33  49  71 103 140 180 228 273 321
#     4  10  20  31  52  77  97 131 175 223 280 338
#     4  10  20  32  45  63  92 138 191 233 265 305
#     4  10  18  35  58  73  99 131 178 230 276 332
#     4  11  21  39  50  74 103 144 193 229 283 317
#     4  11  20  32  52  74 107 148 187 232 277 320
#     4  10  19  33  51  79  98 132 183 222 281 334
#
# _framework density 16.642769999999999
#
# number of rings (size 3 to 8) (size 9 to 14) (size 15 to 20)
#    0.000    1.750    5.000    1.125    1.750    3.000 
#    2.250    0.000    0.000    0.000    0.000    0.000 
#    0.000    0.000    0.000    4.500    0.500    0.250 
#
# Total GULP energy -178248.315377 kJ/mol
# GULP energy per Si atom -5570.259856 kJ/mol
# Density = 1.660489 g / cm^3
# Si number density = 16.642770 Si / 1000 Ang^3
#
#
#
# Elastic Constant Matrix: (Units=GPa)
#
#
# Indices 1 2 3 4 5 6 
#
# 1 57.2467 31.8668 19.2172 0.0000 0.0000 0.0000
# 2 31.8668 47.3412 26.4359 0.0000 0.0000 0.0000
# 3 19.2172 26.4359 127.9740 0.0000 0.0000 0.0000
# 4 0.0000 0.0000 0.0000 16.8992 0.0000 0.0000
# 5 0.0000 0.0000 0.0000 0.0000 -115.2835 0.0000
# 6 0.0000 0.0000 0.0000 0.0000 0.0000 17.3721
#
#
#
# Elastic Compliance Matrix: (Units=1/GPa)
#
#
# Indices 1 2 3 4 5 6 
#
# 1 0.027950 -0.018618 -0.000351 0.000000 0.000000 0.000000
# 2 -0.018618 0.036279 -0.004699 0.000000 0.000000 0.000000
# 3 -0.000351 -0.004699 0.008837 0.000000 0.000000 0.000000
# 4 0.000000 0.000000 0.000000 0.059175 0.000000 0.000000
# 5 0.000000 0.000000 0.000000 0.000000 -0.008674 0.000000
# 6 0.000000 0.000000 0.000000 0.000000 0.000000 0.057564
#
#
# Mechanical properties :
#
#
# Convention : Reuss Voigt Hill
#
# Bulk Modulus (GPa) = 38.86297 43.06687 40.96492
# Shear Modulus (GPa) = 21.09324 -5.86632 7.61346
#
# Velocity S-wave (km/s) = 3.56393 -1.87949 2.14116
# Velocity P-wave (km/s) = 6.35118 4.60689 5.54801
#
# Compressibility (1/GPa) = 0.02573144
#
# Stress axis : x y z
#
# Youngs Moduli (GPa) = 35.77830 27.56396 113.15529
#
# Poissons Ratio (x) = 0.51318 0.03974
# Poissons Ratio (y) = 0.66612 0.53167
# Poissons Ratio (z) = 0.01256 0.12951
#
# Static dielectric constant tensor:
#      x y z
#    x 1.574670 0.000000 0.000000 
#    y 0.000000 1.551580 0.000000 
#    z 0.000000 0.000000 1.663600 
# 
# From -- ./inp_files/7632.got.cif
#   From: 2010.05.17/outbox.cif.g08.bks.cpg/sg46_4_cif.got.tgz:7632.got - 2010.06.03 19:58:25.
