data_PCOD9378673
_publ_section_title
;
Structure prediction by ZEFSAII (Michael W. Deem and Ramdas Pophale) SiO2 
 PCOD9378673
Probable space group: I M A 2
;
_chemical_formula_sum "Si O2"
_cell_formula_units_Z 64
_cell_length_a 8.919134
_cell_length_b 16.733269
_cell_length_c 22.522741
_cell_angle_alpha 90.000000
_cell_angle_beta 90.000000
_cell_angle_gamma 90.000000
_cell_volume 3361.435050
_symmetry_space_group_name_H-M "I M A 2"
_symmetry_group_IT_number 46
_symmetry_cell_setting 'orthorhombic'
loop_
_space_group_symop_operation_xyz
x,y,z
-x,-y,z
1/2-x,y,z
1/2+x,-y,z
1/2+x,1/2+y,1/2+z
1/2-x,1/2-y,1/2+z
-x,1/2+y,1/2+z
x,1/2-y,1/2+z
loop_
_atom_site_type_symbol
_atom_site_label
_atom_site_fract_x
_atom_site_fract_y
_atom_site_fract_z
Si Si1 0.420742 0.792593 0.930550
Si Si2 0.422449 0.418435 0.349441
Si Si3 0.421812 0.610629 0.890162
Si Si4 0.427030 0.255614 0.049615
Si Si5 0.932388 0.415217 0.756162
Si Si6 0.930418 0.421274 0.020786
Si Si7 0.423779 0.085123 0.706534
Si Si8 0.070348 0.268184 0.682185
O O1 0.250000 0.814870 0.944121
O O2 0.491947 0.848747 0.881980
O O3 0.419376 0.705114 0.901194
O O4 0.512267 0.789507 0.991758
O O5 0.500000 0.500000 0.367746
O O6 0.250000 0.417424 0.366975
O O7 0.429918 0.412897 0.278294
O O8 0.250000 0.580756 0.889095
O O9 0.484816 0.592017 0.825437
O O10 0.489850 0.581592 0.952341
O O11 0.250000 0.270499 0.043476
O O12 0.512088 0.340421 0.050161
O O13 0.451839 0.213058 0.112495
O O14 0.750000 0.416644 0.754204
O O15 0.000000 0.500000 0.733783
O O16 0.990740 0.336167 0.721687
O O17 0.750000 0.422590 0.020800
O O18 0.000000 0.500000 0.049053
O O19 0.250000 0.081166 0.686918
O O20 0.480496 0.174731 0.689618
O O21 0.500000 0.000000 0.689255
O O22 0.250000 0.269104 0.695280
#
# Coordination Sequence:
#
# PCOD9378673 Si02
#       8
#     8   8   8   8   8   8   8   8
#     4  10  19  34  55  79 108 138 174 219 268 323
#     4  10  19  32  52  79 109 139 173 214 266 324
#     4   8  17  32  52  80 110 140 172 212 264 323
#     4  10  21  37  55  75 103 140 183 226 268 317
#     4  11  22  37  58  83 111 144 184 228 277 330
#     4  10  19  33  53  79 112 144 177 216 263 319
#     4   9  19  35  56  84 116 148 182 222 270 327
#     4  10  22  40  58  79 110 147 188 233 276 321
#
# _framework density 19.039487000000001
#
# number of rings (size 3 to 8) (size 9 to 14) (size 15 to 20)
#    0.000    2.250    0.000    3.750    0.000    2.500 
#    0.000    8.125    0.000    3.000    0.000    0.000 
#    0.000    0.000    0.000    0.000    0.000    0.000 
#
# Total GULP energy -178370.650049 kJ/mol
# GULP energy per Si atom -5574.082814 kJ/mol
# Density = 1.899615 g / cm^3
# Si number density = 19.039487 Si / 1000 Ang^3
#
#
#
# Elastic Constant Matrix: (Units=GPa)
#
#
# Indices 1 2 3 4 5 6 
#
# 1 67.9919 33.3926 31.8427 0.0000 0.0000 0.0000
# 2 33.3926 84.3493 33.4970 0.0000 0.0000 0.0000
# 3 31.8427 33.4970 66.3940 0.0000 0.0000 0.0000
# 4 0.0000 0.0000 0.0000 -7.4357 0.0000 0.0000
# 5 0.0000 0.0000 0.0000 0.0000 34.4438 0.0000
# 6 0.0000 0.0000 0.0000 0.0000 0.0000 34.0027
#
#
#
# Elastic Compliance Matrix: (Units=1/GPa)
#
#
# Indices 1 2 3 4 5 6 
#
# 1 0.020717 -0.005322 -0.007251 0.000000 0.000000 0.000000
# 2 -0.005322 0.016193 -0.005617 0.000000 0.000000 0.000000
# 3 -0.007251 -0.005617 0.021373 0.000000 0.000000 0.000000
# 4 0.000000 0.000000 0.000000 -0.134487 0.000000 0.000000
# 5 0.000000 0.000000 0.000000 0.000000 0.029033 0.000000
# 6 0.000000 0.000000 0.000000 0.000000 0.000000 0.029409
#
#
# Mechanical properties :
#
#
# Convention : Reuss Voigt Hill
#
# Bulk Modulus (GPa) = 45.65590 46.24444 45.95017
# Shear Modulus (GPa) = 192.89673 20.20235 106.54954
#
# Velocity S-wave (km/s) = 10.07641 3.26095 7.48892
# Velocity P-wave (km/s) = 12.62578 6.20643 9.94812
#
# Compressibility (1/GPa) = 0.02190297
#
# Stress axis : x y z
#
# Youngs Moduli (GPa) = 48.26873 61.75450 46.78763
#
# Poissons Ratio (x) = 0.32867 0.33926
# Poissons Ratio (y) = 0.25689 0.26282
# Poissons Ratio (z) = 0.34999 0.34689
#
# Static dielectric constant tensor:
#      x y z
#    x 1.656730 0.000000 0.000000 
#    y 0.000000 1.707790 0.000000 
#    z 0.000000 0.000000 1.669110 
# 
# From -- ./inp_files/23154.got.cif
#   From: 2010.05.17/outbox.cif.g08.bks.cpg/sg46_12_cif.got.tgz:23154.got - 2010.06.03 19:58:25.
