data_PCOD9378025
_publ_section_title
;
Structure prediction by ZEFSAII (Michael W. Deem and Ramdas Pophale) SiO2 
 PCOD9378025
Probable space group: I M A 2
;
_chemical_formula_sum "Si O2"
_cell_formula_units_Z 64
_cell_length_a 8.617791
_cell_length_b 18.832096
_cell_length_c 26.972499
_cell_angle_alpha 90.000000
_cell_angle_beta 90.000000
_cell_angle_gamma 90.000000
_cell_volume 4377.395654
_symmetry_space_group_name_H-M "I M A 2"
_symmetry_group_IT_number 46
_symmetry_cell_setting 'orthorhombic'
loop_
_space_group_symop_operation_xyz
x,y,z
-x,-y,z
1/2-x,y,z
1/2+x,-y,z
1/2+x,1/2+y,1/2+z
1/2-x,1/2-y,1/2+z
-x,1/2+y,1/2+z
x,1/2-y,1/2+z
loop_
_atom_site_type_symbol
_atom_site_label
_atom_site_fract_x
_atom_site_fract_y
_atom_site_fract_z
Si Si1 0.563296 0.832524 0.304100
Si Si2 0.564831 0.829246 0.013897
Si Si3 0.565015 0.422633 0.716131
Si Si4 0.434684 0.579026 0.421813
Si Si5 0.063265 0.079502 0.403003
Si Si6 0.936556 0.078147 0.101214
Si Si7 0.935254 0.208239 0.455178
Si Si8 0.935256 0.700984 0.363238
O O1 0.750000 0.834106 0.301786
O O2 0.495625 0.864139 0.254063
O O3 0.517868 0.883033 0.350633
O O4 0.517433 0.751598 0.317610
O O5 0.750000 0.824379 0.011715
O O6 0.506546 0.881704 0.969922
O O7 0.490014 0.752219 0.003036
O O8 0.508748 0.864012 0.064857
O O9 0.500000 0.500000 0.730560
O O10 0.750000 0.425621 0.718402
O O11 0.520162 0.409515 0.658817
O O12 0.500000 0.500000 0.418313
O O13 0.250000 0.578383 0.427107
O O14 0.482713 0.626684 0.374357
O O15 0.250000 0.080538 0.406111
O O16 0.991787 0.128131 0.446637
O O17 0.000000 0.000000 0.404287
O O18 0.750000 0.078240 0.096859
O O19 0.000000 0.000000 0.087489
O O20 0.750000 0.213137 0.450035
O O21 0.019411 0.250899 0.410643
O O22 0.750000 0.690933 0.362297
#
# Coordination Sequence:
#
# PCOD9378025 Si02
#       8
#     8   8   8   8   8   8   8   8
#     4   9  18  30  45  62  85 114 145 178 214 253
#     4  11  20  31  46  63  84 113 145 179 215 256
#     4  10  20  31  45  62  85 113 145 182 217 252
#     4  11  20  30  44  63  87 115 144 177 212 254
#     4  10  19  30  43  63  88 116 147 180 214 253
#     4  10  20  33  45  62  85 112 145 182 218 253
#     4  10  18  29  44  62  84 112 142 176 213 254
#     4   9  17  30  44  61  84 111 142 178 213 251
#
# _framework density 14.620566
#
# number of rings (size 3 to 8) (size 9 to 14) (size 15 to 20)
#    0.000    2.000    0.000    7.875    0.000    5.500 
#    0.000    0.000    0.000    0.000    0.000    0.000 
#    0.000    1.000    0.000    6.750    0.000    5.000 
#
# Total GULP energy -178449.742209 kJ/mol
# GULP energy per Si atom -5576.554444 kJ/mol
# Density = 1.458729 g / cm^3
# Si number density = 14.620566 Si / 1000 Ang^3
#
#
#
# Elastic Constant Matrix: (Units=GPa)
#
#
# Indices 1 2 3 4 5 6 
#
# 1 45.5818 21.8228 15.1740 0.0000 0.0000 0.0000
# 2 21.8228 86.1720 32.2413 0.0000 0.0000 0.0000
# 3 15.1740 32.2413 55.5974 0.0000 0.0000 0.0000
# 4 0.0000 0.0000 0.0000 27.5112 0.0000 0.0000
# 5 0.0000 0.0000 0.0000 0.0000 22.1365 0.0000
# 6 0.0000 0.0000 0.0000 0.0000 0.0000 26.4560
#
#
#
# Elastic Compliance Matrix: (Units=1/GPa)
#
#
# Indices 1 2 3 4 5 6 
#
# 1 0.025689 -0.004958 -0.004136 0.000000 0.000000 0.000000
# 2 -0.004958 0.015777 -0.007796 0.000000 0.000000 0.000000
# 3 -0.004136 -0.007796 0.023636 0.000000 0.000000 0.000000
# 4 0.000000 0.000000 0.000000 0.036349 0.000000 0.000000
# 5 0.000000 0.000000 0.000000 0.000000 0.045174 0.000000
# 6 0.000000 0.000000 0.000000 0.000000 0.000000 0.037799
#
#
# Mechanical properties :
#
#
# Convention : Reuss Voigt Hill
#
# Bulk Modulus (GPa) = 31.92625 36.20303 34.06464
# Shear Modulus (GPa) = 21.86789 23.09495 22.48142
#
# Velocity S-wave (km/s) = 3.87162 3.97876 3.92555
# Velocity P-wave (km/s) = 6.47069 6.77664 6.62543
#
# Compressibility (1/GPa) = 0.03132219
#
# Stress axis : x y z
#
# Youngs Moduli (GPa) = 38.92685 63.38233 42.30787
#
# Poissons Ratio (x) = 0.31427 0.17498
# Poissons Ratio (y) = 0.19301 0.32984
# Poissons Ratio (z) = 0.16100 0.49414
#
# Static dielectric constant tensor:
#      x y z
#    x 1.472970 0.000000 0.000000 
#    y 0.000000 1.496950 0.000000 
#    z 0.000000 0.000000 1.486050 
# 
# From -- ./inp_files/24401.got.cif
#   From: 2010.05.17/outbox.cif.g08.bks.cpg/sg46_13_cif.got.tgz:24401.got - 2010.06.03 19:58:25.
