data_PCOD9378886
_publ_section_title
;
Structure prediction by ZEFSAII (Michael W. Deem and Ramdas Pophale) SiO2 
 PCOD9378886
Probable space group: I M A 2
;
_chemical_formula_sum "Si O2"
_cell_formula_units_Z 64
_cell_length_a 16.261278
_cell_length_b 9.396730
_cell_length_c 22.553138
_cell_angle_alpha 90.000000
_cell_angle_beta 90.000000
_cell_angle_gamma 90.000000
_cell_volume 3446.183511
_symmetry_space_group_name_H-M "I M A 2"
_symmetry_group_IT_number 46
_symmetry_cell_setting 'orthorhombic'
loop_
_space_group_symop_operation_xyz
x,y,z
-x,-y,z
1/2-x,y,z
1/2+x,-y,z
1/2+x,1/2+y,1/2+z
1/2-x,1/2-y,1/2+z
-x,1/2+y,1/2+z
x,1/2-y,1/2+z
loop_
_atom_site_type_symbol
_atom_site_label
_atom_site_fract_x
_atom_site_fract_y
_atom_site_fract_z
Si Si1 0.348137 0.869319 0.457830
Si Si2 0.403102 0.155691 0.816183
Si Si3 0.652211 0.632518 0.181644
Si Si4 0.998632 0.331687 0.654787
Si Si5 0.654333 0.381198 0.372941
Si Si6 0.844048 0.545684 0.846540
Si Si7 0.583499 0.088595 0.587866
Si Si8 0.071635 0.801863 0.284502
O O1 0.250000 0.859379 0.458611
O O2 0.376657 0.723795 0.425143
O O3 0.369554 0.996555 0.412328
O O4 0.376202 0.899755 0.523800
O O5 0.376442 0.106092 0.749857
O O6 0.347587 0.287957 0.835413
O O7 0.493182 0.225144 0.814174
O O8 0.393592 0.026172 0.861058
O O9 0.750000 0.666305 0.180514
O O10 0.589688 0.759310 0.160616
O O11 0.634485 0.497576 0.138427
O O12 0.945289 0.244503 0.607783
O O13 0.950863 0.301880 0.716211
O O14 0.000000 0.500000 0.644441
O O15 0.750000 0.414376 0.383160
O O16 0.645455 0.289852 0.312202
O O17 0.750000 0.497573 0.836853
O O18 0.905552 0.462091 0.803152
O O19 0.500000 0.000000 0.582349
#
# Coordination Sequence:
#
# PCOD9378886 Si02
#       8
#     8   8   8   8   8   8   8   8
#     4   9  20  38  55  74 105 145 185 223 266 322
#     4  11  20  32  54  86 114 138 173 222 276 321
#     4  10  20  36  59  85 114 147 184 225 270 328
#     4  10  21  37  56  82 114 144 179 230 283 327
#     4  10  20  34  53  79 111 142 178 223 268 317
#     4  10  20  35  56  80 110 145 180 219 266 324
#     4  10  21  38  59  78 103 145 192 230 270 325
#     4  10  19  34  53  78 112 146 174 212 271 334
#
# _framework density 18.571268
#
# number of rings (size 3 to 8) (size 9 to 14) (size 15 to 20)
#    0.000    2.000    0.000    5.625    0.000    4.000 
#    0.000    8.750    0.000    1.500    0.000    0.000 
#    0.000    0.000    0.000    0.000    0.000    0.000 
#
# Total GULP energy -178385.986803 kJ/mol
# GULP energy per Si atom -5574.562088 kJ/mol
# Density = 1.852900 g / cm^3
# Si number density = 18.571268 Si / 1000 Ang^3
#
#
#
# Elastic Constant Matrix: (Units=GPa)
#
#
# Indices 1 2 3 4 5 6 
#
# 1 57.1662 3.9875 28.2571 0.0000 0.0000 0.0000
# 2 3.9875 88.3985 29.8902 0.0000 0.0000 0.0000
# 3 28.2571 29.8902 96.7737 0.0000 0.0000 0.0000
# 4 0.0000 0.0000 0.0000 16.1583 0.0000 0.0000
# 5 0.0000 0.0000 0.0000 0.0000 3.9617 0.0000
# 6 0.0000 0.0000 0.0000 0.0000 0.0000 19.8228
#
#
#
# Elastic Compliance Matrix: (Units=1/GPa)
#
#
# Indices 1 2 3 4 5 6 
#
# 1 0.020563 0.001231 -0.006384 0.000000 0.000000 0.000000
# 2 0.001231 0.012705 -0.004284 0.000000 0.000000 0.000000
# 3 -0.006384 -0.004284 0.013521 0.000000 0.000000 0.000000
# 4 0.000000 0.000000 0.000000 0.061888 0.000000 0.000000
# 5 0.000000 0.000000 0.000000 0.000000 0.252414 0.000000
# 6 0.000000 0.000000 0.000000 0.000000 0.000000 0.050447
#
#
# Mechanical properties :
#
#
# Convention : Reuss Voigt Hill
#
# Bulk Modulus (GPa) = 35.82323 40.73423 38.27873
# Shear Modulus (GPa) = 11.37095 20.00213 15.68654
#
# Velocity S-wave (km/s) = 2.47713 3.28540 2.90947
# Velocity P-wave (km/s) = 5.24529 6.03104 5.65183
#
# Compressibility (1/GPa) = 0.02791485
#
# Stress axis : x y z
#
# Youngs Moduli (GPa) = 48.63151 78.70703 73.96061
#
# Poissons Ratio (x) = -0.09691 0.47220
# Poissons Ratio (y) = -0.05988 0.31683
# Poissons Ratio (z) = 0.31049 0.33716
#
# Static dielectric constant tensor:
#      x y z
#    x 1.695710 0.000000 0.000000 
#    y 0.000000 1.671570 0.000000 
#    z 0.000000 0.000000 1.630070 
# 
# From -- ./inp_files/23704.got.cif
#   From: 2010.05.17/outbox.cif.g08.bks.cpg/sg46_12_cif.got.tgz:23704.got - 2010.06.03 19:58:25.
