data_PCOD9378712
_publ_section_title
;
Structure prediction by ZEFSAII (Michael W. Deem and Ramdas Pophale) SiO2 
 PCOD9378712
Probable space group: I M A 2
;
_chemical_formula_sum "Si O2"
_cell_formula_units_Z 64
_cell_length_a 9.345497
_cell_length_b 33.305518
_cell_length_c 11.867433
_cell_angle_alpha 90.000000
_cell_angle_beta 90.000000
_cell_angle_gamma 90.000000
_cell_volume 3693.817066
_symmetry_space_group_name_H-M "I M A 2"
_symmetry_group_IT_number 46
_symmetry_cell_setting 'orthorhombic'
loop_
_space_group_symop_operation_xyz
x,y,z
-x,-y,z
1/2-x,y,z
1/2+x,-y,z
1/2+x,1/2+y,1/2+z
1/2-x,1/2-y,1/2+z
-x,1/2+y,1/2+z
x,1/2-y,1/2+z
loop_
_atom_site_type_symbol
_atom_site_label
_atom_site_fract_x
_atom_site_fract_y
_atom_site_fract_z
Si Si1 0.587773 0.901132 0.421070
Si Si2 0.922334 0.123403 0.871506
Si Si3 0.578491 0.727146 0.005132
Si Si4 0.080259 0.957969 0.258132
Si Si5 0.577845 0.646334 0.141285
Si Si6 0.411422 0.181335 0.281791
Si Si7 0.420475 0.809652 0.058831
Si Si8 0.578583 0.042592 0.999374
O O1 0.750000 0.917976 0.423591
O O2 0.481268 0.929423 0.354193
O O3 0.545634 0.887316 0.546334
O O4 0.594179 0.859968 0.350435
O O5 0.750000 0.123543 0.856821
O O6 0.998895 0.136042 0.756439
O O7 0.957438 0.156324 0.967226
O O8 0.963282 0.079022 0.916873
O O9 0.750000 0.732608 0.015311
O O10 0.539338 0.689791 0.087223
O O11 0.495014 0.767431 0.031785
O O12 0.549868 0.714108 0.876132
O O13 0.250000 0.962606 0.268777
O O14 0.050468 0.943954 0.129206
O O15 0.000000 0.000000 0.268916
O O16 0.750000 0.646589 0.156587
O O17 0.250000 0.190007 0.239363
O O18 0.520809 0.178183 0.180712
O O19 0.250000 0.805328 0.060103
O O20 0.750000 0.036446 0.989782
O O21 0.500000 0.000000 0.980180
#
# Coordination Sequence:
#
# PCOD9378712 Si02
#       8
#     8   8   8   8   8   8   8   8
#     4   9  18  35  56  78 105 136 176 224 270 320
#     4  10  22  38  54  79 114 147 181 226 277 330
#     4   9  20  38  56  76 104 140 182 227 274 321
#     4  10  19  32  54  83 113 143 176 219 273 328
#     4   9  20  38  58  78 104 142 186 229 270 322
#     4   9  19  36  56  76 101 136 177 221 269 322
#     4  11  23  35  52  80 112 141 177 226 275 328
#     4   9  19  36  56  80 112 145 179 224 274 325
#
# _framework density 17.326250999999999
#
# number of rings (size 3 to 8) (size 9 to 14) (size 15 to 20)
#    0.000    2.500    0.000    3.000    1.750    5.000 
#    0.000    3.125    0.000    1.500    0.000    0.000 
#    0.000    0.000    0.000    0.000    0.000    0.000 
#
# Total GULP energy -178465.064126 kJ/mol
# GULP energy per Si atom -5577.033254 kJ/mol
# Density = 1.728682 g / cm^3
# Si number density = 17.326251 Si / 1000 Ang^3
#
#
#
# Elastic Constant Matrix: (Units=GPa)
#
#
# Indices 1 2 3 4 5 6 
#
# 1 46.5909 39.6784 62.2704 0.0000 0.0000 0.0000
# 2 39.6784 79.9664 65.9266 0.0000 -0.0001 0.0000
# 3 62.2704 65.9266 137.9987 0.0007 -0.0001 -0.0001
# 4 0.0000 0.0000 0.0007 10.4130 -0.0001 -0.0001
# 5 0.0000 -0.0001 -0.0001 -0.0001 32.1243 0.0000
# 6 0.0000 0.0000 -0.0001 -0.0001 0.0000 29.0117
#
#
#
# Elastic Compliance Matrix: (Units=1/GPa)
#
#
# Indices 1 2 3 4 5 6 
#
# 1 0.060761 -0.012447 -0.021471 0.000001 0.000000 0.000000
# 2 -0.012447 0.023181 -0.005458 0.000000 0.000000 0.000000
# 3 -0.021471 -0.005458 0.019542 -0.000001 0.000000 0.000000
# 4 0.000001 0.000000 -0.000001 0.096034 0.000000 0.000000
# 5 0.000000 0.000000 0.000000 0.000000 0.031129 0.000000
# 6 0.000000 0.000000 0.000000 0.000000 0.000000 0.034469
#
#
# Mechanical properties :
#
#
# Convention : Reuss Voigt Hill
#
# Bulk Modulus (GPa) = 40.43354 66.70078 53.56716
# Shear Modulus (GPa) = 14.19999 20.75516 17.47758
#
# Velocity S-wave (km/s) = 2.86591 3.46483 3.17950
# Velocity P-wave (km/s) = 5.85991 7.38832 6.66805
#
# Compressibility (1/GPa) = 0.02473194
#
# Stress axis : x y z
#
# Youngs Moduli (GPa) = 16.45789 43.13903 51.17092
#
# Poissons Ratio (x) = 0.53697 1.09870
# Poissons Ratio (y) = 0.20486 0.27927
# Poissons Ratio (z) = 0.35337 0.23543
#
# Static dielectric constant tensor:
#      x y z
#    x 1.596690 0.000000 0.000000 
#    y 0.000000 1.593590 0.000000 
#    z 0.000000 0.000000 1.585550 
# 
# From -- ./inp_files/9740.got.cif
#   From: 2010.05.17/outbox.cif.g08.bks.cpg/sg46_5_cif.got.tgz:9740.got - 2010.06.03 19:58:25.
