data_PCOD9378400
_publ_section_title
;
Structure prediction by ZEFSAII (Michael W. Deem and Ramdas Pophale) SiO2 
 PCOD9378400
Probable space group: I M A 2
;
_chemical_formula_sum "Si O2"
_cell_formula_units_Z 48
_cell_length_a 26.852382
_cell_length_b 5.114600
_cell_length_c 14.025262
_cell_angle_alpha 90.000000
_cell_angle_beta 90.000000
_cell_angle_gamma 90.000000
_cell_volume 1926.218164
_symmetry_space_group_name_H-M "I M A 2"
_symmetry_group_IT_number 46
_symmetry_cell_setting 'orthorhombic'
loop_
_space_group_symop_operation_xyz
x,y,z
-x,-y,z
1/2-x,y,z
1/2+x,-y,z
1/2+x,1/2+y,1/2+z
1/2-x,1/2-y,1/2+z
-x,1/2+y,1/2+z
x,1/2-y,1/2+z
loop_
_atom_site_type_symbol
_atom_site_label
_atom_site_fract_x
_atom_site_fract_y
_atom_site_fract_z
Si Si1 0.691709 0.801118 0.915240
Si Si2 0.152351 0.481336 0.615785
Si Si3 0.444006 0.411905 0.717722
Si Si4 0.053081 0.388996 0.407388
Si Si5 0.307962 0.518746 0.215735
Si Si6 0.895021 0.107220 0.398451
O O1 0.750000 0.732372 0.909344
O O2 0.567154 0.604267 0.946299
O O3 0.656942 0.544561 0.905147
O O4 0.679123 0.930202 0.015817
O O5 0.094551 0.398159 0.631251
O O6 0.161789 0.775227 0.652462
O O7 0.180796 0.276245 0.684115
O O8 0.500000 0.500000 0.694975
O O9 0.446612 0.167793 0.791981
O O10 0.415608 0.609254 0.790260
O O11 0.092891 0.607892 0.435565
O O12 0.000000 0.500000 0.434099
O O13 0.250000 0.581808 0.202946
O O14 0.319091 0.501928 0.328375
#
# Coordination Sequence:
#
# PCOD9378400 Si02
#       6
#     8   8   8   8   8   8
#     4  11  26  47  73 108 152 202 259 320 382 460
#     4  12  27  46  73 108 149 193 254 313 378 459
#     4  10  22  39  74 102 140 190 241 299 377 444
#     4  10  18  36  67 105 133 184 235 287 364 442
#     4  11  25  47  74 104 143 196 247 307 384 451
#     4  10  21  38  68 102 138 186 239 293 368 441
#
# _framework density 24.919295999999999
#
# number of rings (size 3 to 8) (size 9 to 14) (size 15 to 20)
#    1.000    0.333    3.333    2.000    4.667    2.667 
#    0.000    5.000    0.000    5.000    0.000    0.000 
#    0.000    0.000    0.000    0.000    0.000    0.000 
#
# Total GULP energy -134115.470512 kJ/mol
# GULP energy per Si atom -5588.144605 kJ/mol
# Density = 2.486258 g / cm^3
# Si number density = 24.919296 Si / 1000 Ang^3
#
#
#
# Elastic Constant Matrix: (Units=GPa)
#
#
# Indices 1 2 3 4 5 6 
#
# 1 174.1823 5.5904 8.8377 0.0000 0.0000 0.0000
# 2 5.5904 93.1510 -4.4187 0.0000 0.0000 0.0000
# 3 8.8377 -4.4187 96.1705 0.0000 0.0000 0.0000
# 4 0.0000 0.0000 0.0000 24.4272 0.0000 0.0000
# 5 0.0000 0.0000 0.0000 0.0000 23.2867 0.0000
# 6 0.0000 0.0000 0.0000 0.0000 0.0000 30.4799
#
#
#
# Elastic Compliance Matrix: (Units=1/GPa)
#
#
# Indices 1 2 3 4 5 6 
#
# 1 0.005781 -0.000373 -0.000548 0.000000 0.000000 0.000000
# 2 -0.000373 0.010783 0.000530 0.000000 0.000000 0.000000
# 3 -0.000548 0.000530 0.010473 0.000000 0.000000 0.000000
# 4 0.000000 0.000000 0.000000 0.040938 0.000000 0.000000
# 5 0.000000 0.000000 0.000000 0.000000 0.042943 0.000000
# 6 0.000000 0.000000 0.000000 0.000000 0.000000 0.032808
#
#
# Mechanical properties :
#
#
# Convention : Reuss Voigt Hill
#
# Bulk Modulus (GPa) = 38.09036 42.61361 40.35198
# Shear Modulus (GPa) = 32.62422 39.20506 35.91464
#
# Velocity S-wave (km/s) = 3.62221 3.97076 3.80048
# Velocity P-wave (km/s) = 5.72822 6.17741 5.95705
#
# Compressibility (1/GPa) = 0.02625336
#
# Stress axis : x y z
#
# Youngs Moduli (GPa) = 172.98325 92.74053 95.48424
#
# Poissons Ratio (x) = 0.03459 0.05236
# Poissons Ratio (y) = 0.06451 -0.05058
# Poissons Ratio (z) = 0.09486 -0.04913
#
# Static dielectric constant tensor:
#      x y z
#    x 1.981100 0.000000 0.000000 
#    y 0.000000 1.999830 0.000000 
#    z 0.000000 0.000000 2.061900 
# 
# From -- ./inp_files/20335.got.cif
#   From: 2010.05.17/outbox.cif.g08.bks.cpg/sg46_11_cif.got.tgz:20335.got - 2010.06.03 19:58:25.
