data_PCOD9378193
_publ_section_title
;
Structure prediction by ZEFSAII (Michael W. Deem and Ramdas Pophale) SiO2 
 PCOD9378193
Probable space group: I M A 2
;
_chemical_formula_sum "Si O2"
_cell_formula_units_Z 56
_cell_length_a 9.377183
_cell_length_b 15.714276
_cell_length_c 19.602290
_cell_angle_alpha 90.000000
_cell_angle_beta 90.000000
_cell_angle_gamma 90.000000
_cell_volume 2888.508023
_symmetry_space_group_name_H-M "I M A 2"
_symmetry_group_IT_number 46
_symmetry_cell_setting 'orthorhombic'
loop_
_space_group_symop_operation_xyz
x,y,z
-x,-y,z
1/2-x,y,z
1/2+x,-y,z
1/2+x,1/2+y,1/2+z
1/2-x,1/2-y,1/2+z
-x,1/2+y,1/2+z
x,1/2-y,1/2+z
loop_
_atom_site_type_symbol
_atom_site_label
_atom_site_fract_x
_atom_site_fract_y
_atom_site_fract_z
Si Si1 0.410546 0.421508 0.949000
Si Si2 0.420734 0.242938 0.891810
Si Si3 0.590372 0.231918 0.261021
Si Si4 0.088901 0.128832 0.599609
Si Si5 0.909507 0.070603 0.726227
Si Si6 0.416796 0.797776 0.104271
Si Si7 0.078785 0.590977 0.471267
O O1 0.500000 0.500000 0.921839
O O2 0.250000 0.426890 0.922139
O O3 0.463201 0.326663 0.934371
O O4 0.405953 0.424562 0.030763
O O5 0.250000 0.227884 0.896654
O O6 0.467415 0.274412 0.816653
O O7 0.506376 0.161463 0.921181
O O8 0.750000 0.203544 0.283266
O O9 0.597874 0.334549 0.254481
O O10 0.562019 0.191000 0.186298
O O11 0.250000 0.139655 0.625383
O O12 0.990245 0.086388 0.655617
O O13 0.021323 0.221051 0.585457
O O14 0.750000 0.038519 0.716618
O O15 0.000000 0.000000 0.766384
O O16 0.250000 0.770850 0.098024
O O17 0.438090 0.872911 0.049339
O O18 0.250000 0.584535 0.457881
O O19 0.000000 0.500000 0.464621
#
# Coordination Sequence:
#
# PCOD9378193 Si02
#       7
#     8   8   8   8   8   8   8
#     4  10  22  36  54  82 114 148 187 234 286 346
#     4  11  23  41  60  87 123 158 202 255 306 367
#     4   9  20  38  58  81 113 156 200 246 302 367
#     4  10  18  31  53  81 114 147 180 227 284 337
#     4  10  20  33  50  77 112 145 187 233 282 348
#     4   9  19  37  60  86 116 152 197 244 296 357
#     4  11  23  40  65  94 124 166 210 259 316 370
#
# _framework density 19.387172
#
# number of rings (size 3 to 8) (size 9 to 14) (size 15 to 20)
#    0.000    2.000    1.429    3.000    0.000    7.429 
#    0.000    2.143    0.000    3.429    0.000    0.000 
#    0.000    0.000    0.000    0.000    0.000    0.000 
#
# Total GULP energy -155953.892081 kJ/mol
# GULP energy per Si atom -5569.781860 kJ/mol
# Density = 1.934305 g / cm^3
# Si number density = 19.387172 Si / 1000 Ang^3
#
#
#
# Elastic Constant Matrix: (Units=GPa)
#
#
# Indices 1 2 3 4 5 6 
#
# 1 99.4444 45.4604 26.6288 0.0000 0.0000 0.0000
# 2 45.4604 79.7656 3.5929 0.0000 0.0000 0.0000
# 3 26.6288 3.5929 59.7202 0.0000 0.0000 0.0000
# 4 0.0000 0.0000 0.0000 7.2196 0.0000 0.0000
# 5 0.0000 0.0000 0.0000 0.0000 17.5430 0.0000
# 6 0.0000 0.0000 0.0000 0.0000 0.0000 26.4433
#
#
#
# Elastic Compliance Matrix: (Units=1/GPa)
#
#
# Indices 1 2 3 4 5 6 
#
# 1 0.015775 -0.008697 -0.006511 0.000000 0.000000 0.000000
# 2 -0.008697 0.017366 0.002833 0.000000 0.000000 0.000000
# 3 -0.006511 0.002833 0.019477 0.000000 0.000000 0.000000
# 4 0.000000 0.000000 0.000000 0.138513 0.000000 0.000000
# 5 0.000000 0.000000 0.000000 0.000000 0.057003 0.000000
# 6 0.000000 0.000000 0.000000 0.000000 0.000000 0.037817
#
#
# Mechanical properties :
#
#
# Convention : Reuss Voigt Hill
#
# Bulk Modulus (GPa) = 35.88234 43.36604 39.62419
# Shear Modulus (GPa) = 15.62547 21.12438 18.37492
#
# Velocity S-wave (km/s) = 2.84204 3.30450 3.08196
# Velocity P-wave (km/s) = 5.41462 6.08084 5.75737
#
# Compressibility (1/GPa) = 0.02786887
#
# Stress axis : x y z
#
# Youngs Moduli (GPa) = 63.39020 57.58371 51.34148
#
# Poissons Ratio (x) = 0.50083 0.33428
# Poissons Ratio (y) = 0.55133 -0.14547
# Poissons Ratio (z) = 0.41272 -0.16316
#
# Static dielectric constant tensor:
#      x y z
#    x 1.699310 0.000000 0.000000 
#    y 0.000000 1.743970 0.000000 
#    z 0.000000 0.000000 1.725890 
# 
# From -- ./inp_files/21035.got.cif
#   From: 2010.05.17/outbox.cif.g08.bks.cpg/sg46_11_cif.got.tgz:21035.got - 2010.06.03 19:58:25.
