data_PCOD9378182
_publ_section_title
;
Structure prediction by ZEFSAII (Michael W. Deem and Ramdas Pophale) SiO2 
 PCOD9378182
Probable space group: I M A 2
;
_chemical_formula_sum "Si O2"
_cell_formula_units_Z 56
_cell_length_a 8.554086
_cell_length_b 15.027726
_cell_length_c 22.539360
_cell_angle_alpha 90.000000
_cell_angle_beta 90.000000
_cell_angle_gamma 90.000000
_cell_volume 2897.400031
_symmetry_space_group_name_H-M "I M A 2"
_symmetry_group_IT_number 46
_symmetry_cell_setting 'orthorhombic'
loop_
_space_group_symop_operation_xyz
x,y,z
-x,-y,z
1/2-x,y,z
1/2+x,-y,z
1/2+x,1/2+y,1/2+z
1/2-x,1/2-y,1/2+z
-x,1/2+y,1/2+z
x,1/2-y,1/2+z
loop_
_atom_site_type_symbol
_atom_site_label
_atom_site_fract_x
_atom_site_fract_y
_atom_site_fract_z
Si Si1 0.061381 0.213992 0.187860
Si Si2 0.562807 0.595566 0.152286
Si Si3 0.937134 0.100098 0.296997
Si Si4 0.437500 0.095597 0.076882
Si Si5 0.063007 0.904493 0.943666
Si Si6 0.940392 0.214972 0.409338
Si Si7 0.562054 0.404116 0.018907
O O1 0.250000 0.210174 0.192582
O O2 0.012549 0.317295 0.188641
O O3 0.019471 0.170858 0.124239
O O4 0.989376 0.154821 0.239423
O O5 0.500000 0.500000 0.172956
O O6 0.750000 0.592175 0.151629
O O7 0.505331 0.609000 0.084607
O O8 0.750000 0.096253 0.298911
O O9 0.993949 0.154288 0.354926
O O10 0.000000 0.000000 0.296036
O O11 0.250000 0.091870 0.071674
O O12 0.500000 0.000000 0.098849
O O13 0.508923 0.108976 0.011797
O O14 0.250000 0.907968 0.942966
O O15 0.009011 0.817664 0.907687
O O16 0.000000 0.000000 0.923391
O O17 0.750000 0.214778 0.408333
O O18 0.986756 0.170277 0.471702
O O19 0.500000 0.500000 0.997672
O O20 0.750000 0.406419 0.022388
#
# Coordination Sequence:
#
# PCOD9378182 Si02
#       7
#     8   8   8   8   8   8   8
#     4  10  22  38  55  78 108 142 181 224 266 313
#     4  10  20  35  54  79 111 141 176 221 267 317
#     4  11  23  40  60  81 107 139 177 219 264 314
#     4  10  19  32  51  78 110 140 173 214 264 316
#     4  10  19  34  54  78 108 138 174 216 261 313
#     4   9  20  36  54  77 106 141 177 216 261 313
#     4  10  18  31  52  79 110 141 175 214 263 318
#
# _framework density 19.327673000000001
#
# number of rings (size 3 to 8) (size 9 to 14) (size 15 to 20)
#    0.000    2.000    0.000    5.571    0.000    3.429 
#    0.000    7.857    0.000    3.429    0.000    0.000 
#    0.000    0.000    0.000    0.000    0.000    0.000 
#
# Total GULP energy -156364.034842 kJ/mol
# GULP energy per Si atom -5584.429816 kJ/mol
# Density = 1.928368 g / cm^3
# Si number density = 19.327673 Si / 1000 Ang^3
#
#
#
# Elastic Constant Matrix: (Units=GPa)
#
#
# Indices 1 2 3 4 5 6 
#
# 1 45.0255 41.3497 14.5120 0.0000 0.0000 0.0000
# 2 41.3497 207.5280 67.1597 0.0000 0.0000 0.0000
# 3 14.5120 67.1597 44.7671 0.0000 0.0000 0.0000
# 4 0.0000 0.0000 0.0000 30.3717 0.0000 0.0000
# 5 0.0000 0.0000 0.0000 0.0000 14.0757 0.0000
# 6 0.0000 0.0000 0.0000 0.0000 0.0000 18.9740
#
#
#
# Elastic Compliance Matrix: (Units=1/GPa)
#
#
# Indices 1 2 3 4 5 6 
#
# 1 0.027225 -0.004992 -0.001336 0.000000 0.000000 0.000000
# 2 -0.004992 0.010281 -0.013805 0.000000 0.000000 0.000000
# 3 -0.001336 -0.013805 0.043481 0.000000 0.000000 0.000000
# 4 0.000000 0.000000 0.000000 0.032925 0.000000 0.000000
# 5 0.000000 0.000000 0.000000 0.000000 0.071044 0.000000
# 6 0.000000 0.000000 0.000000 0.000000 0.000000 0.052704
#
#
# Mechanical properties :
#
#
# Convention : Reuss Voigt Hill
#
# Bulk Modulus (GPa) = 24.55779 60.37372 42.46576
# Shear Modulus (GPa) = 17.15261 24.30425 20.72843
#
# Velocity S-wave (km/s) = 2.98226 3.54995 3.27842
# Velocity P-wave (km/s) = 4.95905 6.93596 6.02909
#
# Compressibility (1/GPa) = 0.04072028
#
# Stress axis : x y z
#
# Youngs Moduli (GPa) = 36.73118 97.26794 22.99829
#
# Poissons Ratio (x) = 0.48557 0.03073
# Poissons Ratio (y) = 0.18336 0.31749
# Poissons Ratio (z) = 0.04908 1.34280
#
# Static dielectric constant tensor:
#      x y z
#    x 1.654850 0.000000 0.000000 
#    y 0.000000 1.728170 0.000000 
#    z 0.000000 0.000000 1.649100 
# 
# From -- ./inp_files/21100.got.cif
#   From: 2010.05.17/outbox.cif.g08.bks.cpg/sg46_11_cif.got.tgz:21100.got - 2010.06.03 19:58:25.
