data_PCOD9378643
_publ_section_title
;
Structure prediction by ZEFSAII (Michael W. Deem and Ramdas Pophale) SiO2 
 PCOD9378643
Probable space group: I M A 2
;
_chemical_formula_sum "Si O2"
_cell_formula_units_Z 64
_cell_length_a 7.468542
_cell_length_b 38.247509
_cell_length_c 10.540187
_cell_angle_alpha 90.000000
_cell_angle_beta 90.000000
_cell_angle_gamma 90.000000
_cell_volume 3010.837380
_symmetry_space_group_name_H-M "I M A 2"
_symmetry_group_IT_number 46
_symmetry_cell_setting 'orthorhombic'
loop_
_space_group_symop_operation_xyz
x,y,z
-x,-y,z
1/2-x,y,z
1/2+x,-y,z
1/2+x,1/2+y,1/2+z
1/2-x,1/2-y,1/2+z
-x,1/2+y,1/2+z
x,1/2-y,1/2+z
loop_
_atom_site_type_symbol
_atom_site_label
_atom_site_fract_x
_atom_site_fract_y
_atom_site_fract_z
Si Si1 0.964597 0.040636 0.692450
Si Si2 0.031188 0.279664 0.834965
Si Si3 0.462972 0.592478 0.692748
Si Si4 0.965570 0.828771 0.564444
Si Si5 0.469037 0.198814 0.834964
Si Si6 0.962972 0.407522 0.977181
Si Si7 0.465570 0.328771 0.605484
Si Si8 0.035403 0.540636 0.477478
O O1 0.750000 0.045087 0.697344
O O2 0.035489 0.066218 0.583844
O O3 0.033618 0.048013 0.834964
O O4 0.000000 0.000000 0.663938
O O5 0.250000 0.279782 0.834964
O O6 0.976237 0.239396 0.834964
O O7 0.972333 0.300766 0.710183
O O8 0.972334 0.300766 0.959746
O O9 0.250000 0.586241 0.699812
O O10 0.488179 0.632366 0.649614
O O11 0.535489 0.566218 0.586084
O O12 0.536041 0.587660 0.834964
O O13 0.750000 0.826424 0.566455
O O14 0.029214 0.819716 0.705679
O O15 0.011824 0.867635 0.520315
O O16 0.250000 0.198271 0.834964
O O17 0.529215 0.180284 0.964250
O O18 0.750000 0.413760 0.970116
O O19 0.250000 0.326423 0.603473
O O20 0.250000 0.545087 0.472585
O O21 0.000000 0.500000 0.505991
#
# Coordination Sequence:
#
# PCOD9378643 Si02
#       8
#     8   8   8   8   8   8   8   8
#     4   9  19  36  56  78 103 133 167 204 249 299
#     4   9  16  30  51  73 102 135 168 211 262 307
#     4  10  21  36  53  74 105 141 171 205 253 303
#     4  10  19  32  51  77 103 132 173 215 255 301
#     4   9  18  30  49  77 104 131 168 217 264 303
#     4  10  21  36  53  74 105 141 171 205 253 303
#     4  10  19  32  51  77 103 132 173 215 255 301
#     4   9  19  36  56  78 103 133 167 204 249 299
#
# _framework density 21.256544999999999
#
# number of rings (size 3 to 8) (size 9 to 14) (size 15 to 20)
#    0.000    2.500    1.250    0.750    1.750    4.500 
#    0.000    0.000    0.000    4.500    0.000    0.000 
#    0.000    0.000    0.000    0.000    0.000    0.000 
#
# Total GULP energy -178754.662353 kJ/mol
# GULP energy per Si atom -5586.083199 kJ/mol
# Density = 2.120816 g / cm^3
# Si number density = 21.256545 Si / 1000 Ang^3
#
#
#
# Elastic Constant Matrix: (Units=GPa)
#
#
# Indices 1 2 3 4 5 6 
#
# 1 62.8264 -3.6068 10.7409 0.0000 0.0000 0.0000
# 2 -3.6068 128.0985 118.1879 0.0000 0.0000 0.0000
# 3 10.7409 118.1879 229.1569 -0.0002 -0.0001 -0.0001
# 4 0.0000 0.0000 -0.0002 29.1925 0.0000 0.0000
# 5 0.0000 0.0000 -0.0001 0.0000 0.5133 0.0000
# 6 0.0000 0.0000 -0.0001 0.0000 0.0000 11.2849
#
#
#
# Elastic Compliance Matrix: (Units=1/GPa)
#
#
# Indices 1 2 3 4 5 6 
#
# 1 0.016373 0.002230 -0.001918 0.000000 0.000000 0.000000
# 2 0.002230 0.015197 -0.007943 0.000000 -0.000001 0.000000
# 3 -0.001918 -0.007943 0.008550 0.000000 0.000001 0.000000
# 4 0.000000 0.000000 0.000000 0.034255 0.000001 0.000000
# 5 0.000000 -0.000001 0.000001 0.000001 1.948323 0.000006
# 6 0.000000 0.000000 0.000000 0.000000 0.000006 0.088614
#
#
# Mechanical properties :
#
#
# Convention : Reuss Voigt Hill
#
# Bulk Modulus (GPa) = 40.22472 74.52508 57.37490
# Shear Modulus (GPa) = 2.34207 27.84879 15.09543
#
# Velocity S-wave (km/s) = 1.05081 3.62350 2.66776
# Velocity P-wave (km/s) = 4.52071 7.25550 6.04479
#
# Compressibility (1/GPa) = 0.02486034
#
# Stress axis : x y z
#
# Youngs Moduli (GPa) = 61.07698 65.80068 116.95742
#
# Poissons Ratio (x) = -0.14676 0.22429
# Poissons Ratio (y) = -0.13622 0.92895
# Poissons Ratio (z) = 0.11713 0.52263
#
# Static dielectric constant tensor:
#      x y z
#    x 1.820770 0.000000 0.000000 
#    y 0.000000 1.694180 0.000000 
#    z 0.000000 0.000000 1.769690 
# 
# From -- ./inp_files/5028.got.cif
#   From: 2010.05.17/outbox.cif.g08.bks.cpg/sg46_3_cif.got.tgz:5028.got - 2010.06.03 19:58:25.
