data_PCOD9378620
_publ_section_title
;
Structure prediction by ZEFSAII (Michael W. Deem and Ramdas Pophale) SiO2 
 PCOD9378620
Probable space group: I M A 2
;
_chemical_formula_sum "Si O2"
_cell_formula_units_Z 64
_cell_length_a 8.910029
_cell_length_b 42.679585
_cell_length_c 9.833105
_cell_angle_alpha 90.000000
_cell_angle_beta 90.000000
_cell_angle_gamma 90.000000
_cell_volume 3739.297181
_symmetry_space_group_name_H-M "I M A 2"
_symmetry_group_IT_number 46
_symmetry_cell_setting 'orthorhombic'
loop_
_space_group_symop_operation_xyz
x,y,z
-x,-y,z
1/2-x,y,z
1/2+x,-y,z
1/2+x,1/2+y,1/2+z
1/2-x,1/2-y,1/2+z
-x,1/2+y,1/2+z
x,1/2-y,1/2+z
loop_
_atom_site_type_symbol
_atom_site_label
_atom_site_fract_x
_atom_site_fract_y
_atom_site_fract_z
Si Si1 0.077849 0.968007 0.244380
Si Si2 0.431327 0.778212 0.738199
Si Si3 0.076461 0.532228 0.413263
Si Si4 0.430764 0.345844 0.930340
Si Si5 0.929940 0.902106 0.916780
Si Si6 0.568950 0.348650 0.229689
Si Si7 0.432095 0.779424 0.422220
Si Si8 0.929859 0.902952 0.234424
O O1 0.250000 0.967714 0.286868
O O2 0.998558 0.935715 0.284349
O O3 0.073101 0.968529 0.078799
O O4 0.000000 0.000000 0.291551
O O5 0.250000 0.777611 0.745223
O O6 0.476158 0.813524 0.778085
O O7 0.471474 0.773730 0.580250
O O8 0.483893 0.749806 0.831753
O O9 0.250000 0.533784 0.371570
O O10 0.000000 0.500000 0.366129
O O11 0.988641 0.563603 0.373142
O O12 0.250000 0.344626 0.941131
O O13 0.494112 0.312341 0.881900
O O14 0.472960 0.373606 0.827199
O O15 0.502686 0.352032 0.078100
O O16 0.750000 0.900865 0.905865
O O17 0.004424 0.875199 0.827052
O O18 0.972185 0.898051 0.076174
O O19 0.750000 0.350105 0.224195
O O20 0.250000 0.782299 0.413753
O O21 0.750000 0.905928 0.237838
#
# Coordination Sequence:
#
# PCOD9378620 Si02
#       8
#     8   8   8   8   8   8   8   8
#     4   9  16  26  44  69  98 129 163 202 247 293
#     4   8  16  30  49  70  93 122 158 198 242 288
#     4   9  16  27  44  69  99 131 165 204 248 296
#     4  10  20  35  52  72 100 135 168 202 247 298
#     4  10  19  32  50  74 102 132 166 209 254 296
#     4  10  20  35  53  74 100 133 170 206 246 299
#     4   9  17  32  51  71  95 126 163 203 244 291
#     4   9  19  33  49  71 101 132 166 206 248 293
#
# _framework density 17.115514999999998
#
# number of rings (size 3 to 8) (size 9 to 14) (size 15 to 20)
#    0.000    2.750    0.000    2.625    0.000    5.500 
#    0.000    4.375    0.000    0.750    0.000    1.750 
#    0.000    0.000    0.000    0.000    0.000    0.000 
#
# Total GULP energy -178356.955781 kJ/mol
# GULP energy per Si atom -5573.654868 kJ/mol
# Density = 1.707656 g / cm^3
# Si number density = 17.115515 Si / 1000 Ang^3
#
#
#
# Elastic Constant Matrix: (Units=GPa)
#
#
# Indices 1 2 3 4 5 6 
#
# 1 57.5738 64.7294 33.2074 0.0003 0.0001 0.0000
# 2 64.7294 211.6435 86.1714 -0.0005 0.0000 -0.0001
# 3 33.2074 86.1714 49.4053 0.0020 -0.0004 0.0002
# 4 0.0003 -0.0005 0.0020 25.6928 0.0001 -0.0003
# 5 0.0001 0.0000 -0.0004 0.0001 18.0582 0.0002
# 6 0.0000 -0.0001 0.0002 -0.0003 0.0002 33.9506
#
#
#
# Elastic Compliance Matrix: (Units=1/GPa)
#
#
# Indices 1 2 3 4 5 6 
#
# 1 0.028987 -0.003218 -0.013871 0.000001 0.000000 0.000000
# 2 -0.003218 0.016658 -0.026892 0.000002 -0.000001 0.000000
# 3 -0.013871 -0.026892 0.076469 -0.000006 0.000002 -0.000001
# 4 0.000001 0.000002 -0.000006 0.038921 0.000000 0.000000
# 5 0.000000 -0.000001 0.000002 0.000000 0.055376 0.000000
# 6 0.000000 0.000000 -0.000001 0.000000 0.000000 0.029455
#
#
# Mechanical properties :
#
#
# Convention : Reuss Voigt Hill
#
# Bulk Modulus (GPa) = 29.28073 76.31544 52.79809
# Shear Modulus (GPa) = 14.48378 24.50793 19.49586
#
# Velocity S-wave (km/s) = 2.91217 3.78817 3.37868
# Velocity P-wave (km/s) = 5.33409 7.98867 6.79233
#
# Compressibility (1/GPa) = 0.03415216
#
# Stress axis : x y z
#
# Youngs Moduli (GPa) = 34.49774 60.02999 13.07721
#
# Poissons Ratio (x) = 0.19317 0.18140
# Poissons Ratio (y) = 0.11101 0.35168
# Poissons Ratio (z) = 0.47852 1.61434
#
# Static dielectric constant tensor:
#      x y z
#    x 1.575240 0.000000 0.000000 
#    y 0.000000 1.574300 0.000000 
#    z 0.000000 0.000000 1.565950 
# 
# From -- ./inp_files/9710.got.cif
#   From: 2010.05.17/outbox.cif.g08.bks.cpg/sg46_5_cif.got.tgz:9710.got - 2010.06.03 19:58:25.
