data_PCOD9378420
_publ_section_title
;
Structure prediction by ZEFSAII (Michael W. Deem and Ramdas Pophale) SiO2 
 PCOD9378420
Probable space group: I M A 2
;
_chemical_formula_sum "Si O2"
_cell_formula_units_Z 64
_cell_length_a 8.813634
_cell_length_b 26.822238
_cell_length_c 18.881535
_cell_angle_alpha 90.000000
_cell_angle_beta 90.000000
_cell_angle_gamma 90.000000
_cell_volume 4463.621097
_symmetry_space_group_name_H-M "I M A 2"
_symmetry_group_IT_number 46
_symmetry_cell_setting 'orthorhombic'
loop_
_space_group_symop_operation_xyz
x,y,z
-x,-y,z
1/2-x,y,z
1/2+x,-y,z
1/2+x,1/2+y,1/2+z
1/2-x,1/2-y,1/2+z
-x,1/2+y,1/2+z
x,1/2-y,1/2+z
loop_
_atom_site_type_symbol
_atom_site_label
_atom_site_fract_x
_atom_site_fract_y
_atom_site_fract_z
Si Si1 0.075333 0.799605 0.681500
Si Si2 0.067007 0.754856 0.461143
Si Si3 0.430611 0.356153 0.721007
Si Si4 0.074487 0.804196 0.093256
Si Si5 0.930048 0.744695 0.806265
Si Si6 0.931507 0.054149 0.305440
Si Si7 0.065946 0.644550 0.044868
Si Si8 0.931830 0.554327 0.959688
O O1 0.250000 0.809496 0.701229
O O2 0.074566 0.748628 0.635207
O O3 0.023287 0.841278 0.625557
O O4 0.980716 0.787303 0.751086
O O5 0.250000 0.753819 0.460806
O O6 0.017859 0.711077 0.515288
O O7 0.022982 0.808222 0.495270
O O8 0.005788 0.749962 0.382435
O O9 0.250000 0.363333 0.725797
O O10 0.478302 0.341338 0.641417
O O11 0.472675 0.308470 0.770331
O O12 0.517038 0.404155 0.750079
O O13 0.250000 0.820925 0.089695
O O14 0.750000 0.745097 0.813906
O O15 0.750000 0.051238 0.310840
O O16 0.001416 0.067784 0.382207
O O17 0.000000 0.000000 0.287341
O O18 0.250000 0.640175 0.042459
O O19 0.988162 0.595566 0.014730
O O20 0.750000 0.552030 0.956120
O O21 0.000000 0.500000 0.976850
#
# Coordination Sequence:
#
# PCOD9378420 Si02
#       8
#     8   8   8   8   8   8   8   8
#     4   8  15  28  44  59  80 109 141 174 209 249
#     4   9  17  28  43  61  84 113 145 176 209 251
#     4  10  19  30  43  62  86 113 143 175 212 253
#     4   8  15  28  43  60  80 108 143 175 207 247
#     4  10  19  27  39  61  88 114 143 176 210 248
#     4  11  21  33  47  62  83 111 143 180 214 248
#     4   9  17  30  46  63  82 110 145 178 212 252
#     4  11  21  32  45  62  85 112 142 178 214 250
#
# _framework density 14.338134999999999
#
# number of rings (size 3 to 8) (size 9 to 14) (size 15 to 20)
#    0.000    2.500    0.000    6.000    0.000    5.000 
#    0.000    2.500    0.000    0.000    0.000    0.000 
#    0.000    1.000    0.000    8.250    0.000    4.875 
#
# Total GULP energy -178354.730578 kJ/mol
# GULP energy per Si atom -5573.585331 kJ/mol
# Density = 1.430550 g / cm^3
# Si number density = 14.338135 Si / 1000 Ang^3
#
#
#
# Elastic Constant Matrix: (Units=GPa)
#
#
# Indices 1 2 3 4 5 6 
#
# 1 61.9186 33.3593 35.1640 0.0000 0.0000 0.0000
# 2 33.3593 62.6913 40.9457 0.0000 0.0000 0.0000
# 3 35.1640 40.9457 95.6538 -0.0001 0.0000 0.0000
# 4 0.0000 0.0000 -0.0001 25.1127 0.0000 0.0000
# 5 0.0000 0.0000 0.0000 0.0000 20.0462 0.0000
# 6 0.0000 0.0000 0.0000 0.0000 0.0000 20.5946
#
#
#
# Elastic Compliance Matrix: (Units=1/GPa)
#
#
# Indices 1 2 3 4 5 6 
#
# 1 0.024055 -0.009751 -0.004669 0.000000 0.000000 0.000000
# 2 -0.009751 0.026094 -0.007585 0.000000 0.000000 0.000000
# 3 -0.004669 -0.007585 0.015418 0.000000 0.000000 0.000000
# 4 0.000000 0.000000 0.000000 0.039820 0.000000 0.000000
# 5 0.000000 0.000000 0.000000 0.000000 0.049885 0.000000
# 6 0.000000 0.000000 0.000000 0.000000 0.000000 0.048556
#
#
# Mechanical properties :
#
#
# Convention : Reuss Voigt Hill
#
# Bulk Modulus (GPa) = 46.38950 48.80018 47.59484
# Shear Modulus (GPa) = 19.60599 20.53704 20.07152
#
# Velocity S-wave (km/s) = 3.70185 3.78873 3.74554
# Velocity P-wave (km/s) = 7.12010 7.29715 7.20917
#
# Compressibility (1/GPa) = 0.02155660
#
# Stress axis : x y z
#
# Youngs Moduli (GPa) = 41.57111 38.32323 64.86006
#
# Poissons Ratio (x) = 0.37367 0.30285
# Poissons Ratio (y) = 0.40534 0.49198
# Poissons Ratio (z) = 0.19411 0.29069
#
# Static dielectric constant tensor:
#      x y z
#    x 1.478600 0.000000 0.000000 
#    y 0.000000 1.459690 0.000000 
#    z 0.000000 0.000000 1.474350 
# 
# From -- ./inp_files/18652.got.cif
#   From: 2010.05.17/outbox.cif.g08.bks.cpg/sg46_10_cif.got.tgz:18652.got - 2010.06.03 19:58:25.
