data_PCOD9378661
_publ_section_title
;
Structure prediction by ZEFSAII (Michael W. Deem and Ramdas Pophale) SiO2 
 PCOD9378661
Probable space group: I M A 2
;
_chemical_formula_sum "Si O2"
_cell_formula_units_Z 64
_cell_length_a 14.815182
_cell_length_b 9.281537
_cell_length_c 21.785228
_cell_angle_alpha 90.000000
_cell_angle_beta 90.000000
_cell_angle_gamma 90.000000
_cell_volume 2995.635723
_symmetry_space_group_name_H-M "I M A 2"
_symmetry_group_IT_number 46
_symmetry_cell_setting 'orthorhombic'
loop_
_space_group_symop_operation_xyz
x,y,z
-x,-y,z
1/2-x,y,z
1/2+x,-y,z
1/2+x,1/2+y,1/2+z
1/2-x,1/2-y,1/2+z
-x,1/2+y,1/2+z
x,1/2-y,1/2+z
loop_
_atom_site_type_symbol
_atom_site_label
_atom_site_fract_x
_atom_site_fract_y
_atom_site_fract_z
Si Si1 0.102513 0.555471 0.955270
Si Si2 0.602122 0.443324 0.088940
Si Si3 0.859892 0.393441 0.588718
Si Si4 0.853846 0.593788 0.697236
Si Si5 0.146154 0.406212 0.213304
Si Si6 0.897878 0.056676 0.321600
Si Si7 0.140989 0.607727 0.455270
Si Si8 0.640108 0.106558 0.821823
O O1 0.141881 0.514041 0.888679
O O2 0.105129 0.728856 0.955270
O O3 0.000000 0.500000 0.955270
O O4 0.141881 0.514041 0.021862
O O5 0.500000 0.500000 0.089680
O O6 0.606335 0.270462 0.093960
O O7 0.646409 0.513030 0.148472
O O8 0.750000 0.383105 0.591591
O O9 0.892510 0.492778 0.644109
O O10 0.884802 0.455840 0.521355
O O11 0.750000 0.619660 0.677722
O O12 0.898519 0.750000 0.705270
O O13 0.853591 0.513030 0.762068
O O14 0.250000 0.380340 0.232819
O O15 0.107490 0.507222 0.266431
O O16 0.893665 0.229539 0.316580
O O17 0.000000 0.000000 0.320860
O O18 0.250000 0.616235 0.455270
O O19 0.115198 0.544159 0.389185
O O20 0.750000 0.116896 0.818949
#
# Coordination Sequence:
#
# PCOD9378661 Si02
#       8
#     8   8   8   8   8   8   8   8
#     4   8  16  30  47  70 100 126 156 204 255 295
#     4  10  19  32  52  76  99 128 166 208 252 302
#     4   9  17  32  54  76 101 134 170 207 250 300
#     4  10  21  35  49  71 104 136 168 210 254 294
#     4  10  21  35  49  71 104 136 168 210 254 294
#     4  10  19  32  52  76  99 128 166 208 252 302
#     4   8  14  26  49  78  99 124 167 208 242 293
#     4   9  17  32  54  76 101 134 170 207 250 300
#
# _framework density 21.364415000000001
#
# number of rings (size 3 to 8) (size 9 to 14) (size 15 to 20)
#    0.000    2.750    0.000    1.500    0.000    5.000 
#    0.000    1.250    0.000    3.000    0.000   11.375 
#    0.000    0.000    0.000    0.000    0.000    0.000 
#
# Total GULP energy -178357.505780 kJ/mol
# GULP energy per Si atom -5573.672056 kJ/mol
# Density = 2.131579 g / cm^3
# Si number density = 21.364415 Si / 1000 Ang^3
#
#
#
# Elastic Constant Matrix: (Units=GPa)
#
#
# Indices 1 2 3 4 5 6 
#
# 1 61.8484 12.5797 9.6179 0.0000 0.0000 0.0000
# 2 12.5797 98.7548 91.3444 0.0000 0.0000 0.0000
# 3 9.6179 91.3444 222.0077 0.0000 0.0000 0.0000
# 4 0.0000 0.0000 0.0000 0.4680 0.0000 0.0000
# 5 0.0000 0.0000 0.0000 0.0000 35.8513 0.0000
# 6 0.0000 0.0000 0.0000 0.0000 0.0000 32.7147
#
#
#
# Elastic Compliance Matrix: (Units=1/GPa)
#
#
# Indices 1 2 3 4 5 6 
#
# 1 0.016607 -0.002341 0.000244 0.000000 0.000000 0.000000
# 2 -0.002341 0.016677 -0.006760 0.000000 0.000000 0.000000
# 3 0.000244 -0.006760 0.007275 0.000000 0.000000 0.000000
# 4 0.000000 0.000000 0.000000 2.136763 0.000000 0.000000
# 5 0.000000 0.000000 0.000000 0.000000 0.027893 0.000000
# 6 0.000000 0.000000 0.000000 0.000000 0.000000 0.030567
#
#
# Mechanical properties :
#
#
# Convention : Reuss Voigt Hill
#
# Bulk Modulus (GPa) = 43.77447 67.74387 55.75917
# Shear Modulus (GPa) = 2.21130 31.74473 16.97802
#
# Velocity S-wave (km/s) = 1.01847 3.85888 2.82208
# Velocity P-wave (km/s) = 4.68156 7.18555 6.06420
#
# Compressibility (1/GPa) = 0.02284436
#
# Stress axis : x y z
#
# Youngs Moduli (GPa) = 60.21638 59.96120 137.45007
#
# Poissons Ratio (x) = 0.14036 -0.03349
# Poissons Ratio (y) = 0.14096 0.92923
# Poissons Ratio (z) = -0.01467 0.40537
#
# Static dielectric constant tensor:
#      x y z
#    x 1.829540 0.000000 0.000000 
#    y 0.000000 1.733210 0.000000 
#    z 0.000000 0.000000 1.838230 
# 
# From -- ./inp_files/22235.got.cif
#   From: 2010.05.17/outbox.cif.g08.bks.cpg/sg46_12_cif.got.tgz:22235.got - 2010.06.03 19:58:25.
