data_PCOD9378199
_publ_section_title
;
Structure prediction by ZEFSAII (Michael W. Deem and Ramdas Pophale) SiO2 
 PCOD9378199
Probable space group: I M A 2
;
_chemical_formula_sum "Si O2"
_cell_formula_units_Z 40
_cell_length_a 8.815207
_cell_length_b 29.068303
_cell_length_c 9.546754
_cell_angle_alpha 90.000000
_cell_angle_beta 90.000000
_cell_angle_gamma 90.000000
_cell_volume 2446.289917
_symmetry_space_group_name_H-M "I M A 2"
_symmetry_group_IT_number 46
_symmetry_cell_setting 'orthorhombic'
loop_
_space_group_symop_operation_xyz
x,y,z
-x,-y,z
1/2-x,y,z
1/2+x,-y,z
1/2+x,1/2+y,1/2+z
1/2-x,1/2-y,1/2+z
-x,1/2+y,1/2+z
x,1/2-y,1/2+z
loop_
_atom_site_type_symbol
_atom_site_label
_atom_site_fract_x
_atom_site_fract_y
_atom_site_fract_z
Si Si1 0.428120 0.870930 0.000000
Si Si2 0.429894 0.449712 0.663002
Si Si3 0.932676 0.212975 0.511146
Si Si4 0.069171 0.293412 0.319894
Si Si5 0.928032 0.370193 0.811296
O O1 0.250000 0.873113 0.966051
O O2 0.517906 0.841850 0.887058
O O3 0.495783 0.921300 0.033499
O O4 0.442902 0.847655 0.155412
O O5 0.500000 0.500000 0.674881
O O6 0.250000 0.451692 0.649191
O O7 0.476851 0.416895 0.793852
O O8 0.750000 0.217115 0.513946
O O9 0.971742 0.165576 0.429881
O O10 0.001709 0.254386 0.421365
O O11 0.998296 0.212342 0.666609
O O12 0.250000 0.290017 0.314090
O O13 0.750000 0.381915 0.826822
#
# Coordination Sequence:
#
# PCOD9378199 Si02
#       5
#     8   8   8   8   8
#     4   9  18  35  55  78 107 141 183 224 271 326
#     4  10  18  31  55  84 113 142 180 228 277 324
#     4  11  22  38  57  76 107 150 188 224 275 334
#     4  12  24  36  53  80 112 144 185 232 277 326
#     4   8  18  34  54  78 105 139 183 224 267 322
#
# _framework density 16.351292000000001
#
# number of rings (size 3 to 8) (size 9 to 14) (size 15 to 20)
#    1.200    0.800    0.000    5.400    0.000    3.200 
#    0.000    0.000    0.000    1.200    0.000    2.800 
#    0.000    0.000    0.000    0.000    0.000    0.000 
#
# Total GULP energy -111404.744339 kJ/mol
# GULP energy per Si atom -5570.237217 kJ/mol
# Density = 1.631408 g / cm^3
# Si number density = 16.351292 Si / 1000 Ang^3
#
#
#
# Elastic Constant Matrix: (Units=GPa)
#
#
# Indices 1 2 3 4 5 6 
#
# 1 112.7176 56.0342 44.9928 -0.0004 0.0003 0.0001
# 2 56.0342 99.8940 39.7040 -0.0009 0.0002 0.0001
# 3 44.9928 39.7040 80.9627 -0.0004 -0.0002 0.0000
# 4 -0.0004 -0.0009 -0.0004 22.5621 -0.0001 0.0000
# 5 0.0003 0.0002 -0.0002 -0.0001 24.9291 0.0000
# 6 0.0001 0.0001 0.0000 0.0000 0.0000 29.4821
#
#
#
# Elastic Compliance Matrix: (Units=1/GPa)
#
#
# Indices 1 2 3 4 5 6 
#
# 1 0.013630 -0.005757 -0.004751 0.000000 0.000000 0.000000
# 2 -0.005757 0.014866 -0.004091 0.000000 0.000000 0.000000
# 3 -0.004751 -0.004091 0.016998 0.000000 0.000000 0.000000
# 4 0.000000 0.000000 0.000000 0.044322 0.000000 0.000000
# 5 0.000000 0.000000 0.000000 0.000000 0.040114 0.000000
# 6 0.000000 0.000000 0.000000 0.000000 0.000000 0.033919
#
#
# Mechanical properties :
#
#
# Convention : Reuss Voigt Hill
#
# Bulk Modulus (GPa) = 61.36692 63.89290 62.62991
# Shear Modulus (GPa) = 25.19149 25.58422 25.38785
#
# Velocity S-wave (km/s) = 3.92936 3.95987 3.94464
# Velocity P-wave (km/s) = 7.62878 7.75032 7.68979
#
# Compressibility (1/GPa) = 0.01629542
#
# Stress axis : x y z
#
# Youngs Moduli (GPa) = 73.36569 67.26752 58.83075
#
# Poissons Ratio (x) = 0.38728 0.27952
# Poissons Ratio (y) = 0.42239 0.24067
# Poissons Ratio (z) = 0.34858 0.27518
#
# Static dielectric constant tensor:
#      x y z
#    x 1.538830 0.000000 0.000000 
#    y 0.000000 1.543860 0.000000 
#    z 0.000000 0.000000 1.539900 
# 
# From -- ./inp_files/3754.got.cif
#   From: 2010.05.17/outbox.cif.g08.bks.cpg/sg46_2_cif.got.tgz:3754.got - 2010.06.03 19:58:25.
