data_PCOD9378525
_publ_section_title
;
Structure prediction by ZEFSAII (Michael W. Deem and Ramdas Pophale) SiO2 
 PCOD9378525
Probable space group: I M A 2
;
_chemical_formula_sum "Si O2"
_cell_formula_units_Z 64
_cell_length_a 13.900932
_cell_length_b 5.308140
_cell_length_c 35.312907
_cell_angle_alpha 90.000000
_cell_angle_beta 90.000000
_cell_angle_gamma 90.000000
_cell_volume 2605.672072
_symmetry_space_group_name_H-M "I M A 2"
_symmetry_group_IT_number 46
_symmetry_cell_setting 'orthorhombic'
loop_
_space_group_symop_operation_xyz
x,y,z
-x,-y,z
1/2-x,y,z
1/2+x,-y,z
1/2+x,1/2+y,1/2+z
1/2-x,1/2-y,1/2+z
-x,1/2+y,1/2+z
x,1/2-y,1/2+z
loop_
_atom_site_type_symbol
_atom_site_label
_atom_site_fract_x
_atom_site_fract_y
_atom_site_fract_z
Si Si1 0.132451 0.334593 0.403360
Si Si2 0.632409 0.660068 0.489732
Si Si3 0.633639 0.844191 0.234228
Si Si4 0.393170 0.428824 0.647950
Si Si5 0.393672 0.929664 0.619881
Si Si6 0.867698 0.156912 0.777174
Si Si7 0.866501 0.340806 0.033581
Si Si8 0.367565 0.834379 0.360219
O O1 0.250000 0.327669 0.403315
O O2 0.100418 0.300494 0.446532
O O3 0.105592 0.611346 0.388879
O O4 0.101956 0.108481 0.375382
O O5 0.750000 0.657414 0.488768
O O6 0.603398 0.895566 0.515266
O O7 0.602688 0.396175 0.508324
O O8 0.750000 0.838508 0.234948
O O9 0.601555 0.614212 0.261069
O O10 0.605066 0.826851 0.190566
O O11 0.603975 0.117190 0.249379
O O12 0.500000 0.500000 0.634382
O O13 0.349408 0.208799 0.622442
O O14 0.349193 0.708146 0.644954
O O15 0.397469 0.832948 0.577069
O O16 0.500000 0.000000 0.634212
O O17 0.750000 0.148250 0.778560
O O18 0.900049 0.242577 0.818867
O O19 0.750000 0.336825 0.034130
O O20 0.250000 0.843888 0.358704
#
# Coordination Sequence:
#
# PCOD9378525 Si02
#       8
#     8   8   8   8   8   8   8   8
#     4   9  15  23  37  58  88 126 159 185 221 270
#     4   9  17  28  42  65  96 126 157 193 233 274
#     4  10  19  31  48  69  95 125 155 193 238 282
#     4  10  21  36  52  70  93 121 154 195 239 283
#     4  10  21  36  52  70  93 121 154 195 239 283
#     4   9  17  28  42  65  96 126 157 193 233 274
#     4  10  19  31  48  69  95 125 155 193 238 282
#     4   9  15  23  37  58  88 126 159 185 221 270
#
# _framework density 24.561803000000001
#
# number of rings (size 3 to 8) (size 9 to 14) (size 15 to 20)
#    0.000    2.500    0.000    3.000    0.000    7.000 
#    0.000    0.000    0.000    0.000    0.000    0.000 
#    0.000   15.000    0.000    0.000    0.000    0.000 
#
# Total GULP energy -179003.437530 kJ/mol
# GULP energy per Si atom -5593.857423 kJ/mol
# Density = 2.450590 g / cm^3
# Si number density = 24.561803 Si / 1000 Ang^3
#
#
#
# Elastic Constant Matrix: (Units=GPa)
#
#
# Indices 1 2 3 4 5 6 
#
# 1 83.3555 6.9282 -13.7742 0.0000 0.0000 0.0000
# 2 6.9282 195.0815 60.3457 0.0000 0.0000 0.0000
# 3 -13.7742 60.3457 144.3677 0.0000 0.0000 0.0000
# 4 0.0000 0.0000 0.0000 50.2570 0.0000 0.0000
# 5 0.0000 0.0000 0.0000 0.0000 24.2730 0.0000
# 6 0.0000 0.0000 0.0000 0.0000 0.0000 2.7946
#
#
#
# Elastic Compliance Matrix: (Units=1/GPa)
#
#
# Indices 1 2 3 4 5 6 
#
# 1 0.012331 -0.000921 0.001562 0.000000 0.000000 0.000000
# 2 -0.000921 0.005956 -0.002578 0.000000 0.000000 0.000000
# 3 0.001562 -0.002578 0.008153 0.000000 0.000000 0.000000
# 4 0.000000 0.000000 0.000000 0.019898 0.000000 0.000000
# 5 0.000000 0.000000 0.000000 0.000000 0.041198 0.000000
# 6 0.000000 0.000000 0.000000 0.000000 0.000000 0.357835
#
#
# Mechanical properties :
#
#
# Convention : Reuss Voigt Hill
#
# Bulk Modulus (GPa) = 44.31314 58.86711 51.59013
# Shear Modulus (GPa) = 10.94648 40.08524 25.51586
#
# Velocity S-wave (km/s) = 2.11338 4.04420 3.22661
# Velocity P-wave (km/s) = 4.90264 6.76952 5.91026
#
# Compressibility (1/GPa) = 0.02256667
#
# Stress axis : x y z
#
# Youngs Moduli (GPa) = 81.09388 167.89538 122.65210
#
# Poissons Ratio (x) = 0.15463 -0.19152
# Poissons Ratio (y) = 0.07469 0.31614
# Poissons Ratio (z) = -0.12663 0.43275
#
# Static dielectric constant tensor:
#      x y z
#    x 2.027510 0.000000 0.000000 
#    y 0.000000 1.956910 0.000000 
#    z 0.000000 0.000000 1.852570 
# 
# From -- ./inp_files/25490.got.cif
#   From: 2010.05.17/outbox.cif.g08.bks.cpg/sg46_13_cif.got.tgz:25490.got - 2010.06.03 19:58:25.
