data_PCOD9378698
_publ_section_title
;
Structure prediction by ZEFSAII (Michael W. Deem and Ramdas Pophale) SiO2 
 PCOD9378698
Probable space group: I M A 2
;
_chemical_formula_sum "Si O2"
_cell_formula_units_Z 56
_cell_length_a 20.290138
_cell_length_b 18.068815
_cell_length_c 7.661738
_cell_angle_alpha 90.000000
_cell_angle_beta 90.000000
_cell_angle_gamma 90.000000
_cell_volume 2808.936807
_symmetry_space_group_name_H-M "I M A 2"
_symmetry_group_IT_number 46
_symmetry_cell_setting 'orthorhombic'
loop_
_space_group_symop_operation_xyz
x,y,z
-x,-y,z
1/2-x,y,z
1/2+x,-y,z
1/2+x,1/2+y,1/2+z
1/2-x,1/2-y,1/2+z
-x,1/2+y,1/2+z
x,1/2-y,1/2+z
loop_
_atom_site_type_symbol
_atom_site_label
_atom_site_fract_x
_atom_site_fract_y
_atom_site_fract_z
Si Si1 0.325395 0.654167 0.183590
Si Si2 0.895176 0.793129 0.677478
Si Si3 0.481444 0.168914 0.377561
Si Si4 0.554472 0.573025 0.588122
Si Si5 0.577858 0.094967 0.970338
Si Si6 0.371360 0.815303 0.305336
Si Si7 0.325720 0.337293 0.503468
O O1 0.250000 0.633259 0.227874
O O2 0.380001 0.609420 0.296441
O O3 0.337675 0.739518 0.242516
O O4 0.334751 0.650036 0.973366
O O5 0.944910 0.838386 0.559050
O O6 0.939835 0.731307 0.773845
O O7 0.843010 0.745740 0.564480
O O8 0.853024 0.841818 0.808071
O O9 0.478826 0.091319 0.274309
O O10 0.555491 0.198445 0.383427
O O11 0.500663 0.616578 0.465581
O O12 0.568256 0.490992 0.521926
O O13 0.625863 0.609249 0.605857
O O14 0.615014 0.136187 0.130937
O O15 0.250000 0.353820 0.522279
#
# Coordination Sequence:
#
# PCOD9378698 Si02
#       7
#     8   8   8   8   8   8   8
#     4  12  25  39  62  95 125 163 207 254 316 372
#     4   9  18  30  53  85 118 147 190 246 294 345
#     4   9  18  33  58  88 117 149 200 249 301 354
#     4   9  21  41  61  86 115 158 205 243 302 365
#     4  10  23  44  63  87 124 159 200 259 305 358
#     4  11  22  37  64  90 123 155 203 256 311 359
#     4  10  19  32  53  81 117 154 190 234 292 354
#
# _framework density 19.936368000000002
#
# number of rings (size 3 to 8) (size 9 to 14) (size 15 to 20)
#    0.000    2.000    1.429    1.714    8.000    1.143 
#    2.571    2.143    0.000    0.000    0.000    0.000 
#    0.000    0.000    0.000    0.000    0.000    0.000 
#
# Total GULP energy -155980.384027 kJ/mol
# GULP energy per Si atom -5570.728001 kJ/mol
# Density = 1.989099 g / cm^3
# Si number density = 19.936368 Si / 1000 Ang^3
#
#
#
# Elastic Constant Matrix: (Units=GPa)
#
#
# Indices 1 2 3 4 5 6 
#
# 1 121.2471 -3.4375 4.3871 0.0000 0.0000 0.0000
# 2 -3.4375 43.7310 0.4897 0.0000 0.0000 0.0000
# 3 4.3871 0.4897 63.2724 0.0000 0.0000 0.0000
# 4 0.0000 0.0000 0.0000 8.6362 0.0000 0.0000
# 5 0.0000 0.0000 0.0000 0.0000 18.6780 0.0000
# 6 0.0000 0.0000 0.0000 0.0000 0.0000 14.1571
#
#
#
# Elastic Compliance Matrix: (Units=1/GPa)
#
#
# Indices 1 2 3 4 5 6 
#
# 1 0.008287 0.000658 -0.000580 0.000000 0.000000 0.000000
# 2 0.000658 0.022921 -0.000223 0.000000 0.000000 0.000000
# 3 -0.000580 -0.000223 0.015847 0.000000 0.000000 0.000000
# 4 0.000000 0.000000 0.000000 0.115792 0.000000 0.000000
# 5 0.000000 0.000000 0.000000 0.000000 0.053539 0.000000
# 6 0.000000 0.000000 0.000000 0.000000 0.000000 0.070636
#
#
# Mechanical properties :
#
#
# Convention : Reuss Voigt Hill
#
# Bulk Modulus (GPa) = 21.38327 25.68102 23.53215
# Shear Modulus (GPa) = 16.50708 23.41499 19.96104
#
# Velocity S-wave (km/s) = 2.88060 3.43080 3.16767
# Velocity P-wave (km/s) = 4.67042 5.34820 5.02076
#
# Compressibility (1/GPa) = 0.04676552
#
# Stress axis : x y z
#
# Youngs Moduli (GPa) = 120.66732 43.62758 63.10499
#
# Poissons Ratio (x) = -0.02870 0.03658
# Poissons Ratio (y) = -0.07939 0.01407
# Poissons Ratio (z) = 0.06995 0.00973
#
# Static dielectric constant tensor:
#      x y z
#    x 1.717130 0.000000 0.000000 
#    y 0.000000 1.765110 0.000000 
#    z 0.000000 0.000000 1.770150 
# 
# From -- ./inp_files/6872.got.cif
#   From: 2010.05.17/outbox.cif.g08.bks.cpg/sg46_4_cif.got.tgz:6872.got - 2010.06.03 19:58:25.
