data_PCOD9378356
_publ_section_title
;
Structure prediction by ZEFSAII (Michael W. Deem and Ramdas Pophale) SiO2 
 PCOD9378356
Probable space group: I M A 2
;
_chemical_formula_sum "Si O2"
_cell_formula_units_Z 60
_cell_length_a 21.624078
_cell_length_b 14.138774
_cell_length_c 10.811608
_cell_angle_alpha 90.000000
_cell_angle_beta 90.000000
_cell_angle_gamma 90.000000
_cell_volume 3305.518886
_symmetry_space_group_name_H-M "I M A 2"
_symmetry_group_IT_number 46
_symmetry_cell_setting 'orthorhombic'
loop_
_space_group_symop_operation_xyz
x,y,z
-x,-y,z
1/2-x,y,z
1/2+x,-y,z
1/2+x,1/2+y,1/2+z
1/2-x,1/2-y,1/2+z
-x,1/2+y,1/2+z
x,1/2-y,1/2+z
loop_
_atom_site_type_symbol
_atom_site_label
_atom_site_fract_x
_atom_site_fract_y
_atom_site_fract_z
Si Si1 0.820965 0.688861 0.634440
Si Si2 0.025204 0.841290 0.563045
Si Si3 0.403511 0.472312 0.047229
Si Si4 0.402719 0.454690 0.762562
Si Si5 0.000000 0.500000 0.595040
Si Si6 0.584113 0.862952 0.935379
Si Si7 0.179721 0.107340 0.748117
Si Si8 0.501415 0.782217 0.293744
O O1 0.750000 0.683844 0.589112
O O2 0.842851 0.592381 0.701097
O O3 0.872422 0.698227 0.527097
O O4 0.824139 0.778994 0.725215
O O5 0.035553 0.806450 0.420962
O O6 0.027357 0.760090 0.667580
O O7 0.957573 0.892931 0.561641
O O8 0.070809 0.927526 0.594118
O O9 0.344490 0.438601 0.122285
O O10 0.391354 0.483750 0.901880
O O11 0.441061 0.530118 0.681006
O O12 0.453790 0.370481 0.766512
O O13 0.966306 0.576650 0.508905
O O14 0.633167 0.922467 0.856284
O O15 0.547125 0.799701 0.840474
O O16 0.250000 0.083409 0.775903
#
# Coordination Sequence:
#
# PCOD9378356 Si02
#       8
#     8   8   8   8   4   8   8   8
#     4  10  20  33  51  74 105 146 186 215 248 309
#     4  10  20  32  52  76 108 136 178 217 284 317
#     4  10  20  34  51  74 108 142 171 225 263 323
#     4  10  18  35  50  74 105 142 176 214 266 321
#     4  10  22  32  52  74 104 144 172 216 280 322
#     4  11  21  34  50  76 110 143 176 221 264 316
#     4  11  22  34  51  77 108 148 185 214 254 311
#     4  11  19  32  52  75 104 139 172 221 265 329
#
# _framework density 18.151461999999999
#
# number of rings (size 3 to 8) (size 9 to 14) (size 15 to 20)
#    0.000    1.600    2.667    5.200    1.867    0.533 
#    0.000    0.000    0.000    0.000    0.000    0.933 
#    0.000    0.000    0.000    0.000    0.000    0.000 
#
# Total GULP energy -167224.122210 kJ/mol
# GULP energy per Si atom -5574.137407 kJ/mol
# Density = 1.811015 g / cm^3
# Si number density = 18.151462 Si / 1000 Ang^3
#
#
#
# Elastic Constant Matrix: (Units=GPa)
#
#
# Indices 1 2 3 4 5 6 
#
# 1 66.7513 21.8110 22.6007 0.0000 0.0000 0.0000
# 2 21.8110 41.7754 25.8216 0.0000 0.0000 0.0000
# 3 22.6007 25.8216 87.1476 0.0000 0.0000 0.0000
# 4 0.0000 0.0000 0.0000 27.6180 0.0000 0.0000
# 5 0.0000 0.0000 0.0000 0.0000 15.7240 0.0000
# 6 0.0000 0.0000 0.0000 0.0000 0.0000 20.3072
#
#
#
# Elastic Compliance Matrix: (Units=1/GPa)
#
#
# Indices 1 2 3 4 5 6 
#
# 1 0.018452 -0.008173 -0.002364 0.000000 0.000000 0.000000
# 2 -0.008173 0.032924 -0.007636 0.000000 0.000000 0.000000
# 3 -0.002364 -0.007636 0.014350 0.000000 0.000000 0.000000
# 4 0.000000 0.000000 0.000000 0.036208 0.000000 0.000000
# 5 0.000000 0.000000 0.000000 0.000000 0.063597 0.000000
# 6 0.000000 0.000000 0.000000 0.000000 0.000000 0.049244
#
#
# Mechanical properties :
#
#
# Convention : Reuss Voigt Hill
#
# Bulk Modulus (GPa) = 34.03472 37.34900 35.69186
# Shear Modulus (GPa) = 19.16342 21.09256 20.12799
#
# Velocity S-wave (km/s) = 3.25276 3.41256 3.33361
# Velocity P-wave (km/s) = 5.73571 6.01235 5.87566
#
# Compressibility (1/GPa) = 0.02938176
#
# Stress axis : x y z
#
# Youngs Moduli (GPa) = 54.19552 30.37269 69.68501
#
# Poissons Ratio (x) = 0.24823 0.16471
# Poissons Ratio (y) = 0.44292 0.53211
# Poissons Ratio (z) = 0.12810 0.23192
#
# Static dielectric constant tensor:
#      x y z
#    x 1.621880 0.000000 0.000000 
#    y 0.000000 1.672400 0.000000 
#    z 0.000000 0.000000 1.715000 
# 
# From -- ./inp_files/12512.got.cif
#   From: 2010.05.17/outbox.cif.g08.bks.cpg/sg46_7_cif.got.tgz:12512.got - 2010.06.03 19:58:25.
