data_PCOD9378983
_publ_section_title
;
Structure prediction by ZEFSAII (Michael W. Deem and Ramdas Pophale) SiO2 
 PCOD9378983
Probable space group: I M A 2
;
_chemical_formula_sum "Si O2"
_cell_formula_units_Z 64
_cell_length_a 7.774800
_cell_length_b 31.682366
_cell_length_c 12.222725
_cell_angle_alpha 90.000000
_cell_angle_beta 90.000000
_cell_angle_gamma 90.000000
_cell_volume 3010.751236
_symmetry_space_group_name_H-M "I M A 2"
_symmetry_group_IT_number 46
_symmetry_cell_setting 'orthorhombic'
loop_
_space_group_symop_operation_xyz
x,y,z
-x,-y,z
1/2-x,y,z
1/2+x,-y,z
1/2+x,1/2+y,1/2+z
1/2-x,1/2-y,1/2+z
-x,1/2+y,1/2+z
x,1/2-y,1/2+z
loop_
_atom_site_type_symbol
_atom_site_label
_atom_site_fract_x
_atom_site_fract_y
_atom_site_fract_z
Si Si1 0.050035 0.371930 0.559130
Si Si2 0.049140 0.063305 0.690984
Si Si3 0.044388 0.453827 0.949997
Si Si4 0.959606 0.339343 0.197947
Si Si5 0.547807 0.205302 0.917684
Si Si6 0.542767 0.954283 0.930689
Si Si7 0.452140 0.872765 0.308100
Si Si8 0.039410 0.701277 0.968430
O O1 0.250000 0.368908 0.529731
O O2 0.979014 0.413735 0.498374
O O3 0.969047 0.328952 0.513672
O O4 0.033643 0.376210 0.688890
O O5 0.250000 0.051047 0.690326
O O6 0.973980 0.048784 0.574809
O O7 0.973508 0.047522 0.805926
O O8 0.032963 0.113734 0.694003
O O9 0.250000 0.449074 0.953865
O O10 0.000000 0.500000 0.905086
O O11 0.976016 0.415195 0.878495
O O12 0.750000 0.342808 0.200468
O O13 0.021063 0.315668 0.306799
O O14 0.009678 0.314600 0.088647
O O15 0.750000 0.211865 0.897468
O O16 0.476920 0.251437 0.945152
O O17 0.750000 0.951067 0.926408
O O18 0.500000 0.000000 0.979078
O O19 0.250000 0.866079 0.290108
O O20 0.517943 0.833078 0.378992
O O21 0.250000 0.701143 0.967129
#
# Coordination Sequence:
#
# PCOD9378983 Si02
#       8
#     8   8   8   8   8   8   8   8
#     4  11  24  42  60  84 122 159 196 247 301 357
#     4  10  20  37  59  87 123 156 187 239 299 354
#     4  11  23  39  62  90 122 157 199 246 298 359
#     4  10  19  34  60  90 119 153 195 245 293 349
#     4  10  21  37  62  91 118 155 201 246 293 351
#     4  10  22  39  60  85 116 152 191 238 293 348
#     4  11  23  41  64  87 118 159 203 251 301 355
#     4   9  20  37  60  90 121 153 196 248 297 347
#
# _framework density 21.257154
#
# number of rings (size 3 to 8) (size 9 to 14) (size 15 to 20)
#    0.000    1.750    2.500    1.500    1.750    2.500 
#    0.000    3.125    0.000    0.000    0.000    0.000 
#    0.000    0.000    0.000    0.000    0.000    0.000 
#
# Total GULP energy -178808.843983 kJ/mol
# GULP energy per Si atom -5587.776374 kJ/mol
# Density = 2.120877 g / cm^3
# Si number density = 21.257154 Si / 1000 Ang^3
#
#
#
# Elastic Constant Matrix: (Units=GPa)
#
#
# Indices 1 2 3 4 5 6 
#
# 1 30.5949 -16.8456 -10.6760 0.0001 0.0001 0.0000
# 2 -16.8456 170.7265 54.9868 0.0005 0.0005 0.0000
# 3 -10.6760 54.9868 114.7226 0.0008 0.0008 0.0000
# 4 0.0001 0.0005 0.0008 39.8061 0.0017 0.0000
# 5 0.0001 0.0005 0.0008 0.0017 46.4585 0.0001
# 6 0.0000 0.0000 0.0000 0.0000 0.0001 22.2256
#
#
#
# Elastic Compliance Matrix: (Units=1/GPa)
#
#
# Indices 1 2 3 4 5 6 
#
# 1 0.034906 0.002836 0.001889 0.000000 0.000000 0.000000
# 2 0.002836 0.007157 -0.003166 0.000000 0.000000 0.000000
# 3 0.001889 -0.003166 0.010410 0.000000 0.000000 0.000000
# 4 0.000000 0.000000 0.000000 0.025122 -0.000001 0.000000
# 5 0.000000 0.000000 0.000000 -0.000001 0.021525 0.000000
# 6 0.000000 0.000000 0.000000 0.000000 0.000000 0.044993
#
#
# Mechanical properties :
#
#
# Convention : Reuss Voigt Hill
#
# Bulk Modulus (GPa) = 17.98900 41.21940 29.60420
# Shear Modulus (GPa) = 31.34297 40.93663 36.13980
#
# Velocity S-wave (km/s) = 3.84404 4.39313 4.12773
# Velocity P-wave (km/s) = 5.30878 6.72055 6.05594
#
# Compressibility (1/GPa) = 0.05558954
#
# Stress axis : x y z
#
# Youngs Moduli (GPa) = 28.64864 139.72413 96.05994
#
# Poissons Ratio (x) = -0.39622 -0.18147
# Poissons Ratio (y) = -0.08124 0.30417
# Poissons Ratio (z) = -0.05412 0.44243
#
# Static dielectric constant tensor:
#      x y z
#    x 1.752710 0.000000 0.000000 
#    y 0.000000 1.742970 0.000000 
#    z 0.000000 0.000000 1.750010 
# 
# From -- ./inp_files/9750.got.cif
#   From: 2010.05.17/outbox.cif.g08.bks.cpg/sg46_5_cif.got.tgz:9750.got - 2010.06.03 19:58:25.
