data_PCOD9378782
_publ_section_title
;
Structure prediction by ZEFSAII (Michael W. Deem and Ramdas Pophale) SiO2 
 PCOD9378782
Probable space group: I M A 2
;
_chemical_formula_sum "Si O2"
_cell_formula_units_Z 60
_cell_length_a 15.748185
_cell_length_b 9.455673
_cell_length_c 19.169388
_cell_angle_alpha 90.000000
_cell_angle_beta 90.000000
_cell_angle_gamma 90.000000
_cell_volume 2854.507581
_symmetry_space_group_name_H-M "I M A 2"
_symmetry_group_IT_number 46
_symmetry_cell_setting 'orthorhombic'
loop_
_space_group_symop_operation_xyz
x,y,z
-x,-y,z
1/2-x,y,z
1/2+x,-y,z
1/2+x,1/2+y,1/2+z
1/2-x,1/2-y,1/2+z
-x,1/2+y,1/2+z
x,1/2-y,1/2+z
loop_
_atom_site_type_symbol
_atom_site_label
_atom_site_fract_x
_atom_site_fract_y
_atom_site_fract_z
Si Si1 0.063873 0.273164 0.041050
Si Si2 0.000000 0.500000 0.280490
Si Si3 0.342782 0.554810 0.197676
Si Si4 0.344830 0.283320 0.674473
Si Si5 0.033134 0.297689 0.393850
Si Si6 0.907382 0.543188 0.805016
Si Si7 0.621774 0.083654 0.541646
Si Si8 0.841611 0.212283 0.394013
O O1 0.089213 0.194751 0.111661
O O2 0.122410 0.413124 0.034547
O O3 0.971857 0.346847 0.043880
O O4 0.065702 0.178304 0.971707
O O5 0.067792 0.590243 0.235364
O O6 0.944428 0.596545 0.332098
O O7 0.250000 0.590650 0.228836
O O8 0.348856 0.383717 0.192511
O O9 0.343157 0.612373 0.118736
O O10 0.250000 0.313436 0.648304
O O11 0.361526 0.373488 0.743520
O O12 0.930190 0.297040 0.393192
O O13 0.068370 0.145909 0.369645
O O14 0.856779 0.411357 0.836855
O O15 0.000000 0.500000 0.776931
O O16 0.660542 0.145779 0.471528
O O17 0.750000 0.282311 0.382036
#
# Coordination Sequence:
#
# PCOD9378782 Si02
#       8
#     8   4   8   8   8   8   8   8
#     4   9  17  33  51  77 107 141 181 222 264 321
#     4  12  22  38  56  74 112 156 180 218 266 322
#     4  10  20  32  52  83 110 140 179 219 271 326
#     4  10  19  33  53  80 109 135 176 226 272 319
#     4  10  21  36  54  77 107 145 188 214 268 330
#     4  10  19  35  54  81 108 140 180 223 274 330
#     4   9  16  30  55  81 109 136 173 226 277 316
#     4  10  19  33  58  84 109 136 174 232 278 317
#
# _framework density 21.019386000000001
#
# number of rings (size 3 to 8) (size 9 to 14) (size 15 to 20)
#    0.000    2.133    2.667    2.400    0.000    1.067 
#    1.200    0.667    0.000    0.000    0.000    0.000 
#    0.000    0.000    0.000    0.000    0.000    0.000 
#
# Total GULP energy -167202.615156 kJ/mol
# GULP energy per Si atom -5573.420505 kJ/mol
# Density = 2.097155 g / cm^3
# Si number density = 21.019386 Si / 1000 Ang^3
#
#
#
# Elastic Constant Matrix: (Units=GPa)
#
#
# Indices 1 2 3 4 5 6 
#
# 1 71.6885 -8.6109 35.1369 0.0000 0.0000 0.0000
# 2 -8.6109 8.5283 14.7374 0.0000 0.0000 0.0000
# 3 35.1369 14.7374 133.5873 0.0000 0.0000 0.0000
# 4 0.0000 0.0000 0.0000 27.0860 0.0000 0.0000
# 5 0.0000 0.0000 0.0000 0.0000 -11.7619 0.0000
# 6 0.0000 0.0000 0.0000 0.0000 0.0000 7.2149
#
#
#
# Elastic Compliance Matrix: (Units=1/GPa)
#
#
# Indices 1 2 3 4 5 6 
#
# 1 0.025090 0.045391 -0.011607 0.000000 0.000000 0.000000
# 2 0.045391 0.226994 -0.036981 0.000000 0.000000 0.000000
# 3 -0.011607 -0.036981 0.014618 0.000000 0.000000 0.000000
# 4 0.000000 0.000000 0.000000 0.036919 0.000000 0.000000
# 5 0.000000 0.000000 0.000000 0.000000 -0.085020 0.000000
# 6 0.000000 0.000000 0.000000 0.000000 0.000000 0.138602
#
#
# Mechanical properties :
#
#
# Convention : Reuss Voigt Hill
#
# Bulk Modulus (GPa) = 3.84159 32.92564 18.38362
# Shear Modulus (GPa) = 11.10205 16.01050 13.55627
#
# Velocity S-wave (km/s) = 2.30071 2.76289 2.54232
# Velocity P-wave (km/s) = 2.98150 5.08689 4.16928
#
# Compressibility (1/GPa) = 0.26030867
#
# Stress axis : x y z
#
# Youngs Moduli (GPa) = 39.85585 4.40541 68.40661
#
# Poissons Ratio (x) = -0.19997 0.79400
# Poissons Ratio (y) = -1.80911 2.52975
# Poissons Ratio (z) = 0.46261 0.16292
#
# Static dielectric constant tensor:
#      x y z
#    x 1.803290 0.000000 0.000000 
#    y 0.000000 1.765350 0.000000 
#    z 0.000000 0.000000 1.763540 
# 
# From -- ./inp_files/16738.got.cif
#   From: 2010.05.17/outbox.cif.g08.bks.cpg/sg46_9_cif.got.tgz:16738.got - 2010.06.03 19:58:25.
