data_PCOD9378470
_publ_section_title
;
Structure prediction by ZEFSAII (Michael W. Deem and Ramdas Pophale) SiO2 
 PCOD9378470
Probable space group: I M A 2
;
_chemical_formula_sum "Si O2"
_cell_formula_units_Z 40
_cell_length_a 8.368246
_cell_length_b 20.962229
_cell_length_c 8.545008
_cell_angle_alpha 90.000000
_cell_angle_beta 90.000000
_cell_angle_gamma 90.000000
_cell_volume 1498.940429
_symmetry_space_group_name_H-M "I M A 2"
_symmetry_group_IT_number 46
_symmetry_cell_setting 'orthorhombic'
loop_
_space_group_symop_operation_xyz
x,y,z
-x,-y,z
1/2-x,y,z
1/2+x,-y,z
1/2+x,1/2+y,1/2+z
1/2-x,1/2-y,1/2+z
-x,1/2+y,1/2+z
x,1/2-y,1/2+z
loop_
_atom_site_type_symbol
_atom_site_label
_atom_site_fract_x
_atom_site_fract_y
_atom_site_fract_z
Si Si1 0.929313 0.941956 0.150850
Si Si2 0.750000 0.209976 0.149032
Si Si3 0.437487 0.929732 0.812438
Si Si4 0.250000 0.657072 0.009779
Si Si5 0.565095 0.805922 0.938451
Si Si6 0.577302 0.845102 0.423317
O O1 0.750000 0.954639 0.095717
O O2 0.922382 0.881969 0.261349
O O3 0.000000 0.000000 0.250129
O O4 0.043096 0.937309 0.002247
O O5 0.750000 0.184423 0.326740
O O6 0.750000 0.286627 0.136842
O O7 0.590373 0.192276 0.052031
O O8 0.250000 0.922187 0.773434
O O9 0.534141 0.861510 0.810494
O O10 0.500000 0.000000 0.752887
O O11 0.423968 0.626470 0.012431
O O12 0.750000 0.815560 0.994933
O O13 0.563481 0.730955 0.891879
O O14 0.750000 0.855651 0.499604
#
# Coordination Sequence:
#
# PCOD9378470 Si02
#       6
#     8   4   8   4   8   8
#     4  10  19  30  45  70 101 141 179 217 277 340
#     4  10  20  34  50  80 102 148 177 228 272 338
#     4  11  20  30  45  71 102 141 180 218 277 342
#     4  10  20  32  54  72 110 138 185 220 278 324
#     4  10  19  34  50  71 105 145 185 228 271 333
#     4   9  20  33  49  72 103 147 184 223 271 333
#
# _framework density 26.685516
#
# number of rings (size 3 to 8) (size 9 to 14) (size 15 to 20)
#    0.000    2.000    1.000    4.800    2.800    2.400 
#    0.000    0.000    0.000    0.000    0.000    0.000 
#    0.000   40.000    6.400    0.000    0.000    0.000 
#
# Total GULP energy -111569.969247 kJ/mol
# GULP energy per Si atom -5578.498462 kJ/mol
# Density = 2.662478 g / cm^3
# Si number density = 26.685516 Si / 1000 Ang^3
#
#
#
# Elastic Constant Matrix: (Units=GPa)
#
#
# Indices 1 2 3 4 5 6 
#
# 1 229.6242 44.8164 20.3134 0.0009 0.0008 -0.0004
# 2 44.8164 97.6684 -6.4630 -0.0013 -0.0019 0.0003
# 3 20.3134 -6.4630 55.4686 0.0036 0.0051 -0.0014
# 4 0.0009 -0.0013 0.0036 9.4757 0.0011 -0.0004
# 5 0.0008 -0.0019 0.0051 0.0011 46.2820 0.0000
# 6 -0.0004 0.0003 -0.0014 -0.0004 0.0000 32.1952
#
#
#
# Elastic Compliance Matrix: (Units=1/GPa)
#
#
# Indices 1 2 3 4 5 6 
#
# 1 0.005020 -0.002444 -0.002123 0.000000 0.000000 0.000000
# 2 -0.002444 0.011508 0.002236 0.000001 0.000000 0.000000
# 3 -0.002123 0.002236 0.019066 -0.000007 -0.000002 0.000001
# 4 0.000000 0.000001 -0.000007 0.105533 -0.000002 0.000001
# 5 0.000000 0.000000 -0.000002 -0.000002 0.021607 0.000000
# 6 0.000000 0.000000 0.000001 0.000001 0.000000 0.031061
#
#
# Mechanical properties :
#
#
# Convention : Reuss Voigt Hill
#
# Bulk Modulus (GPa) = 32.32905 55.56609 43.94757
# Shear Modulus (GPa) = 23.95013 39.19687 31.57350
#
# Velocity S-wave (km/s) = 2.99907 3.83671 3.44346
# Velocity P-wave (km/s) = 4.91261 6.36356 5.68457
#
# Compressibility (1/GPa) = 0.03093193
#
# Stress axis : x y z
#
# Youngs Moduli (GPa) = 199.21395 86.89552 52.44874
#
# Poissons Ratio (x) = 0.21236 0.11135
# Poissons Ratio (y) = 0.48685 -0.11727
# Poissons Ratio (z) = 0.42294 -0.19429
#
# Static dielectric constant tensor:
#      x y z
#    x 2.114750 0.000000 0.000000 
#    y 0.000000 2.345440 0.000000 
#    z 0.000000 0.000000 2.174560 
# 
# From -- ./inp_files/9176.got.cif
#   From: 2010.05.17/outbox.cif.g08.bks.cpg/sg46_5_cif.got.tgz:9176.got - 2010.06.03 19:58:25.
