data_PCOD9378768
_publ_section_title
;
Structure prediction by ZEFSAII (Michael W. Deem and Ramdas Pophale) SiO2 
 PCOD9378768
Probable space group: I M A 2
;
_chemical_formula_sum "Si O2"
_cell_formula_units_Z 56
_cell_length_a 8.778105
_cell_length_b 19.414020
_cell_length_c 18.503666
_cell_angle_alpha 90.000000
_cell_angle_beta 90.000000
_cell_angle_gamma 90.000000
_cell_volume 3153.363415
_symmetry_space_group_name_H-M "I M A 2"
_symmetry_group_IT_number 46
_symmetry_cell_setting 'orthorhombic'
loop_
_space_group_symop_operation_xyz
x,y,z
-x,-y,z
1/2-x,y,z
1/2+x,-y,z
1/2+x,1/2+y,1/2+z
1/2-x,1/2-y,1/2+z
-x,1/2+y,1/2+z
x,1/2-y,1/2+z
loop_
_atom_site_type_symbol
_atom_site_label
_atom_site_fract_x
_atom_site_fract_y
_atom_site_fract_z
Si Si1 0.075907 0.340024 0.182710
Si Si2 0.433548 0.576057 0.313019
Si Si3 0.432812 0.694748 0.029028
Si Si4 0.569216 0.430764 0.776919
Si Si5 0.576959 0.795088 0.280648
Si Si6 0.566956 0.292652 0.407086
Si Si7 0.068070 0.069891 0.438600
O O1 0.250000 0.362735 0.167728
O O2 0.081752 0.269409 0.227666
O O3 0.994267 0.394328 0.236199
O O4 0.990606 0.320079 0.109396
O O5 0.500000 0.500000 0.326136
O O6 0.250000 0.573168 0.311427
O O7 0.480374 0.632868 0.374499
O O8 0.250000 0.689081 0.026934
O O9 0.474211 0.766697 0.987852
O O10 0.509013 0.634926 0.981880
O O11 0.500000 0.500000 0.742925
O O12 0.750000 0.435599 0.779640
O O13 0.513936 0.358285 0.745659
O O14 0.500633 0.426978 0.857953
O O15 0.750000 0.817161 0.297171
O O16 0.498172 0.764753 0.352261
O O17 0.750000 0.291060 0.402066
O O18 0.250000 0.066504 0.435933
O O19 0.000000 0.000000 0.472136
#
# Coordination Sequence:
#
# PCOD9378768 Si02
#       7
#     8   8   8   8   8   8   8
#     4  10  22  37  54  79 109 143 181 223 272 329
#     4  10  20  37  59  84 111 144 184 231 280 333
#     4  11  21  35  54  79 109 144 182 224 271 326
#     4  11  20  31  49  74 103 134 170 210 256 306
#     4  10  19  33  53  76 103 135 176 222 266 315
#     4   9  19  34  55  79 106 139 180 225 273 326
#     4  11  21  33  49  73 105 139 173 211 254 304
#
# _framework density 17.758814999999998
#
# number of rings (size 3 to 8) (size 9 to 14) (size 15 to 20)
#    0.000    1.714    1.429    5.143    0.000    3.429 
#    0.000    2.857    0.000    0.857    0.000    4.000 
#    0.000    0.000    0.000    0.000    0.000    0.000 
#
# Total GULP energy -156118.070102 kJ/mol
# GULP energy per Si atom -5575.645361 kJ/mol
# Density = 1.771840 g / cm^3
# Si number density = 17.758815 Si / 1000 Ang^3
#
#
#
# Elastic Constant Matrix: (Units=GPa)
#
#
# Indices 1 2 3 4 5 6 
#
# 1 94.5950 49.9550 16.6948 0.0000 0.0000 0.0000
# 2 49.9550 128.4345 30.1451 0.0000 0.0000 0.0000
# 3 16.6948 30.1451 46.3271 0.0000 0.0000 0.0000
# 4 0.0000 0.0000 0.0000 14.5749 0.0000 0.0000
# 5 0.0000 0.0000 0.0000 0.0000 19.4440 0.0000
# 6 0.0000 0.0000 0.0000 0.0000 0.0000 31.0110
#
#
#
# Elastic Compliance Matrix: (Units=1/GPa)
#
#
# Indices 1 2 3 4 5 6 
#
# 1 0.013416 -0.004820 -0.001699 0.000000 0.000000 0.000000
# 2 -0.004820 0.010921 -0.005369 0.000000 0.000000 0.000000
# 3 -0.001699 -0.005369 0.025692 0.000000 0.000000 0.000000
# 4 0.000000 0.000000 0.000000 0.068611 0.000000 0.000000
# 5 0.000000 0.000000 0.000000 0.000000 0.051430 0.000000
# 6 0.000000 0.000000 0.000000 0.000000 0.000000 0.032247
#
#
# Mechanical properties :
#
#
# Convention : Reuss Voigt Hill
#
# Bulk Modulus (GPa) = 38.09015 51.43851 44.76433
# Shear Modulus (GPa) = 21.29076 24.51007 22.90041
#
# Velocity S-wave (km/s) = 3.46625 3.71909 3.59489
# Velocity P-wave (km/s) = 6.12495 6.88985 6.51863
#
# Compressibility (1/GPa) = 0.02625351
#
# Stress axis : x y z
#
# Youngs Moduli (GPa) = 74.53561 91.56702 38.92303
#
# Poissons Ratio (x) = 0.44132 0.06612
# Poissons Ratio (y) = 0.35924 0.20900
# Poissons Ratio (z) = 0.12661 0.49166
#
# Static dielectric constant tensor:
#      x y z
#    x 1.611400 0.000000 0.000000 
#    y 0.000000 1.682510 0.000000 
#    z 0.000000 0.000000 1.609120 
# 
# From -- ./inp_files/21238.got.cif
#   From: 2010.05.17/outbox.cif.g08.bks.cpg/sg46_11_cif.got.tgz:21238.got - 2010.06.03 19:58:25.
