data_PCOD9378509
_publ_section_title
;
Structure prediction by ZEFSAII (Michael W. Deem and Ramdas Pophale) SiO2 
 PCOD9378509
Probable space group: I M A 2
;
_chemical_formula_sum "Si O2"
_cell_formula_units_Z 40
_cell_length_a 16.709538
_cell_length_b 26.217324
_cell_length_c 5.089326
_cell_angle_alpha 90.000000
_cell_angle_beta 90.000000
_cell_angle_gamma 90.000000
_cell_volume 2229.528736
_symmetry_space_group_name_H-M "I M A 2"
_symmetry_group_IT_number 46
_symmetry_cell_setting 'orthorhombic'
loop_
_space_group_symop_operation_xyz
x,y,z
-x,-y,z
1/2-x,y,z
1/2+x,-y,z
1/2+x,1/2+y,1/2+z
1/2-x,1/2-y,1/2+z
-x,1/2+y,1/2+z
x,1/2-y,1/2+z
loop_
_atom_site_type_symbol
_atom_site_label
_atom_site_fract_x
_atom_site_fract_y
_atom_site_fract_z
Si Si1 0.158058 0.622354 0.647750
Si Si2 0.466609 0.582622 0.271316
Si Si3 0.660408 0.020491 0.506209
Si Si4 0.153197 0.720708 0.983138
Si Si5 0.449052 0.052677 0.273552
O O1 0.250000 0.631378 0.558497
O O2 0.156520 0.568154 0.801521
O O3 0.135410 0.666182 0.854524
O O4 0.096921 0.620450 0.406212
O O5 0.500000 0.500000 0.777092
O O6 0.534884 0.574654 0.488362
O O7 0.407498 0.533782 0.220994
O O8 0.511222 0.588840 0.994479
O O9 0.750000 0.019745 0.616318
O O10 0.636816 0.968183 0.362032
O O11 0.250000 0.722398 0.996774
O O12 0.125483 0.762879 0.770573
#
# Coordination Sequence:
#
# PCOD9378509 Si02
#       5
#     8   8   8   8   8
#     4  10  20  31  47  67  86 114 159 199 223 255
#     4  11  19  33  45  64  87 118 150 193 224 268
#     4  10  21  32  47  68  90 118 159 201 224 258
#     4   9  19  32  44  59  84 113 143 187 236 268
#     4  10  19  31  46  60  89 117 146 188 230 268
#
# _framework density 17.941013000000002
#
# number of rings (size 3 to 8) (size 9 to 14) (size 15 to 20)
#    0.000    2.000    4.000    2.400    2.800    0.000 
#    0.000    0.000    0.000    0.000    0.000    0.000 
#    0.000    0.000    0.000    0.000    0.000   20.000 
#
# Total GULP energy -111472.810125 kJ/mol
# GULP energy per Si atom -5573.640506 kJ/mol
# Density = 1.790018 g / cm^3
# Si number density = 17.941013 Si / 1000 Ang^3
#
#
#
# Elastic Constant Matrix: (Units=GPa)
#
#
# Indices 1 2 3 4 5 6 
#
# 1 41.9106 19.0302 8.5859 0.0000 0.0000 0.0000
# 2 19.0302 42.3459 8.9409 0.0000 0.0000 0.0000
# 3 8.5859 8.9409 84.7114 0.0000 -0.0001 0.0001
# 4 0.0000 0.0000 0.0000 23.5991 0.0000 0.0000
# 5 0.0000 0.0000 -0.0001 0.0000 15.9114 0.0000
# 6 0.0000 0.0000 0.0001 0.0000 0.0000 10.0902
#
#
#
# Elastic Compliance Matrix: (Units=1/GPa)
#
#
# Indices 1 2 3 4 5 6 
#
# 1 0.030205 -0.013223 -0.001666 0.000000 0.000000 0.000000
# 2 -0.013223 0.029942 -0.001820 0.000000 0.000000 0.000000
# 3 -0.001666 -0.001820 0.012166 0.000000 0.000000 0.000000
# 4 0.000000 0.000000 0.000000 0.042374 0.000000 0.000000
# 5 0.000000 0.000000 0.000000 0.000000 0.062848 0.000000
# 6 0.000000 0.000000 0.000000 0.000000 0.000000 0.099106
#
#
# Mechanical properties :
#
#
# Convention : Reuss Voigt Hill
#
# Bulk Modulus (GPa) = 25.70973 26.89799 26.30386
# Shear Modulus (GPa) = 15.47876 18.74754 17.11315
#
# Velocity S-wave (km/s) = 2.94046 3.23608 3.09181
# Velocity P-wave (km/s) = 5.08819 5.38405 5.23821
#
# Compressibility (1/GPa) = 0.03889579
#
# Stress axis : x y z
#
# Youngs Moduli (GPa) = 33.10660 33.39844 82.19812
#
# Poissons Ratio (x) = 0.44161 0.13693
# Poissons Ratio (y) = 0.43775 0.14960
# Poissons Ratio (z) = 0.05515 0.06079
#
# Static dielectric constant tensor:
#      x y z
#    x 1.655150 0.000000 0.000000 
#    y 0.000000 1.681780 0.000000 
#    z 0.000000 0.000000 1.708890 
# 
# From -- ./inp_files/1743.got.cif
#   From: 2010.05.17/outbox.cif.g08.bks.cpg/sg46_1_cif.got.tgz:1743.got - 2010.06.03 19:58:25.
