data_PCOD9378511
_publ_section_title
;
Structure prediction by ZEFSAII (Michael W. Deem and Ramdas Pophale) SiO2 
 PCOD9378511
Probable space group: I M A 2
;
_chemical_formula_sum "Si O2"
_cell_formula_units_Z 64
_cell_length_a 8.626222
_cell_length_b 23.688537
_cell_length_c 14.132363
_cell_angle_alpha 90.000000
_cell_angle_beta 90.000000
_cell_angle_gamma 90.000000
_cell_volume 2887.843503
_symmetry_space_group_name_H-M "I M A 2"
_symmetry_group_IT_number 46
_symmetry_cell_setting 'orthorhombic'
loop_
_space_group_symop_operation_xyz
x,y,z
-x,-y,z
1/2-x,y,z
1/2+x,-y,z
1/2+x,1/2+y,1/2+z
1/2-x,1/2-y,1/2+z
-x,1/2+y,1/2+z
x,1/2-y,1/2+z
loop_
_atom_site_type_symbol
_atom_site_label
_atom_site_fract_x
_atom_site_fract_y
_atom_site_fract_z
Si Si1 0.427406 0.706550 0.980070
Si Si2 0.073465 0.179660 0.985164
Si Si3 0.928086 0.793391 0.759948
Si Si4 0.928750 0.080832 0.541896
Si Si5 0.567896 0.825709 0.284113
Si Si6 0.935639 0.584086 0.234876
Si Si7 0.434781 0.558516 0.825911
Si Si8 0.565282 0.440531 0.441358
O O1 0.250000 0.714158 0.944590
O O2 0.482838 0.765628 0.024186
O O3 0.540246 0.689359 0.894226
O O4 0.428138 0.649249 0.039194
O O5 0.250000 0.178239 0.020495
O O6 0.077040 0.195002 0.873027
O O7 0.000372 0.117051 0.989240
O O8 0.750000 0.791557 0.725461
O O9 0.997161 0.732103 0.738640
O O10 0.997838 0.851666 0.726922
O O11 0.750000 0.062265 0.551471
O O12 0.986348 0.063740 0.436760
O O13 0.025114 0.060172 0.631868
O O14 0.750000 0.830120 0.264780
O O15 0.489681 0.885921 0.270066
O O16 0.750000 0.583386 0.250319
O O17 0.013791 0.561301 0.330287
O O18 0.500000 0.500000 0.787456
O O19 0.250000 0.558190 0.827013
O O20 0.500000 0.500000 0.480139
O O21 0.750000 0.440075 0.447020
#
# Coordination Sequence:
#
# PCOD9378511 Si02
#       8
#     8   8   8   8   8   8   8   8
#     4   9  16  27  43  63  86 111 141 178 220 263
#     4   9  16  28  45  65  86 108 140 179 221 265
#     4   7  13  25  41  61  82 104 132 170 213 257
#     4   9  19  32  43  60  88 119 152 186 217 255
#     4   9  15  26  44  62  82 107 136 175 222 263
#     4  10  19  31  46  64  87 116 151 185 217 256
#     4  10  20  32  44  60  84 113 148 184 217 258
#     4  11  21  33  47  63  87 118 151 185 222 261
#
# _framework density 22.161866
#
# number of rings (size 3 to 8) (size 9 to 14) (size 15 to 20)
#    0.000    2.750    0.000    5.250    0.000    3.500 
#    0.000    3.125    0.000    0.000    0.000    0.000 
#    0.000    1.000    0.000    7.750    0.000    5.250 
#
# Total GULP energy -178271.257148 kJ/mol
# GULP energy per Si atom -5570.976786 kJ/mol
# Density = 2.211142 g / cm^3
# Si number density = 22.161866 Si / 1000 Ang^3
#
#
#
# Elastic Constant Matrix: (Units=GPa)
#
#
# Indices 1 2 3 4 5 6 
#
# 1 68.0812 45.0347 -1.7228 -0.0001 0.0000 0.0000
# 2 45.0347 223.3066 -7.2060 0.0000 0.0000 0.0000
# 3 -1.7228 -7.2060 25.9633 -0.0003 0.0000 0.0000
# 4 -0.0001 0.0000 -0.0003 -15.0724 0.0000 0.0000
# 5 0.0000 0.0000 0.0000 0.0000 -6.4953 0.0000
# 6 0.0000 0.0000 0.0000 0.0000 0.0000 34.0830
#
#
#
# Elastic Compliance Matrix: (Units=1/GPa)
#
#
# Indices 1 2 3 4 5 6 
#
# 1 0.016950 -0.003413 0.000178 0.000000 0.000000 0.000000
# 2 -0.003413 0.005206 0.001218 0.000000 0.000000 0.000000
# 3 0.000178 0.001218 0.038866 -0.000001 0.000000 0.000000
# 4 0.000000 0.000000 -0.000001 -0.066346 0.000000 0.000000
# 5 0.000000 0.000000 0.000000 0.000000 -0.153957 0.000000
# 6 0.000000 0.000000 0.000000 0.000000 0.000000 0.029340
#
#
# Mechanical properties :
#
#
# Convention : Reuss Voigt Hill
#
# Bulk Modulus (GPa) = 17.54746 43.28478 30.41612
# Shear Modulus (GPa) = -46.76765 21.25271 -12.75747
#
# Velocity S-wave (km/s) = -4.59876 3.10009 -2.40187
# Velocity P-wave (km/s) = 4.50145 5.69102 2.46218
#
# Compressibility (1/GPa) = 0.05698832
#
# Stress axis : x y z
#
# Youngs Moduli (GPa) = 58.99613 192.09694 25.72955
#
# Poissons Ratio (x) = 0.65556 -0.00457
# Poissons Ratio (y) = 0.20133 -0.03135
# Poissons Ratio (z) = -0.01048 -0.23404
#
# Static dielectric constant tensor:
#      x y z
#    x 1.782430 0.000000 0.000000 
#    y 0.000000 1.879860 0.000000 
#    z 0.000000 0.000000 1.847750 
# 
# From -- ./inp_files/21427.got.cif
#   From: 2010.05.17/outbox.cif.g08.bks.cpg/sg46_11_cif.got.tgz:21427.got - 2010.06.03 19:58:25.
