data_PCOD9378459
_publ_section_title
;
Structure prediction by ZEFSAII (Michael W. Deem and Ramdas Pophale) SiO2 
 PCOD9378459
Probable space group: I M A 2
;
_chemical_formula_sum "Si O2"
_cell_formula_units_Z 64
_cell_length_a 8.953117
_cell_length_b 13.477842
_cell_length_c 23.120898
_cell_angle_alpha 90.000000
_cell_angle_beta 90.000000
_cell_angle_gamma 90.000000
_cell_volume 2789.968620
_symmetry_space_group_name_H-M "I M A 2"
_symmetry_group_IT_number 46
_symmetry_cell_setting 'orthorhombic'
loop_
_space_group_symop_operation_xyz
x,y,z
-x,-y,z
1/2-x,y,z
1/2+x,-y,z
1/2+x,1/2+y,1/2+z
1/2-x,1/2-y,1/2+z
-x,1/2+y,1/2+z
x,1/2-y,1/2+z
loop_
_atom_site_type_symbol
_atom_site_label
_atom_site_fract_x
_atom_site_fract_y
_atom_site_fract_z
Si Si1 0.416411 0.628519 0.890310
Si Si2 0.076526 0.900967 0.100877
Si Si3 0.070110 0.825994 0.621921
Si Si4 0.930065 0.312963 0.248697
Si Si5 0.915374 0.870710 0.986143
Si Si6 0.918856 0.366173 0.372995
Si Si7 0.581603 0.633142 0.004721
Si Si8 0.575162 0.600999 0.774197
O O1 0.250000 0.590114 0.876361
O O2 0.406354 0.747744 0.884757
O O3 0.469077 0.601264 0.954270
O O4 0.539435 0.601079 0.842941
O O5 0.250000 0.907367 0.112942
O O6 0.039936 0.900005 0.032465
O O7 0.026291 0.791580 0.120916
O O8 0.000000 0.000000 0.124177
O O9 0.250000 0.831210 0.612880
O O10 0.033402 0.860729 0.686786
O O11 0.986523 0.877363 0.568713
O O12 0.750000 0.300736 0.251250
O O13 0.972254 0.372918 0.306626
O O14 0.000425 0.202924 0.252408
O O15 0.750000 0.909292 0.000891
O O16 0.906996 0.751606 0.992679
O O17 0.965420 0.898165 0.921854
O O18 0.750000 0.406614 0.379123
O O19 0.750000 0.592586 0.000706
O O20 0.500000 0.500000 0.751999
O O21 0.750000 0.601681 0.762512
#
# Coordination Sequence:
#
# PCOD9378459 Si02
#       8
#     8   8   8   8   8   8   8   8
#     4   9  16  28  45  63  83 108 139 176 220 264
#     4  10  19  30  43  59  82 112 146 180 214 250
#     4   9  18  31  45  61  85 118 151 182 215 253
#     4   9  18  32  46  62  86 117 152 184 215 254
#     4   9  16  26  41  60  81 104 134 172 214 258
#     4   8  14  25  42  61  81 105 134 172 216 257
#     4   9  16  26  42  64  86 108 138 177 219 260
#     4  11  21  32  45  62  86 116 150 185 221 260
#
# _framework density 22.939325
#
# number of rings (size 3 to 8) (size 9 to 14) (size 15 to 20)
#    0.000    2.750    0.000    3.375    0.000    7.500 
#    0.000    1.250    0.000    0.000    0.000    0.000 
#    0.000    1.000    0.000    8.000    0.000    5.500 
#
# Total GULP energy -178688.515932 kJ/mol
# GULP energy per Si atom -5584.016123 kJ/mol
# Density = 2.288711 g / cm^3
# Si number density = 22.939325 Si / 1000 Ang^3
#
#
#
# Elastic Constant Matrix: (Units=GPa)
#
#
# Indices 1 2 3 4 5 6 
#
# 1 47.2597 4.9008 22.6905 0.0000 0.0000 0.0000
# 2 4.9008 53.7699 -14.9918 0.0000 0.0000 0.0000
# 3 22.6905 -14.9918 166.6160 0.0000 0.0000 0.0000
# 4 0.0000 0.0000 0.0000 -11.6550 0.0000 0.0000
# 5 0.0000 0.0000 0.0000 0.0000 17.7605 0.0000
# 6 0.0000 0.0000 0.0000 0.0000 0.0000 19.9925
#
#
#
# Elastic Compliance Matrix: (Units=1/GPa)
#
#
# Indices 1 2 3 4 5 6 
#
# 1 0.023121 -0.003062 -0.003424 0.000000 0.000000 0.000000
# 2 -0.003062 0.019482 0.002170 0.000000 0.000000 0.000000
# 3 -0.003424 0.002170 0.006663 0.000000 0.000000 0.000000
# 4 0.000000 0.000000 0.000000 -0.085800 0.000000 0.000000
# 5 0.000000 0.000000 0.000000 0.000000 0.056305 0.000000
# 6 0.000000 0.000000 0.000000 0.000000 0.000000 0.050019
#
#
# Mechanical properties :
#
#
# Convention : Reuss Voigt Hill
#
# Bulk Modulus (GPa) = 24.61010 32.53828 28.57419
# Shear Modulus (GPa) = 54.36715 22.22269 38.29492
#
# Velocity S-wave (km/s) = 4.87359 3.11587 4.09026
# Velocity P-wave (km/s) = 6.51312 5.21154 5.89834
#
# Compressibility (1/GPa) = 0.04063372
#
# Stress axis : x y z
#
# Youngs Moduli (GPa) = 43.25021 51.32980 150.07345
#
# Poissons Ratio (x) = 0.15718 0.51389
# Poissons Ratio (y) = 0.13244 -0.32565
# Poissons Ratio (z) = 0.14810 -0.11138
#
# Static dielectric constant tensor:
#      x y z
#    x 1.796680 0.000000 0.000000 
#    y 0.000000 1.928270 0.000000 
#    z 0.000000 0.000000 1.875970 
# 
# From -- ./inp_files/21419.got.cif
#   From: 2010.05.17/outbox.cif.g08.bks.cpg/sg46_11_cif.got.tgz:21419.got - 2010.06.03 19:58:25.
