data_PCOD9378915
_publ_section_title
;
Structure prediction by ZEFSAII (Michael W. Deem and Ramdas Pophale) SiO2 
 PCOD9378915
Probable space group: I M A 2
;
_chemical_formula_sum "Si O2"
_cell_formula_units_Z 64
_cell_length_a 8.644681
_cell_length_b 29.240610
_cell_length_c 12.818972
_cell_angle_alpha 90.000000
_cell_angle_beta 90.000000
_cell_angle_gamma 90.000000
_cell_volume 3240.325206
_symmetry_space_group_name_H-M "I M A 2"
_symmetry_group_IT_number 46
_symmetry_cell_setting 'orthorhombic'
loop_
_space_group_symop_operation_xyz
x,y,z
-x,-y,z
1/2-x,y,z
1/2+x,-y,z
1/2+x,1/2+y,1/2+z
1/2-x,1/2-y,1/2+z
-x,1/2+y,1/2+z
x,1/2-y,1/2+z
loop_
_atom_site_type_symbol
_atom_site_label
_atom_site_fract_x
_atom_site_fract_y
_atom_site_fract_z
Si Si1 0.070913 0.163963 0.028880
Si Si2 0.429828 0.190717 0.796824
Si Si3 0.436437 0.590995 0.253957
Si Si4 0.070786 0.930093 0.979043
Si Si5 0.937489 0.619532 0.857573
Si Si6 0.068439 0.454484 0.692646
Si Si7 0.436044 0.550774 0.031142
Si Si8 0.937440 0.790322 0.249620
O O1 0.250000 0.146075 0.040017
O O2 0.033517 0.190469 0.134020
O O3 0.068614 0.192817 0.922842
O O4 0.952964 0.123239 0.006688
O O5 0.250000 0.187366 0.763890
O O6 0.508450 0.143680 0.760063
O O7 0.498001 0.238835 0.759224
O O8 0.250000 0.591160 0.257909
O O9 0.489850 0.565921 0.360702
O O10 0.484708 0.565899 0.148241
O O11 0.250000 0.943459 0.983897
O O12 0.979170 0.952904 0.072491
O O13 0.750000 0.619610 0.866101
O O14 0.982073 0.590565 0.754264
O O15 0.988743 0.671628 0.834404
O O16 0.004495 0.590282 0.952899
O O17 0.250000 0.457096 0.700768
O O18 0.000000 0.500000 0.742826
O O19 0.500000 0.500000 0.007730
O O20 0.250000 0.549273 0.026213
O O21 0.750000 0.787523 0.260993
#
# Coordination Sequence:
#
# PCOD9378915 Si02
#       8
#     8   8   8   8   8   8   8   8
#     4   9  16  31  51  74 109 147 181 227 283 333
#     4   9  18  31  55  86 112 149 197 239 284 340
#     4   9  21  40  58  80 116 152 187 237 292 343
#     4  10  19  34  56  80 106 141 183 227 278 335
#     4  10  21  38  59  83 114 150 190 237 288 341
#     4  11  22  36  55  82 113 144 177 225 280 334
#     4  11  24  42  62  84 114 154 198 246 298 353
#     4   9  17  32  54  83 115 149 191 240 288 337
#
# _framework density 19.751104999999999
#
# number of rings (size 3 to 8) (size 9 to 14) (size 15 to 20)
#    0.000    2.250    1.250    1.500    0.000    5.000 
#    0.000    5.000    0.000    3.000    0.000    0.000 
#    0.000    0.000    0.000    0.000    0.000    0.000 
#
# Total GULP energy -178431.863730 kJ/mol
# GULP energy per Si atom -5575.995742 kJ/mol
# Density = 1.970615 g / cm^3
# Si number density = 19.751105 Si / 1000 Ang^3
#
#
#
# Elastic Constant Matrix: (Units=GPa)
#
#
# Indices 1 2 3 4 5 6 
#
# 1 9.3794 -0.1352 10.1782 0.0001 0.0000 0.0000
# 2 -0.1352 55.8573 11.8530 0.0001 0.0000 0.0001
# 3 10.1782 11.8530 86.4521 -0.0004 0.0000 -0.0001
# 4 0.0001 0.0001 -0.0004 -10.6750 0.0000 0.0000
# 5 0.0000 0.0000 0.0000 0.0000 20.3286 0.0000
# 6 0.0000 0.0001 -0.0001 0.0000 0.0000 14.7348
#
#
#
# Elastic Compliance Matrix: (Units=1/GPa)
#
#
# Indices 1 2 3 4 5 6 
#
# 1 0.122882 0.003468 -0.014943 0.000001 0.000000 0.000000
# 2 0.003468 0.018537 -0.002950 0.000000 0.000000 0.000000
# 3 -0.014943 -0.002950 0.013731 -0.000001 0.000000 0.000000
# 4 0.000001 0.000000 -0.000001 -0.093677 0.000000 0.000000
# 5 0.000000 0.000000 0.000000 0.000000 0.049192 0.000000
# 6 0.000000 0.000000 0.000000 0.000000 0.000000 0.067867
#
#
# Mechanical properties :
#
#
# Convention : Reuss Voigt Hill
#
# Bulk Modulus (GPa) = 7.91758 21.72009 14.81883
# Shear Modulus (GPa) = 20.04168 13.53053 16.78610
#
# Velocity S-wave (km/s) = 3.18891 2.62019 2.91844
# Velocity P-wave (km/s) = 4.19240 4.49162 4.34459
#
# Compressibility (1/GPa) = 0.12630119
#
# Stress axis : x y z
#
# Youngs Moduli (GPa) = 8.13791 53.94575 72.82902
#
# Poissons Ratio (x) = -0.18710 1.08826
# Poissons Ratio (y) = -0.02823 0.21484
# Poissons Ratio (z) = 0.12160 0.15913
#
# Static dielectric constant tensor:
#      x y z
#    x 1.687700 0.000000 0.000000 
#    y 0.000000 1.891930 0.000000 
#    z 0.000000 0.000000 1.714120 
# 
# From -- ./inp_files/9700.got.cif
#   From: 2010.05.17/outbox.cif.g08.bks.cpg/sg46_5_cif.got.tgz:9700.got - 2010.06.03 19:58:25.
