data_PCOD9378916
_publ_section_title
;
Structure prediction by ZEFSAII (Michael W. Deem and Ramdas Pophale) SiO2 
 PCOD9378916
Probable space group: I M A 2
;
_chemical_formula_sum "Si O2"
_cell_formula_units_Z 40
_cell_length_a 8.830934
_cell_length_b 13.845990
_cell_length_c 18.850421
_cell_angle_alpha 90.000000
_cell_angle_beta 90.000000
_cell_angle_gamma 90.000000
_cell_volume 2304.897977
_symmetry_space_group_name_H-M "I M A 2"
_symmetry_group_IT_number 46
_symmetry_cell_setting 'orthorhombic'
loop_
_space_group_symop_operation_xyz
x,y,z
-x,-y,z
1/2-x,y,z
1/2+x,-y,z
1/2+x,1/2+y,1/2+z
1/2-x,1/2-y,1/2+z
-x,1/2+y,1/2+z
x,1/2-y,1/2+z
loop_
_atom_site_type_symbol
_atom_site_label
_atom_site_fract_x
_atom_site_fract_y
_atom_site_fract_z
Si Si1 0.568423 0.105141 0.612680
Si Si2 0.067760 0.607187 0.819478
Si Si3 0.568497 0.289630 0.966240
Si Si4 0.568260 0.791299 0.181813
Si Si5 0.930483 0.604673 0.534086
O O1 0.750000 0.103450 0.619505
O O2 0.529992 0.140893 0.532671
O O3 0.498429 0.186092 0.664014
O O4 0.500000 0.000000 0.625243
O O5 0.250000 0.602191 0.815612
O O6 0.025026 0.661999 0.892141
O O7 0.000000 0.500000 0.820182
O O8 0.003527 0.663859 0.751917
O O9 0.750000 0.276829 0.966859
O O10 0.492298 0.186908 0.981580
O O11 0.750000 0.786901 0.187558
O O12 0.529891 0.858213 0.113569
O O13 0.750000 0.599873 0.529135
O O14 0.000000 0.500000 0.521174
#
# Coordination Sequence:
#
# PCOD9378916 Si02
#       5
#     8   8   8   8   8
#     4  10  19  34  56  80 107 140 176 218 263 311
#     4  11  22  36  55  80 109 141 174 214 263 314
#     4   9  20  36  54  78 108 139 175 216 260 311
#     4  10  21  36  54  79 108 140 178 219 262 312
#     4  10  20  34  55  79 105 138 176 217 262 310
#
# _framework density 17.354348000000002
#
# number of rings (size 3 to 8) (size 9 to 14) (size 15 to 20)
#    0.000    2.000    0.000    3.600    0.000    6.400 
#    0.000    1.000    0.000    4.800    0.000    0.000 
#    0.000    0.000    0.000    0.000    0.000    0.000 
#
# Total GULP energy -111710.255021 kJ/mol
# GULP energy per Si atom -5585.512751 kJ/mol
# Density = 1.731485 g / cm^3
# Si number density = 17.354348 Si / 1000 Ang^3
#
#
#
# Elastic Constant Matrix: (Units=GPa)
#
#
# Indices 1 2 3 4 5 6 
#
# 1 56.9602 68.1269 57.6837 0.0000 0.0000 0.0000
# 2 68.1269 196.5958 100.1663 0.0000 0.0000 0.0000
# 3 57.6837 100.1663 141.6209 0.0000 0.0000 0.0000
# 4 0.0000 0.0000 0.0000 16.9775 0.0000 0.0000
# 5 0.0000 0.0000 0.0000 0.0000 25.6501 0.0000
# 6 0.0000 0.0000 0.0000 0.0000 0.0000 34.1821
#
#
#
# Elastic Compliance Matrix: (Units=1/GPa)
#
#
# Indices 1 2 3 4 5 6 
#
# 1 0.036329 -0.007895 -0.009213 0.000000 0.000000 0.000000
# 2 -0.007895 0.009668 -0.003622 0.000000 0.000000 0.000000
# 3 -0.009213 -0.003622 0.013376 0.000000 0.000000 0.000000
# 4 0.000000 0.000000 0.000000 0.058902 0.000000 0.000000
# 5 0.000000 0.000000 0.000000 0.000000 0.038986 0.000000
# 6 0.000000 0.000000 0.000000 0.000000 0.000000 0.029255
#
#
# Mechanical properties :
#
#
# Convention : Reuss Voigt Hill
#
# Bulk Modulus (GPa) = 55.82905 94.12564 74.97734
# Shear Modulus (GPa) = 21.37228 26.64193 24.00711
#
# Velocity S-wave (km/s) = 3.51311 3.92238 3.72337
# Velocity P-wave (km/s) = 6.97824 8.65267 7.86017
#
# Compressibility (1/GPa) = 0.01791182
#
# Stress axis : x y z
#
# Youngs Moduli (GPa) = 27.52599 103.43313 74.76216
#
# Poissons Ratio (x) = 0.81662 0.68880
# Poissons Ratio (y) = 0.21732 0.27081
# Poissons Ratio (z) = 0.25360 0.37467
#
# Static dielectric constant tensor:
#      x y z
#    x 1.577100 0.000000 0.000000 
#    y 0.000000 1.555830 0.000000 
#    z 0.000000 0.000000 1.573960 
# 
# From -- ./inp_files/13648.got.cif
#   From: 2010.05.17/outbox.cif.g08.bks.cpg/sg46_7_cif.got.tgz:13648.got - 2010.06.03 19:58:25.
