data_PCOD9378573
_publ_section_title
;
Structure prediction by ZEFSAII (Michael W. Deem and Ramdas Pophale) SiO2 
 PCOD9378573
Probable space group: I M A 2
;
_chemical_formula_sum "Si O2"
_cell_formula_units_Z 56
_cell_length_a 8.497995
_cell_length_b 25.852353
_cell_length_c 12.877617
_cell_angle_alpha 90.000000
_cell_angle_beta 90.000000
_cell_angle_gamma 90.000000
_cell_volume 2829.124456
_symmetry_space_group_name_H-M "I M A 2"
_symmetry_group_IT_number 46
_symmetry_cell_setting 'orthorhombic'
loop_
_space_group_symop_operation_xyz
x,y,z
-x,-y,z
1/2-x,y,z
1/2+x,-y,z
1/2+x,1/2+y,1/2+z
1/2-x,1/2-y,1/2+z
-x,1/2+y,1/2+z
x,1/2-y,1/2+z
loop_
_atom_site_type_symbol
_atom_site_label
_atom_site_fract_x
_atom_site_fract_y
_atom_site_fract_z
Si Si1 0.072010 0.262471 0.403560
Si Si2 0.437130 0.165632 0.661358
Si Si3 0.926984 0.779923 0.148024
Si Si4 0.439845 0.944040 0.294384
Si Si5 0.431111 0.631041 0.366188
Si Si6 0.937855 0.111564 0.093087
Si Si7 0.437827 0.654365 0.929951
O O1 0.250000 0.276430 0.367271
O O2 0.084336 0.262232 0.528325
O O3 0.946192 0.307662 0.388101
O O4 0.019790 0.204384 0.377429
O O5 0.250000 0.165351 0.645293
O O6 0.481435 0.225118 0.695780
O O7 0.482146 0.127330 0.755629
O O8 0.519270 0.152684 0.552222
O O9 0.750000 0.793104 0.182617
O O10 0.027305 0.831969 0.142655
O O11 0.250000 0.944499 0.292841
O O12 0.496031 0.929320 0.177913
O O13 0.487482 0.897925 0.371837
O O14 0.500000 0.000000 0.325824
O O15 0.250000 0.615516 0.354051
O O16 0.499658 0.607779 0.474265
O O17 0.750000 0.106991 0.083987
O O18 0.250000 0.660760 0.919865
#
# Coordination Sequence:
#
# PCOD9378573 Si02
#       7
#     8   8   8   8   8   8   8
#     4   9  17  30  47  72 109 147 184 220 259 315
#     4  10  20  33  50  78 114 148 184 222 266 325
#     4   8  16  29  45  70 103 142 180 214 254 306
#     4  10  23  41  60  82 105 135 181 235 284 333
#     4  10  19  31  51  78 111 150 185 220 266 323
#     4   9  19  35  53  76 106 139 178 223 270 322
#     4  10  20  35  54  78 107 141 184 228 276 331
#
# _framework density 19.79411
#
# number of rings (size 3 to 8) (size 9 to 14) (size 15 to 20)
#    0.000    2.571    0.000    2.571    2.000    6.286 
#    0.000    0.000    0.000    0.857    0.000    2.000 
#    0.000    0.000    0.000    0.000    0.000    0.000 
#
# Total GULP energy -156001.618032 kJ/mol
# GULP energy per Si atom -5571.486358 kJ/mol
# Density = 1.974906 g / cm^3
# Si number density = 19.794110 Si / 1000 Ang^3
#
#
#
# Elastic Constant Matrix: (Units=GPa)
#
#
# Indices 1 2 3 4 5 6 
#
# 1 29.2487 6.6663 6.3793 0.0000 0.0000 0.0000
# 2 6.6663 71.7657 9.2366 0.0000 0.0000 0.0000
# 3 6.3793 9.2366 63.1052 0.0001 -0.0001 0.0000
# 4 0.0000 0.0000 0.0001 24.0660 0.0000 0.0000
# 5 0.0000 0.0000 -0.0001 0.0000 26.3016 0.0000
# 6 0.0000 0.0000 0.0000 0.0000 0.0000 19.9085
#
#
#
# Elastic Compliance Matrix: (Units=1/GPa)
#
#
# Indices 1 2 3 4 5 6 
#
# 1 0.035540 -0.002893 -0.003169 0.000000 0.000000 0.000000
# 2 -0.002893 0.014437 -0.001821 0.000000 0.000000 0.000000
# 3 -0.003169 -0.001821 0.016433 0.000000 0.000000 0.000000
# 4 0.000000 0.000000 0.000000 0.041552 0.000000 0.000000
# 5 0.000000 0.000000 0.000000 0.000000 0.038020 0.000000
# 6 0.000000 0.000000 0.000000 0.000000 0.000000 0.050230
#
#
# Mechanical properties :
#
#
# Convention : Reuss Voigt Hill
#
# Bulk Modulus (GPa) = 19.74558 23.18712 21.46635
# Shear Modulus (GPa) = 21.84723 23.51104 22.67913
#
# Velocity S-wave (km/s) = 3.32584 3.45016 3.38857
# Velocity P-wave (km/s) = 4.97447 5.25462 5.11646
#
# Compressibility (1/GPa) = 0.05064426
#
# Stress axis : x y z
#
# Youngs Moduli (GPa) = 28.13712 69.26489 60.85159
#
# Poissons Ratio (x) = 0.20041 0.19285
# Poissons Ratio (y) = 0.08141 0.11079
# Poissons Ratio (z) = 0.08917 0.12611
#
# Static dielectric constant tensor:
#      x y z
#    x 1.676800 0.000000 0.000000 
#    y 0.000000 1.666870 0.000000 
#    z 0.000000 0.000000 1.829670 
# 
# From -- ./inp_files/14171.got.cif
#   From: 2010.05.17/outbox.cif.g08.bks.cpg/sg46_8_cif.got.tgz:14171.got - 2010.06.03 19:58:25.
