data_PCOD9378372
_publ_section_title
;
Structure prediction by ZEFSAII (Michael W. Deem and Ramdas Pophale) SiO2 
 PCOD9378372
Probable space group: I M A 2
;
_chemical_formula_sum "Si O2"
_cell_formula_units_Z 64
_cell_length_a 14.661889
_cell_length_b 10.222977
_cell_length_c 18.727189
_cell_angle_alpha 90.000000
_cell_angle_beta 90.000000
_cell_angle_gamma 90.000000
_cell_volume 2806.983789
_symmetry_space_group_name_H-M "I M A 2"
_symmetry_group_IT_number 46
_symmetry_cell_setting 'orthorhombic'
loop_
_space_group_symop_operation_xyz
x,y,z
-x,-y,z
1/2-x,y,z
1/2+x,-y,z
1/2+x,1/2+y,1/2+z
1/2-x,1/2-y,1/2+z
-x,1/2+y,1/2+z
x,1/2-y,1/2+z
loop_
_atom_site_type_symbol
_atom_site_label
_atom_site_fract_x
_atom_site_fract_y
_atom_site_fract_z
Si Si1 0.146710 0.789783 0.423150
Si Si2 0.639014 0.914080 0.810925
Si Si3 0.138177 0.865267 0.267633
Si Si4 0.361602 0.514870 0.466509
Si Si5 0.641468 0.797228 0.074205
Si Si6 0.138380 0.340830 0.733977
Si Si7 0.602270 0.505100 0.030311
Si Si8 0.139442 0.612164 0.184824
O O1 0.250000 0.747464 0.405001
O O2 0.105247 0.821122 0.346082
O O3 0.108018 0.666187 0.466676
O O4 0.152599 0.916076 0.472896
O O5 0.750000 0.915514 0.811067
O O6 0.611290 0.959967 0.889009
O O7 0.608778 0.768792 0.790157
O O8 0.611422 0.013754 0.748245
O O9 0.250000 0.867053 0.268435
O O10 0.111979 0.757505 0.208878
O O11 0.109361 0.012308 0.250743
O O12 0.250000 0.510712 0.471977
O O13 0.395607 0.417115 0.527496
O O14 0.750000 0.816984 0.080294
O O15 0.606945 0.798321 0.155211
O O16 0.629759 0.655540 0.038630
O O17 0.250000 0.339431 0.734846
O O18 0.500000 0.500000 0.003967
O O19 0.606971 0.437520 0.108181
O O20 0.250000 0.608513 0.181141
#
# Coordination Sequence:
#
# PCOD9378372 Si02
#       8
#     8   8   8   8   8   8   8   8
#     4  10  20  37  61  89 116 149 193 239 294 350
#     4   9  15  28  51  82 116 141 171 226 286 335
#     4   9  18  31  57  93 119 139 179 239 293 341
#     4   9  18  31  55  90 118 142 181 238 292 345
#     4  10  20  36  58  86 116 147 191 236 289 345
#     4   9  17  28  49  85 120 142 171 227 287 339
#     4  12  26  40  56  78 120 160 199 237 287 349
#     4  10  18  35  62  85 109 146 192 244 294 336
#
# _framework density 22.800274000000002
#
# number of rings (size 3 to 8) (size 9 to 14) (size 15 to 20)
#    0.000    2.250    2.500    1.125    3.500    0.000 
#    0.000    0.625    5.500    0.000    0.000    0.000 
#    0.000    0.000    0.000    0.000    0.000    0.000 
#
# Total GULP energy -178810.724892 kJ/mol
# GULP energy per Si atom -5587.835153 kJ/mol
# Density = 2.274838 g / cm^3
# Si number density = 22.800274 Si / 1000 Ang^3
#
#
#
# Elastic Constant Matrix: (Units=GPa)
#
#
# Indices 1 2 3 4 5 6 
#
# 1 50.2037 3.7733 5.4961 0.0000 0.0000 0.0000
# 2 3.7733 149.6867 6.0374 0.0000 0.0000 0.0000
# 3 5.4961 6.0374 25.0633 0.0000 0.0000 0.0000
# 4 0.0000 0.0000 0.0000 43.6475 0.0000 0.0000
# 5 0.0000 0.0000 0.0000 0.0000 -6.1954 0.0000
# 6 0.0000 0.0000 0.0000 0.0000 0.0000 -13.4276
#
#
#
# Elastic Compliance Matrix: (Units=1/GPa)
#
#
# Indices 1 2 3 4 5 6 
#
# 1 0.020426 -0.000338 -0.004398 0.000000 0.000000 0.000000
# 2 -0.000338 0.006752 -0.001552 0.000000 0.000000 0.000000
# 3 -0.004398 -0.001552 0.041237 0.000000 0.000000 0.000000
# 4 0.000000 0.000000 0.000000 0.022911 0.000000 0.000000
# 5 0.000000 0.000000 0.000000 0.000000 -0.161410 0.000000
# 6 0.000000 0.000000 0.000000 0.000000 0.000000 -0.074473
#
#
# Mechanical properties :
#
#
# Convention : Reuss Voigt Hill
#
# Bulk Modulus (GPa) = 17.90854 28.39637 23.15246
# Shear Modulus (GPa) = -44.10362 18.78136 -12.66113
#
# Velocity S-wave (km/s) = -4.40289 2.87319 -2.35905
# Velocity P-wave (km/s) = 4.23977 4.84648 1.66023
#
# Compressibility (1/GPa) = 0.05583927
#
# Stress axis : x y z
#
# Youngs Moduli (GPa) = 48.95794 148.10993 24.24987
#
# Poissons Ratio (x) = 0.04999 0.10665
# Poissons Ratio (y) = 0.01652 0.03765
# Poissons Ratio (z) = 0.21531 0.22993
#
# Static dielectric constant tensor:
#      x y z
#    x 1.727610 0.000000 0.000000 
#    y 0.000000 1.761980 0.000000 
#    z 0.000000 0.000000 1.803090 
# 
# From -- ./inp_files/20263.got.cif
#   From: 2010.05.17/outbox.cif.g08.bks.cpg/sg46_11_cif.got.tgz:20263.got - 2010.06.03 19:58:25.
