data_PCOD9378783
_publ_section_title
;
Structure prediction by ZEFSAII (Michael W. Deem and Ramdas Pophale) SiO2 
 PCOD9378783
Probable space group: I M A 2
;
_chemical_formula_sum "Si O2"
_cell_formula_units_Z 64
_cell_length_a 8.972736
_cell_length_b 20.136345
_cell_length_c 21.009829
_cell_angle_alpha 90.000000
_cell_angle_beta 90.000000
_cell_angle_gamma 90.000000
_cell_volume 3796.016147
_symmetry_space_group_name_H-M "I M A 2"
_symmetry_group_IT_number 46
_symmetry_cell_setting 'orthorhombic'
loop_
_space_group_symop_operation_xyz
x,y,z
-x,-y,z
1/2-x,y,z
1/2+x,-y,z
1/2+x,1/2+y,1/2+z
1/2-x,1/2-y,1/2+z
-x,1/2+y,1/2+z
x,1/2-y,1/2+z
loop_
_atom_site_type_symbol
_atom_site_label
_atom_site_fract_x
_atom_site_fract_y
_atom_site_fract_z
Si Si1 0.071705 0.931156 0.034590
Si Si2 0.070314 0.211048 0.603451
Si Si3 0.928848 0.287785 0.485869
Si Si4 0.070128 0.288402 0.353442
Si Si5 0.928890 0.568623 0.302870
Si Si6 0.070993 0.296934 0.729157
Si Si7 0.571098 0.931387 0.653146
Si Si8 0.071971 0.930515 0.184878
O O1 0.250000 0.936974 0.029950
O O2 0.033831 0.922319 0.109590
O O3 0.024079 0.864466 0.998752
O O4 0.000000 0.000000 0.012190
O O5 0.250000 0.213499 0.595684
O O6 0.033886 0.252538 0.667263
O O7 0.026073 0.134716 0.615713
O O8 0.992124 0.243932 0.543298
O O9 0.750000 0.285496 0.485994
O O10 0.994468 0.266081 0.418427
O O11 0.250000 0.287274 0.359551
O O12 0.024572 0.364458 0.338457
O O13 0.030678 0.242943 0.292943
O O14 0.750000 0.563558 0.306660
O O15 0.968587 0.576655 0.227990
O O16 0.000000 0.500000 0.326187
O O17 0.250000 0.305979 0.729196
O O18 0.992281 0.367525 0.721784
O O19 0.750000 0.936247 0.650280
O O20 0.500000 0.000000 0.630263
O O21 0.250000 0.933443 0.190090
O O22 0.000000 0.000000 0.205746
#
# Coordination Sequence:
#
# PCOD9378783 Si02
#       8
#     8   8   8   8   8   8   8   8
#     4   9  19  33  49  72 104 140 177 216 255 308
#     4  10  19  34  57  80 104 139 179 219 266 318
#     4  11  23  37  51  76 110 141 179 224 267 312
#     4  10  21  37  54  75 106 145 183 217 262 319
#     4   9  17  31  50  74 106 141 177 215 254 306
#     4  10  19  34  57  81 105 137 179 224 267 315
#     4   9  17  31  52  80 108 136 172 215 261 311
#     4  10  19  33  53  80 110 139 174 218 268 317
#
# _framework density 16.859781000000002
#
# number of rings (size 3 to 8) (size 9 to 14) (size 15 to 20)
#    0.000    2.250    2.500    0.750    0.000    3.500 
#    0.000    2.500    0.000    0.750    0.000    3.500 
#    0.000    0.000    0.000    0.000    0.000    0.000 
#
# Total GULP energy -178565.040939 kJ/mol
# GULP energy per Si atom -5580.157529 kJ/mol
# Density = 1.682141 g / cm^3
# Si number density = 16.859781 Si / 1000 Ang^3
#
#
#
# Elastic Constant Matrix: (Units=GPa)
#
#
# Indices 1 2 3 4 5 6 
#
# 1 23.5162 42.8976 40.7809 0.0000 0.0000 0.0000
# 2 42.8976 133.7596 66.8147 0.0000 0.0000 0.0000
# 3 40.7809 66.8147 112.1131 0.0000 0.0000 0.0000
# 4 0.0000 0.0000 0.0000 20.2813 0.0000 0.0000
# 5 0.0000 0.0000 0.0000 0.0000 17.8945 0.0000
# 6 0.0000 0.0000 0.0000 0.0000 0.0000 32.8287
#
#
#
# Elastic Compliance Matrix: (Units=1/GPa)
#
#
# Indices 1 2 3 4 5 6 
#
# 1 0.199925 -0.039572 -0.049139 0.000000 0.000000 0.000000
# 2 -0.039572 0.018477 0.003382 0.000000 0.000000 0.000000
# 3 -0.049139 0.003382 0.024778 0.000000 0.000000 0.000000
# 4 0.000000 0.000000 0.000000 0.049306 0.000000 0.000000
# 5 0.000000 0.000000 0.000000 0.000000 0.055883 0.000000
# 6 0.000000 0.000000 0.000000 0.000000 0.000000 0.030461
#
#
# Mechanical properties :
#
#
# Convention : Reuss Voigt Hill
#
# Bulk Modulus (GPa) = 13.78865 63.37504 38.58184
# Shear Modulus (GPa) = 8.71592 22.12728 15.42160
#
# Velocity S-wave (km/s) = 2.27615 3.62668 3.02768
# Velocity P-wave (km/s) = 3.88639 7.43022 5.92926
#
# Compressibility (1/GPa) = 0.07252344
#
# Stress axis : x y z
#
# Youngs Moduli (GPa) = 5.00188 54.11995 40.35805
#
# Poissons Ratio (x) = 2.14161 1.98317
# Poissons Ratio (y) = 0.19793 -0.13650
# Poissons Ratio (z) = 0.24579 -0.18305
#
# Static dielectric constant tensor:
#      x y z
#    x 1.562380 0.000000 0.000000 
#    y 0.000000 1.561930 0.000000 
#    z 0.000000 0.000000 1.557650 
# 
# From -- ./inp_files/18550.got.cif
#   From: 2010.05.17/outbox.cif.g08.bks.cpg/sg46_10_cif.got.tgz:18550.got - 2010.06.03 19:58:25.
