data_PCOD9378524
_publ_section_title
;
Structure prediction by ZEFSAII (Michael W. Deem and Ramdas Pophale) SiO2 
 PCOD9378524
Probable space group: I M A 2
;
_chemical_formula_sum "Si O2"
_cell_formula_units_Z 48
_cell_length_a 8.792672
_cell_length_b 14.029862
_cell_length_c 24.514515
_cell_angle_alpha 90.000000
_cell_angle_beta 90.000000
_cell_angle_gamma 90.000000
_cell_volume 3024.109952
_symmetry_space_group_name_H-M "I M A 2"
_symmetry_group_IT_number 46
_symmetry_cell_setting 'orthorhombic'
loop_
_space_group_symop_operation_xyz
x,y,z
-x,-y,z
1/2-x,y,z
1/2+x,-y,z
1/2+x,1/2+y,1/2+z
1/2-x,1/2-y,1/2+z
-x,1/2+y,1/2+z
x,1/2-y,1/2+z
loop_
_atom_site_type_symbol
_atom_site_label
_atom_site_fract_x
_atom_site_fract_y
_atom_site_fract_z
Si Si1 0.431551 0.601988 0.940220
Si Si2 0.066947 0.395494 0.728544
Si Si3 0.567702 0.602101 0.397660
Si Si4 0.433262 0.293202 0.836976
Si Si5 0.432730 0.105476 0.104297
Si Si6 0.432247 0.794120 0.001849
O O1 0.500000 0.500000 0.954869
O O2 0.250000 0.595238 0.937006
O O3 0.495474 0.636546 0.881841
O O4 0.470623 0.686880 0.982382
O O5 0.250000 0.402238 0.729843
O O6 0.019189 0.323965 0.776432
O O7 0.024555 0.368242 0.666641
O O8 0.000000 0.500000 0.739644
O O9 0.500000 0.500000 0.382995
O O10 0.750000 0.596602 0.401458
O O11 0.526478 0.685954 0.355062
O O12 0.500868 0.636380 0.455650
O O13 0.250000 0.301221 0.840640
O O14 0.250000 0.101869 0.100080
O O15 0.500000 0.000000 0.093970
O O16 0.499547 0.176649 0.059694
O O17 0.250000 0.803949 0.002343
#
# Coordination Sequence:
#
# PCOD9378524 Si02
#       6
#     8   8   8   8   8   8
#     4  10  20  32  48  70  95 122 152 188 228 272
#     4   9  18  31  47  69  94 121 152 186 226 271
#     4  10  19  31  48  69  94 123 154 189 229 273
#     4   9  18  32  49  69  94 123 154 188 227 271
#     4  10  19  31  48  69  94 123 154 189 229 272
#     4  10  20  33  48  68  94 122 154 190 228 271
#
# _framework density 15.872439
#
# number of rings (size 3 to 8) (size 9 to 14) (size 15 to 20)
#    0.000    2.333    0.000    3.000    0.000    5.333 
#    0.000    0.000    0.000    1.000    0.000    4.667 
#    0.000    0.000    0.000    0.000    0.000    0.000 
#
# Total GULP energy -133879.778917 kJ/mol
# GULP energy per Si atom -5578.324122 kJ/mol
# Density = 1.583631 g / cm^3
# Si number density = 15.872439 Si / 1000 Ang^3
#
#
#
# Elastic Constant Matrix: (Units=GPa)
#
#
# Indices 1 2 3 4 5 6 
#
# 1 38.3427 39.1051 39.3050 0.0000 0.0000 0.0000
# 2 39.1051 109.4409 78.8024 0.0000 0.0000 0.0000
# 3 39.3050 78.8024 133.9303 0.0000 0.0000 0.0000
# 4 0.0000 0.0000 0.0000 19.9695 0.0000 0.0000
# 5 0.0000 0.0000 0.0000 0.0000 17.9744 0.0000
# 6 0.0000 0.0000 0.0000 0.0000 0.0000 28.0700
#
#
#
# Elastic Compliance Matrix: (Units=1/GPa)
#
#
# Indices 1 2 3 4 5 6 
#
# 1 0.043937 -0.011131 -0.006345 0.000000 0.000000 0.000000
# 2 -0.011131 0.018674 -0.007721 0.000000 0.000000 0.000000
# 3 -0.006345 -0.007721 0.013872 0.000000 0.000000 0.000000
# 4 0.000000 0.000000 0.000000 0.050076 0.000000 0.000000
# 5 0.000000 0.000000 0.000000 0.000000 0.055635 0.000000
# 6 0.000000 0.000000 0.000000 0.000000 0.000000 0.035625
#
#
# Mechanical properties :
#
#
# Convention : Reuss Voigt Hill
#
# Bulk Modulus (GPa) = 38.33028 66.23766 52.28397
# Shear Modulus (GPa) = 18.05650 21.50288 19.77969
#
# Velocity S-wave (km/s) = 3.37649 3.68466 3.53394
# Velocity P-wave (km/s) = 6.27713 7.74107 7.04721
#
# Compressibility (1/GPa) = 0.02608903
#
# Stress axis : x y z
#
# Youngs Moduli (GPa) = 22.75979 53.55067 72.08967
#
# Poissons Ratio (x) = 0.59605 0.45743
# Poissons Ratio (y) = 0.25333 0.55660
# Poissons Ratio (z) = 0.14442 0.41346
#
# Static dielectric constant tensor:
#      x y z
#    x 1.529750 0.000000 0.000000 
#    y 0.000000 1.515460 0.000000 
#    z 0.000000 0.000000 1.527100 
# 
# From -- ./inp_files/20907.got.cif
#   From: 2010.05.17/outbox.cif.g08.bks.cpg/sg46_11_cif.got.tgz:20907.got - 2010.06.03 19:58:25.
