data_PCOD9378031
_publ_section_title
;
Structure prediction by ZEFSAII (Michael W. Deem and Ramdas Pophale) SiO2 
 PCOD9378031
Probable space group: I M A 2
;
_chemical_formula_sum "Si O2"
_cell_formula_units_Z 56
_cell_length_a 14.371825
_cell_length_b 25.195995
_cell_length_c 9.781529
_cell_angle_alpha 90.000000
_cell_angle_beta 90.000000
_cell_angle_gamma 90.000000
_cell_volume 3542.013244
_symmetry_space_group_name_H-M "I M A 2"
_symmetry_group_IT_number 46
_symmetry_cell_setting 'orthorhombic'
loop_
_space_group_symop_operation_xyz
x,y,z
-x,-y,z
1/2-x,y,z
1/2+x,-y,z
1/2+x,1/2+y,1/2+z
1/2-x,1/2-y,1/2+z
-x,1/2+y,1/2+z
x,1/2-y,1/2+z
loop_
_atom_site_type_symbol
_atom_site_label
_atom_site_fract_x
_atom_site_fract_y
_atom_site_fract_z
Si Si1 0.856776 0.429176 0.216880
Si Si2 0.362633 0.715456 0.837835
Si Si3 0.137277 0.687365 0.147333
Si Si4 0.550895 0.110846 0.225751
Si Si5 0.102801 0.521168 0.936539
Si Si6 0.637487 0.035436 0.007051
Si Si7 0.855303 0.939546 0.204169
O O1 0.750000 0.417287 0.253595
O O2 0.899532 0.371845 0.179035
O O3 0.894230 0.458772 0.350611
O O4 0.855863 0.465021 0.082251
O O5 0.250000 0.708323 0.828376
O O6 0.385687 0.771644 0.768165
O O7 0.413852 0.669702 0.752134
O O8 0.390309 0.708586 0.996961
O O9 0.250000 0.684748 0.140822
O O10 0.593709 0.074776 0.347956
O O11 0.439413 0.101841 0.223134
O O12 0.593601 0.083978 0.090930
O O13 0.147691 0.477119 0.838737
O O14 0.000000 0.500000 0.962176
O O15 0.750000 0.038218 0.018280
O O16 0.614101 0.980253 0.083261
O O17 0.750000 0.919659 0.178958
#
# Coordination Sequence:
#
# PCOD9378031 Si02
#       7
#     8   8   8   8   8   8   8
#     4  10  18  29  44  66  96 126 151 180 224 278
#     4  10  19  31  47  68  97 124 150 186 227 274
#     4   9  19  30  44  67  95 124 152 181 219 275
#     4  10  18  30  47  66  90 125 159 190 227 275
#     4   9  17  28  45  67  91 118 151 190 228 275
#     4   9  18  28  43  66  97 127 153 183 223 272
#     4   9  18  32  47  66  90 120 159 198 229 271
#
# _framework density 15.810216
#
# number of rings (size 3 to 8) (size 9 to 14) (size 15 to 20)
#    0.000    2.571    1.429    2.143    2.000    2.286 
#    0.000    0.000    0.000    0.000    0.000    1.000 
#    0.000    0.000    0.000    0.000    0.000    0.000 
#
# Total GULP energy -155875.828970 kJ/mol
# GULP energy per Si atom -5566.993892 kJ/mol
# Density = 1.577423 g / cm^3
# Si number density = 15.810216 Si / 1000 Ang^3
#
#
#
# Elastic Constant Matrix: (Units=GPa)
#
#
# Indices 1 2 3 4 5 6 
#
# 1 41.9955 8.0461 6.3542 0.0000 0.0000 0.0000
# 2 8.0461 43.6665 22.0944 0.0002 -0.0002 -0.0001
# 3 6.3542 22.0944 109.5857 0.0012 -0.0012 -0.0003
# 4 0.0000 0.0002 0.0012 9.9490 -0.0005 -0.0002
# 5 0.0000 -0.0002 -0.0012 -0.0005 9.2536 0.0002
# 6 0.0000 -0.0001 -0.0003 -0.0002 0.0002 17.1693
#
#
#
# Elastic Compliance Matrix: (Units=1/GPa)
#
#
# Indices 1 2 3 4 5 6 
#
# 1 0.024716 -0.004264 -0.000573 0.000000 0.000000 0.000000
# 2 -0.004264 0.026238 -0.005043 0.000000 0.000000 0.000000
# 3 -0.000573 -0.005043 0.010175 -0.000001 0.000001 0.000000
# 4 0.000000 0.000000 -0.000001 0.100513 0.000005 0.000001
# 5 0.000000 0.000000 0.000001 0.000005 0.108066 -0.000001
# 6 0.000000 0.000000 0.000000 0.000001 -0.000001 0.058243
#
#
# Mechanical properties :
#
#
# Convention : Reuss Voigt Hill
#
# Bulk Modulus (GPa) = 24.17292 29.80412 26.98852
# Shear Modulus (GPa) = 13.83121 17.85792 15.84457
#
# Velocity S-wave (km/s) = 2.96096 3.36448 3.16915
# Velocity P-wave (km/s) = 5.19734 5.82967 5.52256
#
# Compressibility (1/GPa) = 0.04136861
#
# Stress axis : x y z
#
# Youngs Moduli (GPa) = 40.45993 38.11249 98.27769
#
# Poissons Ratio (x) = 0.16251 0.05635
# Poissons Ratio (y) = 0.17252 0.49560
# Poissons Ratio (z) = 0.02320 0.19219
#
# Static dielectric constant tensor:
#      x y z
#    x 1.542800 0.000000 0.000000 
#    y 0.000000 1.520250 0.000000 
#    z 0.000000 0.000000 1.559700 
# 
# From -- ./inp_files/6986.got.cif
#   From: 2010.05.17/outbox.cif.g08.bks.cpg/sg46_4_cif.got.tgz:6986.got - 2010.06.03 19:58:25.
