data_PCOD9378155
_publ_section_title
;
Structure prediction by ZEFSAII (Michael W. Deem and Ramdas Pophale) SiO2 
 PCOD9378155
Probable space group: I M A 2
;
_chemical_formula_sum "Si O2"
_cell_formula_units_Z 64
_cell_length_a 8.102119
_cell_length_b 31.494185
_cell_length_c 14.849630
_cell_angle_alpha 90.000000
_cell_angle_beta 90.000000
_cell_angle_gamma 90.000000
_cell_volume 3789.174662
_symmetry_space_group_name_H-M "I M A 2"
_symmetry_group_IT_number 46
_symmetry_cell_setting 'orthorhombic'
loop_
_space_group_symop_operation_xyz
x,y,z
-x,-y,z
1/2-x,y,z
1/2+x,-y,z
1/2+x,1/2+y,1/2+z
1/2-x,1/2-y,1/2+z
-x,1/2+y,1/2+z
x,1/2-y,1/2+z
loop_
_atom_site_type_symbol
_atom_site_label
_atom_site_fract_x
_atom_site_fract_y
_atom_site_fract_z
Si Si1 0.552344 0.797197 0.757470
Si Si2 0.053046 0.452484 0.037112
Si Si3 0.450018 0.713339 0.645536
Si Si4 0.944638 0.234789 0.941980
Si Si5 0.447618 0.547733 0.829887
Si Si6 0.440382 0.868407 0.248450
Si Si7 0.559129 0.671802 0.925763
Si Si8 0.049220 0.133223 0.617771
O O1 0.750000 0.799411 0.764918
O O2 0.510582 0.753981 0.702466
O O3 0.477303 0.795159 0.856982
O O4 0.491189 0.837646 0.699824
O O5 0.250000 0.451163 0.037659
O O6 0.991390 0.415061 0.102618
O O7 0.000000 0.500000 0.061370
O O8 0.000551 0.444219 0.933524
O O9 0.250000 0.713348 0.653541
O O10 0.493018 0.718040 0.540479
O O11 0.513693 0.668628 0.685828
O O12 0.750000 0.245106 0.945296
O O13 0.042861 0.277806 0.922268
O O14 0.500000 0.500000 0.806435
O O15 0.250000 0.549776 0.828655
O O16 0.513434 0.584609 0.763697
O O17 0.250000 0.873741 0.220058
O O18 0.449831 0.848492 0.348251
O O19 0.750000 0.658968 0.911272
O O20 0.507668 0.656954 0.024670
O O21 0.250000 0.132531 0.623513
#
# Coordination Sequence:
#
# PCOD9378155 Si02
#       8
#     8   8   8   8   8   8   8   8
#     4  11  21  34  51  72  96 128 168 204 242 287
#     4  10  18  31  47  68  97 127 158 196 240 288
#     4  10  21  35  50  69  97 130 163 202 244 287
#     4  11  22  35  48  69 100 132 165 205 247 286
#     4  10  19  30  46  69  97 127 159 196 239 291
#     4  10  20  33  48  70  97 129 166 201 243 286
#     4  11  19  30  48  70  97 132 167 200 237 283
#     4   9  19  32  47  69  99 129 162 200 242 284
#
# _framework density 16.890219999999999
#
# number of rings (size 3 to 8) (size 9 to 14) (size 15 to 20)
#    0.000    1.750    3.750    2.625    0.000    1.000 
#    0.000    2.500    0.000    0.000    0.000    0.875 
#    0.000    6.000    0.000    0.000    0.000    0.000 
#
# Total GULP energy -178474.665417 kJ/mol
# GULP energy per Si atom -5577.333294 kJ/mol
# Density = 1.685178 g / cm^3
# Si number density = 16.890220 Si / 1000 Ang^3
#
#
#
# Elastic Constant Matrix: (Units=GPa)
#
#
# Indices 1 2 3 4 5 6 
#
# 1 26.8099 2.9184 3.4795 0.0000 0.0000 0.0000
# 2 2.9184 118.1274 32.5767 0.0000 0.0000 0.0000
# 3 3.4795 32.5767 72.9415 0.0001 0.0000 0.0001
# 4 0.0000 0.0000 0.0001 27.4992 0.0000 0.0000
# 5 0.0000 0.0000 0.0000 0.0000 15.8965 0.0000
# 6 0.0000 0.0000 0.0001 0.0000 0.0000 13.9801
#
#
#
# Elastic Compliance Matrix: (Units=1/GPa)
#
#
# Indices 1 2 3 4 5 6 
#
# 1 0.037557 -0.000495 -0.001571 0.000000 0.000000 0.000000
# 2 -0.000495 0.009661 -0.004291 0.000000 0.000000 0.000000
# 3 -0.001571 -0.004291 0.015701 0.000000 0.000000 0.000000
# 4 0.000000 0.000000 0.000000 0.036365 0.000000 0.000000
# 5 0.000000 0.000000 0.000000 0.000000 0.062907 0.000000
# 6 0.000000 0.000000 0.000000 0.000000 0.000000 0.071530
#
#
# Mechanical properties :
#
#
# Convention : Reuss Voigt Hill
#
# Bulk Modulus (GPa) = 19.91781 32.86980 26.39380
# Shear Modulus (GPa) = 18.99916 23.40211 21.20064
#
# Velocity S-wave (km/s) = 3.35753 3.72633 3.54673
# Velocity P-wave (km/s) = 5.18159 6.16580 5.69499
#
# Compressibility (1/GPa) = 0.05020632
#
# Stress axis : x y z
#
# Youngs Moduli (GPa) = 26.62597 103.50831 63.69009
#
# Poissons Ratio (x) = 0.05121 0.10003
# Poissons Ratio (y) = 0.01317 0.27330
# Poissons Ratio (z) = 0.04182 0.44417
#
# Static dielectric constant tensor:
#      x y z
#    x 1.609670 0.000000 0.000000 
#    y 0.000000 1.611270 0.000000 
#    z 0.000000 0.000000 1.553550 
# 
# From -- ./inp_files/14753.got.cif
#   From: 2010.05.17/outbox.cif.g08.bks.cpg/sg46_8_cif.got.tgz:14753.got - 2010.06.03 19:58:25.
