data_PCOD9378717
_publ_section_title
;
Structure prediction by ZEFSAII (Michael W. Deem and Ramdas Pophale) SiO2 
 PCOD9378717
Probable space group: I M A 2
;
_chemical_formula_sum "Si O2"
_cell_formula_units_Z 56
_cell_length_a 8.674853
_cell_length_b 14.430416
_cell_length_c 23.551958
_cell_angle_alpha 90.000000
_cell_angle_beta 90.000000
_cell_angle_gamma 90.000000
_cell_volume 2948.275025
_symmetry_space_group_name_H-M "I M A 2"
_symmetry_group_IT_number 46
_symmetry_cell_setting 'orthorhombic'
loop_
_space_group_symop_operation_xyz
x,y,z
-x,-y,z
1/2-x,y,z
1/2+x,-y,z
1/2+x,1/2+y,1/2+z
1/2-x,1/2-y,1/2+z
-x,1/2+y,1/2+z
x,1/2-y,1/2+z
loop_
_atom_site_type_symbol
_atom_site_label
_atom_site_fract_x
_atom_site_fract_y
_atom_site_fract_z
Si Si1 0.435267 0.296397 0.690320
Si Si2 0.571280 0.644464 0.811110
Si Si3 0.064379 0.701253 0.465010
Si Si4 0.929334 0.096020 0.720389
Si Si5 0.564229 0.103655 0.079891
Si Si6 0.432239 0.595016 0.927715
Si Si7 0.430393 0.834034 0.841846
O O1 0.250000 0.297684 0.688312
O O2 0.481483 0.358162 0.745706
O O3 0.490562 0.190547 0.699564
O O4 0.506649 0.339087 0.634031
O O5 0.750000 0.617089 0.815561
O O6 0.473841 0.597880 0.860752
O O7 0.547872 0.752752 0.825819
O O8 0.250000 0.707061 0.470363
O O9 0.007540 0.653394 0.522012
O O10 0.009610 0.807205 0.453947
O O11 0.035228 0.642827 0.407212
O O12 0.750000 0.101446 0.705232
O O13 0.939626 0.096665 0.789432
O O14 0.000000 0.000000 0.699002
O O15 0.750000 0.100976 0.079763
O O16 0.500000 0.000000 0.082465
O O17 0.500000 0.500000 0.952127
O O18 0.250000 0.593019 0.934125
O O19 0.250000 0.799473 0.841344
#
# Coordination Sequence:
#
# PCOD9378717 Si02
#       7
#     8   8   8   8   8   8   8
#     4  10  21  38  57  79 109 144 185 230 274 322
#     4   9  17  30  50  76 105 137 174 216 261 310
#     4   8  17  35  56  77 106 143 179 219 266 317
#     4  10  19  32  54  84 116 149 182 219 268 325
#     4  11  23  40  60  80 104 138 182 228 275 324
#     4  10  19  33  54  81 112 143 176 214 263 323
#     4   8  15  30  51  75 106 142 176 212 259 311
#
# _framework density 18.994157999999999
#
# number of rings (size 3 to 8) (size 9 to 14) (size 15 to 20)
#    0.000    2.571    0.000    3.000    0.000    3.429 
#    0.000    7.857    0.000    1.714    0.000    0.000 
#    0.000    0.000    0.000    0.000    0.000    0.000 
#
# Total GULP energy -155964.860176 kJ/mol
# GULP energy per Si atom -5570.173578 kJ/mol
# Density = 1.895093 g / cm^3
# Si number density = 18.994158 Si / 1000 Ang^3
#
#
#
# Elastic Constant Matrix: (Units=GPa)
#
#
# Indices 1 2 3 4 5 6 
#
# 1 47.2459 31.9627 26.9315 0.0000 0.0000 0.0000
# 2 31.9627 107.1256 51.9199 0.0000 0.0000 0.0000
# 3 26.9315 51.9199 134.3051 0.0000 0.0000 0.0000
# 4 0.0000 0.0000 0.0000 13.4215 0.0000 0.0000
# 5 0.0000 0.0000 0.0000 0.0000 16.8380 0.0000
# 6 0.0000 0.0000 0.0000 0.0000 0.0000 26.4076
#
#
#
# Elastic Compliance Matrix: (Units=1/GPa)
#
#
# Indices 1 2 3 4 5 6 
#
# 1 0.027390 -0.006781 -0.002871 0.000000 0.000000 0.000000
# 2 -0.006781 0.013166 -0.003730 0.000000 0.000000 0.000000
# 3 -0.002871 -0.003730 0.009463 0.000000 0.000000 0.000000
# 4 0.000000 0.000000 0.000000 0.074507 0.000000 0.000000
# 5 0.000000 0.000000 0.000000 0.000000 0.059390 0.000000
# 6 0.000000 0.000000 0.000000 0.000000 0.000000 0.037868
#
#
# Mechanical properties :
#
#
# Convention : Reuss Voigt Hill
#
# Bulk Modulus (GPa) = 43.00059 56.70053 49.85056
# Shear Modulus (GPa) = 19.50849 23.19091 21.34970
#
# Velocity S-wave (km/s) = 3.20828 3.49800 3.35627
# Velocity P-wave (km/s) = 6.03424 6.79934 6.42819
#
# Compressibility (1/GPa) = 0.02325549
#
# Stress axis : x y z
#
# Youngs Moduli (GPa) = 36.51010 75.95478 105.67060
#
# Poissons Ratio (x) = 0.51503 0.30338
# Poissons Ratio (y) = 0.24756 0.39414
# Poissons Ratio (z) = 0.10482 0.28331
#
# Static dielectric constant tensor:
#      x y z
#    x 1.651700 0.000000 0.000000 
#    y 0.000000 1.672920 0.000000 
#    z 0.000000 0.000000 1.678570 
# 
# From -- ./inp_files/21076.got.cif
#   From: 2010.05.17/outbox.cif.g08.bks.cpg/sg46_11_cif.got.tgz:21076.got - 2010.06.03 19:58:25.
