data_PCOD9378787
_publ_section_title
;
Structure prediction by ZEFSAII (Michael W. Deem and Ramdas Pophale) SiO2 
 PCOD9378787
Probable space group: I M A 2
;
_chemical_formula_sum "Si O2"
_cell_formula_units_Z 48
_cell_length_a 13.643476
_cell_length_b 9.808403
_cell_length_c 13.556240
_cell_angle_alpha 90.000000
_cell_angle_beta 90.000000
_cell_angle_gamma 90.000000
_cell_volume 1814.105674
_symmetry_space_group_name_H-M "I M A 2"
_symmetry_group_IT_number 46
_symmetry_cell_setting 'orthorhombic'
loop_
_space_group_symop_operation_xyz
x,y,z
-x,-y,z
1/2-x,y,z
1/2+x,-y,z
1/2+x,1/2+y,1/2+z
1/2-x,1/2-y,1/2+z
-x,1/2+y,1/2+z
x,1/2-y,1/2+z
loop_
_atom_site_type_symbol
_atom_site_label
_atom_site_fract_x
_atom_site_fract_y
_atom_site_fract_z
Si Si1 0.641449 0.754757 0.427320
Si Si2 0.857711 0.421529 0.743362
Si Si3 0.434195 0.833765 0.454617
Si Si4 0.590382 0.136130 0.666191
Si Si5 0.637425 0.653628 0.210542
Si Si6 0.635004 0.460184 0.526998
O O1 0.750000 0.801453 0.453865
O O2 0.551165 0.844156 0.460548
O O3 0.635074 0.740157 0.309921
O O4 0.626726 0.602259 0.470096
O O5 0.750000 0.479189 0.760404
O O6 0.904714 0.399197 0.850616
O O7 0.855563 0.266966 0.704648
O O8 0.896639 0.489017 0.641437
O O9 0.385412 0.894354 0.552540
O O10 0.411793 0.669975 0.470478
O O11 0.473442 0.173626 0.667145
O O12 0.625014 0.008206 0.729619
O O13 0.750000 0.674764 0.170097
O O14 0.750000 0.427264 0.532904
#
# Coordination Sequence:
#
# PCOD9378787 Si02
#       6
#     8   8   8   8   8   8
#     4  10  20  35  59  85 110 145 187 229 272 329
#     4  10  19  33  53  81 116 146 180 229 283 333
#     4  11  20  33  57  83 112 146 185 231 281 332
#     4  10  21  34  54  85 112 141 187 235 281 329
#     4  10  20  36  58  81 110 146 186 229 279 334
#     4   9  19  32  51  84 115 144 180 226 280 329
#
# _framework density 26.459316999999999
#
# number of rings (size 3 to 8) (size 9 to 14) (size 15 to 20)
#    0.000    2.000    1.667    2.500    2.333    4.000 
#    0.000    0.000   14.667    0.000    0.000    0.000 
#    0.000    0.000    0.000    0.000    0.000    0.000 
#
# Total GULP energy -134011.796314 kJ/mol
# GULP energy per Si atom -5583.824846 kJ/mol
# Density = 2.639909 g / cm^3
# Si number density = 26.459317 Si / 1000 Ang^3
#
#
#
# Elastic Constant Matrix: (Units=GPa)
#
#
# Indices 1 2 3 4 5 6 
#
# 1 175.3447 11.5493 32.3186 0.0000 0.0000 0.0000
# 2 11.5493 47.4770 9.2084 0.0000 0.0000 0.0000
# 3 32.3186 9.2084 144.8969 0.0000 0.0000 0.0000
# 4 0.0000 0.0000 0.0000 30.7493 0.0000 0.0000
# 5 0.0000 0.0000 0.0000 0.0000 -34.5337 0.0000
# 6 0.0000 0.0000 0.0000 0.0000 0.0000 25.1058
#
#
#
# Elastic Compliance Matrix: (Units=1/GPa)
#
#
# Indices 1 2 3 4 5 6 
#
# 1 0.006016 -0.001218 -0.001264 0.000000 0.000000 0.000000
# 2 -0.001218 0.021572 -0.001099 0.000000 0.000000 0.000000
# 3 -0.001264 -0.001099 0.007253 0.000000 0.000000 0.000000
# 4 0.000000 0.000000 0.000000 0.032521 0.000000 0.000000
# 5 0.000000 0.000000 0.000000 0.000000 -0.028957 0.000000
# 6 0.000000 0.000000 0.000000 0.000000 0.000000 0.039831
#
#
# Mechanical properties :
#
#
# Convention : Reuss Voigt Hill
#
# Bulk Modulus (GPa) = 36.12966 52.65236 44.39101
# Shear Modulus (GPa) = 52.83881 25.24043 39.03962
#
# Velocity S-wave (km/s) = 4.47361 3.09193 3.84534
# Velocity P-wave (km/s) = 6.35364 5.71745 6.04392
#
# Compressibility (1/GPa) = 0.02767809
#
# Stress axis : x y z
#
# Youngs Moduli (GPa) = 166.21335 46.35551 137.86720
#
# Poissons Ratio (x) = 0.05647 0.17433
# Poissons Ratio (y) = 0.20250 0.15155
# Poissons Ratio (z) = 0.21018 0.05096
#
# Static dielectric constant tensor:
#      x y z
#    x 2.107810 0.000000 0.000000 
#    y 0.000000 2.028870 0.000000 
#    z 0.000000 0.000000 2.084510 
# 
# From -- ./inp_files/11063.got.cif
#   From: 2010.05.17/outbox.cif.g08.bks.cpg/sg46_6_cif.got.tgz:11063.got - 2010.06.03 19:58:25.
