data_PCOD9378926
_publ_section_title
;
Structure prediction by ZEFSAII (Michael W. Deem and Ramdas Pophale) SiO2 
 PCOD9378926
Probable space group: I M A 2
;
_chemical_formula_sum "Si O2"
_cell_formula_units_Z 64
_cell_length_a 16.057663
_cell_length_b 9.335001
_cell_length_c 22.576314
_cell_angle_alpha 90.000000
_cell_angle_beta 90.000000
_cell_angle_gamma 90.000000
_cell_volume 3384.151093
_symmetry_space_group_name_H-M "I M A 2"
_symmetry_group_IT_number 46
_symmetry_cell_setting 'orthorhombic'
loop_
_space_group_symop_operation_xyz
x,y,z
-x,-y,z
1/2-x,y,z
1/2+x,-y,z
1/2+x,1/2+y,1/2+z
1/2-x,1/2-y,1/2+z
-x,1/2+y,1/2+z
x,1/2-y,1/2+z
loop_
_atom_site_type_symbol
_atom_site_label
_atom_site_fract_x
_atom_site_fract_y
_atom_site_fract_z
Si Si1 0.649513 0.578187 0.125000
Si Si2 0.653884 0.622144 0.929727
Si Si3 0.415463 0.587783 0.018313
Si Si4 0.969604 0.847195 0.319619
Si Si5 0.413699 0.914740 0.986627
Si Si6 0.847874 0.620305 0.260064
Si Si7 0.847832 0.679142 0.538233
Si Si8 0.584518 0.093966 0.854015
O O1 0.750000 0.572878 0.122650
O O2 0.615106 0.451936 0.083910
O O3 0.627077 0.575098 0.193646
O O4 0.618073 0.723829 0.091788
O O5 0.750000 0.642796 0.910015
O O6 0.587074 0.621086 0.877544
O O7 0.647358 0.480480 0.970218
O O8 0.629138 0.749423 0.975137
O O9 0.500000 0.500000 0.007863
O O10 0.426039 0.754457 0.008302
O O11 0.908783 0.749207 0.279713
O O12 0.050072 0.750797 0.336924
O O13 0.000000 0.000000 0.295118
O O14 0.377418 0.909216 0.919917
O O15 0.500000 0.000000 0.982625
O O16 0.364605 0.011996 0.033285
O O17 0.750000 0.662077 0.260362
O O18 0.860722 0.488110 0.305439
O O19 0.750000 0.700051 0.541935
O O20 0.500000 0.000000 0.856171
#
# Coordination Sequence:
#
# PCOD9378926 Si02
#       8
#     8   8   8   8   8   8   8   8
#     4   9  20  40  59  76 104 146 193 233 275 336
#     4  10  19  34  56  82 114 152 189 221 273 346
#     4  11  21  34  56  83 114 150 188 231 279 336
#     4  11  21  36  57  83 115 146 182 237 293 342
#     4  11  20  32  51  80 114 141 171 219 281 335
#     4  10  21  40  62  79 105 152 201 238 281 341
#     4   9  18  32  52  78 107 137 173 221 269 318
#     4   9  19  34  55  81 112 146 184 228 277 338
#
# _framework density 18.911684000000001
#
# number of rings (size 3 to 8) (size 9 to 14) (size 15 to 20)
#    0.000    2.000    0.000    7.125    0.000    4.000 
#    0.000    5.625    0.000    3.000    0.000    0.000 
#    0.000    0.000    0.000    0.000    0.000    0.000 
#
# Total GULP energy -178463.368598 kJ/mol
# GULP energy per Si atom -5576.980269 kJ/mol
# Density = 1.886864 g / cm^3
# Si number density = 18.911684 Si / 1000 Ang^3
#
#
#
# Elastic Constant Matrix: (Units=GPa)
#
#
# Indices 1 2 3 4 5 6 
#
# 1 41.6597 17.9182 30.4882 0.0000 0.0000 0.0000
# 2 17.9182 154.5467 54.8545 0.0000 0.0000 0.0000
# 3 30.4882 54.8545 127.9130 0.0000 0.0000 0.0000
# 4 0.0000 0.0000 0.0000 3.7145 0.0000 0.0000
# 5 0.0000 0.0000 0.0000 0.0000 17.9477 0.0000
# 6 0.0000 0.0000 0.0000 0.0000 0.0000 25.5242
#
#
#
# Elastic Compliance Matrix: (Units=1/GPa)
#
#
# Indices 1 2 3 4 5 6 
#
# 1 0.029228 -0.001080 -0.006503 0.000000 0.000000 0.000000
# 2 -0.001080 0.007672 -0.003033 0.000000 0.000000 0.000000
# 3 -0.006503 -0.003033 0.010668 0.000000 0.000000 0.000000
# 4 0.000000 0.000000 0.000000 0.269216 0.000000 0.000000
# 5 0.000000 0.000000 0.000000 0.000000 0.055717 0.000000
# 6 0.000000 0.000000 0.000000 0.000000 0.000000 0.039178
#
#
# Mechanical properties :
#
#
# Convention : Reuss Voigt Hill
#
# Bulk Modulus (GPa) = 37.97082 58.96017 48.46549
# Shear Modulus (GPa) = 11.32011 24.16119 17.74065
#
# Velocity S-wave (km/s) = 2.44924 3.57820 3.06613
# Velocity P-wave (km/s) = 5.30282 6.95095 6.18205
#
# Compressibility (1/GPa) = 0.02633601
#
# Stress axis : x y z
#
# Youngs Moduli (GPa) = 34.21372 130.34064 93.73498
#
# Poissons Ratio (x) = 0.14083 0.60958
# Poissons Ratio (y) = 0.03697 0.28426
# Poissons Ratio (z) = 0.22250 0.39528
#
# Static dielectric constant tensor:
#      x y z
#    x 1.694750 0.000000 0.000000 
#    y 0.000000 1.689520 0.000000 
#    z 0.000000 0.000000 1.661710 
# 
# From -- ./inp_files/22260.got.cif
#   From: 2010.05.17/outbox.cif.g08.bks.cpg/sg46_12_cif.got.tgz:22260.got - 2010.06.03 19:58:25.
