data_PCOD9378386
_publ_section_title
;
Structure prediction by ZEFSAII (Michael W. Deem and Ramdas Pophale) SiO2 
 PCOD9378386
Probable space group: I M A 2
;
_chemical_formula_sum "Si O2"
_cell_formula_units_Z 64
_cell_length_a 18.714120
_cell_length_b 9.390715
_cell_length_c 19.910704
_cell_angle_alpha 90.000000
_cell_angle_beta 90.000000
_cell_angle_gamma 90.000000
_cell_volume 3499.086561
_symmetry_space_group_name_H-M "I M A 2"
_symmetry_group_IT_number 46
_symmetry_cell_setting 'orthorhombic'
loop_
_space_group_symop_operation_xyz
x,y,z
-x,-y,z
1/2-x,y,z
1/2+x,-y,z
1/2+x,1/2+y,1/2+z
1/2-x,1/2-y,1/2+z
-x,1/2+y,1/2+z
x,1/2-y,1/2+z
loop_
_atom_site_type_symbol
_atom_site_label
_atom_site_fract_x
_atom_site_fract_y
_atom_site_fract_z
Si Si1 0.569357 0.102783 0.114530
Si Si2 0.168997 0.400491 0.699430
Si Si3 0.664059 0.898020 0.747558
Si Si4 0.916366 0.040080 0.966959
Si Si5 0.557231 0.372838 0.208591
Si Si6 0.948651 0.242078 0.356615
Si Si7 0.613052 0.779930 0.890741
Si Si8 0.829189 0.494762 0.853691
O O1 0.556142 0.254221 0.150410
O O2 0.500000 0.000000 0.113800
O O3 0.624795 0.012770 0.158001
O O4 0.597473 0.112863 0.038146
O O5 0.250000 0.396433 0.674714
O O6 0.141249 0.238247 0.702325
O O7 0.169627 0.452346 0.776550
O O8 0.750000 0.899535 0.751147
O O9 0.633469 0.862443 0.821681
O O10 0.631814 0.042802 0.718365
O O11 0.877727 0.891584 0.950980
O O12 0.909142 0.142058 0.903143
O O13 0.000000 0.000000 0.967095
O O14 0.500000 0.500000 0.199782
O O15 0.544538 0.293619 0.279734
O O16 0.897597 0.105907 0.361348
O O17 0.029947 0.231531 0.383520
O O18 0.659644 0.638486 0.895965
O O19 0.750000 0.431748 0.866452
#
# Coordination Sequence:
#
# PCOD9378386 Si02
#       8
#     8   8   8   8   8   8   8   8
#     4  11  23  37  59  83 115 150 197 242 294 348
#     4   9  19  36  54  80 117 150 186 235 292 347
#     4  10  20  34  57  87 118 149 189 245 299 343
#     4   9  20  39  56  81 114 150 186 239 292 351
#     4  12  21  35  58  89 116 148 197 250 292 351
#     4  11  19  35  60  85 116 147 192 240 293 338
#     4  10  18  36  60  83 113 149 195 235 289 342
#     4  10  21  34  54  90 120 144 186 243 291 336
#
# _framework density 18.290486999999999
#
# number of rings (size 3 to 8) (size 9 to 14) (size 15 to 20)
#    0.000    1.750    3.750    2.625    1.750    1.000 
#    0.000    6.875    0.000    1.500    0.000    0.000 
#    0.000    0.000    0.000    0.000    0.000    0.000 
#
# Total GULP energy -178371.000599 kJ/mol
# GULP energy per Si atom -5574.093769 kJ/mol
# Density = 1.824886 g / cm^3
# Si number density = 18.290487 Si / 1000 Ang^3
#
#
#
# Elastic Constant Matrix: (Units=GPa)
#
#
# Indices 1 2 3 4 5 6 
#
# 1 61.0127 27.7309 10.7254 0.0000 0.0000 0.0000
# 2 27.7309 97.0050 45.7802 0.0000 0.0000 0.0000
# 3 10.7254 45.7802 80.2684 0.0000 0.0000 0.0000
# 4 0.0000 0.0000 0.0000 25.9997 0.0000 0.0000
# 5 0.0000 0.0000 0.0000 0.0000 0.9697 0.0000
# 6 0.0000 0.0000 0.0000 0.0000 0.0000 29.8866
#
#
#
# Elastic Compliance Matrix: (Units=1/GPa)
#
#
# Indices 1 2 3 4 5 6 
#
# 1 0.018871 -0.005753 0.000760 0.000000 0.000000 0.000000
# 2 -0.005753 0.015859 -0.008276 0.000000 0.000000 0.000000
# 3 0.000760 -0.008276 0.017077 0.000000 0.000000 0.000000
# 4 0.000000 0.000000 0.000000 0.038462 0.000000 0.000000
# 5 0.000000 0.000000 0.000000 0.000000 1.031197 0.000000
# 6 0.000000 0.000000 0.000000 0.000000 0.000000 0.033460
#
#
# Mechanical properties :
#
#
# Convention : Reuss Voigt Hill
#
# Bulk Modulus (GPa) = 39.57601 45.19542 42.38571
# Shear Modulus (GPa) = 4.20207 21.64117 12.92162
#
# Velocity S-wave (km/s) = 1.51736 3.44349 2.66083
# Velocity P-wave (km/s) = 4.97537 6.36974 5.71524
#
# Compressibility (1/GPa) = 0.02526783
#
# Stress axis : x y z
#
# Youngs Moduli (GPa) = 52.99014 63.05391 58.55799
#
# Poissons Ratio (x) = 0.36277 -0.04449
# Poissons Ratio (y) = 0.30487 0.48466
# Poissons Ratio (z) = -0.04026 0.52187
#
# Static dielectric constant tensor:
#      x y z
#    x 1.664880 0.000000 0.000000 
#    y 0.000000 1.656280 0.000000 
#    z 0.000000 0.000000 1.630120 
# 
# From -- ./inp_files/20261.got.cif
#   From: 2010.05.17/outbox.cif.g08.bks.cpg/sg46_11_cif.got.tgz:20261.got - 2010.06.03 19:58:25.
