data_PCOD9378577
_publ_section_title
;
Structure prediction by ZEFSAII (Michael W. Deem and Ramdas Pophale) SiO2 
 PCOD9378577
Probable space group: I M A 2
;
_chemical_formula_sum "Si O2"
_cell_formula_units_Z 52
_cell_length_a 12.584588
_cell_length_b 23.872232
_cell_length_c 9.578835
_cell_angle_alpha 90.000000
_cell_angle_beta 90.000000
_cell_angle_gamma 90.000000
_cell_volume 2877.694726
_symmetry_space_group_name_H-M "I M A 2"
_symmetry_group_IT_number 46
_symmetry_cell_setting 'orthorhombic'
loop_
_space_group_symop_operation_xyz
x,y,z
-x,-y,z
1/2-x,y,z
1/2+x,-y,z
1/2+x,1/2+y,1/2+z
1/2-x,1/2-y,1/2+z
-x,1/2+y,1/2+z
x,1/2-y,1/2+z
loop_
_atom_site_type_symbol
_atom_site_label
_atom_site_fract_x
_atom_site_fract_y
_atom_site_fract_z
Si Si1 0.126504 0.329947 0.243600
Si Si2 0.994453 0.220925 0.313327
Si Si3 0.984299 0.895668 0.974541
Si Si4 0.625464 0.210049 0.037311
Si Si5 0.500000 0.500000 0.280054
Si Si6 0.376328 0.068195 0.562709
Si Si7 0.620945 0.606160 0.769784
O O1 0.250000 0.318995 0.218943
O O2 0.065058 0.272375 0.257363
O O3 0.083743 0.372540 0.126058
O O4 0.107906 0.364125 0.386890
O O5 0.069268 0.166297 0.310941
O O6 0.901149 0.212832 0.200806
O O7 0.941326 0.242028 0.456338
O O8 0.022095 0.948044 0.882506
O O9 0.076988 0.849610 0.988964
O O10 0.934981 0.910755 0.124762
O O11 0.750000 0.214717 0.009335
O O12 0.588878 0.520642 0.170711
O O13 0.250000 0.071389 0.567027
O O14 0.405667 0.065370 0.400092
O O15 0.750000 0.609950 0.755990
#
# Coordination Sequence:
#
# PCOD9378577 Si02
#       7
#     8   8   8   8   4   8   8
#     4   9  16  30  50  78 108 135 166 203 248 311
#     4  10  19  31  52  77 105 141 172 200 253 307
#     4   9  20  33  52  76 101 137 176 215 263 309
#     4  10  20  34  49  72 104 140 179 214 242 292
#     4  10  20  38  56  72  98 134 178 224 260 316
#     4   9  19  33  53  76 102 133 168 211 262 308
#     4  10  19  33  52  81 111 132 161 213 272 326
#
# _framework density 18.07002
#
# number of rings (size 3 to 8) (size 9 to 14) (size 15 to 20)
#    0.000    2.462    0.000    2.308    0.000    1.846 
#    0.000    4.615    0.000    6.462    0.000    0.000 
#    0.000    0.000    0.000    0.000    0.000    0.000 
#
# Total GULP energy -144801.075196 kJ/mol
# GULP energy per Si atom -5569.272123 kJ/mol
# Density = 1.802889 g / cm^3
# Si number density = 18.070020 Si / 1000 Ang^3
#
#
#
# Elastic Constant Matrix: (Units=GPa)
#
#
# Indices 1 2 3 4 5 6 
#
# 1 60.2250 14.0926 19.8919 0.0000 0.0000 0.0000
# 2 14.0926 66.1847 34.4357 0.0000 0.0000 0.0000
# 3 19.8919 34.4357 126.5477 0.0000 0.0000 -0.0001
# 4 0.0000 0.0000 0.0000 22.2573 -0.0001 0.0000
# 5 0.0000 0.0000 0.0000 -0.0001 21.0272 0.0000
# 6 0.0000 0.0000 -0.0001 0.0000 0.0000 16.0599
#
#
#
# Elastic Compliance Matrix: (Units=1/GPa)
#
#
# Indices 1 2 3 4 5 6 
#
# 1 0.017930 -0.002739 -0.002073 0.000000 0.000000 0.000000
# 2 -0.002739 0.018020 -0.004473 0.000000 0.000000 0.000000
# 3 -0.002073 -0.004473 0.009445 0.000000 0.000000 0.000000
# 4 0.000000 0.000000 0.000000 0.044929 0.000000 0.000000
# 5 0.000000 0.000000 0.000000 0.000000 0.047558 0.000000
# 6 0.000000 0.000000 0.000000 0.000000 0.000000 0.062267
#
#
# Mechanical properties :
#
#
# Convention : Reuss Voigt Hill
#
# Bulk Modulus (GPa) = 37.27909 43.31086 40.29498
# Shear Modulus (GPa) = 21.96255 24.17136 23.06695
#
# Velocity S-wave (km/s) = 3.49006 3.66136 3.57673
# Velocity P-wave (km/s) = 6.07584 6.47259 6.27735
#
# Compressibility (1/GPa) = 0.02682469
#
# Stress axis : x y z
#
# Youngs Moduli (GPa) = 55.77219 55.49480 105.87434
#
# Poissons Ratio (x) = 0.15201 0.21948
# Poissons Ratio (y) = 0.15277 0.47356
# Poissons Ratio (z) = 0.11562 0.24822
#
# Static dielectric constant tensor:
#      x y z
#    x 1.589450 0.000000 0.000000 
#    y 0.000000 1.626290 0.000000 
#    z 0.000000 0.000000 1.658770 
# 
# From -- ./inp_files/4837.got.cif
#   From: 2010.05.17/outbox.cif.g08.bks.cpg/sg46_3_cif.got.tgz:4837.got - 2010.06.03 19:58:25.
