data_PCOD9378568
_publ_section_title
;
Structure prediction by ZEFSAII (Michael W. Deem and Ramdas Pophale) SiO2 
 PCOD9378568
Probable space group: I M A 2
;
_chemical_formula_sum "Si O2"
_cell_formula_units_Z 56
_cell_length_a 8.881031
_cell_length_b 20.785416
_cell_length_c 15.597348
_cell_angle_alpha 90.000000
_cell_angle_beta 90.000000
_cell_angle_gamma 90.000000
_cell_volume 2879.206864
_symmetry_space_group_name_H-M "I M A 2"
_symmetry_group_IT_number 46
_symmetry_cell_setting 'orthorhombic'
loop_
_space_group_symop_operation_xyz
x,y,z
-x,-y,z
1/2-x,y,z
1/2+x,-y,z
1/2+x,1/2+y,1/2+z
1/2-x,1/2-y,1/2+z
-x,1/2+y,1/2+z
x,1/2-y,1/2+z
loop_
_atom_site_type_symbol
_atom_site_label
_atom_site_fract_x
_atom_site_fract_y
_atom_site_fract_z
Si Si1 0.929618 0.569076 0.121660
Si Si2 0.421714 0.879021 0.453256
Si Si3 0.426714 0.755554 0.356012
Si Si4 0.418916 0.932935 0.267777
Si Si5 0.431383 0.285475 0.175268
Si Si6 0.072413 0.070970 0.109784
Si Si7 0.425669 0.810382 0.032719
O O1 0.750000 0.561930 0.123429
O O2 0.967694 0.637450 0.168122
O O3 0.000000 0.500000 0.149274
O O4 0.986942 0.584721 0.025550
O O5 0.250000 0.865154 0.484873
O O6 0.492093 0.815058 0.411570
O O7 0.410838 0.919140 0.366859
O O8 0.250000 0.771888 0.336513
O O9 0.506672 0.739377 0.267038
O O10 0.429501 0.703194 0.430864
O O11 0.250000 0.933055 0.233183
O O12 0.519729 0.895092 0.200044
O O13 0.500000 0.000000 0.262650
O O14 0.250000 0.278803 0.171025
O O15 0.502775 0.245163 0.095113
O O16 0.250000 0.064509 0.109019
O O17 0.011586 0.122807 0.044023
O O18 0.000000 0.000000 0.096480
O O19 0.250000 0.815280 0.057863
#
# Coordination Sequence:
#
# PCOD9378568 Si02
#       7
#     8   8   8   8   8   8   8
#     4  11  24  40  61  89 124 168 214 262 321 379
#     4  10  20  36  57  86 118 154 199 249 308 371
#     4  10  22  39  63  91 120 161 207 255 314 379
#     4  10  19  31  50  78 115 153 194 238 292 362
#     4  11  24  41  63  94 128 166 211 265 323 379
#     4  11  22  37  58  85 119 159 202 250 309 370
#     4  11  22  40  65  91 122 161 206 255 313 377
#
# _framework density 19.4498
#
# number of rings (size 3 to 8) (size 9 to 14) (size 15 to 20)
#    0.000    1.429    1.429    5.143    0.000    6.857 
#    0.000    0.714    0.000    1.714    0.000    0.000 
#    0.000    0.000    0.000    0.000    0.000    0.000 
#
# Total GULP energy -155909.700394 kJ/mol
# GULP energy per Si atom -5568.203585 kJ/mol
# Density = 1.940553 g / cm^3
# Si number density = 19.449800 Si / 1000 Ang^3
#
#
#
# Elastic Constant Matrix: (Units=GPa)
#
#
# Indices 1 2 3 4 5 6 
#
# 1 111.3775 41.5703 27.0361 0.0000 0.0000 0.0000
# 2 41.5703 97.6025 21.8441 0.0000 0.0000 0.0000
# 3 27.0361 21.8441 68.6549 0.0000 0.0000 0.0000
# 4 0.0000 0.0000 0.0000 17.7254 0.0000 0.0000
# 5 0.0000 0.0000 0.0000 0.0000 22.6408 0.0000
# 6 0.0000 0.0000 0.0000 0.0000 0.0000 23.2034
#
#
#
# Elastic Compliance Matrix: (Units=1/GPa)
#
#
# Indices 1 2 3 4 5 6 
#
# 1 0.011269 -0.004098 -0.003134 0.000000 0.000000 0.000000
# 2 -0.004098 0.012522 -0.002370 0.000000 0.000000 0.000000
# 3 -0.003134 -0.002370 0.016554 0.000000 0.000000 0.000000
# 4 0.000000 0.000000 0.000000 0.056416 0.000000 0.000000
# 5 0.000000 0.000000 0.000000 0.000000 0.044168 0.000000
# 6 0.000000 0.000000 0.000000 0.000000 0.000000 0.043097
#
#
# Mechanical properties :
#
#
# Convention : Reuss Voigt Hill
#
# Bulk Modulus (GPa) = 47.30362 50.94843 49.12603
# Shear Modulus (GPa) = 23.77822 25.19286 24.48554
#
# Velocity S-wave (km/s) = 3.50028 3.60290 3.55196
# Velocity P-wave (km/s) = 6.38041 6.59997 6.49112
#
# Compressibility (1/GPa) = 0.02114003
#
# Stress axis : x y z
#
# Youngs Moduli (GPa) = 88.74099 79.86218 60.40926
#
# Poissons Ratio (x) = 0.32729 0.18930
# Poissons Ratio (y) = 0.36368 0.14318
# Poissons Ratio (z) = 0.27808 0.18929
#
# Static dielectric constant tensor:
#      x y z
#    x 1.701200 0.000000 0.000000 
#    y 0.000000 2.083330 0.000000 
#    z 0.000000 0.000000 1.820110 
# 
# From -- ./inp_files/14180.got.cif
#   From: 2010.05.17/outbox.cif.g08.bks.cpg/sg46_8_cif.got.tgz:14180.got - 2010.06.03 19:58:25.
