data_PCOD9378502
_publ_section_title
;
Structure prediction by ZEFSAII (Michael W. Deem and Ramdas Pophale) SiO2 
 PCOD9378502
Probable space group: I M A 2
;
_chemical_formula_sum "Si O2"
_cell_formula_units_Z 64
_cell_length_a 14.325372
_cell_length_b 17.330433
_cell_length_c 15.193011
_cell_angle_alpha 90.000000
_cell_angle_beta 90.000000
_cell_angle_gamma 90.000000
_cell_volume 3771.891351
_symmetry_space_group_name_H-M "I M A 2"
_symmetry_group_IT_number 46
_symmetry_cell_setting 'orthorhombic'
loop_
_space_group_symop_operation_xyz
x,y,z
-x,-y,z
1/2-x,y,z
1/2+x,-y,z
1/2+x,1/2+y,1/2+z
1/2-x,1/2-y,1/2+z
-x,1/2+y,1/2+z
x,1/2-y,1/2+z
loop_
_atom_site_type_symbol
_atom_site_label
_atom_site_fract_x
_atom_site_fract_y
_atom_site_fract_z
Si Si1 0.142580 0.933385 0.926070
Si Si2 0.050152 0.610491 0.250340
Si Si3 0.640757 0.770508 0.362395
Si Si4 0.516224 0.735387 0.690118
Si Si5 0.519444 0.414240 0.593924
Si Si6 0.140712 0.170394 0.550896
Si Si7 0.144373 0.391535 0.457016
Si Si8 0.358405 0.458119 0.188003
O O1 0.250000 0.910559 0.918255
O O2 0.081305 0.893881 0.851258
O O3 0.135549 0.025466 0.910523
O O4 0.102787 0.919325 0.023125
O O5 0.112471 0.547612 0.197354
O O6 0.055795 0.696675 0.214213
O O7 0.942151 0.584709 0.239584
O O8 0.750000 0.784392 0.342502
O O9 0.579544 0.780232 0.275833
O O10 0.613997 0.820811 0.448604
O O11 0.631579 0.682259 0.395761
O O12 0.469952 0.655816 0.660339
O O13 0.580008 0.772981 0.612478
O O14 0.500000 0.500000 0.631017
O O15 0.429488 0.393189 0.534812
O O16 0.250000 0.193451 0.556709
O O17 0.134514 0.084671 0.593095
O O18 0.250000 0.387710 0.492136
O O19 0.250000 0.447303 0.217160
#
# Coordination Sequence:
#
# PCOD9378502 Si02
#       8
#     8   8   8   8   8   8   8   8
#     4  10  21  36  54  79 109 142 177 227 279 336
#     4  10  21  32  53  83 113 143 182 218 282 336
#     4  10  19  30  51  83 114 147 175 214 284 344
#     4  11  21  33  53  78 112 143 186 232 267 322
#     4  10  21  36  56  76 106 142 186 228 273 324
#     4   9  18  32  51  80 116 148 174 212 276 342
#     4   9  18  31  53  83 112 136 165 212 283 348
#     4   9  19  33  51  78 116 146 174 218 266 329
#
# _framework density 16.967616
#
# number of rings (size 3 to 8) (size 9 to 14) (size 15 to 20)
#    0.000    2.250    1.250    1.500   10.500    1.000 
#    0.000    1.250    5.500    0.000    0.000    0.000 
#    0.000    0.000    0.000    0.000    0.000    0.000 
#
# Total GULP energy -178410.893569 kJ/mol
# GULP energy per Si atom -5575.340424 kJ/mol
# Density = 1.692900 g / cm^3
# Si number density = 16.967616 Si / 1000 Ang^3
#
#
#
# Elastic Constant Matrix: (Units=GPa)
#
#
# Indices 1 2 3 4 5 6 
#
# 1 67.7539 27.2527 21.4798 0.0000 0.0000 0.0000
# 2 27.2527 106.3277 46.6494 0.0000 0.0000 0.0000
# 3 21.4798 46.6494 70.8502 0.0000 0.0000 0.0000
# 4 0.0000 0.0000 0.0000 34.6540 0.0000 0.0000
# 5 0.0000 0.0000 0.0000 0.0000 10.0140 0.0000
# 6 0.0000 0.0000 0.0000 0.0000 0.0000 18.2148
#
#
#
# Elastic Compliance Matrix: (Units=1/GPa)
#
#
# Indices 1 2 3 4 5 6 
#
# 1 0.016958 -0.002940 -0.003205 0.000000 0.000000 0.000000
# 2 -0.002940 0.013735 -0.008152 0.000000 0.000000 0.000000
# 3 -0.003205 -0.008152 0.020454 0.000000 0.000000 0.000000
# 4 0.000000 0.000000 0.000000 0.028857 0.000000 0.000000
# 5 0.000000 0.000000 0.000000 0.000000 0.099860 0.000000
# 6 0.000000 0.000000 0.000000 0.000000 0.000000 0.054900
#
#
# Mechanical properties :
#
#
# Convention : Reuss Voigt Hill
#
# Bulk Modulus (GPa) = 44.34296 48.41064 46.37680
# Shear Modulus (GPa) = 18.45861 22.54655 20.50258
#
# Velocity S-wave (km/s) = 3.30187 3.64922 3.47988
# Velocity P-wave (km/s) = 6.38178 6.80800 6.59833
#
# Compressibility (1/GPa) = 0.02255149
#
# Stress axis : x y z
#
# Youngs Moduli (GPa) = 58.96874 72.80621 48.89116
#
# Poissons Ratio (x) = 0.21407 0.15671
# Poissons Ratio (y) = 0.17338 0.39857
# Poissons Ratio (z) = 0.18901 0.59352
#
# Static dielectric constant tensor:
#      x y z
#    x 1.581180 0.000000 0.000000 
#    y 0.000000 1.607210 0.000000 
#    z 0.000000 0.000000 1.593940 
# 
# From -- ./inp_files/16198.got.cif
#   From: 2010.05.17/outbox.cif.g08.bks.cpg/sg46_9_cif.got.tgz:16198.got - 2010.06.03 19:58:25.
