data_PCOD9378879
_publ_section_title
;
Structure prediction by ZEFSAII (Michael W. Deem and Ramdas Pophale) SiO2 
 PCOD9378879
Probable space group: I M A 2
;
_chemical_formula_sum "Si O2"
_cell_formula_units_Z 64
_cell_length_a 8.547508
_cell_length_b 31.240876
_cell_length_c 14.699616
_cell_angle_alpha 90.000000
_cell_angle_beta 90.000000
_cell_angle_gamma 90.000000
_cell_volume 3925.262532
_symmetry_space_group_name_H-M "I M A 2"
_symmetry_group_IT_number 46
_symmetry_cell_setting 'orthorhombic'
loop_
_space_group_symop_operation_xyz
x,y,z
-x,-y,z
1/2-x,y,z
1/2+x,-y,z
1/2+x,1/2+y,1/2+z
1/2-x,1/2-y,1/2+z
-x,1/2+y,1/2+z
x,1/2-y,1/2+z
loop_
_atom_site_type_symbol
_atom_site_label
_atom_site_fract_x
_atom_site_fract_y
_atom_site_fract_z
Si Si1 0.931914 0.823409 0.803940
Si Si2 0.062112 0.718348 0.603295
Si Si3 0.938976 0.453582 0.228241
Si Si4 0.435443 0.731324 0.813480
Si Si5 0.060676 0.863170 0.985244
Si Si6 0.434784 0.301134 0.993980
Si Si7 0.437763 0.545807 0.439954
Si Si8 0.934522 0.132758 0.631391
O O1 0.750000 0.829316 0.781834
O O2 0.968521 0.774679 0.828616
O O3 0.983903 0.850665 0.890000
O O4 0.035670 0.836870 0.718296
O O5 0.250000 0.722882 0.592972
O O6 0.027726 0.716955 0.710733
O O7 0.014794 0.673595 0.556387
O O8 0.988173 0.759542 0.553332
O O9 0.750000 0.453459 0.227897
O O10 0.989278 0.447685 0.334087
O O11 0.990449 0.414024 0.165127
O O12 0.000000 0.500000 0.198746
O O13 0.250000 0.740509 0.818335
O O14 0.481205 0.700736 0.896288
O O15 0.250000 0.861272 0.976214
O O16 0.017367 0.912831 0.999434
O O17 0.250000 0.298670 0.981623
O O18 0.480024 0.343825 0.048909
O O19 0.500000 0.500000 0.470977
O O20 0.250000 0.543741 0.438240
O O21 0.750000 0.130643 0.612141
#
# Coordination Sequence:
#
# PCOD9378879 Si02
#       8
#     8   8   8   8   8   8   8   8
#     4  12  22  30  47  76 105 135 172 216 256 294
#     4  10  21  35  55  74  96 136 176 211 253 305
#     4   9  18  31  49  73 100 134 169 206 253 305
#     4  11  22  37  53  71 100 138 177 212 254 307
#     4  10  19  34  52  72 100 137 176 209 250 304
#     4  12  24  35  51  77 104 133 172 217 261 297
#     4   9  17  30  47  71 101 133 167 206 249 302
#     4  11  21  36  53  72 101 142 179 207 252 312
#
# _framework density 16.304642000000001
#
# number of rings (size 3 to 8) (size 9 to 14) (size 15 to 20)
#    0.000    1.500    3.750    3.000    0.000    2.000 
#    0.000    0.000    0.000    0.000    0.000    0.875 
#    0.000    2.000    0.000    0.000    0.000    0.000 
#
# Total GULP energy -178549.024235 kJ/mol
# GULP energy per Si atom -5579.657007 kJ/mol
# Density = 1.626753 g / cm^3
# Si number density = 16.304642 Si / 1000 Ang^3
#
#
#
# Elastic Constant Matrix: (Units=GPa)
#
#
# Indices 1 2 3 4 5 6 
#
# 1 21.1010 14.9023 15.8244 0.0000 0.0000 0.0000
# 2 14.9023 84.1191 3.6721 0.0000 -0.0002 0.0000
# 3 15.8244 3.6721 45.1730 0.0000 -0.0001 0.0000
# 4 0.0000 0.0000 0.0000 18.9115 0.0000 0.0000
# 5 0.0000 -0.0002 -0.0001 0.0000 48.1717 0.0000
# 6 0.0000 0.0000 0.0000 0.0000 0.0000 22.1873
#
#
#
# Elastic Compliance Matrix: (Units=1/GPa)
#
#
# Indices 1 2 3 4 5 6 
#
# 1 0.074930 -0.012172 -0.025259 0.000000 0.000000 0.000000
# 2 -0.012172 0.013907 0.003133 0.000000 0.000000 0.000000
# 3 -0.025259 0.003133 0.030731 0.000000 0.000000 0.000000
# 4 0.000000 0.000000 0.000000 0.052878 0.000000 0.000000
# 5 0.000000 0.000000 0.000000 0.000000 0.020759 0.000000
# 6 0.000000 0.000000 0.000000 0.000000 0.000000 0.045071
#
#
# Mechanical properties :
#
#
# Convention : Reuss Voigt Hill
#
# Bulk Modulus (GPa) = 19.61812 24.35453 21.98633
# Shear Modulus (GPa) = 15.43866 25.58706 20.51286
#
# Velocity S-wave (km/s) = 3.08049 3.96575 3.55082
# Velocity P-wave (km/s) = 4.97101 5.99493 5.50682
#
# Compressibility (1/GPa) = 0.05097327
#
# Stress axis : x y z
#
# Youngs Moduli (GPa) = 13.34578 71.90399 32.54055
#
# Poissons Ratio (x) = 0.87520 0.82195
# Poissons Ratio (y) = 0.16244 -0.10196
# Poissons Ratio (z) = 0.33710 -0.22530
#
# Static dielectric constant tensor:
#      x y z
#    x 1.550760 0.000000 0.000000 
#    y 0.000000 1.566840 0.000000 
#    z 0.000000 0.000000 1.537130 
# 
# From -- ./inp_files/14749.got.cif
#   From: 2010.05.17/outbox.cif.g08.bks.cpg/sg46_8_cif.got.tgz:14749.got - 2010.06.03 19:58:25.
