data_PCOD9378560
_publ_section_title
;
Structure prediction by ZEFSAII (Michael W. Deem and Ramdas Pophale) SiO2 
 PCOD9378560
Probable space group: I M A 2
;
_chemical_formula_sum "Si O2"
_cell_formula_units_Z 64
_cell_length_a 8.553602
_cell_length_b 16.772432
_cell_length_c 23.010470
_cell_angle_alpha 90.000000
_cell_angle_beta 90.000000
_cell_angle_gamma 90.000000
_cell_volume 3301.190357
_symmetry_space_group_name_H-M "I M A 2"
_symmetry_group_IT_number 46
_symmetry_cell_setting 'orthorhombic'
loop_
_space_group_symop_operation_xyz
x,y,z
-x,-y,z
1/2-x,y,z
1/2+x,-y,z
1/2+x,1/2+y,1/2+z
1/2-x,1/2-y,1/2+z
-x,1/2+y,1/2+z
x,1/2-y,1/2+z
loop_
_atom_site_type_symbol
_atom_site_label
_atom_site_fract_x
_atom_site_fract_y
_atom_site_fract_z
Si Si1 0.938290 0.586550 0.349880
Si Si2 0.565692 0.581068 0.603198
Si Si3 0.062376 0.254404 0.137821
Si Si4 0.438868 0.917694 0.422706
Si Si5 0.063862 0.413339 0.792237
Si Si6 0.059661 0.268505 0.264918
Si Si7 0.070643 0.795561 0.517281
Si Si8 0.929859 0.112785 0.979015
O O1 0.750000 0.585066 0.349634
O O2 0.990786 0.663971 0.311550
O O3 0.000000 0.500000 0.328529
O O4 0.997900 0.595563 0.416273
O O5 0.500000 0.500000 0.629098
O O6 0.750000 0.580769 0.610400
O O7 0.502488 0.663066 0.630505
O O8 0.524344 0.582124 0.534771
O O9 0.250000 0.250303 0.139210
O O10 0.011855 0.290808 0.199124
O O11 0.014057 0.297571 0.078830
O O12 0.250000 0.916291 0.415881
O O13 0.518090 0.910653 0.360102
O O14 0.493439 0.850160 0.466487
O O15 0.500000 0.000000 0.448329
O O16 0.250000 0.416068 0.783762
O O17 0.009830 0.324796 0.771545
O O18 0.000000 0.500000 0.770744
O O19 0.250000 0.267333 0.268641
O O20 0.250000 0.819123 0.527737
O O21 0.070434 0.707030 0.491168
O O22 0.750000 0.083769 0.980893
#
# Coordination Sequence:
#
# PCOD9378560 Si02
#       8
#     8   8   8   8   8   8   8   8
#     4  11  22  37  56  78 105 137 177 221 265 312
#     4  10  19  31  50  76 105 135 167 203 248 304
#     4   9  19  36  55  73  96 132 176 213 249 302
#     4  10  19  32  50  75 106 134 165 206 255 309
#     4  10  19  33  54  81 111 140 173 211 256 311
#     4   9  20  38  57  76 103 141 180 218 259 308
#     4   9  19  34  52  76 104 132 165 211 260 304
#     4  10  19  33  53  77 106 135 166 207 258 312
#
# _framework density 19.386945999999998
#
# number of rings (size 3 to 8) (size 9 to 14) (size 15 to 20)
#    0.000    2.250    0.000    3.750    0.000    2.500 
#    0.000    5.000    0.000    3.000    0.000    0.000 
#    0.000    0.000    0.000    0.000    0.000    0.000 
#
# Total GULP energy -178357.232015 kJ/mol
# GULP energy per Si atom -5573.663500 kJ/mol
# Density = 1.934282 g / cm^3
# Si number density = 19.386946 Si / 1000 Ang^3
#
#
#
# Elastic Constant Matrix: (Units=GPa)
#
#
# Indices 1 2 3 4 5 6 
#
# 1 28.2839 5.7306 6.9571 0.0000 0.0000 0.0000
# 2 5.7306 64.1299 34.2772 0.0000 0.0000 0.0000
# 3 6.9571 34.2772 93.8719 0.0000 0.0000 0.0000
# 4 0.0000 0.0000 0.0000 3.2661 0.0000 0.0000
# 5 0.0000 0.0000 0.0000 0.0000 11.3112 0.0000
# 6 0.0000 0.0000 0.0000 0.0000 0.0000 24.9984
#
#
#
# Elastic Compliance Matrix: (Units=1/GPa)
#
#
# Indices 1 2 3 4 5 6 
#
# 1 0.036270 -0.002242 -0.001869 0.000000 0.000000 0.000000
# 2 -0.002242 0.019513 -0.006959 0.000000 0.000000 0.000000
# 3 -0.001869 -0.006959 0.013332 0.000000 0.000000 0.000000
# 4 0.000000 0.000000 0.000000 0.306177 0.000000 0.000000
# 5 0.000000 0.000000 0.000000 0.000000 0.088408 0.000000
# 6 0.000000 0.000000 0.000000 0.000000 0.000000 0.040003
#
#
# Mechanical properties :
#
#
# Convention : Reuss Voigt Hill
#
# Bulk Modulus (GPa) = 21.28801 31.13506 26.21154
# Shear Modulus (GPa) = 9.23357 17.20318 13.21837
#
# Velocity S-wave (km/s) = 2.18475 2.98209 2.61400
# Velocity P-wave (km/s) = 4.16756 5.28695 4.76027
#
# Compressibility (1/GPa) = 0.04697479
#
# Stress axis : x y z
#
# Youngs Moduli (GPa) = 27.57114 51.24708 75.00479
#
# Poissons Ratio (x) = 0.11489 0.14022
# Poissons Ratio (y) = 0.06181 0.52197
# Poissons Ratio (z) = 0.05154 0.35663
#
# Static dielectric constant tensor:
#      x y z
#    x 1.678530 0.000000 0.000000 
#    y 0.000000 1.731320 0.000000 
#    z 0.000000 0.000000 1.674300 
# 
# From -- ./inp_files/23220.got.cif
#   From: 2010.05.17/outbox.cif.g08.bks.cpg/sg46_12_cif.got.tgz:23220.got - 2010.06.03 19:58:25.
