data_PCOD9378940
_publ_section_title
;
Structure prediction by ZEFSAII (Michael W. Deem and Ramdas Pophale) SiO2 
 PCOD9378940
Probable space group: I M A 2
;
_chemical_formula_sum "Si O2"
_cell_formula_units_Z 64
_cell_length_a 14.632212
_cell_length_b 21.263878
_cell_length_c 9.080770
_cell_angle_alpha 90.000000
_cell_angle_beta 90.000000
_cell_angle_gamma 90.000000
_cell_volume 2825.368719
_symmetry_space_group_name_H-M "I M A 2"
_symmetry_group_IT_number 46
_symmetry_cell_setting 'orthorhombic'
loop_
_space_group_symop_operation_xyz
x,y,z
-x,-y,z
1/2-x,y,z
1/2+x,-y,z
1/2+x,1/2+y,1/2+z
1/2-x,1/2-y,1/2+z
-x,1/2+y,1/2+z
x,1/2-y,1/2+z
loop_
_atom_site_type_symbol
_atom_site_label
_atom_site_fract_x
_atom_site_fract_y
_atom_site_fract_z
Si Si1 0.638897 0.578473 0.772510
Si Si2 0.640448 0.204017 0.709361
Si Si3 0.637859 0.696302 0.964263
Si Si4 0.647071 0.814959 0.792385
Si Si5 0.893718 0.943219 0.934815
Si Si6 0.638496 0.324986 0.876984
Si Si7 0.906629 0.067664 0.796436
Si Si8 0.361121 0.541860 0.960685
O O1 0.750000 0.579152 0.760868
O O2 0.609344 0.643707 0.846706
O O3 0.603633 0.564682 0.609592
O O4 0.613113 0.522590 0.883211
O O5 0.750000 0.209523 0.703360
O O6 0.610293 0.192479 0.542743
O O7 0.622782 0.140602 0.802951
O O8 0.604222 0.269710 0.772214
O O9 0.750000 0.692262 0.969771
O O10 0.607350 0.764346 0.905881
O O11 0.604110 0.683010 0.130066
O O12 0.750000 0.790730 0.767643
O O13 0.654075 0.882958 0.864090
O O14 0.993119 0.935788 0.863144
O O15 0.856350 0.011407 0.884932
O O16 0.750000 0.323911 0.870175
O O17 0.612690 0.398010 0.860477
O O18 0.900614 0.049460 0.624215
O O19 0.250000 0.542972 0.977947
#
# Coordination Sequence:
#
# PCOD9378940 Si02
#       8
#     8   8   8   8   8   8   8   8
#     4  10  20  35  58  88 116 144 187 238 286 339
#     4   9  17  32  55  78 104 138 177 224 274 326
#     4   9  18  33  56  85 111 139 182 239 290 328
#     4  10  19  34  57  82 111 148 190 234 282 337
#     4  11  23  37  52  77 115 152 184 231 288 343
#     4   8  15  28  50  82 111 134 169 224 280 321
#     4  10  22  39  54  76 111 148 189 230 280 340
#     4   9  18  36  62  86 109 143 190 238 280 332
#
# _framework density 22.651910999999998
#
# number of rings (size 3 to 8) (size 9 to 14) (size 15 to 20)
#    0.000    2.500    0.000    3.000    0.000    6.000 
#    0.000   12.500    0.000    0.000    0.000    0.000 
#    0.000    0.000    0.000    0.000    0.000    0.000 
#
# Total GULP energy -178681.581657 kJ/mol
# GULP energy per Si atom -5583.799427 kJ/mol
# Density = 2.260035 g / cm^3
# Si number density = 22.651911 Si / 1000 Ang^3
#
#
#
# Elastic Constant Matrix: (Units=GPa)
#
#
# Indices 1 2 3 4 5 6 
#
# 1 48.6807 -12.0768 -3.2932 0.0000 0.0000 0.0000
# 2 -12.0768 114.4478 21.6775 0.0000 0.0000 0.0000
# 3 -3.2932 21.6775 84.3923 0.0000 0.0000 0.0000
# 4 0.0000 0.0000 0.0000 42.1631 0.0000 0.0000
# 5 0.0000 0.0000 0.0000 0.0000 9.9847 0.0000
# 6 0.0000 0.0000 0.0000 0.0000 0.0000 4.8738
#
#
#
# Elastic Compliance Matrix: (Units=1/GPa)
#
#
# Indices 1 2 3 4 5 6 
#
# 1 0.021100 0.002176 0.000264 0.000000 0.000000 0.000000
# 2 0.002176 0.009409 -0.002332 0.000000 0.000000 0.000000
# 3 0.000264 -0.002332 0.012459 0.000000 0.000000 0.000000
# 4 0.000000 0.000000 0.000000 0.023717 0.000000 0.000000
# 5 0.000000 0.000000 0.000000 0.000000 0.100153 0.000000
# 6 0.000000 0.000000 0.000000 0.000000 0.000000 0.205178
#
#
# Mechanical properties :
#
#
# Convention : Reuss Voigt Hill
#
# Bulk Modulus (GPa) = 23.15606 28.90397 26.03002
# Shear Modulus (GPa) = 12.94688 27.48522 20.21605
#
# Velocity S-wave (km/s) = 2.39332 3.48713 2.99066
# Velocity P-wave (km/s) = 4.22872 5.38528 4.84166
#
# Compressibility (1/GPa) = 0.04318523
#
# Stress axis : x y z
#
# Youngs Moduli (GPa) = 47.39371 106.28172 80.26504
#
# Poissons Ratio (x) = -0.23132 -0.02122
# Poissons Ratio (y) = -0.10315 0.18717
# Poissons Ratio (z) = -0.01253 0.24784
#
# Static dielectric constant tensor:
#      x y z
#    x 1.916630 0.000000 0.000000 
#    y 0.000000 1.857780 0.000000 
#    z 0.000000 0.000000 1.785940 
# 
# From -- ./inp_files/6954.got.cif
#   From: 2010.05.17/outbox.cif.g08.bks.cpg/sg46_4_cif.got.tgz:6954.got - 2010.06.03 19:58:25.
