data_PCOD9378393
_publ_section_title
;
Structure prediction by ZEFSAII (Michael W. Deem and Ramdas Pophale) SiO2 
 PCOD9378393
Probable space group: I M A 2
;
_chemical_formula_sum "Si O2"
_cell_formula_units_Z 48
_cell_length_a 14.951990
_cell_length_b 10.865741
_cell_length_c 13.692779
_cell_angle_alpha 90.000000
_cell_angle_beta 90.000000
_cell_angle_gamma 90.000000
_cell_volume 2224.589820
_symmetry_space_group_name_H-M "I M A 2"
_symmetry_group_IT_number 46
_symmetry_cell_setting 'orthorhombic'
loop_
_space_group_symop_operation_xyz
x,y,z
-x,-y,z
1/2-x,y,z
1/2+x,-y,z
1/2+x,1/2+y,1/2+z
1/2-x,1/2-y,1/2+z
-x,1/2+y,1/2+z
x,1/2-y,1/2+z
loop_
_atom_site_type_symbol
_atom_site_label
_atom_site_fract_x
_atom_site_fract_y
_atom_site_fract_z
Si Si1 0.250000 0.601404 0.240150
Si Si2 0.750000 0.797885 0.395907
Si Si3 0.924130 0.252766 0.810713
Si Si4 0.250000 0.102789 0.599871
Si Si5 0.112489 0.231621 0.220407
Si Si6 0.857999 0.046276 0.195161
Si Si7 0.250000 0.032381 0.927079
Si Si8 0.575105 0.396203 0.498783
O O1 0.338283 0.678230 0.268303
O O2 0.250000 0.538680 0.135403
O O3 0.250000 0.481483 0.310715
O O4 0.750000 0.895597 0.482228
O O5 0.832896 0.791891 0.321452
O O6 0.750000 0.671909 0.457089
O O7 0.897185 0.394922 0.793681
O O8 0.939677 0.213710 0.922914
O O9 0.015063 0.223292 0.752511
O O10 0.334711 0.176689 0.647935
O O11 0.111455 0.093437 0.176438
O O12 0.750000 0.049854 0.194138
O O13 0.902003 0.130718 0.110862
O O14 0.164754 0.962869 0.964487
O O15 0.500000 0.500000 0.489792
#
# Coordination Sequence:
#
# PCOD9378393 Si02
#       8
#     4   4   8   4   8   8   4   8
#     4  10  22  40  62  98 135 173 206 273 338 394
#     4  11  21  39  66  98 130 174 224 270 335 391
#     4  11  25  42  69  97 136 171 219 282 336 392
#     4  11  23  41  67  99 141 177 219 274 339 404
#     4  11  23  43  70  98 132 178 228 283 325 396
#     4  12  23  46  69  96 133 180 225 274 335 394
#     4  10  18  36  61  93 128 162 217 263 318 377
#     4  11  23  39  69 100 125 171 227 271 321 397
#
# _framework density 21.577012
#
# number of rings (size 3 to 8) (size 9 to 14) (size 15 to 20)
#    0.000    1.000    5.000    3.500    2.333    1.333 
#    3.000    0.000    3.667    0.000    0.000    0.000 
#    0.000    0.000    0.000    0.000    0.000    0.000 
#
# Total GULP energy -134008.600987 kJ/mol
# GULP energy per Si atom -5583.691708 kJ/mol
# Density = 2.152790 g / cm^3
# Si number density = 21.577012 Si / 1000 Ang^3
#
#
#
# Elastic Constant Matrix: (Units=GPa)
#
#
# Indices 1 2 3 4 5 6 
#
# 1 150.1186 1.0632 28.4286 0.0000 0.0000 0.0000
# 2 1.0632 42.5259 3.6186 0.0000 0.0000 0.0000
# 3 28.4286 3.6186 88.9193 0.0000 0.0000 0.0000
# 4 0.0000 0.0000 0.0000 34.6895 0.0000 0.0000
# 5 0.0000 0.0000 0.0000 0.0000 25.1130 0.0000
# 6 0.0000 0.0000 0.0000 0.0000 0.0000 19.1212
#
#
#
# Elastic Compliance Matrix: (Units=1/GPa)
#
#
# Indices 1 2 3 4 5 6 
#
# 1 0.007091 0.000016 -0.002268 0.000000 0.000000 0.000000
# 2 0.000016 0.023597 -0.000965 0.000000 0.000000 0.000000
# 3 -0.002268 -0.000965 0.012010 0.000000 0.000000 0.000000
# 4 0.000000 0.000000 0.000000 0.028827 0.000000 0.000000
# 5 0.000000 0.000000 0.000000 0.000000 0.039820 0.000000
# 6 0.000000 0.000000 0.000000 0.000000 0.000000 0.052298
#
#
# Mechanical properties :
#
#
# Convention : Reuss Voigt Hill
#
# Bulk Modulus (GPa) = 27.57594 38.64274 33.10934
# Shear Modulus (GPa) = 27.44760 32.34832 29.89796
#
# Velocity S-wave (km/s) = 3.57049 3.87615 3.72646
# Velocity P-wave (km/s) = 5.45947 6.16286 5.82180
#
# Compressibility (1/GPa) = 0.03626350
#
# Stress axis : x y z
#
# Youngs Moduli (GPa) = 141.02946 42.37856 83.26106
#
# Poissons Ratio (x) = -0.00066 0.18881
# Poissons Ratio (y) = -0.00221 0.08037
# Poissons Ratio (z) = 0.31980 0.04091
#
# Static dielectric constant tensor:
#      x y z
#    x 1.782050 0.000000 0.000000 
#    y 0.000000 1.791020 0.000000 
#    z 0.000000 0.000000 1.912140 
# 
# From -- ./inp_files/15904.got.cif
#   From: 2010.05.17/outbox.cif.g08.bks.cpg/sg46_8_cif.got.tgz:15904.got - 2010.06.03 19:58:25.
