data_PCOD9378090
_publ_section_title
;
Structure prediction by ZEFSAII (Michael W. Deem and Ramdas Pophale) SiO2 
 PCOD9378090
Probable space group: I M A 2
;
_chemical_formula_sum "Si O2"
_cell_formula_units_Z 64
_cell_length_a 8.717370
_cell_length_b 27.237856
_cell_length_c 18.957901
_cell_angle_alpha 90.000000
_cell_angle_beta 90.000000
_cell_angle_gamma 90.000000
_cell_volume 4501.410816
_symmetry_space_group_name_H-M "I M A 2"
_symmetry_group_IT_number 46
_symmetry_cell_setting 'orthorhombic'
loop_
_space_group_symop_operation_xyz
x,y,z
-x,-y,z
1/2-x,y,z
1/2+x,-y,z
1/2+x,1/2+y,1/2+z
1/2-x,1/2-y,1/2+z
-x,1/2+y,1/2+z
x,1/2-y,1/2+z
loop_
_atom_site_type_symbol
_atom_site_label
_atom_site_fract_x
_atom_site_fract_y
_atom_site_fract_z
Si Si1 0.072985 0.803628 0.400960
Si Si2 0.933361 0.553272 0.280741
Si Si3 0.068138 0.258536 0.115844
Si Si4 0.572806 0.202608 0.991896
Si Si5 0.435445 0.852453 0.856709
Si Si6 0.563476 0.245656 0.771012
Si Si7 0.564614 0.353491 0.036921
Si Si8 0.933926 0.553373 0.116040
O O1 0.250000 0.817840 0.388473
O O2 0.074224 0.752589 0.445113
O O3 0.007389 0.787913 0.325411
O O4 0.007583 0.842406 0.456868
O O5 0.750000 0.551888 0.285453
O O6 0.975049 0.562527 0.198429
O O7 0.000000 0.500000 0.300014
O O8 0.998240 0.597147 0.327746
O O9 0.250000 0.264490 0.117986
O O10 0.002714 0.249273 0.193422
O O11 0.993593 0.308512 0.085202
O O12 0.022439 0.215539 0.061092
O O13 0.750000 0.192679 0.011368
O O14 0.516642 0.161796 0.936499
O O15 0.250000 0.854264 0.856963
O O16 0.479289 0.807120 0.805205
O O17 0.750000 0.247160 0.769157
O O18 0.750000 0.352496 0.036750
O O19 0.504009 0.403926 0.068525
O O20 0.750000 0.553197 0.110553
O O21 0.000000 0.500000 0.097345
#
# Coordination Sequence:
#
# PCOD9378090 Si02
#       8
#     8   8   8   8   8   8   8   8
#     4   7  13  26  43  60  77 102 139 172 201 241
#     4  10  20  31  43  59  83 111 141 175 209 243
#     4  11  20  27  38  61  88 112 140 173 205 244
#     4   8  15  29  44  58  78 107 139 170 204 246
#     4   9  17  29  46  63  80 106 142 176 209 248
#     4   9  16  28  44  60  81 111 141 170 204 247
#     4  10  18  30  46  61  80 110 143 175 210 248
#     4  10  20  32  44  62  85 111 142 175 208 243
#
# _framework density 14.217765
#
# number of rings (size 3 to 8) (size 9 to 14) (size 15 to 20)
#    0.000    2.750    0.000    5.250    0.000    4.500 
#    0.000    5.625    0.000    0.000    0.000    0.000 
#    0.000    1.000    0.000    4.750    0.000    4.125 
#
# Total GULP energy -178217.985241 kJ/mol
# GULP energy per Si atom -5569.312039 kJ/mol
# Density = 1.418541 g / cm^3
# Si number density = 14.217765 Si / 1000 Ang^3
#
#
#
# Elastic Constant Matrix: (Units=GPa)
#
#
# Indices 1 2 3 4 5 6 
#
# 1 39.8762 30.1608 35.6581 0.0000 0.0000 0.0000
# 2 30.1608 98.1998 66.8384 0.0000 0.0000 0.0000
# 3 35.6581 66.8384 118.5442 0.0000 0.0000 0.0000
# 4 0.0000 0.0000 0.0000 28.0493 0.0000 0.0000
# 5 0.0000 0.0000 0.0000 0.0000 10.9982 0.0000
# 6 0.0000 0.0000 0.0000 0.0000 0.0000 21.9895
#
#
#
# Elastic Compliance Matrix: (Units=1/GPa)
#
#
# Indices 1 2 3 4 5 6 
#
# 1 0.036391 -0.006047 -0.007537 0.000000 0.000000 0.000000
# 2 -0.006047 0.017530 -0.008065 0.000000 0.000000 0.000000
# 3 -0.007537 -0.008065 0.015250 0.000000 0.000000 0.000000
# 4 0.000000 0.000000 0.000000 0.035652 0.000000 0.000000
# 5 0.000000 0.000000 0.000000 0.000000 0.090924 0.000000
# 6 0.000000 0.000000 0.000000 0.000000 0.000000 0.045476
#
#
# Mechanical properties :
#
#
# Convention : Reuss Voigt Hill
#
# Bulk Modulus (GPa) = 38.65012 57.99275 48.32143
# Shear Modulus (GPa) = 17.05640 20.47159 18.76399
#
# Velocity S-wave (km/s) = 3.46736 3.79866 3.63679
# Velocity P-wave (km/s) = 6.57826 7.75353 7.18995
#
# Compressibility (1/GPa) = 0.02587314
#
# Stress axis : x y z
#
# Youngs Moduli (GPa) = 27.47923 57.04559 65.57398
#
# Poissons Ratio (x) = 0.34496 0.49423
# Poissons Ratio (y) = 0.16617 0.52884
# Poissons Ratio (z) = 0.20711 0.46006
#
# Static dielectric constant tensor:
#      x y z
#    x 1.477000 0.000000 0.000000 
#    y 0.000000 1.450770 0.000000 
#    z 0.000000 0.000000 1.481520 
# 
# From -- ./inp_files/18649.got.cif
#   From: 2010.05.17/outbox.cif.g08.bks.cpg/sg46_10_cif.got.tgz:18649.got - 2010.06.03 19:58:25.
