data_PCOD9378514
_publ_section_title
;
Structure prediction by ZEFSAII (Michael W. Deem and Ramdas Pophale) SiO2 
 PCOD9378514
Probable space group: I M A 2
;
_chemical_formula_sum "Si O2"
_cell_formula_units_Z 64
_cell_length_a 9.049801
_cell_length_b 14.698681
_cell_length_c 28.835536
_cell_angle_alpha 90.000000
_cell_angle_beta 90.000000
_cell_angle_gamma 90.000000
_cell_volume 3835.706978
_symmetry_space_group_name_H-M "I M A 2"
_symmetry_group_IT_number 46
_symmetry_cell_setting 'orthorhombic'
loop_
_space_group_symop_operation_xyz
x,y,z
-x,-y,z
1/2-x,y,z
1/2+x,-y,z
1/2+x,1/2+y,1/2+z
1/2-x,1/2-y,1/2+z
-x,1/2+y,1/2+z
x,1/2-y,1/2+z
loop_
_atom_site_type_symbol
_atom_site_label
_atom_site_fract_x
_atom_site_fract_y
_atom_site_fract_z
Si Si1 0.582749 0.645242 0.505930
Si Si2 0.072340 0.597876 0.686406
Si Si3 0.082749 0.145242 0.471995
Si Si4 0.425897 0.590141 0.064179
Si Si5 0.574103 0.090141 0.913746
Si Si6 0.927648 0.292106 0.596249
Si Si7 0.072352 0.792106 0.381676
Si Si8 0.072340 0.902124 0.291519
O O1 0.750000 0.608530 0.507579
O O2 0.591410 0.750000 0.488963
O O3 0.484947 0.599083 0.466390
O O4 0.507019 0.649918 0.556026
O O5 0.250000 0.588031 0.685158
O O6 0.031431 0.668987 0.646444
O O7 0.030810 0.625466 0.738963
O O8 0.000000 0.500000 0.677112
O O9 0.250000 0.108530 0.470347
O O10 0.984947 0.099083 0.511535
O O11 0.007019 0.149918 0.421899
O O12 0.500000 0.500000 0.084869
O O13 0.250000 0.581111 0.064417
O O14 0.465587 0.685614 0.088998
O O15 0.750000 0.081111 0.913509
O O16 0.534414 0.185614 0.888928
O O17 0.500000 0.000000 0.893057
O O18 0.750000 0.299534 0.590124
O O19 0.250000 0.799535 0.387801
O O20 0.031431 0.831013 0.331482
O O21 0.250000 0.911969 0.292767
O O22 0.000000 0.000000 0.300813
#
# Coordination Sequence:
#
# PCOD9378514 Si02
#       8
#     8   8   8   8   8   8   8   8
#     4   9  17  29  45  66  92 122 156 192 228 269
#     4   9  18  33  52  73  95 119 150 189 234 283
#     4   9  17  29  45  66  92 122 156 192 228 269
#     4  10  19  31  47  67  94 128 163 197 232 272
#     4  10  19  31  47  67  94 128 163 197 232 272
#     4   9  18  32  49  69  95 127 159 192 233 280
#     4   9  18  32  49  69  95 127 159 192 233 280
#     4   9  18  33  52  73  95 119 150 189 234 283
#
# _framework density 16.685320000000001
#
# number of rings (size 3 to 8) (size 9 to 14) (size 15 to 20)
#    0.000    2.750    0.000    1.500    0.000    6.000 
#    0.000    2.500    0.000    0.750    0.000    0.000 
#    0.000    0.000    0.000    0.000    0.000    0.750 
#
# Total GULP energy -178337.945925 kJ/mol
# GULP energy per Si atom -5573.060810 kJ/mol
# Density = 1.664734 g / cm^3
# Si number density = 16.685320 Si / 1000 Ang^3
#
#
#
# Elastic Constant Matrix: (Units=GPa)
#
#
# Indices 1 2 3 4 5 6 
#
# 1 42.4305 35.5849 38.3768 0.0000 0.0000 0.0000
# 2 35.5849 91.2027 72.0156 0.0000 0.0000 0.0000
# 3 38.3768 72.0156 130.2416 0.0000 0.0000 0.0000
# 4 0.0000 0.0000 0.0000 22.9187 0.0000 0.0000
# 5 0.0000 0.0000 0.0000 0.0000 17.3098 0.0000
# 6 0.0000 0.0000 0.0000 0.0000 0.0000 26.3296
#
#
#
# Elastic Compliance Matrix: (Units=1/GPa)
#
#
# Indices 1 2 3 4 5 6 
#
# 1 0.036892 -0.010314 -0.005168 0.000000 0.000000 0.000000
# 2 -0.010314 0.022345 -0.009317 0.000000 0.000000 0.000000
# 3 -0.005168 -0.009317 0.014352 0.000000 0.000000 0.000000
# 4 0.000000 0.000000 0.000000 0.043632 0.000000 0.000000
# 5 0.000000 0.000000 0.000000 0.000000 0.057771 0.000000
# 6 0.000000 0.000000 0.000000 0.000000 0.000000 0.037980
#
#
# Mechanical properties :
#
#
# Convention : Reuss Voigt Hill
#
# Bulk Modulus (GPa) = 41.67812 61.75882 51.71847
# Shear Modulus (GPa) = 18.47979 21.17145 19.82562
#
# Velocity S-wave (km/s) = 3.33159 3.56598 3.45078
# Velocity P-wave (km/s) = 6.31130 7.35181 6.85134
#
# Compressibility (1/GPa) = 0.02399340
#
# Stress axis : x y z
#
# Youngs Moduli (GPa) = 27.10643 44.75218 69.67576
#
# Poissons Ratio (x) = 0.46156 0.36006
# Poissons Ratio (y) = 0.27957 0.64914
# Poissons Ratio (z) = 0.14008 0.41694
#
# Static dielectric constant tensor:
#      x y z
#    x 1.567480 0.000000 0.000000 
#    y 0.000000 1.583870 0.000000 
#    z 0.000000 0.000000 1.547870 
# 
# From -- ./inp_files/23217.got.cif
#   From: 2010.05.17/outbox.cif.g08.bks.cpg/sg46_12_cif.got.tgz:23217.got - 2010.06.03 19:58:25.
