data_PCOD9378224
_publ_section_title
;
Structure prediction by ZEFSAII (Michael W. Deem and Ramdas Pophale) SiO2 
 PCOD9378224
Probable space group: I M A 2
;
_chemical_formula_sum "Si O2"
_cell_formula_units_Z 48
_cell_length_a 22.147929
_cell_length_b 10.375519
_cell_length_c 10.144342
_cell_angle_alpha 90.000000
_cell_angle_beta 90.000000
_cell_angle_gamma 90.000000
_cell_volume 2331.131833
_symmetry_space_group_name_H-M "I M A 2"
_symmetry_group_IT_number 46
_symmetry_cell_setting 'orthorhombic'
loop_
_space_group_symop_operation_xyz
x,y,z
-x,-y,z
1/2-x,y,z
1/2+x,-y,z
1/2+x,1/2+y,1/2+z
1/2-x,1/2-y,1/2+z
-x,1/2+y,1/2+z
x,1/2-y,1/2+z
loop_
_atom_site_type_symbol
_atom_site_label
_atom_site_fract_x
_atom_site_fract_y
_atom_site_fract_z
Si Si1 0.019394 0.865357 0.142300
Si Si2 0.180734 0.332757 0.621755
Si Si3 0.337555 0.870108 0.141902
Si Si4 0.146737 0.654661 0.342725
Si Si5 0.996365 0.221626 0.880550
Si Si6 0.125121 0.135138 0.830820
O O1 0.090312 0.873043 0.150216
O O2 0.993483 0.843410 0.286236
O O3 0.000000 0.000000 0.082413
O O4 0.000142 0.757955 0.037170
O O5 0.250000 0.289813 0.607094
O O6 0.181909 0.483061 0.667269
O O7 0.147283 0.241558 0.726647
O O8 0.148401 0.331920 0.478818
O O9 0.322893 0.757827 0.245395
O O10 0.325349 0.836119 0.989338
O O11 0.151013 0.506313 0.297832
O O12 0.073342 0.679535 0.354033
O O13 0.052200 0.131649 0.838789
#
# Coordination Sequence:
#
# PCOD9378224 Si02
#       6
#     8   8   8   8   8   8
#     4  10  18  32  51  78 113 147 178 215 266 332
#     4  11  24  41  58  79 108 148 196 239 273 312
#     4   9  19  36  55  78 112 146 181 229 274 320
#     4   9  19  34  57  86 116 144 177 219 277 344
#     4  10  18  32  55  84 115 146 175 213 274 342
#     4  11  21  37  59  83 113 147 182 229 279 328
#
# _framework density 20.590857
#
# number of rings (size 3 to 8) (size 9 to 14) (size 15 to 20)
#    0.000    2.000    0.000    6.000    0.000    1.333 
#    0.000   15.000    0.000    0.000    0.000    0.000 
#    0.000    0.000    0.000    0.000    0.000    0.000 
#
# Total GULP energy -133738.980356 kJ/mol
# GULP energy per Si atom -5572.457515 kJ/mol
# Density = 2.054399 g / cm^3
# Si number density = 20.590857 Si / 1000 Ang^3
#
#
#
# Elastic Constant Matrix: (Units=GPa)
#
#
# Indices 1 2 3 4 5 6 
#
# 1 68.2714 14.4430 28.2033 0.0000 0.0000 0.0000
# 2 14.4430 117.2958 83.3995 0.0000 0.0000 0.0000
# 3 28.2033 83.3995 109.8246 0.0000 0.0000 0.0000
# 4 0.0000 0.0000 0.0000 38.1823 0.0000 0.0000
# 5 0.0000 0.0000 0.0000 0.0000 74.4892 0.0000
# 6 0.0000 0.0000 0.0000 0.0000 0.0000 -3.9525
#
#
#
# Elastic Compliance Matrix: (Units=1/GPa)
#
#
# Indices 1 2 3 4 5 6 
#
# 1 0.016631 0.002149 -0.005903 0.000000 0.000000 0.000000
# 2 0.002149 0.018809 -0.014835 0.000000 0.000000 0.000000
# 3 -0.005903 -0.014835 0.021887 0.000000 0.000000 0.000000
# 4 0.000000 0.000000 0.000000 0.026190 0.000000 0.000000
# 5 0.000000 0.000000 0.000000 0.000000 0.013425 0.000000
# 6 0.000000 0.000000 0.000000 0.000000 0.000000 -0.253005
#
#
# Mechanical properties :
#
#
# Convention : Reuss Voigt Hill
#
# Bulk Modulus (GPa) = 49.62956 60.83150 55.23053
# Shear Modulus (GPa) = -44.57601 33.03353 -5.77124
#
# Velocity S-wave (km/s) = -4.65784 4.00969 -1.67598
# Velocity P-wave (km/s) = 2.18454 7.14451 4.80998
#
# Compressibility (1/GPa) = 0.02014928
#
# Stress axis : x y z
#
# Youngs Moduli (GPa) = 60.12733 53.16623 45.68896
#
# Poissons Ratio (x) = -0.11428 0.26971
# Poissons Ratio (y) = -0.12924 0.67781
# Poissons Ratio (z) = 0.35495 0.78873
#
# Static dielectric constant tensor:
#      x y z
#    x 1.754920 0.000000 0.000000 
#    y 0.000000 1.720610 0.000000 
#    z 0.000000 0.000000 1.744150 
# 
# From -- ./inp_files/12725.got.cif
#   From: 2010.05.17/outbox.cif.g08.bks.cpg/sg46_7_cif.got.tgz:12725.got - 2010.06.03 19:58:25.
