data_PCOD9378976
_publ_section_title
;
Structure prediction by ZEFSAII (Michael W. Deem and Ramdas Pophale) SiO2 
 PCOD9378976
Probable space group: I M A 2
;
_chemical_formula_sum "Si O2"
_cell_formula_units_Z 48
_cell_length_a 8.802134
_cell_length_b 28.971335
_cell_length_c 10.478375
_cell_angle_alpha 90.000000
_cell_angle_beta 90.000000
_cell_angle_gamma 90.000000
_cell_volume 2672.085933
_symmetry_space_group_name_H-M "I M A 2"
_symmetry_group_IT_number 46
_symmetry_cell_setting 'orthorhombic'
loop_
_space_group_symop_operation_xyz
x,y,z
-x,-y,z
1/2-x,y,z
1/2+x,-y,z
1/2+x,1/2+y,1/2+z
1/2-x,1/2-y,1/2+z
-x,1/2+y,1/2+z
x,1/2-y,1/2+z
loop_
_atom_site_type_symbol
_atom_site_label
_atom_site_fract_x
_atom_site_fract_y
_atom_site_fract_z
Si Si1 0.432115 0.143650 0.272260
Si Si2 0.567975 0.796702 0.523338
Si Si3 0.066671 0.647005 0.259376
Si Si4 0.932200 0.049216 0.362735
Si Si5 0.567800 0.305516 0.526962
Si Si6 0.568024 0.451535 0.162439
O O1 0.250000 0.141010 0.265323
O O2 0.472790 0.173271 0.398523
O O3 0.500939 0.092698 0.288266
O O4 0.497011 0.169327 0.148994
O O5 0.750000 0.792481 0.528374
O O6 0.508431 0.822772 0.648534
O O7 0.494727 0.746284 0.516629
O O8 0.250000 0.649335 0.243900
O O9 0.028571 0.666996 0.397680
O O10 0.019938 0.593785 0.239383
O O11 0.750000 0.048528 0.353316
O O12 0.974153 0.055014 0.513043
O O13 0.000000 0.000000 0.321343
O O14 0.750000 0.304385 0.539335
O O15 0.500000 0.500000 0.206761
O O16 0.750000 0.454800 0.167816
#
# Coordination Sequence:
#
# PCOD9378976 Si02
#       6
#     8   8   8   8   8   8
#     4  11  23  39  59  86 119 153 194 238 286 342
#     4  11  23  38  59  85 113 148 193 241 287 339
#     4  10  21  39  60  85 114 150 193 235 283 344
#     4  10  19  34  59  87 117 149 189 239 288 339
#     4  11  24  39  58  82 115 155 193 235 287 344
#     4   9  18  33  56  85 114 143 183 232 281 334
#
# _framework density 17.963495000000002
#
# number of rings (size 3 to 8) (size 9 to 14) (size 15 to 20)
#    0.000    1.667    1.667    3.000    0.000    7.333 
#    0.000    0.833    0.000    2.000    0.000    0.000 
#    0.000    0.000    0.000    0.000    0.000    0.000 
#
# Total GULP energy -134102.642616 kJ/mol
# GULP energy per Si atom -5587.610109 kJ/mol
# Density = 1.792261 g / cm^3
# Si number density = 17.963495 Si / 1000 Ang^3
#
#
#
# Elastic Constant Matrix: (Units=GPa)
#
#
# Indices 1 2 3 4 5 6 
#
# 1 43.7462 54.0004 51.6108 -0.0003 0.0000 0.0000
# 2 54.0004 190.4409 78.3838 -0.0002 0.0000 0.0000
# 3 51.6108 78.3838 120.9187 0.0004 0.0000 0.0000
# 4 -0.0003 -0.0002 0.0004 -21.1476 0.0003 0.0000
# 5 0.0000 0.0000 0.0000 0.0003 23.1776 0.0000
# 6 0.0000 0.0000 0.0000 0.0000 0.0000 37.2939
#
#
#
# Elastic Compliance Matrix: (Units=1/GPa)
#
#
# Indices 1 2 3 4 5 6 
#
# 1 0.053491 -0.007870 -0.017729 -0.000001 0.000000 0.000000
# 2 -0.007870 0.008320 -0.002034 0.000000 0.000000 0.000000
# 3 -0.017729 -0.002034 0.017156 0.000001 0.000000 0.000000
# 4 -0.000001 0.000000 0.000001 -0.047287 0.000001 0.000000
# 5 0.000000 0.000000 0.000000 0.000001 0.043145 0.000000
# 6 0.000000 0.000000 0.000000 0.000000 0.000000 0.026814
#
#
# Mechanical properties :
#
#
# Convention : Reuss Voigt Hill
#
# Bulk Modulus (GPa) = 42.19538 80.34399 61.26969
# Shear Modulus (GPa) = 30.33875 19.27218 24.80546
#
# Velocity S-wave (km/s) = 4.11409 3.27900 3.72005
# Velocity P-wave (km/s) = 6.79030 7.69150 7.25491
#
# Compressibility (1/GPa) = 0.02369927
#
# Stress axis : x y z
#
# Youngs Moduli (GPa) = 18.69478 120.19526 58.28955
#
# Poissons Ratio (x) = 0.94598 1.03343
# Poissons Ratio (y) = 0.14713 0.11856
# Poissons Ratio (z) = 0.33144 0.24447
#
# Static dielectric constant tensor:
#      x y z
#    x 1.602530 0.000000 0.000000 
#    y 0.000000 1.596470 0.000000 
#    z 0.000000 0.000000 1.588080 
# 
# From -- ./inp_files/3898.got.cif
#   From: 2010.05.17/outbox.cif.g08.bks.cpg/sg46_2_cif.got.tgz:3898.got - 2010.06.03 19:58:25.
