data_PCOD9378238
_publ_section_title
;
Structure prediction by ZEFSAII (Michael W. Deem and Ramdas Pophale) SiO2 
 PCOD9378238
Probable space group: I M A 2
;
_chemical_formula_sum "Si O2"
_cell_formula_units_Z 64
_cell_length_a 15.275184
_cell_length_b 9.757380
_cell_length_c 21.954404
_cell_angle_alpha 90.000000
_cell_angle_beta 90.000000
_cell_angle_gamma 90.000000
_cell_volume 3272.211156
_symmetry_space_group_name_H-M "I M A 2"
_symmetry_group_IT_number 46
_symmetry_cell_setting 'orthorhombic'
loop_
_space_group_symop_operation_xyz
x,y,z
-x,-y,z
1/2-x,y,z
1/2+x,-y,z
1/2+x,1/2+y,1/2+z
1/2-x,1/2-y,1/2+z
-x,1/2+y,1/2+z
x,1/2-y,1/2+z
loop_
_atom_site_type_symbol
_atom_site_label
_atom_site_fract_x
_atom_site_fract_y
_atom_site_fract_z
Si Si1 0.650679 0.164870 0.701100
Si Si2 0.352391 0.579930 0.627067
Si Si3 0.851789 0.905614 0.759634
Si Si4 0.590750 0.080419 0.990841
Si Si5 0.147012 0.144681 0.896374
Si Si6 0.091379 0.640274 0.795942
Si Si7 0.594151 0.615400 0.728746
Si Si8 0.988417 0.158417 0.429913
O O1 0.750000 0.140496 0.679890
O O2 0.613699 0.274364 0.653222
O O3 0.648896 0.241147 0.766734
O O4 0.607021 0.020613 0.716332
O O5 0.250000 0.568937 0.644611
O O6 0.360923 0.575308 0.555097
O O7 0.400513 0.459150 0.663849
O O8 0.750000 0.943796 0.767452
O O9 0.886571 0.893024 0.828387
O O10 0.857580 0.758187 0.729216
O O11 0.567420 0.235256 0.970712
O O12 0.500000 0.000000 0.000170
O O13 0.637553 0.990058 0.938639
O O14 0.250000 0.184725 0.894018
O O15 0.082265 0.265225 0.919741
O O16 0.132396 0.494218 0.777418
O O17 0.062253 0.650380 0.865076
O O18 0.001935 0.644801 0.755837
O O19 0.000000 0.000000 0.450735
#
# Coordination Sequence:
#
# PCOD9378238 Si02
#       8
#     8   8   8   8   8   8   8   8
#     4   9  20  33  51  79 115 151 187 238 291 346
#     4  10  21  39  58  79 112 155 202 242 284 347
#     4  10  18  32  53  84 117 143 183 239 299 348
#     4  10  23  37  61  80 112 160 207 243 289 355
#     4  10  20  37  59  88 121 156 199 248 299 359
#     4  10  18  33  56  81 115 147 184 232 295 362
#     4  10  19  32  57  84 111 150 183 239 290 354
#     4  11  20  39  60  88 121 155 195 254 306 359
#
# _framework density 19.55864
#
# number of rings (size 3 to 8) (size 9 to 14) (size 15 to 20)
#    0.000    2.000    2.500    1.500    3.500    1.000 
#    0.000    5.000    0.000    1.500    0.000    0.000 
#    0.000    0.000    0.000    0.000    0.000    0.000 
#
# Total GULP energy -178315.420834 kJ/mol
# GULP energy per Si atom -5572.356901 kJ/mol
# Density = 1.951412 g / cm^3
# Si number density = 19.558640 Si / 1000 Ang^3
#
#
#
# Elastic Constant Matrix: (Units=GPa)
#
#
# Indices 1 2 3 4 5 6 
#
# 1 40.8598 10.9394 9.6593 0.0000 0.0000 0.0000
# 2 10.9394 148.6387 54.6708 0.0000 0.0000 0.0000
# 3 9.6593 54.6708 100.6628 0.0000 0.0000 0.0000
# 4 0.0000 0.0000 0.0000 17.8497 0.0000 0.0000
# 5 0.0000 0.0000 0.0000 0.0000 21.1255 0.0000
# 6 0.0000 0.0000 0.0000 0.0000 0.0000 16.4957
#
#
#
# Elastic Compliance Matrix: (Units=1/GPa)
#
#
# Indices 1 2 3 4 5 6 
#
# 1 0.025214 -0.001207 -0.001764 0.000000 0.000000 0.000000
# 2 -0.001207 0.008465 -0.004482 0.000000 0.000000 0.000000
# 3 -0.001764 -0.004482 0.012537 0.000000 0.000000 0.000000
# 4 0.000000 0.000000 0.000000 0.056023 0.000000 0.000000
# 5 0.000000 0.000000 0.000000 0.000000 0.047336 0.000000
# 6 0.000000 0.000000 0.000000 0.000000 0.000000 0.060622
#
#
# Mechanical properties :
#
#
# Convention : Reuss Voigt Hill
#
# Bulk Modulus (GPa) = 31.93714 48.96670 40.45192
# Shear Modulus (GPa) = 21.22781 25.42028 23.32405
#
# Velocity S-wave (km/s) = 3.29803 3.60904 3.45703
# Velocity P-wave (km/s) = 5.55581 6.51591 6.05492
#
# Compressibility (1/GPa) = 0.03131151
#
# Stress axis : x y z
#
# Youngs Moduli (GPa) = 39.66044 118.13476 79.76141
#
# Poissons Ratio (x) = 0.14257 0.14070
# Poissons Ratio (y) = 0.04787 0.35746
# Poissons Ratio (z) = 0.06996 0.52943
#
# Static dielectric constant tensor:
#      x y z
#    x 1.749400 0.000000 0.000000 
#    y 0.000000 1.747990 0.000000 
#    z 0.000000 0.000000 1.671830 
# 
# From -- ./inp_files/22256.got.cif
#   From: 2010.05.17/outbox.cif.g08.bks.cpg/sg46_12_cif.got.tgz:22256.got - 2010.06.03 19:58:25.
