data_PCOD9378243
_publ_section_title
;
Structure prediction by ZEFSAII (Michael W. Deem and Ramdas Pophale) SiO2 
 PCOD9378243
Probable space group: I M A 2
;
_chemical_formula_sum "Si O2"
_cell_formula_units_Z 64
_cell_length_a 8.852588
_cell_length_b 13.407854
_cell_length_c 29.260512
_cell_angle_alpha 90.000000
_cell_angle_beta 90.000000
_cell_angle_gamma 90.000000
_cell_volume 3473.053281
_symmetry_space_group_name_H-M "I M A 2"
_symmetry_group_IT_number 46
_symmetry_cell_setting 'orthorhombic'
loop_
_space_group_symop_operation_xyz
x,y,z
-x,-y,z
1/2-x,y,z
1/2+x,-y,z
1/2+x,1/2+y,1/2+z
1/2-x,1/2-y,1/2+z
-x,1/2+y,1/2+z
x,1/2-y,1/2+z
loop_
_atom_site_type_symbol
_atom_site_label
_atom_site_fract_x
_atom_site_fract_y
_atom_site_fract_z
Si Si1 0.069724 0.891663 0.706950
Si Si2 0.070396 0.810781 0.338634
Si Si3 0.070641 0.393710 0.374004
Si Si4 0.070339 0.192348 0.974045
Si Si5 0.070417 0.269384 0.648676
Si Si6 0.071510 0.207825 0.248769
Si Si7 0.069183 0.605336 0.937287
Si Si8 0.930215 0.391607 0.566527
O O1 0.250000 0.894398 0.706121
O O2 0.002634 0.837285 0.661749
O O3 0.009953 0.815876 0.745793
O O4 0.000000 0.000000 0.712573
O O5 0.250000 0.804759 0.333988
O O6 0.035140 0.875727 0.383497
O O7 0.003510 0.701116 0.349280
O O8 0.998094 0.848743 0.291535
O O9 0.250000 0.393941 0.365614
O O10 0.045195 0.372613 0.428147
O O11 0.000000 0.500000 0.361326
O O12 0.250000 0.197228 0.982001
O O13 0.004926 0.301927 0.963579
O O14 0.988438 0.145920 0.017507
O O15 0.250000 0.260018 0.641542
O O16 0.047601 0.330242 0.696695
O O17 0.990871 0.319422 0.606167
O O18 0.250000 0.220388 0.255097
O O19 0.250000 0.606866 0.943031
O O20 0.000000 0.500000 0.951452
O O21 0.750000 0.396076 0.567048
O O22 0.000000 0.500000 0.574949
#
# Coordination Sequence:
#
# PCOD9378243 Si02
#       8
#     8   8   8   8   8   8   8   8
#     4  10  18  32  54  80 110 147 188 230 280 335
#     4  10  20  34  54  80 112 148 189 237 282 334
#     4  10  20  33  51  77 111 148 186 228 279 335
#     4  10  21  38  60  85 115 149 185 233 285 338
#     4   9  20  38  57  81 113 149 190 238 287 339
#     4   9  19  34  54  78 110 147 187 234 282 331
#     4  10  21  38  60  86 115 151 192 233 283 340
#     4  12  24  39  62  89 117 151 189 232 282 341
#
# _framework density 18.427589999999999
#
# number of rings (size 3 to 8) (size 9 to 14) (size 15 to 20)
#    0.750    1.250    0.000    4.500    0.000    4.500 
#    0.000    3.750    0.000    1.500    0.000    0.000 
#    0.000    0.000    0.000    0.000    0.000    0.000 
#
# Total GULP energy -178483.242621 kJ/mol
# GULP energy per Si atom -5577.601332 kJ/mol
# Density = 1.838565 g / cm^3
# Si number density = 18.427590 Si / 1000 Ang^3
#
#
#
# Elastic Constant Matrix: (Units=GPa)
#
#
# Indices 1 2 3 4 5 6 
#
# 1 91.7332 0.3302 26.7703 0.0000 0.0000 0.0000
# 2 0.3302 27.2341 -19.6709 0.0000 0.0000 0.0000
# 3 26.7703 -19.6709 55.1075 0.0000 0.0000 0.0000
# 4 0.0000 0.0000 0.0000 10.5996 0.0000 0.0000
# 5 0.0000 0.0000 0.0000 0.0000 13.6932 0.0000
# 6 0.0000 0.0000 0.0000 0.0000 0.0000 25.8336
#
#
#
# Elastic Compliance Matrix: (Units=1/GPa)
#
#
# Indices 1 2 3 4 5 6 
#
# 1 0.013533 -0.006619 -0.008937 0.000000 0.000000 0.000000
# 2 -0.006619 0.052712 0.022031 0.000000 0.000000 0.000000
# 3 -0.008937 0.022031 0.030352 0.000000 0.000000 0.000000
# 4 0.000000 0.000000 0.000000 0.094343 0.000000 0.000000
# 5 0.000000 0.000000 0.000000 0.000000 0.073029 0.000000
# 6 0.000000 0.000000 0.000000 0.000000 0.000000 0.038709
#
#
# Mechanical properties :
#
#
# Convention : Reuss Voigt Hill
#
# Bulk Modulus (GPa) = 9.12850 20.99268 15.06059
# Shear Modulus (GPa) = 15.32598 21.13495 18.23047
#
# Velocity S-wave (km/s) = 2.88703 3.39029 3.14873
# Velocity P-wave (km/s) = 4.00970 5.17128 4.62709
#
# Compressibility (1/GPa) = 0.10954700
#
# Stress axis : x y z
#
# Youngs Moduli (GPa) = 73.89333 18.97113 32.94695
#
# Poissons Ratio (x) = 0.12557 0.29444
# Poissons Ratio (y) = 0.48910 -0.72586
# Poissons Ratio (z) = 0.66037 -0.41795
#
# Static dielectric constant tensor:
#      x y z
#    x 1.605000 0.000000 0.000000 
#    y 0.000000 1.616350 0.000000 
#    z 0.000000 0.000000 1.652230 
# 
# From -- ./inp_files/25210.got.cif
#   From: 2010.05.17/outbox.cif.g08.bks.cpg/sg46_13_cif.got.tgz:25210.got - 2010.06.03 19:58:25.
