data_PCOD9378167
_publ_section_title
;
Structure prediction by ZEFSAII (Michael W. Deem and Ramdas Pophale) SiO2 
 PCOD9378167
Probable space group: I M A 2
;
_chemical_formula_sum "Si O2"
_cell_formula_units_Z 56
_cell_length_a 22.323164
_cell_length_b 11.036930
_cell_length_c 10.157997
_cell_angle_alpha 90.000000
_cell_angle_beta 90.000000
_cell_angle_gamma 90.000000
_cell_volume 2502.719159
_symmetry_space_group_name_H-M "I M A 2"
_symmetry_group_IT_number 46
_symmetry_cell_setting 'orthorhombic'
loop_
_space_group_symop_operation_xyz
x,y,z
-x,-y,z
1/2-x,y,z
1/2+x,-y,z
1/2+x,1/2+y,1/2+z
1/2-x,1/2-y,1/2+z
-x,1/2+y,1/2+z
x,1/2-y,1/2+z
loop_
_atom_site_type_symbol
_atom_site_label
_atom_site_fract_x
_atom_site_fract_y
_atom_site_fract_z
Si Si1 0.372751 0.886704 0.861130
Si Si2 0.945734 0.594466 0.069221
Si Si3 0.421385 0.991280 0.280597
Si Si4 0.442467 0.411836 0.501850
Si Si5 0.684830 0.978149 0.641634
Si Si6 0.316556 0.852758 0.388432
Si Si7 0.506046 0.258373 0.275818
O O1 0.323387 0.923898 0.755970
O O2 0.348491 0.770047 0.938007
O O3 0.433586 0.838278 0.792670
O O4 0.389894 0.007857 0.936669
O O5 0.880029 0.588577 0.138010
O O6 0.977512 0.711848 0.133446
O O7 0.000000 0.500000 0.100194
O O8 0.929165 0.561930 0.918702
O O9 0.422481 0.079639 0.155906
O O10 0.530468 0.120252 0.280853
O O11 0.359193 0.917229 0.283112
O O12 0.500000 0.500000 0.502207
O O13 0.462106 0.308672 0.392986
O O14 0.750000 0.914274 0.655537
O O15 0.686458 0.053206 0.507353
O O16 0.250000 0.828305 0.340102
#
# Coordination Sequence:
#
# PCOD9378167 Si02
#       7
#     8   8   8   8   8   8   8
#     4  10  18  31  51  73 108 158 190 231 288 338
#     4  11  19  37  59  84 120 156 203 249 294 358
#     4  10  23  35  60  89 119 166 198 240 312 355
#     4  10  20  37  52  81 120 152 198 254 292 348
#     4  10  19  32  51  80 112 154 204 241 291 361
#     4   9  20  33  49  78 120 160 195 232 281 372
#     4  10  20  37  59  79 121 158 196 251 296 352
#
# _framework density 22.375664
#
# number of rings (size 3 to 8) (size 9 to 14) (size 15 to 20)
#    0.000    2.000    2.857    1.286    4.000    2.286 
#    0.000    2.143    0.000    0.000    0.000    1.000 
#    0.000    3.143    0.000    0.000    0.000    0.000 
#
# Total GULP energy -155873.524171 kJ/mol
# GULP energy per Si atom -5566.911578 kJ/mol
# Density = 2.232474 g / cm^3
# Si number density = 22.375664 Si / 1000 Ang^3
#
#
#
# Elastic Constant Matrix: (Units=GPa)
#
#
# Indices 1 2 3 4 5 6 
#
# 1 149.5795 26.3956 21.0481 0.0000 0.0000 0.0000
# 2 26.3956 92.3744 34.9466 0.0000 0.0000 0.0000
# 3 21.0481 34.9466 93.4385 0.0000 0.0000 0.0000
# 4 0.0000 0.0000 0.0000 10.9026 0.0000 0.0000
# 5 0.0000 0.0000 0.0000 0.0000 11.6451 0.0000
# 6 0.0000 0.0000 0.0000 0.0000 0.0000 27.0001
#
#
#
# Elastic Compliance Matrix: (Units=1/GPa)
#
#
# Indices 1 2 3 4 5 6 
#
# 1 0.007117 -0.001662 -0.000981 0.000000 0.000000 0.000000
# 2 -0.001662 0.012998 -0.004487 0.000000 0.000000 0.000000
# 3 -0.000981 -0.004487 0.012601 0.000000 0.000000 0.000000
# 4 0.000000 0.000000 0.000000 0.091721 0.000000 0.000000
# 5 0.000000 0.000000 0.000000 0.000000 0.085873 0.000000
# 6 0.000000 0.000000 0.000000 0.000000 0.000000 0.037037
#
#
# Mechanical properties :
#
#
# Convention : Reuss Voigt Hill
#
# Bulk Modulus (GPa) = 54.18588 55.57479 54.88033
# Shear Modulus (GPa) = 18.67344 26.77637 22.72490
#
# Velocity S-wave (km/s) = 2.89198 3.46305 3.19032
# Velocity P-wave (km/s) = 5.95150 6.39385 6.17664
#
# Compressibility (1/GPa) = 0.01845499
#
# Stress axis : x y z
#
# Youngs Moduli (GPa) = 140.51157 76.93517 79.35607
#
# Poissons Ratio (x) = 0.12789 0.07788
# Poissons Ratio (y) = 0.23357 0.35606
# Poissons Ratio (z) = 0.13790 0.34520
#
# Static dielectric constant tensor:
#      x y z
#    x 1.905120 0.000000 0.000000 
#    y 0.000000 1.924590 0.000000 
#    z 0.000000 0.000000 1.904540 
# 
# From -- ./inp_files/12394.got.cif
#   From: 2010.05.17/outbox.cif.g08.bks.cpg/sg46_7_cif.got.tgz:12394.got - 2010.06.03 19:58:25.
