data_PCOD9378927
_publ_section_title
;
Structure prediction by ZEFSAII (Michael W. Deem and Ramdas Pophale) SiO2 
 PCOD9378927
Probable space group: I M A 2
;
_chemical_formula_sum "Si O2"
_cell_formula_units_Z 64
_cell_length_a 8.395688
_cell_length_b 16.867116
_cell_length_c 22.561791
_cell_angle_alpha 90.000000
_cell_angle_beta 90.000000
_cell_angle_gamma 90.000000
_cell_volume 3194.998764
_symmetry_space_group_name_H-M "I M A 2"
_symmetry_group_IT_number 46
_symmetry_cell_setting 'orthorhombic'
loop_
_space_group_symop_operation_xyz
x,y,z
-x,-y,z
1/2-x,y,z
1/2+x,-y,z
1/2+x,1/2+y,1/2+z
1/2-x,1/2-y,1/2+z
-x,1/2+y,1/2+z
x,1/2-y,1/2+z
loop_
_atom_site_type_symbol
_atom_site_label
_atom_site_fract_x
_atom_site_fract_y
_atom_site_fract_z
Si Si1 0.435417 0.582744 0.529920
Si Si2 0.562928 0.272264 0.932781
Si Si3 0.566883 0.891610 0.902384
Si Si4 0.937305 0.752727 0.557631
Si Si5 0.058833 0.265092 0.190114
Si Si6 0.559622 0.414154 0.269266
Si Si7 0.941826 0.086587 0.218354
Si Si8 0.560307 0.080647 0.353723
O O1 0.500000 0.500000 0.553617
O O2 0.250000 0.592883 0.542822
O O3 0.462799 0.580742 0.458662
O O4 0.529807 0.657991 0.554887
O O5 0.750000 0.251874 0.922649
O O6 0.450392 0.202183 0.910950
O O7 0.517646 0.346860 0.894299
O O8 0.535734 0.285429 0.002278
O O9 0.750000 0.917465 0.909298
O O10 0.504656 0.910689 0.837025
O O11 0.750000 0.765791 0.547816
O O12 0.981699 0.785697 0.621834
O O13 0.250000 0.262944 0.196331
O O14 0.995116 0.334504 0.233842
O O15 0.997229 0.174052 0.197103
O O16 0.500000 0.500000 0.244773
O O17 0.750000 0.414526 0.270516
O O18 0.750000 0.085686 0.214677
O O19 0.000862 0.087089 0.286791
O O20 0.000000 0.000000 0.194224
O O21 0.750000 0.078583 0.349136
O O22 0.500000 0.000000 0.381090
#
# Coordination Sequence:
#
# PCOD9378927 Si02
#       8
#     8   8   8   8   8   8   8   8
#     4  11  21  35  56  83 116 150 186 228 279 337
#     4  10  19  34  56  83 113 146 186 230 281 338
#     4  11  21  35  57  86 118 150 185 227 283 345
#     4  10  22  39  57  79 108 144 189 235 280 336
#     4  11  24  42  62  85 115 154 200 247 295 349
#     4  12  25  42  63  88 118 152 195 244 296 353
#     4  10  20  36  59  88 122 157 193 236 288 347
#     4   9  19  33  52  80 111 141 176 221 272 331
#
# _framework density 20.031306000000001
#
# number of rings (size 3 to 8) (size 9 to 14) (size 15 to 20)
#    0.000    1.500    0.000    7.500    0.000    5.000 
#    0.000    0.625    0.000    1.500    0.000    0.000 
#    0.000    0.000    0.000    0.000    0.000    0.000 
#
# Total GULP energy -178593.293857 kJ/mol
# GULP energy per Si atom -5581.040433 kJ/mol
# Density = 1.998571 g / cm^3
# Si number density = 20.031306 Si / 1000 Ang^3
#
#
#
# Elastic Constant Matrix: (Units=GPa)
#
#
# Indices 1 2 3 4 5 6 
#
# 1 64.7092 19.6061 10.8077 0.0000 0.0000 0.0000
# 2 19.6061 89.6437 39.5927 0.0000 0.0000 0.0000
# 3 10.8077 39.5927 84.9536 0.0000 0.0000 0.0000
# 4 0.0000 0.0000 0.0000 -6.7349 0.0000 0.0000
# 5 0.0000 0.0000 0.0000 0.0000 24.8688 0.0000
# 6 0.0000 0.0000 0.0000 0.0000 0.0000 35.6840
#
#
#
# Elastic Compliance Matrix: (Units=1/GPa)
#
#
# Indices 1 2 3 4 5 6 
#
# 1 0.016569 -0.003391 -0.000528 0.000000 0.000000 0.000000
# 2 -0.003391 0.014741 -0.006438 0.000000 0.000000 0.000000
# 3 -0.000528 -0.006438 0.014839 0.000000 0.000000 0.000000
# 4 0.000000 0.000000 0.000000 -0.148479 0.000000 0.000000
# 5 0.000000 0.000000 0.000000 0.000000 0.040211 0.000000
# 6 0.000000 0.000000 0.000000 0.000000 0.000000 0.028024
#
#
# Mechanical properties :
#
#
# Convention : Reuss Voigt Hill
#
# Bulk Modulus (GPa) = 39.31614 42.14661 40.73137
# Shear Modulus (GPa) = -1019.63545 22.05025 -498.79260
#
# Velocity S-wave (km/s) = -22.58597 3.32141 -15.79706
# Velocity P-wave (km/s) = 25.70016 5.98290 17.67347
#
# Compressibility (1/GPa) = 0.02543485
#
# Stress axis : x y z
#
# Youngs Moduli (GPa) = 60.35276 67.84007 67.39045
#
# Poissons Ratio (x) = 0.23004 0.03556
# Poissons Ratio (y) = 0.20465 0.43389
# Poissons Ratio (z) = 0.03184 0.43679
#
# Static dielectric constant tensor:
#      x y z
#    x 1.544150 0.000000 0.000000 
#    y 0.000000 1.747370 0.000000 
#    z 0.000000 0.000000 1.732900 
# 
# From -- ./inp_files/23175.got.cif
#   From: 2010.05.17/outbox.cif.g08.bks.cpg/sg46_12_cif.got.tgz:23175.got - 2010.06.03 19:58:25.
