data_PCOD9378663
_publ_section_title
;
Structure prediction by ZEFSAII (Michael W. Deem and Ramdas Pophale) SiO2 
 PCOD9378663
Probable space group: I M A 2
;
_chemical_formula_sum "Si O2"
_cell_formula_units_Z 64
_cell_length_a 22.523452
_cell_length_b 13.239723
_cell_length_c 11.486296
_cell_angle_alpha 90.000000
_cell_angle_beta 90.000000
_cell_angle_gamma 90.000000
_cell_volume 3425.262462
_symmetry_space_group_name_H-M "I M A 2"
_symmetry_group_IT_number 46
_symmetry_cell_setting 'orthorhombic'
loop_
_space_group_symop_operation_xyz
x,y,z
-x,-y,z
1/2-x,y,z
1/2+x,-y,z
1/2+x,1/2+y,1/2+z
1/2-x,1/2-y,1/2+z
-x,1/2+y,1/2+z
x,1/2-y,1/2+z
loop_
_atom_site_type_symbol
_atom_site_label
_atom_site_fract_x
_atom_site_fract_y
_atom_site_fract_z
Si Si1 0.878829 0.283520 0.452330
Si Si2 0.510208 0.385671 0.574034
Si Si3 0.550633 0.375183 0.838799
Si Si4 0.057521 0.251236 0.924307
Si Si5 0.104227 0.445047 0.989182
Si Si6 0.183613 0.957833 0.834631
Si Si7 0.061510 0.064054 0.757783
Si Si8 0.814288 0.110859 0.571503
O O1 0.935456 0.342368 0.500126
O O2 0.898505 0.211284 0.345177
O O3 0.830126 0.366481 0.422227
O O4 0.859077 0.200502 0.545079
O O5 0.500000 0.500000 0.538897
O O6 0.527137 0.385053 0.708825
O O7 0.453864 0.318425 0.536947
O O8 0.497831 0.328044 0.914929
O O9 0.571245 0.479296 0.898457
O O10 0.054945 0.175515 0.814494
O O11 0.110048 0.331895 0.939286
O O12 0.073835 0.437584 0.118125
O O13 0.164244 0.506835 0.013605
O O14 0.250000 0.003530 0.858093
O O15 0.187684 0.908982 0.707431
O O16 0.121833 0.021756 0.821482
O O17 0.000000 0.000000 0.775421
O O18 0.750000 0.140256 0.525714
#
# Coordination Sequence:
#
# PCOD9378663 Si02
#       8
#     8   8   8   8   8   8   8   8
#     4  10  19  32  52  77 103 138 181 222 267 320
#     4  11  21  32  48  75 111 143 173 217 270 323
#     4  10  20  33  50  76 109 140 175 217 267 322
#     4  11  20  32  50  76 105 139 176 217 268 317
#     4  10  21  35  54  78 106 141 178 220 270 325
#     4  10  20  35  54  77 106 140 178 221 270 324
#     4  11  21  36  56  80 110 142 181 222 267 323
#     4   9  19  35  54  75 100 135 181 228 272 322
#
# _framework density 18.684698999999998
#
# number of rings (size 3 to 8) (size 9 to 14) (size 15 to 20)
#    0.000    1.750    0.000    6.375    0.000    4.000 
#    0.000    0.625    0.000    0.750    0.000    0.000 
#    0.000    0.000    0.000    0.000    0.000    0.000 
#
# Total GULP energy -178217.576113 kJ/mol
# GULP energy per Si atom -5569.299254 kJ/mol
# Density = 1.864217 g / cm^3
# Si number density = 18.684699 Si / 1000 Ang^3
#
#
#
# Elastic Constant Matrix: (Units=GPa)
#
#
# Indices 1 2 3 4 5 6 
#
# 1 65.5194 31.8780 -3.8475 0.0000 0.0000 0.0000
# 2 31.8780 122.1170 26.9938 0.0000 0.0000 0.0000
# 3 -3.8475 26.9938 70.5275 0.0000 0.0000 0.0000
# 4 0.0000 0.0000 0.0000 24.1507 0.0000 0.0000
# 5 0.0000 0.0000 0.0000 0.0000 2.4482 0.0000
# 6 0.0000 0.0000 0.0000 0.0000 0.0000 22.1513
#
#
#
# Elastic Compliance Matrix: (Units=1/GPa)
#
#
# Indices 1 2 3 4 5 6 
#
# 1 0.018064 -0.005389 0.003048 0.000000 0.000000 0.000000
# 2 -0.005389 0.010554 -0.004333 0.000000 0.000000 0.000000
# 3 0.003048 -0.004333 0.016004 0.000000 0.000000 0.000000
# 4 0.000000 0.000000 0.000000 0.041407 0.000000 0.000000
# 5 0.000000 0.000000 0.000000 0.000000 0.408471 0.000000
# 6 0.000000 0.000000 0.000000 0.000000 0.000000 0.045144
#
#
# Mechanical properties :
#
#
# Convention : Reuss Voigt Hill
#
# Bulk Modulus (GPa) = 31.97729 40.91249 36.44489
# Shear Modulus (GPa) = 8.87445 23.29268 16.08356
#
# Velocity S-wave (km/s) = 2.18172 3.53458 2.93710
# Velocity P-wave (km/s) = 4.84746 6.21301 5.57222
#
# Compressibility (1/GPa) = 0.03127219
#
# Stress axis : x y z
#
# Youngs Moduli (GPa) = 55.35949 94.75472 62.48565
#
# Poissons Ratio (x) = 0.51065 -0.19046
# Poissons Ratio (y) = 0.29834 0.27077
# Poissons Ratio (z) = -0.16874 0.41060
#
# Static dielectric constant tensor:
#      x y z
#    x 1.722670 0.000000 0.000000 
#    y 0.000000 1.678880 0.000000 
#    z 0.000000 0.000000 1.661840 
# 
# From -- ./inp_files/12834.got.cif
#   From: 2010.05.17/outbox.cif.g08.bks.cpg/sg46_7_cif.got.tgz:12834.got - 2010.06.03 19:58:25.
