data_PCOD9378760
_publ_section_title
;
Structure prediction by ZEFSAII (Michael W. Deem and Ramdas Pophale) SiO2 
 PCOD9378760
Probable space group: I M A 2
;
_chemical_formula_sum "Si O2"
_cell_formula_units_Z 64
_cell_length_a 8.861079
_cell_length_b 20.970911
_cell_length_c 20.183533
_cell_angle_alpha 90.000000
_cell_angle_beta 90.000000
_cell_angle_gamma 90.000000
_cell_volume 3750.602983
_symmetry_space_group_name_H-M "I M A 2"
_symmetry_group_IT_number 46
_symmetry_cell_setting 'orthorhombic'
loop_
_space_group_symop_operation_xyz
x,y,z
-x,-y,z
1/2-x,y,z
1/2+x,-y,z
1/2+x,1/2+y,1/2+z
1/2-x,1/2-y,1/2+z
-x,1/2+y,1/2+z
x,1/2-y,1/2+z
loop_
_atom_site_type_symbol
_atom_site_label
_atom_site_fract_x
_atom_site_fract_y
_atom_site_fract_z
Si Si1 0.431211 0.432576 0.185560
Si Si2 0.069651 0.232962 0.042746
Si Si3 0.430732 0.734300 0.404768
Si Si4 0.569184 0.883233 0.541314
Si Si5 0.432348 0.192334 0.186550
Si Si6 0.569648 0.934000 0.268282
Si Si7 0.568422 0.186677 0.762537
Si Si8 0.069511 0.884181 0.402451
O O1 0.500000 0.500000 0.206013
O O2 0.250000 0.432976 0.189762
O O3 0.472788 0.419077 0.108618
O O4 0.496284 0.375144 0.229172
O O5 0.250000 0.229113 0.036816
O O6 0.031345 0.308143 0.051272
O O7 0.024122 0.196261 0.109261
O O8 0.997877 0.210985 0.973999
O O9 0.250000 0.732838 0.409094
O O10 0.476608 0.696006 0.339396
O O11 0.473754 0.809024 0.396356
O O12 0.750000 0.887787 0.532197
O O13 0.487682 0.905717 0.474598
O O14 0.250000 0.200835 0.190354
O O15 0.471162 0.126163 0.222137
O O16 0.510253 0.250845 0.224104
O O17 0.750000 0.938594 0.270928
O O18 0.506117 0.920390 0.341652
O O19 0.500000 0.000000 0.243582
O O20 0.750000 0.183662 0.758711
O O21 0.250000 0.889506 0.398351
#
# Coordination Sequence:
#
# PCOD9378760 Si02
#       8
#     8   8   8   8   8   8   8   8
#     4  11  23  39  56  79 111 146 186 227 272 325
#     4   9  17  32  54  80 107 137 177 223 269 320
#     4   9  19  33  51  81 113 140 175 221 268 319
#     4   9  18  33  52  75 108 146 182 221 265 319
#     4  10  20  36  57  82 108 141 183 227 272 324
#     4  11  23  37  55  77 109 147 185 226 274 325
#     4  11  21  35  57  83 111 143 181 226 272 321
#     4  10  19  33  52  77 111 145 183 223 264 319
#
# _framework density 17.063924
#
# number of rings (size 3 to 8) (size 9 to 14) (size 15 to 20)
#    0.000    2.000    2.500    1.500    0.000    4.000 
#    0.000    1.250    0.000    0.750    0.000    3.500 
#    0.000    0.000    0.000    0.000    0.000    0.000 
#
# Total GULP energy -178642.301948 kJ/mol
# GULP energy per Si atom -5582.571936 kJ/mol
# Density = 1.702509 g / cm^3
# Si number density = 17.063924 Si / 1000 Ang^3
#
#
#
# Elastic Constant Matrix: (Units=GPa)
#
#
# Indices 1 2 3 4 5 6 
#
# 1 34.8551 43.7496 41.1101 0.0000 0.0000 0.0000
# 2 43.7496 113.4830 68.2325 0.0000 0.0000 0.0000
# 3 41.1101 68.2325 134.4991 0.0000 0.0000 0.0000
# 4 0.0000 0.0000 0.0000 20.0042 0.0000 0.0000
# 5 0.0000 0.0000 0.0000 0.0000 33.4703 0.0000
# 6 0.0000 0.0000 0.0000 0.0000 0.0000 23.9113
#
#
#
# Elastic Compliance Matrix: (Units=1/GPa)
#
#
# Indices 1 2 3 4 5 6 
#
# 1 0.063923 -0.018556 -0.010125 0.000000 0.000000 0.000000
# 2 -0.018556 0.018066 -0.003493 0.000000 0.000000 0.000000
# 3 -0.010125 -0.003493 0.012302 0.000000 0.000000 0.000000
# 4 0.000000 0.000000 0.000000 0.049989 0.000000 0.000000
# 5 0.000000 0.000000 0.000000 0.000000 0.029877 0.000000
# 6 0.000000 0.000000 0.000000 0.000000 0.000000 0.041821
#
#
# Mechanical properties :
#
#
# Convention : Reuss Voigt Hill
#
# Bulk Modulus (GPa) = 33.39688 65.44682 49.42185
# Shear Modulus (GPa) = 17.22315 24.12685 20.67500
#
# Velocity S-wave (km/s) = 3.18044 3.76428 3.48461
# Velocity P-wave (km/s) = 5.75335 7.57167 6.72426
#
# Compressibility (1/GPa) = 0.02994291
#
# Stress axis : x y z
#
# Youngs Moduli (GPa) = 15.64386 55.35318 81.28869
#
# Poissons Ratio (x) = 1.02712 0.82303
# Poissons Ratio (y) = 0.29028 0.28397
# Poissons Ratio (z) = 0.15839 0.19337
#
# Static dielectric constant tensor:
#      x y z
#    x 1.563800 0.000000 0.000000 
#    y 0.000000 1.568630 0.000000 
#    z 0.000000 0.000000 1.575180 
# 
# From -- ./inp_files/18569.got.cif
#   From: 2010.05.17/outbox.cif.g08.bks.cpg/sg46_10_cif.got.tgz:18569.got - 2010.06.03 19:58:25.
