data_PCOD9378103
_publ_section_title
;
Structure prediction by ZEFSAII (Michael W. Deem and Ramdas Pophale) SiO2 
 PCOD9378103
Probable space group: I M A 2
;
_chemical_formula_sum "Si O2"
_cell_formula_units_Z 48
_cell_length_a 8.617065
_cell_length_b 14.167486
_cell_length_c 24.550691
_cell_angle_alpha 90.000000
_cell_angle_beta 90.000000
_cell_angle_gamma 90.000000
_cell_volume 2997.201086
_symmetry_space_group_name_H-M "I M A 2"
_symmetry_group_IT_number 46
_symmetry_cell_setting 'orthorhombic'
loop_
_space_group_symop_operation_xyz
x,y,z
-x,-y,z
1/2-x,y,z
1/2+x,-y,z
1/2+x,1/2+y,1/2+z
1/2-x,1/2-y,1/2+z
-x,1/2+y,1/2+z
x,1/2-y,1/2+z
loop_
_atom_site_type_symbol
_atom_site_label
_atom_site_fract_x
_atom_site_fract_y
_atom_site_fract_z
Si Si1 0.565325 0.105368 0.281550
Si Si2 0.438997 0.290183 0.007547
Si Si3 0.937399 0.708949 0.677695
Si Si4 0.563165 0.896499 0.066879
Si Si5 0.063103 0.396738 0.116457
Si Si6 0.563146 0.605635 0.899125
O O1 0.750000 0.099974 0.284520
O O2 0.512371 0.172901 0.232942
O O3 0.498758 0.136105 0.340130
O O4 0.500000 0.000000 0.270977
O O5 0.250000 0.289986 0.007808
O O6 0.488668 0.185057 0.024847
O O7 0.487406 0.360165 0.056525
O O8 0.488339 0.328073 0.948940
O O9 0.750000 0.705936 0.682683
O O10 0.981047 0.640497 0.627223
O O11 0.982135 0.814479 0.658842
O O12 0.750000 0.899186 0.065545
O O13 0.500000 0.000000 0.056034
O O14 0.250000 0.399843 0.116044
O O15 0.000000 0.500000 0.128338
O O16 0.500000 0.500000 0.908747
O O17 0.750000 0.602579 0.897675
#
# Coordination Sequence:
#
# PCOD9378103 Si02
#       6
#     8   8   8   8   8   8
#     4  11  21  32  47  68  94 121 153 191 230 272
#     4   8  16  30  47  67  93 124 151 180 223 273
#     4   9  18  32  48  67  94 125 154 186 227 272
#     4   9  17  30  47  68  93 120 151 185 224 269
#     4   9  17  30  48  70  96 123 151 186 227 271
#     4  10  18  30  48  68  92 121 152 184 224 271
#
# _framework density 16.014942000000001
#
# number of rings (size 3 to 8) (size 9 to 14) (size 15 to 20)
#    0.000    2.667    0.000    6.000    0.000    2.667 
#    0.000    5.000    0.000    1.000    0.000    2.333 
#    0.000    0.000    0.000    0.000    0.000    0.000 
#
# Total GULP energy -133804.477623 kJ/mol
# GULP energy per Si atom -5575.186568 kJ/mol
# Density = 1.597849 g / cm^3
# Si number density = 16.014942 Si / 1000 Ang^3
#
#
#
# Elastic Constant Matrix: (Units=GPa)
#
#
# Indices 1 2 3 4 5 6 
#
# 1 42.2929 31.7123 41.7234 0.0000 0.0000 0.0000
# 2 31.7123 126.9471 92.7197 0.0000 0.0000 0.0000
# 3 41.7234 92.7197 153.6894 0.0000 0.0000 0.0000
# 4 0.0000 0.0000 0.0000 21.4201 0.0000 0.0000
# 5 0.0000 0.0000 0.0000 0.0000 13.8369 0.0000
# 6 0.0000 0.0000 0.0000 0.0000 0.0000 28.4144
#
#
#
# Elastic Compliance Matrix: (Units=1/GPa)
#
#
# Indices 1 2 3 4 5 6 
#
# 1 0.032934 -0.003034 -0.007111 0.000000 0.000000 0.000000
# 2 -0.003034 0.014362 -0.007841 0.000000 0.000000 0.000000
# 3 -0.007111 -0.007841 0.013167 0.000000 0.000000 0.000000
# 4 0.000000 0.000000 0.000000 0.046685 0.000000 0.000000
# 5 0.000000 0.000000 0.000000 0.000000 0.072270 0.000000
# 6 0.000000 0.000000 0.000000 0.000000 0.000000 0.035193
#
#
# Mechanical properties :
#
#
# Convention : Reuss Voigt Hill
#
# Bulk Modulus (GPa) = 40.82793 72.80448 56.81621
# Shear Modulus (GPa) = 19.32383 23.18588 21.25486
#
# Velocity S-wave (km/s) = 3.47740 3.80908 3.64701
# Velocity P-wave (km/s) = 6.45539 8.05633 7.29988
#
# Compressibility (1/GPa) = 0.02449303
#
# Stress axis : x y z
#
# Youngs Moduli (GPa) = 30.36343 69.62831 75.94501
#
# Poissons Ratio (x) = 0.21123 0.54003
# Poissons Ratio (y) = 0.09211 0.59548
# Poissons Ratio (z) = 0.21591 0.54595
#
# Static dielectric constant tensor:
#      x y z
#    x 1.545570 0.000000 0.000000 
#    y 0.000000 1.522120 0.000000 
#    z 0.000000 0.000000 1.531470 
# 
# From -- ./inp_files/22911.got.cif
#   From: 2010.05.17/outbox.cif.g08.bks.cpg/sg46_12_cif.got.tgz:22911.got - 2010.06.03 19:58:25.
