data_PCOD9378946
_publ_section_title
;
Structure prediction by ZEFSAII (Michael W. Deem and Ramdas Pophale) SiO2 
 PCOD9378946
Probable space group: I M A 2
;
_chemical_formula_sum "Si O2"
_cell_formula_units_Z 64
_cell_length_a 13.975981
_cell_length_b 8.120254
_cell_length_c 27.568292
_cell_angle_alpha 90.000000
_cell_angle_beta 90.000000
_cell_angle_gamma 90.000000
_cell_volume 3128.684537
_symmetry_space_group_name_H-M "I M A 2"
_symmetry_group_IT_number 46
_symmetry_cell_setting 'orthorhombic'
loop_
_space_group_symop_operation_xyz
x,y,z
-x,-y,z
1/2-x,y,z
1/2+x,-y,z
1/2+x,1/2+y,1/2+z
1/2-x,1/2-y,1/2+z
-x,1/2+y,1/2+z
x,1/2-y,1/2+z
loop_
_atom_site_type_symbol
_atom_site_label
_atom_site_fract_x
_atom_site_fract_y
_atom_site_fract_z
Si Si1 0.359564 0.779648 0.545890
Si Si2 0.635783 0.101926 0.730671
Si Si3 0.893453 0.435748 0.888377
Si Si4 0.978084 0.191171 0.637670
Si Si5 0.644518 0.882000 0.485658
Si Si6 0.858518 0.076848 0.277440
Si Si7 0.366634 0.271159 0.711123
Si Si8 0.541759 0.328985 0.457525
O O1 0.250000 0.766697 0.562215
O O2 0.431990 0.740235 0.589098
O O3 0.382588 0.661399 0.500941
O O4 0.370987 0.965054 0.522919
O O5 0.750000 0.089774 0.733720
O O6 0.601714 0.178492 0.679709
O O7 0.599904 0.240640 0.768196
O O8 0.605035 0.910164 0.732391
O O9 0.848519 0.540742 0.931683
O O10 0.853901 0.449878 0.834804
O O11 0.000000 0.500000 0.882993
O O12 0.906088 0.257627 0.912503
O O13 0.071170 0.277231 0.661479
O O14 0.000000 0.000000 0.626811
O O15 0.750000 0.807908 0.497011
O O16 0.548595 0.773281 0.480490
O O17 0.750000 0.087453 0.259012
O O18 0.896073 0.919875 0.247143
O O19 0.250000 0.272760 0.703813
O O20 0.500000 0.500000 0.441607
#
# Coordination Sequence:
#
# PCOD9378946 Si02
#       8
#     8   8   8   8   8   8   8   8
#     4  10  20  37  64  88 115 156 205 250 302 368
#     4   9  19  35  53  79 115 151 196 247 296 356
#     4   9  19  35  57  81 110 150 200 243 299 358
#     4  10  19  34  57  84 112 155 200 247 300 361
#     4   9  18  36  61  85 113 154 201 248 297 364
#     4  10  20  36  57  81 113 156 201 248 303 354
#     4   9  20  37  55  81 118 156 199 251 299 355
#     4  10  21  39  56  88 127 157 191 251 312 377
#
# _framework density 20.455881999999999
#
# number of rings (size 3 to 8) (size 9 to 14) (size 15 to 20)
#    0.000    2.500    0.000    2.625    1.750    1.500 
#    6.750    0.625    0.000    0.000    0.000    0.000 
#    0.000    0.000    0.000    0.000    0.000    0.000 
#
# Total GULP energy -178158.634338 kJ/mol
# GULP energy per Si atom -5567.457323 kJ/mol
# Density = 2.040932 g / cm^3
# Si number density = 20.455882 Si / 1000 Ang^3
#
#
#
# Elastic Constant Matrix: (Units=GPa)
#
#
# Indices 1 2 3 4 5 6 
#
# 1 90.5584 21.3071 21.6402 0.0000 0.0000 0.0000
# 2 21.3071 41.3530 32.0730 0.0000 0.0000 0.0000
# 3 21.6402 32.0730 108.6264 0.0000 0.0000 0.0000
# 4 0.0000 0.0000 0.0000 -11.8030 0.0000 0.0000
# 5 0.0000 0.0000 0.0000 0.0000 27.0669 0.0000
# 6 0.0000 0.0000 0.0000 0.0000 0.0000 17.0133
#
#
#
# Elastic Compliance Matrix: (Units=1/GPa)
#
#
# Indices 1 2 3 4 5 6 
#
# 1 0.012615 -0.005903 -0.000770 0.000000 0.000000 0.000000
# 2 -0.005903 0.034126 -0.008900 0.000000 0.000000 0.000000
# 3 -0.000770 -0.008900 0.011987 0.000000 0.000000 0.000000
# 4 0.000000 0.000000 0.000000 -0.084725 0.000000 0.000000
# 5 0.000000 0.000000 0.000000 0.000000 0.036946 0.000000
# 6 0.000000 0.000000 0.000000 0.000000 0.000000 0.058778
#
#
# Mechanical properties :
#
#
# Convention : Reuss Voigt Hill
#
# Bulk Modulus (GPa) = 36.25485 43.39761 39.82623
# Shear Modulus (GPa) = 45.42639 17.48995 31.45817
#
# Velocity S-wave (km/s) = 4.71754 2.92722 3.92580
# Velocity P-wave (km/s) = 6.88735 5.71718 6.32936
#
# Compressibility (1/GPa) = 0.02758252
#
# Stress axis : x y z
#
# Youngs Moduli (GPa) = 79.26765 29.30295 83.42215
#
# Poissons Ratio (x) = 0.17296 0.06427
# Poissons Ratio (y) = 0.46788 0.74248
# Poissons Ratio (z) = 0.06107 0.26080
#
# Static dielectric constant tensor:
#      x y z
#    x 1.860480 0.000000 0.000000 
#    y 0.000000 1.859490 0.000000 
#    z 0.000000 0.000000 1.710330 
# 
# From -- ./inp_files/23652.got.cif
#   From: 2010.05.17/outbox.cif.g08.bks.cpg/sg46_12_cif.got.tgz:23652.got - 2010.06.03 19:58:25.
