data_PCOD9378637
_publ_section_title
;
Structure prediction by ZEFSAII (Michael W. Deem and Ramdas Pophale) SiO2 
 PCOD9378637
Probable space group: I M A 2
;
_chemical_formula_sum "Si O2"
_cell_formula_units_Z 52
_cell_length_a 9.112715
_cell_length_b 16.017151
_cell_length_c 19.503762
_cell_angle_alpha 90.000000
_cell_angle_beta 90.000000
_cell_angle_gamma 90.000000
_cell_volume 2846.763878
_symmetry_space_group_name_H-M "I M A 2"
_symmetry_group_IT_number 46
_symmetry_cell_setting 'orthorhombic'
loop_
_space_group_symop_operation_xyz
x,y,z
-x,-y,z
1/2-x,y,z
1/2+x,-y,z
1/2+x,1/2+y,1/2+z
1/2-x,1/2-y,1/2+z
-x,1/2+y,1/2+z
x,1/2-y,1/2+z
loop_
_atom_site_type_symbol
_atom_site_label
_atom_site_fract_x
_atom_site_fract_y
_atom_site_fract_z
Si Si1 0.575712 0.699189 0.646690
Si Si2 0.000000 0.500000 0.005955
Si Si3 0.408343 0.838554 0.581138
Si Si4 0.425221 0.589337 0.527194
Si Si5 0.576864 0.416069 0.748942
Si Si6 0.913872 0.239322 0.936730
Si Si7 0.913042 0.884243 0.382250
O O1 0.750000 0.690056 0.649664
O O2 0.530483 0.793780 0.627060
O O3 0.506321 0.640405 0.587376
O O4 0.498601 0.664015 0.714639
O O5 0.916431 0.560737 0.951895
O O6 0.924363 0.433535 0.056341
O O7 0.250000 0.825874 0.615027
O O8 0.406341 0.787362 0.509745
O O9 0.500000 0.500000 0.521248
O O10 0.250000 0.584098 0.541670
O O11 0.441995 0.644352 0.458064
O O12 0.500000 0.500000 0.720279
O O13 0.750000 0.418113 0.737510
O O14 0.536585 0.413990 0.829297
O O15 0.750000 0.247839 0.905297
O O16 0.040723 0.289114 0.898212
O O17 0.750000 0.891111 0.352070
#
# Coordination Sequence:
#
# PCOD9378637 Si02
#       7
#     8   4   8   8   8   8   8
#     4  11  22  36  52  74 105 141 182 223 267 319
#     4  10  20  32  56  84 118 144 180 222 270 324
#     4   9  18  33  52  76 107 143 179 219 268 317
#     4  10  19  32  51  75 103 136 175 218 264 313
#     4  12  24  38  55  76 106 143 181 220 265 323
#     4   8  17  32  48  70 103 138 170 211 263 315
#     4  11  21  33  52  79 110 142 177 217 265 321
#
# _framework density 18.266355999999998
#
# number of rings (size 3 to 8) (size 9 to 14) (size 15 to 20)
#    0.000    1.846    0.769    5.538    0.000    8.000 
#    0.000    0.000    0.000    0.000    2.000    0.000 
#    0.000    0.000    0.000    0.000    0.000    0.000 
#
# Total GULP energy -144860.758378 kJ/mol
# GULP energy per Si atom -5571.567630 kJ/mol
# Density = 1.822478 g / cm^3
# Si number density = 18.266356 Si / 1000 Ang^3
#
#
#
# Elastic Constant Matrix: (Units=GPa)
#
#
# Indices 1 2 3 4 5 6 
#
# 1 143.9889 39.9638 22.5577 0.0000 0.0000 0.0000
# 2 39.9638 100.2379 19.7441 0.0000 0.0000 0.0000
# 3 22.5577 19.7441 28.5306 0.0000 0.0000 0.0000
# 4 0.0000 0.0000 0.0000 23.5092 0.0000 0.0000
# 5 0.0000 0.0000 0.0000 0.0000 21.5753 0.0000
# 6 0.0000 0.0000 0.0000 0.0000 0.0000 15.7393
#
#
#
# Elastic Compliance Matrix: (Units=1/GPa)
#
#
# Indices 1 2 3 4 5 6 
#
# 1 0.008382 -0.002358 -0.004996 0.000000 0.000000 0.000000
# 2 -0.002358 0.012214 -0.006588 0.000000 0.000000 0.000000
# 3 -0.004996 -0.006588 0.043559 0.000000 0.000000 0.000000
# 4 0.000000 0.000000 0.000000 0.042536 0.000000 0.000000
# 5 0.000000 0.000000 0.000000 0.000000 0.046349 0.000000
# 6 0.000000 0.000000 0.000000 0.000000 0.000000 0.063535
#
#
# Mechanical properties :
#
#
# Convention : Reuss Voigt Hill
#
# Bulk Modulus (GPa) = 27.56958 48.58764 38.07861
# Shear Modulus (GPa) = 19.48937 24.86422 22.17679
#
# Velocity S-wave (km/s) = 3.26997 3.69345 3.48814
# Velocity P-wave (km/s) = 5.42059 6.69672 6.09216
#
# Compressibility (1/GPa) = 0.03627186
#
# Stress axis : x y z
#
# Youngs Moduli (GPa) = 119.30325 81.87308 22.95729
#
# Poissons Ratio (x) = 0.19304 0.11468
# Poissons Ratio (y) = 0.28130 0.15125
# Poissons Ratio (z) = 0.59598 0.53941
#
# Static dielectric constant tensor:
#      x y z
#    x 1.646040 0.000000 0.000000 
#    y 0.000000 1.676050 0.000000 
#    z 0.000000 0.000000 1.649210 
# 
# From -- ./inp_files/20999.got.cif
#   From: 2010.05.17/outbox.cif.g08.bks.cpg/sg46_11_cif.got.tgz:20999.got - 2010.06.03 19:58:25.
