data_PCOD9378540
_publ_section_title
;
Structure prediction by ZEFSAII (Michael W. Deem and Ramdas Pophale) SiO2 
 PCOD9378540
Probable space group: I M A 2
;
_chemical_formula_sum "Si O2"
_cell_formula_units_Z 64
_cell_length_a 7.882420
_cell_length_b 30.967378
_cell_length_c 15.109862
_cell_angle_alpha 90.000000
_cell_angle_beta 90.000000
_cell_angle_gamma 90.000000
_cell_volume 3688.285277
_symmetry_space_group_name_H-M "I M A 2"
_symmetry_group_IT_number 46
_symmetry_cell_setting 'orthorhombic'
loop_
_space_group_symop_operation_xyz
x,y,z
-x,-y,z
1/2-x,y,z
1/2+x,-y,z
1/2+x,1/2+y,1/2+z
1/2-x,1/2-y,1/2+z
-x,1/2+y,1/2+z
x,1/2-y,1/2+z
loop_
_atom_site_type_symbol
_atom_site_label
_atom_site_fract_x
_atom_site_fract_y
_atom_site_fract_z
Si Si1 0.452848 0.800189 0.160210
Si Si2 0.450025 0.639198 0.176868
Si Si3 0.452293 0.048251 0.721921
Si Si4 0.454091 0.048037 0.925347
Si Si5 0.545043 0.866297 0.017387
Si Si6 0.444451 0.719130 0.848626
Si Si7 0.042475 0.783798 0.548791
Si Si8 0.053249 0.187133 0.847363
O O1 0.250000 0.794056 0.167806
O O2 0.485657 0.843832 0.106608
O O3 0.523140 0.801307 0.260201
O O4 0.516303 0.758782 0.103004
O O5 0.250000 0.645851 0.189217
O O6 0.482339 0.588448 0.164866
O O7 0.505210 0.672650 0.100955
O O8 0.539545 0.653713 0.267339
O O9 0.250000 0.051092 0.724340
O O10 0.517656 0.053165 0.823820
O O11 0.500000 0.000000 0.692274
O O12 0.250000 0.051226 0.921053
O O13 0.500000 0.000000 0.955040
O O14 0.514988 0.086080 0.989580
O O15 0.750000 0.866854 0.018159
O O16 0.491516 0.835049 0.936969
O O17 0.250000 0.703704 0.855616
O O18 0.448619 0.770156 0.827607
O O19 0.519169 0.715041 0.947219
O O20 0.250000 0.781317 0.545996
O O21 0.250000 0.199515 0.858154
#
# Coordination Sequence:
#
# PCOD9378540 Si02
#       8
#     8   8   8   8   8   8   8   8
#     4  10  19  31  49  71  92 125 167 200 235 286
#     4  11  20  32  49  71  97 132 168 199 241 286
#     4  10  19  33  49  72 101 129 161 197 239 290
#     4   9  18  32  47  67  96 125 156 192 235 283
#     4  10  20  33  46  67  99 130 158 197 240 281
#     4  10  19  34  49  66  96 128 163 207 241 278
#     4   9  18  31  48  70  95 125 163 202 239 282
#     4  11  20  30  45  68  98 130 163 200 240 283
#
# _framework density 17.352236000000001
#
# number of rings (size 3 to 8) (size 9 to 14) (size 15 to 20)
#    0.000    2.000    3.750    1.125    0.000    2.000 
#    0.000    1.250    0.000    0.000    0.000    0.875 
#    0.000    2.000    0.000    0.000    0.000    0.000 
#
# Total GULP energy -178463.789888 kJ/mol
# GULP energy per Si atom -5576.993434 kJ/mol
# Density = 1.731274 g / cm^3
# Si number density = 17.352236 Si / 1000 Ang^3
#
#
#
# Elastic Constant Matrix: (Units=GPa)
#
#
# Indices 1 2 3 4 5 6 
#
# 1 23.8507 0.1988 3.6734 0.0000 0.0000 0.0000
# 2 0.1988 86.0068 12.7624 0.0000 0.0000 0.0000
# 3 3.6734 12.7624 62.6677 0.0002 0.0000 0.0000
# 4 0.0000 0.0000 0.0002 23.7391 0.0000 0.0000
# 5 0.0000 0.0000 0.0000 0.0000 6.8001 0.0000
# 6 0.0000 0.0000 0.0000 0.0000 0.0000 20.2819
#
#
#
# Elastic Compliance Matrix: (Units=1/GPa)
#
#
# Indices 1 2 3 4 5 6 
#
# 1 0.042316 0.000279 -0.002537 0.000000 0.000000 0.000000
# 2 0.000279 0.011991 -0.002458 0.000000 0.000000 0.000000
# 3 -0.002537 -0.002458 0.016607 0.000000 0.000000 0.000000
# 4 0.000000 0.000000 0.000000 0.042125 0.000000 0.000000
# 5 0.000000 0.000000 0.000000 0.000000 0.147057 0.000000
# 6 0.000000 0.000000 0.000000 0.000000 0.000000 0.049305
#
#
# Mechanical properties :
#
#
# Convention : Reuss Voigt Hill
#
# Bulk Modulus (GPa) = 16.26547 22.86606 19.56576
# Shear Modulus (GPa) = 14.73501 20.55691 17.64596
#
# Velocity S-wave (km/s) = 2.91721 3.44566 3.19239
# Velocity P-wave (km/s) = 4.55422 5.38853 4.98885
#
# Compressibility (1/GPa) = 0.06147992
#
# Stress axis : x y z
#
# Youngs Moduli (GPa) = 23.63171 83.39495 60.21717
#
# Poissons Ratio (x) = -0.02324 0.15278
# Poissons Ratio (y) = -0.00659 0.14804
# Poissons Ratio (z) = 0.05996 0.20501
#
# Static dielectric constant tensor:
#      x y z
#    x 1.635200 0.000000 0.000000 
#    y 0.000000 1.588130 0.000000 
#    z 0.000000 0.000000 1.604770 
# 
# From -- ./inp_files/14733.got.cif
#   From: 2010.05.17/outbox.cif.g08.bks.cpg/sg46_8_cif.got.tgz:14733.got - 2010.06.03 19:58:25.
