data_PCOD9378181
_publ_section_title
;
Structure prediction by ZEFSAII (Michael W. Deem and Ramdas Pophale) SiO2 
 PCOD9378181
Probable space group: I M A 2
;
_chemical_formula_sum "Si O2"
_cell_formula_units_Z 56
_cell_length_a 8.514816
_cell_length_b 15.029711
_cell_length_c 22.608615
_cell_angle_alpha 90.000000
_cell_angle_beta 90.000000
_cell_angle_gamma 90.000000
_cell_volume 2893.342562
_symmetry_space_group_name_H-M "I M A 2"
_symmetry_group_IT_number 46
_symmetry_cell_setting 'orthorhombic'
loop_
_space_group_symop_operation_xyz
x,y,z
-x,-y,z
1/2-x,y,z
1/2+x,-y,z
1/2+x,1/2+y,1/2+z
1/2-x,1/2-y,1/2+z
-x,1/2+y,1/2+z
x,1/2-y,1/2+z
loop_
_atom_site_type_symbol
_atom_site_label
_atom_site_fract_x
_atom_site_fract_y
_atom_site_fract_z
Si Si1 0.939453 0.903690 0.975300
Si Si2 0.436162 0.903865 0.548088
Si Si3 0.438697 0.096536 0.415148
Si Si4 0.058478 0.285743 0.805074
Si Si5 0.060653 0.404444 0.338301
Si Si6 0.560280 0.779414 0.081069
Si Si7 0.439813 0.399613 0.692463
O O1 0.750000 0.904647 0.975937
O O2 0.989558 0.892280 0.907133
O O3 0.991208 0.826725 0.019928
O O4 0.000000 0.000000 0.995767
O O5 0.250000 0.907693 0.547011
O O6 0.497580 0.888963 0.480998
O O7 0.494266 0.819656 0.585143
O O8 0.500000 0.000000 0.567742
O O9 0.250000 0.095269 0.418245
O O10 0.487428 0.169877 0.367387
O O11 0.500000 0.000000 0.395159
O O12 0.250000 0.285650 0.804055
O O13 0.007806 0.183063 0.803205
O O14 0.005754 0.346765 0.750864
O O15 0.250000 0.406810 0.337759
O O16 0.000000 0.500000 0.317566
O O17 0.750000 0.773889 0.080450
O O18 0.512868 0.843150 0.134901
O O19 0.500000 0.500000 0.690927
O O20 0.250000 0.402273 0.693396
#
# Coordination Sequence:
#
# PCOD9378181 Si02
#       7
#     8   8   8   8   8   8   8
#     4   9  17  29  48  74 103 135 168 209 260 312
#     4  11  22  36  55  79 107 137 174 220 268 318
#     4  10  18  31  52  78 109 141 174 213 262 317
#     4   9  18  33  53  75 104 144 180 213 260 314
#     4   9  17  31  49  70  98 130 167 209 256 308
#     4  10  20  35  54  76 105 141 177 214 262 314
#     4  10  21  37  57  80 107 140 177 218 261 309
#
# _framework density 19.354776000000001
#
# number of rings (size 3 to 8) (size 9 to 14) (size 15 to 20)
#    0.000    2.286    0.000    4.286    0.000    3.429 
#    0.000    6.429    0.000    1.714    0.000    0.000 
#    0.000    0.000    0.000    0.000    0.000    0.000 
#
# Total GULP energy -156306.367357 kJ/mol
# GULP energy per Si atom -5582.370263 kJ/mol
# Density = 1.931072 g / cm^3
# Si number density = 19.354776 Si / 1000 Ang^3
#
#
#
# Elastic Constant Matrix: (Units=GPa)
#
#
# Indices 1 2 3 4 5 6 
#
# 1 28.2875 30.5506 16.7610 0.0000 0.0000 0.0000
# 2 30.5506 203.9459 67.0023 0.0000 0.0000 0.0000
# 3 16.7610 67.0023 45.9778 0.0000 0.0000 0.0000
# 4 0.0000 0.0000 0.0000 32.9467 0.0000 0.0000
# 5 0.0000 0.0000 0.0000 0.0000 11.7043 0.0000
# 6 0.0000 0.0000 0.0000 0.0000 0.0000 32.8458
#
#
#
# Elastic Compliance Matrix: (Units=1/GPa)
#
#
# Indices 1 2 3 4 5 6 
#
# 1 0.045820 -0.002640 -0.012856 0.000000 0.000000 0.000000
# 2 -0.002640 0.009559 -0.012968 0.000000 0.000000 0.000000
# 3 -0.012856 -0.012968 0.045334 0.000000 0.000000 0.000000
# 4 0.000000 0.000000 0.000000 0.030352 0.000000 0.000000
# 5 0.000000 0.000000 0.000000 0.000000 0.085439 0.000000
# 6 0.000000 0.000000 0.000000 0.000000 0.000000 0.030445
#
#
# Mechanical properties :
#
#
# Convention : Reuss Voigt Hill
#
# Bulk Modulus (GPa) = 22.83886 56.31545 39.57715
# Shear Modulus (GPa) = 15.69996 26.42585 21.06290
#
# Velocity S-wave (km/s) = 2.85119 3.69906 3.30245
# Velocity P-wave (km/s) = 4.76075 6.88503 5.91897
#
# Compressibility (1/GPa) = 0.04378502
#
# Stress axis : x y z
#
# Youngs Moduli (GPa) = 21.82447 104.61330 22.05858
#
# Poissons Ratio (x) = 0.27619 0.28359
# Poissons Ratio (y) = 0.05762 0.28605
# Poissons Ratio (z) = 0.28058 1.35659
#
# Static dielectric constant tensor:
#      x y z
#    x 1.667660 0.000000 0.000000 
#    y 0.000000 1.674100 0.000000 
#    z 0.000000 0.000000 1.674100 
# 
# From -- ./inp_files/21090.got.cif
#   From: 2010.05.17/outbox.cif.g08.bks.cpg/sg46_11_cif.got.tgz:21090.got - 2010.06.03 19:58:25.
