data_PCOD9378912
_publ_section_title
;
Structure prediction by ZEFSAII (Michael W. Deem and Ramdas Pophale) SiO2 
 PCOD9378912
Probable space group: I M A 2
;
_chemical_formula_sum "Si O2"
_cell_formula_units_Z 64
_cell_length_a 8.873531
_cell_length_b 25.697740
_cell_length_c 15.128543
_cell_angle_alpha 90.000000
_cell_angle_beta 90.000000
_cell_angle_gamma 90.000000
_cell_volume 3449.757009
_symmetry_space_group_name_H-M "I M A 2"
_symmetry_group_IT_number 46
_symmetry_cell_setting 'orthorhombic'
loop_
_space_group_symop_operation_xyz
x,y,z
-x,-y,z
1/2-x,y,z
1/2+x,-y,z
1/2+x,1/2+y,1/2+z
1/2-x,1/2-y,1/2+z
-x,1/2+y,1/2+z
x,1/2-y,1/2+z
loop_
_atom_site_type_symbol
_atom_site_label
_atom_site_fract_x
_atom_site_fract_y
_atom_site_fract_z
Si Si1 0.569136 0.386779 0.426800
Si Si2 0.568927 0.442657 0.242527
Si Si3 0.573302 0.776800 0.905499
Si Si4 0.927070 0.761928 0.694953
Si Si5 0.568831 0.867403 0.598337
Si Si6 0.568597 0.055837 0.105011
Si Si7 0.068902 0.653646 0.721273
Si Si8 0.569960 0.332718 0.925350
O O1 0.750000 0.378990 0.429072
O O2 0.529029 0.411328 0.332131
O O3 0.490039 0.331357 0.438975
O O4 0.528551 0.425771 0.505883
O O5 0.500000 0.500000 0.247052
O O6 0.750000 0.445249 0.236919
O O7 0.502164 0.411622 0.159516
O O8 0.750000 0.771062 0.926121
O O9 0.555236 0.775953 0.798738
O O10 0.483960 0.726683 0.939602
O O11 0.750000 0.754635 0.677568
O O12 0.979634 0.811504 0.639338
O O13 0.008399 0.707226 0.679790
O O14 0.750000 0.870245 0.601695
O O15 0.509516 0.867923 0.498567
O O16 0.750000 0.052405 0.110092
O O17 0.518191 0.102207 0.170055
O O18 0.500000 0.000000 0.125670
O O19 0.250000 0.655452 0.717427
O O20 0.025219 0.653150 0.824747
O O21 0.750000 0.336167 0.932930
#
# Coordination Sequence:
#
# PCOD9378912 Si02
#       8
#     8   8   8   8   8   8   8   8
#     4  10  21  36  56  85 119 154 193 234 286 348
#     4  11  23  39  60  85 117 158 199 243 294 350
#     4  10  19  34  55  83 118 155 191 232 283 342
#     4   9  19  34  54  82 115 148 186 231 283 341
#     4  11  22  38  58  86 119 153 196 244 292 350
#     4  10  22  40  59  84 113 148 193 241 287 341
#     4   9  20  38  59  82 113 150 193 240 289 343
#     4  10  21  37  57  83 117 156 194 241 294 348
#
# _framework density 18.552029999999998
#
# number of rings (size 3 to 8) (size 9 to 14) (size 15 to 20)
#    0.000    2.000    1.250    1.875    1.750    3.500 
#    0.000    0.625    0.000    1.500    0.000    0.000 
#    0.000    0.000    0.000    0.000    0.000    0.000 
#
# Total GULP energy -178759.039421 kJ/mol
# GULP energy per Si atom -5586.219982 kJ/mol
# Density = 1.850980 g / cm^3
# Si number density = 18.552030 Si / 1000 Ang^3
#
#
#
# Elastic Constant Matrix: (Units=GPa)
#
#
# Indices 1 2 3 4 5 6 
#
# 1 32.4271 28.5508 24.9766 0.0000 0.0000 0.0000
# 2 28.5508 106.6012 31.6469 0.0001 0.0000 0.0000
# 3 24.9766 31.6469 57.2094 0.0000 0.0000 0.0000
# 4 0.0000 0.0001 0.0000 28.7509 0.0000 0.0000
# 5 0.0000 0.0000 0.0000 0.0000 20.1048 0.0000
# 6 0.0000 0.0000 0.0000 0.0000 0.0000 35.1051
#
#
#
# Elastic Compliance Matrix: (Units=1/GPa)
#
#
# Indices 1 2 3 4 5 6 
#
# 1 0.052394 -0.008665 -0.018081 0.000000 0.000000 0.000000
# 2 -0.008665 0.012657 -0.003219 0.000000 0.000000 0.000000
# 3 -0.018081 -0.003219 0.027154 0.000000 0.000000 0.000000
# 4 0.000000 0.000000 0.000000 0.034782 0.000000 0.000000
# 5 0.000000 0.000000 0.000000 0.000000 0.049739 0.000000
# 6 0.000000 0.000000 0.000000 0.000000 0.000000 0.028486
#
#
# Mechanical properties :
#
#
# Convention : Reuss Voigt Hill
#
# Bulk Modulus (GPa) = 30.98279 40.73179 35.85729
# Shear Modulus (GPa) = 18.12250 24.19639 21.15945
#
# Velocity S-wave (km/s) = 3.12885 3.61535 3.38086
# Velocity P-wave (km/s) = 5.45799 6.27939 5.88304
#
# Compressibility (1/GPa) = 0.03227598
#
# Stress axis : x y z
#
# Youngs Moduli (GPa) = 19.08601 79.00786 36.82697
#
# Poissons Ratio (x) = 0.68459 0.66588
# Poissons Ratio (y) = 0.16538 0.11853
# Poissons Ratio (z) = 0.34510 0.25430
#
# Static dielectric constant tensor:
#      x y z
#    x 1.617380 0.000000 0.000000 
#    y 0.000000 1.603490 0.000000 
#    z 0.000000 0.000000 1.660510 
# 
# From -- ./inp_files/14443.got.cif
#   From: 2010.05.17/outbox.cif.g08.bks.cpg/sg46_8_cif.got.tgz:14443.got - 2010.06.03 19:58:25.
