data_PCOD9378223
_publ_section_title
;
Structure prediction by ZEFSAII (Michael W. Deem and Ramdas Pophale) SiO2 
 PCOD9378223
Probable space group: I M A 2
;
_chemical_formula_sum "Si O2"
_cell_formula_units_Z 64
_cell_length_a 8.727856
_cell_length_b 20.117595
_cell_length_c 21.204480
_cell_angle_alpha 90.000000
_cell_angle_beta 90.000000
_cell_angle_gamma 90.000000
_cell_volume 3723.156225
_symmetry_space_group_name_H-M "I M A 2"
_symmetry_group_IT_number 46
_symmetry_cell_setting 'orthorhombic'
loop_
_space_group_symop_operation_xyz
x,y,z
-x,-y,z
1/2-x,y,z
1/2+x,-y,z
1/2+x,1/2+y,1/2+z
1/2-x,1/2-y,1/2+z
-x,1/2+y,1/2+z
x,1/2-y,1/2+z
loop_
_atom_site_type_symbol
_atom_site_label
_atom_site_fract_x
_atom_site_fract_y
_atom_site_fract_z
Si Si1 0.932113 0.428852 0.317510
Si Si2 0.066859 0.787142 0.241222
Si Si3 0.936204 0.789209 0.482745
Si Si4 0.566014 0.930435 0.429916
Si Si5 0.566154 0.709211 0.122965
Si Si6 0.567452 0.071399 0.666994
Si Si7 0.565934 0.792397 0.860615
Si Si8 0.566638 0.069016 0.288622
O O1 0.750000 0.428149 0.326238
O O2 0.962188 0.420825 0.242309
O O3 0.000000 0.500000 0.336437
O O4 0.007783 0.367325 0.353056
O O5 0.250000 0.778930 0.242753
O O6 0.030653 0.865230 0.248767
O O7 0.002812 0.754377 0.177991
O O8 0.997684 0.749229 0.301508
O O9 0.750000 0.788749 0.481907
O O10 0.982628 0.865089 0.467911
O O11 0.983885 0.769246 0.552871
O O12 0.986652 0.742172 0.425565
O O13 0.750000 0.933898 0.428758
O O14 0.505461 0.922658 0.358320
O O15 0.500000 0.000000 0.454757
O O16 0.750000 0.711203 0.126873
O O17 0.511145 0.633638 0.133667
O O18 0.750000 0.072589 0.657387
O O19 0.500000 0.000000 0.647715
O O20 0.750000 0.790946 0.858374
O O21 0.750000 0.063634 0.295078
O O22 0.500000 0.000000 0.262550
#
# Coordination Sequence:
#
# PCOD9378223 Si02
#       8
#     8   8   8   8   8   8   8   8
#     4  10  20  34  54  82 114 141 178 225 272 323
#     4  11  22  36  54  82 112 140 181 228 271 324
#     4   9  21  37  53  78 110 144 185 225 265 324
#     4  10  18  32  51  75 108 143 180 219 260 314
#     4  11  22  37  56  78 109 148 186 224 272 323
#     4  10  20  34  52  77 111 146 184 225 266 320
#     4  11  20  35  59  82 108 144 182 225 274 321
#     4  10  20  33  53  80 110 138 175 223 269 318
#
# _framework density 17.189717000000002
#
# number of rings (size 3 to 8) (size 9 to 14) (size 15 to 20)
#    0.000    1.750    2.500    3.375    0.000    3.000 
#    0.000    6.250    0.000    0.750    0.000    1.750 
#    0.000    0.000    0.000    0.000    0.000    0.000 
#
# Total GULP energy -178694.168042 kJ/mol
# GULP energy per Si atom -5584.192751 kJ/mol
# Density = 1.715059 g / cm^3
# Si number density = 17.189717 Si / 1000 Ang^3
#
#
#
# Elastic Constant Matrix: (Units=GPa)
#
#
# Indices 1 2 3 4 5 6 
#
# 1 54.2789 46.6465 38.6912 0.0000 0.0000 0.0000
# 2 46.6465 136.2742 75.5309 0.0000 0.0000 0.0000
# 3 38.6912 75.5309 118.4119 0.0000 0.0000 0.0000
# 4 0.0000 0.0000 0.0000 19.0328 0.0000 0.0000
# 5 0.0000 0.0000 0.0000 0.0000 -3.6987 0.0000
# 6 0.0000 0.0000 0.0000 0.0000 0.0000 31.8213
#
#
#
# Elastic Compliance Matrix: (Units=1/GPa)
#
#
# Indices 1 2 3 4 5 6 
#
# 1 0.027656 -0.006896 -0.004638 0.000000 0.000000 0.000000
# 2 -0.006896 0.013071 -0.006084 0.000000 0.000000 0.000000
# 3 -0.004638 -0.006084 0.013841 0.000000 0.000000 0.000000
# 4 0.000000 0.000000 0.000000 0.052541 0.000000 0.000000
# 5 0.000000 0.000000 0.000000 0.000000 -0.270363 0.000000
# 6 0.000000 0.000000 0.000000 0.000000 0.000000 0.031425
#
#
# Mechanical properties :
#
#
# Convention : Reuss Voigt Hill
#
# Bulk Modulus (GPa) = 51.72781 70.07802 60.90291
# Shear Modulus (GPa) = -55.46335 19.30418 -18.07958
#
# Velocity S-wave (km/s) = -5.68643 3.35477 -3.24661
# Velocity P-wave (km/s) = 3.59949 7.47408 4.63171
#
# Compressibility (1/GPa) = 0.01933196
#
# Stress axis : x y z
#
# Youngs Moduli (GPa) = 36.15909 76.50639 72.24713
#
# Poissons Ratio (x) = 0.52758 0.33507
# Poissons Ratio (y) = 0.24935 0.43956
# Poissons Ratio (z) = 0.16770 0.46548
#
# Static dielectric constant tensor:
#      x y z
#    x 1.576180 0.000000 0.000000 
#    y 0.000000 1.581780 0.000000 
#    z 0.000000 0.000000 1.572800 
# 
# From -- ./inp_files/21450.got.cif
#   From: 2010.05.17/outbox.cif.g08.bks.cpg/sg46_11_cif.got.tgz:21450.got - 2010.06.03 19:58:25.
