data_PCOD9378945
_publ_section_title
;
Structure prediction by ZEFSAII (Michael W. Deem and Ramdas Pophale) SiO2 
 PCOD9378945
Probable space group: I M A 2
;
_chemical_formula_sum "Si O2"
_cell_formula_units_Z 40
_cell_length_a 17.640061
_cell_length_b 9.617024
_cell_length_c 10.383227
_cell_angle_alpha 90.000000
_cell_angle_beta 90.000000
_cell_angle_gamma 90.000000
_cell_volume 1761.461402
_symmetry_space_group_name_H-M "I M A 2"
_symmetry_group_IT_number 46
_symmetry_cell_setting 'orthorhombic'
loop_
_space_group_symop_operation_xyz
x,y,z
-x,-y,z
1/2-x,y,z
1/2+x,-y,z
1/2+x,1/2+y,1/2+z
1/2-x,1/2-y,1/2+z
-x,1/2+y,1/2+z
x,1/2-y,1/2+z
loop_
_atom_site_type_symbol
_atom_site_label
_atom_site_fract_x
_atom_site_fract_y
_atom_site_fract_z
Si Si1 0.003293 0.343190 0.350950
Si Si2 0.871199 0.366377 0.523975
Si Si3 0.922653 0.072862 0.275374
Si Si4 0.665579 0.454873 0.026205
Si Si5 0.164627 0.410414 0.307212
O O1 0.092894 0.313243 0.344824
O O2 0.000000 0.500000 0.296798
O O3 0.961341 0.350900 0.489267
O O4 0.947907 0.234803 0.282643
O O5 0.863875 0.442298 0.660117
O O6 0.837355 0.213311 0.537171
O O7 0.839564 0.460608 0.408446
O O8 0.893523 0.019419 0.412305
O O9 0.000000 0.000000 0.243934
O O10 0.750000 0.494410 0.983592
O O11 0.652746 0.529629 0.162719
O O12 0.250000 0.351324 0.314140
#
# Coordination Sequence:
#
# PCOD9378945 Si02
#       5
#     8   8   8   8   8
#     4   9  19  36  57  79 110 150 191 223 264 333
#     4  10  19  34  57  84 111 143 187 235 278 324
#     4  11  23  37  58  86 116 145 182 236 286 326
#     4  10  21  36  56  84 114 146 187 234 280 325
#     4  10  20  35  56  81 112 150 188 224 272 340
#
# _framework density 22.708416
#
# number of rings (size 3 to 8) (size 9 to 14) (size 15 to 20)
#    0.000    2.000    0.000    6.000    0.000    8.800 
#    0.000    1.000    0.000    3.600    0.000    0.000 
#    0.000    0.000    0.000    0.000    0.000    0.000 
#
# Total GULP energy -111525.833507 kJ/mol
# GULP energy per Si atom -5576.291675 kJ/mol
# Density = 2.265673 g / cm^3
# Si number density = 22.708416 Si / 1000 Ang^3
#
#
#
# Elastic Constant Matrix: (Units=GPa)
#
#
# Indices 1 2 3 4 5 6 
#
# 1 127.8016 2.3064 24.6054 0.0000 0.0000 0.0000
# 2 2.3064 41.4654 13.4537 0.0000 0.0000 0.0000
# 3 24.6054 13.4537 110.5813 0.0000 0.0000 0.0000
# 4 0.0000 0.0000 0.0000 13.8988 0.0000 0.0000
# 5 0.0000 0.0000 0.0000 0.0000 -7.7700 0.0000
# 6 0.0000 0.0000 0.0000 0.0000 0.0000 14.2646
#
#
#
# Elastic Compliance Matrix: (Units=1/GPa)
#
#
# Indices 1 2 3 4 5 6 
#
# 1 0.008176 0.000141 -0.001836 0.000000 0.000000 0.000000
# 2 0.000141 0.025110 -0.003086 0.000000 0.000000 0.000000
# 3 -0.001836 -0.003086 0.009827 0.000000 0.000000 0.000000
# 4 0.000000 0.000000 0.000000 0.071949 0.000000 0.000000
# 5 0.000000 0.000000 0.000000 0.000000 -0.128700 0.000000
# 6 0.000000 0.000000 0.000000 0.000000 0.000000 0.070104
#
#
# Mechanical properties :
#
#
# Convention : Reuss Voigt Hill
#
# Bulk Modulus (GPa) = 29.80660 40.06438 34.93549
# Shear Modulus (GPa) = 64.75747 20.04420 42.40083
#
# Velocity S-wave (km/s) = 5.34592 2.97421 4.32578
# Velocity P-wave (km/s) = 7.15957 5.42917 6.35355
#
# Compressibility (1/GPa) = 0.03354962
#
# Stress axis : x y z
#
# Youngs Moduli (GPa) = 122.31477 39.82474 101.75825
#
# Poissons Ratio (x) = -0.00562 0.18686
# Poissons Ratio (y) = -0.01725 0.31406
# Poissons Ratio (z) = 0.22461 0.12291
#
# Static dielectric constant tensor:
#      x y z
#    x 1.902850 0.000000 0.000000 
#    y 0.000000 1.930220 0.000000 
#    z 0.000000 0.000000 1.871070 
# 
# From -- ./inp_files/6370.got.cif
#   From: 2010.05.17/outbox.cif.g08.bks.cpg/sg46_4_cif.got.tgz:6370.got - 2010.06.03 19:58:25.
