data_PCOD9378139
_publ_section_title
;
Structure prediction by ZEFSAII (Michael W. Deem and Ramdas Pophale) SiO2 
 PCOD9378139
Probable space group: I M A 2
;
_chemical_formula_sum "Si O2"
_cell_formula_units_Z 48
_cell_length_a 8.769573
_cell_length_b 14.238048
_cell_length_c 18.918604
_cell_angle_alpha 90.000000
_cell_angle_beta 90.000000
_cell_angle_gamma 90.000000
_cell_volume 2362.207190
_symmetry_space_group_name_H-M "I M A 2"
_symmetry_group_IT_number 46
_symmetry_cell_setting 'orthorhombic'
loop_
_space_group_symop_operation_xyz
x,y,z
-x,-y,z
1/2-x,y,z
1/2+x,-y,z
1/2+x,1/2+y,1/2+z
1/2-x,1/2-y,1/2+z
-x,1/2+y,1/2+z
x,1/2-y,1/2+z
loop_
_atom_site_type_symbol
_atom_site_label
_atom_site_fract_x
_atom_site_fract_y
_atom_site_fract_z
Si Si1 0.429163 0.742250 0.146300
Si Si2 0.924014 0.595633 0.240899
Si Si3 0.068805 0.399371 0.035263
Si Si4 0.065017 0.196674 0.391974
Si Si5 0.422290 0.096479 0.910909
Si Si6 0.066123 0.604454 0.750267
O O1 0.250000 0.744190 0.131241
O O2 0.467438 0.676742 0.213552
O O3 0.511851 0.687445 0.083155
O O4 0.477983 0.843588 0.176510
O O5 0.750000 0.607929 0.215345
O O6 0.917037 0.591108 0.325392
O O7 0.000000 0.500000 0.215549
O O8 0.250000 0.404699 0.041025
O O9 0.000000 0.500000 0.055449
O O10 0.029645 0.376435 0.953972
O O11 0.250000 0.204181 0.383641
O O12 0.009389 0.299226 0.419726
O O13 0.996644 0.161904 0.318124
O O14 0.250000 0.097523 0.938913
O O15 0.500000 0.000000 0.935827
O O16 0.250000 0.603260 0.753942
O O17 0.000000 0.500000 0.753097
#
# Coordination Sequence:
#
# PCOD9378139 Si02
#       6
#     8   8   8   8   8   8
#     4  11  23  39  58  85 118 153 199 246 296 355
#     4  10  18  30  52  80 114 150 186 234 289 343
#     4  11  24  41  63  89 122 162 202 247 302 362
#     4  10  21  40  63  90 124 161 203 249 300 358
#     4   9  18  32  53  83 117 152 191 238 290 346
#     4  11  24  40  63  91 119 156 201 250 303 360
#
# _framework density 20.319977000000002
#
# number of rings (size 3 to 8) (size 9 to 14) (size 15 to 20)
#    0.000    1.667    1.667    3.000    0.000    6.000 
#    0.000    0.833    0.000    4.000    0.000    0.000 
#    0.000    0.000    0.000    0.000    0.000    0.000 
#
# Total GULP energy -133869.404273 kJ/mol
# GULP energy per Si atom -5577.891845 kJ/mol
# Density = 2.027373 g / cm^3
# Si number density = 20.319977 Si / 1000 Ang^3
#
#
#
# Elastic Constant Matrix: (Units=GPa)
#
#
# Indices 1 2 3 4 5 6 
#
# 1 32.8509 20.9013 23.6098 0.0000 0.0000 0.0000
# 2 20.9013 130.4556 29.2426 0.0000 0.0000 0.0000
# 3 23.6098 29.2426 76.5414 0.0000 0.0000 0.0000
# 4 0.0000 0.0000 0.0000 88.2334 0.0000 0.0000
# 5 0.0000 0.0000 0.0000 0.0000 15.1920 0.0000
# 6 0.0000 0.0000 0.0000 0.0000 0.0000 25.7026
#
#
#
# Elastic Compliance Matrix: (Units=1/GPa)
#
#
# Indices 1 2 3 4 5 6 
#
# 1 0.041009 -0.004085 -0.011089 0.000000 0.000000 0.000000
# 2 -0.004085 0.008790 -0.002098 0.000000 0.000000 0.000000
# 3 -0.011089 -0.002098 0.017287 0.000000 0.000000 0.000000
# 4 0.000000 0.000000 0.000000 0.011334 0.000000 0.000000
# 5 0.000000 0.000000 0.000000 0.000000 0.065824 0.000000
# 6 0.000000 0.000000 0.000000 0.000000 0.000000 0.038907
#
#
# Mechanical properties :
#
#
# Convention : Reuss Voigt Hill
#
# Bulk Modulus (GPa) = 30.72937 43.03948 36.88442
# Shear Modulus (GPa) = 21.87783 36.89856 29.38819
#
# Velocity S-wave (km/s) = 3.28482 4.26593 3.80711
# Velocity P-wave (km/s) = 5.43528 6.74471 6.12509
#
# Compressibility (1/GPa) = 0.03254216
#
# Stress axis : x y z
#
# Youngs Moduli (GPa) = 24.38485 113.76250 57.84693
#
# Poissons Ratio (x) = 0.46468 0.64147
# Poissons Ratio (y) = 0.09960 0.12138
# Poissons Ratio (z) = 0.27040 0.23871
#
# Static dielectric constant tensor:
#      x y z
#    x 1.699400 0.000000 0.000000 
#    y 0.000000 1.752370 0.000000 
#    z 0.000000 0.000000 1.733740 
# 
# From -- ./inp_files/20930.got.cif
#   From: 2010.05.17/outbox.cif.g08.bks.cpg/sg46_11_cif.got.tgz:20930.got - 2010.06.03 19:58:25.
