data_PCOD9378891
_publ_section_title
;
Structure prediction by ZEFSAII (Michael W. Deem and Ramdas Pophale) SiO2 
 PCOD9378891
Probable space group: I M A 2
;
_chemical_formula_sum "Si O2"
_cell_formula_units_Z 64
_cell_length_a 8.933140
_cell_length_b 33.916493
_cell_length_c 11.826584
_cell_angle_alpha 90.000000
_cell_angle_beta 90.000000
_cell_angle_gamma 90.000000
_cell_volume 3583.227648
_symmetry_space_group_name_H-M "I M A 2"
_symmetry_group_IT_number 46
_symmetry_cell_setting 'orthorhombic'
loop_
_space_group_symop_operation_xyz
x,y,z
-x,-y,z
1/2-x,y,z
1/2+x,-y,z
1/2+x,1/2+y,1/2+z
1/2-x,1/2-y,1/2+z
-x,1/2+y,1/2+z
x,1/2-y,1/2+z
loop_
_atom_site_type_symbol
_atom_site_label
_atom_site_fract_x
_atom_site_fract_y
_atom_site_fract_z
Si Si1 0.074839 0.724346 0.202910
Si Si2 0.580702 0.328947 0.989822
Si Si3 0.072586 0.957462 0.444846
Si Si4 0.929780 0.880426 0.074002
Si Si5 0.569812 0.456088 0.687108
Si Si6 0.924461 0.896917 0.607613
Si Si7 0.430377 0.349461 0.324954
Si Si8 0.574053 0.313003 0.725234
O O1 0.250000 0.726298 0.235996
O O2 0.015749 0.768813 0.203006
O O3 0.997207 0.692429 0.284797
O O4 0.066978 0.707356 0.075832
O O5 0.750000 0.345761 0.008127
O O6 0.567852 0.318660 0.859704
O O7 0.455924 0.359674 0.027049
O O8 0.250000 0.960189 0.450514
O O9 0.035370 0.942875 0.317208
O O10 0.012798 0.931379 0.546782
O O11 0.000000 0.000000 0.453500
O O12 0.750000 0.884251 0.078467
O O13 0.003018 0.922440 0.106111
O O14 0.986001 0.847262 0.161507
O O15 0.972315 0.864460 0.949168
O O16 0.500000 0.500000 0.670986
O O17 0.750000 0.458435 0.675526
O O18 0.750000 0.906716 0.613458
O O19 0.976379 0.881769 0.730434
O O20 0.250000 0.346274 0.319969
O O21 0.750000 0.315218 0.691003
#
# Coordination Sequence:
#
# PCOD9378891 Si02
#       8
#     8   8   8   8   8   8   8   8
#     4   9  19  34  55  78 103 140 182 226 277 329
#     4   9  18  33  50  74 104 134 172 219 269 319
#     4  10  20  34  55  84 114 140 172 217 270 324
#     4  11  23  38  56  81 112 149 190 232 277 333
#     4  10  21  38  60  86 116 148 182 228 279 332
#     4  10  19  34  55  76 102 138 178 219 265 319
#     4   9  21  39  55  75 108 147 186 229 275 325
#     4  10  21  34  53  80 109 140 180 230 277 327
#
# _framework density 17.860992
#
# number of rings (size 3 to 8) (size 9 to 14) (size 15 to 20)
#    0.000    2.250    0.000    2.250    1.750    7.000 
#    0.000    0.625    0.000    0.000    0.000    0.000 
#    0.000    0.000    0.000    0.000    0.000    0.000 
#
# Total GULP energy -178467.815791 kJ/mol
# GULP energy per Si atom -5577.119243 kJ/mol
# Density = 1.782034 g / cm^3
# Si number density = 17.860992 Si / 1000 Ang^3
#
#
#
# Elastic Constant Matrix: (Units=GPa)
#
#
# Indices 1 2 3 4 5 6 
#
# 1 44.7849 38.4897 38.4279 -0.0003 0.0000 0.0000
# 2 38.4897 100.6277 62.7618 -0.0008 -0.0001 -0.0001
# 3 38.4279 62.7618 92.7714 -0.0008 -0.0001 -0.0001
# 4 -0.0003 -0.0008 -0.0008 11.1172 -0.0001 -0.0002
# 5 0.0000 -0.0001 -0.0001 -0.0001 22.6912 -0.0001
# 6 0.0000 -0.0001 -0.0001 -0.0002 -0.0001 31.2864
#
#
#
# Elastic Compliance Matrix: (Units=1/GPa)
#
#
# Indices 1 2 3 4 5 6 
#
# 1 0.038191 -0.008202 -0.010271 0.000000 0.000000 0.000000
# 2 -0.008202 0.018953 -0.009425 0.000000 0.000000 0.000000
# 3 -0.010271 -0.009425 0.021410 0.000001 0.000000 0.000000
# 4 0.000000 0.000000 0.000001 0.089950 0.000000 0.000000
# 5 0.000000 0.000000 0.000000 0.000000 0.044070 0.000000
# 6 0.000000 0.000000 0.000000 0.000000 0.000000 0.031963
#
#
# Mechanical properties :
#
#
# Convention : Reuss Voigt Hill
#
# Bulk Modulus (GPa) = 43.93918 57.50475 50.72196
# Shear Modulus (GPa) = 16.23811 19.58594 17.91202
#
# Velocity S-wave (km/s) = 3.01846 3.31505 3.17023
# Velocity P-wave (km/s) = 6.06648 6.84970 6.46995
#
# Compressibility (1/GPa) = 0.02275873
#
# Stress axis : x y z
#
# Youngs Moduli (GPa) = 26.18426 52.76179 46.70820
#
# Poissons Ratio (x) = 0.43276 0.47972
# Poissons Ratio (y) = 0.21476 0.44021
# Poissons Ratio (z) = 0.26893 0.49726
#
# Static dielectric constant tensor:
#      x y z
#    x 1.613140 0.000000 0.000000 
#    y 0.000000 1.597420 0.000000 
#    z 0.000000 0.000000 1.610980 
# 
# From -- ./inp_files/9745.got.cif
#   From: 2010.05.17/outbox.cif.g08.bks.cpg/sg46_5_cif.got.tgz:9745.got - 2010.06.03 19:58:25.
