data_PCOD9378261
_publ_section_title
;
Structure prediction by ZEFSAII (Michael W. Deem and Ramdas Pophale) SiO2 
 PCOD9378261
Probable space group: I M A 2
;
_chemical_formula_sum "Si O2"
_cell_formula_units_Z 40
_cell_length_a 8.224444
_cell_length_b 11.567534
_cell_length_c 17.318970
_cell_angle_alpha 90.000000
_cell_angle_beta 90.000000
_cell_angle_gamma 90.000000
_cell_volume 1647.666806
_symmetry_space_group_name_H-M "I M A 2"
_symmetry_group_IT_number 46
_symmetry_cell_setting 'orthorhombic'
loop_
_space_group_symop_operation_xyz
x,y,z
-x,-y,z
1/2-x,y,z
1/2+x,-y,z
1/2+x,1/2+y,1/2+z
1/2-x,1/2-y,1/2+z
-x,1/2+y,1/2+z
x,1/2-y,1/2+z
loop_
_atom_site_type_symbol
_atom_site_label
_atom_site_fract_x
_atom_site_fract_y
_atom_site_fract_z
Si Si1 0.937909 0.334808 0.078280
Si Si2 0.066798 0.122260 0.733396
Si Si3 0.943906 0.869771 0.990797
Si Si4 0.066799 0.377741 0.748200
Si Si5 0.437909 0.665191 0.903316
O O1 0.750000 0.347916 0.102176
O O2 0.058630 0.387076 0.140196
O O3 0.955373 0.379650 0.990798
O O4 0.982925 0.199691 0.064080
O O5 0.250000 0.132871 0.762675
O O6 0.984706 0.250000 0.740798
O O7 0.000000 0.000000 0.763647
O O8 0.750000 0.858757 0.990796
O O9 0.017079 0.800309 0.917516
O O10 0.000000 0.000000 0.990797
O O11 0.250000 0.367129 0.718920
O O12 0.000000 0.500000 0.717950
O O13 0.058631 0.387076 0.841400
O O14 0.250000 0.652081 0.879419
#
# Coordination Sequence:
#
# PCOD9378261 Si02
#       5
#     8   8   8   8   8
#     4   9  20  38  61  92 125 163 209 263 323 382
#     4  11  25  44  67  96 130 174 221 270 329 391
#     4  10  18  32  55  86 125 166 209 260 316 380
#     4  11  25  44  67  96 130 174 221 270 329 391
#     4   9  20  38  61  92 125 163 209 263 323 382
#
# _framework density 24.276754
#
# number of rings (size 3 to 8) (size 9 to 14) (size 15 to 20)
#    1.200    0.800    0.000    3.600    0.000    5.600 
#    0.000    4.000    0.000    0.000    0.000    0.000 
#    0.000    0.000    0.000    0.000    0.000    0.000 
#
# Total GULP energy -111478.658523 kJ/mol
# GULP energy per Si atom -5573.932926 kJ/mol
# Density = 2.422150 g / cm^3
# Si number density = 24.276754 Si / 1000 Ang^3
#
#
#
# Elastic Constant Matrix: (Units=GPa)
#
#
# Indices 1 2 3 4 5 6 
#
# 1 67.8030 32.8351 -4.1796 0.0000 0.0000 0.0000
# 2 32.8351 222.8374 -7.4486 0.0000 0.0000 0.0000
# 3 -4.1796 -7.4486 27.2064 0.0000 0.0000 0.0000
# 4 0.0000 0.0000 0.0000 25.0434 0.0000 0.0000
# 5 0.0000 0.0000 0.0000 0.0000 18.0553 0.0000
# 6 0.0000 0.0000 0.0000 0.0000 0.0000 31.8309
#
#
#
# Elastic Compliance Matrix: (Units=1/GPa)
#
#
# Indices 1 2 3 4 5 6 
#
# 1 0.015971 -0.002292 0.001826 0.000000 0.000000 0.000000
# 2 -0.002292 0.004858 0.000978 0.000000 0.000000 0.000000
# 3 0.001826 0.000978 0.037304 0.000000 0.000000 0.000000
# 4 0.000000 0.000000 0.000000 0.039931 0.000000 0.000000
# 5 0.000000 0.000000 0.000000 0.000000 0.055385 0.000000
# 6 0.000000 0.000000 0.000000 0.000000 0.000000 0.031416
#
#
# Mechanical properties :
#
#
# Convention : Reuss Voigt Hill
#
# Bulk Modulus (GPa) = 16.90424 40.02894 28.46659
# Shear Modulus (GPa) = 24.56261 34.76193 29.66227
#
# Velocity S-wave (km/s) = 3.18429 3.78815 3.49927
# Velocity P-wave (km/s) = 4.52746 5.97142 5.29885
#
# Compressibility (1/GPa) = 0.05915677
#
# Stress axis : x y z
#
# Youngs Moduli (GPa) = 62.61239 205.84434 26.80653
#
# Poissons Ratio (x) = 0.47186 -0.04895
# Poissons Ratio (y) = 0.14353 -0.02621
# Poissons Ratio (z) = -0.11433 -0.20129
#
# Static dielectric constant tensor:
#      x y z
#    x 1.894500 0.000000 0.000000 
#    y 0.000000 2.077410 0.000000 
#    z 0.000000 0.000000 2.031770 
# 
# From -- ./inp_files/20833.got.cif
#   From: 2010.05.17/outbox.cif.g08.bks.cpg/sg46_11_cif.got.tgz:20833.got - 2010.06.03 19:58:25.
