data_PCOD9378617
_publ_section_title
;
Structure prediction by ZEFSAII (Michael W. Deem and Ramdas Pophale) SiO2 
 PCOD9378617
Probable space group: I M A 2
;
_chemical_formula_sum "Si O2"
_cell_formula_units_Z 64
_cell_length_a 8.683025
_cell_length_b 15.184865
_cell_length_c 27.947785
_cell_angle_alpha 90.000000
_cell_angle_beta 90.000000
_cell_angle_gamma 90.000000
_cell_volume 3684.931171
_symmetry_space_group_name_H-M "I M A 2"
_symmetry_group_IT_number 46
_symmetry_cell_setting 'orthorhombic'
loop_
_space_group_symop_operation_xyz
x,y,z
-x,-y,z
1/2-x,y,z
1/2+x,-y,z
1/2+x,1/2+y,1/2+z
1/2-x,1/2-y,1/2+z
-x,1/2+y,1/2+z
x,1/2-y,1/2+z
loop_
_atom_site_type_symbol
_atom_site_label
_atom_site_fract_x
_atom_site_fract_y
_atom_site_fract_z
Si Si1 0.934221 0.094840 0.606510
Si Si2 0.434958 0.404177 0.378616
Si Si3 0.565106 0.273671 0.300407
Si Si4 0.064592 0.404856 0.654769
Si Si5 0.934660 0.595465 0.765507
Si Si6 0.064615 0.905012 0.716951
Si Si7 0.935186 0.594793 0.489692
Si Si8 0.063848 0.227633 0.071830
O O1 0.750000 0.092161 0.605480
O O2 0.984385 0.110318 0.662007
O O3 0.995534 0.175466 0.575533
O O4 0.000000 0.000000 0.592071
O O5 0.500000 0.500000 0.364186
O O6 0.250000 0.405380 0.375017
O O7 0.503148 0.328672 0.345236
O O8 0.478989 0.390399 0.434332
O O9 0.750000 0.270862 0.301458
O O10 0.499057 0.175805 0.296256
O O11 0.515359 0.328808 0.253147
O O12 0.250000 0.409000 0.653415
O O13 0.017430 0.389098 0.709825
O O14 0.014786 0.328968 0.618403
O O15 0.000000 0.500000 0.640093
O O16 0.750000 0.593853 0.767433
O O17 0.000000 0.500000 0.779389
O O18 0.250000 0.909280 0.717826
O O19 0.000000 0.000000 0.732073
O O20 0.750000 0.589974 0.491711
O O21 0.984585 0.671928 0.525381
O O22 0.000000 0.500000 0.504862
O O23 0.250000 0.233219 0.072113
#
# Coordination Sequence:
#
# PCOD9378617 Si02
#       8
#     8   8   8   8   8   8   8   8
#     4  10  20  34  50  70  97 132 168 205 245 288
#     4  10  20  35  53  76 104 133 163 201 248 298
#     4  11  21  33  51  75 100 131 169 208 248 296
#     4   9  18  30  47  72 103 135 167 202 242 287
#     4  10  20  34  50  71 100 135 170 207 247 290
#     4   9  19  32  47  70 101 132 165 202 243 290
#     4   9  19  34  53  76 104 133 162 199 245 293
#     4  10  19  32  50  74 101 131 166 204 244 290
#
# _framework density 17.368031999999999
#
# number of rings (size 3 to 8) (size 9 to 14) (size 15 to 20)
#    0.000    2.250    0.000    3.000    0.000    4.500 
#    0.000    0.000    0.000    0.750    0.000    3.500 
#    0.000    0.000    0.000    0.000    0.000    0.000 
#
# Total GULP energy -178651.201028 kJ/mol
# GULP energy per Si atom -5582.850032 kJ/mol
# Density = 1.732850 g / cm^3
# Si number density = 17.368032 Si / 1000 Ang^3
#
#
#
# Elastic Constant Matrix: (Units=GPa)
#
#
# Indices 1 2 3 4 5 6 
#
# 1 31.2932 42.6075 28.7595 0.0000 0.0000 0.0000
# 2 42.6075 175.1623 83.4708 0.0000 0.0000 0.0000
# 3 28.7595 83.4708 72.4196 0.0000 0.0000 0.0000
# 4 0.0000 0.0000 0.0000 29.9609 0.0000 0.0000
# 5 0.0000 0.0000 0.0000 0.0000 17.3124 0.0000
# 6 0.0000 0.0000 0.0000 0.0000 0.0000 33.9677
#
#
#
# Elastic Compliance Matrix: (Units=1/GPa)
#
#
# Indices 1 2 3 4 5 6 
#
# 1 0.053365 -0.006394 -0.013823 0.000000 0.000000 0.000000
# 2 -0.006394 0.013432 -0.012942 0.000000 0.000000 0.000000
# 3 -0.013823 -0.012942 0.034215 0.000000 0.000000 0.000000
# 4 0.000000 0.000000 0.000000 0.033377 0.000000 0.000000
# 5 0.000000 0.000000 0.000000 0.000000 0.057762 0.000000
# 6 0.000000 0.000000 0.000000 0.000000 0.000000 0.029440
#
#
# Mechanical properties :
#
#
# Convention : Reuss Voigt Hill
#
# Bulk Modulus (GPa) = 28.82370 65.39452 47.10911
# Shear Modulus (GPa) = 16.69599 24.51737 20.60668
#
# Velocity S-wave (km/s) = 3.10386 3.76125 3.44826
# Velocity P-wave (km/s) = 5.42928 7.52308 6.56025
#
# Compressibility (1/GPa) = 0.03469368
#
# Stress axis : x y z
#
# Youngs Moduli (GPa) = 18.73886 74.45127 29.22680
#
# Poissons Ratio (x) = 0.47601 0.40401
# Poissons Ratio (y) = 0.11981 0.37826
# Poissons Ratio (z) = 0.25903 0.96357
#
# Static dielectric constant tensor:
#      x y z
#    x 1.583640 0.000000 0.000000 
#    y 0.000000 1.564850 0.000000 
#    z 0.000000 0.000000 1.597610 
# 
# From -- ./inp_files/23147.got.cif
#   From: 2010.05.17/outbox.cif.g08.bks.cpg/sg46_12_cif.got.tgz:23147.got - 2010.06.03 19:58:25.
