data_PCOD9378273
_publ_section_title
;
Structure prediction by ZEFSAII (Michael W. Deem and Ramdas Pophale) SiO2 
 PCOD9378273
Probable space group: I M A 2
;
_chemical_formula_sum "Si O2"
_cell_formula_units_Z 64
_cell_length_a 26.266640
_cell_length_b 19.984009
_cell_length_c 7.607961
_cell_angle_alpha 90.000000
_cell_angle_beta 90.000000
_cell_angle_gamma 90.000000
_cell_volume 3993.515884
_symmetry_space_group_name_H-M "I M A 2"
_symmetry_group_IT_number 46
_symmetry_cell_setting 'orthorhombic'
loop_
_space_group_symop_operation_xyz
x,y,z
-x,-y,z
1/2-x,y,z
1/2+x,-y,z
1/2+x,1/2+y,1/2+z
1/2-x,1/2-y,1/2+z
-x,1/2+y,1/2+z
x,1/2-y,1/2+z
loop_
_atom_site_type_symbol
_atom_site_label
_atom_site_fract_x
_atom_site_fract_y
_atom_site_fract_z
Si Si1 0.597122 0.439870 0.123150
Si Si2 0.807232 0.345678 0.158186
Si Si3 0.806807 0.306365 0.567628
Si Si4 0.441796 0.986419 0.995967
Si Si5 0.470863 0.733059 0.353560
Si Si6 0.554797 0.961647 0.354064
Si Si7 0.504759 0.649321 0.079789
Si Si8 0.913388 0.342557 0.619156
O O1 0.648542 0.397712 0.118035
O O2 0.588795 0.474986 0.314527
O O3 0.593145 0.494449 0.969770
O O4 0.549221 0.390121 0.086364
O O5 0.750000 0.183360 0.142967
O O6 0.806778 0.332084 0.367987
O O7 0.816800 0.273135 0.071739
O O8 0.750000 0.367519 0.108300
O O9 0.853989 0.341628 0.663198
O O10 0.435676 0.916398 0.102241
O O11 0.500000 0.000000 0.940482
O O12 0.429346 0.040900 0.148542
O O13 0.500313 0.778418 0.490739
O O14 0.422994 0.691879 0.429893
O O15 0.444955 0.792089 0.239426
O O16 0.508501 0.675525 0.279645
O O17 0.543146 0.895367 0.468221
O O18 0.500000 0.000000 0.351328
#
# Coordination Sequence:
#
# PCOD9378273 Si02
#       8
#     8   8   8   8   8   8   8   8
#     4  11  19  32  49  64  92 126 162 204 240 280
#     4  10  20  33  46  66  91 122 167 210 249 289
#     4  10  19  30  43  60  88 120 156 207 249 278
#     4  11  20  31  47  66  86 122 162 204 239 288
#     4  10  19  26  46  61  91 116 149 197 243 278
#     4   9  20  32  46  65  91 119 159 200 230 285
#     4  10  18  33  43  70  90 121 158 195 236 294
#     4  11  18  29  42  64  84 118 161 199 238 288
#
# _framework density 16.025977999999999
#
# number of rings (size 3 to 8) (size 9 to 14) (size 15 to 20)
#    0.000    1.750    2.500    5.625    0.000    1.000 
#    0.000    0.000    0.000    0.000    0.000    0.000 
#    0.000    0.000    0.000    1.125    0.250    1.375 
#
# Total GULP energy -178151.027619 kJ/mol
# GULP energy per Si atom -5567.219613 kJ/mol
# Density = 1.598950 g / cm^3
# Si number density = 16.025978 Si / 1000 Ang^3
#
#
#
# Elastic Constant Matrix: (Units=GPa)
#
#
# Indices 1 2 3 4 5 6 
#
# 1 68.9913 29.0946 9.4259 0.0000 0.0000 0.0000
# 2 29.0946 36.1313 4.3470 0.0000 0.0000 0.0000
# 3 9.4259 4.3470 43.9097 0.0000 0.0000 0.0000
# 4 0.0000 0.0000 0.0000 28.8918 0.0000 0.0000
# 5 0.0000 0.0000 0.0000 0.0000 8.9258 0.0000
# 6 0.0000 0.0000 0.0000 0.0000 0.0000 10.3976
#
#
#
# Elastic Compliance Matrix: (Units=1/GPa)
#
#
# Indices 1 2 3 4 5 6 
#
# 1 0.022345 -0.017626 -0.003052 0.000000 0.000000 0.000000
# 2 -0.017626 0.041914 -0.000366 0.000000 0.000000 0.000000
# 3 -0.003052 -0.000366 0.023465 0.000000 0.000000 0.000000
# 4 0.000000 0.000000 0.000000 0.034612 0.000000 0.000000
# 5 0.000000 0.000000 0.000000 0.000000 0.112034 0.000000
# 6 0.000000 0.000000 0.000000 0.000000 0.000000 0.096176
#
#
# Mechanical properties :
#
#
# Convention : Reuss Voigt Hill
#
# Bulk Modulus (GPa) = 21.91184 26.08523 23.99854
# Shear Modulus (GPa) = 12.89175 16.72069 14.80622
#
# Velocity S-wave (km/s) = 2.83932 3.23360 3.04285
# Velocity P-wave (km/s) = 4.94483 5.50034 5.22997
#
# Compressibility (1/GPa) = 0.04563743
#
# Stress axis : x y z
#
# Youngs Moduli (GPa) = 44.75368 23.85842 42.61605
#
# Poissons Ratio (x) = 0.42052 0.13005
# Poissons Ratio (y) = 0.78882 0.01559
# Poissons Ratio (z) = 0.13657 0.00873
#
# Static dielectric constant tensor:
#      x y z
#    x 1.530490 0.000000 0.000000 
#    y 0.000000 1.535000 0.000000 
#    z 0.000000 0.000000 1.723300 
# 
# From -- ./inp_files/7623.got.cif
#   From: 2010.05.17/outbox.cif.g08.bks.cpg/sg46_4_cif.got.tgz:7623.got - 2010.06.03 19:58:25.
