data_PCOD9378897
_publ_section_title
;
Structure prediction by ZEFSAII (Michael W. Deem and Ramdas Pophale) SiO2 
 PCOD9378897
Probable space group: I M A 2
;
_chemical_formula_sum "Si O2"
_cell_formula_units_Z 64
_cell_length_a 8.592447
_cell_length_b 29.770410
_cell_length_c 13.321068
_cell_angle_alpha 90.000000
_cell_angle_beta 90.000000
_cell_angle_gamma 90.000000
_cell_volume 3407.538121
_symmetry_space_group_name_H-M "I M A 2"
_symmetry_group_IT_number 46
_symmetry_cell_setting 'orthorhombic'
loop_
_space_group_symop_operation_xyz
x,y,z
-x,-y,z
1/2-x,y,z
1/2+x,-y,z
1/2+x,1/2+y,1/2+z
1/2-x,1/2-y,1/2+z
-x,1/2+y,1/2+z
x,1/2-y,1/2+z
loop_
_atom_site_type_symbol
_atom_site_label
_atom_site_fract_x
_atom_site_fract_y
_atom_site_fract_z
Si Si1 0.561111 0.857060 0.433320
Si Si2 0.437334 0.449295 0.554731
Si Si3 0.937424 0.379500 0.715906
Si Si4 0.569788 0.297982 0.579446
Si Si5 0.938307 0.550648 0.328101
Si Si6 0.569112 0.746040 0.917503
Si Si7 0.432592 0.219261 0.695534
Si Si8 0.561407 0.617727 0.154081
O O1 0.750000 0.856757 0.430803
O O2 0.502193 0.878269 0.329128
O O3 0.507364 0.804582 0.437022
O O4 0.511825 0.881942 0.536676
O O5 0.500000 0.500000 0.562227
O O6 0.250000 0.448771 0.561858
O O7 0.507886 0.419959 0.644564
O O8 0.481152 0.432945 0.441289
O O9 0.750000 0.378848 0.721938
O O10 0.995099 0.335044 0.655425
O O11 0.750000 0.307518 0.568622
O O12 0.496063 0.290381 0.471656
O O13 0.537923 0.248756 0.623650
O O14 0.750000 0.549809 0.325637
O O15 0.994412 0.581072 0.234818
O O16 0.000000 0.500000 0.317994
O O17 0.750000 0.744101 0.944038
O O18 0.553308 0.756600 0.801244
O O19 0.250000 0.221588 0.665161
O O20 0.476300 0.167342 0.695032
O O21 0.750000 0.614008 0.152277
#
# Coordination Sequence:
#
# PCOD9378897 Si02
#       8
#     8   8   8   8   8   8   8   8
#     4  10  19  35  58  81 109 149 193 237 281 327
#     4  10  21  39  65  90 114 144 182 230 287 343
#     4  11  24  39  55  81 118 155 193 234 279 337
#     4  11  23  35  50  76 115 154 187 232 285 336
#     4   9  19  37  61  87 114 142 175 224 282 339
#     4  10  20  33  54  78 106 147 195 240 279 334
#     4  10  19  34  55  78 106 143 192 238 275 330
#     4   9  18  34  56  83 111 142 184 233 282 330
#
# _framework density 18.781889
#
# number of rings (size 3 to 8) (size 9 to 14) (size 15 to 20)
#    0.000    2.000    2.500    1.125    1.750    3.000 
#    0.000    1.875    0.000    1.500    0.000    0.000 
#    0.000    0.000    0.000    0.000    0.000    0.000 
#
# Total GULP energy -178310.487856 kJ/mol
# GULP energy per Si atom -5572.202746 kJ/mol
# Density = 1.873914 g / cm^3
# Si number density = 18.781889 Si / 1000 Ang^3
#
#
#
# Elastic Constant Matrix: (Units=GPa)
#
#
# Indices 1 2 3 4 5 6 
#
# 1 12.9190 5.1964 20.6075 0.0000 0.0000 0.0000
# 2 5.1964 77.0808 64.8213 0.0000 0.0000 0.0000
# 3 20.6075 64.8213 144.9159 0.0001 0.0003 0.0001
# 4 0.0000 0.0000 0.0001 41.7970 0.0001 0.0000
# 5 0.0000 0.0000 0.0003 0.0001 17.9439 0.0000
# 6 0.0000 0.0000 0.0001 0.0000 0.0000 20.8914
#
#
#
# Elastic Compliance Matrix: (Units=1/GPa)
#
#
# Indices 1 2 3 4 5 6 
#
# 1 0.103603 0.008664 -0.018608 0.000000 0.000000 0.000000
# 2 0.008664 0.021521 -0.010858 0.000000 0.000000 0.000000
# 3 -0.018608 -0.010858 0.014404 0.000000 0.000000 0.000000
# 4 0.000000 0.000000 0.000000 0.023925 0.000000 0.000000
# 5 0.000000 0.000000 0.000000 0.000000 0.055729 0.000000
# 6 0.000000 0.000000 0.000000 0.000000 0.000000 0.047866
#
#
# Mechanical properties :
#
#
# Convention : Reuss Voigt Hill
#
# Bulk Modulus (GPa) = 10.21217 46.24067 28.22642
# Shear Modulus (GPa) = 14.65017 25.74585 20.19801
#
# Velocity S-wave (km/s) = 2.79591 3.70642 3.28288
# Velocity P-wave (km/s) = 3.98395 6.55668 5.42503
#
# Compressibility (1/GPa) = 0.09792239
#
# Stress axis : x y z
#
# Youngs Moduli (GPa) = 9.65226 46.46710 69.42698
#
# Poissons Ratio (x) = -0.40260 1.29190
# Poissons Ratio (y) = -0.08363 0.75386
# Poissons Ratio (z) = 0.17961 0.50455
#
# Static dielectric constant tensor:
#      x y z
#    x 1.644310 0.000000 0.000000 
#    y 0.000000 1.636170 0.000000 
#    z 0.000000 0.000000 1.723120 
# 
# From -- ./inp_files/9691.got.cif
#   From: 2010.05.17/outbox.cif.g08.bks.cpg/sg46_5_cif.got.tgz:9691.got - 2010.06.03 19:58:25.
