data_PCOD9378013
_publ_section_title
;
Structure prediction by ZEFSAII (Michael W. Deem and Ramdas Pophale) SiO2 
 PCOD9378013
Probable space group: I M A 2
;
_chemical_formula_sum "Si O2"
_cell_formula_units_Z 48
_cell_length_a 11.191086
_cell_length_b 19.347236
_cell_length_c 9.027810
_cell_angle_alpha 90.000000
_cell_angle_beta 90.000000
_cell_angle_gamma 90.000000
_cell_volume 1954.670564
_symmetry_space_group_name_H-M "I M A 2"
_symmetry_group_IT_number 46
_symmetry_cell_setting 'orthorhombic'
loop_
_space_group_symop_operation_xyz
x,y,z
-x,-y,z
1/2-x,y,z
1/2+x,-y,z
1/2+x,1/2+y,1/2+z
1/2-x,1/2-y,1/2+z
-x,1/2+y,1/2+z
x,1/2-y,1/2+z
loop_
_atom_site_type_symbol
_atom_site_label
_atom_site_fract_x
_atom_site_fract_y
_atom_site_fract_z
Si Si1 0.116616 0.260134 0.345470
Si Si2 0.000000 0.000000 0.463303
Si Si3 0.884837 0.907189 0.706420
Si Si4 0.250000 0.616185 0.278238
Si Si5 0.533468 0.204711 0.117182
Si Si6 0.250000 0.734317 0.944633
Si Si7 0.038324 0.934081 0.978239
Si Si8 0.250000 0.577207 0.929126
O O1 0.250000 0.231410 0.344356
O O2 0.109095 0.324971 0.232075
O O3 0.012057 0.213261 0.282195
O O4 0.080347 0.285498 0.507270
O O5 0.127329 0.967929 0.397878
O O6 0.960191 0.937559 0.573221
O O7 0.750000 0.927476 0.676893
O O8 0.923378 0.932670 0.868909
O O9 0.250000 0.697200 0.335023
O O10 0.362048 0.579049 0.353944
O O11 0.250000 0.598281 0.105390
O O12 0.635499 0.253828 0.052020
O O13 0.568473 0.126694 0.088629
O O14 0.250000 0.658139 0.868991
O O15 0.000000 0.000000 0.071629
#
# Coordination Sequence:
#
# PCOD9378013 Si02
#       8
#     8   4   8   4   8   4   8   4
#     4  10  21  38  58  86 125 159 208 258 318 390
#     4  12  20  30  54  86 120 162 196 272 328 390
#     4  10  18  28  47  80 114 152 186 246 321 372
#     4  10  20  34  52  84 117 160 212 260 325 386
#     4  10  22  37  59  90 118 167 210 258 322 382
#     4  10  24  36  58  86 126 172 210 266 313 401
#     4  10  19  31  50  81 116 150 196 259 312 374
#     4  12  22  36  60  92 129 160 218 262 348 399
#
# _framework density 24.556567999999999
#
# number of rings (size 3 to 8) (size 9 to 14) (size 15 to 20)
#    0.000    1.667    3.333    1.500    5.833    0.667 
#    0.000    0.000    0.000    0.000    8.667    0.000 
#    0.000    0.000    0.000    0.000    0.000    0.000 
#
# Total GULP energy -133831.552401 kJ/mol
# GULP energy per Si atom -5576.314683 kJ/mol
# Density = 2.450068 g / cm^3
# Si number density = 24.556568 Si / 1000 Ang^3
#
#
#
# Elastic Constant Matrix: (Units=GPa)
#
#
# Indices 1 2 3 4 5 6 
#
# 1 127.6304 24.5961 16.7577 0.0000 0.0000 0.0000
# 2 24.5961 91.4602 13.2585 0.0001 0.0000 0.0000
# 3 16.7577 13.2585 50.2334 0.0002 -0.0002 0.0000
# 4 0.0000 0.0001 0.0002 -7.0942 -0.0001 -0.0001
# 5 0.0000 0.0000 -0.0002 -0.0001 22.0193 0.0000
# 6 0.0000 0.0000 0.0000 -0.0001 0.0000 30.7189
#
#
#
# Elastic Compliance Matrix: (Units=1/GPa)
#
#
# Indices 1 2 3 4 5 6 
#
# 1 0.008517 -0.001953 -0.002326 0.000000 0.000000 0.000000
# 2 -0.001953 0.011817 -0.002467 0.000000 0.000000 0.000000
# 3 -0.002326 -0.002467 0.021334 0.000001 0.000000 0.000000
# 4 0.000000 0.000000 0.000001 -0.140960 -0.000001 0.000000
# 5 0.000000 0.000000 0.000000 -0.000001 0.045415 0.000000
# 6 0.000000 0.000000 0.000000 0.000000 0.000000 0.032553
#
#
# Mechanical properties :
#
#
# Convention : Reuss Voigt Hill
#
# Bulk Modulus (GPa) = 35.49210 42.06095 38.77653
# Shear Modulus (GPa) = 3205.10410 23.44292 1614.27351
#
# Velocity S-wave (km/s) = 36.16664 3.09309 25.66703
# Velocity P-wave (km/s) = 41.93470 5.47007 29.90352
#
# Compressibility (1/GPa) = 0.02817528
#
# Stress axis : x y z
#
# Youngs Moduli (GPa) = 117.41359 84.62620 46.87330
#
# Poissons Ratio (x) = 0.16530 0.10901
# Poissons Ratio (y) = 0.22934 0.11565
# Poissons Ratio (z) = 0.27306 0.20879
#
# Static dielectric constant tensor:
#      x y z
#    x 1.923630 0.000000 0.000000 
#    y 0.000000 2.338090 0.000000 
#    z 0.000000 0.000000 1.984020 
# 
# From -- ./inp_files/10311.got.cif
#   From: 2010.05.17/outbox.cif.g08.bks.cpg/sg46_6_cif.got.tgz:10311.got - 2010.06.03 19:58:25.
