data_PCOD9378898
_publ_section_title
;
Structure prediction by ZEFSAII (Michael W. Deem and Ramdas Pophale) SiO2 
 PCOD9378898
Probable space group: I M A 2
;
_chemical_formula_sum "Si O2"
_cell_formula_units_Z 64
_cell_length_a 16.586846
_cell_length_b 8.626402
_cell_length_c 24.017071
_cell_angle_alpha 90.000000
_cell_angle_beta 90.000000
_cell_angle_gamma 90.000000
_cell_volume 3436.477837
_symmetry_space_group_name_H-M "I M A 2"
_symmetry_group_IT_number 46
_symmetry_cell_setting 'orthorhombic'
loop_
_space_group_symop_operation_xyz
x,y,z
-x,-y,z
1/2-x,y,z
1/2+x,-y,z
1/2+x,1/2+y,1/2+z
1/2-x,1/2-y,1/2+z
-x,1/2+y,1/2+z
x,1/2-y,1/2+z
loop_
_atom_site_type_symbol
_atom_site_label
_atom_site_fract_x
_atom_site_fract_y
_atom_site_fract_z
Si Si1 0.423108 0.208795 0.996910
Si Si2 0.658834 0.789050 0.795806
Si Si3 0.481603 0.815647 0.103531
Si Si4 0.995934 0.814153 0.229548
Si Si5 0.414946 0.777533 0.427652
Si Si6 0.417932 0.600238 0.314353
Si Si7 0.842213 0.380485 0.525950
Si Si8 0.342738 0.099363 0.409002
O O1 0.499620 0.229808 0.955442
O O2 0.355436 0.309475 0.966773
O O3 0.457639 0.255735 0.057572
O O4 0.389375 0.035114 0.004983
O O5 0.750000 0.746221 0.780608
O O6 0.591608 0.731661 0.752971
O O7 0.641014 0.712631 0.856454
O O8 0.649065 0.974213 0.799538
O O9 0.491758 0.758567 0.166096
O O10 0.392418 0.809600 0.077326
O O11 0.500000 0.000000 0.105492
O O12 0.061754 0.731140 0.268864
O O13 0.000000 0.000000 0.232098
O O14 0.400887 0.676874 0.373204
O O15 0.350180 0.738394 0.475109
O O16 0.403608 0.955420 0.410457
O O17 0.500000 0.500000 0.319188
O O18 0.750000 0.415931 0.539249
O O19 0.250000 0.046987 0.403545
#
# Coordination Sequence:
#
# PCOD9378898 Si02
#       8
#     8   8   8   8   8   8   8   8
#     4  10  19  34  55  78 106 145 185 219 266 331
#     4  10  22  38  55  79 112 147 185 231 281 334
#     4   8  18  35  56  80 104 139 185 223 263 325
#     4  10  19  38  61  81 107 142 187 234 278 328
#     4  11  20  33  53  81 110 143 183 224 272 329
#     4  10  20  34  56  80 106 145 187 222 270 336
#     4  10  19  34  56  81 112 143 177 225 276 328
#     4  11  22  34  51  80 115 146 181 230 284 327
#
# _framework density 18.623719000000001
#
# number of rings (size 3 to 8) (size 9 to 14) (size 15 to 20)
#    0.000    2.000    0.000    6.000    0.000    2.000 
#    0.000   15.000    0.000    0.000    0.000    0.000 
#    0.000    0.000    0.000    0.000    0.000    0.000 
#
# Total GULP energy -178473.997433 kJ/mol
# GULP energy per Si atom -5577.312420 kJ/mol
# Density = 1.858133 g / cm^3
# Si number density = 18.623719 Si / 1000 Ang^3
#
#
#
# Elastic Constant Matrix: (Units=GPa)
#
#
# Indices 1 2 3 4 5 6 
#
# 1 97.9313 20.7771 50.2166 0.0000 0.0000 0.0000
# 2 20.7771 67.2467 36.0794 0.0000 0.0000 0.0000
# 3 50.2166 36.0794 142.2133 0.0000 0.0000 0.0000
# 4 0.0000 0.0000 0.0000 23.3787 0.0000 0.0000
# 5 0.0000 0.0000 0.0000 0.0000 10.9012 0.0000
# 6 0.0000 0.0000 0.0000 0.0000 0.0000 23.2860
#
#
#
# Elastic Compliance Matrix: (Units=1/GPa)
#
#
# Indices 1 2 3 4 5 6 
#
# 1 0.012644 -0.001749 -0.004021 0.000000 0.000000 0.000000
# 2 -0.001749 0.017456 -0.003811 0.000000 0.000000 0.000000
# 3 -0.004021 -0.003811 0.009418 0.000000 0.000000 0.000000
# 4 0.000000 0.000000 0.000000 0.042774 0.000000 0.000000
# 5 0.000000 0.000000 0.000000 0.000000 0.091733 0.000000
# 6 0.000000 0.000000 0.000000 0.000000 0.000000 0.042944
#
#
# Mechanical properties :
#
#
# Convention : Reuss Voigt Hill
#
# Bulk Modulus (GPa) = 49.12543 57.94859 53.53701
# Shear Modulus (GPa) = 20.58320 24.86775 22.72548
#
# Velocity S-wave (km/s) = 3.32808 3.65810 3.49699
# Velocity P-wave (km/s) = 6.41898 7.00181 6.71672
#
# Compressibility (1/GPa) = 0.02035606
#
# Stress axis : x y z
#
# Youngs Moduli (GPa) = 79.08756 57.28799 106.17609
#
# Poissons Ratio (x) = 0.10021 0.42693
# Poissons Ratio (y) = 0.13835 0.40461
# Poissons Ratio (z) = 0.31801 0.21831
#
# Static dielectric constant tensor:
#      x y z
#    x 1.675410 0.000000 0.000000 
#    y 0.000000 1.675530 0.000000 
#    z 0.000000 0.000000 1.630680 
# 
# From -- ./inp_files/23799.got.cif
#   From: 2010.05.17/outbox.cif.g08.bks.cpg/sg46_12_cif.got.tgz:23799.got - 2010.06.03 19:58:25.
