data_PCOD9378010
_publ_section_title
;
Structure prediction by ZEFSAII (Michael W. Deem and Ramdas Pophale) SiO2 
 PCOD9378010
Probable space group: I M A 2
;
_chemical_formula_sum "Si O2"
_cell_formula_units_Z 64
_cell_length_a 8.951255
_cell_length_b 21.049537
_cell_length_c 17.019205
_cell_angle_alpha 90.000000
_cell_angle_beta 90.000000
_cell_angle_gamma 90.000000
_cell_volume 3206.754748
_symmetry_space_group_name_H-M "I M A 2"
_symmetry_group_IT_number 46
_symmetry_cell_setting 'orthorhombic'
loop_
_space_group_symop_operation_xyz
x,y,z
-x,-y,z
1/2-x,y,z
1/2+x,-y,z
1/2+x,1/2+y,1/2+z
1/2-x,1/2-y,1/2+z
-x,1/2+y,1/2+z
x,1/2-y,1/2+z
loop_
_atom_site_type_symbol
_atom_site_label
_atom_site_fract_x
_atom_site_fract_y
_atom_site_fract_z
Si Si1 0.419004 0.171319 0.682010
Si Si2 0.427151 0.132608 0.987344
Si Si3 0.427190 0.569123 0.635719
Si Si4 0.930181 0.928465 0.815902
Si Si5 0.077186 0.756533 0.546589
Si Si6 0.083909 0.447114 0.068105
Si Si7 0.926930 0.570367 0.791227
Si Si8 0.419107 0.619448 0.936226
O O1 0.250000 0.194756 0.700865
O O2 0.478395 0.128704 0.755542
O O3 0.514288 0.223672 0.633321
O O4 0.405069 0.116741 0.616511
O O5 0.250000 0.125890 0.001606
O O6 0.458104 0.100475 0.902945
O O7 0.522258 0.098929 0.054673
O O8 0.476449 0.205204 0.001293
O O9 0.500000 0.500000 0.636124
O O10 0.750000 0.433274 0.643501
O O11 0.501264 0.599821 0.712612
O O12 0.750000 0.934938 0.804240
O O13 0.000000 0.000000 0.808717
O O14 0.250000 0.735106 0.554933
O O15 0.077724 0.817281 0.488624
O O16 0.250000 0.465963 0.045330
O O17 0.000000 0.500000 0.118897
O O18 0.976405 0.434119 0.995561
O O19 0.750000 0.562805 0.783323
O O20 0.000000 0.500000 0.804535
O O21 0.970629 0.615402 0.863232
O O22 0.250000 0.608049 0.909328
#
# Coordination Sequence:
#
# PCOD9378010 Si02
#       8
#     8   8   8   8   8   8   8   8
#     4   9  19  37  58  83 118 157 197 246 300 361
#     4  11  23  41  63  88 119 159 203 249 303 363
#     4  11  22  39  62  88 118 150 191 241 297 355
#     4  10  22  39  63  95 127 161 202 253 312 369
#     4  10  22  40  61  85 116 159 207 252 300 356
#     4  10  18  28  47  75 108 148 191 237 292 352
#     4  11  21  35  56  84 117 152 193 240 296 351
#     4  10  20  35  53  76 111 152 196 244 293 349
#
# _framework density 19.957871000000001
#
# number of rings (size 3 to 8) (size 9 to 14) (size 15 to 20)
#    0.000    1.750    0.000    5.625    0.000    4.500 
#    2.250    0.000    0.000    0.000    0.000    0.000 
#    0.000    0.000    0.000    0.000    0.000    0.000 
#
# Total GULP energy -178334.605342 kJ/mol
# GULP energy per Si atom -5572.956417 kJ/mol
# Density = 1.991245 g / cm^3
# Si number density = 19.957871 Si / 1000 Ang^3
#
#
#
# Elastic Constant Matrix: (Units=GPa)
#
#
# Indices 1 2 3 4 5 6 
#
# 1 129.3236 21.4881 44.1135 0.0000 0.0000 0.0000
# 2 21.4881 43.8118 19.6740 0.0000 0.0000 0.0000
# 3 44.1135 19.6740 111.9892 0.0000 0.0000 0.0000
# 4 0.0000 0.0000 0.0000 38.9269 0.0000 0.0000
# 5 0.0000 0.0000 0.0000 0.0000 27.4635 0.0000
# 6 0.0000 0.0000 0.0000 0.0000 0.0000 27.8513
#
#
#
# Elastic Compliance Matrix: (Units=1/GPa)
#
#
# Indices 1 2 3 4 5 6 
#
# 1 0.009322 -0.003174 -0.003115 0.000000 0.000000 0.000000
# 2 -0.003174 0.025860 -0.003293 0.000000 0.000000 0.000000
# 3 -0.003115 -0.003293 0.010735 0.000000 0.000000 0.000000
# 4 0.000000 0.000000 0.000000 0.025689 0.000000 0.000000
# 5 0.000000 0.000000 0.000000 0.000000 0.036412 0.000000
# 6 0.000000 0.000000 0.000000 0.000000 0.000000 0.035905
#
#
# Mechanical properties :
#
#
# Convention : Reuss Voigt Hill
#
# Bulk Modulus (GPa) = 37.37627 50.63066 44.00347
# Shear Modulus (GPa) = 29.06909 32.17160 30.62035
#
# Velocity S-wave (km/s) = 3.82058 4.01930 3.92120
# Velocity P-wave (km/s) = 6.18310 6.85299 6.52665
#
# Compressibility (1/GPa) = 0.02675494
#
# Stress axis : x y z
#
# Youngs Moduli (GPa) = 107.26991 38.66952 93.15510
#
# Poissons Ratio (x) = 0.12272 0.29014
# Poissons Ratio (y) = 0.34043 0.30675
# Poissons Ratio (z) = 0.33410 0.12734
#
# Static dielectric constant tensor:
#      x y z
#    x 1.704120 0.000000 0.000000 
#    y 0.000000 1.693420 0.000000 
#    z 0.000000 0.000000 1.748050 
# 
# From -- ./inp_files/18536.got.cif
#   From: 2010.05.17/outbox.cif.g08.bks.cpg/sg46_10_cif.got.tgz:18536.got - 2010.06.03 19:58:25.
