data_PCOD9378859
_publ_section_title
;
Structure prediction by ZEFSAII (Michael W. Deem and Ramdas Pophale) SiO2 
 PCOD9378859
Probable space group: I M A 2
;
_chemical_formula_sum "Si O2"
_cell_formula_units_Z 64
_cell_length_a 19.687094
_cell_length_b 9.823473
_cell_length_c 14.894812
_cell_angle_alpha 90.000000
_cell_angle_beta 90.000000
_cell_angle_gamma 90.000000
_cell_volume 2880.591645
_symmetry_space_group_name_H-M "I M A 2"
_symmetry_group_IT_number 46
_symmetry_cell_setting 'orthorhombic'
loop_
_space_group_symop_operation_xyz
x,y,z
-x,-y,z
1/2-x,y,z
1/2+x,-y,z
1/2+x,1/2+y,1/2+z
1/2-x,1/2-y,1/2+z
-x,1/2+y,1/2+z
x,1/2-y,1/2+z
loop_
_atom_site_type_symbol
_atom_site_label
_atom_site_fract_x
_atom_site_fract_y
_atom_site_fract_z
Si Si1 0.673747 0.897149 0.267140
Si Si2 0.326197 0.131808 0.675120
Si Si3 0.073123 0.850971 0.277310
Si Si4 0.943932 0.112467 0.076773
Si Si5 0.829574 0.097272 0.802652
Si Si6 0.668702 0.560113 0.492057
Si Si7 0.049290 0.891324 0.467733
Si Si8 0.649845 0.862777 0.469750
O O1 0.750000 0.936360 0.236302
O O2 0.644518 0.775115 0.206379
O O3 0.680437 0.848911 0.370482
O O4 0.620760 0.017918 0.267117
O O5 0.250000 0.138632 0.714459
O O6 0.320819 0.117062 0.569398
O O7 0.356364 0.001500 0.723733
O O8 0.041171 0.841202 0.179009
O O9 0.123291 0.727975 0.301316
O O10 0.025344 0.862495 0.365019
O O11 0.944043 0.249701 0.017777
O O12 0.000000 0.000000 0.050074
O O13 0.870927 0.037999 0.061290
O O14 0.750000 0.134210 0.787684
O O15 0.833679 0.016893 0.896461
O O16 0.750000 0.585410 0.511933
O O17 0.628188 0.703549 0.483848
O O18 0.113888 0.989462 0.459713
O O19 0.000000 0.000000 0.515225
#
# Coordination Sequence:
#
# PCOD9378859 Si02
#       8
#     8   8   8   8   8   8   8   8
#     4  10  20  34  56  89 129 172 215 268 332 395
#     4  10  19  33  56  89 127 169 213 263 327 401
#     4  11  23  41  65  93 129 170 226 276 338 408
#     4  12  26  47  73 100 135 184 234 290 355 426
#     4  10  20  37  61  94 139 179 219 276 341 406
#     4  11  22  41  68 102 139 183 231 283 351 426
#     4  11  25  46  66  93 130 175 229 288 345 409
#     4  11  21  37  63  92 131 175 221 277 338 409
#
# _framework density 22.217656999999999
#
# number of rings (size 3 to 8) (size 9 to 14) (size 15 to 20)
#    0.000    1.250    2.500    4.125    0.000    2.000 
#    0.000    1.875    0.000    0.000    0.000    0.000 
#    0.000    0.000    0.000    0.000    0.000    0.000 
#
# Total GULP energy -178253.052992 kJ/mol
# GULP energy per Si atom -5570.407906 kJ/mol
# Density = 2.216709 g / cm^3
# Si number density = 22.217657 Si / 1000 Ang^3
#
#
#
# Elastic Constant Matrix: (Units=GPa)
#
#
# Indices 1 2 3 4 5 6 
#
# 1 27.2687 24.9007 9.7851 0.0000 0.0000 0.0000
# 2 24.9007 135.3327 35.4812 0.0000 0.0000 0.0000
# 3 9.7851 35.4812 128.6975 0.0000 0.0000 0.0000
# 4 0.0000 0.0000 0.0000 41.2597 0.0000 0.0000
# 5 0.0000 0.0000 0.0000 0.0000 -7.0434 0.0000
# 6 0.0000 0.0000 0.0000 0.0000 0.0000 16.7444
#
#
#
# Elastic Compliance Matrix: (Units=1/GPa)
#
#
# Indices 1 2 3 4 5 6 
#
# 1 0.044251 -0.007826 -0.001207 0.000000 0.000000 0.000000
# 2 -0.007826 0.009349 -0.001982 0.000000 0.000000 0.000000
# 3 -0.001207 -0.001982 0.008408 0.000000 0.000000 0.000000
# 4 0.000000 0.000000 0.000000 0.024237 0.000000 0.000000
# 5 0.000000 0.000000 0.000000 0.000000 -0.141978 0.000000
# 6 0.000000 0.000000 0.000000 0.000000 0.000000 0.059721
#
#
# Mechanical properties :
#
#
# Convention : Reuss Voigt Hill
#
# Bulk Modulus (GPa) = 25.01347 47.95920 36.48634
# Shear Modulus (GPa) = 127.08003 24.93427 76.00715
#
# Velocity S-wave (km/s) = 7.57113 3.35367 5.85530
# Velocity P-wave (km/s) = 9.36547 6.05219 7.88483
#
# Compressibility (1/GPa) = 0.03997846
#
# Stress axis : x y z
#
# Youngs Moduli (GPa) = 22.59820 106.96519 118.92766
#
# Poissons Ratio (x) = 0.83707 0.14355
# Poissons Ratio (y) = 0.17685 0.23576
# Poissons Ratio (z) = 0.02728 0.21205
#
# Static dielectric constant tensor:
#      x y z
#    x 1.923420 0.000000 0.000000 
#    y 0.000000 1.772270 0.000000 
#    z 0.000000 0.000000 1.831470 
# 
# From -- ./inp_files/17395.got.cif
#   From: 2010.05.17/outbox.cif.g08.bks.cpg/sg46_9_cif.got.tgz:17395.got - 2010.06.03 19:58:25.
