data_PCOD9378749
_publ_section_title
;
Structure prediction by ZEFSAII (Michael W. Deem and Ramdas Pophale) SiO2 
 PCOD9378749
Probable space group: I M A 2
;
_chemical_formula_sum "Si O2"
_cell_formula_units_Z 64
_cell_length_a 15.273174
_cell_length_b 24.063848
_cell_length_c 9.527882
_cell_angle_alpha 90.000000
_cell_angle_beta 90.000000
_cell_angle_gamma 90.000000
_cell_volume 3501.795216
_symmetry_space_group_name_H-M "I M A 2"
_symmetry_group_IT_number 46
_symmetry_cell_setting 'orthorhombic'
loop_
_space_group_symop_operation_xyz
x,y,z
-x,-y,z
1/2-x,y,z
1/2+x,-y,z
1/2+x,1/2+y,1/2+z
1/2-x,1/2-y,1/2+z
-x,1/2+y,1/2+z
x,1/2-y,1/2+z
loop_
_atom_site_type_symbol
_atom_site_label
_atom_site_fract_x
_atom_site_fract_y
_atom_site_fract_z
Si Si1 0.144050 0.552924 0.774510
Si Si2 0.512969 0.681758 0.262232
Si Si3 0.451974 0.755643 0.030942
Si Si4 0.601648 0.005372 0.560582
Si Si5 0.150578 0.893211 0.745462
Si Si6 0.856220 0.484056 0.472766
Si Si7 0.355629 0.816458 0.289677
Si Si8 0.649544 0.916857 0.776011
O O1 0.250000 0.552030 0.775086
O O2 0.112510 0.528137 0.627492
O O3 0.119664 0.617925 0.792862
O O4 0.111090 0.512862 0.896371
O O5 0.520376 0.724773 0.134097
O O6 0.503095 0.707194 0.417037
O O7 0.418242 0.654902 0.229488
O O8 0.586680 0.635116 0.260700
O O9 0.391873 0.789524 0.143560
O O10 0.396241 0.715150 0.925863
O O11 0.647745 0.953672 0.634251
O O12 0.500000 0.000000 0.600220
O O13 0.642620 0.061966 0.621898
O O14 0.250000 0.873265 0.758217
O O15 0.124561 0.929990 0.879807
O O16 0.750000 0.487831 0.472638
O O17 0.885579 0.539836 0.394214
O O18 0.250000 0.811999 0.292802
O O19 0.750000 0.901685 0.807603
#
# Coordination Sequence:
#
# PCOD9378749 Si02
#       8
#     8   8   8   8   8   8   8   8
#     4  10  19  33  51  79 118 149 178 221 278 334
#     4  11  22  40  58  82 109 146 189 234 291 327
#     4  10  23  37  54  79 114 141 193 249 271 325
#     4  11  20  34  52  86 118 146 181 220 271 334
#     4  10  19  34  57  82 114 151 185 216 262 335
#     4   8  17  33  53  82 114 143 180 223 265 327
#     4  10  20  35  56  80 114 158 190 223 277 331
#     4  10  21  40  63  82 107 145 192 234 274 335
#
# _framework density 18.276339
#
# number of rings (size 3 to 8) (size 9 to 14) (size 15 to 20)
#    0.000    2.000    1.250    3.750    0.000    5.000 
#    4.500    0.625    0.000    0.000    0.000    0.000 
#    0.000    0.000    0.000    0.000    0.000    0.000 
#
# Total GULP energy -178519.436737 kJ/mol
# GULP energy per Si atom -5578.732398 kJ/mol
# Density = 1.823474 g / cm^3
# Si number density = 18.276339 Si / 1000 Ang^3
#
#
#
# Elastic Constant Matrix: (Units=GPa)
#
#
# Indices 1 2 3 4 5 6 
#
# 1 51.8154 26.8964 11.0555 0.0000 0.0000 0.0000
# 2 26.8964 74.1637 30.6883 0.0001 0.0000 0.0000
# 3 11.0555 30.6883 127.0942 -0.0004 -0.0003 0.0000
# 4 0.0000 0.0001 -0.0004 1.0818 -0.0002 0.0000
# 5 0.0000 0.0000 -0.0003 -0.0002 10.1074 0.0000
# 6 0.0000 0.0000 0.0000 0.0000 0.0000 -6.3888
#
#
#
# Elastic Compliance Matrix: (Units=1/GPa)
#
#
# Indices 1 2 3 4 5 6 
#
# 1 0.023775 -0.008629 0.000015 0.000000 0.000000 0.000000
# 2 -0.008629 0.018112 -0.003623 -0.000002 0.000000 0.000000
# 3 0.000015 -0.003623 0.008742 0.000003 0.000000 0.000000
# 4 0.000000 -0.000002 0.000003 0.924388 0.000019 0.000001
# 5 0.000000 0.000000 0.000000 0.000019 0.098937 0.000000
# 6 0.000000 0.000000 0.000000 0.000001 0.000000 -0.156523
#
#
# Mechanical properties :
#
#
# Convention : Reuss Voigt Hill
#
# Bulk Modulus (GPa) = 38.23137 43.37262 40.80200
# Shear Modulus (GPa) = 5.25972 13.25563 9.25768
#
# Velocity S-wave (km/s) = 1.69827 2.69604 2.25308
# Velocity P-wave (km/s) = 4.98091 5.78572 5.39833
#
# Compressibility (1/GPa) = 0.02615653
#
# Stress axis : x y z
#
# Youngs Moduli (GPa) = 42.06098 55.21188 114.39560
#
# Poissons Ratio (x) = 0.47641 -0.00176
# Poissons Ratio (y) = 0.36293 0.41443
# Poissons Ratio (z) = -0.00065 0.20002
#
# Static dielectric constant tensor:
#      x y z
#    x 1.628840 0.000000 0.000000 
#    y 0.000000 1.635730 0.000000 
#    z 0.000000 0.000000 1.671070 
# 
# From -- ./inp_files/6100.got.cif
#   From: 2010.05.17/outbox.cif.g08.bks.cpg/sg46_4_cif.got.tgz:6100.got - 2010.06.03 19:58:25.
