data_PCOD9378225
_publ_section_title
;
Structure prediction by ZEFSAII (Michael W. Deem and Ramdas Pophale) SiO2 
 PCOD9378225
Probable space group: I M A 2
;
_chemical_formula_sum "Si O2"
_cell_formula_units_Z 64
_cell_length_a 8.905658
_cell_length_b 30.805874
_cell_length_c 14.652164
_cell_angle_alpha 90.000000
_cell_angle_beta 90.000000
_cell_angle_gamma 90.000000
_cell_volume 4019.771057
_symmetry_space_group_name_H-M "I M A 2"
_symmetry_group_IT_number 46
_symmetry_cell_setting 'orthorhombic'
loop_
_space_group_symop_operation_xyz
x,y,z
-x,-y,z
1/2-x,y,z
1/2+x,-y,z
1/2+x,1/2+y,1/2+z
1/2-x,1/2-y,1/2+z
-x,1/2+y,1/2+z
x,1/2-y,1/2+z
loop_
_atom_site_type_symbol
_atom_site_label
_atom_site_fract_x
_atom_site_fract_y
_atom_site_fract_z
Si Si1 0.073442 0.367325 0.573110
Si Si2 0.930670 0.210099 0.960186
Si Si3 0.073428 0.634360 0.940960
Si Si4 0.569514 0.453632 0.853413
Si Si5 0.581068 0.326450 0.739587
Si Si6 0.576403 0.222721 0.749319
Si Si7 0.930025 0.453032 0.639471
Si Si8 0.072600 0.206351 0.562407
O O1 0.250000 0.370257 0.555984
O O2 0.995823 0.333662 0.504031
O O3 0.039692 0.346419 0.672235
O O4 0.998720 0.414722 0.578731
O O5 0.750000 0.211026 0.968294
O O6 0.970076 0.212674 0.852960
O O7 0.993933 0.252111 0.013820
O O8 0.250000 0.633923 0.967081
O O9 0.021464 0.585423 0.919449
O O10 0.064376 0.657849 0.842679
O O11 0.981383 0.662955 0.011449
O O12 0.500000 0.500000 0.876496
O O13 0.750000 0.455914 0.857631
O O14 0.532465 0.443952 0.746865
O O15 0.750000 0.340024 0.708504
O O16 0.573471 0.274759 0.738354
O O17 0.750000 0.208696 0.737635
O O18 0.477351 0.204382 0.667695
O O19 0.750000 0.454282 0.631541
O O20 0.000000 0.500000 0.618134
O O21 0.250000 0.211941 0.554695
#
# Coordination Sequence:
#
# PCOD9378225 Si02
#       8
#     8   8   8   8   8   8   8   8
#     4  12  23  33  49  78 108 140 175 214 262 312
#     4  11  22  38  56  73  98 138 181 217 254 306
#     4  10  19  35  53  72 100 141 182 211 249 308
#     4   9  18  31  50  74 102 136 173 213 257 303
#     4  10  18  32  52  72 100 140 181 216 250 298
#     4  10  21  37  56  72  96 139 182 218 256 302
#     4  10  19  34  52  75 105 139 175 214 259 309
#     4  12  24  34  50  78 107 135 169 217 266 308
#
# _framework density 15.921305
#
# number of rings (size 3 to 8) (size 9 to 14) (size 15 to 20)
#    0.000    1.500    3.750    3.000    0.000    2.500 
#    0.000    0.000    0.000    0.000    0.000    0.875 
#    0.000    4.000    0.000    0.000    0.000    0.000 
#
# Total GULP energy -178650.928253 kJ/mol
# GULP energy per Si atom -5582.841508 kJ/mol
# Density = 1.588507 g / cm^3
# Si number density = 15.921305 Si / 1000 Ang^3
#
#
#
# Elastic Constant Matrix: (Units=GPa)
#
#
# Indices 1 2 3 4 5 6 
#
# 1 79.2827 48.6156 47.5892 0.0000 0.0000 0.0000
# 2 48.6156 113.1049 47.2831 -0.0001 0.0000 0.0000
# 3 47.5892 47.2831 79.2227 0.0000 -0.0004 0.0000
# 4 0.0000 -0.0001 0.0000 23.2310 -0.0002 0.0000
# 5 0.0000 0.0000 -0.0004 -0.0002 -31.4766 0.0000
# 6 0.0000 0.0000 0.0000 0.0000 0.0000 27.2124
#
#
#
# Elastic Compliance Matrix: (Units=1/GPa)
#
#
# Indices 1 2 3 4 5 6 
#
# 1 0.021795 -0.005190 -0.009995 0.000000 0.000000 0.000000
# 2 -0.005190 0.013016 -0.004651 0.000000 0.000000 0.000000
# 3 -0.009995 -0.004651 0.021403 0.000000 0.000000 0.000000
# 4 0.000000 0.000000 0.000000 0.043046 0.000000 0.000000
# 5 0.000000 0.000000 0.000000 0.000000 -0.031770 0.000000
# 6 0.000000 0.000000 0.000000 0.000000 0.000000 0.036748
#
#
# Mechanical properties :
#
#
# Convention : Reuss Voigt Hill
#
# Bulk Modulus (GPa) = 60.45087 62.06513 61.25800
# Shear Modulus (GPa) = 33.46197 12.33485 22.89841
#
# Velocity S-wave (km/s) = 4.58941 2.78643 3.79651
# Velocity P-wave (km/s) = 8.13232 7.02989 7.60112
#
# Compressibility (1/GPa) = 0.01654236
#
# Stress axis : x y z
#
# Youngs Moduli (GPa) = 45.88278 76.82583 46.72345
#
# Poissons Ratio (x) = 0.39870 0.46699
# Poissons Ratio (y) = 0.23812 0.21732
# Poissons Ratio (z) = 0.45858 0.35734
#
# Static dielectric constant tensor:
#      x y z
#    x 1.558680 0.000000 0.000000 
#    y 0.000000 1.534750 0.000000 
#    z 0.000000 0.000000 1.518980 
# 
# From -- ./inp_files/14762.got.cif
#   From: 2010.05.17/outbox.cif.g08.bks.cpg/sg46_8_cif.got.tgz:14762.got - 2010.06.03 19:58:25.
