data_PCOD9378944
_publ_section_title
;
Structure prediction by ZEFSAII (Michael W. Deem and Ramdas Pophale) SiO2 
 PCOD9378944
Probable space group: I M A 2
;
_chemical_formula_sum "Si O2"
_cell_formula_units_Z 48
_cell_length_a 16.064907
_cell_length_b 8.947535
_cell_length_c 16.916368
_cell_angle_alpha 90.000000
_cell_angle_beta 90.000000
_cell_angle_gamma 90.000000
_cell_volume 2431.581026
_symmetry_space_group_name_H-M "I M A 2"
_symmetry_group_IT_number 46
_symmetry_cell_setting 'orthorhombic'
loop_
_space_group_symop_operation_xyz
x,y,z
-x,-y,z
1/2-x,y,z
1/2+x,-y,z
1/2+x,1/2+y,1/2+z
1/2-x,1/2-y,1/2+z
-x,1/2+y,1/2+z
x,1/2-y,1/2+z
loop_
_atom_site_type_symbol
_atom_site_label
_atom_site_fract_x
_atom_site_fract_y
_atom_site_fract_z
Si Si1 0.650632 0.932993 0.779870
Si Si2 0.919407 0.783805 0.386938
Si Si3 0.905709 0.130237 0.929298
Si Si4 0.153247 0.135296 0.031366
Si Si5 0.407661 0.068184 0.604976
Si Si6 0.340177 0.949533 0.445368
O O1 0.750000 0.923343 0.784496
O O2 0.605608 0.777197 0.802090
O O3 0.623312 0.973137 0.691856
O O4 0.617181 0.043807 0.848359
O O5 0.849409 0.722610 0.447662
O O6 0.002637 0.702340 0.418312
O O7 0.910558 0.959885 0.397713
O O8 0.848598 0.273720 0.937670
O O9 0.890383 0.020513 0.004432
O O10 0.250000 0.114765 0.055671
O O11 0.104527 0.252591 0.088375
O O12 0.500000 0.000000 0.593797
O O13 0.352567 0.992668 0.536727
O O14 0.250000 0.994763 0.415291
#
# Coordination Sequence:
#
# PCOD9378944 Si02
#       6
#     8   8   8   8   8   8
#     4  11  21  37  58  84 115 155 197 242 292 347
#     4  10  19  34  57  83 113 150 194 238 284 342
#     4  11  21  36  60  89 119 153 194 242 291 347
#     4  10  19  35  56  82 111 148 190 234 283 344
#     4  11  22  37  57  83 115 152 195 244 295 346
#     4  11  21  37  59  87 118 156 198 242 289 346
#
# _framework density 19.740241999999999
#
# number of rings (size 3 to 8) (size 9 to 14) (size 15 to 20)
#    0.000    1.333    0.000   12.000    0.000    0.000 
#    0.000    1.667    0.000    4.000    0.000    0.000 
#    0.000    0.000    0.000    0.000    0.000    0.000 
#
# Total GULP energy -133724.428344 kJ/mol
# GULP energy per Si atom -5571.851181 kJ/mol
# Density = 1.969531 g / cm^3
# Si number density = 19.740242 Si / 1000 Ang^3
#
#
#
# Elastic Constant Matrix: (Units=GPa)
#
#
# Indices 1 2 3 4 5 6 
#
# 1 153.6359 48.6072 15.7384 0.0000 0.0000 0.0000
# 2 48.6072 134.0551 33.6813 0.0000 0.0000 0.0000
# 3 15.7384 33.6813 81.3104 0.0000 0.0000 0.0000
# 4 0.0000 0.0000 0.0000 17.2125 0.0000 0.0000
# 5 0.0000 0.0000 0.0000 0.0000 21.5884 0.0000
# 6 0.0000 0.0000 0.0000 0.0000 0.0000 29.2094
#
#
#
# Elastic Compliance Matrix: (Units=1/GPa)
#
#
# Indices 1 2 3 4 5 6 
#
# 1 0.007362 -0.002580 -0.000356 0.000000 0.000000 0.000000
# 2 -0.002580 0.009230 -0.003324 0.000000 0.000000 0.000000
# 3 -0.000356 -0.003324 0.013744 0.000000 0.000000 0.000000
# 4 0.000000 0.000000 0.000000 0.058097 0.000000 0.000000
# 5 0.000000 0.000000 0.000000 0.000000 0.046321 0.000000
# 6 0.000000 0.000000 0.000000 0.000000 0.000000 0.034236
#
#
# Mechanical properties :
#
#
# Convention : Reuss Voigt Hill
#
# Bulk Modulus (GPa) = 56.12942 62.78391 59.45667
# Shear Modulus (GPa) = 26.67393 31.66705 29.17049
#
# Velocity S-wave (km/s) = 3.67992 4.00958 3.84828
# Velocity P-wave (km/s) = 6.82286 7.30135 7.06616
#
# Compressibility (1/GPa) = 0.01781597
#
# Stress axis : x y z
#
# Youngs Moduli (GPa) = 135.84072 108.34029 72.75660
#
# Poissons Ratio (x) = 0.27949 0.02592
# Poissons Ratio (y) = 0.35043 0.24185
# Poissons Ratio (z) = 0.04840 0.36013
#
# Static dielectric constant tensor:
#      x y z
#    x 1.756500 0.000000 0.000000 
#    y 0.000000 1.792540 0.000000 
#    z 0.000000 0.000000 1.649530 
# 
# From -- ./inp_files/19396.got.cif
#   From: 2010.05.17/outbox.cif.g08.bks.cpg/sg46_10_cif.got.tgz:19396.got - 2010.06.03 19:58:25.
