data_PCOD9378512
_publ_section_title
;
Structure prediction by ZEFSAII (Michael W. Deem and Ramdas Pophale) SiO2 
 PCOD9378512
Probable space group: I M A 2
;
_chemical_formula_sum "Si O2"
_cell_formula_units_Z 56
_cell_length_a 30.511746
_cell_length_b 14.001136
_cell_length_c 8.487429
_cell_angle_alpha 90.000000
_cell_angle_beta 90.000000
_cell_angle_gamma 90.000000
_cell_volume 3625.822075
_symmetry_space_group_name_H-M "I M A 2"
_symmetry_group_IT_number 46
_symmetry_cell_setting 'orthorhombic'
loop_
_space_group_symop_operation_xyz
x,y,z
-x,-y,z
1/2-x,y,z
1/2+x,-y,z
1/2+x,1/2+y,1/2+z
1/2-x,1/2-y,1/2+z
-x,1/2+y,1/2+z
x,1/2-y,1/2+z
loop_
_atom_site_type_symbol
_atom_site_label
_atom_site_fract_x
_atom_site_fract_y
_atom_site_fract_z
Si Si1 0.518349 0.855100 0.141050
Si Si2 0.566429 0.463251 0.764113
Si Si3 0.250000 0.641164 0.143466
Si Si4 0.654282 0.358841 0.144085
Si Si5 0.250000 0.641160 0.763404
Si Si6 0.433571 0.963250 0.642765
Si Si7 0.345718 0.858846 0.262786
Si Si8 0.981650 0.855101 0.765826
O O1 0.472078 0.891137 0.211913
O O2 0.528590 0.750000 0.203438
O O3 0.553550 0.934358 0.193687
O O4 0.514857 0.854564 0.953438
O O5 0.613239 0.422347 0.711078
O O6 0.565880 0.470016 0.953439
O O7 0.297601 0.602603 0.194380
O O8 0.250000 0.750003 0.203431
O O9 0.250000 0.640377 0.953435
O O10 0.613238 0.422341 0.195797
O O11 0.649518 0.249997 0.203433
O O12 0.653470 0.355989 0.953435
O O13 0.202399 0.602597 0.712493
O O14 0.472080 0.891140 0.694962
O O15 0.446448 0.065642 0.713193
#
# Coordination Sequence:
#
# PCOD9378512 Si02
#       8
#     8   8   4   8   4   8   8   8
#     4  11  21  33  47  64  87 117 147 182 220 258
#     4  10  19  31  46  67  90 116 148 181 215 258
#     4   8  14  26  40  60  87 116 145 174 209 252
#     4   9  17  27  43  64  90 119 147 177 212 252
#     4   8  14  26  40  60  87 116 145 174 209 252
#     4  10  19  31  46  67  90 116 148 181 215 258
#     4   9  17  27  43  64  90 119 147 177 212 252
#     4  11  21  33  47  64  87 117 147 182 220 258
#
# _framework density 15.444774000000001
#
# number of rings (size 3 to 8) (size 9 to 14) (size 15 to 20)
#    0.000    2.286    0.000    6.000    0.000    4.571 
#    0.000    0.000    0.000    0.000    0.000    1.000 
#    0.000    0.000    0.000    0.000    0.000    0.000 
#
# Total GULP energy -156050.990426 kJ/mol
# GULP energy per Si atom -5573.249658 kJ/mol
# Density = 1.540962 g / cm^3
# Si number density = 15.444774 Si / 1000 Ang^3
#
#
#
# Elastic Constant Matrix: (Units=GPa)
#
#
# Indices 1 2 3 4 5 6 
#
# 1 151.7903 60.0365 8.0989 0.0000 0.0000 0.0000
# 2 60.0365 87.9884 10.7651 0.0000 0.0000 0.0000
# 3 8.0989 10.7651 33.6637 0.0000 0.0000 0.0000
# 4 0.0000 0.0000 0.0000 23.3385 0.0000 0.0000
# 5 0.0000 0.0000 0.0000 0.0000 19.3412 0.0000
# 6 0.0000 0.0000 0.0000 0.0000 0.0000 20.8011
#
#
#
# Elastic Compliance Matrix: (Units=1/GPa)
#
#
# Indices 1 2 3 4 5 6 
#
# 1 0.009025 -0.006132 -0.000210 0.000000 0.000000 0.000000
# 2 -0.006132 0.015994 -0.003640 0.000000 0.000000 0.000000
# 3 -0.000210 -0.003640 0.030920 0.000000 0.000000 0.000000
# 4 0.000000 0.000000 0.000000 0.042848 0.000000 0.000000
# 5 0.000000 0.000000 0.000000 0.000000 0.051703 0.000000
# 6 0.000000 0.000000 0.000000 0.000000 0.000000 0.048074
#
#
# Mechanical properties :
#
#
# Convention : Reuss Voigt Hill
#
# Bulk Modulus (GPa) = 27.79664 47.91594 37.85629
# Shear Modulus (GPa) = 21.69014 25.66562 23.67788
#
# Velocity S-wave (km/s) = 3.75156 4.08090 3.91969
# Velocity P-wave (km/s) = 6.06647 7.30044 6.71187
#
# Compressibility (1/GPa) = 0.03597557
#
# Stress axis : x y z
#
# Youngs Moduli (GPa) = 110.80841 62.52189 32.34149
#
# Poissons Ratio (x) = 0.38338 0.00680
# Poissons Ratio (y) = 0.67947 0.11771
# Poissons Ratio (z) = 0.02330 0.22755
#
# Static dielectric constant tensor:
#      x y z
#    x 1.554420 0.000000 0.000000 
#    y 0.000000 1.478070 0.000000 
#    z 0.000000 0.000000 1.522140 
# 
# From -- ./inp_files/8526.got.cif
#   From: 2010.05.17/outbox.cif.g08.bks.cpg/sg46_5_cif.got.tgz:8526.got - 2010.06.03 19:58:25.
