data_PCOD9378082
_publ_section_title
;
Structure prediction by ZEFSAII (Michael W. Deem and Ramdas Pophale) SiO2 
 PCOD9378082
Probable space group: I M A 2
;
_chemical_formula_sum "Si O2"
_cell_formula_units_Z 48
_cell_length_a 15.275206
_cell_length_b 18.541589
_cell_length_c 7.278372
_cell_angle_alpha 90.000000
_cell_angle_beta 90.000000
_cell_angle_gamma 90.000000
_cell_volume 2061.428494
_symmetry_space_group_name_H-M "I M A 2"
_symmetry_group_IT_number 46
_symmetry_cell_setting 'orthorhombic'
loop_
_space_group_symop_operation_xyz
x,y,z
-x,-y,z
1/2-x,y,z
1/2+x,-y,z
1/2+x,1/2+y,1/2+z
1/2-x,1/2-y,1/2+z
-x,1/2+y,1/2+z
x,1/2-y,1/2+z
loop_
_atom_site_type_symbol
_atom_site_label
_atom_site_fract_x
_atom_site_fract_y
_atom_site_fract_z
Si Si1 0.033766 0.829396 0.902320
Si Si2 0.847705 0.624169 0.846629
Si Si3 0.844704 0.873927 0.898708
Si Si4 0.399636 0.973567 0.942411
Si Si5 0.151491 0.541737 0.860094
Si Si6 0.969380 0.328868 0.839946
O O1 0.090346 0.897875 0.838663
O O2 0.069814 0.750027 0.869868
O O3 0.933483 0.835976 0.833348
O O4 0.028272 0.839603 0.121354
O O5 0.750000 0.644263 0.908704
O O6 0.845524 0.626394 0.622868
O O7 0.867408 0.541667 0.905861
O O8 0.930383 0.670510 0.907948
O O9 0.750000 0.845081 0.839825
O O10 0.854012 0.958530 0.847751
O O11 0.500000 0.000000 0.980211
O O12 0.352869 0.960165 0.136546
O O13 0.250000 0.559015 0.918569
O O14 0.083608 0.603247 0.916970
#
# Coordination Sequence:
#
# PCOD9378082 Si02
#       6
#     8   8   8   8   8   8
#     4   9  18  28  43  63  89 115 140 169 212 258
#     4   8  14  25  45  67  84 105 142 185 218 243
#     4   8  13  24  43  66  84 104 140 185 217 242
#     4   8  13  24  42  63  83 106 140 183 216 242
#     4   9  15  25  43  65  84 108 144 184 214 241
#     4  10  18  30  43  64  91 116 139 172 212 256
#
# _framework density 23.284821999999998
#
# number of rings (size 3 to 8) (size 9 to 14) (size 15 to 20)
#    0.000    3.333    0.000    5.000    0.000    0.667 
#    0.000    4.167    0.000    6.000    0.000    2.333 
#    0.000    0.000    0.000    0.000    0.000    0.000 
#
# Total GULP energy -133898.109036 kJ/mol
# GULP energy per Si atom -5579.087877 kJ/mol
# Density = 2.323183 g / cm^3
# Si number density = 23.284822 Si / 1000 Ang^3
#
#
#
# Elastic Constant Matrix: (Units=GPa)
#
#
# Indices 1 2 3 4 5 6 
#
# 1 45.4213 9.9375 -9.8299 0.0000 0.0000 0.0000
# 2 9.9375 82.2341 -6.1712 0.0000 0.0000 0.0000
# 3 -9.8299 -6.1712 88.4281 0.0000 0.0000 0.0000
# 4 0.0000 0.0000 0.0000 10.0037 0.0000 0.0000
# 5 0.0000 0.0000 0.0000 0.0000 -65.7457 0.0000
# 6 0.0000 0.0000 0.0000 0.0000 0.0000 14.7153
#
#
#
# Elastic Compliance Matrix: (Units=1/GPa)
#
#
# Indices 1 2 3 4 5 6 
#
# 1 0.023104 -0.002613 0.002386 0.000000 0.000000 0.000000
# 2 -0.002613 0.012520 0.000583 0.000000 0.000000 0.000000
# 3 0.002386 0.000583 0.011615 0.000000 0.000000 0.000000
# 4 0.000000 0.000000 0.000000 0.099963 0.000000 0.000000
# 5 0.000000 0.000000 0.000000 0.000000 -0.015210 0.000000
# 6 0.000000 0.000000 0.000000 0.000000 0.000000 0.067957
#
#
# Mechanical properties :
#
#
# Convention : Reuss Voigt Hill
#
# Bulk Modulus (GPa) = 20.85452 22.66180 21.75816
# Shear Modulus (GPa) = 23.23208 6.60447 14.91828
#
# Velocity S-wave (km/s) = 3.16212 1.68598 2.53393
# Velocity P-wave (km/s) = 4.72311 3.68017 4.23387
#
# Compressibility (1/GPa) = 0.04795124
#
# Stress axis : x y z
#
# Youngs Moduli (GPa) = 43.28232 79.87260 86.09885
#
# Poissons Ratio (x) = 0.20870 -0.20543
# Poissons Ratio (y) = 0.11309 -0.05022
# Poissons Ratio (z) = -0.10327 -0.04659
#
# Static dielectric constant tensor:
#      x y z
#    x 1.857560 0.000000 0.000000 
#    y 0.000000 1.892160 0.000000 
#    z 0.000000 0.000000 1.940790 
# 
# From -- ./inp_files/11075.got.cif
#   From: 2010.05.17/outbox.cif.g08.bks.cpg/sg46_6_cif.got.tgz:11075.got - 2010.06.03 19:58:25.
