data_PCOD9378938
_publ_section_title
;
Structure prediction by ZEFSAII (Michael W. Deem and Ramdas Pophale) SiO2 
 PCOD9378938
Probable space group: I M A 2
;
_chemical_formula_sum "Si O2"
_cell_formula_units_Z 64
_cell_length_a 9.100819
_cell_length_b 16.343787
_cell_length_c 22.418750
_cell_angle_alpha 90.000000
_cell_angle_beta 90.000000
_cell_angle_gamma 90.000000
_cell_volume 3334.606288
_symmetry_space_group_name_H-M "I M A 2"
_symmetry_group_IT_number 46
_symmetry_cell_setting 'orthorhombic'
loop_
_space_group_symop_operation_xyz
x,y,z
-x,-y,z
1/2-x,y,z
1/2+x,-y,z
1/2+x,1/2+y,1/2+z
1/2-x,1/2-y,1/2+z
-x,1/2+y,1/2+z
x,1/2-y,1/2+z
loop_
_atom_site_type_symbol
_atom_site_label
_atom_site_fract_x
_atom_site_fract_y
_atom_site_fract_z
Si Si1 0.916157 0.299511 0.792630
Si Si2 0.916562 0.110136 0.758182
Si Si3 0.926201 0.737444 0.913277
Si Si4 0.573214 0.084959 0.620221
Si Si5 0.927170 0.261382 0.035776
Si Si6 0.077908 0.422063 0.378181
Si Si7 0.578758 0.586526 0.563981
Si Si8 0.581770 0.582497 0.707622
O O1 0.750000 0.329150 0.802808
O O2 0.907765 0.206432 0.770642
O O3 0.008977 0.302763 0.853521
O O4 0.995083 0.346447 0.739802
O O5 0.750000 0.076848 0.766617
O O6 0.964338 0.094528 0.690500
O O7 0.026349 0.081628 0.809463
O O8 0.750000 0.727916 0.916839
O O9 0.960096 0.834713 0.906467
O O10 0.008186 0.708876 0.972571
O O11 0.750000 0.077257 0.616224
O O12 0.533670 0.168406 0.584626
O O13 0.500000 0.000000 0.598659
O O14 0.750000 0.253865 0.034529
O O15 0.997475 0.171142 0.046362
O O16 0.250000 0.432894 0.381860
O O17 0.000000 0.500000 0.406658
O O18 0.500000 0.500000 0.547570
O O19 0.750000 0.587214 0.543364
O O20 0.578948 0.588617 0.636155
O O21 0.500000 0.500000 0.724903
O O22 0.750000 0.581803 0.727083
#
# Coordination Sequence:
#
# PCOD9378938 Si02
#       8
#     8   8   8   8   8   8   8   8
#     4  10  19  34  57  82 110 144 181 224 278 335
#     4   9  18  33  54  81 112 143 175 215 268 328
#     4  10  22  39  56  77 106 142 188 234 277 331
#     4  10  22  38  57  83 113 147 187 232 281 333
#     4  11  23  40  60  82 112 150 194 242 290 339
#     4  10  20  33  52  79 110 141 174 215 264 322
#     4  10  21  37  59  88 120 154 190 230 282 343
#     4  10  20  34  54  82 114 145 180 224 276 335
#
# _framework density 19.19267
#
# number of rings (size 3 to 8) (size 9 to 14) (size 15 to 20)
#    0.000    2.000    0.000    3.375    0.000    7.500 
#    0.000    1.875    0.000    1.500    0.000    0.000 
#    0.000    0.000    0.000    0.000    0.000    0.000 
#
# Total GULP energy -178586.317320 kJ/mol
# GULP energy per Si atom -5580.822416 kJ/mol
# Density = 1.914899 g / cm^3
# Si number density = 19.192670 Si / 1000 Ang^3
#
#
#
# Elastic Constant Matrix: (Units=GPa)
#
#
# Indices 1 2 3 4 5 6 
#
# 1 79.9730 34.0751 32.5825 0.0000 0.0000 0.0000
# 2 34.0751 66.6836 30.9800 0.0000 0.0000 0.0000
# 3 32.5825 30.9800 81.5444 0.0000 0.0000 0.0000
# 4 0.0000 0.0000 0.0000 3.6392 0.0000 0.0000
# 5 0.0000 0.0000 0.0000 0.0000 5.3935 0.0000
# 6 0.0000 0.0000 0.0000 0.0000 0.0000 34.0466
#
#
#
# Elastic Compliance Matrix: (Units=1/GPa)
#
#
# Indices 1 2 3 4 5 6 
#
# 1 0.017129 -0.006768 -0.004273 0.000000 0.000000 0.000000
# 2 -0.006768 0.020884 -0.005230 0.000000 0.000000 0.000000
# 3 -0.004273 -0.005230 0.015958 0.000000 0.000000 0.000000
# 4 0.000000 0.000000 0.000000 0.274783 0.000000 0.000000
# 5 0.000000 0.000000 0.000000 0.000000 0.185410 0.000000
# 6 0.000000 0.000000 0.000000 0.000000 0.000000 0.029371
#
#
# Mechanical properties :
#
#
# Convention : Reuss Voigt Hill
#
# Bulk Modulus (GPa) = 46.66536 47.05291 46.85913
# Shear Modulus (GPa) = 8.57311 17.32009 12.94660
#
# Velocity S-wave (km/s) = 2.11579 3.00731 2.60005
# Velocity P-wave (km/s) = 5.50778 6.05210 5.78634
#
# Compressibility (1/GPa) = 0.02142917
#
# Stress axis : x y z
#
# Youngs Moduli (GPa) = 58.38175 47.88299 62.66599
#
# Poissons Ratio (x) = 0.32405 0.26777
# Poissons Ratio (y) = 0.39510 0.32775
# Poissons Ratio (z) = 0.24946 0.25044
#
# Static dielectric constant tensor:
#      x y z
#    x 1.665790 0.000000 0.000000 
#    y 0.000000 1.687120 0.000000 
#    z 0.000000 0.000000 1.664500 
# 
# From -- ./inp_files/23166.got.cif
#   From: 2010.05.17/outbox.cif.g08.bks.cpg/sg46_12_cif.got.tgz:23166.got - 2010.06.03 19:58:25.
