data_PCOD9378232
_publ_section_title
;
Structure prediction by ZEFSAII (Michael W. Deem and Ramdas Pophale) SiO2 
 PCOD9378232
Probable space group: I M A 2
;
_chemical_formula_sum "Si O2"
_cell_formula_units_Z 64
_cell_length_a 8.559708
_cell_length_b 20.250537
_cell_length_c 21.323654
_cell_angle_alpha 90.000000
_cell_angle_beta 90.000000
_cell_angle_gamma 90.000000
_cell_volume 3696.214113
_symmetry_space_group_name_H-M "I M A 2"
_symmetry_group_IT_number 46
_symmetry_cell_setting 'orthorhombic'
loop_
_space_group_symop_operation_xyz
x,y,z
-x,-y,z
1/2-x,y,z
1/2+x,-y,z
1/2+x,1/2+y,1/2+z
1/2-x,1/2-y,1/2+z
-x,1/2+y,1/2+z
x,1/2-y,1/2+z
loop_
_atom_site_type_symbol
_atom_site_label
_atom_site_fract_x
_atom_site_fract_y
_atom_site_fract_z
Si Si1 0.063004 0.928966 0.964650
Si Si2 0.563831 0.070205 0.205413
Si Si3 0.559681 0.789725 0.395900
Si Si4 0.436645 0.929040 0.818121
Si Si5 0.561096 0.793952 0.154835
Si Si6 0.938559 0.706928 0.515295
Si Si7 0.561250 0.707018 0.273123
Si Si8 0.562262 0.570008 0.847538
O O1 0.250000 0.929162 0.967505
O O2 0.014209 0.920839 0.891357
O O3 0.000000 0.000000 0.986159
O O4 0.997188 0.866930 0.002015
O O5 0.750000 0.068226 0.206479
O O6 0.504125 0.133128 0.167517
O O7 0.500544 0.077683 0.276597
O O8 0.500000 0.000000 0.181348
O O9 0.750000 0.788862 0.396252
O O10 0.505097 0.754365 0.459278
O O11 0.510104 0.748064 0.334754
O O12 0.512739 0.865707 0.386589
O O13 0.250000 0.929646 0.816420
O O14 0.500184 0.867066 0.779795
O O15 0.500000 0.000000 0.796837
O O16 0.750000 0.797506 0.157604
O O17 0.514901 0.771716 0.085152
O O18 0.509657 0.745371 0.210635
O O19 0.750000 0.706193 0.512842
O O20 0.750000 0.705739 0.273391
O O21 0.500000 0.500000 0.871820
O O22 0.750000 0.568099 0.844570
#
# Coordination Sequence:
#
# PCOD9378232 Si02
#       8
#     8   8   8   8   8   8   8   8
#     4  10  20  33  50  74 105 138 172 210 252 300
#     4  11  21  33  51  74 104 139 176 211 253 303
#     4   9  17  31  54  77 101 133 171 211 253 300
#     4  10  20  33  52  80 107 135 171 214 259 306
#     4  10  21  36  53  75 104 137 174 212 256 306
#     4  10  20  35  54  75 100 137 176 210 251 304
#     4  10  18  33  55  77 103 135 171 214 258 301
#     4  10  18  32  52  78 107 134 169 212 258 303
#
# _framework density 17.315014999999999
#
# number of rings (size 3 to 8) (size 9 to 14) (size 15 to 20)
#    0.000    2.000    2.500    3.000    0.000    2.500 
#    0.000    1.250    0.000    0.750    0.000    1.750 
#    0.000    0.000    0.000    0.000    0.000    0.000 
#
# Total GULP energy -178611.892837 kJ/mol
# GULP energy per Si atom -5581.621651 kJ/mol
# Density = 1.727560 g / cm^3
# Si number density = 17.315015 Si / 1000 Ang^3
#
#
#
# Elastic Constant Matrix: (Units=GPa)
#
#
# Indices 1 2 3 4 5 6 
#
# 1 24.8353 22.6873 27.0131 0.0000 0.0000 0.0000
# 2 22.6873 141.0834 78.5618 0.0000 0.0000 0.0000
# 3 27.0131 78.5618 119.0176 0.0000 0.0000 0.0000
# 4 0.0000 0.0000 0.0000 23.1017 0.0000 0.0000
# 5 0.0000 0.0000 0.0000 0.0000 9.7100 0.0000
# 6 0.0000 0.0000 0.0000 0.0000 0.0000 28.9817
#
#
#
# Elastic Compliance Matrix: (Units=1/GPa)
#
#
# Indices 1 2 3 4 5 6 
#
# 1 0.054230 -0.002952 -0.010360 0.000000 0.000000 0.000000
# 2 -0.002952 0.011368 -0.006834 0.000000 0.000000 0.000000
# 3 -0.010360 -0.006834 0.015265 0.000000 0.000000 0.000000
# 4 0.000000 0.000000 0.000000 0.043287 0.000000 0.000000
# 5 0.000000 0.000000 0.000000 0.000000 0.102987 0.000000
# 6 0.000000 0.000000 0.000000 0.000000 0.000000 0.034505
#
#
# Mechanical properties :
#
#
# Convention : Reuss Voigt Hill
#
# Bulk Modulus (GPa) = 24.64794 60.16230 42.40512
# Shear Modulus (GPa) = 15.85005 22.80362 19.32684
#
# Velocity S-wave (km/s) = 3.02883 3.63297 3.34457
# Velocity P-wave (km/s) = 5.14759 7.24010 6.28159
#
# Compressibility (1/GPa) = 0.04057135
#
# Stress axis : x y z
#
# Youngs Moduli (GPa) = 18.43990 87.96498 65.51110
#
# Poissons Ratio (x) = 0.25964 0.67870
# Poissons Ratio (y) = 0.05443 0.44771
# Poissons Ratio (z) = 0.19104 0.60116
#
# Static dielectric constant tensor:
#      x y z
#    x 1.583320 0.000000 0.000000 
#    y 0.000000 1.576980 0.000000 
#    z 0.000000 0.000000 1.595540 
# 
# From -- ./inp_files/21429.got.cif
#   From: 2010.05.17/outbox.cif.g08.bks.cpg/sg46_11_cif.got.tgz:21429.got - 2010.06.03 19:58:25.
