data_PCOD9378088
_publ_section_title
;
Structure prediction by ZEFSAII (Michael W. Deem and Ramdas Pophale) SiO2 
 PCOD9378088
Probable space group: I M A 2
;
_chemical_formula_sum "Si O2"
_cell_formula_units_Z 64
_cell_length_a 8.703054
_cell_length_b 18.967910
_cell_length_c 27.148245
_cell_angle_alpha 90.000000
_cell_angle_beta 90.000000
_cell_angle_gamma 90.000000
_cell_volume 4481.598213
_symmetry_space_group_name_H-M "I M A 2"
_symmetry_group_IT_number 46
_symmetry_cell_setting 'orthorhombic'
loop_
_space_group_symop_operation_xyz
x,y,z
-x,-y,z
1/2-x,y,z
1/2+x,-y,z
1/2+x,1/2+y,1/2+z
1/2-x,1/2-y,1/2+z
-x,1/2+y,1/2+z
x,1/2-y,1/2+z
loop_
_atom_site_type_symbol
_atom_site_label
_atom_site_fract_x
_atom_site_fract_y
_atom_site_fract_z
Si Si1 0.064298 0.332907 0.833960
Si Si2 0.072587 0.294874 0.990898
Si Si3 0.433570 0.577162 0.747255
Si Si4 0.572311 0.700056 0.391284
Si Si5 0.063478 0.421829 0.930685
Si Si6 0.565868 0.422745 0.632914
Si Si7 0.932380 0.077443 0.949875
Si Si8 0.935651 0.838900 0.043449
O O1 0.250000 0.332262 0.832251
O O2 0.015923 0.253486 0.848964
O O3 0.019416 0.385223 0.878834
O O4 0.998511 0.364484 0.784039
O O5 0.250000 0.307595 0.004929
O O6 0.073608 0.249205 0.940330
O O7 0.006253 0.369889 0.974398
O O8 0.006855 0.240355 0.030581
O O9 0.500000 0.500000 0.760308
O O10 0.250000 0.574217 0.751165
O O11 0.474155 0.591241 0.690091
O O12 0.750000 0.680344 0.381803
O O13 0.477624 0.631375 0.406113
O O14 0.250000 0.422606 0.932085
O O15 0.000000 0.500000 0.934147
O O16 0.500000 0.500000 0.620502
O O17 0.750000 0.423794 0.628266
O O18 0.494746 0.367476 0.595136
O O19 0.750000 0.074028 0.955288
O O20 0.004127 0.110259 0.999876
O O21 0.000000 0.000000 0.941672
O O22 0.250000 0.160842 0.041669
#
# Coordination Sequence:
#
# PCOD9378088 Si02
#       8
#     8   8   8   8   8   8   8   8
#     4   9  17  29  45  61  82 111 141 172 207 244
#     4   7  13  26  41  55  76 104 132 161 198 239
#     4  10  20  31  43  59  83 111 141 175 209 244
#     4   8  15  29  44  59  80 107 137 170 205 242
#     4   9  16  26  39  58  82 108 135 164 196 233
#     4  10  20  32  43  59  82 108 138 175 211 245
#     4  11  20  29  42  61  85 112 140 171 204 244
#     4  10  18  30  46  60  77 107 142 174 208 249
#
# _framework density 14.280620000000001
#
# number of rings (size 3 to 8) (size 9 to 14) (size 15 to 20)
#    0.000    2.750    0.000    5.250    0.000    3.500 
#    0.000    5.625    0.000    0.000    0.000    0.000 
#    0.000    1.000    0.000    4.500    0.000    4.500 
#
# Total GULP energy -178210.280347 kJ/mol
# GULP energy per Si atom -5569.071261 kJ/mol
# Density = 1.424812 g / cm^3
# Si number density = 14.280620 Si / 1000 Ang^3
#
#
#
# Elastic Constant Matrix: (Units=GPa)
#
#
# Indices 1 2 3 4 5 6 
#
# 1 40.7455 28.8183 21.6405 0.0000 0.0000 0.0000
# 2 28.8183 97.4033 42.8019 0.0000 0.0000 0.0000
# 3 21.6405 42.8019 65.1160 0.0000 0.0000 0.0000
# 4 0.0000 0.0000 0.0000 28.4206 0.0000 0.0000
# 5 0.0000 0.0000 0.0000 0.0000 29.5800 0.0000
# 6 0.0000 0.0000 0.0000 0.0000 0.0000 22.8779
#
#
#
# Elastic Compliance Matrix: (Units=1/GPa)
#
#
# Indices 1 2 3 4 5 6 
#
# 1 0.032810 -0.006912 -0.006360 0.000000 0.000000 0.000000
# 2 -0.006912 0.015893 -0.008149 0.000000 0.000000 0.000000
# 3 -0.006360 -0.008149 0.022828 0.000000 0.000000 0.000000
# 4 0.000000 0.000000 0.000000 0.035186 0.000000 0.000000
# 5 0.000000 0.000000 0.000000 0.000000 0.033807 0.000000
# 6 0.000000 0.000000 0.000000 0.000000 0.000000 0.043710
#
#
# Mechanical properties :
#
#
# Convention : Reuss Voigt Hill
#
# Bulk Modulus (GPa) = 34.86008 43.30960 39.08484
# Shear Modulus (GPa) = 21.12925 23.50931 22.31928
#
# Velocity S-wave (km/s) = 3.85070 4.06179 3.95765
# Velocity P-wave (km/s) = 6.65088 7.23815 6.95072
#
# Compressibility (1/GPa) = 0.02868610
#
# Stress axis : x y z
#
# Youngs Moduli (GPa) = 30.47889 62.92153 43.80644
#
# Poissons Ratio (x) = 0.43494 0.27862
# Poissons Ratio (y) = 0.21068 0.35700
# Poissons Ratio (z) = 0.19385 0.51277
#
# Static dielectric constant tensor:
#      x y z
#    x 1.483950 0.000000 0.000000 
#    y 0.000000 1.477700 0.000000 
#    z 0.000000 0.000000 1.467700 
# 
# From -- ./inp_files/23303.got.cif
#   From: 2010.05.17/outbox.cif.g08.bks.cpg/sg46_12_cif.got.tgz:23303.got - 2010.06.03 19:58:25.
