data_PCOD9378345
_publ_section_title
;
Structure prediction by ZEFSAII (Michael W. Deem and Ramdas Pophale) SiO2 
 PCOD9378345
Probable space group: I M A 2
;
_chemical_formula_sum "Si O2"
_cell_formula_units_Z 48
_cell_length_a 14.540061
_cell_length_b 15.126893
_cell_length_c 9.942519
_cell_angle_alpha 90.000000
_cell_angle_beta 90.000000
_cell_angle_gamma 90.000000
_cell_volume 2186.816757
_symmetry_space_group_name_H-M "I M A 2"
_symmetry_group_IT_number 46
_symmetry_cell_setting 'orthorhombic'
loop_
_space_group_symop_operation_xyz
x,y,z
-x,-y,z
1/2-x,y,z
1/2+x,-y,z
1/2+x,1/2+y,1/2+z
1/2-x,1/2-y,1/2+z
-x,1/2+y,1/2+z
x,1/2-y,1/2+z
loop_
_atom_site_type_symbol
_atom_site_label
_atom_site_fract_x
_atom_site_fract_y
_atom_site_fract_z
Si Si1 0.056399 0.137649 0.127650
Si Si2 0.637406 0.050199 0.052399
Si Si3 0.041706 0.245928 0.383363
Si Si4 0.250000 0.636174 0.876273
Si Si5 0.250000 0.724861 0.159191
Si Si6 0.064691 0.574769 0.965920
Si Si7 0.915229 0.107968 0.761772
O O1 0.105815 0.044401 0.107759
O O2 0.082903 0.183520 0.267997
O O3 0.086634 0.205430 0.009908
O O4 0.943188 0.119210 0.112062
O O5 0.750000 0.058846 0.059850
O O6 0.613575 0.054122 0.892849
O O7 0.970991 0.175190 0.449753
O O8 0.998577 0.328711 0.303031
O O9 0.250000 0.683088 0.734467
O O10 0.250000 0.709608 0.998320
O O11 0.162179 0.575834 0.895774
O O12 0.336480 0.675763 0.220391
O O13 0.074440 0.555125 0.124086
O O14 0.000000 0.500000 0.905254
#
# Coordination Sequence:
#
# PCOD9378345 Si02
#       7
#     8   8   8   4   4   8   8
#     4  10  24  41  67  94 128 166 213 263 316 383
#     4  10  22  42  66  94 128 168 213 260 318 380
#     4  11  21  41  60  94 126 167 207 259 320 377
#     4  10  22  40  58  98 123 159 204 256 321 375
#     4  10  18  34  60  92 125 145 200 262 317 371
#     4  11  24  38  62  91 133 166 205 260 319 373
#     4  10  20  37  61  94 122 158 207 255 316 377
#
# _framework density 21.949712000000002
#
# number of rings (size 3 to 8) (size 9 to 14) (size 15 to 20)
#    0.000    1.667    4.167    0.000    7.000    0.000 
#    3.000    0.833    1.833    0.000    0.000    0.000 
#    0.000    0.000    0.000    0.000    0.000    0.000 
#
# Total GULP energy -133837.457780 kJ/mol
# GULP energy per Si atom -5576.560741 kJ/mol
# Density = 2.189975 g / cm^3
# Si number density = 21.949712 Si / 1000 Ang^3
#
#
#
# Elastic Constant Matrix: (Units=GPa)
#
#
# Indices 1 2 3 4 5 6 
#
# 1 67.4044 38.4914 30.4237 0.0000 0.0000 0.0000
# 2 38.4914 100.5871 52.2201 0.0000 0.0000 0.0000
# 3 30.4237 52.2201 126.0586 0.0000 0.0000 0.0000
# 4 0.0000 0.0000 0.0000 25.3861 0.0000 0.0000
# 5 0.0000 0.0000 0.0000 0.0000 184.7469 0.0000
# 6 0.0000 0.0000 0.0000 0.0000 0.0000 18.1694
#
#
#
# Elastic Compliance Matrix: (Units=1/GPa)
#
#
# Indices 1 2 3 4 5 6 
#
# 1 0.019390 -0.006358 -0.002046 0.000000 0.000000 0.000000
# 2 -0.006358 0.014750 -0.004576 0.000000 0.000000 0.000000
# 3 -0.002046 -0.004576 0.010322 0.000000 0.000000 0.000000
# 4 0.000000 0.000000 0.000000 0.039392 0.000000 0.000000
# 5 0.000000 0.000000 0.000000 0.000000 0.005413 0.000000
# 6 0.000000 0.000000 0.000000 0.000000 0.000000 0.055038
#
#
# Mechanical properties :
#
#
# Convention : Reuss Voigt Hill
#
# Bulk Modulus (GPa) = 54.04507 59.59116 56.81811
# Shear Modulus (GPa) = 28.33972 57.18815 42.76394
#
# Velocity S-wave (km/s) = 3.59711 5.10987 4.41871
# Velocity P-wave (km/s) = 6.47518 7.87542 7.20938
#
# Compressibility (1/GPa) = 0.01850308
#
# Stress axis : x y z
#
# Youngs Moduli (GPa) = 51.57329 67.79625 96.87893
#
# Poissons Ratio (x) = 0.43103 0.19821
# Poissons Ratio (y) = 0.32789 0.44330
# Poissons Ratio (z) = 0.10552 0.31023
#
# Static dielectric constant tensor:
#      x y z
#    x 1.613430 0.000000 0.000000 
#    y 0.000000 1.922780 0.000000 
#    z 0.000000 0.000000 1.876050 
# 
# From -- ./inp_files/11109.got.cif
#   From: 2010.05.17/outbox.cif.g08.bks.cpg/sg46_6_cif.got.tgz:11109.got - 2010.06.03 19:58:25.
