data_PCOD9378053
_publ_section_title
;
Structure prediction by ZEFSAII (Michael W. Deem and Ramdas Pophale) SiO2 
 PCOD9378053
Probable space group: I M A 2
;
_chemical_formula_sum "Si O2"
_cell_formula_units_Z 64
_cell_length_a 8.568480
_cell_length_b 14.807764
_cell_length_c 28.796511
_cell_angle_alpha 90.000000
_cell_angle_beta 90.000000
_cell_angle_gamma 90.000000
_cell_volume 3653.702170
_symmetry_space_group_name_H-M "I M A 2"
_symmetry_group_IT_number 46
_symmetry_cell_setting 'orthorhombic'
loop_
_space_group_symop_operation_xyz
x,y,z
-x,-y,z
1/2-x,y,z
1/2+x,-y,z
1/2+x,1/2+y,1/2+z
1/2-x,1/2-y,1/2+z
-x,1/2+y,1/2+z
x,1/2-y,1/2+z
loop_
_atom_site_type_symbol
_atom_site_label
_atom_site_fract_x
_atom_site_fract_y
_atom_site_fract_z
Si Si1 0.564242 0.289315 0.013590
Si Si2 0.934003 0.830867 0.419986
Si Si3 0.562195 0.600014 0.204903
Si Si4 0.066189 0.094553 0.984481
Si Si5 0.931156 0.355728 0.389062
Si Si6 0.562065 0.601276 0.099032
Si Si7 0.939367 0.793671 0.795257
Si Si8 0.566644 0.906331 0.322770
O O1 0.750000 0.294483 0.009363
O O2 0.508081 0.329215 0.062276
O O3 0.483999 0.348548 0.972515
O O4 0.510829 0.185421 0.005351
O O5 0.750000 0.803584 0.419281
O O6 0.953914 0.901759 0.378751
O O7 0.043166 0.748225 0.404307
O O8 0.500000 0.500000 0.214934
O O9 0.750000 0.597056 0.205586
O O10 0.515504 0.624004 0.152229
O O11 0.512689 0.667964 0.245420
O O12 0.250000 0.099530 0.991639
O O13 0.028660 0.095682 0.929240
O O14 0.000000 0.000000 0.003314
O O15 0.750000 0.381284 0.391353
O O16 0.995510 0.356382 0.336799
O O17 0.500000 0.500000 0.089618
O O18 0.750000 0.601499 0.095832
O O19 0.750000 0.794456 0.799040
O O20 0.992866 0.689897 0.803224
O O21 0.750000 0.906769 0.313557
O O22 0.500000 0.000000 0.304571
#
# Coordination Sequence:
#
# PCOD9378053 Si02
#       8
#     8   8   8   8   8   8   8   8
#     4  11  21  34  53  78 105 136 171 211 255 308
#     4   9  17  31  47  66  95 132 168 206 247 291
#     4   9  19  35  56  77 100 127 162 206 257 311
#     4  11  21  35  53  75 105 141 177 215 254 300
#     4  10  18  29  46  71  99 131 169 208 247 293
#     4  10  20  36  56  79 102 130 165 209 262 315
#     4   9  18  34  51  71 100 136 170 207 256 309
#     4   9  18  30  47  69  98 133 169 204 244 289
#
# _framework density 17.516479
#
# number of rings (size 3 to 8) (size 9 to 14) (size 15 to 20)
#    0.000    2.250    0.000    6.375    0.000    4.500 
#    0.000    2.500    0.000    0.750    0.000    1.750 
#    0.000    0.000    0.000    0.000    0.000    0.000 
#
# Total GULP energy -178342.118095 kJ/mol
# GULP energy per Si atom -5573.191190 kJ/mol
# Density = 1.747661 g / cm^3
# Si number density = 17.516479 Si / 1000 Ang^3
#
#
#
# Elastic Constant Matrix: (Units=GPa)
#
#
# Indices 1 2 3 4 5 6 
#
# 1 59.9530 24.9849 27.9238 0.0000 0.0000 0.0000
# 2 24.9849 84.1922 63.1185 0.0000 0.0000 0.0000
# 3 27.9238 63.1185 119.6038 0.0000 0.0000 0.0000
# 4 0.0000 0.0000 0.0000 18.3949 0.0000 0.0000
# 5 0.0000 0.0000 0.0000 0.0000 16.6719 0.0000
# 6 0.0000 0.0000 0.0000 0.0000 0.0000 25.5476
#
#
#
# Elastic Compliance Matrix: (Units=1/GPa)
#
#
# Indices 1 2 3 4 5 6 
#
# 1 0.019467 -0.003921 -0.002476 0.000000 0.000000 0.000000
# 2 -0.003921 0.020443 -0.009873 0.000000 0.000000 0.000000
# 3 -0.002476 -0.009873 0.014149 0.000000 0.000000 0.000000
# 4 0.000000 0.000000 0.000000 0.054363 0.000000 0.000000
# 5 0.000000 0.000000 0.000000 0.000000 0.059981 0.000000
# 6 0.000000 0.000000 0.000000 0.000000 0.000000 0.039143
#
#
# Mechanical properties :
#
#
# Convention : Reuss Voigt Hill
#
# Bulk Modulus (GPa) = 46.46892 55.08925 50.77909
# Shear Modulus (GPa) = 20.22183 21.97102 21.09643
#
# Velocity S-wave (km/s) = 3.40140 3.54546 3.47418
# Velocity P-wave (km/s) = 6.48169 6.94828 6.71904
#
# Compressibility (1/GPa) = 0.02151976
#
# Stress axis : x y z
#
# Youngs Moduli (GPa) = 51.36935 48.91704 70.67569
#
# Poissons Ratio (x) = 0.19180 0.17497
# Poissons Ratio (y) = 0.20142 0.69777
# Poissons Ratio (z) = 0.12718 0.48295
#
# Static dielectric constant tensor:
#      x y z
#    x 1.592900 0.000000 0.000000 
#    y 0.000000 1.615900 0.000000 
#    z 0.000000 0.000000 1.612400 
# 
# From -- ./inp_files/25310.got.cif
#   From: 2010.05.17/outbox.cif.g08.bks.cpg/sg46_13_cif.got.tgz:25310.got - 2010.06.03 19:58:25.
