data_PCOD9378713
_publ_section_title
;
Structure prediction by ZEFSAII (Michael W. Deem and Ramdas Pophale) SiO2 
 PCOD9378713
Probable space group: I M A 2
;
_chemical_formula_sum "Si O2"
_cell_formula_units_Z 64
_cell_length_a 8.829027
_cell_length_b 21.077754
_cell_length_c 19.964475
_cell_angle_alpha 90.000000
_cell_angle_beta 90.000000
_cell_angle_gamma 90.000000
_cell_volume 3715.310121
_symmetry_space_group_name_H-M "I M A 2"
_symmetry_group_IT_number 46
_symmetry_cell_setting 'orthorhombic'
loop_
_space_group_symop_operation_xyz
x,y,z
-x,-y,z
1/2-x,y,z
1/2+x,-y,z
1/2+x,1/2+y,1/2+z
1/2-x,1/2-y,1/2+z
-x,1/2+y,1/2+z
x,1/2-y,1/2+z
loop_
_atom_site_type_symbol
_atom_site_label
_atom_site_fract_x
_atom_site_fract_y
_atom_site_fract_z
Si Si1 0.069078 0.614568 0.828160
Si Si2 0.568719 0.116007 0.479822
Si Si3 0.929500 0.755800 0.974654
Si Si4 0.931289 0.185427 0.691976
Si Si5 0.930368 0.566416 0.114711
Si Si6 0.930477 0.565946 0.693507
Si Si7 0.069117 0.735394 0.336110
Si Si8 0.068430 0.193255 0.117535
O O1 0.250000 0.606815 0.819652
O O2 0.029446 0.594934 0.904111
O O3 0.035070 0.690023 0.822725
O O4 0.983905 0.578692 0.769475
O O5 0.750000 0.111885 0.487754
O O6 0.517811 0.189515 0.484867
O O7 0.487089 0.078795 0.538869
O O8 0.750000 0.742191 0.972877
O O9 0.983254 0.783031 0.903696
O O10 0.959999 0.800154 0.038357
O O11 0.750000 0.179940 0.685656
O O12 0.969397 0.195663 0.770176
O O13 0.009218 0.124825 0.658808
O O14 0.986454 0.248453 0.653796
O O15 0.750000 0.564415 0.116133
O O16 0.000000 0.500000 0.138142
O O17 0.750000 0.562110 0.691452
O O18 0.979370 0.626664 0.649640
O O19 0.000000 0.500000 0.669622
O O20 0.250000 0.731645 0.347397
O O21 0.250000 0.200226 0.127934
#
# Coordination Sequence:
#
# PCOD9378713 Si02
#       8
#     8   8   8   8   8   8   8   8
#     4   9  18  34  53  77 110 146 185 225 267 325
#     4  10  20  35  54  79 112 149 187 228 273 328
#     4  10  19  32  54  83 113 144 181 230 281 328
#     4  11  21  36  60  85 111 146 185 231 280 331
#     4  12  25  40  57  81 113 149 190 232 279 336
#     4  11  23  37  54  77 110 148 188 231 278 329
#     4   9  19  34  54  83 114 143 181 226 275 333
#     4  10  21  36  55  83 112 143 185 233 278 332
#
# _framework density 17.226018
#
# number of rings (size 3 to 8) (size 9 to 14) (size 15 to 20)
#    0.000    1.750    2.500    3.375    0.000    5.000 
#    0.000    0.000    0.000    0.750    0.000    3.500 
#    0.000    0.000    0.000    0.000    0.000    0.000 
#
# Total GULP energy -178716.565222 kJ/mol
# GULP energy per Si atom -5584.892663 kJ/mol
# Density = 1.718681 g / cm^3
# Si number density = 17.226018 Si / 1000 Ang^3
#
#
#
# Elastic Constant Matrix: (Units=GPa)
#
#
# Indices 1 2 3 4 5 6 
#
# 1 65.6633 49.0765 50.7582 0.0000 0.0000 0.0000
# 2 49.0765 115.0050 59.8906 0.0000 0.0000 0.0000
# 3 50.7582 59.8906 104.5648 0.0000 0.0000 0.0000
# 4 0.0000 0.0000 0.0000 16.4028 0.0000 0.0000
# 5 0.0000 0.0000 0.0000 0.0000 84.9655 0.0000
# 6 0.0000 0.0000 0.0000 0.0000 0.0000 25.3688
#
#
#
# Elastic Compliance Matrix: (Units=1/GPa)
#
#
# Indices 1 2 3 4 5 6 
#
# 1 0.027727 -0.006873 -0.009523 0.000000 0.000000 0.000000
# 2 -0.006873 0.014095 -0.004737 0.000000 0.000000 0.000000
# 3 -0.009523 -0.004737 0.016899 0.000000 0.000000 0.000000
# 4 0.000000 0.000000 0.000000 0.060965 0.000000 0.000000
# 5 0.000000 0.000000 0.000000 0.000000 0.011769 0.000000
# 6 0.000000 0.000000 0.000000 0.000000 0.000000 0.039419
#
#
# Mechanical properties :
#
#
# Convention : Reuss Voigt Hill
#
# Bulk Modulus (GPa) = 60.76764 67.18706 63.97735
# Shear Modulus (GPa) = 22.87020 33.71461 28.29240
#
# Velocity S-wave (km/s) = 3.64765 4.42881 4.05708
# Velocity P-wave (km/s) = 7.28654 8.07716 7.69201
#
# Compressibility (1/GPa) = 0.01645613
#
# Stress axis : x y z
#
# Youngs Moduli (GPa) = 36.06554 70.94763 59.17479
#
# Poissons Ratio (x) = 0.48762 0.56352
# Poissons Ratio (y) = 0.24788 0.28029
# Poissons Ratio (z) = 0.34345 0.33606
#
# Static dielectric constant tensor:
#      x y z
#    x 1.571650 0.000000 0.000000 
#    y 0.000000 1.570400 0.000000 
#    z 0.000000 0.000000 1.591640 
# 
# From -- ./inp_files/21333.got.cif
#   From: 2010.05.17/outbox.cif.g08.bks.cpg/sg46_11_cif.got.tgz:21333.got - 2010.06.03 19:58:25.
