data_PCOD9378668
_publ_section_title
;
Structure prediction by ZEFSAII (Michael W. Deem and Ramdas Pophale) SiO2 
 PCOD9378668
Probable space group: I M A 2
;
_chemical_formula_sum "Si O2"
_cell_formula_units_Z 64
_cell_length_a 9.684462
_cell_length_b 16.327011
_cell_length_c 21.780976
_cell_angle_alpha 90.000000
_cell_angle_beta 90.000000
_cell_angle_gamma 90.000000
_cell_volume 3443.971281
_symmetry_space_group_name_H-M "I M A 2"
_symmetry_group_IT_number 46
_symmetry_cell_setting 'orthorhombic'
loop_
_space_group_symop_operation_xyz
x,y,z
-x,-y,z
1/2-x,y,z
1/2+x,-y,z
1/2+x,1/2+y,1/2+z
1/2-x,1/2-y,1/2+z
-x,1/2+y,1/2+z
x,1/2-y,1/2+z
loop_
_atom_site_type_symbol
_atom_site_label
_atom_site_fract_x
_atom_site_fract_y
_atom_site_fract_z
Si Si1 0.595879 0.889245 0.643630
Si Si2 0.590677 0.079616 0.968210
Si Si3 0.915716 0.232552 0.436783
Si Si4 0.904262 0.699754 0.680420
Si Si5 0.093475 0.575413 0.616265
Si Si6 0.090343 0.073481 0.785988
Si Si7 0.583689 0.079764 0.526223
Si Si8 0.586883 0.741862 0.820204
O O1 0.750000 0.912847 0.620439
O O2 0.597507 0.792538 0.656694
O O3 0.579286 0.925088 0.711831
O O4 0.477798 0.909522 0.594957
O O5 0.750000 0.069324 0.947353
O O6 0.543436 0.172299 0.950931
O O7 0.500000 0.000000 0.950100
O O8 0.591357 0.079745 0.042513
O O9 0.750000 0.232914 0.429133
O O10 0.946635 0.164038 0.488743
O O11 0.993967 0.208080 0.374592
O O12 0.750000 0.665196 0.668743
O O13 0.928923 0.700688 0.753537
O O14 0.022842 0.654122 0.644689
O O15 0.250000 0.565898 0.636525
O O16 0.000000 0.500000 0.636203
O O17 0.250000 0.061469 0.801446
O O18 0.048436 0.162645 0.809878
O O19 0.000000 0.000000 0.810383
O O20 0.750000 0.068271 0.525556
O O21 0.500000 0.000000 0.501314
O O22 0.750000 0.738584 0.835609
#
# Coordination Sequence:
#
# PCOD9378668 Si02
#       8
#     8   8   8   8   8   8   8   8
#     4   9  18  33  54  80 109 139 171 210 260 318
#     4   9  19  35  54  80 112 142 174 215 262 315
#     4  10  22  39  56  76 106 142 181 225 267 310
#     4   9  18  34  54  77 106 137 171 214 263 314
#     4  10  19  32  52  78 107 137 171 212 262 319
#     4   9  18  32  50  76 108 138 168 206 253 307
#     4  11  23  38  56  80 109 140 179 226 273 321
#     4   9  20  37  54  73 100 135 176 218 258 306
#
# _framework density 18.583197999999999
#
# number of rings (size 3 to 8) (size 9 to 14) (size 15 to 20)
#    0.000    2.500    0.000    3.375    0.000    6.500 
#    0.000    5.625    0.000    1.500    0.000    0.000 
#    0.000    0.000    0.000    0.000    0.000    0.000 
#
# Total GULP energy -178414.970228 kJ/mol
# GULP energy per Si atom -5575.467820 kJ/mol
# Density = 1.854090 g / cm^3
# Si number density = 18.583198 Si / 1000 Ang^3
#
#
#
# Elastic Constant Matrix: (Units=GPa)
#
#
# Indices 1 2 3 4 5 6 
#
# 1 82.7252 39.9647 37.6760 0.0000 0.0000 0.0000
# 2 39.9647 73.2188 20.1969 0.0000 0.0000 0.0000
# 3 37.6760 20.1969 57.6205 0.0000 0.0000 0.0000
# 4 0.0000 0.0000 0.0000 -2.8535 0.0000 0.0000
# 5 0.0000 0.0000 0.0000 0.0000 28.2817 0.0000
# 6 0.0000 0.0000 0.0000 0.0000 0.0000 32.1205
#
#
#
# Elastic Compliance Matrix: (Units=1/GPa)
#
#
# Indices 1 2 3 4 5 6 
#
# 1 0.021158 -0.008560 -0.010834 0.000000 0.000000 0.000000
# 2 -0.008560 0.018583 -0.000917 0.000000 0.000000 0.000000
# 3 -0.010834 -0.000917 0.024760 0.000000 0.000000 0.000000
# 4 0.000000 0.000000 0.000000 -0.350449 0.000000 0.000000
# 5 0.000000 0.000000 0.000000 0.000000 0.035359 0.000000
# 6 0.000000 0.000000 0.000000 0.000000 0.000000 0.031133
#
#
# Mechanical properties :
#
#
# Convention : Reuss Voigt Hill
#
# Bulk Modulus (GPa) = 41.87630 45.47109 43.67369
# Shear Modulus (GPa) = -29.26081 19.22488 -5.01796
#
# Velocity S-wave (km/s) = -3.97241 3.21990 -1.64503
# Velocity P-wave (km/s) = 1.24233 6.19239 4.46593
#
# Compressibility (1/GPa) = 0.02387986
#
# Stress axis : x y z
#
# Youngs Moduli (GPa) = 47.26418 53.81341 40.38758
#
# Poissons Ratio (x) = 0.46064 0.43755
# Poissons Ratio (y) = 0.40458 0.03702
# Poissons Ratio (z) = 0.51205 0.04932
#
# Static dielectric constant tensor:
#      x y z
#    x 1.635670 0.000000 0.000000 
#    y 0.000000 1.677640 0.000000 
#    z 0.000000 0.000000 1.629050 
# 
# From -- ./inp_files/23150.got.cif
#   From: 2010.05.17/outbox.cif.g08.bks.cpg/sg46_12_cif.got.tgz:23150.got - 2010.06.03 19:58:25.
