data_PCOD9378547
_publ_section_title
;
Structure prediction by ZEFSAII (Michael W. Deem and Ramdas Pophale) SiO2 
 PCOD9378547
Probable space group: I M A 2
;
_chemical_formula_sum "Si O2"
_cell_formula_units_Z 64
_cell_length_a 7.492939
_cell_length_b 29.039504
_cell_length_c 13.050898
_cell_angle_alpha 90.000000
_cell_angle_beta 90.000000
_cell_angle_gamma 90.000000
_cell_volume 2839.760975
_symmetry_space_group_name_H-M "I M A 2"
_symmetry_group_IT_number 46
_symmetry_cell_setting 'orthorhombic'
loop_
_space_group_symop_operation_xyz
x,y,z
-x,-y,z
1/2-x,y,z
1/2+x,-y,z
1/2+x,1/2+y,1/2+z
1/2-x,1/2-y,1/2+z
-x,1/2+y,1/2+z
x,1/2-y,1/2+z
loop_
_atom_site_type_symbol
_atom_site_label
_atom_site_fract_x
_atom_site_fract_y
_atom_site_fract_z
Si Si1 0.463704 0.053396 0.955000
Si Si2 0.036911 0.048553 0.301903
Si Si3 0.531300 0.620645 0.635734
Si Si4 0.530669 0.589200 0.235260
Si Si5 0.036550 0.208855 0.247810
Si Si6 0.049560 0.435415 0.019054
Si Si7 0.037139 0.192960 0.687709
Si Si8 0.458206 0.666087 0.968521
O O1 0.250000 0.057936 0.953667
O O2 0.527624 0.065975 0.840686
O O3 0.500000 0.000000 0.980874
O O4 0.528373 0.091633 0.036726
O O5 0.250000 0.054124 0.311730
O O6 0.973213 0.090479 0.233752
O O7 0.958153 0.046631 0.416130
O O8 0.000000 0.000000 0.248963
O O9 0.750000 0.620894 0.633340
O O10 0.472705 0.672598 0.661147
O O11 0.750000 0.588999 0.231840
O O12 0.469138 0.562931 0.132240
O O13 0.472195 0.642778 0.225540
O O14 0.250000 0.211545 0.234540
O O15 0.965769 0.260736 0.239571
O O16 0.003885 0.187924 0.359940
O O17 0.250000 0.454848 0.026382
O O18 0.060094 0.381113 0.992156
O O19 0.250000 0.191402 0.703595
O O20 0.000430 0.197402 0.566541
O O21 0.250000 0.654744 0.969756
#
# Coordination Sequence:
#
# PCOD9378547 Si02
#       8
#     8   8   8   8   8   8   8   8
#     4  10  20  35  54  76 108 145 184 225 277 331
#     4  10  19  31  49  73 103 135 171 220 270 321
#     4   9  18  33  53  77 105 139 176 228 276 316
#     4   8  16  32  54  79 104 134 173 226 276 313
#     4  10  19  35  59  82 105 142 193 233 274 335
#     4   9  17  34  55  72 100 140 182 222 265 324
#     4   9  19  35  58  83 106 142 190 233 275 334
#     4  11  21  33  52  78 112 144 171 221 286 340
#
# _framework density 22.537109000000001
#
# number of rings (size 3 to 8) (size 9 to 14) (size 15 to 20)
#    0.000    2.500    1.250    2.250    0.000    2.500 
#    0.000    6.875    0.000    1.500    0.000    0.000 
#    0.000    0.000    0.000    0.000    0.000    0.000 
#
# Total GULP energy -178557.328511 kJ/mol
# GULP energy per Si atom -5579.916516 kJ/mol
# Density = 2.248581 g / cm^3
# Si number density = 22.537109 Si / 1000 Ang^3
#
#
#
# Elastic Constant Matrix: (Units=GPa)
#
#
# Indices 1 2 3 4 5 6 
#
# 1 62.9549 0.7217 -11.4541 -0.0001 0.0000 0.0000
# 2 0.7217 61.4889 16.9312 0.0000 0.0001 0.0000
# 3 -11.4541 16.9312 105.2215 -0.0002 -0.0001 0.0000
# 4 -0.0001 0.0000 -0.0002 21.4907 -0.0002 0.0000
# 5 0.0000 0.0001 -0.0001 -0.0002 -16.8603 0.0000
# 6 0.0000 0.0000 0.0000 0.0000 0.0000 6.5392
#
#
#
# Elastic Compliance Matrix: (Units=1/GPa)
#
#
# Indices 1 2 3 4 5 6 
#
# 1 0.016235 -0.000709 0.001881 0.000000 0.000000 0.000000
# 2 -0.000709 0.017048 -0.002820 0.000000 0.000000 0.000000
# 3 0.001881 -0.002820 0.010162 0.000000 0.000000 0.000000
# 4 0.000000 0.000000 0.000000 0.046532 -0.000001 0.000000
# 5 0.000000 0.000000 0.000000 -0.000001 -0.059311 0.000000
# 6 0.000000 0.000000 0.000000 0.000000 0.000000 0.152924
#
#
# Mechanical properties :
#
#
# Convention : Reuss Voigt Hill
#
# Bulk Modulus (GPa) = 24.90664 26.89588 25.90126
# Shear Modulus (GPa) = 24.96649 17.13169 21.04909
#
# Velocity S-wave (km/s) = 3.33197 2.76008 3.05942
# Velocity P-wave (km/s) = 5.08705 4.70291 4.89874
#
# Compressibility (1/GPa) = 0.04014993
#
# Stress axis : x y z
#
# Youngs Moduli (GPa) = 61.59610 58.65789 98.40224
#
# Poissons Ratio (x) = 0.04156 -0.18512
# Poissons Ratio (y) = 0.04365 0.27753
# Poissons Ratio (z) = -0.11588 0.16543
#
# Static dielectric constant tensor:
#      x y z
#    x 1.882900 0.000000 0.000000 
#    y 0.000000 1.902940 0.000000 
#    z 0.000000 0.000000 1.833130 
# 
# From -- ./inp_files/9742.got.cif
#   From: 2010.05.17/outbox.cif.g08.bks.cpg/sg46_5_cif.got.tgz:9742.got - 2010.06.03 19:58:25.
