data_PCOD9378405
_publ_section_title
;
Structure prediction by ZEFSAII (Michael W. Deem and Ramdas Pophale) SiO2 
 PCOD9378405
Probable space group: I M A 2
;
_chemical_formula_sum "Si O2"
_cell_formula_units_Z 48
_cell_length_a 28.200041
_cell_length_b 10.410168
_cell_length_c 6.997230
_cell_angle_alpha 90.000000
_cell_angle_beta 90.000000
_cell_angle_gamma 90.000000
_cell_volume 2054.156970
_symmetry_space_group_name_H-M "I M A 2"
_symmetry_group_IT_number 46
_symmetry_cell_setting 'orthorhombic'
loop_
_space_group_symop_operation_xyz
x,y,z
-x,-y,z
1/2-x,y,z
1/2+x,-y,z
1/2+x,1/2+y,1/2+z
1/2-x,1/2-y,1/2+z
-x,1/2+y,1/2+z
x,1/2-y,1/2+z
loop_
_atom_site_type_symbol
_atom_site_label
_atom_site_fract_x
_atom_site_fract_y
_atom_site_fract_z
Si Si1 0.250000 0.401799 0.039451
Si Si2 0.532792 0.300889 0.762994
Si Si3 0.103023 0.750000 0.512994
Si Si4 0.646173 0.529067 0.040577
Si Si5 0.068145 0.398668 0.762995
Si Si6 0.146174 0.470934 0.485413
Si Si7 0.250000 0.401801 0.486537
O O1 0.250000 0.436565 0.262993
O O2 0.300795 0.448767 0.966854
O O3 0.250000 0.249999 0.012995
O O4 0.589211 0.244852 0.762994
O O5 0.541223 0.250000 0.012994
O O6 0.475652 0.301542 0.762994
O O7 0.546451 0.454608 0.762994
O O8 0.132501 0.618974 0.515477
O O9 0.132502 0.881026 0.510511
O O10 0.604130 0.606398 0.939453
O O11 0.645435 0.561786 0.262995
O O12 0.104131 0.393602 0.586539
O O13 0.199206 0.448769 0.559134
#
# Coordination Sequence:
#
# PCOD9378405 Si02
#       7
#     4   8   8   8   8   8   4
#     4  10  24  43  62  88 121 160 208 255 301 369
#     4   9  18  36  54  87 121 152 201 241 296 363
#     4  10  18  37  64  88 124 157 192 260 316 364
#     4  10  21  40  63  90 123 158 203 254 311 365
#     4   9  20  37  58  82 120 164 198 240 290 362
#     4  10  21  40  63  90 123 158 203 254 311 365
#     4  10  24  43  62  88 121 160 208 255 301 369
#
# _framework density 23.367251
#
# number of rings (size 3 to 8) (size 9 to 14) (size 15 to 20)
#    0.000    2.333    1.667    0.000    2.333    0.667 
#    6.000    3.333    0.000    0.000    0.000    0.000 
#    0.000    0.000    0.000    0.000    0.000    0.000 
#
# Total GULP energy -133698.049253 kJ/mol
# GULP energy per Si atom -5570.752052 kJ/mol
# Density = 2.331407 g / cm^3
# Si number density = 23.367251 Si / 1000 Ang^3
#
#
#
# Elastic Constant Matrix: (Units=GPa)
#
#
# Indices 1 2 3 4 5 6 
#
# 1 297.4757 93.2521 93.0993 0.0000 0.0000 0.0000
# 2 93.2521 105.8342 23.5673 -0.0002 0.0000 -0.0001
# 3 93.0993 23.5673 184.7679 -0.0006 -0.0001 -0.0004
# 4 0.0000 -0.0002 -0.0006 18.7771 -0.0001 -0.0002
# 5 0.0000 0.0000 -0.0001 -0.0001 45.5603 0.0000
# 6 0.0000 -0.0001 -0.0004 -0.0002 0.0000 52.5427
#
#
#
# Elastic Compliance Matrix: (Units=1/GPa)
#
#
# Indices 1 2 3 4 5 6 
#
# 1 0.005372 -0.004251 -0.002164 0.000000 0.000000 0.000000
# 2 -0.004251 0.013089 0.000472 0.000000 0.000000 0.000000
# 3 -0.002164 0.000472 0.006443 0.000000 0.000000 0.000000
# 4 0.000000 0.000000 0.000000 0.053256 0.000000 0.000000
# 5 0.000000 0.000000 0.000000 0.000000 0.021949 0.000000
# 6 0.000000 0.000000 0.000000 0.000000 0.000000 0.019032
#
#
# Mechanical properties :
#
#
# Convention : Reuss Voigt Hill
#
# Bulk Modulus (GPa) = 76.82052 111.99057 94.40555
# Shear Modulus (GPa) = 36.93693 48.58661 42.76177
#
# Velocity S-wave (km/s) = 3.98013 4.56484 4.28248
# Velocity P-wave (km/s) = 7.35313 8.70712 8.05862
#
# Compressibility (1/GPa) = 0.01301735
#
# Stress axis : x y z
#
# Youngs Moduli (GPa) = 186.16443 76.39897 155.21920
#
# Poissons Ratio (x) = 0.32477 0.33595
# Poissons Ratio (y) = 0.79139 -0.07333
# Poissons Ratio (z) = 0.40293 -0.03609
#
# Static dielectric constant tensor:
#      x y z
#    x 1.811950 0.000000 0.000000 
#    y 0.000000 1.793110 0.000000 
#    z 0.000000 0.000000 2.665150 
# 
# From -- ./inp_files/7855.got.cif
#   From: 2010.05.17/outbox.cif.g08.bks.cpg/sg46_4_cif.got.tgz:7855.got - 2010.06.03 19:58:25.
