data_PCOD9378151
_publ_section_title
;
Structure prediction by ZEFSAII (Michael W. Deem and Ramdas Pophale) SiO2 
 PCOD9378151
Probable space group: I M A 2
;
_chemical_formula_sum "Si O2"
_cell_formula_units_Z 56
_cell_length_a 13.956616
_cell_length_b 7.152498
_cell_length_c 22.157515
_cell_angle_alpha 90.000000
_cell_angle_beta 90.000000
_cell_angle_gamma 90.000000
_cell_volume 2211.866579
_symmetry_space_group_name_H-M "I M A 2"
_symmetry_group_IT_number 46
_symmetry_cell_setting 'orthorhombic'
loop_
_space_group_symop_operation_xyz
x,y,z
-x,-y,z
1/2-x,y,z
1/2+x,-y,z
1/2+x,1/2+y,1/2+z
1/2-x,1/2-y,1/2+z
-x,1/2+y,1/2+z
x,1/2-y,1/2+z
loop_
_atom_site_type_symbol
_atom_site_label
_atom_site_fract_x
_atom_site_fract_y
_atom_site_fract_z
Si Si1 0.859283 0.296919 0.224020
Si Si2 0.519832 0.775998 0.141785
Si Si3 0.360364 0.352291 0.758485
Si Si4 0.059923 0.226613 0.513817
Si Si5 0.365620 0.432249 0.889308
Si Si6 0.364921 0.644331 0.350509
Si Si7 0.359911 0.904995 0.979045
O O1 0.750000 0.348348 0.212740
O O2 0.899881 0.398325 0.283768
O O3 0.920543 0.309585 0.164443
O O4 0.861881 0.077086 0.244981
O O5 0.584141 0.768282 0.202083
O O6 0.500000 0.000000 0.128826
O O7 0.560958 0.672260 0.083664
O O8 0.250000 0.292192 0.757949
O O9 0.396853 0.326985 0.827344
O O10 0.094031 0.115413 0.454946
O O11 0.129633 0.406036 0.515602
O O12 0.948301 0.280863 0.501590
O O13 0.250000 0.413201 0.891640
O O14 0.389246 0.647848 0.874142
O O15 0.250000 0.643432 0.342699
O O16 0.383927 0.527492 0.410356
O O17 0.250000 0.831527 0.980567
#
# Coordination Sequence:
#
# PCOD9378151 Si02
#       7
#     8   8   8   8   8   8   8
#     4   8  15  28  50  77 103 133 175 226 269 308
#     4  10  18  31  44  74 107 137 174 219 258 322
#     4   8  16  29  48  73 101 132 171 220 269 304
#     4  11  22  34  50  83 112 145 181 214 276 326
#     4   9  18  34  55  83 109 134 179 230 270 318
#     4   8  16  33  56  83 105 137 183 223 272 318
#     4  10  21  36  51  75 113 146 178 220 267 326
#
# _framework density 25.317982000000001
#
# number of rings (size 3 to 8) (size 9 to 14) (size 15 to 20)
#    0.000    2.857    1.429    2.143    2.000    2.286 
#    0.000    0.000    0.000    0.000    7.429    0.000 
#    0.000    0.000    0.000    0.000    0.000    0.000 
#
# Total GULP energy -156434.698967 kJ/mol
# GULP energy per Si atom -5586.953535 kJ/mol
# Density = 2.526036 g / cm^3
# Si number density = 25.317982 Si / 1000 Ang^3
#
#
#
# Elastic Constant Matrix: (Units=GPa)
#
#
# Indices 1 2 3 4 5 6 
#
# 1 126.6692 11.2428 61.9179 0.0000 0.0000 0.0000
# 2 11.2428 57.0221 40.7505 0.0000 0.0000 0.0000
# 3 61.9179 40.7505 235.6668 0.0000 0.0000 0.0000
# 4 0.0000 0.0000 0.0000 32.8857 0.0000 0.0000
# 5 0.0000 0.0000 0.0000 0.0000 32.7434 0.0000
# 6 0.0000 0.0000 0.0000 0.0000 0.0000 19.3218
#
#
#
# Elastic Compliance Matrix: (Units=1/GPa)
#
#
# Indices 1 2 3 4 5 6 
#
# 1 0.009058 -0.000097 -0.002363 0.000000 0.000000 0.000000
# 2 -0.000097 0.020011 -0.003435 0.000000 0.000000 0.000000
# 3 -0.002363 -0.003435 0.005458 0.000000 0.000000 0.000000
# 4 0.000000 0.000000 0.000000 0.030408 0.000000 0.000000
# 5 0.000000 0.000000 0.000000 0.000000 0.030541 0.000000
# 6 0.000000 0.000000 0.000000 0.000000 0.000000 0.051755
#
#
# Mechanical properties :
#
#
# Convention : Reuss Voigt Hill
#
# Bulk Modulus (GPa) = 43.98071 71.90896 57.94483
# Shear Modulus (GPa) = 30.01198 37.35329 33.68263
#
# Velocity S-wave (km/s) = 3.44670 3.84522 3.65140
# Velocity P-wave (km/s) = 5.76617 6.94105 6.38071
#
# Compressibility (1/GPa) = 0.02273724
#
# Stress axis : x y z
#
# Youngs Moduli (GPa) = 110.39540 49.97306 183.21515
#
# Poissons Ratio (x) = 0.00486 0.43296
# Poissons Ratio (y) = 0.01073 0.62928
# Poissons Ratio (z) = 0.26088 0.17164
#
# Static dielectric constant tensor:
#      x y z
#    x 1.997080 0.000000 0.000000 
#    y 0.000000 2.186710 0.000000 
#    z 0.000000 0.000000 1.977490 
# 
# From -- ./inp_files/22002.got.cif
#   From: 2010.05.17/outbox.cif.g08.bks.cpg/sg46_12_cif.got.tgz:22002.got - 2010.06.03 19:58:25.
