data_PCOD9378222
_publ_section_title
;
Structure prediction by ZEFSAII (Michael W. Deem and Ramdas Pophale) SiO2 
 PCOD9378222
Probable space group: I M A 2
;
_chemical_formula_sum "Si O2"
_cell_formula_units_Z 64
_cell_length_a 11.733876
_cell_length_b 29.800965
_cell_length_c 9.568097
_cell_angle_alpha 90.000000
_cell_angle_beta 90.000000
_cell_angle_gamma 90.000000
_cell_volume 3345.780081
_symmetry_space_group_name_H-M "I M A 2"
_symmetry_group_IT_number 46
_symmetry_cell_setting 'orthorhombic'
loop_
_space_group_symop_operation_xyz
x,y,z
-x,-y,z
1/2-x,y,z
1/2+x,-y,z
1/2+x,1/2+y,1/2+z
1/2-x,1/2-y,1/2+z
-x,1/2+y,1/2+z
x,1/2-y,1/2+z
loop_
_atom_site_type_symbol
_atom_site_label
_atom_site_fract_x
_atom_site_fract_y
_atom_site_fract_z
Si Si1 0.884470 0.131345 0.035890
Si Si2 0.515350 0.104481 0.759054
Si Si3 0.617022 0.716508 0.783056
Si Si4 0.475921 0.871523 0.345230
Si Si5 0.377575 0.985325 0.716553
Si Si6 0.876075 0.320695 0.095492
Si Si7 0.376317 0.434184 0.029013
Si Si8 0.513706 0.271077 0.508598
O O1 0.750000 0.122510 0.013750
O O2 0.921337 0.120408 0.194244
O O3 0.963575 0.105391 0.923830
O O4 0.912239 0.183863 0.008723
O O5 0.606036 0.067821 0.701008
O O6 0.541347 0.153543 0.700485
O O7 0.400986 0.088801 0.681119
O O8 0.750000 0.721592 0.810594
O O9 0.571848 0.667474 0.829473
O O10 0.586655 0.721185 0.620578
O O11 0.543318 0.753342 0.866967
O O12 0.386857 0.848751 0.451682
O O13 0.533138 0.914090 0.421147
O O14 0.250000 0.993974 0.776913
O O15 0.500000 0.000000 0.787731
O O16 0.380704 0.013586 0.572309
O O17 0.750000 0.322845 0.154182
O O18 0.910725 0.270156 0.063969
O O19 0.250000 0.423252 0.979749
#
# Coordination Sequence:
#
# PCOD9378222 Si02
#       8
#     8   8   8   8   8   8   8   8
#     4  11  21  35  52  77 118 152 180 226 280 334
#     4  10  20  33  55  86 110 139 182 226 278 334
#     4  10  19  33  49  67  99 136 180 233 275 316
#     4   9  20  33  50  76 102 141 186 221 272 332
#     4   9  17  31  55  84 109 135 172 222 278 333
#     4  10  18  32  51  72 101 137 185 231 262 306
#     4   9  18  36  59  81 108 140 179 227 274 328
#     4  10  21  33  48  73 100 142 189 222 268 323
#
# _framework density 19.128574
#
# number of rings (size 3 to 8) (size 9 to 14) (size 15 to 20)
#    0.000    2.250    0.000    3.375    0.000    0.000 
#    0.000   12.500    0.000   11.250    0.000   10.500 
#    0.000    0.000    0.000    0.000    0.000    0.000 
#
# Total GULP energy -178174.627450 kJ/mol
# GULP energy per Si atom -5567.957108 kJ/mol
# Density = 1.908504 g / cm^3
# Si number density = 19.128574 Si / 1000 Ang^3
#
#
#
# Elastic Constant Matrix: (Units=GPa)
#
#
# Indices 1 2 3 4 5 6 
#
# 1 66.7855 -4.3877 -9.8518 0.0001 0.0004 -0.0001
# 2 -4.3877 72.3260 11.1950 0.0002 0.0005 0.0000
# 3 -9.8518 11.1950 84.1840 -0.0007 0.0068 0.0001
# 4 0.0001 0.0002 -0.0007 12.7159 0.0000 0.0000
# 5 0.0004 0.0005 0.0068 0.0000 10.8835 0.0001
# 6 -0.0001 0.0000 0.0001 0.0000 0.0001 10.7389
#
#
#
# Elastic Compliance Matrix: (Units=1/GPa)
#
#
# Indices 1 2 3 4 5 6 
#
# 1 0.015267 0.000663 0.001698 0.000000 -0.000002 0.000000
# 2 0.000663 0.014146 -0.001803 0.000000 0.000000 0.000000
# 3 0.001698 -0.001803 0.012317 0.000001 -0.000008 0.000000
# 4 0.000000 0.000000 0.000001 0.078642 0.000000 0.000000
# 5 -0.000002 0.000000 -0.000008 0.000000 0.091883 0.000000
# 6 0.000000 0.000000 0.000000 0.000000 0.000000 0.093119
#
#
# Mechanical properties :
#
#
# Convention : Reuss Voigt Hill
#
# Bulk Modulus (GPa) = 23.33883 24.13406 23.73644
# Shear Modulus (GPa) = 15.69661 21.95698 18.82680
#
# Velocity S-wave (km/s) = 2.86769 3.39169 3.14064
# Velocity P-wave (km/s) = 4.81585 5.28982 5.05839
#
# Compressibility (1/GPa) = 0.04284705
#
# Stress axis : x y z
#
# Youngs Moduli (GPa) = 65.49890 70.69296 81.18635
#
# Poissons Ratio (x) = -0.04689 -0.13789
# Poissons Ratio (y) = -0.04345 0.14642
# Poissons Ratio (z) = -0.11125 0.12749
#
# Static dielectric constant tensor:
#      x y z
#    x 1.675970 0.000000 0.000000 
#    y 0.000000 1.694340 0.000000 
#    z 0.000000 0.000000 1.682490 
# 
# From -- ./inp_files/5006.got.cif
#   From: 2010.05.17/outbox.cif.g08.bks.cpg/sg46_3_cif.got.tgz:5006.got - 2010.06.03 19:58:25.
