data_PCOD9378797
_publ_section_title
;
Structure prediction by ZEFSAII (Michael W. Deem and Ramdas Pophale) SiO2 
 PCOD9378797
Probable space group: I M A 2
;
_chemical_formula_sum "Si O2"
_cell_formula_units_Z 64
_cell_length_a 8.960854
_cell_length_b 20.098456
_cell_length_c 20.946931
_cell_angle_alpha 90.000000
_cell_angle_beta 90.000000
_cell_angle_gamma 90.000000
_cell_volume 3772.528235
_symmetry_space_group_name_H-M "I M A 2"
_symmetry_group_IT_number 46
_symmetry_cell_setting 'orthorhombic'
loop_
_space_group_symop_operation_xyz
x,y,z
-x,-y,z
1/2-x,y,z
1/2+x,-y,z
1/2+x,1/2+y,1/2+z
1/2-x,1/2-y,1/2+z
-x,1/2+y,1/2+z
x,1/2-y,1/2+z
loop_
_atom_site_type_symbol
_atom_site_label
_atom_site_fract_x
_atom_site_fract_y
_atom_site_fract_z
Si Si1 0.572291 0.931477 0.585240
Si Si2 0.571364 0.570318 0.618515
Si Si3 0.569954 0.712687 0.042075
Si Si4 0.929554 0.789159 0.912185
Si Si5 0.571812 0.205815 0.781211
Si Si6 0.428798 0.705094 0.658193
Si Si7 0.571710 0.930317 0.736735
Si Si8 0.071634 0.430656 0.467313
O O1 0.750000 0.937549 0.579805
O O2 0.525521 0.864342 0.549579
O O3 0.538088 0.923533 0.660784
O O4 0.500000 0.000000 0.562698
O O5 0.500000 0.500000 0.637727
O O6 0.750000 0.568962 0.625158
O O7 0.501725 0.632361 0.655492
O O8 0.537027 0.579292 0.542655
O O9 0.750000 0.717422 0.051337
O O10 0.492053 0.754478 0.097734
O O11 0.535719 0.743811 0.973399
O O12 0.750000 0.788744 0.903483
O O13 0.010117 0.767289 0.847984
O O14 0.975694 0.864879 0.929613
O O15 0.750000 0.198655 0.782848
O O16 0.532986 0.253794 0.722012
O O17 0.497107 0.133958 0.769983
O O18 0.250000 0.699840 0.653829
O O19 0.750000 0.931948 0.745222
O O20 0.500000 0.000000 0.758288
O O21 0.250000 0.436142 0.461936
O O22 0.000000 0.500000 0.446118
#
# Coordination Sequence:
#
# PCOD9378797 Si02
#       8
#     8   8   8   8   8   8   8   8
#     4   9  18  31  53  81 109 138 173 220 270 322
#     4  10  19  34  56  83 113 141 177 224 273 323
#     4  10  19  36  58  81 107 141 183 226 272 327
#     4  10  21  37  55  76 106 144 186 225 270 325
#     4  11  24  38  52  77 112 147 187 228 269 321
#     4  11  22  35  55  82 110 143 183 227 272 320
#     4  10  19  33  54  78 108 146 184 221 269 322
#     4   9  18  32  51  76 106 140 176 216 258 315
#
# _framework density 16.964751
#
# number of rings (size 3 to 8) (size 9 to 14) (size 15 to 20)
#    0.000    2.000    2.500    1.500    0.000    4.500 
#    0.000    1.250    0.000    0.750    0.000    3.500 
#    0.000    0.000    0.000    0.000    0.000    0.000 
#
# Total GULP energy -178654.511335 kJ/mol
# GULP energy per Si atom -5582.953479 kJ/mol
# Density = 1.692614 g / cm^3
# Si number density = 16.964751 Si / 1000 Ang^3
#
#
#
# Elastic Constant Matrix: (Units=GPa)
#
#
# Indices 1 2 3 4 5 6 
#
# 1 37.9724 44.2660 47.6617 0.0000 0.0000 0.0000
# 2 44.2660 131.5151 62.8959 0.0000 0.0000 0.0000
# 3 47.6617 62.8959 100.6906 0.0000 0.0000 0.0000
# 4 0.0000 0.0000 0.0000 19.5904 0.0000 0.0000
# 5 0.0000 0.0000 0.0000 0.0000 14.0698 0.0000
# 6 0.0000 0.0000 0.0000 0.0000 0.0000 31.6829
#
#
#
# Elastic Compliance Matrix: (Units=1/GPa)
#
#
# Indices 1 2 3 4 5 6 
#
# 1 0.076139 -0.011966 -0.028566 0.000000 0.000000 0.000000
# 2 -0.011966 0.012723 -0.002284 0.000000 0.000000 0.000000
# 3 -0.028566 -0.002284 0.024879 0.000000 0.000000 0.000000
# 4 0.000000 0.000000 0.000000 0.051045 0.000000 0.000000
# 5 0.000000 0.000000 0.000000 0.000000 0.071074 0.000000
# 6 0.000000 0.000000 0.000000 0.000000 0.000000 0.031563
#
#
# Mechanical properties :
#
#
# Convention : Reuss Voigt Hill
#
# Bulk Modulus (GPa) = 35.57306 64.42502 49.99904
# Shear Modulus (GPa) = 13.79599 20.75891 17.27745
#
# Velocity S-wave (km/s) = 2.85479 3.50187 3.19475
# Velocity P-wave (km/s) = 5.64630 7.37625 6.56848
#
# Compressibility (1/GPa) = 0.02811116
#
# Stress axis : x y z
#
# Youngs Moduli (GPa) = 13.13394 78.59593 40.19413
#
# Poissons Ratio (x) = 0.94047 1.14817
# Poissons Ratio (y) = 0.15716 0.09178
# Poissons Ratio (z) = 0.37518 0.17948
#
# Static dielectric constant tensor:
#      x y z
#    x 1.565720 0.000000 0.000000 
#    y 0.000000 1.567840 0.000000 
#    z 0.000000 0.000000 1.569930 
# 
# From -- ./inp_files/18560.got.cif
#   From: 2010.05.17/outbox.cif.g08.bks.cpg/sg46_10_cif.got.tgz:18560.got - 2010.06.03 19:58:25.
