data_PCOD9378690
_publ_section_title
;
Structure prediction by ZEFSAII (Michael W. Deem and Ramdas Pophale) SiO2 
 PCOD9378690
Probable space group: I M A 2
;
_chemical_formula_sum "Si O2"
_cell_formula_units_Z 56
_cell_length_a 8.802412
_cell_length_b 14.460760
_cell_length_c 23.380512
_cell_angle_alpha 90.000000
_cell_angle_beta 90.000000
_cell_angle_gamma 90.000000
_cell_volume 2976.095257
_symmetry_space_group_name_H-M "I M A 2"
_symmetry_group_IT_number 46
_symmetry_cell_setting 'orthorhombic'
loop_
_space_group_symop_operation_xyz
x,y,z
-x,-y,z
1/2-x,y,z
1/2+x,-y,z
1/2+x,1/2+y,1/2+z
1/2-x,1/2-y,1/2+z
-x,1/2+y,1/2+z
x,1/2-y,1/2+z
loop_
_atom_site_type_symbol
_atom_site_label
_atom_site_fract_x
_atom_site_fract_y
_atom_site_fract_z
Si Si1 0.932534 0.292237 0.525100
Si Si2 0.578038 0.643813 0.639780
Si Si3 0.066113 0.405366 0.055171
Si Si4 0.067381 0.798070 0.792661
Si Si5 0.569199 0.093886 0.256585
Si Si6 0.579235 0.642444 0.179404
Si Si7 0.433178 0.602328 0.408468
O O1 0.750000 0.286211 0.530583
O O2 0.972503 0.341476 0.465712
O O3 0.999148 0.351103 0.578217
O O4 0.002498 0.189111 0.528192
O O5 0.750000 0.606322 0.636646
O O6 0.481625 0.598750 0.690266
O O7 0.589118 0.750443 0.660094
O O8 0.250000 0.404134 0.054087
O O9 0.014717 0.402585 0.121994
O O10 0.000000 0.500000 0.029542
O O11 0.250000 0.796559 0.792173
O O12 0.016712 0.691052 0.784621
O O13 0.014912 0.843327 0.851673
O O14 0.012891 0.856861 0.737915
O O15 0.750000 0.089706 0.260112
O O16 0.500000 0.000000 0.281818
O O17 0.750000 0.607479 0.189822
O O18 0.500000 0.500000 0.409857
O O19 0.250000 0.596330 0.406292
#
# Coordination Sequence:
#
# PCOD9378690 Si02
#       7
#     8   8   8   8   8   8   8
#     4  10  20  36  56  78 109 145 182 225 271 318
#     4   9  17  31  51  76 107 139 175 216 260 312
#     4  10  20  34  54  82 114 146 181 220 267 323
#     4   9  19  36  55  76 106 142 178 219 266 315
#     4  10  19  32  53  80 110 143 178 216 265 323
#     4   8  16  30  49  75 105 137 172 212 257 306
#     4  10  23  41  59  79 103 136 179 226 272 319
#
# _framework density 18.816602
#
# number of rings (size 3 to 8) (size 9 to 14) (size 15 to 20)
#    0.000    2.571    0.000    2.571    0.000    7.429 
#    0.000    5.000    0.000    1.714    0.000    0.000 
#    0.000    0.000    0.000    0.000    0.000    0.000 
#
# Total GULP energy -156113.934432 kJ/mol
# GULP energy per Si atom -5575.497658 kJ/mol
# Density = 1.877377 g / cm^3
# Si number density = 18.816602 Si / 1000 Ang^3
#
#
#
# Elastic Constant Matrix: (Units=GPa)
#
#
# Indices 1 2 3 4 5 6 
#
# 1 44.9922 31.0601 39.0166 0.0000 0.0000 0.0000
# 2 31.0601 124.2298 62.8539 0.0000 0.0000 0.0000
# 3 39.0166 62.8539 136.4424 0.0000 0.0000 0.0000
# 4 0.0000 0.0000 0.0000 18.0471 0.0000 0.0000
# 5 0.0000 0.0000 0.0000 0.0000 20.2325 0.0000
# 6 0.0000 0.0000 0.0000 0.0000 0.0000 26.7139
#
#
#
# Elastic Compliance Matrix: (Units=1/GPa)
#
#
# Indices 1 2 3 4 5 6 
#
# 1 0.031213 -0.004287 -0.006951 0.000000 0.000000 0.000000
# 2 -0.004287 0.011085 -0.003880 0.000000 0.000000 0.000000
# 3 -0.006951 -0.003880 0.011104 0.000000 0.000000 0.000000
# 4 0.000000 0.000000 0.000000 0.055411 0.000000 0.000000
# 5 0.000000 0.000000 0.000000 0.000000 0.049425 0.000000
# 6 0.000000 0.000000 0.000000 0.000000 0.000000 0.037434
#
#
# Mechanical properties :
#
#
# Convention : Reuss Voigt Hill
#
# Bulk Modulus (GPa) = 43.16736 63.50285 53.33510
# Shear Modulus (GPa) = 21.40133 24.51430 22.95782
#
# Velocity S-wave (km/s) = 3.37614 3.61335 3.49676
# Velocity P-wave (km/s) = 6.17970 7.15751 6.68650
#
# Compressibility (1/GPa) = 0.02316565
#
# Stress axis : x y z
#
# Youngs Moduli (GPa) = 32.03764 90.21385 90.05582
#
# Poissons Ratio (x) = 0.38677 0.62595
# Poissons Ratio (y) = 0.13736 0.34945
# Poissons Ratio (z) = 0.22268 0.35006
#
# Static dielectric constant tensor:
#      x y z
#    x 1.653350 0.000000 0.000000 
#    y 0.000000 1.681240 0.000000 
#    z 0.000000 0.000000 1.637360 
# 
# From -- ./inp_files/21068.got.cif
#   From: 2010.05.17/outbox.cif.g08.bks.cpg/sg46_11_cif.got.tgz:21068.got - 2010.06.03 19:58:25.
