data_PCOD9378653
_publ_section_title
;
Structure prediction by ZEFSAII (Michael W. Deem and Ramdas Pophale) SiO2 
 PCOD9378653
Probable space group: I M A 2
;
_chemical_formula_sum "Si O2"
_cell_formula_units_Z 64
_cell_length_a 8.890898
_cell_length_b 14.592117
_cell_length_c 24.787899
_cell_angle_alpha 90.000000
_cell_angle_beta 90.000000
_cell_angle_gamma 90.000000
_cell_volume 3215.908244
_symmetry_space_group_name_H-M "I M A 2"
_symmetry_group_IT_number 46
_symmetry_cell_setting 'orthorhombic'
loop_
_space_group_symop_operation_xyz
x,y,z
-x,-y,z
1/2-x,y,z
1/2+x,-y,z
1/2+x,1/2+y,1/2+z
1/2-x,1/2-y,1/2+z
-x,1/2+y,1/2+z
x,1/2-y,1/2+z
loop_
_atom_site_type_symbol
_atom_site_label
_atom_site_fract_x
_atom_site_fract_y
_atom_site_fract_z
Si Si1 0.571593 0.899343 0.133750
Si Si2 0.568614 0.098816 0.793248
Si Si3 0.579203 0.660427 0.405326
Si Si4 0.917934 0.879121 0.406675
Si Si5 0.072651 0.595974 0.016933
Si Si6 0.921197 0.241220 0.216109
Si Si7 0.069135 0.296988 0.522826
Si Si8 0.419497 0.578459 0.798038
O O1 0.750000 0.907581 0.142150
O O2 0.510364 0.817491 0.172004
O O3 0.541907 0.862684 0.073205
O O4 0.500000 0.000000 0.140877
O O5 0.750000 0.099350 0.793260
O O6 0.512903 0.126756 0.853501
O O7 0.518252 0.167187 0.744835
O O8 0.500000 0.000000 0.782344
O O9 0.750000 0.621969 0.402527
O O10 0.588693 0.770034 0.401278
O O11 0.517808 0.653723 0.466839
O O12 0.750000 0.911874 0.420945
O O13 0.035005 0.903930 0.453043
O O14 0.975974 0.910874 0.349489
O O15 0.250000 0.595955 0.027304
O O16 0.000000 0.500000 0.038244
O O17 0.001656 0.695469 0.032801
O O18 0.750000 0.257654 0.196346
O O19 0.913589 0.172141 0.266459
O O20 0.250000 0.282810 0.516740
O O21 0.500000 0.500000 0.763248
O O22 0.250000 0.553096 0.812043
#
# Coordination Sequence:
#
# PCOD9378653 Si02
#       8
#     8   8   8   8   8   8   8   8
#     4  11  24  43  69  95 125 161 205 257 312 372
#     4  11  23  40  62  91 125 161 203 252 305 370
#     4   9  18  35  59  86 121 161 201 248 302 358
#     4  10  19  32  51  78 115 157 198 244 294 356
#     4  11  21  34  55  83 119 163 205 249 302 362
#     4  10  23  42  62  86 121 158 202 256 305 363
#     4   9  21  41  62  91 126 163 209 259 309 365
#     4  11  21  33  50  78 113 151 196 244 296 355
#
# _framework density 19.901066
#
# number of rings (size 3 to 8) (size 9 to 14) (size 15 to 20)
#    0.000    1.750    1.250    4.125    0.000    6.500 
#    0.000    1.875    0.000    1.500    0.000    0.000 
#    0.000    0.000    0.000    0.000    0.000    0.000 
#
# Total GULP energy -178398.885602 kJ/mol
# GULP energy per Si atom -5574.965175 kJ/mol
# Density = 1.985577 g / cm^3
# Si number density = 19.901066 Si / 1000 Ang^3
#
#
#
# Elastic Constant Matrix: (Units=GPa)
#
#
# Indices 1 2 3 4 5 6 
#
# 1 75.0158 42.6129 44.9522 0.0000 0.0000 0.0000
# 2 42.6129 124.9504 59.3097 0.0000 0.0000 0.0000
# 3 44.9522 59.3097 107.3467 0.0000 0.0000 0.0000
# 4 0.0000 0.0000 0.0000 13.2004 0.0000 0.0000
# 5 0.0000 0.0000 0.0000 0.0000 15.5411 0.0000
# 6 0.0000 0.0000 0.0000 0.0000 0.0000 30.9188
#
#
#
# Elastic Compliance Matrix: (Units=1/GPa)
#
#
# Indices 1 2 3 4 5 6 
#
# 1 0.018952 -0.003655 -0.005917 0.000000 0.000000 0.000000
# 2 -0.003655 0.011553 -0.004853 0.000000 0.000000 0.000000
# 3 -0.005917 -0.004853 0.014475 0.000000 0.000000 0.000000
# 4 0.000000 0.000000 0.000000 0.075755 0.000000 0.000000
# 5 0.000000 0.000000 0.000000 0.000000 0.064345 0.000000
# 6 0.000000 0.000000 0.000000 0.000000 0.000000 0.032343
#
#
# Mechanical properties :
#
#
# Convention : Reuss Voigt Hill
#
# Bulk Modulus (GPa) = 61.99326 66.78473 64.38899
# Shear Modulus (GPa) = 19.86891 22.62794 21.24842
#
# Velocity S-wave (km/s) = 3.16315 3.37563 3.27112
# Velocity P-wave (km/s) = 6.67526 6.98745 6.83313
#
# Compressibility (1/GPa) = 0.01613079
#
# Stress axis : x y z
#
# Youngs Moduli (GPa) = 52.76371 86.55775 69.08680
#
# Poissons Ratio (x) = 0.31635 0.40880
# Poissons Ratio (y) = 0.19284 0.33525
# Poissons Ratio (z) = 0.31221 0.42003
#
# Static dielectric constant tensor:
#      x y z
#    x 1.719650 0.000000 0.000000 
#    y 0.000000 1.747400 0.000000 
#    z 0.000000 0.000000 1.728770 
# 
# From -- ./inp_files/23226.got.cif
#   From: 2010.05.17/outbox.cif.g08.bks.cpg/sg46_12_cif.got.tgz:23226.got - 2010.06.03 19:58:25.
