data_PCOD9378954
_publ_section_title
;
Structure prediction by ZEFSAII (Michael W. Deem and Ramdas Pophale) SiO2 
 PCOD9378954
Probable space group: I M A 2
;
_chemical_formula_sum "Si O2"
_cell_formula_units_Z 64
_cell_length_a 8.523366
_cell_length_b 25.524675
_cell_length_c 15.506218
_cell_angle_alpha 90.000000
_cell_angle_beta 90.000000
_cell_angle_gamma 90.000000
_cell_volume 3373.473043
_symmetry_space_group_name_H-M "I M A 2"
_symmetry_group_IT_number 46
_symmetry_cell_setting 'orthorhombic'
loop_
_space_group_symop_operation_xyz
x,y,z
-x,-y,z
1/2-x,y,z
1/2+x,-y,z
1/2+x,1/2+y,1/2+z
1/2-x,1/2-y,1/2+z
-x,1/2+y,1/2+z
x,1/2-y,1/2+z
loop_
_atom_site_type_symbol
_atom_site_label
_atom_site_fract_x
_atom_site_fract_y
_atom_site_fract_z
Si Si1 0.438571 0.651528 0.327510
Si Si2 0.937997 0.942501 0.943534
Si Si3 0.937888 0.218135 0.163963
Si Si4 0.935913 0.765542 0.355248
Si Si5 0.437386 0.441297 0.803418
Si Si6 0.939315 0.608865 0.622195
Si Si7 0.940113 0.164793 0.631307
Si Si8 0.936836 0.135281 0.449540
O O1 0.250000 0.655605 0.329166
O O2 0.494348 0.601816 0.380923
O O3 0.508103 0.705717 0.364422
O O4 0.490220 0.647833 0.226976
O O5 0.750000 0.941878 0.938555
O O6 0.984476 0.926838 0.041273
O O7 0.000000 0.000000 0.922352
O O8 0.750000 0.217593 0.176075
O O9 0.981926 0.273758 0.122075
O O10 0.019059 0.217683 0.257663
O O11 0.991235 0.166947 0.113308
O O12 0.750000 0.769546 0.367341
O O13 0.022811 0.806452 0.416553
O O14 0.500000 0.500000 0.811363
O O15 0.250000 0.442663 0.800091
O O16 0.493359 0.415515 0.713212
O O17 0.488560 0.405517 0.883380
O O18 0.750000 0.612796 0.624017
O O19 0.750000 0.162368 0.630671
O O20 0.994864 0.132474 0.548467
O O21 0.750000 0.127888 0.447610
#
# Coordination Sequence:
#
# PCOD9378954 Si02
#       8
#     8   8   8   8   8   8   8   8
#     4  10  21  41  64  87 116 156 200 252 304 357
#     4  11  24  42  62  89 119 157 203 252 304 359
#     4  10  19  34  57  86 118 159 200 236 290 354
#     4  11  21  35  55  86 123 158 194 241 294 355
#     4  11  23  40  60  85 118 158 200 244 294 354
#     4  10  22  38  57  85 123 158 195 243 297 356
#     4   8  19  37  58  86 119 152 195 245 296 352
#     4  11  21  37  60  88 119 156 199 247 295 354
#
# _framework density 18.971547000000001
#
# number of rings (size 3 to 8) (size 9 to 14) (size 15 to 20)
#    0.000    1.750    1.250    4.125    1.750    1.500 
#    0.000    7.500    0.000    0.000    0.000    0.000 
#    0.000    0.000    0.000    0.000    0.000    0.000 
#
# Total GULP energy -178774.532979 kJ/mol
# GULP energy per Si atom -5586.704156 kJ/mol
# Density = 1.892837 g / cm^3
# Si number density = 18.971547 Si / 1000 Ang^3
#
#
#
# Elastic Constant Matrix: (Units=GPa)
#
#
# Indices 1 2 3 4 5 6 
#
# 1 35.6070 15.2867 10.4043 0.0000 0.0000 0.0000
# 2 15.2867 115.1379 54.5006 0.0000 0.0000 0.0000
# 3 10.4043 54.5006 94.2812 0.0001 0.0000 0.0000
# 4 0.0000 0.0000 0.0001 26.4709 0.0000 0.0000
# 5 0.0000 0.0000 0.0000 0.0000 20.4472 0.0000
# 6 0.0000 0.0000 0.0000 0.0000 0.0000 34.1439
#
#
#
# Elastic Compliance Matrix: (Units=1/GPa)
#
#
# Indices 1 2 3 4 5 6 
#
# 1 0.029913 -0.003316 -0.001384 0.000000 0.000000 0.000000
# 2 -0.003316 0.012325 -0.006758 0.000000 0.000000 0.000000
# 3 -0.001384 -0.006758 0.014666 0.000000 0.000000 0.000000
# 4 0.000000 0.000000 0.000000 0.037777 0.000000 0.000000
# 5 0.000000 0.000000 0.000000 0.000000 0.048907 0.000000
# 6 0.000000 0.000000 0.000000 0.000000 0.000000 0.029288
#
#
# Mechanical properties :
#
#
# Convention : Reuss Voigt Hill
#
# Bulk Modulus (GPa) = 29.42402 45.04548 37.23475
# Shear Modulus (GPa) = 24.14046 27.20135 25.67091
#
# Velocity S-wave (km/s) = 3.57102 3.79066 3.68248
# Velocity P-wave (km/s) = 5.70492 6.55393 6.14411
#
# Compressibility (1/GPa) = 0.03398584
#
# Stress axis : x y z
#
# Youngs Moduli (GPa) = 33.43079 81.13799 68.18433
#
# Poissons Ratio (x) = 0.26908 0.09436
# Poissons Ratio (y) = 0.11087 0.46082
# Poissons Ratio (z) = 0.04626 0.54837
#
# Static dielectric constant tensor:
#      x y z
#    x 1.645220 0.000000 0.000000 
#    y 0.000000 1.624210 0.000000 
#    z 0.000000 0.000000 1.683930 
# 
# From -- ./inp_files/14550.got.cif
#   From: 2010.05.17/outbox.cif.g08.bks.cpg/sg46_8_cif.got.tgz:14550.got - 2010.06.03 19:58:25.
