data_PCOD9378900
_publ_section_title
;
Structure prediction by ZEFSAII (Michael W. Deem and Ramdas Pophale) SiO2 
 PCOD9378900
Probable space group: I M A 2
;
_chemical_formula_sum "Si O2"
_cell_formula_units_Z 48
_cell_length_a 17.829042
_cell_length_b 8.465464
_cell_length_c 17.480446
_cell_angle_alpha 90.000000
_cell_angle_beta 90.000000
_cell_angle_gamma 90.000000
_cell_volume 2638.343174
_symmetry_space_group_name_H-M "I M A 2"
_symmetry_group_IT_number 46
_symmetry_cell_setting 'orthorhombic'
loop_
_space_group_symop_operation_xyz
x,y,z
-x,-y,z
1/2-x,y,z
1/2+x,-y,z
1/2+x,1/2+y,1/2+z
1/2-x,1/2-y,1/2+z
-x,1/2+y,1/2+z
x,1/2-y,1/2+z
loop_
_atom_site_type_symbol
_atom_site_label
_atom_site_fract_x
_atom_site_fract_y
_atom_site_fract_z
Si Si1 0.065026 0.619340 0.433660
Si Si2 0.551856 0.346598 0.070483
Si Si3 0.419957 0.570103 0.686191
Si Si4 0.661492 0.557496 0.989312
Si Si5 0.159921 0.406106 0.544964
Si Si6 0.159844 0.868495 0.342689
O O1 0.029551 0.736630 0.497989
O O2 0.127573 0.520802 0.479890
O O3 0.109061 0.721747 0.371171
O O4 0.000000 0.500000 0.406368
O O5 0.500000 0.500000 0.081079
O O6 0.562147 0.234711 0.142959
O O7 0.630247 0.421439 0.043782
O O8 0.500000 0.500000 0.710767
O O9 0.381510 0.457843 0.622634
O O10 0.365280 0.589991 0.757584
O O11 0.750000 0.554577 0.990890
O O12 0.639675 0.728603 0.020073
O O13 0.639789 0.509148 0.902834
O O14 0.250000 0.420067 0.552249
O O15 0.250000 0.839493 0.347397
#
# Coordination Sequence:
#
# PCOD9378900 Si02
#       6
#     8   8   8   8   8   8
#     4  10  20  34  57  85 109 141 188 234 278 331
#     4  10  19  34  55  79 109 141 181 228 271 325
#     4  11  23  36  54  81 112 147 187 232 283 333
#     4   9  19  35  58  82 104 138 183 224 269 327
#     4  10  19  36  60  83 110 145 185 230 278 334
#     4  10  22  39  56  80 115 152 186 228 283 338
#
# _framework density 18.193235999999999
#
# number of rings (size 3 to 8) (size 9 to 14) (size 15 to 20)
#    0.000    2.000    0.000    5.000    0.000    9.333 
#    0.000    1.667    0.000    2.000    0.000    0.000 
#    0.000    0.000    0.000    0.000    0.000    0.000 
#
# Total GULP energy -133867.237144 kJ/mol
# GULP energy per Si atom -5577.801548 kJ/mol
# Density = 1.815183 g / cm^3
# Si number density = 18.193236 Si / 1000 Ang^3
#
#
#
# Elastic Constant Matrix: (Units=GPa)
#
#
# Indices 1 2 3 4 5 6 
#
# 1 82.0682 43.2596 27.4037 0.0000 0.0000 0.0000
# 2 43.2596 118.6291 50.2930 0.0000 0.0000 0.0000
# 3 27.4037 50.2930 90.3113 0.0000 0.0000 0.0000
# 4 0.0000 0.0000 0.0000 18.0213 0.0000 0.0000
# 5 0.0000 0.0000 0.0000 0.0000 13.6205 0.0000
# 6 0.0000 0.0000 0.0000 0.0000 0.0000 32.5007
#
#
#
# Elastic Compliance Matrix: (Units=1/GPa)
#
#
# Indices 1 2 3 4 5 6 
#
# 1 0.015360 -0.004746 -0.002018 0.000000 0.000000 0.000000
# 2 -0.004746 0.012501 -0.005522 0.000000 0.000000 0.000000
# 3 -0.002018 -0.005522 0.014760 0.000000 0.000000 0.000000
# 4 0.000000 0.000000 0.000000 0.055490 0.000000 0.000000
# 5 0.000000 0.000000 0.000000 0.000000 0.073419 0.000000
# 6 0.000000 0.000000 0.000000 0.000000 0.000000 0.030769
#
#
# Mechanical properties :
#
#
# Convention : Reuss Voigt Hill
#
# Bulk Modulus (GPa) = 55.39963 59.21348 57.30656
# Shear Modulus (GPa) = 21.46962 24.16530 22.81746
#
# Velocity S-wave (km/s) = 3.43897 3.64848 3.54527
# Velocity P-wave (km/s) = 6.80334 7.09691 6.95168
#
# Compressibility (1/GPa) = 0.01805066
#
# Stress axis : x y z
#
# Youngs Moduli (GPa) = 65.10222 79.99242 67.75023
#
# Poissons Ratio (x) = 0.37963 0.13672
# Poissons Ratio (y) = 0.30896 0.37409
# Poissons Ratio (z) = 0.13138 0.44169
#
# Static dielectric constant tensor:
#      x y z
#    x 1.637450 0.000000 0.000000 
#    y 0.000000 1.641060 0.000000 
#    z 0.000000 0.000000 1.592970 
# 
# From -- ./inp_files/16559.got.cif
#   From: 2010.05.17/outbox.cif.g08.bks.cpg/sg46_9_cif.got.tgz:16559.got - 2010.06.03 19:58:25.
