data_PCOD9378510
_publ_section_title
;
Structure prediction by ZEFSAII (Michael W. Deem and Ramdas Pophale) SiO2 
 PCOD9378510
Probable space group: I M A 2
;
_chemical_formula_sum "Si O2"
_cell_formula_units_Z 64
_cell_length_a 8.799063
_cell_length_b 13.828349
_cell_length_c 23.547738
_cell_angle_alpha 90.000000
_cell_angle_beta 90.000000
_cell_angle_gamma 90.000000
_cell_volume 2865.206673
_symmetry_space_group_name_H-M "I M A 2"
_symmetry_group_IT_number 46
_symmetry_cell_setting 'orthorhombic'
loop_
_space_group_symop_operation_xyz
x,y,z
-x,-y,z
1/2-x,y,z
1/2+x,-y,z
1/2+x,1/2+y,1/2+z
1/2-x,1/2-y,1/2+z
-x,1/2+y,1/2+z
x,1/2-y,1/2+z
loop_
_atom_site_type_symbol
_atom_site_label
_atom_site_fract_x
_atom_site_fract_y
_atom_site_fract_z
Si Si1 0.080831 0.372515 0.152660
Si Si2 0.432733 0.690765 0.794982
Si Si3 0.573172 0.599647 0.447542
Si Si4 0.066401 0.692741 0.919646
Si Si5 0.422250 0.142322 0.177008
Si Si6 0.435062 0.098328 0.776374
Si Si7 0.580136 0.371502 0.562353
Si Si8 0.580407 0.359410 0.039077
O O1 0.250000 0.412655 0.152867
O O2 0.089241 0.256358 0.160883
O O3 0.004646 0.402623 0.211177
O O4 0.007406 0.396998 0.093255
O O5 0.250000 0.693778 0.787966
O O6 0.469430 0.649874 0.857762
O O7 0.506404 0.639231 0.740074
O O8 0.499306 0.800052 0.797837
O O9 0.500000 0.500000 0.426783
O O10 0.750000 0.602471 0.434094
O O11 0.495446 0.697676 0.425216
O O12 0.542569 0.599415 0.515417
O O13 0.250000 0.698354 0.924459
O O14 0.011370 0.635773 0.975856
O O15 0.250000 0.103241 0.176587
O O16 0.527500 0.104860 0.125969
O O17 0.250000 0.100997 0.778291
O O18 0.500000 0.000000 0.802689
O O19 0.750000 0.409474 0.550230
O O20 0.590311 0.255606 0.553065
O O21 0.750000 0.400097 0.037806
#
# Coordination Sequence:
#
# PCOD9378510 Si02
#       8
#     8   8   8   8   8   8   8   8
#     4   8  15  26  40  59  81 103 130 169 213 255
#     4  10  19  31  46  62  85 118 151 183 219 256
#     4  11  21  32  46  63  86 117 151 186 223 261
#     4   9  19  33  45  61  86 116 151 185 215 256
#     4   9  16  27  43  64  87 109 139 178 219 261
#     4  10  20  32  44  60  84 113 147 183 216 256
#     4   9  16  28  45  64  85 109 140 177 220 265
#     4   8  14  25  42  61  80 103 133 171 212 254
#
# _framework density 22.336959
#
# number of rings (size 3 to 8) (size 9 to 14) (size 15 to 20)
#    0.000    2.750    0.000    4.125    0.000    8.000 
#    0.000    0.000    0.000    0.000    0.000    0.000 
#    0.000    1.000    0.000    6.500    0.000    6.500 
#
# Total GULP energy -178473.462338 kJ/mol
# GULP energy per Si atom -5577.295698 kJ/mol
# Density = 2.228612 g / cm^3
# Si number density = 22.336959 Si / 1000 Ang^3
#
#
#
# Elastic Constant Matrix: (Units=GPa)
#
#
# Indices 1 2 3 4 5 6 
#
# 1 58.2139 -7.8374 32.8080 0.0000 0.0000 0.0000
# 2 -7.8374 28.1648 -9.2909 0.0000 0.0000 0.0000
# 3 32.8080 -9.2909 206.4128 0.0000 0.0000 0.0000
# 4 0.0000 0.0000 0.0000 -11.7480 0.0000 0.0000
# 5 0.0000 0.0000 0.0000 0.0000 23.1701 0.0000
# 6 0.0000 0.0000 0.0000 0.0000 0.0000 9.3184
#
#
#
# Elastic Compliance Matrix: (Units=1/GPa)
#
#
# Indices 1 2 3 4 5 6 
#
# 1 0.019402 0.004448 -0.002884 0.000000 0.000000 0.000000
# 2 0.004448 0.037060 0.000961 0.000000 0.000000 0.000000
# 3 -0.002884 0.000961 0.005346 0.000000 0.000000 0.000000
# 4 0.000000 0.000000 0.000000 -0.085121 0.000000 0.000000
# 5 0.000000 0.000000 0.000000 0.000000 0.043159 0.000000
# 6 0.000000 0.000000 0.000000 0.000000 0.000000 0.107314
#
#
# Mechanical properties :
#
#
# Convention : Reuss Voigt Hill
#
# Bulk Modulus (GPa) = 14.95689 36.01676 25.48682
# Shear Modulus (GPa) = 34.62681 22.62222 28.62451
#
# Velocity S-wave (km/s) = 3.94153 3.18586 3.58367
# Velocity P-wave (km/s) = 5.23687 5.44906 5.34402
#
# Compressibility (1/GPa) = 0.06685884
#
# Stress axis : x y z
#
# Youngs Moduli (GPa) = 51.54114 26.98324 187.04670
#
# Poissons Ratio (x) = -0.12001 0.53937
# Poissons Ratio (y) = -0.22924 -0.17979
# Poissons Ratio (z) = 0.14863 -0.02594
#
# Static dielectric constant tensor:
#      x y z
#    x 1.771950 0.000000 0.000000 
#    y 0.000000 1.872560 0.000000 
#    z 0.000000 0.000000 1.874210 
# 
# From -- ./inp_files/23300.got.cif
#   From: 2010.05.17/outbox.cif.g08.bks.cpg/sg46_12_cif.got.tgz:23300.got - 2010.06.03 19:58:25.
