data_PCOD9378170
_publ_section_title
;
Structure prediction by ZEFSAII (Michael W. Deem and Ramdas Pophale) SiO2 
 PCOD9378170
Probable space group: I M A 2
;
_chemical_formula_sum "Si O2"
_cell_formula_units_Z 48
_cell_length_a 19.419771
_cell_length_b 9.460374
_cell_length_c 15.732721
_cell_angle_alpha 90.000000
_cell_angle_beta 90.000000
_cell_angle_gamma 90.000000
_cell_volume 2890.388704
_symmetry_space_group_name_H-M "I M A 2"
_symmetry_group_IT_number 46
_symmetry_cell_setting 'orthorhombic'
loop_
_space_group_symop_operation_xyz
x,y,z
-x,-y,z
1/2-x,y,z
1/2+x,-y,z
1/2+x,1/2+y,1/2+z
1/2-x,1/2-y,1/2+z
-x,1/2+y,1/2+z
x,1/2-y,1/2+z
loop_
_atom_site_type_symbol
_atom_site_label
_atom_site_fract_x
_atom_site_fract_y
_atom_site_fract_z
Si Si1 0.439885 0.196479 0.987150
Si Si2 0.574166 0.928798 0.617214
Si Si3 0.331983 0.699099 0.156003
Si Si4 0.434559 0.107318 0.806376
Si Si5 0.597636 0.374451 0.514682
Si Si6 0.831509 0.136614 0.842179
O O1 0.439073 0.214469 0.884863
O O2 0.408297 0.322154 0.041829
O O3 0.519281 0.179266 0.015456
O O4 0.405281 0.044437 0.006395
O O5 0.566233 0.848123 0.708179
O O6 0.500000 0.000000 0.600105
O O7 0.628737 0.054717 0.629991
O O8 0.250000 0.684152 0.145618
O O9 0.361947 0.820544 0.096336
O O10 0.345990 0.724297 0.256294
O O11 0.500000 0.000000 0.816594
O O12 0.366351 0.014314 0.821637
O O13 0.633509 0.314926 0.429304
O O14 0.750000 0.125746 0.853392
#
# Coordination Sequence:
#
# PCOD9378170 Si02
#       6
#     8   8   8   8   8   8
#     4  10  18  31  52  77 102 128 168 213 251 293
#     4  10  19  32  54  74 101 136 169 208 255 293
#     4  10  20  34  52  76 103 134 172 209 248 302
#     4   9  16  31  50  69  98 135 170 205 241 298
#     4  10  18  31  51  75 103 130 164 210 253 298
#     4   9  17  30  50  73  96 132 173 203 243 300
#
# _framework density 16.606763000000001
#
# number of rings (size 3 to 8) (size 9 to 14) (size 15 to 20)
#    0.000    2.333    5.000    0.500    0.000    0.000 
#    0.000    5.833    3.667    0.000    0.000    0.000 
#    0.000    0.000    0.000    0.000    0.000    0.000 
#
# Total GULP energy -133628.035576 kJ/mol
# GULP energy per Si atom -5567.834816 kJ/mol
# Density = 1.656897 g / cm^3
# Si number density = 16.606763 Si / 1000 Ang^3
#
#
#
# Elastic Constant Matrix: (Units=GPa)
#
#
# Indices 1 2 3 4 5 6 
#
# 1 68.6213 18.6103 34.7849 0.0000 0.0000 0.0000
# 2 18.6103 34.1587 36.3955 0.0000 0.0000 0.0000
# 3 34.7849 36.3955 119.5764 0.0000 0.0000 0.0000
# 4 0.0000 0.0000 0.0000 32.6258 0.0000 0.0000
# 5 0.0000 0.0000 0.0000 0.0000 22.6756 0.0000
# 6 0.0000 0.0000 0.0000 0.0000 0.0000 14.4999
#
#
#
# Elastic Compliance Matrix: (Units=1/GPa)
#
#
# Indices 1 2 3 4 5 6 
#
# 1 0.017949 -0.006239 -0.003322 0.000000 0.000000 0.000000
# 2 -0.006239 0.045494 -0.012032 0.000000 0.000000 0.000000
# 3 -0.003322 -0.012032 0.012992 0.000000 0.000000 0.000000
# 4 0.000000 0.000000 0.000000 0.030651 0.000000 0.000000
# 5 0.000000 0.000000 0.000000 0.000000 0.044100 0.000000
# 6 0.000000 0.000000 0.000000 0.000000 0.000000 0.068966
#
#
# Mechanical properties :
#
#
# Convention : Reuss Voigt Hill
#
# Bulk Modulus (GPa) = 30.07724 44.65975 37.36850
# Shear Modulus (GPa) = 18.22014 22.79796 20.50905
#
# Velocity S-wave (km/s) = 3.31592 3.70917 3.51804
# Velocity P-wave (km/s) = 5.72811 6.73014 6.24924
#
# Compressibility (1/GPa) = 0.03324773
#
# Stress axis : x y z
#
# Youngs Moduli (GPa) = 55.71368 21.98071 76.97281
#
# Poissons Ratio (x) = 0.13714 0.25573
# Poissons Ratio (y) = 0.34760 0.92615
# Poissons Ratio (z) = 0.18510 0.26448
#
# Static dielectric constant tensor:
#      x y z
#    x 1.555840 0.000000 0.000000 
#    y 0.000000 1.545120 0.000000 
#    z 0.000000 0.000000 1.605670 
# 
# From -- ./inp_files/16628.got.cif
#   From: 2010.05.17/outbox.cif.g08.bks.cpg/sg46_9_cif.got.tgz:16628.got - 2010.06.03 19:58:25.
