data_PCOD9378866
_publ_section_title
;
Structure prediction by ZEFSAII (Michael W. Deem and Ramdas Pophale) SiO2 
 PCOD9378866
Probable space group: I M A 2
;
_chemical_formula_sum "Si O2"
_cell_formula_units_Z 48
_cell_length_a 15.305647
_cell_length_b 17.557992
_cell_length_c 7.784439
_cell_angle_alpha 90.000000
_cell_angle_beta 90.000000
_cell_angle_gamma 90.000000
_cell_volume 2091.962328
_symmetry_space_group_name_H-M "I M A 2"
_symmetry_group_IT_number 46
_symmetry_cell_setting 'orthorhombic'
loop_
_space_group_symop_operation_xyz
x,y,z
-x,-y,z
1/2-x,y,z
1/2+x,-y,z
1/2+x,1/2+y,1/2+z
1/2-x,1/2-y,1/2+z
-x,1/2+y,1/2+z
x,1/2-y,1/2+z
loop_
_atom_site_type_symbol
_atom_site_label
_atom_site_fract_x
_atom_site_fract_y
_atom_site_fract_z
Si Si1 0.655809 0.583726 0.078300
Si Si2 0.154580 0.950975 0.847501
Si Si3 0.024288 0.293638 0.593692
Si Si4 0.347332 0.276899 0.309251
Si Si5 0.577194 0.062087 0.206106
Si Si6 0.461176 0.618689 0.057254
O O1 0.750000 0.568098 0.985951
O O2 0.656978 0.531089 0.247441
O O3 0.659730 0.670570 0.142164
O O4 0.555752 0.580168 0.016575
O O5 0.250000 0.913869 0.821697
O O6 0.080114 0.905697 0.740221
O O7 0.140590 0.962511 0.050748
O O8 0.084611 0.316041 0.434825
O O9 0.097001 0.294314 0.745537
O O10 0.955085 0.356352 0.637138
O O11 0.979005 0.210453 0.565199
O O12 0.250000 0.265495 0.374204
O O13 0.600189 0.084203 0.404289
O O14 0.500000 0.000000 0.201722
#
# Coordination Sequence:
#
# PCOD9378866 Si02
#       6
#     8   8   8   8   8   8
#     4   9  19  38  65  97 131 167 206 257 326 408
#     4  11  24  43  67  94 130 175 227 284 335 377
#     4  11  21  39  58  89 129 169 216 263 325 390
#     4  10  19  33  57  89 127 164 202 249 319 402
#     4  12  24  41  69 100 129 171 222 271 332 397
#     4  11  23  42  68  93 135 180 219 268 331 392
#
# _framework density 22.944962
#
# number of rings (size 3 to 8) (size 9 to 14) (size 15 to 20)
#    0.000    1.333    1.667    6.000    0.000    1.333 
#    0.000    2.500    0.000    1.000    0.000    0.000 
#    0.000    0.000    0.000    0.000    0.000    0.000 
#
# Total GULP energy -133641.721008 kJ/mol
# GULP energy per Si atom -5568.405042 kJ/mol
# Density = 2.289274 g / cm^3
# Si number density = 22.944962 Si / 1000 Ang^3
#
#
#
# Elastic Constant Matrix: (Units=GPa)
#
#
# Indices 1 2 3 4 5 6 
#
# 1 83.2232 13.1918 20.1067 0.0000 0.0000 0.0000
# 2 13.1918 75.0032 1.5321 0.0000 0.0000 0.0000
# 3 20.1067 1.5321 87.7377 0.0000 0.0000 0.0000
# 4 0.0000 0.0000 0.0000 27.1499 0.0000 0.0000
# 5 0.0000 0.0000 0.0000 0.0000 19.7034 0.0000
# 6 0.0000 0.0000 0.0000 0.0000 0.0000 12.5636
#
#
#
# Elastic Compliance Matrix: (Units=1/GPa)
#
#
# Indices 1 2 3 4 5 6 
#
# 1 0.013086 -0.002241 -0.002960 0.000000 0.000000 0.000000
# 2 -0.002241 0.013721 0.000274 0.000000 0.000000 0.000000
# 3 -0.002960 0.000274 0.012071 0.000000 0.000000 0.000000
# 4 0.000000 0.000000 0.000000 0.036832 0.000000 0.000000
# 5 0.000000 0.000000 0.000000 0.000000 0.050753 0.000000
# 6 0.000000 0.000000 0.000000 0.000000 0.000000 0.079595
#
#
# Mechanical properties :
#
#
# Convention : Reuss Voigt Hill
#
# Bulk Modulus (GPa) = 34.45341 35.06948 34.76145
# Shear Modulus (GPa) = 22.16430 25.95895 24.06162
#
# Velocity S-wave (km/s) = 3.11139 3.36721 3.24183
# Velocity P-wave (km/s) = 5.28734 5.51678 5.40328
#
# Compressibility (1/GPa) = 0.02902470
#
# Stress axis : x y z
#
# Youngs Moduli (GPa) = 76.41625 72.87917 82.84240
#
# Poissons Ratio (x) = 0.16334 0.24520
# Poissons Ratio (y) = 0.17126 -0.02270
# Poissons Ratio (z) = 0.22618 -0.01997
#
# Static dielectric constant tensor:
#      x y z
#    x 1.913660 0.000000 0.000000 
#    y 0.000000 2.007660 0.000000 
#    z 0.000000 0.000000 2.040340 
# 
# From -- ./inp_files/5700.got.cif
#   From: 2010.05.17/outbox.cif.g08.bks.cpg/sg46_3_cif.got.tgz:5700.got - 2010.06.03 19:58:25.
