data_PCOD9378838
_publ_section_title
;
Structure prediction by ZEFSAII (Michael W. Deem and Ramdas Pophale) SiO2 
 PCOD9378838
Probable space group: I M A 2
;
_chemical_formula_sum "Si O2"
_cell_formula_units_Z 48
_cell_length_a 21.809603
_cell_length_b 11.434994
_cell_length_c 10.378405
_cell_angle_alpha 90.000000
_cell_angle_beta 90.000000
_cell_angle_gamma 90.000000
_cell_volume 2588.298231
_symmetry_space_group_name_H-M "I M A 2"
_symmetry_group_IT_number 46
_symmetry_cell_setting 'orthorhombic'
loop_
_space_group_symop_operation_xyz
x,y,z
-x,-y,z
1/2-x,y,z
1/2+x,-y,z
1/2+x,1/2+y,1/2+z
1/2-x,1/2-y,1/2+z
-x,1/2+y,1/2+z
x,1/2-y,1/2+z
loop_
_atom_site_type_symbol
_atom_site_label
_atom_site_fract_x
_atom_site_fract_y
_atom_site_fract_z
Si Si1 0.428641 0.499968 0.069140
Si Si2 0.985575 0.641193 0.436343
Si Si3 0.448645 0.774534 0.676507
Si Si4 0.929729 0.033131 0.265768
Si Si5 0.316821 0.130736 0.238418
Si Si6 0.637834 0.765003 0.505171
O O1 0.500000 0.500000 0.108797
O O2 0.406590 0.613673 0.145384
O O3 0.395905 0.376013 0.073905
O O4 0.428927 0.528263 0.918875
O O5 0.914454 0.673354 0.458560
O O6 0.000000 0.500000 0.442281
O O7 0.018421 0.721636 0.547519
O O8 0.006986 0.691511 0.296938
O O9 0.412718 0.661971 0.723565
O O10 0.877557 0.946813 0.218918
O O11 0.000000 0.000000 0.226982
O O12 0.250000 0.071615 0.243277
O O13 0.328187 0.192883 0.376017
O O14 0.319196 0.213996 0.114948
#
# Coordination Sequence:
#
# PCOD9378838 Si02
#       6
#     8   8   8   8   8   8
#     4  10  19  33  55  84 126 160 187 247 311 360
#     4  12  24  34  58  94 131 164 200 256 318 370
#     4  12  20  36  54  89 131 156 203 253 309 371
#     4  10  20  38  59  86 121 158 198 248 309 363
#     4  11  24  41  64  87 121 164 209 255 310 371
#     4  11  22  39  59  88 123 164 208 253 305 375
#
# _framework density 18.545003000000001
#
# number of rings (size 3 to 8) (size 9 to 14) (size 15 to 20)
#    0.000    1.000    3.333    6.500    2.333    0.000 
#    0.000    0.000    0.000    5.000    0.000    0.000 
#    0.000    0.000    0.000    0.000    0.000    0.000 
#
# Total GULP energy -133715.621654 kJ/mol
# GULP energy per Si atom -5571.484236 kJ/mol
# Density = 1.850279 g / cm^3
# Si number density = 18.545003 Si / 1000 Ang^3
#
#
#
# Elastic Constant Matrix: (Units=GPa)
#
#
# Indices 1 2 3 4 5 6 
#
# 1 94.0226 40.9728 26.1056 0.0000 0.0000 0.0000
# 2 40.9728 112.8836 36.5814 0.0000 0.0000 0.0000
# 3 26.1056 36.5814 99.8608 0.0000 0.0000 0.0000
# 4 0.0000 0.0000 0.0000 39.9318 0.0000 0.0000
# 5 0.0000 0.0000 0.0000 0.0000 -3.8057 0.0000
# 6 0.0000 0.0000 0.0000 0.0000 0.0000 -13.4414
#
#
#
# Elastic Compliance Matrix: (Units=1/GPa)
#
#
# Indices 1 2 3 4 5 6 
#
# 1 0.012940 -0.004085 -0.001886 0.000000 0.000000 0.000000
# 2 -0.004085 0.011342 -0.003087 0.000000 0.000000 0.000000
# 3 -0.001886 -0.003087 0.011638 0.000000 0.000000 0.000000
# 4 0.000000 0.000000 0.000000 0.025043 0.000000 0.000000
# 5 0.000000 0.000000 0.000000 0.000000 -0.262764 0.000000
# 6 0.000000 0.000000 0.000000 0.000000 0.000000 -0.074397
#
#
# Mechanical properties :
#
#
# Convention : Reuss Voigt Hill
#
# Bulk Modulus (GPa) = 56.17123 57.12072 56.64598
# Shear Modulus (GPa) = -19.82968 18.07741 -0.87613
#
# Velocity S-wave (km/s) = -3.27352 3.12554 -0.68809
# Velocity P-wave (km/s) = 4.00836 6.62521 5.47542
#
# Compressibility (1/GPa) = 0.01780271
#
# Stress axis : x y z
#
# Youngs Moduli (GPa) = 77.28115 88.16889 85.92711
#
# Poissons Ratio (x) = 0.36021 0.16207
# Poissons Ratio (y) = 0.31573 0.26524
# Poissons Ratio (z) = 0.14576 0.27216
#
# Static dielectric constant tensor:
#      x y z
#    x 1.647660 0.000000 0.000000 
#    y 0.000000 1.732420 0.000000 
#    z 0.000000 0.000000 1.673230 
# 
# From -- ./inp_files/12351.got.cif
#   From: 2010.05.17/outbox.cif.g08.bks.cpg/sg46_7_cif.got.tgz:12351.got - 2010.06.03 19:58:25.
