data_PCOD9378220
_publ_section_title
;
Structure prediction by ZEFSAII (Michael W. Deem and Ramdas Pophale) SiO2 
 PCOD9378220
Probable space group: I M A 2
;
_chemical_formula_sum "Si O2"
_cell_formula_units_Z 36
_cell_length_a 19.209804
_cell_length_b 9.931468
_cell_length_c 8.879232
_cell_angle_alpha 90.000000
_cell_angle_beta 90.000000
_cell_angle_gamma 90.000000
_cell_volume 1693.993677
_symmetry_space_group_name_H-M "I M A 2"
_symmetry_group_IT_number 46
_symmetry_cell_setting 'orthorhombic'
loop_
_space_group_symop_operation_xyz
x,y,z
-x,-y,z
1/2-x,y,z
1/2+x,-y,z
1/2+x,1/2+y,1/2+z
1/2-x,1/2-y,1/2+z
-x,1/2+y,1/2+z
x,1/2-y,1/2+z
loop_
_atom_site_type_symbol
_atom_site_label
_atom_site_fract_x
_atom_site_fract_y
_atom_site_fract_z
Si Si1 0.250000 0.943134 0.809280
Si Si2 0.250000 0.664119 0.650204
Si Si3 0.981685 0.309995 0.208525
Si Si4 0.500000 0.000000 0.436096
Si Si5 0.102684 0.046888 0.861694
Si Si6 0.102649 0.536005 0.697561
O O1 0.250000 0.822662 0.687947
O O2 0.181589 0.034920 0.806706
O O3 0.250000 0.866002 0.971354
O O4 0.180098 0.594723 0.713746
O O5 0.056788 0.339018 0.282264
O O6 0.931538 0.404646 0.309700
O O7 0.949686 0.163848 0.190767
O O8 0.982326 0.376341 0.044189
O O9 0.431149 0.034914 0.340827
O O10 0.099313 0.047655 0.042884
#
# Coordination Sequence:
#
# PCOD9378220 Si02
#       6
#     4   4   8   4   8   8
#     4  10  18  32  50  81 112 141 178 229 277 329
#     4  10  22  30  58  83 108 145 174 231 299 309
#     4  10  20  34  52  80 109 148 184 216 279 326
#     4  10  22  32  54  80 110 148 180 222 272 326
#     4   9  19  32  51  78 110 143 177 219 274 325
#     4  11  20  37  55  83 115 140 182 228 274 330
#
# _framework density 21.251556000000001
#
# number of rings (size 3 to 8) (size 9 to 14) (size 15 to 20)
#    0.000    2.222    2.222    2.667    3.111    0.000 
#    0.000    0.000    0.000    1.333    0.000   23.333 
#    0.000    0.000    0.000    0.000    0.000    0.000 
#
# Total GULP energy -100561.398103 kJ/mol
# GULP energy per Si atom -5586.744339 kJ/mol
# Density = 2.120319 g / cm^3
# Si number density = 21.251556 Si / 1000 Ang^3
#
#
#
# Elastic Constant Matrix: (Units=GPa)
#
#
# Indices 1 2 3 4 5 6 
#
# 1 182.5582 19.4091 34.2261 0.0000 0.0000 0.0000
# 2 19.4091 41.3046 -1.7450 0.0000 0.0000 0.0000
# 3 34.2261 -1.7450 70.9151 0.0000 0.0000 0.0000
# 4 0.0000 0.0000 0.0000 12.4340 0.0000 0.0000
# 5 0.0000 0.0000 0.0000 0.0000 25.5269 0.0000
# 6 0.0000 0.0000 0.0000 0.0000 0.0000 25.0419
#
#
#
# Elastic Compliance Matrix: (Units=1/GPa)
#
#
# Indices 1 2 3 4 5 6 
#
# 1 0.006406 -0.003144 -0.003169 0.000000 0.000000 0.000000
# 2 -0.003144 0.025779 0.002152 0.000000 0.000000 0.000000
# 3 -0.003169 0.002152 0.015684 0.000000 0.000000 0.000000
# 4 0.000000 0.000000 0.000000 0.080425 0.000000 0.000000
# 5 0.000000 0.000000 0.000000 0.000000 0.039174 0.000000
# 6 0.000000 0.000000 0.000000 0.000000 0.000000 0.039933
#
#
# Mechanical properties :
#
#
# Convention : Reuss Voigt Hill
#
# Bulk Modulus (GPa) = 25.28719 44.28425 34.78572
# Shear Modulus (GPa) = 21.84303 28.79307 25.31805
#
# Velocity S-wave (km/s) = 3.20946 3.68485 3.45534
# Velocity P-wave (km/s) = 5.06547 6.24400 5.68535
#
# Compressibility (1/GPa) = 0.03954571
#
# Stress axis : x y z
#
# Youngs Moduli (GPa) = 156.10010 38.79163 63.75969
#
# Poissons Ratio (x) = 0.12197 0.20207
# Poissons Ratio (y) = 0.49080 -0.13720
# Poissons Ratio (z) = 0.49471 -0.08347
#
# Static dielectric constant tensor:
#      x y z
#    x 1.780200 0.000000 0.000000 
#    y 0.000000 1.794880 0.000000 
#    z 0.000000 0.000000 1.802910 
# 
# From -- ./inp_files/7226.got.cif
#   From: 2010.05.17/outbox.cif.g08.bks.cpg/sg46_4_cif.got.tgz:7226.got - 2010.06.03 19:58:25.
