data_PCOD9378716
_publ_section_title
;
Structure prediction by ZEFSAII (Michael W. Deem and Ramdas Pophale) SiO2 
 PCOD9378716
Probable space group: I M A 2
;
_chemical_formula_sum "Si O2"
_cell_formula_units_Z 64
_cell_length_a 8.830318
_cell_length_b 33.396153
_cell_length_c 11.986189
_cell_angle_alpha 90.000000
_cell_angle_beta 90.000000
_cell_angle_gamma 90.000000
_cell_volume 3534.710966
_symmetry_space_group_name_H-M "I M A 2"
_symmetry_group_IT_number 46
_symmetry_cell_setting 'orthorhombic'
loop_
_space_group_symop_operation_xyz
x,y,z
-x,-y,z
1/2-x,y,z
1/2+x,-y,z
1/2+x,1/2+y,1/2+z
1/2-x,1/2-y,1/2+z
-x,1/2+y,1/2+z
x,1/2-y,1/2+z
loop_
_atom_site_type_symbol
_atom_site_label
_atom_site_fract_x
_atom_site_fract_y
_atom_site_fract_z
Si Si1 0.432695 0.455851 0.455150
Si Si2 0.928995 0.724528 0.945939
Si Si3 0.070213 0.456627 0.201716
Si Si4 0.433030 0.851157 0.315979
Si Si5 0.068944 0.811403 0.906081
Si Si6 0.421434 0.685823 0.147972
Si Si7 0.432276 0.374897 0.577621
Si Si8 0.921477 0.100556 0.525835
O O1 0.500000 0.500000 0.478534
O O2 0.250000 0.459042 0.458268
O O3 0.477782 0.444015 0.327661
O O4 0.477139 0.419751 0.537517
O O5 0.750000 0.727319 0.927617
O O6 0.998700 0.690116 0.865514
O O7 0.009407 0.766804 0.928071
O O8 0.966131 0.711503 0.072776
O O9 0.250000 0.459203 0.202802
O O10 0.000000 0.500000 0.183595
O O11 0.018720 0.428278 0.102118
O O12 0.250000 0.847860 0.316986
O O13 0.494187 0.861901 0.194497
O O14 0.475784 0.886611 0.403060
O O15 0.250000 0.813633 0.923401
O O16 0.036400 0.819215 0.775994
O O17 0.987441 0.843431 0.984602
O O18 0.250000 0.703137 0.142204
O O19 0.415859 0.642597 0.090992
O O20 0.250000 0.373607 0.586201
O O21 0.750000 0.084612 0.517534
#
# Coordination Sequence:
#
# PCOD9378716 Si02
#       8
#     8   8   8   8   8   8   8   8
#     4   9  20  37  58  86 120 154 190 238 292 350
#     4  11  23  38  58  83 114 149 189 241 294 341
#     4  10  19  32  54  84 116 148 182 228 286 343
#     4  10  22  41  61  81 112 155 198 238 288 353
#     4  11  23  38  59  84 114 152 193 237 286 347
#     4   9  20  38  58  80 107 144 187 228 278 340
#     4  11  23  39  59  88 120 152 197 248 297 349
#     4   9  18  35  57  80 107 140 184 232 278 335
#
# _framework density 18.106148999999998
#
# number of rings (size 3 to 8) (size 9 to 14) (size 15 to 20)
#    0.000    2.000    0.000    4.125    1.750    5.000 
#    0.000    0.625    0.000    1.500    0.000    0.000 
#    0.000    0.000    0.000    0.000    0.000    0.000 
#
# Total GULP energy -178585.944452 kJ/mol
# GULP energy per Si atom -5580.810764 kJ/mol
# Density = 1.806494 g / cm^3
# Si number density = 18.106149 Si / 1000 Ang^3
#
#
#
# Elastic Constant Matrix: (Units=GPa)
#
#
# Indices 1 2 3 4 5 6 
#
# 1 42.1995 21.4246 39.4658 0.0002 0.0000 0.0000
# 2 21.4246 76.7576 57.4771 0.0006 0.0002 0.0000
# 3 39.4658 57.4771 135.0180 0.0016 0.0016 0.0001
# 4 0.0002 0.0006 0.0016 88.6741 -0.0021 -0.0001
# 5 0.0000 0.0002 0.0016 -0.0021 1.0909 -0.0003
# 6 0.0000 0.0000 0.0001 -0.0001 -0.0003 28.1729
#
#
#
# Elastic Compliance Matrix: (Units=1/GPa)
#
#
# Indices 1 2 3 4 5 6 
#
# 1 0.033053 -0.002923 -0.008417 0.000000 0.000014 0.000000
# 2 -0.002923 0.019383 -0.007397 0.000000 0.000007 0.000000
# 3 -0.008417 -0.007397 0.013016 0.000000 -0.000018 0.000000
# 4 0.000000 0.000000 0.000000 0.011277 0.000022 0.000000
# 5 0.000014 0.000007 -0.000018 0.000022 0.916634 0.000009
# 6 0.000000 0.000000 0.000000 0.000000 0.000009 0.035495
#
#
# Mechanical properties :
#
#
# Convention : Reuss Voigt Hill
#
# Bulk Modulus (GPa) = 35.74313 54.52337 45.13325
# Shear Modulus (GPa) = 4.64832 32.62810 18.63821
#
# Velocity S-wave (km/s) = 1.60401 4.24966 3.21188
# Velocity P-wave (km/s) = 4.81811 7.36600 6.22383
#
# Compressibility (1/GPa) = 0.02797741
#
# Stress axis : x y z
#
# Youngs Moduli (GPa) = 30.25470 51.59233 76.83104
#
# Poissons Ratio (x) = 0.15080 0.64669
# Poissons Ratio (y) = 0.08843 0.56831
# Poissons Ratio (z) = 0.25466 0.38162
#
# Static dielectric constant tensor:
#      x y z
#    x 1.675560 0.000000 0.000000 
#    y 0.000000 1.543120 0.000000 
#    z 0.000000 0.000000 1.627410 
# 
# From -- ./inp_files/9723.got.cif
#   From: 2010.05.17/outbox.cif.g08.bks.cpg/sg46_5_cif.got.tgz:9723.got - 2010.06.03 19:58:25.
