data_PCOD9378630
_publ_section_title
;
Structure prediction by ZEFSAII (Michael W. Deem and Ramdas Pophale) SiO2 
 PCOD9378630
Probable space group: I M A 2
;
_chemical_formula_sum "Si O2"
_cell_formula_units_Z 56
_cell_length_a 8.711369
_cell_length_b 15.737930
_cell_length_c 20.560085
_cell_angle_alpha 90.000000
_cell_angle_beta 90.000000
_cell_angle_gamma 90.000000
_cell_volume 2818.765357
_symmetry_space_group_name_H-M "I M A 2"
_symmetry_group_IT_number 46
_symmetry_cell_setting 'orthorhombic'
loop_
_space_group_symop_operation_xyz
x,y,z
-x,-y,z
1/2-x,y,z
1/2+x,-y,z
1/2+x,1/2+y,1/2+z
1/2-x,1/2-y,1/2+z
-x,1/2+y,1/2+z
x,1/2-y,1/2+z
loop_
_atom_site_type_symbol
_atom_site_label
_atom_site_fract_x
_atom_site_fract_y
_atom_site_fract_z
Si Si1 0.567532 0.316990 0.879670
Si Si2 0.925852 0.423665 0.273761
Si Si3 0.074336 0.086208 0.040381
Si Si4 0.566478 0.247622 0.593686
Si Si5 0.427702 0.727482 0.736558
Si Si6 0.065969 0.405592 0.006363
Si Si7 0.078237 0.140476 0.898479
O O1 0.750000 0.333619 0.880025
O O2 0.512190 0.315669 0.803492
O O3 0.536506 0.220005 0.901827
O O4 0.487869 0.375642 0.933831
O O5 0.750000 0.443020 0.289029
O O6 0.927608 0.329282 0.245757
O O7 0.000000 0.500000 0.232649
O O8 0.031334 0.413581 0.336733
O O9 0.250000 0.097203 0.063248
O O10 0.972923 0.168856 0.053115
O O11 0.079433 0.084250 0.962339
O O12 0.000000 0.000000 0.066391
O O13 0.750000 0.233445 0.598649
O O14 0.502573 0.276674 0.664748
O O15 0.494648 0.165203 0.558161
O O16 0.250000 0.698728 0.732231
O O17 0.250000 0.406868 0.008695
O O18 0.000000 0.500000 0.019170
O O19 0.250000 0.176818 0.890607
#
# Coordination Sequence:
#
# PCOD9378630 Si02
#       7
#     8   8   8   8   8   8   8
#     4  10  19  37  63  90 120 156 199 250 308 365
#     4  10  19  32  50  77 113 148 191 238 290 354
#     4  11  23  37  56  85 119 154 197 244 295 359
#     4  11  22  41  65  90 124 164 205 257 317 376
#     4   8  19  37  59  85 116 157 202 249 309 376
#     4  12  25  42  64  95 129 168 219 269 319 379
#     4  10  19  32  53  82 117 149 186 233 286 347
#
# _framework density 19.866855000000001
#
# number of rings (size 3 to 8) (size 9 to 14) (size 15 to 20)
#    0.000    1.714    1.429    4.714    0.000    3.429 
#    0.000   10.714    0.000    0.000    0.000    0.000 
#    0.000    0.000    0.000    0.000    0.000    0.000 
#
# Total GULP energy -155966.453135 kJ/mol
# GULP energy per Si atom -5570.230469 kJ/mol
# Density = 1.982164 g / cm^3
# Si number density = 19.866855 Si / 1000 Ang^3
#
#
#
# Elastic Constant Matrix: (Units=GPa)
#
#
# Indices 1 2 3 4 5 6 
#
# 1 78.2019 15.3109 23.4413 0.0000 0.0000 0.0000
# 2 15.3109 75.7099 5.7098 0.0000 0.0000 0.0000
# 3 23.4413 5.7098 87.1444 0.0000 0.0000 0.0000
# 4 0.0000 0.0000 0.0000 4.2620 0.0000 0.0000
# 5 0.0000 0.0000 0.0000 0.0000 4.2659 0.0000
# 6 0.0000 0.0000 0.0000 0.0000 0.0000 29.1155
#
#
#
# Elastic Compliance Matrix: (Units=1/GPa)
#
#
# Indices 1 2 3 4 5 6 
#
# 1 0.014414 -0.002636 -0.003705 0.000000 0.000000 0.000000
# 2 -0.002636 0.013756 -0.000192 0.000000 0.000000 0.000000
# 3 -0.003705 -0.000192 0.012484 0.000000 0.000000 0.000000
# 4 0.000000 0.000000 0.000000 0.234631 0.000000 0.000000
# 5 0.000000 0.000000 0.000000 0.000000 0.234418 0.000000
# 6 0.000000 0.000000 0.000000 0.000000 0.000000 0.034346
#
#
# Mechanical properties :
#
#
# Convention : Reuss Voigt Hill
#
# Bulk Modulus (GPa) = 36.24623 36.66447 36.45535
# Shear Modulus (GPa) = 8.82908 20.63496 14.73202
#
# Velocity S-wave (km/s) = 2.11040 3.22632 2.72607
# Velocity P-wave (km/s) = 4.92164 5.68982 5.31961
#
# Compressibility (1/GPa) = 0.02758908
#
# Stress axis : x y z
#
# Youngs Moduli (GPa) = 69.37755 72.69655 80.10050
#
# Poissons Ratio (x) = 0.19160 0.29674
# Poissons Ratio (y) = 0.18285 0.01541
# Poissons Ratio (z) = 0.25701 0.01398
#
# Static dielectric constant tensor:
#      x y z
#    x 1.710600 0.000000 0.000000 
#    y 0.000000 1.694800 0.000000 
#    z 0.000000 0.000000 1.764350 
# 
# From -- ./inp_files/21058.got.cif
#   From: 2010.05.17/outbox.cif.g08.bks.cpg/sg46_11_cif.got.tgz:21058.got - 2010.06.03 19:58:25.
