data_PCOD9378468
_publ_section_title
;
Structure prediction by ZEFSAII (Michael W. Deem and Ramdas Pophale) SiO2 
 PCOD9378468
Probable space group: I M A 2
;
_chemical_formula_sum "Si O2"
_cell_formula_units_Z 48
_cell_length_a 7.333773
_cell_length_b 21.051505
_cell_length_c 15.087536
_cell_angle_alpha 90.000000
_cell_angle_beta 90.000000
_cell_angle_gamma 90.000000
_cell_volume 2329.318802
_symmetry_space_group_name_H-M "I M A 2"
_symmetry_group_IT_number 46
_symmetry_cell_setting 'orthorhombic'
loop_
_space_group_symop_operation_xyz
x,y,z
-x,-y,z
1/2-x,y,z
1/2+x,-y,z
1/2+x,1/2+y,1/2+z
1/2-x,1/2-y,1/2+z
-x,1/2+y,1/2+z
x,1/2-y,1/2+z
loop_
_atom_site_type_symbol
_atom_site_label
_atom_site_fract_x
_atom_site_fract_y
_atom_site_fract_z
Si Si1 0.472056 0.731852 0.823490
Si Si2 0.532838 0.072546 0.633489
Si Si3 0.527617 0.380132 0.323491
Si Si4 0.032838 0.572546 0.513492
Si Si5 0.027587 0.688854 0.631708
Si Si6 0.972413 0.188853 0.515271
O O1 0.250000 0.731504 0.823490
O O2 0.524768 0.806028 0.823491
O O3 0.531842 0.698736 0.732735
O O4 0.531842 0.698735 0.914244
O O5 0.750000 0.081594 0.637516
O O6 0.464364 0.086837 0.732986
O O7 0.465097 0.125004 0.564110
O O8 0.500000 0.000000 0.608192
O O9 0.750000 0.381946 0.323491
O O10 0.464364 0.413164 0.413995
O O11 0.250000 0.581594 0.509465
O O12 0.965097 0.625005 0.582871
O O13 0.000000 0.500000 0.538790
O O14 0.250000 0.688337 0.632904
O O15 0.974554 0.750000 0.573489
O O16 0.750000 0.188336 0.514075
#
# Coordination Sequence:
#
# PCOD9378468 Si02
#       6
#     8   8   8   8   8   8
#     4   9  14  23  42  69  91 108 145 198 232 250
#     4  10  19  30  45  68  95 121 148 181 225 272
#     4   9  15  25  44  69  93 114 143 188 231 264
#     4  10  19  30  45  68  95 121 148 181 225 272
#     4   9  15  25  43  66  90 115 148 189 226 259
#     4   9  15  25  43  66  90 115 148 189 226 259
#
# _framework density 20.606881999999999
#
# number of rings (size 3 to 8) (size 9 to 14) (size 15 to 20)
#    0.000    2.667    3.333    0.500    0.000    0.000 
#    0.000    0.833    0.000    1.000    0.000    0.000 
#    0.000    0.000    0.000    0.000    0.000    0.000 
#
# Total GULP energy -134048.752446 kJ/mol
# GULP energy per Si atom -5585.364685 kJ/mol
# Density = 2.055998 g / cm^3
# Si number density = 20.606882 Si / 1000 Ang^3
#
#
#
# Elastic Constant Matrix: (Units=GPa)
#
#
# Indices 1 2 3 4 5 6 
#
# 1 78.4517 -2.6091 4.8147 0.0000 0.0000 0.0000
# 2 -2.6091 198.0574 115.7432 0.0000 0.0000 0.0000
# 3 4.8147 115.7432 195.8391 0.0000 0.0000 0.0000
# 4 0.0000 0.0000 0.0000 25.4611 0.0000 0.0000
# 5 0.0000 0.0000 0.0000 0.0000 -7.5665 0.0000
# 6 0.0000 0.0000 0.0000 0.0000 0.0000 7.3213
#
#
#
# Elastic Compliance Matrix: (Units=1/GPa)
#
#
# Indices 1 2 3 4 5 6 
#
# 1 0.012803 0.000539 -0.000633 0.000000 0.000000 0.000000
# 2 0.000539 0.007736 -0.004585 0.000000 0.000000 0.000000
# 3 -0.000633 -0.004585 0.007832 0.000000 0.000000 0.000000
# 4 0.000000 0.000000 0.000000 0.039276 0.000000 0.000000
# 5 0.000000 0.000000 0.000000 0.000000 -0.132162 0.000000
# 6 0.000000 0.000000 0.000000 0.000000 0.000000 0.136588
#
#
# Mechanical properties :
#
#
# Convention : Reuss Voigt Hill
#
# Bulk Modulus (GPa) = 52.59940 78.69397 65.64668
# Shear Modulus (GPa) = 56.96787 28.66980 42.81883
#
# Velocity S-wave (km/s) = 5.26356 3.73402 4.56333
# Velocity P-wave (km/s) = 7.90700 7.54067 7.72601
#
# Compressibility (1/GPa) = 0.01901162
#
# Stress axis : x y z
#
# Youngs Moduli (GPa) = 78.10382 129.27203 127.68726
#
# Poissons Ratio (x) = -0.06963 0.08084
# Poissons Ratio (y) = -0.04207 0.58546
# Poissons Ratio (z) = 0.04945 0.59272
#
# Static dielectric constant tensor:
#      x y z
#    x 1.817750 0.000000 0.000000 
#    y 0.000000 1.694930 0.000000 
#    z 0.000000 0.000000 1.711910 
# 
# From -- ./inp_files/10270.got.cif
#   From: 2010.05.17/outbox.cif.g08.bks.cpg/sg46_6_cif.got.tgz:10270.got - 2010.06.03 19:58:25.
