data_PCOD9378371
_publ_section_title
;
Structure prediction by ZEFSAII (Michael W. Deem and Ramdas Pophale) SiO2 
 PCOD9378371
Probable space group: I M A 2
;
_chemical_formula_sum "Si O2"
_cell_formula_units_Z 64
_cell_length_a 13.813349
_cell_length_b 16.001298
_cell_length_c 13.062754
_cell_angle_alpha 90.000000
_cell_angle_beta 90.000000
_cell_angle_gamma 90.000000
_cell_volume 2887.280290
_symmetry_space_group_name_H-M "I M A 2"
_symmetry_group_IT_number 46
_symmetry_cell_setting 'orthorhombic'
loop_
_space_group_symop_operation_xyz
x,y,z
-x,-y,z
1/2-x,y,z
1/2+x,-y,z
1/2+x,1/2+y,1/2+z
1/2-x,1/2-y,1/2+z
-x,1/2+y,1/2+z
x,1/2-y,1/2+z
loop_
_atom_site_type_symbol
_atom_site_label
_atom_site_fract_x
_atom_site_fract_y
_atom_site_fract_z
Si Si1 0.644460 0.864763 0.431630
Si Si2 0.638002 0.166098 0.541565
Si Si3 0.365941 0.097960 0.653637
Si Si4 0.131422 0.921163 0.745396
Si Si5 0.535240 0.404841 0.661293
Si Si6 0.632814 0.159244 0.959152
Si Si7 0.867581 0.783290 0.234516
Si Si8 0.894052 0.462649 0.865554
O O1 0.750000 0.830073 0.460451
O O2 0.595038 0.890890 0.537502
O O3 0.602139 0.799401 0.352468
O O4 0.657450 0.948344 0.363994
O O5 0.750000 0.187269 0.563522
O O6 0.597533 0.137646 0.651208
O O7 0.598183 0.245842 0.480981
O O8 0.636867 0.089121 0.463580
O O9 0.250000 0.084069 0.641317
O O10 0.379680 0.186660 0.707162
O O11 0.397213 0.016160 0.716132
O O12 0.250000 0.919742 0.746511
O O13 0.098489 0.884333 0.854187
O O14 0.500000 0.500000 0.656245
O O15 0.596026 0.386624 0.560551
O O16 0.442827 0.342649 0.672896
O O17 0.601874 0.405631 0.764345
O O18 0.750000 0.158403 0.954070
O O19 0.750000 0.801648 0.222812
O O20 0.000000 0.500000 0.879876
#
# Coordination Sequence:
#
# PCOD9378371 Si02
#       8
#     8   8   8   8   8   8   8   8
#     4  10  18  35  61  90 121 160 210 262 321 381
#     4  10  21  39  66  94 125 169 217 269 319 381
#     4   9  18  35  63  95 126 163 212 268 326 393
#     4   9  18  39  64  93 129 166 217 265 317 393
#     4  11  24  44  60  92 133 169 215 270 317 392
#     4  10  24  42  65  95 132 175 212 259 327 392
#     4  10  21  40  64  93 126 169 218 271 330 386
#     4  11  21  36  59  90 126 158 209 265 319 368
#
# _framework density 22.16619
#
# number of rings (size 3 to 8) (size 9 to 14) (size 15 to 20)
#    0.000    2.000    3.750    0.375    1.750    2.500 
#    2.250    0.625    0.000    0.000    0.000    0.000 
#    0.000    0.000    0.000    0.000    0.000    0.000 
#
# Total GULP energy -178440.671039 kJ/mol
# GULP energy per Si atom -5576.270970 kJ/mol
# Density = 2.211574 g / cm^3
# Si number density = 22.166190 Si / 1000 Ang^3
#
#
#
# Elastic Constant Matrix: (Units=GPa)
#
#
# Indices 1 2 3 4 5 6 
#
# 1 64.4115 15.4488 26.2128 0.0000 0.0000 0.0000
# 2 15.4488 127.8271 83.7061 0.0000 0.0000 0.0000
# 3 26.2128 83.7061 188.8853 0.0000 0.0000 0.0000
# 4 0.0000 0.0000 0.0000 31.7577 0.0000 0.0000
# 5 0.0000 0.0000 0.0000 0.0000 26.5072 0.0000
# 6 0.0000 0.0000 0.0000 0.0000 0.0000 25.8970
#
#
#
# Elastic Compliance Matrix: (Units=1/GPa)
#
#
# Indices 1 2 3 4 5 6 
#
# 1 0.016498 -0.000697 -0.001981 0.000000 0.000000 0.000000
# 2 -0.000697 0.011051 -0.004801 0.000000 0.000000 0.000000
# 3 -0.001981 -0.004801 0.007697 0.000000 0.000000 0.000000
# 4 0.000000 0.000000 0.000000 0.031488 0.000000 0.000000
# 5 0.000000 0.000000 0.000000 0.000000 0.037726 0.000000
# 6 0.000000 0.000000 0.000000 0.000000 0.000000 0.038614
#
#
# Mechanical properties :
#
#
# Convention : Reuss Voigt Hill
#
# Bulk Modulus (GPa) = 49.28684 70.20657 59.74670
# Shear Modulus (GPa) = 30.34092 33.88280 32.11186
#
# Velocity S-wave (km/s) = 3.70373 3.91395 3.81029
# Velocity P-wave (km/s) = 6.36974 7.22267 6.80957
#
# Compressibility (1/GPa) = 0.02028939
#
# Stress axis : x y z
#
# Youngs Moduli (GPa) = 60.61189 90.49040 129.92883
#
# Poissons Ratio (x) = 0.06306 0.25736
# Poissons Ratio (y) = 0.04224 0.62373
# Poissons Ratio (z) = 0.12006 0.43441
#
# Static dielectric constant tensor:
#      x y z
#    x 1.838870 0.000000 0.000000 
#    y 0.000000 1.874250 0.000000 
#    z 0.000000 0.000000 1.829230 
# 
# From -- ./inp_files/12000.got.cif
#   From: 2010.05.17/outbox.cif.g08.bks.cpg/sg46_6_cif.got.tgz:12000.got - 2010.06.03 19:58:25.
