data_PCOD9378999
_publ_section_title
;
Structure prediction by ZEFSAII (Michael W. Deem and Ramdas Pophale) SiO2 
 PCOD9378999
Probable space group: I M A 2
;
_chemical_formula_sum "Si O2"
_cell_formula_units_Z 36
_cell_length_a 16.278250
_cell_length_b 17.006859
_cell_length_c 5.189078
_cell_angle_alpha 90.000000
_cell_angle_beta 90.000000
_cell_angle_gamma 90.000000
_cell_volume 1436.554226
_symmetry_space_group_name_H-M "I M A 2"
_symmetry_group_IT_number 46
_symmetry_cell_setting 'orthorhombic'
loop_
_space_group_symop_operation_xyz
x,y,z
-x,-y,z
1/2-x,y,z
1/2+x,-y,z
1/2+x,1/2+y,1/2+z
1/2-x,1/2-y,1/2+z
-x,1/2+y,1/2+z
x,1/2-y,1/2+z
loop_
_atom_site_type_symbol
_atom_site_label
_atom_site_fract_x
_atom_site_fract_y
_atom_site_fract_z
Si Si1 0.750000 0.790640 0.221560
Si Si2 0.403394 0.981186 0.357014
Si Si3 0.650503 0.198043 0.427591
Si Si4 0.918801 0.951974 0.854595
Si Si5 0.933260 0.796300 0.106853
O O1 0.750000 0.787838 0.531767
O O2 0.836361 0.820195 0.120242
O O3 0.386488 0.890001 0.421419
O O4 0.500000 0.000000 0.308951
O O5 0.368008 0.004894 0.078648
O O6 0.372954 0.040330 0.581459
O O7 0.750000 0.189545 0.429586
O O8 0.627413 0.248865 0.174654
O O9 0.961062 0.872647 0.958068
O O10 0.000000 0.000000 0.787443
O O11 0.950748 0.773091 0.400851
#
# Coordination Sequence:
#
# PCOD9378999 Si02
#       5
#     4   8   8   8   8
#     4   8  16  30  50  74 100 128 168 222 262 314
#     4  10  21  40  58  84 126 155 194 251 302 366
#     4  10  21  40  66  93 122 159 207 259 309 366
#     4  10  21  38  55  80 121 153 190 246 287 350
#     4  10  19  35  56  78 107 145 189 228 274 333
#
# _framework density 25.059968999999999
#
# number of rings (size 3 to 8) (size 9 to 14) (size 15 to 20)
#    0.000    2.222    0.000    2.667    0.000    0.000 
#    4.000   26.667    0.000    0.000    0.000    0.000 
#    0.000    0.000    0.000    0.000    0.000    0.000 
#
# Total GULP energy -100263.020671 kJ/mol
# GULP energy per Si atom -5570.167815 kJ/mol
# Density = 2.500293 g / cm^3
# Si number density = 25.059969 Si / 1000 Ang^3
#
#
#
# Elastic Constant Matrix: (Units=GPa)
#
#
# Indices 1 2 3 4 5 6 
#
# 1 54.0388 10.9979 1.3585 0.0000 0.0000 0.0000
# 2 10.9979 133.9036 26.0572 0.0000 0.0000 0.0000
# 3 1.3585 26.0572 196.9043 0.0000 0.0000 0.0000
# 4 0.0000 0.0000 0.0000 100.0826 0.0000 0.0000
# 5 0.0000 0.0000 0.0000 0.0000 17.5070 0.0000
# 6 0.0000 0.0000 0.0000 0.0000 0.0000 27.6950
#
#
#
# Elastic Compliance Matrix: (Units=1/GPa)
#
#
# Indices 1 2 3 4 5 6 
#
# 1 0.018821 -0.001561 0.000077 0.000000 0.000000 0.000000
# 2 -0.001561 0.007795 -0.001021 0.000000 0.000000 0.000000
# 3 0.000077 -0.001021 0.005213 0.000000 0.000000 0.000000
# 4 0.000000 0.000000 0.000000 0.009992 0.000000 0.000000
# 5 0.000000 0.000000 0.000000 0.000000 0.057120 0.000000
# 6 0.000000 0.000000 0.000000 0.000000 0.000000 0.036108
#
#
# Mechanical properties :
#
#
# Convention : Reuss Voigt Hill
#
# Bulk Modulus (GPa) = 37.28653 51.29711 44.29182
# Shear Modulus (GPa) = 33.55753 52.15245 42.85499
#
# Velocity S-wave (km/s) = 3.66333 4.56686 4.13982
# Velocity P-wave (km/s) = 5.72752 6.95144 6.36895
#
# Compressibility (1/GPa) = 0.02681934
#
# Stress axis : x y z
#
# Youngs Moduli (GPa) = 53.13233 128.28919 191.82213
#
# Poissons Ratio (x) = 0.20023 -0.01471
# Poissons Ratio (y) = 0.08293 0.19581
# Poissons Ratio (z) = -0.00407 0.13095
#
# Static dielectric constant tensor:
#      x y z
#    x 2.253650 0.000000 0.000000 
#    y 0.000000 2.047650 0.000000 
#    z 0.000000 0.000000 2.104040 
# 
# From -- ./inp_files/1947.got.cif
#   From: 2010.05.17/outbox.cif.g08.bks.cpg/sg46_1_cif.got.tgz:1947.got - 2010.06.03 19:58:25.
