data_PCOD9378883
_publ_section_title
;
Structure prediction by ZEFSAII (Michael W. Deem and Ramdas Pophale) SiO2 
 PCOD9378883
Probable space group: I M A 2
;
_chemical_formula_sum "Si O2"
_cell_formula_units_Z 64
_cell_length_a 8.644412
_cell_length_b 23.792287
_cell_length_c 19.708205
_cell_angle_alpha 90.000000
_cell_angle_beta 90.000000
_cell_angle_gamma 90.000000
_cell_volume 4053.393051
_symmetry_space_group_name_H-M "I M A 2"
_symmetry_group_IT_number 46
_symmetry_cell_setting 'orthorhombic'
loop_
_space_group_symop_operation_xyz
x,y,z
-x,-y,z
1/2-x,y,z
1/2+x,-y,z
1/2+x,1/2+y,1/2+z
1/2-x,1/2-y,1/2+z
-x,1/2+y,1/2+z
x,1/2-y,1/2+z
loop_
_atom_site_type_symbol
_atom_site_label
_atom_site_fract_x
_atom_site_fract_y
_atom_site_fract_z
Si Si1 0.435866 0.836967 0.371540
Si Si2 0.435985 0.562409 0.231706
Si Si3 0.562574 0.227346 0.241392
Si Si4 0.934922 0.562315 0.955739
Si Si5 0.936355 0.336862 0.327533
Si Si6 0.063993 0.377871 0.097209
Si Si7 0.063940 0.748778 0.092385
Si Si8 0.566129 0.728430 0.449583
O O1 0.250000 0.837803 0.374116
O O2 0.485906 0.819990 0.295222
O O3 0.501544 0.894829 0.399611
O O4 0.494221 0.785975 0.419097
O O5 0.500000 0.500000 0.240700
O O6 0.250000 0.561356 0.226210
O O7 0.477426 0.603991 0.293737
O O8 0.503759 0.589600 0.163189
O O9 0.750000 0.226818 0.240073
O O10 0.518277 0.287294 0.274644
O O11 0.510961 0.224332 0.163835
O O12 0.750000 0.561032 0.952374
O O13 0.000000 0.500000 0.948232
O O14 0.978726 0.587864 0.029316
O O15 0.750000 0.334038 0.335129
O O16 0.012526 0.320642 0.398705
O O17 0.250000 0.372798 0.099609
O O18 0.990461 0.316055 0.093638
O O19 0.250000 0.750166 0.088941
O O20 0.994729 0.777496 0.025821
O O21 0.750000 0.733639 0.449309
#
# Coordination Sequence:
#
# PCOD9378883 Si02
#       8
#     8   8   8   8   8   8   8   8
#     4  10  19  34  53  72  97 131 168 209 253 300
#     4  11  22  36  53  73 101 136 178 215 253 302
#     4   8  16  31  51  74  96 125 167 205 246 299
#     4  11  23  36  50  71 100 135 176 213 247 294
#     4   9  18  35  52  70  96 133 173 209 250 302
#     4  11  22  34  48  72 105 137 176 213 246 293
#     4  11  19  32  53  75 102 138 170 204 252 305
#     4  11  21  32  48  75 104 130 166 211 255 303
#
# _framework density 15.789242
#
# number of rings (size 3 to 8) (size 9 to 14) (size 15 to 20)
#    0.000    1.750    2.500    4.125    0.000    3.500 
#    0.000    1.875    0.000    0.000    0.000    0.875 
#    0.000    4.000    0.000    0.000    0.000    0.000 
#
# Total GULP energy -178627.741519 kJ/mol
# GULP energy per Si atom -5582.116922 kJ/mol
# Density = 1.575331 g / cm^3
# Si number density = 15.789242 Si / 1000 Ang^3
#
#
#
# Elastic Constant Matrix: (Units=GPa)
#
#
# Indices 1 2 3 4 5 6 
#
# 1 50.9779 33.7411 40.3099 0.0000 0.0000 0.0000
# 2 33.7411 89.3507 70.4753 0.0000 0.0000 0.0000
# 3 40.3099 70.4753 156.0898 0.0000 0.0000 0.0000
# 4 0.0000 0.0000 0.0000 18.7410 0.0000 0.0000
# 5 0.0000 0.0000 0.0000 0.0000 13.3165 0.0000
# 6 0.0000 0.0000 0.0000 0.0000 0.0000 25.4014
#
#
#
# Elastic Compliance Matrix: (Units=1/GPa)
#
#
# Indices 1 2 3 4 5 6 
#
# 1 0.027495 -0.007427 -0.003747 0.000000 0.000000 0.000000
# 2 -0.007427 0.019388 -0.006836 0.000000 0.000000 0.000000
# 3 -0.003747 -0.006836 0.010461 0.000000 0.000000 0.000000
# 4 0.000000 0.000000 0.000000 0.053359 0.000000 0.000000
# 5 0.000000 0.000000 0.000000 0.000000 0.075095 0.000000
# 6 0.000000 0.000000 0.000000 0.000000 0.000000 0.039368
#
#
# Mechanical properties :
#
#
# Convention : Reuss Voigt Hill
#
# Bulk Modulus (GPa) = 46.89617 65.05231 55.97424
# Shear Modulus (GPa) = 18.63624 21.61793 20.12709
#
# Velocity S-wave (km/s) = 3.43929 3.70422 3.57422
# Velocity P-wave (km/s) = 6.74815 7.71912 7.24991
#
# Compressibility (1/GPa) = 0.02132370
#
# Stress axis : x y z
#
# Youngs Moduli (GPa) = 36.36978 51.57721 95.59620
#
# Poissons Ratio (x) = 0.38308 0.35821
# Poissons Ratio (y) = 0.27013 0.65348
# Poissons Ratio (z) = 0.13628 0.35257
#
# Static dielectric constant tensor:
#      x y z
#    x 1.530910 0.000000 0.000000 
#    y 0.000000 1.499060 0.000000 
#    z 0.000000 0.000000 1.538430 
# 
# From -- ./inp_files/18593.got.cif
#   From: 2010.05.17/outbox.cif.g08.bks.cpg/sg46_10_cif.got.tgz:18593.got - 2010.06.03 19:58:25.
