data_PCOD9378718
_publ_section_title
;
Structure prediction by ZEFSAII (Michael W. Deem and Ramdas Pophale) SiO2 
 PCOD9378718
Probable space group: I M A 2
;
_chemical_formula_sum "Si O2"
_cell_formula_units_Z 60
_cell_length_a 36.448967
_cell_length_b 15.324751
_cell_length_c 5.289137
_cell_angle_alpha 90.000000
_cell_angle_beta 90.000000
_cell_angle_gamma 90.000000
_cell_volume 2954.360360
_symmetry_space_group_name_H-M "I M A 2"
_symmetry_group_IT_number 46
_symmetry_cell_setting 'orthorhombic'
loop_
_space_group_symop_operation_xyz
x,y,z
-x,-y,z
1/2-x,y,z
1/2+x,-y,z
1/2+x,1/2+y,1/2+z
1/2-x,1/2-y,1/2+z
-x,1/2+y,1/2+z
x,1/2-y,1/2+z
loop_
_atom_site_type_symbol
_atom_site_label
_atom_site_fract_x
_atom_site_fract_y
_atom_site_fract_z
Si Si1 0.043959 0.020696 0.927790
Si Si2 0.080057 0.627399 0.739070
Si Si3 0.830338 0.644493 0.532703
Si Si4 0.860409 0.657484 0.032300
Si Si5 0.981957 0.206194 0.544176
Si Si6 0.557778 0.625720 0.931234
Si Si7 0.870588 0.221085 0.540175
Si Si8 0.250000 0.191142 0.930628
O O1 0.055393 0.051109 0.647995
O O2 0.050384 0.092998 0.147237
O O3 0.000000 0.000000 0.925046
O O4 0.070359 0.944297 0.034094
O O5 0.043752 0.634985 0.911331
O O6 0.093339 0.717149 0.599450
O O7 0.114131 0.628691 0.939226
O O8 0.840730 0.607302 0.804124
O O9 0.841044 0.747813 0.561096
O O10 0.787728 0.639133 0.465519
O O11 0.854818 0.611952 0.301147
O O12 0.902525 0.668531 0.957759
O O13 0.975617 0.215210 0.842453
O O14 0.024383 0.186631 0.506996
O O15 0.851143 0.229431 0.808188
O O16 0.250000 0.237667 0.657896
#
# Coordination Sequence:
#
# PCOD9378718 Si02
#       8
#     8   8   8   8   8   8   8   4
#     4  12  26  39  52  65  93 121 156 207 262 315
#     4  10  20  34  52  68  87 104 138 187 265 300
#     4  10  19  32  55  74 102 135 155 216 244 294
#     4  10  20  34  47  67  95 128 164 190 250 284
#     4  12  23  35  53  71  86 109 148 208 247 313
#     4  12  27  38  50  71  93 129 167 196 251 336
#     4   8  16  28  49  71  80  96 124 172 231 312
#     4  12  16  30  48  88 104 128 170 194 268 292
#
# _framework density 20.308966000000002
#
# number of rings (size 3 to 8) (size 9 to 14) (size 15 to 20)
#    0.800    0.533    5.333    2.000    5.600    0.000 
#    0.000    0.000    0.000    0.000    0.000    0.000 
#    0.000    0.000    0.000    0.000    0.000    0.000 
#
# Total GULP energy -167056.074872 kJ/mol
# GULP energy per Si atom -5568.535829 kJ/mol
# Density = 2.026274 g / cm^3
# Si number density = 20.308966 Si / 1000 Ang^3
#
#
#
# Elastic Constant Matrix: (Units=GPa)
#
#
# Indices 1 2 3 4 5 6 
#
# 1 35.4194 -5.5605 -5.4561 0.0221 0.0078 0.0040
# 2 -5.5605 21.5088 11.7006 -0.0049 -0.0009 -0.0024
# 3 -5.4561 11.7006 87.5902 0.0208 0.0089 0.0002
# 4 0.0221 -0.0049 0.0208 49.5603 0.0148 -0.0006
# 5 0.0078 -0.0009 0.0089 0.0148 18.4654 0.0008
# 6 0.0040 -0.0024 0.0002 -0.0006 0.0008 -7.6770
#
#
#
# Elastic Compliance Matrix: (Units=1/GPa)
#
#
# Indices 1 2 3 4 5 6 
#
# 1 0.029491 0.007144 0.000883 -0.000013 -0.000013 0.000013
# 2 0.007144 0.051866 -0.006483 0.000005 0.000003 -0.000012
# 3 0.000883 -0.006483 0.012338 -0.000006 -0.000007 0.000003
# 4 -0.000013 0.000005 -0.000006 0.020177 -0.000016 -0.000002
# 5 -0.000013 0.000003 -0.000007 -0.000016 0.054155 0.000006
# 6 0.000013 -0.000012 0.000003 -0.000002 0.000006 -0.130259
#
#
# Mechanical properties :
#
#
# Convention : Reuss Voigt Hill
#
# Bulk Modulus (GPa) = 10.33263 16.20960 13.27112
# Shear Modulus (GPa) = 74.69102 21.65869 48.17486
#
# Velocity S-wave (km/s) = 6.07101 3.26921 4.87570
# Velocity P-wave (km/s) = 7.36490 4.71690 6.18429
#
# Compressibility (1/GPa) = 0.09678074
#
# Stress axis : x y z
#
# Youngs Moduli (GPa) = 33.90912 19.28035 81.05122
#
# Poissons Ratio (x) = -0.13773 -0.07155
# Poissons Ratio (y) = -0.24224 0.52549
# Poissons Ratio (z) = -0.02993 0.12500
#
# Static dielectric constant tensor:
#      x y z
#    x 1.698900 0.000020 0.000000 
#    y 0.000020 1.797780 0.000010 
#    z 0.000000 0.000010 1.864690 
# 
# From -- ./inp_files/2750.got.cif
#   From: 2010.05.17/outbox.cif.g08.bks.cpg/sg46_2_cif.got.tgz:2750.got - 2010.06.03 19:58:25.
