data_PCOD9378215
_publ_section_title
;
Structure prediction by ZEFSAII (Michael W. Deem and Ramdas Pophale) SiO2 
 PCOD9378215
Probable space group: I M A 2
;
_chemical_formula_sum "Si O2"
_cell_formula_units_Z 64
_cell_length_a 15.426156
_cell_length_b 28.323117
_cell_length_c 7.835695
_cell_angle_alpha 90.000000
_cell_angle_beta 90.000000
_cell_angle_gamma 90.000000
_cell_volume 3423.546952
_symmetry_space_group_name_H-M "I M A 2"
_symmetry_group_IT_number 46
_symmetry_cell_setting 'orthorhombic'
loop_
_space_group_symop_operation_xyz
x,y,z
-x,-y,z
1/2-x,y,z
1/2+x,-y,z
1/2+x,1/2+y,1/2+z
1/2-x,1/2-y,1/2+z
-x,1/2+y,1/2+z
x,1/2-y,1/2+z
loop_
_atom_site_type_symbol
_atom_site_label
_atom_site_fract_x
_atom_site_fract_y
_atom_site_fract_z
Si Si1 0.348201 0.696126 0.144890
Si Si2 0.094651 0.980194 0.509493
Si Si3 0.846900 0.032482 0.137884
Si Si4 0.346530 0.422781 0.554837
Si Si5 0.474641 0.615556 0.147380
Si Si6 0.975400 0.384524 0.551770
Si Si7 0.655175 0.578798 0.145644
Si Si8 0.348284 0.804127 0.056694
O O1 0.250000 0.686563 0.082430
O O2 0.417825 0.658615 0.077477
O O3 0.346183 0.692018 0.350784
O O4 0.369463 0.750155 0.101258
O O5 0.147207 0.966715 0.342212
O O6 0.076342 0.933570 0.618994
O O7 0.139281 0.023529 0.606139
O O8 0.000000 0.000000 0.455000
O O9 0.750000 0.045896 0.079288
O O10 0.862701 0.978296 0.086146
O O11 0.918941 0.068152 0.071971
O O12 0.250000 0.411595 0.622556
O O13 0.428554 0.393732 0.623929
O O14 0.344138 0.416119 0.350445
O O15 0.484743 0.623649 0.349368
O O16 0.571707 0.607099 0.077275
O O17 0.918638 0.341397 0.623123
O O18 0.750000 0.592700 0.079382
O O19 0.250000 0.814067 0.118799
#
# Coordination Sequence:
#
# PCOD9378215 Si02
#       8
#     8   8   8   8   8   8   8   8
#     4   9  18  32  49  68  91 116 146 185 228 274
#     4  10  19  30  44  66  96 127 156 188 226 269
#     4  11  21  30  43  67  97 127 156 188 227 270
#     4   9  18  31  48  68  91 123 159 190 224 265
#     4   9  19  32  49  70  91 120 157 190 228 271
#     4  10  18  32  50  68  92 121 154 193 227 268
#     4   9  17  31  49  68  92 123 157 191 224 265
#     4   9  18  32  49  69  90 115 146 183 229 276
#
# _framework density 18.694063
#
# number of rings (size 3 to 8) (size 9 to 14) (size 15 to 20)
#    0.000    2.500    0.000    2.625    0.000    4.500 
#    0.000    1.250    0.000    0.750    0.000    0.000 
#    0.000    0.000    0.000    0.000    0.000    0.000 
#
# Total GULP energy -178452.435999 kJ/mol
# GULP energy per Si atom -5576.638625 kJ/mol
# Density = 1.865151 g / cm^3
# Si number density = 18.694063 Si / 1000 Ang^3
#
#
#
# Elastic Constant Matrix: (Units=GPa)
#
#
# Indices 1 2 3 4 5 6 
#
# 1 171.3010 99.2684 6.2515 -0.0002 -0.0018 0.0035
# 2 99.2684 92.8195 -5.2135 0.0009 -0.0017 0.0058
# 3 6.2515 -5.2135 18.0307 -0.0005 -0.0038 0.0227
# 4 -0.0002 0.0009 -0.0005 18.2957 -0.0037 0.0041
# 5 -0.0018 -0.0017 -0.0038 -0.0037 0.2983 -0.0029
# 6 0.0035 0.0058 0.0227 0.0041 -0.0029 47.0403
#
#
#
# Elastic Compliance Matrix: (Units=1/GPa)
#
#
# Indices 1 2 3 4 5 6 
#
# 1 0.017467 -0.019335 -0.011647 0.000001 -0.000152 0.000007
# 2 -0.019335 0.032354 0.016059 -0.000001 0.000272 -0.000010
# 3 -0.011647 0.016059 0.064143 0.000001 0.000834 -0.000032
# 4 0.000001 -0.000001 0.000001 0.054658 0.000683 -0.000005
# 5 -0.000152 0.000272 0.000834 0.000683 3.352381 0.000206
# 6 0.000007 -0.000010 -0.000032 -0.000005 0.000206 0.021258
#
#
# Mechanical properties :
#
#
# Convention : Reuss Voigt Hill
#
# Bulk Modulus (GPa) = 11.88809 53.64043 32.76426
# Shear Modulus (GPa) = 1.38883 25.24985 13.31934
#
# Velocity S-wave (km/s) = 0.86287 3.67916 2.67215
# Velocity P-wave (km/s) = 2.71400 6.84137 5.20434
#
# Compressibility (1/GPa) = 0.08411781
#
# Stress axis : x y z
#
# Youngs Moduli (GPa) = 57.24960 30.90798 15.59024
#
# Poissons Ratio (x) = 0.59761 0.18158
# Poissons Ratio (y) = 1.10693 -0.25036
# Poissons Ratio (z) = 0.66678 -0.49635
#
# Static dielectric constant tensor:
#      x y z
#    x 1.721540 0.000000 0.000000 
#    y 0.000000 1.612660 0.000000 
#    z 0.000000 0.000000 1.681640 
# 
# From -- ./inp_files/6214.got.cif
#   From: 2010.05.17/outbox.cif.g08.bks.cpg/sg46_4_cif.got.tgz:6214.got - 2010.06.03 19:58:25.
