data_PCOD9378565
_publ_section_title
;
Structure prediction by ZEFSAII (Michael W. Deem and Ramdas Pophale) SiO2 
 PCOD9378565
Probable space group: I M A 2
;
_chemical_formula_sum "Si O2"
_cell_formula_units_Z 64
_cell_length_a 9.331040
_cell_length_b 16.330378
_cell_length_c 22.134781
_cell_angle_alpha 90.000000
_cell_angle_beta 90.000000
_cell_angle_gamma 90.000000
_cell_volume 3372.884877
_symmetry_space_group_name_H-M "I M A 2"
_symmetry_group_IT_number 46
_symmetry_cell_setting 'orthorhombic'
loop_
_space_group_symop_operation_xyz
x,y,z
-x,-y,z
1/2-x,y,z
1/2+x,-y,z
1/2+x,1/2+y,1/2+z
1/2-x,1/2-y,1/2+z
-x,1/2+y,1/2+z
x,1/2-y,1/2+z
loop_
_atom_site_type_symbol
_atom_site_label
_atom_site_fract_x
_atom_site_fract_y
_atom_site_fract_z
Si Si1 0.411345 0.800319 0.930550
Si Si2 0.413037 0.420702 0.352694
Si Si3 0.410658 0.609345 0.899711
Si Si4 0.419016 0.237898 0.047392
Si Si5 0.921894 0.415556 0.757470
Si Si6 0.081827 0.423193 0.017168
Si Si7 0.414806 0.082491 0.707035
Si Si8 0.078332 0.270588 0.685551
O O1 0.250000 0.833607 0.932266
O O2 0.507358 0.844763 0.881463
O O3 0.404043 0.706342 0.910239
O O4 0.485661 0.803509 0.996008
O O5 0.500000 0.500000 0.372435
O O6 0.250000 0.424304 0.373215
O O7 0.413911 0.417924 0.280130
O O8 0.250000 0.576844 0.914261
O O9 0.442235 0.591309 0.830087
O O10 0.529137 0.582061 0.947697
O O11 0.250000 0.230715 0.031968
O O12 0.440361 0.206740 0.115124
O O13 0.453628 0.335234 0.045822
O O14 0.750000 0.418302 0.746265
O O15 0.000000 0.500000 0.737751
O O16 0.992884 0.335680 0.726265
O O17 0.250000 0.435170 0.021375
O O18 0.000000 0.500000 0.045092
O O19 0.250000 0.076398 0.684927
O O20 0.467345 0.174626 0.691417
O O21 0.500000 0.000000 0.688777
O O22 0.250000 0.273046 0.699793
#
# Coordination Sequence:
#
# PCOD9378565 Si02
#       8
#     8   8   8   8   8   8   8   8
#     4  10  19  33  54  79 106 135 171 216 265 316
#     4  10  19  32  51  77 108 138 171 212 262 318
#     4   9  19  34  53  79 109 139 171 211 262 321
#     4   9  20  37  54  73 101 139 180 219 260 311
#     4  11  23  38  57  82 110 142 182 227 276 327
#     4  10  19  31  50  77 108 140 173 211 258 312
#     4   9  19  34  55  84 115 147 181 219 266 322
#     4  10  21  39  59  79 108 146 187 229 271 317
#
# _framework density 18.974855000000002
#
# number of rings (size 3 to 8) (size 9 to 14) (size 15 to 20)
#    0.000    2.250    0.000    2.625    0.000    5.000 
#    0.000    0.625    0.000    3.000    0.000    0.000 
#    0.000    0.000    0.000    0.000    0.000    0.000 
#
# Total GULP energy -178511.326682 kJ/mol
# GULP energy per Si atom -5578.478959 kJ/mol
# Density = 1.893167 g / cm^3
# Si number density = 18.974855 Si / 1000 Ang^3
#
#
#
# Elastic Constant Matrix: (Units=GPa)
#
#
# Indices 1 2 3 4 5 6 
#
# 1 93.4185 37.0060 38.0425 0.0000 0.0000 0.0000
# 2 37.0060 74.2957 24.4469 0.0000 0.0000 0.0000
# 3 38.0425 24.4469 58.9517 0.0000 0.0000 0.0000
# 4 0.0000 0.0000 0.0000 4.4257 0.0000 0.0000
# 5 0.0000 0.0000 0.0000 0.0000 -40.4200 0.0000
# 6 0.0000 0.0000 0.0000 0.0000 0.0000 34.0028
#
#
#
# Elastic Compliance Matrix: (Units=1/GPa)
#
#
# Indices 1 2 3 4 5 6 
#
# 1 0.016170 -0.005351 -0.008216 0.000000 0.000000 0.000000
# 2 -0.005351 0.017357 -0.003745 0.000000 0.000000 0.000000
# 3 -0.008216 -0.003745 0.023818 0.000000 0.000000 0.000000
# 4 0.000000 0.000000 0.000000 0.225952 0.000000 0.000000
# 5 0.000000 0.000000 0.000000 0.000000 -0.024740 0.000000
# 6 0.000000 0.000000 0.000000 0.000000 0.000000 0.029409
#
#
# Mechanical properties :
#
#
# Convention : Reuss Voigt Hill
#
# Bulk Modulus (GPa) = 44.01042 47.29520 45.65281
# Shear Modulus (GPa) = 15.14406 8.07973 11.61190
#
# Velocity S-wave (km/s) = 2.82815 2.06576 2.47647
# Velocity P-wave (km/s) = 5.82315 5.53797 5.68235
#
# Compressibility (1/GPa) = 0.02272189
#
# Stress axis : x y z
#
# Youngs Moduli (GPa) = 61.84390 57.61325 41.98533
#
# Poissons Ratio (x) = 0.30827 0.34494
# Poissons Ratio (y) = 0.33090 0.15724
# Poissons Ratio (z) = 0.50809 0.21576
#
# Static dielectric constant tensor:
#      x y z
#    x 1.665720 0.000000 0.000000 
#    y 0.000000 1.688100 0.000000 
#    z 0.000000 0.000000 1.646920 
# 
# From -- ./inp_files/23144.got.cif
#   From: 2010.05.17/outbox.cif.g08.bks.cpg/sg46_12_cif.got.tgz:23144.got - 2010.06.03 19:58:25.
