data_PCOD9378931
_publ_section_title
;
Structure prediction by ZEFSAII (Michael W. Deem and Ramdas Pophale) SiO2 
 PCOD9378931
Probable space group: I M A 2
;
_chemical_formula_sum "Si O2"
_cell_formula_units_Z 64
_cell_length_a 7.716445
_cell_length_b 31.656373
_cell_length_c 12.376271
_cell_angle_alpha 90.000000
_cell_angle_beta 90.000000
_cell_angle_gamma 90.000000
_cell_volume 3023.209405
_symmetry_space_group_name_H-M "I M A 2"
_symmetry_group_IT_number 46
_symmetry_cell_setting 'orthorhombic'
loop_
_space_group_symop_operation_xyz
x,y,z
-x,-y,z
1/2-x,y,z
1/2+x,-y,z
1/2+x,1/2+y,1/2+z
1/2-x,1/2-y,1/2+z
-x,1/2+y,1/2+z
x,1/2-y,1/2+z
loop_
_atom_site_type_symbol
_atom_site_label
_atom_site_fract_x
_atom_site_fract_y
_atom_site_fract_z
Si Si1 0.540455 0.332163 0.279950
Si Si2 0.957827 0.453809 0.526208
Si Si3 0.957079 0.203203 0.006880
Si Si4 0.036926 0.871917 0.161236
Si Si5 0.548456 0.377806 0.905392
Si Si6 0.448668 0.299649 0.045729
Si Si7 0.460428 0.568695 0.290267
Si Si8 0.458510 0.953648 0.553746
O O1 0.750000 0.328745 0.273568
O O2 0.477666 0.308862 0.387693
O O3 0.469173 0.313414 0.169661
O O4 0.499221 0.381593 0.289510
O O5 0.750000 0.450014 0.521100
O O6 0.017709 0.414094 0.597095
O O7 0.025552 0.450447 0.402839
O O8 0.000000 0.500000 0.571002
O O9 0.750000 0.197357 0.002695
O O10 0.021215 0.169657 0.095752
O O11 0.991058 0.251687 0.033212
O O12 0.250000 0.871029 0.161739
O O13 0.975565 0.873017 0.284969
O O14 0.750000 0.389050 0.889866
O O15 0.541897 0.334107 0.971009
O O16 0.473597 0.415360 0.979772
O O17 0.250000 0.301790 0.013150
O O18 0.250000 0.564743 0.290780
O O19 0.525314 0.549875 0.177202
O O20 0.250000 0.949113 0.560024
O O21 0.500000 0.000000 0.510133
#
# Coordination Sequence:
#
# PCOD9378931 Si02
#       8
#     8   8   8   8   8   8   8   8
#     4  10  19  38  66  88 111 150 201 245 282 337
#     4  10  19  34  56  85 117 149 187 235 290 342
#     4  10  21  39  65  90 111 148 200 247 284 339
#     4   9  19  37  62  87 110 145 199 248 280 326
#     4  10  21  40  62  83 111 154 205 244 278 340
#     4  12  26  40  57  87 126 155 183 238 302 358
#     4   9  16  32  57  83 113 146 187 239 283 329
#     4  10  20  34  55  81 112 148 190 239 287 337
#
# _framework density 21.169554999999999
#
# number of rings (size 3 to 8) (size 9 to 14) (size 15 to 20)
#    0.000    2.000    2.500    1.500    1.750    1.500 
#    0.000    1.875    0.000    0.000    0.000    0.000 
#    0.000    0.000    0.000    0.000    0.000    0.000 
#
# Total GULP energy -178745.512280 kJ/mol
# GULP energy per Si atom -5585.797259 kJ/mol
# Density = 2.112137 g / cm^3
# Si number density = 21.169555 Si / 1000 Ang^3
#
#
#
# Elastic Constant Matrix: (Units=GPa)
#
#
# Indices 1 2 3 4 5 6 
#
# 1 28.9607 -11.6687 3.0970 0.0002 0.0000 0.0000
# 2 -11.6687 161.8760 75.4469 0.0007 0.0001 0.0000
# 3 3.0970 75.4469 144.8642 0.0008 0.0001 0.0000
# 4 0.0002 0.0007 0.0008 39.4446 -0.0002 -0.0001
# 5 0.0000 0.0001 0.0001 -0.0002 -9.3668 0.0000
# 6 0.0000 0.0000 0.0000 -0.0001 0.0000 14.0379
#
#
#
# Elastic Compliance Matrix: (Units=1/GPa)
#
#
# Indices 1 2 3 4 5 6 
#
# 1 0.036423 0.003946 -0.002834 0.000000 0.000000 0.000000
# 2 0.003946 0.008585 -0.004556 0.000000 0.000000 0.000000
# 3 -0.002834 -0.004556 0.009336 0.000000 0.000000 0.000000
# 4 0.000000 0.000000 0.000000 0.025352 -0.000001 0.000000
# 5 0.000000 0.000000 0.000000 -0.000001 -0.106761 0.000000
# 6 0.000000 0.000000 0.000000 0.000000 0.000000 0.071236
#
#
# Mechanical properties :
#
#
# Convention : Reuss Voigt Hill
#
# Bulk Modulus (GPa) = 21.07145 52.16126 36.61635
# Shear Modulus (GPa) = 74.76389 26.74486 50.75438
#
# Velocity S-wave (km/s) = 5.94923 3.55824 4.90176
# Velocity P-wave (km/s) = 7.56085 6.44784 7.02642
#
# Compressibility (1/GPa) = 0.04745759
#
# Stress axis : x y z
#
# Youngs Moduli (GPa) = 27.45544 116.47748 107.10919
#
# Poissons Ratio (x) = -0.45966 0.30354
# Poissons Ratio (y) = -0.10835 0.48796
# Poissons Ratio (z) = 0.07781 0.53064
#
# Static dielectric constant tensor:
#      x y z
#    x 1.781070 0.000000 0.000000 
#    y 0.000000 1.757250 0.000000 
#    z 0.000000 0.000000 1.752580 
# 
# From -- ./inp_files/9681.got.cif
#   From: 2010.05.17/outbox.cif.g08.bks.cpg/sg46_5_cif.got.tgz:9681.got - 2010.06.03 19:58:25.
