data_PCOD9378318
_publ_section_title
;
Structure prediction by ZEFSAII (Michael W. Deem and Ramdas Pophale) SiO2 
 PCOD9378318
Probable space group: I M A 2
;
_chemical_formula_sum "Si O2"
_cell_formula_units_Z 40
_cell_length_a 17.729522
_cell_length_b 17.916074
_cell_length_c 5.004785
_cell_angle_alpha 90.000000
_cell_angle_beta 90.000000
_cell_angle_gamma 90.000000
_cell_volume 1589.737064
_symmetry_space_group_name_H-M "I M A 2"
_symmetry_group_IT_number 46
_symmetry_cell_setting 'orthorhombic'
loop_
_space_group_symop_operation_xyz
x,y,z
-x,-y,z
1/2-x,y,z
1/2+x,-y,z
1/2+x,1/2+y,1/2+z
1/2-x,1/2-y,1/2+z
-x,1/2+y,1/2+z
x,1/2-y,1/2+z
loop_
_atom_site_type_symbol
_atom_site_label
_atom_site_fract_x
_atom_site_fract_y
_atom_site_fract_z
Si Si1 0.334155 0.453203 0.556680
Si Si2 0.062241 0.587264 0.703518
Si Si3 0.832865 0.851688 0.556282
Si Si4 0.360968 0.714667 0.969991
Si Si5 0.992286 0.659519 0.174260
O O1 0.250000 0.485723 0.602634
O O2 0.401189 0.510080 0.615660
O O3 0.336158 0.423463 0.254463
O O4 0.339067 0.382471 0.756188
O O5 0.020427 0.625355 0.452561
O O6 0.133658 0.637354 0.811265
O O7 0.006142 0.593004 0.955943
O O8 0.750000 0.816490 0.594119
O O9 0.908075 0.810155 0.648749
O O10 0.329478 0.724876 0.265196
O O11 0.449331 0.719995 0.058026
#
# Coordination Sequence:
#
# PCOD9378318 Si02
#       5
#     8   8   8   8   8
#     4  10  21  35  51  74 109 144 167 200 255 309
#     4  10  20  32  53  81  98 135 172 215 249 300
#     4  10  21  35  51  74 109 144 167 200 255 309
#     4  10  18  34  53  76  99 130 168 216 268 296
#     4  10  20  32  53  81  98 135 172 215 249 300
#
# _framework density 25.161394000000001
#
# number of rings (size 3 to 8) (size 9 to 14) (size 15 to 20)
#    1.200    0.800    2.000    2.400    0.000    4.800 
#    0.000    0.000    0.000    2.400    0.000    0.000 
#    0.000    0.000    0.000    0.000    0.000    0.000 
#
# Total GULP energy -111468.794188 kJ/mol
# GULP energy per Si atom -5573.439709 kJ/mol
# Density = 2.510413 g / cm^3
# Si number density = 25.161394 Si / 1000 Ang^3
#
#
#
# Elastic Constant Matrix: (Units=GPa)
#
#
# Indices 1 2 3 4 5 6 
#
# 1 165.2187 15.9616 0.7071 0.0000 0.0000 0.0000
# 2 15.9616 41.4848 19.5067 0.0000 0.0000 0.0000
# 3 0.7071 19.5067 134.8008 0.0000 0.0000 0.0000
# 4 0.0000 0.0000 0.0000 25.6889 0.0000 0.0000
# 5 0.0000 0.0000 0.0000 0.0000 -521.7081 0.0000
# 6 0.0000 0.0000 0.0000 0.0000 0.0000 -133.9020
#
#
#
# Elastic Compliance Matrix: (Units=1/GPa)
#
#
# Indices 1 2 3 4 5 6 
#
# 1 0.006301 -0.002585 0.000341 0.000000 0.000000 0.000000
# 2 -0.002585 0.026925 -0.003883 0.000000 0.000000 0.000000
# 3 0.000341 -0.003883 0.007978 0.000000 0.000000 0.000000
# 4 0.000000 0.000000 0.000000 0.038927 0.000000 0.000000
# 5 0.000000 0.000000 0.000000 0.000000 -0.001917 0.000000
# 6 0.000000 0.000000 0.000000 0.000000 0.000000 -0.007468
#
#
# Mechanical properties :
#
#
# Convention : Reuss Voigt Hill
#
# Bulk Modulus (GPa) = 34.54012 45.98389 40.26200
# Shear Modulus (GPa) = 53.96626 -105.62898 -25.83136
#
# Velocity S-wave (km/s) = 4.63623 -6.48627 -3.20758
# Velocity P-wave (km/s) = 6.51281 6.14657 1.52255
#
# Compressibility (1/GPa) = 0.02895184
#
# Stress axis : x y z
#
# Youngs Moduli (GPa) = 158.70946 37.13966 125.33801
#
# Poissons Ratio (x) = 0.09599 -0.04274
# Poissons Ratio (y) = 0.41020 0.48666
# Poissons Ratio (z) = -0.05411 0.14420
#
# Static dielectric constant tensor:
#      x y z
#    x 2.290700 0.000000 0.000000 
#    y 0.000000 2.019200 0.000000 
#    z 0.000000 0.000000 1.986540 
# 
# From -- ./inp_files/1369.got.cif
#   From: 2010.05.17/outbox.cif.g08.bks.cpg/sg46_1_cif.got.tgz:1369.got - 2010.06.03 19:58:25.
