data_PCOD9378030
_publ_section_title
;
Structure prediction by ZEFSAII (Michael W. Deem and Ramdas Pophale) SiO2 
 PCOD9378030
Probable space group: I M A 2
;
_chemical_formula_sum "Si O2"
_cell_formula_units_Z 56
_cell_length_a 8.665072
_cell_length_b 13.982106
_cell_length_c 29.972618
_cell_angle_alpha 90.000000
_cell_angle_beta 90.000000
_cell_angle_gamma 90.000000
_cell_volume 3631.361164
_symmetry_space_group_name_H-M "I M A 2"
_symmetry_group_IT_number 46
_symmetry_cell_setting 'orthorhombic'
loop_
_space_group_symop_operation_xyz
x,y,z
-x,-y,z
1/2-x,y,z
1/2+x,-y,z
1/2+x,1/2+y,1/2+z
1/2-x,1/2-y,1/2+z
-x,1/2+y,1/2+z
x,1/2-y,1/2+z
loop_
_atom_site_type_symbol
_atom_site_label
_atom_site_fract_x
_atom_site_fract_y
_atom_site_fract_z
Si Si1 0.935853 0.392153 0.646100
Si Si2 0.564673 0.105548 0.327334
Si Si3 0.065379 0.108399 0.053352
Si Si4 0.935504 0.213127 0.236669
Si Si5 0.934397 0.392033 0.460354
Si Si6 0.564607 0.788791 0.874040
Si Si7 0.565924 0.604915 0.282663
O O1 0.750000 0.396669 0.643270
O O2 0.981570 0.331123 0.689355
O O3 0.000000 0.500000 0.651374
O O4 0.002709 0.350381 0.599870
O O5 0.750000 0.105706 0.330553
O O6 0.521022 0.142784 0.277585
O O7 0.494893 0.183636 0.361022
O O8 0.500000 0.000000 0.334620
O O9 0.250000 0.106962 0.052992
O O10 0.000000 0.000000 0.053616
O O11 0.000889 0.148911 0.006966
O O12 0.750000 0.221113 0.237086
O O13 0.005518 0.315956 0.248114
O O14 0.750000 0.397167 0.462713
O O15 0.000000 0.500000 0.454895
O O16 0.989477 0.329951 0.418599
O O17 0.750000 0.789010 0.877945
O O18 0.520608 0.856294 0.831932
O O19 0.500000 0.500000 0.275033
O O20 0.750000 0.601983 0.281035
#
# Coordination Sequence:
#
# PCOD9378030 Si02
#       7
#     8   8   8   8   8   8   8
#     4  10  18  29  45  67  94 124 154 189 228 271
#     4  10  19  32  48  68  94 125 157 193 231 271
#     4  10  18  29  44  64  91 122 153 188 227 273
#     4   9  19  32  47  67  93 123 157 191 228 271
#     4  11  20  31  47  68  94 124 155 190 230 276
#     4  10  20  33  48  69  93 122 157 192 230 275
#     4  10  20  32  48  67  92 122 154 191 230 271
#
# _framework density 15.421214000000001
#
# number of rings (size 3 to 8) (size 9 to 14) (size 15 to 20)
#    0.000    2.000    0.000    6.857    0.000    4.571 
#    0.000    0.000    0.000    0.000    0.000    1.000 
#    0.000    4.571    0.000    0.000    0.000    0.000 
#
# Total GULP energy -156229.998592 kJ/mol
# GULP energy per Si atom -5579.642807 kJ/mol
# Density = 1.538611 g / cm^3
# Si number density = 15.421214 Si / 1000 Ang^3
#
#
#
# Elastic Constant Matrix: (Units=GPa)
#
#
# Indices 1 2 3 4 5 6 
#
# 1 86.4460 37.8394 57.2148 0.0000 0.0000 0.0000
# 2 37.8394 103.1343 66.8479 0.0000 0.0000 0.0000
# 3 57.2148 66.8479 153.3739 0.0000 0.0000 0.0000
# 4 0.0000 0.0000 0.0000 22.7383 0.0000 0.0000
# 5 0.0000 0.0000 0.0000 0.0000 24.8765 0.0000
# 6 0.0000 0.0000 0.0000 0.0000 0.0000 23.8860
#
#
#
# Elastic Compliance Matrix: (Units=1/GPa)
#
#
# Indices 1 2 3 4 5 6 
#
# 1 0.015910 -0.002774 -0.004726 0.000000 0.000000 0.000000
# 2 -0.002774 0.013997 -0.005066 0.000000 0.000000 0.000000
# 3 -0.004726 -0.005066 0.010491 0.000000 0.000000 0.000000
# 4 0.000000 0.000000 0.000000 0.043979 0.000000 0.000000
# 5 0.000000 0.000000 0.000000 0.000000 0.040199 0.000000
# 6 0.000000 0.000000 0.000000 0.000000 0.000000 0.041865
#
#
# Mechanical properties :
#
#
# Convention : Reuss Voigt Hill
#
# Bulk Modulus (GPa) = 65.50306 74.08427 69.79367
# Shear Modulus (GPa) = 25.42430 26.37031 25.89730
#
# Velocity S-wave (km/s) = 4.06477 4.13970 4.10241
# Velocity P-wave (km/s) = 8.03729 8.42581 8.23384
#
# Compressibility (1/GPa) = 0.01526646
#
# Stress axis : x y z
#
# Youngs Moduli (GPa) = 62.85291 71.44157 95.31967
#
# Poissons Ratio (x) = 0.19819 0.45049
# Poissons Ratio (y) = 0.17436 0.48288
# Poissons Ratio (z) = 0.29705 0.36192
#
# Static dielectric constant tensor:
#      x y z
#    x 1.514080 0.000000 0.000000 
#    y 0.000000 1.484380 0.000000 
#    z 0.000000 0.000000 1.535720 
# 
# From -- ./inp_files/25251.got.cif
#   From: 2010.05.17/outbox.cif.g08.bks.cpg/sg46_13_cif.got.tgz:25251.got - 2010.06.03 19:58:25.
