data_PCOD9378412
_publ_section_title
;
Structure prediction by ZEFSAII (Michael W. Deem and Ramdas Pophale) SiO2 
 PCOD9378412
Probable space group: I M A 2
;
_chemical_formula_sum "Si O2"
_cell_formula_units_Z 56
_cell_length_a 14.589950
_cell_length_b 15.195069
_cell_length_c 9.684195
_cell_angle_alpha 90.000000
_cell_angle_beta 90.000000
_cell_angle_gamma 90.000000
_cell_volume 2146.940486
_symmetry_space_group_name_H-M "I M A 2"
_symmetry_group_IT_number 46
_symmetry_cell_setting 'orthorhombic'
loop_
_space_group_symop_operation_xyz
x,y,z
-x,-y,z
1/2-x,y,z
1/2+x,-y,z
1/2+x,1/2+y,1/2+z
1/2-x,1/2-y,1/2+z
-x,1/2+y,1/2+z
x,1/2-y,1/2+z
loop_
_atom_site_type_symbol
_atom_site_label
_atom_site_fract_x
_atom_site_fract_y
_atom_site_fract_z
Si Si1 0.850232 0.885533 0.380600
Si Si2 0.601349 0.032868 0.037598
Si Si3 0.141837 0.439857 0.171913
Si Si4 0.413221 0.933763 0.338896
Si Si5 0.006472 0.734949 0.869286
Si Si6 0.146187 0.149305 0.972138
Si Si7 0.356431 0.874556 0.757959
O O1 0.750000 0.848789 0.353189
O O2 0.925745 0.826453 0.302838
O O3 0.882119 0.880757 0.541535
O O4 0.841630 0.990794 0.369240
O O5 0.646626 0.085334 0.914082
O O6 0.500000 0.000000 0.996394
O O7 0.646888 0.938111 0.065501
O O8 0.597753 0.087730 0.177188
O O9 0.250000 0.455129 0.159346
O O10 0.132845 0.389717 0.316271
O O11 0.104336 0.539736 0.176051
O O12 0.424161 0.842678 0.418708
O O13 0.500000 0.000000 0.352437
O O14 0.946032 0.792257 0.976905
O O15 0.068547 0.797707 0.773511
O O16 0.250000 0.186788 0.985688
O O17 0.250000 0.851452 0.719785
#
# Coordination Sequence:
#
# PCOD9378412 Si02
#       7
#     8   8   8   8   8   8   8
#     4  10  21  42  64  86 123 165 205 249 310 381
#     4  10  18  38  62  86 121 164 205 247 300 373
#     4   8  18  38  62  87 120 163 204 246 303 373
#     4   9  22  40  57  83 123 164 202 242 306 376
#     4  11  22  40  60  97 123 158 205 263 313 361
#     4  10  20  37  63  95 125 156 202 258 315 365
#     4  10  21  39  62  92 124 158 207 257 307 365
#
# _framework density 26.083628999999998
#
# number of rings (size 3 to 8) (size 9 to 14) (size 15 to 20)
#    0.000    2.286    1.429    1.714    0.000    2.857 
#   12.857    0.000    0.000    0.000    0.000    0.000 
#    0.000    0.000    0.000    0.000    0.000    0.000 
#
# Total GULP energy -156080.932538 kJ/mol
# GULP energy per Si atom -5574.319019 kJ/mol
# Density = 2.602426 g / cm^3
# Si number density = 26.083629 Si / 1000 Ang^3
#
#
#
# Elastic Constant Matrix: (Units=GPa)
#
#
# Indices 1 2 3 4 5 6 
#
# 1 141.3485 51.3308 5.3635 0.0000 0.0000 0.0000
# 2 51.3308 151.6407 11.1601 0.0000 0.0000 0.0000
# 3 5.3635 11.1601 63.0654 0.0000 0.0000 0.0000
# 4 0.0000 0.0000 0.0000 36.1407 0.0000 0.0000
# 5 0.0000 0.0000 0.0000 0.0000 17.8718 0.0000
# 6 0.0000 0.0000 0.0000 0.0000 0.0000 19.7768
#
#
#
# Elastic Compliance Matrix: (Units=1/GPa)
#
#
# Indices 1 2 3 4 5 6 
#
# 1 0.008069 -0.002716 -0.000206 0.000000 0.000000 0.000000
# 2 -0.002716 0.007596 -0.001113 0.000000 0.000000 0.000000
# 3 -0.000206 -0.001113 0.016071 0.000000 0.000000 0.000000
# 4 0.000000 0.000000 0.000000 0.027670 0.000000 0.000000
# 5 0.000000 0.000000 0.000000 0.000000 0.055954 0.000000
# 6 0.000000 0.000000 0.000000 0.000000 0.000000 0.050564
#
#
# Mechanical properties :
#
#
# Convention : Reuss Voigt Hill
#
# Bulk Modulus (GPa) = 42.25484 54.64037 48.44761
# Shear Modulus (GPa) = 27.49030 33.97121 30.73075
#
# Velocity S-wave (km/s) = 3.24995 3.61279 3.43616
# Velocity P-wave (km/s) = 5.50616 6.19650 5.86150
#
# Compressibility (1/GPa) = 0.02366593
#
# Stress axis : x y z
#
# Youngs Moduli (GPa) = 123.93244 131.64987 62.22375
#
# Poissons Ratio (x) = 0.35759 0.01279
# Poissons Ratio (y) = 0.33663 0.06927
# Poissons Ratio (z) = 0.02548 0.14655
#
# Static dielectric constant tensor:
#      x y z
#    x 2.159200 0.000000 0.000000 
#    y 0.000000 2.157410 0.000000 
#    z 0.000000 0.000000 2.109700 
# 
# From -- ./inp_files/11139.got.cif
#   From: 2010.05.17/outbox.cif.g08.bks.cpg/sg46_6_cif.got.tgz:11139.got - 2010.06.03 19:58:25.
