data_PCOD9378457
_publ_section_title
;
Structure prediction by ZEFSAII (Michael W. Deem and Ramdas Pophale) SiO2 
 PCOD9378457
Probable space group: I M A 2
;
_chemical_formula_sum "Si O2"
_cell_formula_units_Z 64
_cell_length_a 7.664499
_cell_length_b 14.300211
_cell_length_c 23.997490
_cell_angle_alpha 90.000000
_cell_angle_beta 90.000000
_cell_angle_gamma 90.000000
_cell_volume 2630.219764
_symmetry_space_group_name_H-M "I M A 2"
_symmetry_group_IT_number 46
_symmetry_cell_setting 'orthorhombic'
loop_
_space_group_symop_operation_xyz
x,y,z
-x,-y,z
1/2-x,y,z
1/2+x,-y,z
1/2+x,1/2+y,1/2+z
1/2-x,1/2-y,1/2+z
-x,1/2+y,1/2+z
x,1/2-y,1/2+z
loop_
_atom_site_type_symbol
_atom_site_label
_atom_site_fract_x
_atom_site_fract_y
_atom_site_fract_z
Si Si1 0.548311 0.621021 0.130630
Si Si2 0.463333 0.834583 0.109100
Si Si3 0.557908 0.601749 0.848233
Si Si4 0.954352 0.368961 0.727842
Si Si5 0.537700 0.848726 0.746763
Si Si6 0.046297 0.687037 0.486357
Si Si7 0.041841 0.400486 0.010944
Si Si8 0.956962 0.808799 0.864341
O O1 0.750000 0.590494 0.130688
O O2 0.541515 0.732852 0.122079
O O3 0.469987 0.599864 0.191277
O O4 0.460948 0.591037 0.073172
O O5 0.250000 0.828431 0.109610
O O6 0.511908 0.892392 0.164679
O O7 0.520782 0.855100 0.045456
O O8 0.500000 0.500000 0.866816
O O9 0.750000 0.612415 0.872228
O O10 0.557711 0.594626 0.780980
O O11 0.467798 0.701754 0.861280
O O12 0.750000 0.392221 0.734190
O O13 0.978574 0.257656 0.735854
O O14 0.750000 0.853575 0.743807
O O15 0.479226 0.867314 0.810343
O O16 0.250000 0.668208 0.486103
O O17 0.019701 0.800187 0.488189
O O18 0.978640 0.653472 0.426547
O O19 0.250000 0.391621 0.014111
O O20 0.000000 0.500000 0.983435
O O21 0.750000 0.800035 0.854474
#
# Coordination Sequence:
#
# PCOD9378457 Si02
#       8
#     8   8   8   8   8   8   8   8
#     4   8  14  25  42  60  76  99 130 164 203 244
#     4   8  15  26  40  59  80 102 128 162 204 244
#     4  10  20  32  44  59  81 109 141 173 204 239
#     4   9  15  25  42  61  80 101 128 163 205 247
#     4   8  14  26  42  59  79 101 128 164 205 245
#     4  10  19  30  43  59  82 111 142 172 201 235
#     4  10  19  30  43  59  81 109 141 172 203 239
#     4   9  18  30  42  58  82 110 139 170 202 237
#
# _framework density 24.332567999999998
#
# number of rings (size 3 to 8) (size 9 to 14) (size 15 to 20)
#    0.000    3.000    0.000    2.250    0.000    4.500 
#    0.000    1.250    0.000    0.000    0.000    0.000 
#    0.000    1.000    0.000   10.250    0.000    1.875 
#
# Total GULP energy -178142.424879 kJ/mol
# GULP energy per Si atom -5566.950777 kJ/mol
# Density = 2.427719 g / cm^3
# Si number density = 24.332568 Si / 1000 Ang^3
#
#
#
# Elastic Constant Matrix: (Units=GPa)
#
#
# Indices 1 2 3 4 5 6 
#
# 1 46.7066 -9.4695 1.9960 0.0000 0.0000 0.0000
# 2 -9.4695 26.8734 3.2529 0.0000 0.0000 0.0000
# 3 1.9960 3.2529 255.7908 0.0000 0.0000 0.0000
# 4 0.0000 0.0000 0.0000 -18.5908 0.0000 0.0000
# 5 0.0000 0.0000 0.0000 0.0000 27.5042 0.0000
# 6 0.0000 0.0000 0.0000 0.0000 0.0000 3.6306
#
#
#
# Elastic Compliance Matrix: (Units=1/GPa)
#
#
# Indices 1 2 3 4 5 6 
#
# 1 0.023078 0.008167 -0.000284 0.000000 0.000000 0.000000
# 2 0.008167 0.040159 -0.000574 0.000000 0.000000 0.000000
# 3 -0.000284 -0.000574 0.003919 0.000000 0.000000 0.000000
# 4 0.000000 0.000000 0.000000 -0.053790 0.000000 0.000000
# 5 0.000000 0.000000 0.000000 0.000000 0.036358 0.000000
# 6 0.000000 0.000000 0.000000 0.000000 0.000000 0.275435
#
#
# Mechanical properties :
#
#
# Convention : Reuss Voigt Hill
#
# Bulk Modulus (GPa) = 12.22912 35.65885 23.94399
# Shear Modulus (GPa) = 14.80167 24.74824 19.77496
#
# Velocity S-wave (km/s) = 2.46906 3.19263 2.85387
# Velocity P-wave (km/s) = 3.62837 5.31763 4.55205
#
# Compressibility (1/GPa) = 0.08177202
#
# Stress axis : x y z
#
# Youngs Moduli (GPa) = 43.33112 24.90122 255.16941
#
# Poissons Ratio (x) = -0.20336 0.07245
# Poissons Ratio (y) = -0.35386 0.14658
# Poissons Ratio (z) = 0.01230 0.01430
#
# Static dielectric constant tensor:
#      x y z
#    x 1.827450 0.000000 0.000000 
#    y 0.000000 1.979180 0.000000 
#    z 0.000000 0.000000 2.055250 
# 
# From -- ./inp_files/18623.got.cif
#   From: 2010.05.17/outbox.cif.g08.bks.cpg/sg46_10_cif.got.tgz:18623.got - 2010.06.03 19:58:25.
