data_PCOD9378129
_publ_section_title
;
Structure prediction by ZEFSAII (Michael W. Deem and Ramdas Pophale) SiO2 
 PCOD9378129
Probable space group: I M A 2
;
_chemical_formula_sum "Si O2"
_cell_formula_units_Z 56
_cell_length_a 26.171912
_cell_length_b 5.468392
_cell_length_c 14.655918
_cell_angle_alpha 90.000000
_cell_angle_beta 90.000000
_cell_angle_gamma 90.000000
_cell_volume 2097.529691
_symmetry_space_group_name_H-M "I M A 2"
_symmetry_group_IT_number 46
_symmetry_cell_setting 'orthorhombic'
loop_
_space_group_symop_operation_xyz
x,y,z
-x,-y,z
1/2-x,y,z
1/2+x,-y,z
1/2+x,1/2+y,1/2+z
1/2-x,1/2-y,1/2+z
-x,1/2+y,1/2+z
x,1/2-y,1/2+z
loop_
_atom_site_type_symbol
_atom_site_label
_atom_site_fract_x
_atom_site_fract_y
_atom_site_fract_z
Si Si1 0.190562 0.771151 0.338440
Si Si2 0.190941 0.280648 0.105601
Si Si3 0.554010 0.542036 0.011224
Si Si4 0.146861 0.228404 0.808118
Si Si5 0.029823 0.257146 0.810662
Si Si6 0.939559 0.043836 0.077527
Si Si7 0.656932 0.281097 0.632076
O O1 0.250000 0.777972 0.365729
O O2 0.162736 0.516375 0.361382
O O3 0.187092 0.766268 0.226836
O O4 0.160836 0.022488 0.361382
O O5 0.250000 0.318598 0.087807
O O6 0.179469 0.265424 0.214810
O O7 0.164078 0.531751 0.078303
O O8 0.176562 0.009699 0.074641
O O9 0.500000 0.500000 0.064218
O O10 0.569903 0.257850 0.001395
O O11 0.580635 0.769226 0.061014
O O12 0.540024 0.669516 0.916010
O O13 0.087831 0.221321 0.777711
O O14 0.000000 0.500000 0.774686
O O15 0.000000 0.000000 0.802138
O O16 0.902919 0.166314 0.153413
O O17 0.000000 0.000000 0.085201
#
# Coordination Sequence:
#
# PCOD9378129 Si02
#       7
#     8   8   8   8   8   8   8
#     4  10  19  34  53  78 103 133 174 213 246 300
#     4  10  19  34  52  75 100 131 171 209 242 295
#     4   9  18  33  51  69  96 131 169 207 242 285
#     4  10  19  32  52  77 102 132 172 209 253 300
#     4  11  21  35  53  77 104 135 171 210 251 303
#     4  10  19  32  50  74 101 130 163 203 246 294
#     4  10  18  30  50  76 100 128 168 205 247 295
#
# _framework density 26.698074999999999
#
# number of rings (size 3 to 8) (size 9 to 14) (size 15 to 20)
#    0.000    2.000    0.000    8.143    0.000    0.000 
#    0.000    8.571    0.000    0.000    0.000   34.000 
#    0.000    0.000    0.000    0.000    0.000    0.000 
#
# Total GULP energy -156240.488594 kJ/mol
# GULP energy per Si atom -5580.017450 kJ/mol
# Density = 2.663731 g / cm^3
# Si number density = 26.698075 Si / 1000 Ang^3
#
#
#
# Elastic Constant Matrix: (Units=GPa)
#
#
# Indices 1 2 3 4 5 6 
#
# 1 128.6079 92.6698 -8.7961 0.0000 0.0000 0.0000
# 2 92.6698 346.3729 23.3405 0.0000 0.0000 0.0000
# 3 -8.7961 23.3405 63.7389 0.0000 0.0000 0.0000
# 4 0.0000 0.0000 0.0000 3.0271 0.0000 0.0000
# 5 0.0000 0.0000 0.0000 0.0000 -0.0465 0.0000
# 6 0.0000 0.0000 0.0000 0.0000 0.0000 46.9814
#
#
#
# Elastic Compliance Matrix: (Units=1/GPa)
#
#
# Indices 1 2 3 4 5 6 
#
# 1 0.009982 -0.002833 0.002415 0.000000 0.000000 0.000000
# 2 -0.002833 0.003764 -0.001770 0.000000 0.000000 0.000000
# 3 0.002415 -0.001770 0.016670 0.000000 0.000000 0.000000
# 4 0.000000 0.000000 0.000000 0.330354 0.000000 0.000000
# 5 0.000000 0.000000 0.000000 0.000000-21.507343 0.000000
# 6 0.000000 0.000000 0.000000 0.000000 0.000000 0.021285
#
#
# Mechanical properties :
#
#
# Convention : Reuss Voigt Hill
#
# Bulk Modulus (GPa) = 38.40023 83.68315 61.04169
# Shear Modulus (GPa) = -0.23683 38.75942 19.26129
#
# Velocity S-wave (km/s) = -0.29816 3.81434 2.68889
# Velocity P-wave (km/s) = 3.78098 7.12820 5.70557
#
# Compressibility (1/GPa) = 0.02604151
#
# Stress axis : x y z
#
# Youngs Moduli (GPa) = 100.17569 265.64772 59.98701
#
# Poissons Ratio (x) = 0.75271 -0.14488
# Poissons Ratio (y) = 0.28385 0.10615
# Poissons Ratio (z) = -0.24194 0.47007
#
# Static dielectric constant tensor:
#      x y z
#    x 2.129990 0.000000 0.000000 
#    y 0.000000 2.196420 0.000000 
#    z 0.000000 0.000000 2.153000 
# 
# From -- ./inp_files/22535.got.cif
#   From: 2010.05.17/outbox.cif.g08.bks.cpg/sg46_12_cif.got.tgz:22535.got - 2010.06.03 19:58:25.
