data_PCOD9378269
_publ_section_title
;
Structure prediction by ZEFSAII (Michael W. Deem and Ramdas Pophale) SiO2 
 PCOD9378269
Probable space group: I M A 2
;
_chemical_formula_sum "Si O2"
_cell_formula_units_Z 56
_cell_length_a 20.874164
_cell_length_b 10.355745
_cell_length_c 11.564653
_cell_angle_alpha 90.000000
_cell_angle_beta 90.000000
_cell_angle_gamma 90.000000
_cell_volume 2499.902353
_symmetry_space_group_name_H-M "I M A 2"
_symmetry_group_IT_number 46
_symmetry_cell_setting 'orthorhombic'
loop_
_space_group_symop_operation_xyz
x,y,z
-x,-y,z
1/2-x,y,z
1/2+x,-y,z
1/2+x,1/2+y,1/2+z
1/2-x,1/2-y,1/2+z
-x,1/2+y,1/2+z
x,1/2-y,1/2+z
loop_
_atom_site_type_symbol
_atom_site_label
_atom_site_fract_x
_atom_site_fract_y
_atom_site_fract_z
Si Si1 0.410404 0.316742 0.062850
Si Si2 0.819172 0.864026 0.754255
Si Si3 0.176576 0.067575 0.008999
Si Si4 0.173541 0.780188 0.046516
Si Si5 0.502991 0.641386 0.671687
Si Si6 0.368891 0.689253 0.791881
Si Si7 0.129441 0.094999 0.323353
O O1 0.378948 0.386286 0.172065
O O2 0.480769 0.260243 0.086780
O O3 0.367246 0.187685 0.042040
O O4 0.397261 0.403346 0.952994
O O5 0.750000 0.884570 0.696983
O O6 0.823270 0.945167 0.870592
O O7 0.824310 0.715430 0.798895
O O8 0.250000 0.092270 0.045164
O O9 0.154056 0.931037 0.055533
O O10 0.250000 0.770309 0.028997
O O11 0.158839 0.733380 0.179084
O O12 0.141730 0.735897 0.924459
O O13 0.500000 0.500000 0.612493
O O14 0.443131 0.670600 0.754013
O O15 0.566242 0.626464 0.749525
O O16 0.340942 0.543002 0.796299
#
# Coordination Sequence:
#
# PCOD9378269 Si02
#       7
#     8   8   8   8   8   8   8
#     4  10  18  32  58  85 120 151 197 252 306 369
#     4   9  17  30  52  84 117 152 191 246 315 367
#     4   9  18  33  54  82 117 155 198 247 303 366
#     4  11  24  42  63  87 121 164 213 259 304 370
#     4   9  19  36  57  83 115 156 199 249 305 370
#     4  11  24  41  63  87 118 166 208 253 311 365
#     4   9  20  36  57  87 120 152 202 257 304 366
#
# _framework density 22.400874000000002
#
# number of rings (size 3 to 8) (size 9 to 14) (size 15 to 20)
#    0.000    2.286    0.000    3.429    2.000    4.000 
#    0.000    1.429    0.000    0.000    0.000    0.000 
#    0.000    0.000    0.000    0.000    0.000    0.000 
#
# Total GULP energy -156062.888819 kJ/mol
# GULP energy per Si atom -5573.674601 kJ/mol
# Density = 2.234989 g / cm^3
# Si number density = 22.400874 Si / 1000 Ang^3
#
#
#
# Elastic Constant Matrix: (Units=GPa)
#
#
# Indices 1 2 3 4 5 6 
#
# 1 59.0112 -3.8217 14.8861 0.0000 0.0000 0.0000
# 2 -3.8217 33.8528 27.1888 0.0000 0.0000 0.0000
# 3 14.8861 27.1888 151.9222 0.0000 0.0000 0.0000
# 4 0.0000 0.0000 0.0000 27.4779 0.0000 0.0000
# 5 0.0000 0.0000 0.0000 0.0000 20.7299 0.0000
# 6 0.0000 0.0000 0.0000 0.0000 0.0000 10.3917
#
#
#
# Elastic Compliance Matrix: (Units=1/GPa)
#
#
# Indices 1 2 3 4 5 6 
#
# 1 0.017825 0.003988 -0.002460 0.000000 0.000000 0.000000
# 2 0.003988 0.035391 -0.006724 0.000000 0.000000 0.000000
# 3 -0.002460 -0.006724 0.008027 0.000000 0.000000 0.000000
# 4 0.000000 0.000000 0.000000 0.036393 0.000000 0.000000
# 5 0.000000 0.000000 0.000000 0.000000 0.048239 0.000000
# 6 0.000000 0.000000 0.000000 0.000000 0.000000 0.096231
#
#
# Mechanical properties :
#
#
# Convention : Reuss Voigt Hill
#
# Bulk Modulus (GPa) = 19.66598 35.69920 27.68259
# Shear Modulus (GPa) = 18.55641 25.48875 22.02258
#
# Velocity S-wave (km/s) = 2.88128 3.37686 3.13886
# Velocity P-wave (km/s) = 4.45726 5.58349 5.05186
#
# Compressibility (1/GPa) = 0.05084923
#
# Stress axis : x y z
#
# Youngs Moduli (GPa) = 56.10138 28.25607 124.58193
#
# Poissons Ratio (x) = -0.11269 0.30651
# Poissons Ratio (y) = -0.22375 0.83775
# Poissons Ratio (z) = 0.13803 0.19001
#
# Static dielectric constant tensor:
#      x y z
#    x 1.837630 0.000000 0.000000 
#    y 0.000000 1.877650 0.000000 
#    z 0.000000 0.000000 1.936950 
# 
# From -- ./inp_files/12376.got.cif
#   From: 2010.05.17/outbox.cif.g08.bks.cpg/sg46_7_cif.got.tgz:12376.got - 2010.06.03 19:58:25.
