data_PCOD9378544
_publ_section_title
;
Structure prediction by ZEFSAII (Michael W. Deem and Ramdas Pophale) SiO2 
 PCOD9378544
Probable space group: I M A 2
;
_chemical_formula_sum "Si O2"
_cell_formula_units_Z 64
_cell_length_a 34.145878
_cell_length_b 5.328602
_cell_length_c 13.471291
_cell_angle_alpha 90.000000
_cell_angle_beta 90.000000
_cell_angle_gamma 90.000000
_cell_volume 2451.098620
_symmetry_space_group_name_H-M "I M A 2"
_symmetry_group_IT_number 46
_symmetry_cell_setting 'orthorhombic'
loop_
_space_group_symop_operation_xyz
x,y,z
-x,-y,z
1/2-x,y,z
1/2+x,-y,z
1/2+x,1/2+y,1/2+z
1/2-x,1/2-y,1/2+z
-x,1/2+y,1/2+z
x,1/2-y,1/2+z
loop_
_atom_site_type_symbol
_atom_site_label
_atom_site_fract_x
_atom_site_fract_y
_atom_site_fract_z
Si Si1 0.673835 0.084008 0.218400
Si Si2 0.414220 0.912287 0.241712
Si Si3 0.824121 0.195732 0.000788
Si Si4 0.542416 0.908194 0.744184
Si Si5 0.590148 0.405406 0.981607
Si Si6 0.294634 0.419793 0.226267
Si Si7 0.793900 0.688815 0.989253
Si Si8 0.543213 0.589547 0.486097
O O1 0.628523 0.019045 0.202518
O O2 0.692311 0.138175 0.110836
O O3 0.677150 0.360258 0.263627
O O4 0.694546 0.851000 0.268984
O O5 0.427280 0.629423 0.217469
O O6 0.410408 0.920154 0.361552
O O7 0.444926 0.129200 0.213167
O O8 0.797864 0.405349 0.949561
O O9 0.824124 0.910742 0.960449
O O10 0.864913 0.350256 0.009793
O O11 0.540680 0.897344 0.864986
O O12 0.500000 0.000000 0.708477
O O13 0.564753 0.648588 0.015059
O O14 0.569695 0.147196 0.011746
O O15 0.250000 0.490540 0.246123
O O16 0.298791 0.364565 0.108156
O O17 0.750000 0.785422 0.971546
O O18 0.500000 0.500000 0.519445
#
# Coordination Sequence:
#
# PCOD9378544 Si02
#       8
#     8   8   8   8   8   8   8   8
#     4  10  19  31  49  72  96 124 157 196 240 285
#     4  10  19  31  49  72  98 126 156 196 241 283
#     4  10  19  31  49  72  96 124 157 196 240 285
#     4   9  17  30  49  72  95 122 160 199 232 273
#     4  10  19  31  49  72  98 126 156 196 241 283
#     4   9  17  30  49  71  93 121 161 202 235 274
#     4   9  17  30  49  71  93 121 161 202 235 274
#     4   9  17  30  49  72  95 122 160 199 232 273
#
# _framework density 26.110741000000001
#
# number of rings (size 3 to 8) (size 9 to 14) (size 15 to 20)
#    0.000    2.500    0.000    3.000    0.000    6.000 
#    0.000    0.000    0.000    7.500    0.000    0.000 
#    0.000    0.000    0.000    0.000    0.000    0.000 
#
# Total GULP energy -178850.549758 kJ/mol
# GULP energy per Si atom -5589.079680 kJ/mol
# Density = 2.605131 g / cm^3
# Si number density = 26.110741 Si / 1000 Ang^3
#
#
#
# Elastic Constant Matrix: (Units=GPa)
#
#
# Indices 1 2 3 4 5 6 
#
# 1 125.0792 53.8183 -30.5329 0.0000 0.0000 0.0000
# 2 53.8183 223.6278 13.6896 0.0000 0.0000 0.0000
# 3 -30.5329 13.6896 74.8724 0.0000 0.0000 0.0000
# 4 0.0000 0.0000 0.0000 40.7968 0.0000 0.0000
# 5 0.0000 0.0000 0.0000 0.0000 52.9547 0.0000
# 6 0.0000 0.0000 0.0000 0.0000 0.0000 48.0679
#
#
#
# Elastic Compliance Matrix: (Units=1/GPa)
#
#
# Indices 1 2 3 4 5 6 
#
# 1 0.010344 -0.002779 0.004726 0.000000 0.000000 0.000000
# 2 -0.002779 0.005269 -0.002097 0.000000 0.000000 0.000000
# 3 0.004726 -0.002097 0.015667 0.000000 0.000000 0.000000
# 4 0.000000 0.000000 0.000000 0.024512 0.000000 0.000000
# 5 0.000000 0.000000 0.000000 0.000000 0.018884 0.000000
# 6 0.000000 0.000000 0.000000 0.000000 0.000000 0.020804
#
#
# Mechanical properties :
#
#
# Convention : Reuss Voigt Hill
#
# Bulk Modulus (GPa) = 32.27652 55.28106 43.77879
# Shear Modulus (GPa) = 47.12323 54.13753 50.63038
#
# Velocity S-wave (km/s) = 4.25284 4.55838 4.40826
# Velocity P-wave (km/s) = 6.04183 6.99449 6.53554
#
# Compressibility (1/GPa) = 0.03098228
#
# Stress axis : x y z
#
# Youngs Moduli (GPa) = 96.67108 189.79631 63.82908
#
# Poissons Ratio (x) = 0.52741 -0.30169
# Poissons Ratio (y) = 0.26863 0.13382
# Poissons Ratio (z) = -0.45691 0.39792
#
# Static dielectric constant tensor:
#      x y z
#    x 1.996510 0.000000 0.000000 
#    y 0.000000 2.040980 0.000000 
#    z 0.000000 0.000000 2.173790 
# 
# From -- ./inp_files/20546.got.cif
#   From: 2010.05.17/outbox.cif.g08.bks.cpg/sg46_11_cif.got.tgz:20546.got - 2010.06.03 19:58:25.
