data_PCOD9378490
_publ_section_title
;
Structure prediction by ZEFSAII (Michael W. Deem and Ramdas Pophale) SiO2 
 PCOD9378490
Probable space group: I M A 2
;
_chemical_formula_sum "Si O2"
_cell_formula_units_Z 48
_cell_length_a 14.425522
_cell_length_b 5.190375
_cell_length_c 27.879108
_cell_angle_alpha 90.000000
_cell_angle_beta 90.000000
_cell_angle_gamma 90.000000
_cell_volume 2087.416673
_symmetry_space_group_name_H-M "I M A 2"
_symmetry_group_IT_number 46
_symmetry_cell_setting 'orthorhombic'
loop_
_space_group_symop_operation_xyz
x,y,z
-x,-y,z
1/2-x,y,z
1/2+x,-y,z
1/2+x,1/2+y,1/2+z
1/2-x,1/2-y,1/2+z
-x,1/2+y,1/2+z
x,1/2-y,1/2+z
loop_
_atom_site_type_symbol
_atom_site_label
_atom_site_fract_x
_atom_site_fract_y
_atom_site_fract_z
Si Si1 0.064904 0.251823 0.078340
Si Si2 0.934110 0.750006 0.473448
Si Si3 0.611438 0.553788 0.375511
Si Si4 0.137790 0.670009 0.230397
Si Si5 0.107526 0.946396 0.331400
Si Si6 0.859592 0.666276 0.680601
O O1 0.126136 0.243486 0.125729
O O2 0.000000 0.500000 0.081161
O O3 0.112417 0.268626 0.025811
O O4 0.000000 0.000000 0.079425
O O5 0.873446 0.689034 0.426733
O O6 0.000000 0.500000 0.476462
O O7 0.000000 0.000000 0.465892
O O8 0.500000 0.500000 0.370986
O O9 0.647864 0.266002 0.367792
O O10 0.645347 0.763635 0.336568
O O11 0.250000 0.652478 0.229254
O O12 0.113589 0.802065 0.280748
O O13 0.102249 0.386920 0.216321
O O14 0.104469 0.879985 0.191372
O O15 0.000000 0.000000 0.342260
O O16 0.750000 0.652137 0.689845
#
# Coordination Sequence:
#
# PCOD9378490 Si02
#       6
#     8   8   8   8   8   8
#     4  10  20  33  53  80 103 128 167 213 253 290
#     4   9  16  28  47  72 101 129 158 196 245 299
#     4   9  16  28  46  71 100 127 156 194 242 295
#     4  10  21  36  52  70  97 136 173 203 247 305
#     4  10  19  30  48  73  97 124 162 205 244 281
#     4  10  21  37  54  72 100 138 171 203 253 310
#
# _framework density 22.994928000000002
#
# number of rings (size 3 to 8) (size 9 to 14) (size 15 to 20)
#    0.000    2.333    0.000    4.500    0.000    2.000 
#    0.000    0.000    0.000    2.000    0.000    0.000 
#    0.000    5.333    0.000    0.000    0.000    0.000 
#
# Total GULP energy -133893.592609 kJ/mol
# GULP energy per Si atom -5578.899692 kJ/mol
# Density = 2.294259 g / cm^3
# Si number density = 22.994928 Si / 1000 Ang^3
#
#
#
# Elastic Constant Matrix: (Units=GPa)
#
#
# Indices 1 2 3 4 5 6 
#
# 1 51.2676 8.7861 -17.3001 0.0000 0.0000 0.0000
# 2 8.7861 157.3669 22.4288 0.0000 0.0000 0.0000
# 3 -17.3001 22.4288 109.7817 0.0000 0.0000 0.0000
# 4 0.0000 0.0000 0.0000 49.0478 0.0000 0.0000
# 5 0.0000 0.0000 0.0000 0.0000 156.2502 0.0000
# 6 0.0000 0.0000 0.0000 0.0000 0.0000 -5.3619
#
#
#
# Elastic Compliance Matrix: (Units=1/GPa)
#
#
# Indices 1 2 3 4 5 6 
#
# 1 0.021031 -0.001696 0.003661 0.000000 0.000000 0.000000
# 2 -0.001696 0.006682 -0.001632 0.000000 0.000000 0.000000
# 3 0.003661 -0.001632 0.010019 0.000000 0.000000 0.000000
# 4 0.000000 0.000000 0.000000 0.020388 0.000000 0.000000
# 5 0.000000 0.000000 0.000000 0.000000 0.006400 0.000000
# 6 0.000000 0.000000 0.000000 0.000000 0.000000 -0.186501
#
#
# Mechanical properties :
#
#
# Convention : Reuss Voigt Hill
#
# Bulk Modulus (GPa) = 26.04333 38.47175 32.25754
# Shear Modulus (GPa) = -45.51826 60.28731 7.38453
#
# Velocity S-wave (km/s) = -4.45397 5.12587 1.79397
# Velocity P-wave (km/s) = 3.88590 7.19720 4.28365
#
# Compressibility (1/GPa) = 0.03839755
#
# Stress axis : x y z
#
# Youngs Moduli (GPa) = 47.54781 149.65748 99.80654
#
# Poissons Ratio (x) = 0.25382 -0.36537
# Poissons Ratio (y) = 0.08064 0.16292
# Poissons Ratio (z) = -0.17406 0.24430
#
# Static dielectric constant tensor:
#      x y z
#    x 1.806110 0.000000 0.000000 
#    y 0.000000 1.865300 0.000000 
#    z 0.000000 0.000000 1.933940 
# 
# From -- ./inp_files/24658.got.cif
#   From: 2010.05.17/outbox.cif.g08.bks.cpg/sg46_13_cif.got.tgz:24658.got - 2010.06.03 19:58:25.
