data_PCOD9378644
_publ_section_title
;
Structure prediction by ZEFSAII (Michael W. Deem and Ramdas Pophale) SiO2 
 PCOD9378644
Probable space group: I M A 2
;
_chemical_formula_sum "Si O2"
_cell_formula_units_Z 40
_cell_length_a 14.916579
_cell_length_b 14.002710
_cell_length_c 9.840991
_cell_angle_alpha 90.000000
_cell_angle_beta 90.000000
_cell_angle_gamma 90.000000
_cell_volume 2055.512687
_symmetry_space_group_name_H-M "I M A 2"
_symmetry_group_IT_number 46
_symmetry_cell_setting 'orthorhombic'
loop_
_space_group_symop_operation_xyz
x,y,z
-x,-y,z
1/2-x,y,z
1/2+x,-y,z
1/2+x,1/2+y,1/2+z
1/2-x,1/2-y,1/2+z
-x,1/2+y,1/2+z
x,1/2-y,1/2+z
loop_
_atom_site_type_symbol
_atom_site_label
_atom_site_fract_x
_atom_site_fract_y
_atom_site_fract_z
Si Si1 0.150313 0.885015 0.644010
Si Si2 0.146060 0.055587 0.443394
Si Si3 0.099619 0.038678 0.865011
Si Si4 0.956249 0.689841 0.147259
Si Si5 0.149240 0.382189 0.646318
O O1 0.250000 0.841787 0.638792
O O2 0.063723 0.818171 0.655909
O O3 0.135824 0.952259 0.512035
O O4 0.145951 0.960433 0.768798
O O5 0.250000 0.084698 0.469925
O O6 0.080271 0.128657 0.519398
O O7 0.131786 0.057787 0.282593
O O8 0.087409 0.135253 0.776667
O O9 0.144368 0.058513 0.008129
O O10 0.000000 0.000000 0.889952
O O11 0.920773 0.796295 0.138443
O O12 0.250000 0.341392 0.659124
#
# Coordination Sequence:
#
# PCOD9378644 Si02
#       5
#     8   8   8   8   8
#     4   9  18  35  56  74  97 136 180 210 241 299
#     4   9  18  31  49  75 105 134 165 205 255 307
#     4   9  19  34  53  76 102 136 172 208 253 303
#     4  10  19  32  51  77 105 136 170 207 254 304
#     4  11  21  32  52  82 110 132 161 212 267 303
#
# _framework density 19.459866000000002
#
# number of rings (size 3 to 8) (size 9 to 14) (size 15 to 20)
#    0.000    2.400    0.000    4.200    0.000    5.600 
#    0.000    0.000    0.000   12.000    0.000    0.000 
#    0.000    0.000    0.000    0.000    0.000    0.000 
#
# Total GULP energy -111622.779495 kJ/mol
# GULP energy per Si atom -5581.138975 kJ/mol
# Density = 1.941557 g / cm^3
# Si number density = 19.459866 Si / 1000 Ang^3
#
#
#
# Elastic Constant Matrix: (Units=GPa)
#
#
# Indices 1 2 3 4 5 6 
#
# 1 105.5847 19.7540 35.2128 0.0000 0.0000 0.0000
# 2 19.7540 26.5866 19.5187 0.0000 0.0000 0.0000
# 3 35.2128 19.5187 136.1151 0.0000 0.0000 0.0000
# 4 0.0000 0.0000 0.0000 -4.7677 0.0000 0.0000
# 5 0.0000 0.0000 0.0000 0.0000 21.2735 0.0000
# 6 0.0000 0.0000 0.0000 0.0000 0.0000 -2.0895
#
#
#
# Elastic Compliance Matrix: (Units=1/GPa)
#
#
# Indices 1 2 3 4 5 6 
#
# 1 0.011444 -0.007074 -0.001946 0.000000 0.000000 0.000000
# 2 -0.007074 0.046411 -0.004825 0.000000 0.000000 0.000000
# 3 -0.001946 -0.004825 0.008542 0.000000 0.000000 0.000000
# 4 0.000000 0.000000 0.000000 -0.209745 0.000000 0.000000
# 5 0.000000 0.000000 0.000000 0.000000 0.047007 0.000000
# 6 0.000000 0.000000 0.000000 0.000000 0.000000 -0.478587
#
#
# Mechanical properties :
#
#
# Convention : Reuss Voigt Hill
#
# Bulk Modulus (GPa) = 25.83540 46.36190 36.09865
# Shear Modulus (GPa) = -9.35743 15.80332 3.22295
#
# Velocity S-wave (km/s) = -2.19523 2.85283 1.28833
# Velocity P-wave (km/s) = 2.62292 5.89301 4.56110
#
# Compressibility (1/GPa) = 0.03870657
#
# Stress axis : x y z
#
# Youngs Moduli (GPa) = 87.38543 21.54639 117.06723
#
# Poissons Ratio (x) = 0.15242 0.22782
# Poissons Ratio (y) = 0.61816 0.56488
# Poissons Ratio (z) = 0.17006 0.10397
#
# Static dielectric constant tensor:
#      x y z
#    x 1.760840 0.000000 0.000000 
#    y 0.000000 1.639060 0.000000 
#    z 0.000000 0.000000 1.690220 
# 
# From -- ./inp_files/5388.got.cif
#   From: 2010.05.17/outbox.cif.g08.bks.cpg/sg46_3_cif.got.tgz:5388.got - 2010.06.03 19:58:25.
