data_PCOD9378572
_publ_section_title
;
Structure prediction by ZEFSAII (Michael W. Deem and Ramdas Pophale) SiO2 
 PCOD9378572
Probable space group: I M A 2
;
_chemical_formula_sum "Si O2"
_cell_formula_units_Z 64
_cell_length_a 14.493405
_cell_length_b 18.275968
_cell_length_c 12.657603
_cell_angle_alpha 90.000000
_cell_angle_beta 90.000000
_cell_angle_gamma 90.000000
_cell_volume 3352.758616
_symmetry_space_group_name_H-M "I M A 2"
_symmetry_group_IT_number 46
_symmetry_cell_setting 'orthorhombic'
loop_
_space_group_symop_operation_xyz
x,y,z
-x,-y,z
1/2-x,y,z
1/2+x,-y,z
1/2+x,1/2+y,1/2+z
1/2-x,1/2-y,1/2+z
-x,1/2+y,1/2+z
x,1/2-y,1/2+z
loop_
_atom_site_type_symbol
_atom_site_label
_atom_site_fract_x
_atom_site_fract_y
_atom_site_fract_z
Si Si1 0.356899 0.815363 0.199540
Si Si2 0.965877 0.196764 0.413084
Si Si3 0.051140 0.632918 0.490387
Si Si4 0.362334 0.955844 0.800294
Si Si5 0.356803 0.649863 0.112569
Si Si6 0.640787 0.881764 0.744143
Si Si7 0.147767 0.150269 0.976891
Si Si8 0.644765 0.685122 0.025230
O O1 0.250000 0.832512 0.224557
O O2 0.422645 0.821022 0.300545
O O3 0.360446 0.730445 0.163838
O O4 0.393001 0.860619 0.099007
O O5 0.952832 0.283768 0.441199
O O6 0.910991 0.153714 0.503994
O O7 0.072092 0.174439 0.431470
O O8 0.097428 0.580160 0.405390
O O9 0.944928 0.609841 0.510784
O O10 0.250000 0.954518 0.807658
O O11 0.390437 0.906791 0.700243
O O12 0.393692 0.038457 0.777666
O O13 0.250000 0.632613 0.090378
O O14 0.750000 0.889697 0.724527
O O15 0.633528 0.834632 0.850944
O O16 0.605988 0.848216 0.634808
O O17 0.250000 0.115475 0.986438
O O18 0.149153 0.227043 0.037683
O O19 0.750000 0.660449 0.003935
#
# Coordination Sequence:
#
# PCOD9378572 Si02
#       8
#     8   8   8   8   8   8   8   8
#     4  10  19  32  50  76 113 152 189 231 281 336
#     4  10  19  31  51  76 111 147 196 233 275 335
#     4  10  20  31  51  80 113 150 192 229 282 341
#     4  10  19  33  53  83 118 145 180 230 289 344
#     4   9  18  30  48  77 112 147 181 226 280 334
#     4   9  19  35  55  82 112 144 183 238 296 343
#     4   9  19  34  52  76 108 143 184 234 285 333
#     4   9  19  34  52  76 108 144 189 242 295 333
#
# _framework density 19.088759
#
# number of rings (size 3 to 8) (size 9 to 14) (size 15 to 20)
#    0.000    2.500    1.250    0.750    1.750    4.500 
#    0.000    1.875    0.000    0.000    9.750    0.000 
#    0.000    0.000    0.000    0.000    0.000    0.000 
#
# Total GULP energy -178417.060525 kJ/mol
# GULP energy per Si atom -5575.533141 kJ/mol
# Density = 1.904531 g / cm^3
# Si number density = 19.088759 Si / 1000 Ang^3
#
#
#
# Elastic Constant Matrix: (Units=GPa)
#
#
# Indices 1 2 3 4 5 6 
#
# 1 99.6094 22.0421 48.2392 0.0000 0.0000 0.0000
# 2 22.0421 57.6397 48.7028 0.0000 0.0000 0.0000
# 3 48.2392 48.7028 104.2986 0.0000 0.0000 0.0000
# 4 0.0000 0.0000 0.0000 22.4420 0.0000 0.0000
# 5 0.0000 0.0000 0.0000 0.0000 35.0538 0.0000
# 6 0.0000 0.0000 0.0000 0.0000 0.0000 14.1252
#
#
#
# Elastic Compliance Matrix: (Units=1/GPa)
#
#
# Indices 1 2 3 4 5 6 
#
# 1 0.012938 0.000179 -0.006068 0.000000 0.000000 0.000000
# 2 0.000179 0.028658 -0.013465 0.000000 0.000000 0.000000
# 3 -0.006068 -0.013465 0.018682 0.000000 0.000000 0.000000
# 4 0.000000 0.000000 0.000000 0.044559 0.000000 0.000000
# 5 0.000000 0.000000 0.000000 0.000000 0.028528 0.000000
# 6 0.000000 0.000000 0.000000 0.000000 0.000000 0.070795
#
#
# Mechanical properties :
#
#
# Convention : Reuss Voigt Hill
#
# Bulk Modulus (GPa) = 46.35856 55.50177 50.93017
# Shear Modulus (GPa) = 19.99548 23.82844 21.91196
#
# Velocity S-wave (km/s) = 3.24002 3.53696 3.39174
# Velocity P-wave (km/s) = 6.19157 6.76896 6.48669
#
# Compressibility (1/GPa) = 0.02157099
#
# Stress axis : x y z
#
# Youngs Moduli (GPa) = 77.29153 34.89463 53.52835
#
# Poissons Ratio (x) = -0.00625 0.32479
# Poissons Ratio (y) = -0.01385 0.72075
# Poissons Ratio (z) = 0.46898 0.46985
#
# Static dielectric constant tensor:
#      x y z
#    x 1.744760 0.000000 0.000000 
#    y 0.000000 1.668580 0.000000 
#    z 0.000000 0.000000 1.632350 
# 
# From -- ./inp_files/11346.got.cif
#   From: 2010.05.17/outbox.cif.g08.bks.cpg/sg46_6_cif.got.tgz:11346.got - 2010.06.03 19:58:25.
