data_PCOD9378960
_publ_section_title
;
Structure prediction by ZEFSAII (Michael W. Deem and Ramdas Pophale) SiO2 
 PCOD9378960
Probable space group: I M A 2
;
_chemical_formula_sum "Si O2"
_cell_formula_units_Z 64
_cell_length_a 23.163424
_cell_length_b 11.371462
_cell_length_c 13.251162
_cell_angle_alpha 90.000000
_cell_angle_beta 90.000000
_cell_angle_gamma 90.000000
_cell_volume 3490.382518
_symmetry_space_group_name_H-M "I M A 2"
_symmetry_group_IT_number 46
_symmetry_cell_setting 'orthorhombic'
loop_
_space_group_symop_operation_xyz
x,y,z
-x,-y,z
1/2-x,y,z
1/2+x,-y,z
1/2+x,1/2+y,1/2+z
1/2-x,1/2-y,1/2+z
-x,1/2+y,1/2+z
x,1/2-y,1/2+z
loop_
_atom_site_type_symbol
_atom_site_label
_atom_site_fract_x
_atom_site_fract_y
_atom_site_fract_z
Si Si1 0.361820 0.346783 0.640900
Si Si2 0.815434 0.412175 0.719438
Si Si3 0.817965 0.417224 0.960356
Si Si4 0.615438 0.650047 0.015122
Si Si5 0.567959 0.983009 0.979633
Si Si6 0.581111 0.716863 0.324154
Si Si7 0.504630 0.861347 0.660504
Si Si8 0.894376 0.274468 0.569472
O O1 0.323441 0.456608 0.673843
O O2 0.342643 0.253561 0.556156
O O3 0.416023 0.408490 0.581371
O O4 0.375880 0.268010 0.739027
O O5 0.750000 0.372031 0.699197
O O6 0.824418 0.416934 0.839239
O O7 0.861670 0.328192 0.666363
O O8 0.750000 0.415907 0.983297
O O9 0.849003 0.532592 0.003140
O O10 0.850973 0.308931 0.009887
O O11 0.562063 0.643430 0.091891
O O12 0.585538 0.687546 0.911321
O O13 0.500000 0.000000 0.969051
O O14 0.590957 0.906932 0.883820
O O15 0.591913 0.113166 0.998894
O O16 0.520909 0.703738 0.264747
O O17 0.450904 0.798960 0.605194
O O18 0.500000 0.000000 0.681839
#
# Coordination Sequence:
#
# PCOD9378960 Si02
#       8
#     8   8   8   8   8   8   8   8
#     4   9  19  35  59  83 114 150 196 254 302 363
#     4  10  22  40  63  87 116 162 213 257 311 367
#     4  11  23  41  64  87 120 167 213 257 306 361
#     4  10  20  38  59  91 121 154 204 257 306 371
#     4  10  20  36  57  84 120 158 194 239 308 372
#     4  10  19  34  58  84 119 152 194 245 306 361
#     4  11  22  36  57  89 125 161 197 249 313 380
#     4  11  23  41  59  89 126 162 206 255 311 374
#
# _framework density 18.336098
#
# number of rings (size 3 to 8) (size 9 to 14) (size 15 to 20)
#    0.000    1.750    2.500    3.000    0.000    3.500 
#    0.000    0.625    0.000    0.750    0.000    0.000 
#    0.000    0.000    0.000    0.000    0.000    0.000 
#
# Total GULP energy -178227.172894 kJ/mol
# GULP energy per Si atom -5569.599153 kJ/mol
# Density = 1.829436 g / cm^3
# Si number density = 18.336098 Si / 1000 Ang^3
#
#
#
# Elastic Constant Matrix: (Units=GPa)
#
#
# Indices 1 2 3 4 5 6 
#
# 1 84.4651 57.7003 36.6058 0.0000 0.0000 0.0000
# 2 57.7003 137.5412 38.1414 0.0000 0.0000 0.0000
# 3 36.6058 38.1414 84.7163 0.0000 0.0000 0.0000
# 4 0.0000 0.0000 0.0000 28.3099 0.0000 0.0000
# 5 0.0000 0.0000 0.0000 0.0000 23.8843 0.0000
# 6 0.0000 0.0000 0.0000 0.0000 0.0000 34.7186
#
#
#
# Elastic Compliance Matrix: (Units=1/GPa)
#
#
# Indices 1 2 3 4 5 6 
#
# 1 0.018338 -0.006280 -0.005096 0.000000 0.000000 0.000000
# 2 -0.006280 0.010458 -0.001995 0.000000 0.000000 0.000000
# 3 -0.005096 -0.001995 0.014905 0.000000 0.000000 0.000000
# 4 0.000000 0.000000 0.000000 0.035323 0.000000 0.000000
# 5 0.000000 0.000000 0.000000 0.000000 0.041868 0.000000
# 6 0.000000 0.000000 0.000000 0.000000 0.000000 0.028803
#
#
# Mechanical properties :
#
#
# Convention : Reuss Voigt Hill
#
# Bulk Modulus (GPa) = 58.96909 63.51305 61.24107
# Shear Modulus (GPa) = 27.45893 29.00093 28.22993
#
# Velocity S-wave (km/s) = 3.87400 3.98129 3.92801
# Velocity P-wave (km/s) = 7.22775 7.47313 7.35146
#
# Compressibility (1/GPa) = 0.01695804
#
# Stress axis : x y z
#
# Youngs Moduli (GPa) = 54.53253 95.61888 67.09363
#
# Poissons Ratio (x) = 0.60045 0.34194
# Poissons Ratio (y) = 0.34244 0.13386
# Poissons Ratio (z) = 0.27792 0.19077
#
# Static dielectric constant tensor:
#      x y z
#    x 1.619420 0.000000 0.000000 
#    y 0.000000 1.666650 0.000000 
#    z 0.000000 0.000000 1.677530 
# 
# From -- ./inp_files/12857.got.cif
#   From: 2010.05.17/outbox.cif.g08.bks.cpg/sg46_7_cif.got.tgz:12857.got - 2010.06.03 19:58:25.
