data_PCOD9378515
_publ_section_title
;
Structure prediction by ZEFSAII (Michael W. Deem and Ramdas Pophale) SiO2 
 PCOD9378515
Probable space group: I M A 2
;
_chemical_formula_sum "Si O2"
_cell_formula_units_Z 56
_cell_length_a 8.773538
_cell_length_b 13.897774
_cell_length_c 29.934294
_cell_angle_alpha 90.000000
_cell_angle_beta 90.000000
_cell_angle_gamma 90.000000
_cell_volume 3649.967743
_symmetry_space_group_name_H-M "I M A 2"
_symmetry_group_IT_number 46
_symmetry_cell_setting 'orthorhombic'
loop_
_space_group_symop_operation_xyz
x,y,z
-x,-y,z
1/2-x,y,z
1/2+x,-y,z
1/2+x,1/2+y,1/2+z
1/2-x,1/2-y,1/2+z
-x,1/2+y,1/2+z
x,1/2-y,1/2+z
loop_
_atom_site_type_symbol
_atom_site_label
_atom_site_fract_x
_atom_site_fract_y
_atom_site_fract_z
Si Si1 0.432644 0.604776 0.776030
Si Si2 0.069128 0.392396 0.596357
Si Si3 0.432061 0.892357 0.005326
Si Si4 0.567116 0.108071 0.905825
Si Si5 0.932708 0.396937 0.234234
Si Si6 0.067783 0.291933 0.319870
Si Si7 0.931681 0.204582 0.182235
O O1 0.500000 0.500000 0.784622
O O2 0.250000 0.605830 0.781140
O O3 0.505577 0.686563 0.807139
O O4 0.466809 0.637020 0.724943
O O5 0.250000 0.400746 0.593487
O O6 0.000000 0.500000 0.601629
O O7 0.004514 0.348882 0.549977
O O8 0.019476 0.330396 0.638839
O O9 0.250000 0.896584 0.010496
O O10 0.500000 0.000000 0.004141
O O11 0.466175 0.852643 0.955895
O O12 0.750000 0.103002 0.900779
O O13 0.495037 0.171771 0.867068
O O14 0.500000 0.000000 0.902474
O O15 0.750000 0.401629 0.239098
O O16 0.967407 0.312671 0.198645
O O17 0.000000 0.500000 0.221830
O O18 0.003903 0.362315 0.281162
O O19 0.250000 0.293311 0.319227
O O20 0.750000 0.198268 0.174020
#
# Coordination Sequence:
#
# PCOD9378515 Si02
#       7
#     8   8   8   8   8   8   8
#     4  10  20  34  50  69  94 123 156 194 232 272
#     4  11  20  29  45  67  94 124 154 189 227 272
#     4   9  17  29  45  64  90 121 152 187 228 273
#     4  10  19  31  47  68  94 124 156 191 230 275
#     4  10  20  34  50  68  93 123 155 194 232 272
#     4  11  21  32  48  69  94 125 158 191 228 274
#     4   9  19  33  48  67  92 122 155 188 225 270
#
# _framework density 15.342599999999999
#
# number of rings (size 3 to 8) (size 9 to 14) (size 15 to 20)
#    0.000    2.000    0.000    6.857    0.000    6.286 
#    0.000    0.000    0.000    0.000    0.000    1.000 
#    0.000    4.571    0.000    0.000    0.000    0.000 
#
# Total GULP energy -156218.072049 kJ/mol
# GULP energy per Si atom -5579.216859 kJ/mol
# Density = 1.530768 g / cm^3
# Si number density = 15.342600 Si / 1000 Ang^3
#
#
#
# Elastic Constant Matrix: (Units=GPa)
#
#
# Indices 1 2 3 4 5 6 
#
# 1 104.4720 46.5792 77.1181 0.0000 0.0000 0.0000
# 2 46.5792 85.4624 56.7697 0.0000 0.0000 0.0000
# 3 77.1181 56.7697 145.3590 0.0000 0.0000 0.0000
# 4 0.0000 0.0000 0.0000 20.0818 0.0000 0.0000
# 5 0.0000 0.0000 0.0000 0.0000 23.3248 0.0000
# 6 0.0000 0.0000 0.0000 0.0000 0.0000 25.3090
#
#
#
# Elastic Compliance Matrix: (Units=1/GPa)
#
#
# Indices 1 2 3 4 5 6 
#
# 1 0.016870 -0.004388 -0.007237 0.000000 0.000000 0.000000
# 2 -0.004388 0.016941 -0.004289 0.000000 0.000000 0.000000
# 3 -0.007237 -0.004289 0.012394 0.000000 0.000000 0.000000
# 4 0.000000 0.000000 0.000000 0.049796 0.000000 0.000000
# 5 0.000000 0.000000 0.000000 0.000000 0.042873 0.000000
# 6 0.000000 0.000000 0.000000 0.000000 0.000000 0.039512
#
#
# Mechanical properties :
#
#
# Convention : Reuss Voigt Hill
#
# Bulk Modulus (GPa) = 69.54410 77.35860 73.45135
# Shear Modulus (GPa) = 23.25537 24.06488 23.66013
#
# Velocity S-wave (km/s) = 3.89747 3.96473 3.93124
# Velocity P-wave (km/s) = 8.10429 8.45512 8.28156
#
# Compressibility (1/GPa) = 0.01437937
#
# Stress axis : x y z
#
# Youngs Moduli (GPa) = 59.27693 59.02795 80.68649
#
# Poissons Ratio (x) = 0.25899 0.58389
# Poissons Ratio (y) = 0.26008 0.34603
# Poissons Ratio (z) = 0.42896 0.25314
#
# Static dielectric constant tensor:
#      x y z
#    x 1.509720 0.000000 0.000000 
#    y 0.000000 1.483450 0.000000 
#    z 0.000000 0.000000 1.524310 
# 
# From -- ./inp_files/25254.got.cif
#   From: 2010.05.17/outbox.cif.g08.bks.cpg/sg46_13_cif.got.tgz:25254.got - 2010.06.03 19:58:25.
