data_PCOD9378642
_publ_section_title
;
Structure prediction by ZEFSAII (Michael W. Deem and Ramdas Pophale) SiO2 
 PCOD9378642
Probable space group: I M A 2
;
_chemical_formula_sum "Si O2"
_cell_formula_units_Z 56
_cell_length_a 8.936958
_cell_length_b 24.351307
_cell_length_c 14.048415
_cell_angle_alpha 90.000000
_cell_angle_beta 90.000000
_cell_angle_gamma 90.000000
_cell_volume 3057.308903
_symmetry_space_group_name_H-M "I M A 2"
_symmetry_group_IT_number 46
_symmetry_cell_setting 'orthorhombic'
loop_
_space_group_symop_operation_xyz
x,y,z
-x,-y,z
1/2-x,y,z
1/2+x,-y,z
1/2+x,1/2+y,1/2+z
1/2-x,1/2-y,1/2+z
-x,1/2+y,1/2+z
x,1/2-y,1/2+z
loop_
_atom_site_type_symbol
_atom_site_label
_atom_site_fract_x
_atom_site_fract_y
_atom_site_fract_z
Si Si1 0.570785 0.558203 0.362160
Si Si2 0.927958 0.228851 0.358060
Si Si3 0.070794 0.169880 0.182517
Si Si4 0.069070 0.330827 0.463791
Si Si5 0.570885 0.940835 0.639888
Si Si6 0.428640 0.057341 0.289731
Si Si7 0.571316 0.116654 0.467859
O O1 0.500000 0.500000 0.388883
O O2 0.750000 0.553325 0.369257
O O3 0.521761 0.609409 0.425787
O O4 0.535316 0.569535 0.250918
O O5 0.750000 0.235188 0.352852
O O6 0.961057 0.177735 0.429047
O O7 0.991392 0.210554 0.255954
O O8 0.002807 0.283335 0.398319
O O9 0.250000 0.177736 0.189397
O O10 0.024387 0.177238 0.073542
O O11 0.039704 0.107704 0.218025
O O12 0.250000 0.328770 0.459254
O O13 0.750000 0.942825 0.628996
O O14 0.500884 0.896470 0.569225
O O15 0.500000 0.000000 0.615275
O O16 0.250000 0.051993 0.299477
O O17 0.500028 0.075477 0.390302
O O18 0.500000 0.000000 0.258761
O O19 0.750000 0.109151 0.470939
#
# Coordination Sequence:
#
# PCOD9378642 Si02
#       7
#     8   8   8   8   8   8   8
#     4   9  20  37  56  80 109 140 176 219 264 315
#     4  10  22  38  56  81 111 141 178 225 272 319
#     4   9  20  38  58  79 107 144 182 221 264 318
#     4  10  21  39  61  83 108 141 181 220 265 321
#     4  10  19  32  51  76 107 142 179 219 266 317
#     4  10  19  32  51  77 108 142 180 220 267 318
#     4  10  20  34  51  74 106 142 180 222 267 316
#
# _framework density 18.316763000000002
#
# number of rings (size 3 to 8) (size 9 to 14) (size 15 to 20)
#    0.000    2.286    0.000    2.143    0.000    5.714 
#    0.000    4.286    0.000    0.000    0.000    0.000 
#    0.000    0.000    0.000    0.000    0.000    0.000 
#
# Total GULP energy -156345.999535 kJ/mol
# GULP energy per Si atom -5583.785698 kJ/mol
# Density = 1.827507 g / cm^3
# Si number density = 18.316763 Si / 1000 Ang^3
#
#
#
# Elastic Constant Matrix: (Units=GPa)
#
#
# Indices 1 2 3 4 5 6 
#
# 1 41.8025 49.9374 46.1324 0.0000 0.0000 0.0000
# 2 49.9374 128.1629 90.2613 0.0001 0.0000 0.0000
# 3 46.1324 90.2613 120.7593 0.0000 0.0000 0.0000
# 4 0.0000 0.0001 0.0000 17.5364 0.0000 0.0000
# 5 0.0000 0.0000 0.0000 0.0000 15.6143 0.0000
# 6 0.0000 0.0000 0.0000 0.0000 0.0000 30.8582
#
#
#
# Elastic Compliance Matrix: (Units=1/GPa)
#
#
# Indices 1 2 3 4 5 6 
#
# 1 0.049399 -0.012579 -0.009469 0.000000 0.000000 0.000000
# 2 -0.012579 0.019678 -0.009903 0.000000 0.000000 0.000000
# 3 -0.009469 -0.009903 0.019300 0.000000 0.000000 0.000000
# 4 0.000000 0.000000 0.000000 0.057024 0.000000 0.000000
# 5 0.000000 0.000000 0.000000 0.000000 0.064044 0.000000
# 6 0.000000 0.000000 0.000000 0.000000 0.000000 0.032406
#
#
# Mechanical properties :
#
#
# Convention : Reuss Voigt Hill
#
# Bulk Modulus (GPa) = 40.85794 73.70966 57.28380
# Shear Modulus (GPa) = 15.92801 19.76136 17.84468
#
# Velocity S-wave (km/s) = 2.95207 3.28818 3.12465
# Velocity P-wave (km/s) = 5.82876 7.39900 6.66031
#
# Compressibility (1/GPa) = 0.02447505
#
# Stress axis : x y z
#
# Youngs Moduli (GPa) = 20.24344 50.81749 51.81228
#
# Poissons Ratio (x) = 0.63922 0.49062
# Poissons Ratio (y) = 0.25464 0.51310
# Poissons Ratio (z) = 0.19169 0.50325
#
# Static dielectric constant tensor:
#      x y z
#    x 1.607110 0.000000 0.000000 
#    y 0.000000 1.612100 0.000000 
#    z 0.000000 0.000000 1.621580 
# 
# From -- ./inp_files/14163.got.cif
#   From: 2010.05.17/outbox.cif.g08.bks.cpg/sg46_8_cif.got.tgz:14163.got - 2010.06.03 19:58:25.
