data_PCOD9378424
_publ_section_title
;
Structure prediction by ZEFSAII (Michael W. Deem and Ramdas Pophale) SiO2 
 PCOD9378424
Probable space group: I M A 2
;
_chemical_formula_sum "Si O2"
_cell_formula_units_Z 64
_cell_length_a 8.823129
_cell_length_b 18.898347
_cell_length_c 26.799383
_cell_angle_alpha 90.000000
_cell_angle_beta 90.000000
_cell_angle_gamma 90.000000
_cell_volume 4468.597553
_symmetry_space_group_name_H-M "I M A 2"
_symmetry_group_IT_number 46
_symmetry_cell_setting 'orthorhombic'
loop_
_space_group_symop_operation_xyz
x,y,z
-x,-y,z
1/2-x,y,z
1/2+x,-y,z
1/2+x,1/2+y,1/2+z
1/2-x,1/2-y,1/2+z
-x,1/2+y,1/2+z
x,1/2-y,1/2+z
loop_
_atom_site_type_symbol
_atom_site_label
_atom_site_fract_x
_atom_site_fract_y
_atom_site_fract_z
Si Si1 0.432973 0.577642 0.041820
Si Si2 0.431709 0.077141 0.350559
Si Si3 0.074646 0.710719 0.100616
Si Si4 0.568585 0.423086 0.742015
Si Si5 0.569416 0.661853 0.652519
Si Si6 0.933812 0.161918 0.440948
Si Si7 0.929924 0.577216 0.551677
Si Si8 0.924514 0.201482 0.996574
O O1 0.500000 0.500000 0.046986
O O2 0.250000 0.575117 0.043001
O O3 0.480315 0.632599 0.085328
O O4 0.474845 0.612178 0.988312
O O5 0.250000 0.073053 0.348491
O O6 0.498901 0.094603 0.296091
O O7 0.487804 0.131963 0.391979
O O8 0.500000 0.000000 0.363845
O O9 0.250000 0.707549 0.117310
O O10 0.977989 0.758519 0.137856
O O11 0.074208 0.752668 0.047771
O O12 0.500000 0.500000 0.728153
O O13 0.750000 0.427924 0.745126
O O14 0.516572 0.367547 0.700515
O O15 0.750000 0.656841 0.659432
O O16 0.525952 0.612832 0.604814
O O17 0.750000 0.159956 0.436295
O O18 0.977521 0.242414 0.455156
O O19 0.750000 0.571857 0.551247
O O20 0.000000 0.500000 0.546789
O O21 0.982844 0.631389 0.508764
O O22 0.750000 0.182479 0.986382
#
# Coordination Sequence:
#
# PCOD9378424 Si02
#       8
#     8   8   8   8   8   8   8   8
#     4   9  17  27  41  61  86 114 145 177 210 249
#     4  11  21  32  45  62  85 112 143 180 214 248
#     4   8  15  28  42  58  81 111 142 173 209 249
#     4  11  21  33  47  62  83 111 142 178 214 250
#     4  10  19  30  44  63  84 110 143 177 212 252
#     4   9  17  30  45  62  84 113 145 176 212 253
#     4  10  19  28  41  61  86 113 143 175 209 250
#     4   8  15  28  44  59  81 110 140 174 210 247
#
# _framework density 14.322167
#
# number of rings (size 3 to 8) (size 9 to 14) (size 15 to 20)
#    0.000    2.500    0.000    6.000    0.000    5.000 
#    0.000    2.500    0.000    0.000    0.000    0.000 
#    0.000    1.000    0.000    8.250    0.000    5.250 
#
# Total GULP energy -178353.633240 kJ/mol
# GULP energy per Si atom -5573.551039 kJ/mol
# Density = 1.428957 g / cm^3
# Si number density = 14.322167 Si / 1000 Ang^3
#
#
#
# Elastic Constant Matrix: (Units=GPa)
#
#
# Indices 1 2 3 4 5 6 
#
# 1 64.1171 39.5037 34.8280 0.0000 0.0000 0.0000
# 2 39.5037 104.7370 42.8699 0.0000 0.0000 0.0000
# 3 34.8280 42.8699 62.8859 0.0000 0.0000 0.0000
# 4 0.0000 0.0000 0.0000 24.9388 0.0000 0.0000
# 5 0.0000 0.0000 0.0000 0.0000 19.8994 0.0000
# 6 0.0000 0.0000 0.0000 0.0000 0.0000 25.9424
#
#
#
# Elastic Compliance Matrix: (Units=1/GPa)
#
#
# Indices 1 2 3 4 5 6 
#
# 1 0.024074 -0.005025 -0.009907 0.000000 0.000000 0.000000
# 2 -0.005025 0.014292 -0.006960 0.000000 0.000000 0.000000
# 3 -0.009907 -0.006960 0.026133 0.000000 0.000000 0.000000
# 4 0.000000 0.000000 0.000000 0.040098 0.000000 0.000000
# 5 0.000000 0.000000 0.000000 0.000000 0.050253 0.000000
# 6 0.000000 0.000000 0.000000 0.000000 0.000000 0.038547
#
#
# Mechanical properties :
#
#
# Convention : Reuss Voigt Hill
#
# Bulk Modulus (GPa) = 48.27439 51.79368 50.03403
# Shear Modulus (GPa) = 20.48457 21.79200 21.13828
#
# Velocity S-wave (km/s) = 3.78599 3.90495 3.84593
# Velocity P-wave (km/s) = 7.27261 7.52152 7.39811
#
# Compressibility (1/GPa) = 0.02071492
#
# Stress axis : x y z
#
# Youngs Moduli (GPa) = 41.53868 69.97072 38.26512
#
# Poissons Ratio (x) = 0.35159 0.37911
# Poissons Ratio (y) = 0.20872 0.26632
# Poissons Ratio (z) = 0.41154 0.48699
#
# Static dielectric constant tensor:
#      x y z
#    x 1.479930 0.000000 0.000000 
#    y 0.000000 1.473890 0.000000 
#    z 0.000000 0.000000 1.459340 
# 
# From -- ./inp_files/24406.got.cif
#   From: 2010.05.17/outbox.cif.g08.bks.cpg/sg46_13_cif.got.tgz:24406.got - 2010.06.03 19:58:25.
