data_PCOD9378479
_publ_section_title
;
Structure prediction by ZEFSAII (Michael W. Deem and Ramdas Pophale) SiO2 
 PCOD9378479
Probable space group: I M A 2
;
_chemical_formula_sum "Si O2"
_cell_formula_units_Z 64
_cell_length_a 8.655070
_cell_length_b 31.208561
_cell_length_c 14.896242
_cell_angle_alpha 90.000000
_cell_angle_beta 90.000000
_cell_angle_gamma 90.000000
_cell_volume 4023.657891
_symmetry_space_group_name_H-M "I M A 2"
_symmetry_group_IT_number 46
_symmetry_cell_setting 'orthorhombic'
loop_
_space_group_symop_operation_xyz
x,y,z
-x,-y,z
1/2-x,y,z
1/2+x,-y,z
1/2+x,1/2+y,1/2+z
1/2-x,1/2-y,1/2+z
-x,1/2+y,1/2+z
x,1/2-y,1/2+z
loop_
_atom_site_type_symbol
_atom_site_label
_atom_site_fract_x
_atom_site_fract_y
_atom_site_fract_z
Si Si1 0.065182 0.866307 0.250000
Si Si2 0.570643 0.223777 0.568642
Si Si3 0.563316 0.953252 0.964036
Si Si4 0.063995 0.953506 0.164691
Si Si5 0.563072 0.788955 0.764896
Si Si6 0.565762 0.795500 0.377309
Si Si7 0.428739 0.826076 0.056874
Si Si8 0.932428 0.633347 0.384718
O O1 0.250000 0.864525 0.264364
O O2 0.020403 0.915689 0.233306
O O3 0.032136 0.843539 0.154852
O O4 0.984565 0.838375 0.325816
O O5 0.750000 0.211658 0.574477
O O6 0.489254 0.212623 0.662162
O O7 0.498324 0.205139 0.478036
O O8 0.560916 0.275099 0.558202
O O9 0.750000 0.954155 0.967140
O O10 0.509882 0.915254 0.897621
O O11 0.500000 0.000000 0.939161
O O12 0.501841 0.944007 0.064954
O O13 0.250000 0.954681 0.158032
O O14 0.000000 0.000000 0.190655
O O15 0.750000 0.788643 0.768228
O O16 0.509960 0.746615 0.820655
O O17 0.504774 0.832501 0.812900
O O18 0.750000 0.792847 0.380590
O O19 0.250000 0.838470 0.037460
O O20 0.537499 0.844961 0.980952
O O21 0.750000 0.630012 0.367828
#
# Coordination Sequence:
#
# PCOD9378479 Si02
#       8
#     8   8   8   8   8   8   8   8
#     4  10  20  34  49  71 102 135 171 207 247 294
#     4  11  22  35  51  71  99 134 170 208 248 291
#     4  10  19  30  47  70  99 132 165 204 248 296
#     4  10  19  31  48  70 100 133 165 205 248 294
#     4  10  21  35  50  71  99 130 168 207 246 293
#     4  11  22  34  52  74  99 133 169 208 249 294
#     4  10  19  30  47  70 100 134 167 204 242 287
#     4  10  20  33  49  71  99 133 170 206 245 292
#
# _framework density 15.905925999999999
#
# number of rings (size 3 to 8) (size 9 to 14) (size 15 to 20)
#    0.000    1.750    3.750    2.250    0.000    3.500 
#    0.000    0.000    0.000    0.000    0.000    0.875 
#    0.000    4.000    0.000    0.000    0.000    0.000 
#
# Total GULP energy -178481.431601 kJ/mol
# GULP energy per Si atom -5577.544738 kJ/mol
# Density = 1.586972 g / cm^3
# Si number density = 15.905926 Si / 1000 Ang^3
#
#
#
# Elastic Constant Matrix: (Units=GPa)
#
#
# Indices 1 2 3 4 5 6 
#
# 1 24.2706 28.3690 14.3637 0.0000 0.0000 0.0000
# 2 28.3690 110.6537 51.7088 0.0000 0.0000 0.0000
# 3 14.3637 51.7088 77.8849 0.0000 0.0000 0.0000
# 4 0.0000 0.0000 0.0000 20.8997 0.0000 0.0000
# 5 0.0000 0.0000 0.0000 0.0000 21.2821 0.0000
# 6 0.0000 0.0000 0.0000 0.0000 0.0000 20.1581
#
#
#
# Elastic Compliance Matrix: (Units=1/GPa)
#
#
# Indices 1 2 3 4 5 6 
#
# 1 0.058911 -0.014536 -0.001214 0.000000 0.000000 0.000000
# 2 -0.014536 0.016689 -0.008399 0.000000 0.000000 0.000000
# 3 -0.001214 -0.008399 0.018640 0.000000 0.000000 0.000000
# 4 0.000000 0.000000 0.000000 0.047848 0.000000 0.000000
# 5 0.000000 0.000000 0.000000 0.000000 0.046988 0.000000
# 6 0.000000 0.000000 0.000000 0.000000 0.000000 0.049608
#
#
# Mechanical properties :
#
#
# Convention : Reuss Voigt Hill
#
# Bulk Modulus (GPa) = 21.76681 44.63247 33.19964
# Shear Modulus (GPa) = 16.54012 20.35916 18.44964
#
# Velocity S-wave (km/s) = 3.22820 3.58155 3.40946
# Velocity P-wave (km/s) = 5.25447 6.72492 6.03465
#
# Compressibility (1/GPa) = 0.04594150
#
# Stress axis : x y z
#
# Youngs Moduli (GPa) = 16.97467 59.91993 53.64909
#
# Poissons Ratio (x) = 0.87101 0.06511
# Poissons Ratio (y) = 0.24675 0.45061
# Poissons Ratio (z) = 0.02060 0.50328
#
# Static dielectric constant tensor:
#      x y z
#    x 1.549360 0.000000 0.000000 
#    y 0.000000 1.558680 0.000000 
#    z 0.000000 0.000000 1.499950 
# 
# From -- ./inp_files/14727.got.cif
#   From: 2010.05.17/outbox.cif.g08.bks.cpg/sg46_8_cif.got.tgz:14727.got - 2010.06.03 19:58:25.
