data_PCOD9378635
_publ_section_title
;
Structure prediction by ZEFSAII (Michael W. Deem and Ramdas Pophale) SiO2 
 PCOD9378635
Probable space group: I M A 2
;
_chemical_formula_sum "Si O2"
_cell_formula_units_Z 48
_cell_length_a 8.766212
_cell_length_b 24.327134
_cell_length_c 13.958359
_cell_angle_alpha 90.000000
_cell_angle_beta 90.000000
_cell_angle_gamma 90.000000
_cell_volume 2976.715169
_symmetry_space_group_name_H-M "I M A 2"
_symmetry_group_IT_number 46
_symmetry_cell_setting 'orthorhombic'
loop_
_space_group_symop_operation_xyz
x,y,z
-x,-y,z
1/2-x,y,z
1/2+x,-y,z
1/2+x,1/2+y,1/2+z
1/2-x,1/2-y,1/2+z
-x,1/2+y,1/2+z
x,1/2-y,1/2+z
loop_
_atom_site_type_symbol
_atom_site_label
_atom_site_fract_x
_atom_site_fract_y
_atom_site_fract_z
Si Si1 0.433370 0.058760 0.782600
Si Si2 0.069597 0.770201 0.071348
Si Si3 0.067795 0.559164 0.071079
Si Si4 0.567162 0.667080 0.398255
Si Si5 0.432011 0.274813 0.776922
Si Si6 0.932350 0.663711 0.970903
O O1 0.250000 0.055513 0.774025
O O2 0.502625 0.070472 0.677707
O O3 0.471767 0.108114 0.854460
O O4 0.500000 0.000000 0.813600
O O5 0.250000 0.762564 0.065471
O O6 0.019077 0.784130 0.178655
O O7 0.015939 0.816202 0.995694
O O8 0.987798 0.713836 0.037980
O O9 0.250000 0.556235 0.074879
O O10 0.000000 0.500000 0.041965
O O11 0.012498 0.607949 0.002867
O O12 0.750000 0.669632 0.414339
O O13 0.531315 0.714720 0.320769
O O14 0.250000 0.276509 0.759230
O O15 0.467276 0.317463 0.862253
O O16 0.750000 0.658388 0.980252
#
# Coordination Sequence:
#
# PCOD9378635 Si02
#       6
#     8   8   8   8   8   8
#     4  10  19  32  51  74 101 133 167 203 245 291
#     4  11  21  31  49  76 103 129 160 203 248 293
#     4  11  21  33  51  75 103 132 163 201 244 291
#     4   9  19  34  51  70  96 133 168 199 240 292
#     4   9  18  33  52  71  96 131 166 200 241 292
#     4  10  20  35  53  72  98 132 167 202 243 291
#
# _framework density 16.125157999999999
#
# number of rings (size 3 to 8) (size 9 to 14) (size 15 to 20)
#    0.000    2.000    0.000    7.000    0.000    6.000 
#    0.000    0.000    0.000    1.000    0.000    4.667 
#    0.000    0.000    0.000    0.000    0.000    0.000 
#
# Total GULP energy -133990.567502 kJ/mol
# GULP energy per Si atom -5582.940313 kJ/mol
# Density = 1.608846 g / cm^3
# Si number density = 16.125158 Si / 1000 Ang^3
#
#
#
# Elastic Constant Matrix: (Units=GPa)
#
#
# Indices 1 2 3 4 5 6 
#
# 1 85.8846 57.3143 57.4533 0.0000 0.0000 0.0000
# 2 57.3143 120.6361 69.4569 0.0000 0.0000 0.0000
# 3 57.4533 69.4569 99.0909 0.0000 0.0000 0.0000
# 4 0.0000 0.0000 0.0000 17.9654 0.0000 0.0000
# 5 0.0000 0.0000 0.0000 0.0000 18.1377 0.0000
# 6 0.0000 0.0000 0.0000 0.0000 0.0000 29.1259
#
#
#
# Elastic Compliance Matrix: (Units=1/GPa)
#
#
# Indices 1 2 3 4 5 6 
#
# 1 0.020603 -0.004880 -0.008525 0.000000 0.000000 0.000000
# 2 -0.004880 0.015054 -0.007723 0.000000 0.000000 0.000000
# 3 -0.008525 -0.007723 0.020448 0.000000 0.000000 0.000000
# 4 0.000000 0.000000 0.000000 0.055663 0.000000 0.000000
# 5 0.000000 0.000000 0.000000 0.000000 0.055134 0.000000
# 6 0.000000 0.000000 0.000000 0.000000 0.000000 0.034334
#
#
# Mechanical properties :
#
#
# Convention : Reuss Voigt Hill
#
# Bulk Modulus (GPa) = 72.20522 74.89562 73.55042
# Shear Modulus (GPa) = 20.15255 21.13828 20.64541
#
# Velocity S-wave (km/s) = 3.53903 3.62455 3.58204
# Velocity P-wave (km/s) = 7.84696 8.00398 7.92586
#
# Compressibility (1/GPa) = 0.01384941
#
# Stress axis : x y z
#
# Youngs Moduli (GPa) = 48.53611 66.42591 48.90523
#
# Poissons Ratio (x) = 0.32418 0.41692
# Poissons Ratio (y) = 0.23687 0.37768
# Poissons Ratio (z) = 0.41377 0.51298
#
# Static dielectric constant tensor:
#      x y z
#    x 1.536440 0.000000 0.000000 
#    y 0.000000 1.529520 0.000000 
#    z 0.000000 0.000000 1.519710 
# 
# From -- ./inp_files/9286.got.cif
#   From: 2010.05.17/outbox.cif.g08.bks.cpg/sg46_5_cif.got.tgz:9286.got - 2010.06.03 19:58:25.
