data_PCOD9378522
_publ_section_title
;
Structure prediction by ZEFSAII (Michael W. Deem and Ramdas Pophale) SiO2 
 PCOD9378522
Probable space group: I M A 2
;
_chemical_formula_sum "Si O2"
_cell_formula_units_Z 64
_cell_length_a 8.696325
_cell_length_b 28.072288
_cell_length_c 15.244495
_cell_angle_alpha 90.000000
_cell_angle_beta 90.000000
_cell_angle_gamma 90.000000
_cell_volume 3721.573622
_symmetry_space_group_name_H-M "I M A 2"
_symmetry_group_IT_number 46
_symmetry_cell_setting 'orthorhombic'
loop_
_space_group_symop_operation_xyz
x,y,z
-x,-y,z
1/2-x,y,z
1/2+x,-y,z
1/2+x,1/2+y,1/2+z
1/2-x,1/2-y,1/2+z
-x,1/2+y,1/2+z
x,1/2-y,1/2+z
loop_
_atom_site_type_symbol
_atom_site_label
_atom_site_fract_x
_atom_site_fract_y
_atom_site_fract_z
Si Si1 0.065397 0.637044 0.265620
Si Si2 0.934578 0.670815 0.639403
Si Si3 0.564790 0.552122 0.947632
Si Si4 0.565367 0.329574 0.452454
Si Si5 0.565477 0.218591 0.453314
Si Si6 0.934513 0.947558 0.649219
Si Si7 0.936299 0.639497 0.826929
Si Si8 0.565595 0.717917 0.142764
O O1 0.250000 0.635374 0.263051
O O2 0.015103 0.641248 0.367053
O O3 0.998288 0.591826 0.214945
O O4 0.009099 0.684163 0.214907
O O5 0.750000 0.669390 0.633600
O O6 0.983320 0.641672 0.725211
O O7 0.977782 0.726481 0.653732
O O8 0.001150 0.654834 0.546351
O O9 0.500000 0.500000 0.927152
O O10 0.750000 0.550006 0.945251
O O11 0.513755 0.592632 0.879946
O O12 0.520211 0.564187 0.048202
O O13 0.750000 0.331081 0.456445
O O14 0.521298 0.273938 0.439587
O O15 0.750000 0.215614 0.457804
O O16 0.501954 0.185183 0.377277
O O17 0.493236 0.203269 0.546324
O O18 0.750000 0.948418 0.653371
O O19 0.000000 0.000000 0.668428
O O20 0.750000 0.641844 0.830108
O O21 0.750000 0.713757 0.146530
#
# Coordination Sequence:
#
# PCOD9378522 Si02
#       8
#     8   8   8   8   8   8   8   8
#     4  11  21  33  51  75 101 132 169 209 250 299
#     4   9  19  33  50  71  98 133 172 209 247 291
#     4   9  19  34  52  73 100 127 154 192 241 293
#     4   9  20  35  49  69 101 135 169 209 249 287
#     4  10  19  31  48  72 101 135 169 203 245 296
#     4  10  20  35  54  77 103 132 162 199 249 303
#     4  10  19  32  50  74 101 129 163 206 248 292
#     4  10  19  31  47  71 102 135 168 205 247 295
#
# _framework density 17.197026999999999
#
# number of rings (size 3 to 8) (size 9 to 14) (size 15 to 20)
#    0.000    2.250    0.000    3.000    0.000    4.500 
#    0.000    0.000    0.000    0.750    0.000    3.500 
#    0.000    0.000    0.000    0.000    0.000    0.000 
#
# Total GULP energy -178614.302832 kJ/mol
# GULP energy per Si atom -5581.696963 kJ/mol
# Density = 1.715789 g / cm^3
# Si number density = 17.197027 Si / 1000 Ang^3
#
#
#
# Elastic Constant Matrix: (Units=GPa)
#
#
# Indices 1 2 3 4 5 6 
#
# 1 27.4479 25.3891 35.3130 0.0000 0.0000 0.0000
# 2 25.3891 75.7415 81.4516 0.0000 0.0000 0.0000
# 3 35.3130 81.4516 167.1879 0.0000 0.0000 0.0000
# 4 0.0000 0.0000 0.0000 28.0422 0.0000 0.0000
# 5 0.0000 0.0000 0.0000 0.0000 25.4171 0.0000
# 6 0.0000 0.0000 0.0000 0.0000 0.0000 22.5809
#
#
#
# Elastic Compliance Matrix: (Units=1/GPa)
#
#
# Indices 1 2 3 4 5 6 
#
# 1 0.055153 -0.012519 -0.005550 0.000000 0.000000 0.000000
# 2 -0.012519 0.030574 -0.012251 0.000000 0.000000 0.000000
# 3 -0.005550 -0.012251 0.013122 0.000000 0.000000 0.000000
# 4 0.000000 0.000000 0.000000 0.035661 0.000000 0.000000
# 5 0.000000 0.000000 0.000000 0.000000 0.039344 0.000000
# 6 0.000000 0.000000 0.000000 0.000000 0.000000 0.044285
#
#
# Mechanical properties :
#
#
# Convention : Reuss Voigt Hill
#
# Bulk Modulus (GPa) = 26.17199 61.63163 43.90181
# Shear Modulus (GPa) = 17.15176 23.75627 20.45402
#
# Velocity S-wave (km/s) = 3.16154 3.72077 3.45250
# Velocity P-wave (km/s) = 5.34594 7.37396 6.44027
#
# Compressibility (1/GPa) = 0.03820879
#
# Stress axis : x y z
#
# Youngs Moduli (GPa) = 18.13122 32.70787 76.20783
#
# Poissons Ratio (x) = 0.40948 0.42297
# Poissons Ratio (y) = 0.22699 0.93361
# Poissons Ratio (z) = 0.10063 0.40070
#
# Static dielectric constant tensor:
#      x y z
#    x 1.580300 0.000000 0.000000 
#    y 0.000000 1.561530 0.000000 
#    z 0.000000 0.000000 1.587980 
# 
# From -- ./inp_files/9753.got.cif
#   From: 2010.05.17/outbox.cif.g08.bks.cpg/sg46_5_cif.got.tgz:9753.got - 2010.06.03 19:58:25.
