data_PCOD9378505
_publ_section_title
;
Structure prediction by ZEFSAII (Michael W. Deem and Ramdas Pophale) SiO2 
 PCOD9378505
Probable space group: I M A 2
;
_chemical_formula_sum "Si O2"
_cell_formula_units_Z 64
_cell_length_a 7.922998
_cell_length_b 23.760452
_cell_length_c 13.739814
_cell_angle_alpha 90.000000
_cell_angle_beta 90.000000
_cell_angle_gamma 90.000000
_cell_volume 2586.575133
_symmetry_space_group_name_H-M "I M A 2"
_symmetry_group_IT_number 46
_symmetry_cell_setting 'orthorhombic'
loop_
_space_group_symop_operation_xyz
x,y,z
-x,-y,z
1/2-x,y,z
1/2+x,-y,z
1/2+x,1/2+y,1/2+z
1/2-x,1/2-y,1/2+z
-x,1/2+y,1/2+z
x,1/2-y,1/2+z
loop_
_atom_site_type_symbol
_atom_site_label
_atom_site_fract_x
_atom_site_fract_y
_atom_site_fract_z
Si Si1 0.453369 0.703965 0.981060
Si Si2 0.941526 0.178991 0.995401
Si Si3 0.063793 0.804974 0.760986
Si Si4 0.045620 0.084310 0.535201
Si Si5 0.557608 0.817709 0.264714
Si Si6 0.940214 0.576574 0.241117
Si Si7 0.546550 0.561686 0.814087
Si Si8 0.053194 0.560659 0.459952
O O1 0.250000 0.708188 0.963763
O O2 0.518738 0.761972 0.027378
O O3 0.550446 0.691263 0.881221
O O4 0.488933 0.648787 0.040951
O O5 0.750000 0.176740 0.035330
O O6 0.930325 0.190690 0.879101
O O7 0.025947 0.117928 0.004412
O O8 0.250000 0.820643 0.724687
O O9 0.030335 0.740340 0.732907
O O10 0.937833 0.855229 0.737350
O O11 0.250000 0.080157 0.536103
O O12 0.982719 0.058825 0.637353
O O13 0.986517 0.063911 0.428104
O O14 0.750000 0.817624 0.229592
O O15 0.485508 0.881740 0.257116
O O16 0.750000 0.554836 0.249101
O O17 0.027307 0.562060 0.342933
O O18 0.500000 0.500000 0.774793
O O19 0.750000 0.566357 0.815805
O O20 0.250000 0.566390 0.476855
O O21 0.000000 0.500000 0.497563
#
# Coordination Sequence:
#
# PCOD9378505 Si02
#       8
#     8   8   8   8   8   8   8   8
#     4   9  15  25  43  63  80 103 136 173 215 255
#     4   7  13  25  40  58  79 101 128 168 211 250
#     4   9  16  27  43  63  83 103 134 175 217 259
#     4   9  19  32  42  58  85 114 145 179 212 252
#     4   9  16  27  42  60  82 107 136 172 215 259
#     4  10  19  31  45  60  83 116 149 179 214 253
#     4   9  18  30  42  58  82 112 146 180 210 245
#     4  10  19  31  44  60  85 114 147 182 213 249
#
# _framework density 24.743144000000001
#
# number of rings (size 3 to 8) (size 9 to 14) (size 15 to 20)
#    0.000    3.000    0.000    4.125    0.000    4.000 
#    0.000    3.125    0.000    0.000    0.000    0.000 
#    0.000    1.000    0.000    7.500    0.000    4.875 
#
# Total GULP energy -178324.324233 kJ/mol
# GULP energy per Si atom -5572.635132 kJ/mol
# Density = 2.468683 g / cm^3
# Si number density = 24.743144 Si / 1000 Ang^3
#
#
#
# Elastic Constant Matrix: (Units=GPa)
#
#
# Indices 1 2 3 4 5 6 
#
# 1 42.5264 5.0809 -4.1520 -0.0001 0.0000 0.0000
# 2 5.0809 233.0798 -4.5381 -0.0001 0.0000 0.0000
# 3 -4.1520 -4.5381 54.0843 -0.0004 -0.0001 -0.0001
# 4 -0.0001 -0.0001 -0.0004 -21.3161 0.0000 -0.0001
# 5 0.0000 0.0000 -0.0001 0.0000 1.1844 -0.0001
# 6 0.0000 0.0000 -0.0001 -0.0001 -0.0001 21.2229
#
#
#
# Elastic Compliance Matrix: (Units=1/GPa)
#
#
# Indices 1 2 3 4 5 6 
#
# 1 0.023747 -0.000483 0.001782 0.000000 0.000000 0.000000
# 2 -0.000483 0.004307 0.000324 0.000000 0.000000 0.000000
# 3 0.001782 0.000324 0.018654 0.000000 0.000001 0.000000
# 4 0.000000 0.000000 0.000000 -0.046913 -0.000002 0.000000
# 5 0.000000 0.000000 0.000001 -0.000002 0.844281 0.000002
# 6 0.000000 0.000000 0.000000 0.000000 0.000002 0.047119
#
#
# Mechanical properties :
#
#
# Convention : Reuss Voigt Hill
#
# Bulk Modulus (GPa) = 20.01794 35.83023 27.92409
# Shear Modulus (GPa) = 5.52732 22.43823 13.98277
#
# Velocity S-wave (km/s) = 1.49624 3.01466 2.37980
# Velocity P-wave (km/s) = 3.33059 5.16041 4.34296
#
# Compressibility (1/GPa) = 0.04995519
#
# Stress axis : x y z
#
# Youngs Moduli (GPa) = 42.11142 232.16843 53.60862
#
# Poissons Ratio (x) = 0.11212 -0.09556
# Poissons Ratio (y) = 0.02034 -0.01739
# Poissons Ratio (z) = -0.07506 -0.07530
#
# Static dielectric constant tensor:
#      x y z
#    x 1.837730 0.000000 0.000000 
#    y 0.000000 2.068080 0.000000 
#    z 0.000000 0.000000 1.999810 
# 
# From -- ./inp_files/21426.got.cif
#   From: 2010.05.17/outbox.cif.g08.bks.cpg/sg46_11_cif.got.tgz:21426.got - 2010.06.03 19:58:25.
