data_PCOD9378237
_publ_section_title
;
Structure prediction by ZEFSAII (Michael W. Deem and Ramdas Pophale) SiO2 
 PCOD9378237
Probable space group: I M A 2
;
_chemical_formula_sum "Si O2"
_cell_formula_units_Z 48
_cell_length_a 14.031654
_cell_length_b 20.987514
_cell_length_c 7.687011
_cell_angle_alpha 90.000000
_cell_angle_beta 90.000000
_cell_angle_gamma 90.000000
_cell_volume 2263.744293
_symmetry_space_group_name_H-M "I M A 2"
_symmetry_group_IT_number 46
_symmetry_cell_setting 'orthorhombic'
loop_
_space_group_symop_operation_xyz
x,y,z
-x,-y,z
1/2-x,y,z
1/2+x,-y,z
1/2+x,1/2+y,1/2+z
1/2-x,1/2-y,1/2+z
-x,1/2+y,1/2+z
x,1/2-y,1/2+z
loop_
_atom_site_type_symbol
_atom_site_label
_atom_site_fract_x
_atom_site_fract_y
_atom_site_fract_z
Si Si1 0.865420 0.971169 0.789000
Si Si2 0.023932 0.271926 0.472090
Si Si3 0.028875 0.843277 0.261512
Si Si4 0.863284 0.936230 0.183822
Si Si5 0.363450 0.548076 0.965992
Si Si6 0.861000 0.668701 0.193667
O O1 0.750000 0.975537 0.796714
O O2 0.897628 0.027918 0.660177
O O3 0.886650 0.905509 0.686509
O O4 0.894474 0.962585 0.991746
O O5 0.966819 0.226642 0.343556
O O6 0.955280 0.324036 0.560615
O O7 0.111438 0.310288 0.387849
O O8 0.076147 0.217200 0.584440
O O9 0.923879 0.875302 0.245731
O O10 0.089799 0.891282 0.374454
O O11 0.750000 0.922334 0.176502
O O12 0.879357 0.990337 0.329498
O O13 0.250000 0.557656 0.976870
O O14 0.750000 0.675741 0.155076
#
# Coordination Sequence:
#
# PCOD9378237 Si02
#       6
#     8   8   8   8   8   8
#     4   9  18  35  58  88 119 151 197 251 306 373
#     4  10  22  34  53  80 122 160 206 248 287 369
#     4  11  22  41  57  86 121 162 207 255 309 363
#     4  10  20  37  62  93 123 151 191 248 315 387
#     4  10  22  41  64  88 117 155 208 262 312 361
#     4  10  18  32  53  83 120 161 195 232 298 371
#
# _framework density 21.203809
#
# number of rings (size 3 to 8) (size 9 to 14) (size 15 to 20)
#    0.000    2.000    1.667    2.000    0.000    4.667 
#    6.000    2.500    0.000    0.000    0.000    0.000 
#    0.000    0.000    0.000    0.000    0.000    0.000 
#
# Total GULP energy -133693.212091 kJ/mol
# GULP energy per Si atom -5570.550504 kJ/mol
# Density = 2.115555 g / cm^3
# Si number density = 21.203809 Si / 1000 Ang^3
#
#
#
# Elastic Constant Matrix: (Units=GPa)
#
#
# Indices 1 2 3 4 5 6 
#
# 1 35.0523 8.5928 8.1489 0.0000 0.0000 0.0000
# 2 8.5928 67.1591 13.4996 0.0000 0.0000 0.0000
# 3 8.1489 13.4996 75.5362 0.0001 0.0000 0.0000
# 4 0.0000 0.0000 0.0001 47.4129 0.0000 0.0000
# 5 0.0000 0.0000 0.0000 0.0000 20.2773 0.0000
# 6 0.0000 0.0000 0.0000 0.0000 0.0000 22.5018
#
#
#
# Elastic Compliance Matrix: (Units=1/GPa)
#
#
# Indices 1 2 3 4 5 6 
#
# 1 0.029952 -0.003301 -0.002641 0.000000 0.000000 0.000000
# 2 -0.003301 0.015809 -0.002469 0.000000 0.000000 0.000000
# 3 -0.002641 -0.002469 0.013965 0.000000 0.000000 0.000000
# 4 0.000000 0.000000 0.000000 0.021091 0.000000 0.000000
# 5 0.000000 0.000000 0.000000 0.000000 0.049316 0.000000
# 6 0.000000 0.000000 0.000000 0.000000 0.000000 0.044441
#
#
# Mechanical properties :
#
#
# Convention : Reuss Voigt Hill
#
# Bulk Modulus (GPa) = 23.30879 26.47002 24.88941
# Shear Modulus (GPa) = 24.30741 27.87214 26.08977
#
# Velocity S-wave (km/s) = 3.38948 3.62952 3.51155
# Velocity P-wave (km/s) = 5.13174 5.48409 5.31084
#
# Compressibility (1/GPa) = 0.04290226
#
# Stress axis : x y z
#
# Youngs Moduli (GPa) = 33.38658 63.25615 71.60806
#
# Poissons Ratio (x) = 0.20883 0.18914
# Poissons Ratio (y) = 0.11022 0.17681
# Poissons Ratio (z) = 0.08818 0.15619
#
# Static dielectric constant tensor:
#      x y z
#    x 1.742620 0.000000 0.000000 
#    y 0.000000 1.732630 0.000000 
#    z 0.000000 0.000000 1.955310 
# 
# From -- ./inp_files/5725.got.cif
#   From: 2010.05.17/outbox.cif.g08.bks.cpg/sg46_3_cif.got.tgz:5725.got - 2010.06.03 19:58:25.
