data_PCOD9378066
_publ_section_title
;
Structure prediction by ZEFSAII (Michael W. Deem and Ramdas Pophale) SiO2 
 PCOD9378066
Probable space group: I M A 2
;
_chemical_formula_sum "Si O2"
_cell_formula_units_Z 64
_cell_length_a 13.438271
_cell_length_b 13.174950
_cell_length_c 19.449488
_cell_angle_alpha 90.000000
_cell_angle_beta 90.000000
_cell_angle_gamma 90.000000
_cell_volume 3443.503620
_symmetry_space_group_name_H-M "I M A 2"
_symmetry_group_IT_number 46
_symmetry_cell_setting 'orthorhombic'
loop_
_space_group_symop_operation_xyz
x,y,z
-x,-y,z
1/2-x,y,z
1/2+x,-y,z
1/2+x,1/2+y,1/2+z
1/2-x,1/2-y,1/2+z
-x,1/2+y,1/2+z
x,1/2-y,1/2+z
loop_
_atom_site_type_symbol
_atom_site_label
_atom_site_fract_x
_atom_site_fract_y
_atom_site_fract_z
Si Si1 0.064265 0.141803 0.161390
Si Si2 0.365454 0.161015 0.735965
Si Si3 0.044852 0.245690 0.020689
Si Si4 0.368680 0.618025 0.003620
Si Si5 0.629991 0.561776 0.101337
Si Si6 0.868829 0.985756 0.370789
Si Si7 0.870474 0.748907 0.874765
Si Si8 0.634104 0.070254 0.219976
O O1 0.126408 0.230119 0.198110
O O2 0.057853 0.164553 0.080816
O O3 0.951881 0.143510 0.191823
O O4 0.114298 0.035039 0.179538
O O5 0.250000 0.133228 0.745710
O O6 0.407866 0.085085 0.678312
O O7 0.408462 0.182300 0.811542
O O8 0.095803 0.349092 0.049788
O O9 0.931432 0.279695 0.007888
O O10 0.094071 0.215767 0.949122
O O11 0.250000 0.634259 0.001471
O O12 0.393761 0.547031 0.069068
O O13 0.398869 0.551910 0.936666
O O14 0.750000 0.568073 0.103130
O O15 0.750000 0.977250 0.377040
O O16 0.887837 0.043311 0.299535
O O17 0.904155 0.869104 0.367380
O O18 0.750000 0.748865 0.871869
O O19 0.750000 0.101052 0.213342
#
# Coordination Sequence:
#
# PCOD9378066 Si02
#       8
#     8   8   8   8   8   8   8   8
#     4  10  21  32  48  76  99 131 170 198 252 307
#     4   9  17  30  48  71 103 133 164 204 244 288
#     4  11  21  30  47  74 103 133 164 205 248 295
#     4  10  20  32  47  72 105 138 167 198 241 299
#     4   9  17  30  46  69 101 134 167 200 239 291
#     4   9  17  29  47  75 100 127 161 190 246 308
#     4  10  18  29  48  76 104 129 161 203 251 299
#     4  10  20  35  54  73 100 130 163 209 250 299
#
# _framework density 18.585720999999999
#
# number of rings (size 3 to 8) (size 9 to 14) (size 15 to 20)
#    0.000    2.250    2.500    1.125    1.750    2.000 
#    0.000    0.000    0.000    0.000   13.000    0.000 
#    0.000    0.000    0.000    0.000    0.000    0.000 
#
# Total GULP energy -178460.473016 kJ/mol
# GULP energy per Si atom -5576.889782 kJ/mol
# Density = 1.854342 g / cm^3
# Si number density = 18.585721 Si / 1000 Ang^3
#
#
#
# Elastic Constant Matrix: (Units=GPa)
#
#
# Indices 1 2 3 4 5 6 
#
# 1 57.5855 -2.7121 6.4187 0.0000 0.0000 0.0000
# 2 -2.7121 15.8094 18.1901 0.0000 0.0000 0.0000
# 3 6.4187 18.1901 153.1536 0.0000 0.0000 0.0000
# 4 0.0000 0.0000 0.0000 15.5197 0.0000 0.0000
# 5 0.0000 0.0000 0.0000 0.0000 22.5904 0.0000
# 6 0.0000 0.0000 0.0000 0.0000 0.0000 14.7911
#
#
#
# Elastic Compliance Matrix: (Units=1/GPa)
#
#
# Indices 1 2 3 4 5 6 
#
# 1 0.017720 0.004511 -0.001278 0.000000 0.000000 0.000000
# 2 0.004511 0.074414 -0.009027 0.000000 0.000000 0.000000
# 3 -0.001278 -0.009027 0.007655 0.000000 0.000000 0.000000
# 4 0.000000 0.000000 0.000000 0.064434 0.000000 0.000000
# 5 0.000000 0.000000 0.000000 0.000000 0.044267 0.000000
# 6 0.000000 0.000000 0.000000 0.000000 0.000000 0.067608
#
#
# Mechanical properties :
#
#
# Convention : Reuss Voigt Hill
#
# Bulk Modulus (GPa) = 11.33786 30.03798 20.68792
# Shear Modulus (GPa) = 15.76848 24.22369 19.99608
#
# Velocity S-wave (km/s) = 2.91592 3.61411 3.28363
# Velocity P-wave (km/s) = 4.17736 5.79764 5.05287
#
# Compressibility (1/GPa) = 0.08820010
#
# Stress axis : x y z
#
# Youngs Moduli (GPa) = 56.43205 13.43833 130.63128
#
# Poissons Ratio (x) = -0.06062 0.16700
# Poissons Ratio (y) = -0.25456 1.17924
# Poissons Ratio (z) = 0.07214 0.12131
#
# Static dielectric constant tensor:
#      x y z
#    x 1.690260 0.000000 0.000000 
#    y 0.000000 1.616010 0.000000 
#    z 0.000000 0.000000 1.662620 
# 
# From -- ./inp_files/19730.got.cif
#   From: 2010.05.17/outbox.cif.g08.bks.cpg/sg46_10_cif.got.tgz:19730.got - 2010.06.03 19:58:25.
