data_PCOD9378498
_publ_section_title
;
Structure prediction by ZEFSAII (Michael W. Deem and Ramdas Pophale) SiO2 
 PCOD9378498
Probable space group: I M A 2
;
_chemical_formula_sum "Si O2"
_cell_formula_units_Z 60
_cell_length_a 13.348034
_cell_length_b 24.844794
_cell_length_c 11.569425
_cell_angle_alpha 90.000000
_cell_angle_beta 90.000000
_cell_angle_gamma 90.000000
_cell_volume 3836.758637
_symmetry_space_group_name_H-M "I M A 2"
_symmetry_group_IT_number 46
_symmetry_cell_setting 'orthorhombic'
loop_
_space_group_symop_operation_xyz
x,y,z
-x,-y,z
1/2-x,y,z
1/2+x,-y,z
1/2+x,1/2+y,1/2+z
1/2-x,1/2-y,1/2+z
-x,1/2+y,1/2+z
x,1/2-y,1/2+z
loop_
_atom_site_type_symbol
_atom_site_label
_atom_site_fract_x
_atom_site_fract_y
_atom_site_fract_z
Si Si1 0.969380 0.362033 0.556930
Si Si2 0.133118 0.819633 0.829825
Si Si3 0.000000 0.500000 0.331272
Si Si4 0.629234 0.092457 0.410805
Si Si5 0.369854 0.961782 0.177988
Si Si6 0.631322 0.561160 0.522183
Si Si7 0.869397 0.196277 0.265668
Si Si8 0.630542 0.420921 0.172133
O O1 0.933278 0.339642 0.435409
O O2 0.911730 0.417574 0.589021
O O3 0.935794 0.321531 0.657050
O O4 0.083881 0.381047 0.550286
O O5 0.250000 0.823243 0.865431
O O6 0.113047 0.757835 0.798719
O O7 0.119723 0.860749 0.723763
O O8 0.927525 0.535364 0.413680
O O9 0.932064 0.461289 0.252082
O O10 0.750000 0.088269 0.416358
O O11 0.594026 0.053826 0.306376
O O12 0.608356 0.153339 0.367490
O O13 0.594188 0.078834 0.539296
O O14 0.250000 0.955220 0.178829
O O15 0.389929 0.020984 0.129921
O O16 0.750000 0.562162 0.502380
O O17 0.750000 0.190197 0.237626
O O18 0.750000 0.433847 0.176919
#
# Coordination Sequence:
#
# PCOD9378498 Si02
#       8
#     8   8   4   8   8   8   8   8
#     4  11  18  32  49  74 105 131 170 205 256 304
#     4  10  19  30  50  76 103 133 164 202 251 303
#     4  12  20  36  48  76 100 134 170 208 254 304
#     4   8  16  31  47  70 104 133 161 199 248 302
#     4   9  16  30  52  76 102 132 165 208 257 301
#     4  11  21  33  53  76 101 129 171 220 258 304
#     4   9  19  31  50  77 104 134 164 204 250 302
#     4  10  20  33  49  72 104 137 166 201 248 308
#
# _framework density 15.638199999999999
#
# number of rings (size 3 to 8) (size 9 to 14) (size 15 to 20)
#    0.000    2.133    2.667    2.400    1.867    2.133 
#    4.800    0.000    0.000    0.800    0.000    0.000 
#    0.000    0.000    0.000    0.000    0.000    0.000 
#
# Total GULP energy -167219.715548 kJ/mol
# GULP energy per Si atom -5573.990518 kJ/mol
# Density = 1.560261 g / cm^3
# Si number density = 15.638200 Si / 1000 Ang^3
#
#
#
# Elastic Constant Matrix: (Units=GPa)
#
#
# Indices 1 2 3 4 5 6 
#
# 1 69.5873 43.8977 47.1305 0.0000 0.0000 0.0000
# 2 43.8977 83.7685 51.9100 0.0000 0.0000 0.0000
# 3 47.1305 51.9100 111.0140 0.0002 -0.0001 0.0000
# 4 0.0000 0.0000 0.0002 15.3032 0.0000 0.0000
# 5 0.0000 0.0000 -0.0001 0.0000 20.6514 0.0000
# 6 0.0000 0.0000 0.0000 0.0000 0.0000 25.4969
#
#
#
# Elastic Compliance Matrix: (Units=1/GPa)
#
#
# Indices 1 2 3 4 5 6 
#
# 1 0.024069 -0.008843 -0.006083 0.000000 0.000000 0.000000
# 2 -0.008843 0.020057 -0.005624 0.000000 0.000000 0.000000
# 3 -0.006083 -0.005624 0.014220 0.000000 0.000000 0.000000
# 4 0.000000 0.000000 0.000000 0.065346 0.000000 0.000000
# 5 0.000000 0.000000 0.000000 0.000000 0.048423 0.000000
# 6 0.000000 0.000000 0.000000 0.000000 0.000000 0.039220
#
#
# Mechanical properties :
#
#
# Convention : Reuss Voigt Hill
#
# Bulk Modulus (GPa) = 57.98839 61.13849 59.56344
# Shear Modulus (GPa) = 19.36587 20.38576 19.87581
#
# Velocity S-wave (km/s) = 3.52286 3.61444 3.56895
# Velocity P-wave (km/s) = 7.32865 7.52326 7.42659
#
# Compressibility (1/GPa) = 0.01724483
#
# Stress axis : x y z
#
# Youngs Moduli (GPa) = 41.54668 49.85736 70.32132
#
# Poissons Ratio (x) = 0.44091 0.42779
# Poissons Ratio (y) = 0.36742 0.39551
# Poissons Ratio (z) = 0.25274 0.28041
#
# Static dielectric constant tensor:
#      x y z
#    x 1.520150 0.000000 0.000000 
#    y 0.000000 1.517470 0.000000 
#    z 0.000000 0.000000 1.532290 
# 
# From -- ./inp_files/11433.got.cif
#   From: 2010.05.17/outbox.cif.g08.bks.cpg/sg46_6_cif.got.tgz:11433.got - 2010.06.03 19:58:25.
