data_PCOD9378874
_publ_section_title
;
Structure prediction by ZEFSAII (Michael W. Deem and Ramdas Pophale) SiO2 
 PCOD9378874
Probable space group: I M A 2
;
_chemical_formula_sum "Si O2"
_cell_formula_units_Z 56
_cell_length_a 14.898240
_cell_length_b 16.060476
_cell_length_c 10.720893
_cell_angle_alpha 90.000000
_cell_angle_beta 90.000000
_cell_angle_gamma 90.000000
_cell_volume 2565.218365
_symmetry_space_group_name_H-M "I M A 2"
_symmetry_group_IT_number 46
_symmetry_cell_setting 'orthorhombic'
loop_
_space_group_symop_operation_xyz
x,y,z
-x,-y,z
1/2-x,y,z
1/2+x,-y,z
1/2+x,1/2+y,1/2+z
1/2-x,1/2-y,1/2+z
-x,1/2+y,1/2+z
x,1/2-y,1/2+z
loop_
_atom_site_type_symbol
_atom_site_label
_atom_site_fract_x
_atom_site_fract_y
_atom_site_fract_z
Si Si1 0.844789 0.861736 0.127000
Si Si2 0.855218 0.377644 0.747902
Si Si3 0.028077 0.405128 0.108079
Si Si4 0.345952 0.045310 0.389688
Si Si5 0.970218 0.410755 0.506397
Si Si6 0.353435 0.203508 0.777464
Si Si7 0.022572 0.733220 0.921219
O O1 0.750000 0.887209 0.068321
O O2 0.848454 0.907044 0.259864
O O3 0.845109 0.765273 0.160017
O O4 0.933414 0.883068 0.057100
O O5 0.750000 0.353883 0.726025
O O6 0.853948 0.449741 0.852060
O O7 0.901406 0.416365 0.623632
O O8 0.921242 0.309648 0.809189
O O9 0.090388 0.372633 0.220580
O O10 0.000000 0.500000 0.145079
O O11 0.079747 0.425602 0.981374
O O12 0.971845 0.324483 0.048618
O O13 0.250000 0.061417 0.450906
O O14 0.938699 0.327519 0.435272
O O15 0.000000 0.500000 0.450035
O O16 0.250000 0.189101 0.818672
O O17 0.419489 0.249829 0.875578
#
# Coordination Sequence:
#
# PCOD9378874 Si02
#       7
#     8   8   8   8   8   8   8
#     4  10  19  34  60  96 129 155 201 270 333 386
#     4  11  23  41  65  95 131 172 221 273 323 390
#     4  12  22  37  64  94 134 171 216 267 327 392
#     4  10  19  33  60  93 124 160 212 271 324 376
#     4  12  24  41  67  93 127 169 223 277 330 386
#     4  11  24  40  63  97 136 172 212 267 332 398
#     4  12  24  42  62  96 131 174 218 271 334 395
#
# _framework density 21.830499
#
# number of rings (size 3 to 8) (size 9 to 14) (size 15 to 20)
#    0.000    0.857    7.143    0.429    0.000    2.286 
#    0.000    0.000    0.000    4.286    0.000    0.000 
#    0.000    0.000    0.000    0.000    0.000    0.000 
#
# Total GULP energy -155944.731075 kJ/mol
# GULP energy per Si atom -5569.454681 kJ/mol
# Density = 2.178081 g / cm^3
# Si number density = 21.830499 Si / 1000 Ang^3
#
#
#
# Elastic Constant Matrix: (Units=GPa)
#
#
# Indices 1 2 3 4 5 6 
#
# 1 102.3092 32.6584 29.0091 0.0000 0.0000 0.0000
# 2 32.6584 144.6087 24.6573 0.0000 0.0000 0.0000
# 3 29.0091 24.6573 51.9732 0.0000 0.0000 0.0000
# 4 0.0000 0.0000 0.0000 38.7803 0.0000 0.0000
# 5 0.0000 0.0000 0.0000 0.0000 -30.3569 0.0000
# 6 0.0000 0.0000 0.0000 0.0000 0.0000 64.5040
#
#
#
# Elastic Compliance Matrix: (Units=1/GPa)
#
#
# Indices 1 2 3 4 5 6 
#
# 1 0.011986 -0.001704 -0.005882 0.000000 0.000000 0.000000
# 2 -0.001704 0.007766 -0.002733 0.000000 0.000000 0.000000
# 3 -0.005882 -0.002733 0.023820 0.000000 0.000000 0.000000
# 4 0.000000 0.000000 0.000000 0.025786 0.000000 0.000000
# 5 0.000000 0.000000 0.000000 0.000000 -0.032941 0.000000
# 6 0.000000 0.000000 0.000000 0.000000 0.000000 0.015503
#
#
# Mechanical properties :
#
#
# Convention : Reuss Voigt Hill
#
# Bulk Modulus (GPa) = 43.60249 52.39340 47.99795
# Shear Modulus (GPa) = 62.34208 28.75658 45.54933
#
# Velocity S-wave (km/s) = 5.34970 3.63335 4.57278
# Velocity P-wave (km/s) = 7.62730 6.45398 7.06504
#
# Compressibility (1/GPa) = 0.02293447
#
# Stress axis : x y z
#
# Youngs Moduli (GPa) = 83.43117 128.76464 41.98110
#
# Poissons Ratio (x) = 0.21942 0.24691
# Poissons Ratio (y) = 0.14217 0.11475
# Poissons Ratio (z) = 0.49071 0.35195
#
# Static dielectric constant tensor:
#      x y z
#    x 1.829150 0.000000 0.000000 
#    y 0.000000 1.963060 0.000000 
#    z 0.000000 0.000000 1.833670 
# 
# From -- ./inp_files/11129.got.cif
#   From: 2010.05.17/outbox.cif.g08.bks.cpg/sg46_6_cif.got.tgz:11129.got - 2010.06.03 19:58:25.
