data_PCOD9378694
_publ_section_title
;
Structure prediction by ZEFSAII (Michael W. Deem and Ramdas Pophale) SiO2 
 PCOD9378694
Probable space group: I M A 2
;
_chemical_formula_sum "Si O2"
_cell_formula_units_Z 64
_cell_length_a 8.205369
_cell_length_b 16.965056
_cell_length_c 22.663632
_cell_angle_alpha 90.000000
_cell_angle_beta 90.000000
_cell_angle_gamma 90.000000
_cell_volume 3154.880571
_symmetry_space_group_name_H-M "I M A 2"
_symmetry_group_IT_number 46
_symmetry_cell_setting 'orthorhombic'
loop_
_space_group_symop_operation_xyz
x,y,z
-x,-y,z
1/2-x,y,z
1/2+x,-y,z
1/2+x,1/2+y,1/2+z
1/2-x,1/2-y,1/2+z
-x,1/2+y,1/2+z
x,1/2-y,1/2+z
loop_
_atom_site_type_symbol
_atom_site_label
_atom_site_fract_x
_atom_site_fract_y
_atom_site_fract_z
Si Si1 0.446939 0.235862 0.741280
Si Si2 0.445349 0.586316 0.772808
Si Si3 0.552897 0.913728 0.821269
Si Si4 0.441028 0.727494 0.984236
Si Si5 0.937871 0.892758 0.955681
Si Si6 0.940392 0.752982 0.610438
Si Si7 0.438048 0.583310 0.584005
Si Si8 0.944877 0.081737 0.407215
O O1 0.250000 0.237039 0.744120
O O2 0.502463 0.326741 0.750559
O O3 0.502136 0.165554 0.785904
O O4 0.495295 0.216257 0.673940
O O5 0.500000 0.500000 0.748086
O O6 0.250000 0.585204 0.770779
O O7 0.508693 0.586811 0.840567
O O8 0.750000 0.911363 0.821769
O O9 0.498921 0.911307 0.890210
O O10 0.500000 0.000000 0.797351
O O11 0.250000 0.745142 0.972158
O O12 0.462390 0.716686 0.053964
O O13 0.551283 0.799162 0.962993
O O14 0.495486 0.652860 0.947676
O O15 0.750000 0.919416 0.961717
O O16 0.039879 0.919101 0.012782
O O17 0.750000 0.770844 0.602629
O O18 0.962747 0.657923 0.607655
O O19 0.500000 0.500000 0.607008
O O20 0.250000 0.595520 0.598596
O O21 0.750000 0.083428 0.403194
O O22 0.000000 0.000000 0.433926
#
# Coordination Sequence:
#
# PCOD9378694 Si02
#       8
#     8   8   8   8   8   8   8   8
#     4  10  22  40  58  78 108 145 186 231 273 317
#     4  10  20  35  57  85 115 146 180 218 267 326
#     4  10  22  38  57  82 110 143 183 227 274 324
#     4  10  19  33  53  78 107 136 172 217 265 316
#     4  10  19  32  53  81 110 139 172 210 262 323
#     4  10  21  37  55  74 100 137 180 220 262 313
#     4  11  21  34  53  78 109 139 171 211 259 315
#     4   9  19  33  51  78 108 137 170 212 262 318
#
# _framework density 20.286028000000002
#
# number of rings (size 3 to 8) (size 9 to 14) (size 15 to 20)
#    0.000    2.000    0.000    5.250    0.000    5.500 
#    0.000    0.625    0.000    3.000    0.000    0.000 
#    0.000    0.000    0.000    0.000    0.000    0.000 
#
# Total GULP energy -178483.706540 kJ/mol
# GULP energy per Si atom -5577.615829 kJ/mol
# Density = 2.023986 g / cm^3
# Si number density = 20.286028 Si / 1000 Ang^3
#
#
#
# Elastic Constant Matrix: (Units=GPa)
#
#
# Indices 1 2 3 4 5 6 
#
# 1 26.8102 6.8413 2.8073 0.0000 0.0000 0.0000
# 2 6.8413 101.2449 44.3894 0.0000 0.0000 0.0000
# 3 2.8073 44.3894 87.7420 0.0000 0.0000 0.0000
# 4 0.0000 0.0000 0.0000 -22.8778 0.0000 0.0000
# 5 0.0000 0.0000 0.0000 0.0000 13.3635 0.0000
# 6 0.0000 0.0000 0.0000 0.0000 0.0000 29.1660
#
#
#
# Elastic Compliance Matrix: (Units=1/GPa)
#
#
# Indices 1 2 3 4 5 6 
#
# 1 0.037954 -0.002611 0.000107 0.000000 0.000000 0.000000
# 2 -0.002611 0.012872 -0.006428 0.000000 0.000000 0.000000
# 3 0.000107 -0.006428 0.014646 0.000000 0.000000 0.000000
# 4 0.000000 0.000000 0.000000 -0.043710 0.000000 0.000000
# 5 0.000000 0.000000 0.000000 0.000000 0.074831 0.000000
# 6 0.000000 0.000000 0.000000 0.000000 0.000000 0.034286
#
#
# Mechanical properties :
#
#
# Convention : Reuss Voigt Hill
#
# Bulk Modulus (GPa) = 21.00575 35.98589 28.49582
# Shear Modulus (GPa) = 30.37410 14.71429 22.54420
#
# Velocity S-wave (km/s) = 3.87368 2.69614 3.33726
# Velocity P-wave (km/s) = 5.51221 5.24118 5.37840
#
# Compressibility (1/GPa) = 0.04760602
#
# Stress axis : x y z
#
# Youngs Moduli (GPa) = 26.34736 77.68818 68.27876
#
# Poissons Ratio (x) = 0.20288 -0.00729
# Poissons Ratio (y) = 0.06881 0.43893
# Poissons Ratio (z) = -0.00281 0.49942
#
# Static dielectric constant tensor:
#      x y z
#    x 1.730350 0.000000 0.000000 
#    y 0.000000 1.772890 0.000000 
#    z 0.000000 0.000000 1.752390 
# 
# From -- ./inp_files/23230.got.cif
#   From: 2010.05.17/outbox.cif.g08.bks.cpg/sg46_12_cif.got.tgz:23230.got - 2010.06.03 19:58:25.
