data_PCOD9378214
_publ_section_title
;
Structure prediction by ZEFSAII (Michael W. Deem and Ramdas Pophale) SiO2 
 PCOD9378214
Probable space group: I M A 2
;
_chemical_formula_sum "Si O2"
_cell_formula_units_Z 64
_cell_length_a 25.694276
_cell_length_b 15.813903
_cell_length_c 9.110204
_cell_angle_alpha 90.000000
_cell_angle_beta 90.000000
_cell_angle_gamma 90.000000
_cell_volume 3701.719932
_symmetry_space_group_name_H-M "I M A 2"
_symmetry_group_IT_number 46
_symmetry_cell_setting 'orthorhombic'
loop_
_space_group_symop_operation_xyz
x,y,z
-x,-y,z
1/2-x,y,z
1/2+x,-y,z
1/2+x,1/2+y,1/2+z
1/2-x,1/2-y,1/2+z
-x,1/2+y,1/2+z
x,1/2-y,1/2+z
loop_
_atom_site_type_symbol
_atom_site_label
_atom_site_fract_x
_atom_site_fract_y
_atom_site_fract_z
Si Si1 0.689262 0.353563 0.144090
Si Si2 0.065642 0.623684 0.690579
Si Si3 0.380230 0.002596 0.698857
Si Si4 0.048648 0.317380 0.708700
Si Si5 0.948103 0.120331 0.878351
Si Si6 0.069999 0.352533 0.376397
Si Si7 0.445076 0.476039 0.924819
Si Si8 0.134508 0.764041 0.365571
O O1 0.750000 0.346142 0.111347
O O2 0.672746 0.450639 0.176680
O O3 0.674709 0.300718 0.291016
O O4 0.656515 0.314747 0.005744
O O5 0.064676 0.577136 0.534600
O O6 0.061454 0.555315 0.817719
O O7 0.116862 0.674507 0.733487
O O8 0.014382 0.684032 0.684629
O O9 0.389910 0.078355 0.813531
O O10 0.400560 0.034190 0.543105
O O11 0.419445 0.928098 0.749704
O O12 0.073916 0.335153 0.550327
O O13 0.071281 0.233573 0.782400
O O14 0.053860 0.394013 0.822749
O O15 0.918498 0.210595 0.899217
O O16 0.009563 0.119187 0.855575
O O17 0.500000 0.500000 0.000637
#
# Coordination Sequence:
#
# PCOD9378214 Si02
#       8
#     8   8   8   8   8   8   8   8
#     4  11  24  39  57  82 109 146 199 249 288 330
#     4  10  18  32  49  77 109 151 178 219 270 334
#     4  11  22  34  53  74 107 149 187 236 283 335
#     4  10  21  31  51  77 117 145 185 222 264 336
#     4  10  20  31  50  75 112 145 187 218 275 341
#     4  11  20  33  49  78 111 150 185 226 276 341
#     4  10  19  31  49  75 108 144 184 220 271 333
#     4  11  19  35  57  78 108 148 183 232 284 339
#
# _framework density 17.289261
#
# number of rings (size 3 to 8) (size 9 to 14) (size 15 to 20)
#    0.000    1.500    3.750    3.000    0.000    3.000 
#    0.000    0.000    0.000    0.000    0.000    3.500 
#    0.000    0.000    0.000    0.000    0.000    0.000 
#
# Total GULP energy -178336.930514 kJ/mol
# GULP energy per Si atom -5573.029079 kJ/mol
# Density = 1.724991 g / cm^3
# Si number density = 17.289261 Si / 1000 Ang^3
#
#
#
# Elastic Constant Matrix: (Units=GPa)
#
#
# Indices 1 2 3 4 5 6 
#
# 1 43.6774 23.6753 16.9907 0.0000 0.0000 0.0000
# 2 23.6753 75.0474 24.7357 0.0000 0.0000 0.0000
# 3 16.9907 24.7357 86.8756 0.0000 0.0000 0.0000
# 4 0.0000 0.0000 0.0000 29.1821 0.0000 0.0000
# 5 0.0000 0.0000 0.0000 0.0000 15.4894 0.0000
# 6 0.0000 0.0000 0.0000 0.0000 0.0000 17.1598
#
#
#
# Elastic Compliance Matrix: (Units=1/GPa)
#
#
# Indices 1 2 3 4 5 6 
#
# 1 0.028461 -0.007884 -0.003321 0.000000 0.000000 0.000000
# 2 -0.007884 0.016889 -0.003267 0.000000 0.000000 0.000000
# 3 -0.003321 -0.003267 0.013090 0.000000 0.000000 0.000000
# 4 0.000000 0.000000 0.000000 0.034268 0.000000 0.000000
# 5 0.000000 0.000000 0.000000 0.000000 0.064560 0.000000
# 6 0.000000 0.000000 0.000000 0.000000 0.000000 0.058276
#
#
# Mechanical properties :
#
#
# Convention : Reuss Voigt Hill
#
# Bulk Modulus (GPa) = 33.90317 37.37820 35.64069
# Shear Modulus (GPa) = 19.66033 21.71284 20.68658
#
# Velocity S-wave (km/s) = 3.37581 3.54765 3.46280
# Velocity P-wave (km/s) = 5.90311 6.20059 6.05368
#
# Compressibility (1/GPa) = 0.02949576
#
# Stress axis : x y z
#
# Youngs Moduli (GPa) = 35.13627 59.21100 76.39161
#
# Poissons Ratio (x) = 0.46681 0.25373
# Poissons Ratio (y) = 0.27701 0.24956
# Poissons Ratio (z) = 0.11670 0.19343
#
# Static dielectric constant tensor:
#      x y z
#    x 1.590900 0.000000 0.000000 
#    y 0.000000 1.636580 0.000000 
#    z 0.000000 0.000000 1.623340 
# 
# From -- ./inp_files/7962.got.cif
#   From: 2010.05.17/outbox.cif.g08.bks.cpg/sg46_4_cif.got.tgz:7962.got - 2010.06.03 19:58:25.
