data_PCOD9378072
_publ_section_title
;
Structure prediction by ZEFSAII (Michael W. Deem and Ramdas Pophale) SiO2 
 PCOD9378072
Probable space group: I M A 2
;
_chemical_formula_sum "Si O2"
_cell_formula_units_Z 40
_cell_length_a 18.731841
_cell_length_b 15.784266
_cell_length_c 8.031036
_cell_angle_alpha 90.000000
_cell_angle_beta 90.000000
_cell_angle_gamma 90.000000
_cell_volume 2374.523251
_symmetry_space_group_name_H-M "I M A 2"
_symmetry_group_IT_number 46
_symmetry_cell_setting 'orthorhombic'
loop_
_space_group_symop_operation_xyz
x,y,z
-x,-y,z
1/2-x,y,z
1/2+x,-y,z
1/2+x,1/2+y,1/2+z
1/2-x,1/2-y,1/2+z
-x,1/2+y,1/2+z
x,1/2-y,1/2+z
loop_
_atom_site_type_symbol
_atom_site_label
_atom_site_fract_x
_atom_site_fract_y
_atom_site_fract_z
Si Si1 0.490329 0.210241 0.199560
Si Si2 0.250000 0.120715 0.465774
Si Si3 0.103596 0.340562 0.407625
Si Si4 0.961588 0.128050 0.510420
Si Si5 0.750000 0.800217 0.096173
Si Si6 0.108800 0.460500 0.100237
O O1 0.426229 0.259347 0.301051
O O2 0.541035 0.157195 0.320047
O O3 0.534163 0.286955 0.118167
O O4 0.454027 0.154317 0.056160
O O5 0.250000 0.159273 0.279753
O O6 0.250000 0.198329 0.597343
O O7 0.320704 0.067656 0.503822
O O8 0.179248 0.324517 0.493824
O O9 0.109365 0.421059 0.286098
O O10 0.039762 0.085204 0.522444
O O11 0.906259 0.059935 0.580118
#
# Coordination Sequence:
#
# PCOD9378072 Si02
#       6
#     8   4   8   8   4   8
#     4   9  17  32  52  71  95 128 170 205 241 294
#     4  12  22  32  48  72 103 138 164 198 245 300
#     4  10  18  29  49  76 101 131 165 199 240 301
#     4   9  18  34  52  74  99 128 164 206 251 293
#     4  12  20  30  48  72 103 138 164 186 241 312
#     4  10  20  33  49  73 105 132 159 204 252 290
#
# _framework density 16.845486999999999
#
# number of rings (size 3 to 8) (size 9 to 14) (size 15 to 20)
#    0.000    2.000    0.000    7.800    0.000    0.000 
#    0.000   22.000    0.000    1.200    0.000    0.000 
#    0.000    0.000    0.000    0.000    0.000    0.000 
#
# Total GULP energy -111522.177427 kJ/mol
# GULP energy per Si atom -5576.108871 kJ/mol
# Density = 1.680715 g / cm^3
# Si number density = 16.845487 Si / 1000 Ang^3
#
#
#
# Elastic Constant Matrix: (Units=GPa)
#
#
# Indices 1 2 3 4 5 6 
#
# 1 71.4250 45.5688 34.3584 0.0000 0.0000 0.0000
# 2 45.5688 83.7957 46.7243 0.0000 0.0000 0.0000
# 3 34.3584 46.7243 107.5807 0.0000 0.0000 0.0000
# 4 0.0000 0.0000 0.0000 15.7780 0.0000 0.0000
# 5 0.0000 0.0000 0.0000 0.0000 9.1224 0.0000
# 6 0.0000 0.0000 0.0000 0.0000 0.0000 12.7292
#
#
#
# Elastic Compliance Matrix: (Units=1/GPa)
#
#
# Indices 1 2 3 4 5 6 
#
# 1 0.021900 -0.010569 -0.002404 0.000000 0.000000 0.000000
# 2 -0.010569 0.020848 -0.005679 0.000000 0.000000 0.000000
# 3 -0.002404 -0.005679 0.012530 0.000000 0.000000 0.000000
# 4 0.000000 0.000000 0.000000 0.063379 0.000000 0.000000
# 5 0.000000 0.000000 0.000000 0.000000 0.109620 0.000000
# 6 0.000000 0.000000 0.000000 0.000000 0.000000 0.078560
#
#
# Mechanical properties :
#
#
# Convention : Reuss Voigt Hill
#
# Bulk Modulus (GPa) = 55.63781 57.34495 56.49138
# Shear Modulus (GPa) = 14.28033 16.60259 15.44146
#
# Velocity S-wave (km/s) = 2.91473 3.14280 3.03091
# Velocity P-wave (km/s) = 6.66540 6.87643 6.77173
#
# Compressibility (1/GPa) = 0.01797339
#
# Stress axis : x y z
#
# Youngs Moduli (GPa) = 45.66188 47.96610 79.81028
#
# Poissons Ratio (x) = 0.50695 0.19186
# Poissons Ratio (y) = 0.48260 0.45326
# Poissons Ratio (z) = 0.10977 0.27241
#
# Static dielectric constant tensor:
#      x y z
#    x 1.555410 0.000000 0.000000 
#    y 0.000000 1.579770 0.000000 
#    z 0.000000 0.000000 1.621240 
# 
# From -- ./inp_files/6498.got.cif
#   From: 2010.05.17/outbox.cif.g08.bks.cpg/sg46_4_cif.got.tgz:6498.got - 2010.06.03 19:58:25.
