data_PCOD9378302
_publ_section_title
;
Structure prediction by ZEFSAII (Michael W. Deem and Ramdas Pophale) SiO2 
 PCOD9378302
Probable space group: I M A 2
;
_chemical_formula_sum "Si O2"
_cell_formula_units_Z 64
_cell_length_a 8.770765
_cell_length_b 21.066345
_cell_length_c 20.218081
_cell_angle_alpha 90.000000
_cell_angle_beta 90.000000
_cell_angle_gamma 90.000000
_cell_volume 3735.653610
_symmetry_space_group_name_H-M "I M A 2"
_symmetry_group_IT_number 46
_symmetry_cell_setting 'orthorhombic'
loop_
_space_group_symop_operation_xyz
x,y,z
-x,-y,z
1/2-x,y,z
1/2+x,-y,z
1/2+x,1/2+y,1/2+z
1/2-x,1/2-y,1/2+z
-x,1/2+y,1/2+z
x,1/2-y,1/2+z
loop_
_atom_site_type_symbol
_atom_site_label
_atom_site_fract_x
_atom_site_fract_y
_atom_site_fract_z
Si Si1 0.930804 0.566516 0.987040
Si Si2 0.433840 0.815735 0.566729
Si Si3 0.433840 0.684265 0.490498
Si Si4 0.566536 0.115968 0.353731
Si Si5 0.435114 0.765385 0.705488
Si Si6 0.933464 0.384032 0.703497
Si Si7 0.069196 0.066516 0.070187
Si Si8 0.435114 0.734614 0.351739
O O1 0.750000 0.564034 0.989293
O O2 0.000000 0.500000 0.010476
O O3 0.985868 0.578394 0.911819
O O4 0.991717 0.625140 0.030234
O O5 0.250000 0.823547 0.564985
O O6 0.467731 0.750000 0.528613
O O7 0.485415 0.805710 0.642503
O O8 0.250000 0.676453 0.492242
O O9 0.508283 0.625140 0.526993
O O10 0.485415 0.694290 0.414724
O O11 0.750000 0.110627 0.361163
O O12 0.527236 0.096689 0.278614
O O13 0.527290 0.190880 0.360839
O O14 0.250000 0.767690 0.705787
O O15 0.472710 0.690880 0.696389
O O16 0.488249 0.785294 0.778614
O O17 0.750000 0.389373 0.696064
O O18 0.014132 0.421606 0.645408
O O19 0.250000 0.064034 0.067934
O O20 0.000000 0.000000 0.046751
O O21 0.250000 0.732310 0.351440
#
# Coordination Sequence:
#
# PCOD9378302 Si02
#       8
#     8   8   8   8   8   8   8   8
#     4  12  25  38  53  75 109 146 186 227 272 322
#     4  10  18  33  58  83 109 141 179 221 269 320
#     4  10  18  33  58  83 109 141 179 221 269 320
#     4   9  17  33  56  80 108 143 182 218 260 318
#     4   8  14  27  52  83 110 138 173 213 260 318
#     4   9  17  33  56  80 108 143 182 218 260 318
#     4  12  25  38  53  75 109 146 186 227 272 322
#     4   8  14  27  52  83 110 138 173 213 260 318
#
# _framework density 17.132209
#
# number of rings (size 3 to 8) (size 9 to 14) (size 15 to 20)
#    0.000    2.250    2.500    3.750    0.000    1.500 
#    0.000    0.000    0.000    1.500    0.000    0.000 
#    0.000    0.000    0.000    0.000    0.000    0.000 
#
# Total GULP energy -178541.561020 kJ/mol
# GULP energy per Si atom -5579.423782 kJ/mol
# Density = 1.709322 g / cm^3
# Si number density = 17.132209 Si / 1000 Ang^3
#
#
#
# Elastic Constant Matrix: (Units=GPa)
#
#
# Indices 1 2 3 4 5 6 
#
# 1 49.1407 49.1641 43.2904 0.0000 0.0000 0.0000
# 2 49.1641 112.7300 66.3696 0.0000 0.0000 0.0000
# 3 43.2904 66.3696 122.3244 0.0000 0.0000 0.0000
# 4 0.0000 0.0000 0.0000 16.2087 0.0000 0.0000
# 5 0.0000 0.0000 0.0000 0.0000 17.2998 0.0000
# 6 0.0000 0.0000 0.0000 0.0000 0.0000 23.3149
#
#
#
# Elastic Compliance Matrix: (Units=1/GPa)
#
#
# Indices 1 2 3 4 5 6 
#
# 1 0.039640 -0.013266 -0.006831 0.000000 0.000000 0.000000
# 2 -0.013266 0.017474 -0.004786 0.000000 0.000000 0.000000
# 3 -0.006831 -0.004786 0.013189 0.000000 0.000000 0.000000
# 4 0.000000 0.000000 0.000000 0.061695 0.000000 0.000000
# 5 0.000000 0.000000 0.000000 0.000000 0.057804 0.000000
# 6 0.000000 0.000000 0.000000 0.000000 0.000000 0.042891
#
#
# Mechanical properties :
#
#
# Convention : Reuss Voigt Hill
#
# Bulk Modulus (GPa) = 48.69214 66.87150 57.78182
# Shear Modulus (GPa) = 17.28280 19.72274 18.50277
#
# Velocity S-wave (km/s) = 3.17959 3.39663 3.28990
# Velocity P-wave (km/s) = 6.47787 7.38242 6.94489
#
# Compressibility (1/GPa) = 0.02053719
#
# Stress axis : x y z
#
# Youngs Moduli (GPa) = 25.22727 57.22686 75.82012
#
# Poissons Ratio (x) = 0.75919 0.51789
# Poissons Ratio (y) = 0.33467 0.36288
# Poissons Ratio (z) = 0.17232 0.27390
#
# Static dielectric constant tensor:
#      x y z
#    x 1.570410 0.000000 0.000000 
#    y 0.000000 1.559680 0.000000 
#    z 0.000000 0.000000 1.606400 
# 
# From -- ./inp_files/21332.got.cif
#   From: 2010.05.17/outbox.cif.g08.bks.cpg/sg46_11_cif.got.tgz:21332.got - 2010.06.03 19:58:25.
