data_PCOD9378778
_publ_section_title
;
Structure prediction by ZEFSAII (Michael W. Deem and Ramdas Pophale) SiO2 
 PCOD9378778
Probable space group: I M A 2
;
_chemical_formula_sum "Si O2"
_cell_formula_units_Z 64
_cell_length_a 8.507995
_cell_length_b 16.678326
_cell_length_c 22.699724
_cell_angle_alpha 90.000000
_cell_angle_beta 90.000000
_cell_angle_gamma 90.000000
_cell_volume 3221.070729
_symmetry_space_group_name_H-M "I M A 2"
_symmetry_group_IT_number 46
_symmetry_cell_setting 'orthorhombic'
loop_
_space_group_symop_operation_xyz
x,y,z
-x,-y,z
1/2-x,y,z
1/2+x,-y,z
1/2+x,1/2+y,1/2+z
1/2-x,1/2-y,1/2+z
-x,1/2+y,1/2+z
x,1/2-y,1/2+z
loop_
_atom_site_type_symbol
_atom_site_label
_atom_site_fract_x
_atom_site_fract_y
_atom_site_fract_z
Si Si1 0.061266 0.585780 0.339650
Si Si2 0.565560 0.581382 0.599363
Si Si3 0.059495 0.256034 0.132646
Si Si4 0.431888 0.914729 0.427901
Si Si5 0.931914 0.411598 0.785960
Si Si6 0.061407 0.266980 0.261360
Si Si7 0.933329 0.778087 0.502368
Si Si8 0.932788 0.112853 0.973189
O O1 0.250000 0.585274 0.339117
O O2 0.009061 0.589785 0.408376
O O3 0.000000 0.500000 0.315423
O O4 0.005779 0.666633 0.306384
O O5 0.500000 0.500000 0.625620
O O6 0.750000 0.581866 0.607822
O O7 0.500920 0.664233 0.625468
O O8 0.527819 0.582406 0.529683
O O9 0.250000 0.253383 0.135765
O O10 0.007581 0.290410 0.194977
O O11 0.022795 0.297044 0.070247
O O12 0.250000 0.904455 0.445525
O O13 0.438581 0.909509 0.357263
O O14 0.540809 0.850342 0.458833
O O15 0.500000 0.000000 0.445435
O O16 0.750000 0.408676 0.767242
O O17 0.000000 0.500000 0.768855
O O18 0.013388 0.327084 0.768369
O O19 0.250000 0.270524 0.266071
O O20 0.750000 0.751426 0.502332
O O21 0.044497 0.707896 0.479131
O O22 0.750000 0.090122 0.979453
#
# Coordination Sequence:
#
# PCOD9378778 Si02
#       8
#     8   8   8   8   8   8   8   8
#     4  11  24  40  58  83 113 146 187 234 282 333
#     4  10  19  33  53  79 111 142 175 215 264 321
#     4   8  19  37  54  75 104 140 181 224 266 317
#     4  10  20  34  53  79 110 140 174 218 269 325
#     4  10  21  37  57  85 119 151 186 228 275 331
#     4  11  22  39  61  82 110 149 191 234 281 329
#     4  10  19  34  56  80 108 140 176 218 269 325
#     4  10  20  34  54  81 112 142 175 217 268 327
#
# _framework density 19.86917
#
# number of rings (size 3 to 8) (size 9 to 14) (size 15 to 20)
#    0.000    2.000    0.000    4.500    0.000    8.000 
#    0.000    9.375    0.000    0.000    0.000    0.000 
#    0.000    0.000    0.000    0.000    0.000    0.000 
#
# Total GULP energy -178466.373881 kJ/mol
# GULP energy per Si atom -5577.074184 kJ/mol
# Density = 1.982395 g / cm^3
# Si number density = 19.869170 Si / 1000 Ang^3
#
#
#
# Elastic Constant Matrix: (Units=GPa)
#
#
# Indices 1 2 3 4 5 6 
#
# 1 51.6481 10.3221 17.1203 0.0000 0.0000 0.0000
# 2 10.3221 74.3246 23.6266 0.0000 0.0000 0.0000
# 3 17.1203 23.6266 74.5428 0.0000 0.0000 0.0000
# 4 0.0000 0.0000 0.0000 -8.3247 0.0000 0.0000
# 5 0.0000 0.0000 0.0000 0.0000 28.8917 0.0000
# 6 0.0000 0.0000 0.0000 0.0000 0.0000 33.1643
#
#
#
# Elastic Compliance Matrix: (Units=1/GPa)
#
#
# Indices 1 2 3 4 5 6 
#
# 1 0.021116 -0.001547 -0.004359 0.000000 0.000000 0.000000
# 2 -0.001547 0.015075 -0.004423 0.000000 0.000000 0.000000
# 3 -0.004359 -0.004423 0.015818 0.000000 0.000000 0.000000
# 4 0.000000 0.000000 0.000000 -0.120124 0.000000 0.000000
# 5 0.000000 0.000000 0.000000 0.000000 0.034612 0.000000
# 6 0.000000 0.000000 0.000000 0.000000 0.000000 0.030153
#
#
# Mechanical properties :
#
#
# Convention : Reuss Voigt Hill
#
# Bulk Modulus (GPa) = 31.89670 33.62815 32.76243
# Shear Modulus (GPa) = 180.12138 20.70937 100.41537
#
# Velocity S-wave (km/s) = 9.53155 3.23195 7.11674
# Velocity P-wave (km/s) = 11.71419 5.55777 9.16818
#
# Compressibility (1/GPa) = 0.03135120
#
# Stress axis : x y z
#
# Youngs Moduli (GPa) = 47.35750 66.33374 63.21827
#
# Poissons Ratio (x) = 0.10260 0.27560
# Poissons Ratio (y) = 0.07325 0.27961
# Poissons Ratio (z) = 0.20645 0.29339
#
# Static dielectric constant tensor:
#      x y z
#    x 1.671610 0.000000 0.000000 
#    y 0.000000 1.735670 0.000000 
#    z 0.000000 0.000000 1.718030 
# 
# From -- ./inp_files/23221.got.cif
#   From: 2010.05.17/outbox.cif.g08.bks.cpg/sg46_12_cif.got.tgz:23221.got - 2010.06.03 19:58:25.
