data_PCOD9378935
_publ_section_title
;
Structure prediction by ZEFSAII (Michael W. Deem and Ramdas Pophale) SiO2 
 PCOD9378935
Probable space group: I M A 2
;
_chemical_formula_sum "Si O2"
_cell_formula_units_Z 60
_cell_length_a 14.866871
_cell_length_b 9.178829
_cell_length_c 19.724207
_cell_angle_alpha 90.000000
_cell_angle_beta 90.000000
_cell_angle_gamma 90.000000
_cell_volume 2691.574492
_symmetry_space_group_name_H-M "I M A 2"
_symmetry_group_IT_number 46
_symmetry_cell_setting 'orthorhombic'
loop_
_space_group_symop_operation_xyz
x,y,z
-x,-y,z
1/2-x,y,z
1/2+x,-y,z
1/2+x,1/2+y,1/2+z
1/2-x,1/2-y,1/2+z
-x,1/2+y,1/2+z
x,1/2-y,1/2+z
loop_
_atom_site_type_symbol
_atom_site_label
_atom_site_fract_x
_atom_site_fract_y
_atom_site_fract_z
Si Si1 0.102672 0.957543 0.942560
Si Si2 0.892362 0.984311 0.160003
Si Si3 0.355046 0.459763 0.811661
Si Si4 0.500000 0.000000 0.405639
Si Si5 0.355422 0.698091 0.303164
Si Si6 0.647197 0.174245 0.658420
Si Si7 0.346494 0.287037 0.533083
Si Si8 0.950015 0.186691 0.523416
O O1 0.133855 0.890964 0.871807
O O2 0.098481 0.837786 0.002775
O O3 0.000000 0.000000 0.931820
O O4 0.151862 0.098926 0.970714
O O5 0.870825 0.917212 0.233759
O O6 0.853944 0.148211 0.158755
O O7 0.853837 0.884059 0.101121
O O8 0.000000 0.000000 0.151443
O O9 0.250000 0.438867 0.829832
O O10 0.431555 0.400201 0.861833
O O11 0.379997 0.632787 0.813556
O O12 0.437373 0.910207 0.456998
O O13 0.250000 0.704707 0.287815
O O14 0.393886 0.635774 0.232419
O O15 0.750000 0.122771 0.650578
O O16 0.590023 0.129269 0.593256
O O17 0.250000 0.207452 0.532469
O O18 0.442277 0.206349 0.529921
#
# Coordination Sequence:
#
# PCOD9378935 Si02
#       8
#     8   8   8   4   8   8   8   8
#     4  10  19  34  56  87 114 141 185 231 287 340
#     4  11  17  32  58  89 117 141 174 230 293 341
#     4  10  21  35  56  85 112 147 186 225 281 337
#     4  12  24  40  58  76 116 158 192 234 270 328
#     4   9  18  34  56  82 110 141 181 228 280 333
#     4  10  20  35  56  83 112 141 185 236 275 326
#     4  11  21  35  59  86 117 147 179 235 290 338
#     4  11  23  38  54  83 112 150 194 228 278 333
#
# _framework density 22.291785999999998
#
# number of rings (size 3 to 8) (size 9 to 14) (size 15 to 20)
#    0.000    1.600    4.667    2.800    0.000    1.600 
#    1.200    0.000    0.000    0.000    0.000    0.000 
#    0.000    0.000    0.000    0.000    0.000    0.000 
#
# Total GULP energy -167454.356697 kJ/mol
# GULP energy per Si atom -5581.811890 kJ/mol
# Density = 2.224105 g / cm^3
# Si number density = 22.291786 Si / 1000 Ang^3
#
#
#
# Elastic Constant Matrix: (Units=GPa)
#
#
# Indices 1 2 3 4 5 6 
#
# 1 113.3120 -9.2177 31.5515 0.0000 0.0000 0.0000
# 2 -9.2177 11.5271 12.4693 0.0000 0.0000 0.0000
# 3 31.5515 12.4693 157.5956 0.0000 0.0000 0.0000
# 4 0.0000 0.0000 0.0000 10.3329 0.0000 0.0000
# 5 0.0000 0.0000 0.0000 0.0000 -35.4336 0.0000
# 6 0.0000 0.0000 0.0000 0.0000 0.0000 -14.2656
#
#
#
# Elastic Compliance Matrix: (Units=1/GPa)
#
#
# Indices 1 2 3 4 5 6 
#
# 1 0.010641 0.011826 -0.003066 0.000000 0.000000 0.000000
# 2 0.011826 0.108014 -0.010914 0.000000 0.000000 0.000000
# 3 -0.003066 -0.010914 0.007823 0.000000 0.000000 0.000000
# 4 0.000000 0.000000 0.000000 0.096779 0.000000 0.000000
# 5 0.000000 0.000000 0.000000 0.000000 -0.028222 0.000000
# 6 0.000000 0.000000 0.000000 0.000000 0.000000 -0.070099
#
#
# Mechanical properties :
#
#
# Convention : Reuss Voigt Hill
#
# Bulk Modulus (GPa) = 8.18536 39.11567 23.65052
# Shear Modulus (GPa) = 29.41737 8.63550 19.02644
#
# Velocity S-wave (km/s) = 3.63664 1.97034 2.92467
# Velocity P-wave (km/s) = 4.61665 4.77091 4.69441
#
# Compressibility (1/GPa) = 0.12216933
#
# Stress axis : x y z
#
# Youngs Moduli (GPa) = 93.97681 9.25804 127.83262
#
# Poissons Ratio (x) = -0.10948 0.39194
# Poissons Ratio (y) = -1.11134 1.39515
# Poissons Ratio (z) = 0.28814 0.10104
#
# Static dielectric constant tensor:
#      x y z
#    x 1.850300 0.000000 0.000000 
#    y 0.000000 1.860000 0.000000 
#    z 0.000000 0.000000 1.899260 
# 
# From -- ./inp_files/19600.got.cif
#   From: 2010.05.17/outbox.cif.g08.bks.cpg/sg46_10_cif.got.tgz:19600.got - 2010.06.03 19:58:25.
