data_PCOD9378594
_publ_section_title
;
Structure prediction by ZEFSAII (Michael W. Deem and Ramdas Pophale) SiO2 
 PCOD9378594
Probable space group: I M A 2
;
_chemical_formula_sum "Si O2"
_cell_formula_units_Z 48
_cell_length_a 8.545261
_cell_length_b 13.702158
_cell_length_c 18.415978
_cell_angle_alpha 90.000000
_cell_angle_beta 90.000000
_cell_angle_gamma 90.000000
_cell_volume 2156.299542
_symmetry_space_group_name_H-M "I M A 2"
_symmetry_group_IT_number 46
_symmetry_cell_setting 'orthorhombic'
loop_
_space_group_symop_operation_xyz
x,y,z
-x,-y,z
1/2-x,y,z
1/2+x,-y,z
1/2+x,1/2+y,1/2+z
1/2-x,1/2-y,1/2+z
-x,1/2+y,1/2+z
x,1/2-y,1/2+z
loop_
_atom_site_type_symbol
_atom_site_label
_atom_site_fract_x
_atom_site_fract_y
_atom_site_fract_z
Si Si1 0.069121 0.334501 0.719170
Si Si2 0.560997 0.100008 0.599015
Si Si3 0.936662 0.184266 0.908690
Si Si4 0.070033 0.863319 0.756672
Si Si5 0.071071 0.101479 0.377971
Si Si6 0.435201 0.312978 0.559164
O O1 0.250000 0.294795 0.716404
O O2 0.068874 0.402004 0.789552
O O3 0.033092 0.365532 0.636698
O O4 0.944423 0.251939 0.740208
O O5 0.750000 0.102669 0.598192
O O6 0.497574 0.097841 0.682477
O O7 0.498780 0.201923 0.567649
O O8 0.500000 0.000000 0.564629
O O9 0.750000 0.181653 0.904366
O O10 0.000576 0.127653 0.837116
O O11 0.988411 0.297883 0.901296
O O12 0.990526 0.144899 0.986200
O O13 0.250000 0.895765 0.758905
O O14 0.250000 0.109374 0.401896
O O15 0.000000 0.000000 0.403696
O O16 0.250000 0.309861 0.548883
#
# Coordination Sequence:
#
# PCOD9378594 Si02
#       6
#     8   8   8   8   8   8
#     4   8  16  30  48  67  90 119 155 192 228 270
#     4  10  19  32  49  71  96 124 155 191 232 277
#     4  10  19  32  49  71  96 124 155 191 232 277
#     4   8  16  30  48  67  90 119 155 192 228 270
#     4  10  19  32  49  71  96 124 155 191 232 277
#     4  10  19  32  49  71  96 124 155 191 232 277
#
# _framework density 22.260359000000001
#
# number of rings (size 3 to 8) (size 9 to 14) (size 15 to 20)
#    0.000    2.667    0.000    2.000    0.000    3.333 
#    0.000    3.333    0.000    1.000    0.000    7.000 
#    0.000    0.000    0.000    0.000    0.000    0.000 
#
# Total GULP energy -133695.662537 kJ/mol
# GULP energy per Si atom -5570.652606 kJ/mol
# Density = 2.220969 g / cm^3
# Si number density = 22.260359 Si / 1000 Ang^3
#
#
#
# Elastic Constant Matrix: (Units=GPa)
#
#
# Indices 1 2 3 4 5 6 
#
# 1 46.9026 0.5829 16.6172 0.0000 0.0000 0.0000
# 2 0.5829 20.9955 -8.2450 0.0000 0.0000 0.0000
# 3 16.6172 -8.2450 183.1873 0.0000 0.0000 0.0000
# 4 0.0000 0.0000 0.0000 -6.4975 0.0000 0.0000
# 5 0.0000 0.0000 0.0000 0.0000 25.4048 0.0000
# 6 0.0000 0.0000 0.0000 0.0000 0.0000 7.9897
#
#
#
# Elastic Compliance Matrix: (Units=1/GPa)
#
#
# Indices 1 2 3 4 5 6 
#
# 1 0.022070 -0.001424 -0.002066 0.000000 0.000000 0.000000
# 2 -0.001424 0.048578 0.002316 0.000000 0.000000 0.000000
# 3 -0.002066 0.002316 0.005751 0.000000 0.000000 0.000000
# 4 0.000000 0.000000 0.000000 -0.153904 0.000000 0.000000
# 5 0.000000 0.000000 0.000000 0.000000 0.039363 0.000000
# 6 0.000000 0.000000 0.000000 0.000000 0.000000 0.125161
#
#
# Mechanical properties :
#
#
# Convention : Reuss Voigt Hill
#
# Bulk Modulus (GPa) = 13.50441 29.88840 21.69640
# Shear Modulus (GPa) = 43.83995 21.52140 32.68067
#
# Velocity S-wave (km/s) = 4.44263 3.11272 3.83575
# Velocity P-wave (km/s) = 5.69172 5.13562 5.42080
#
# Compressibility (1/GPa) = 0.07404990
#
# Stress axis : x y z
#
# Youngs Moduli (GPa) = 45.30940 20.58536 173.89670
#
# Poissons Ratio (x) = 0.02932 0.35930
# Poissons Ratio (y) = 0.06453 -0.40268
# Poissons Ratio (z) = 0.09362 -0.04767
#
# Static dielectric constant tensor:
#      x y z
#    x 1.786240 0.000000 0.000000 
#    y 0.000000 1.828380 0.000000 
#    z 0.000000 0.000000 1.917120 
# 
# From -- ./inp_files/13888.got.cif
#   From: 2010.05.17/outbox.cif.g08.bks.cpg/sg46_7_cif.got.tgz:13888.got - 2010.06.03 19:58:25.
