data_PCOD9378283
_publ_section_title
;
Structure prediction by ZEFSAII (Michael W. Deem and Ramdas Pophale) SiO2 
 PCOD9378283
Probable space group: I M A 2
;
_chemical_formula_sum "Si O2"
_cell_formula_units_Z 56
_cell_length_a 8.753904
_cell_length_b 19.400131
_cell_length_c 18.196225
_cell_angle_alpha 90.000000
_cell_angle_beta 90.000000
_cell_angle_gamma 90.000000
_cell_volume 3090.208199
_symmetry_space_group_name_H-M "I M A 2"
_symmetry_group_IT_number 46
_symmetry_cell_setting 'orthorhombic'
loop_
_space_group_symop_operation_xyz
x,y,z
-x,-y,z
1/2-x,y,z
1/2+x,-y,z
1/2+x,1/2+y,1/2+z
1/2-x,1/2-y,1/2+z
-x,1/2+y,1/2+z
x,1/2-y,1/2+z
loop_
_atom_site_type_symbol
_atom_site_label
_atom_site_fract_x
_atom_site_fract_y
_atom_site_fract_z
Si Si1 0.923615 0.289288 0.315010
Si Si2 0.434893 0.575792 0.776452
Si Si3 0.424471 0.429045 0.333478
Si Si4 0.567989 0.197602 0.576303
Si Si5 0.925711 0.156408 0.417479
Si Si6 0.930533 0.797042 0.188039
Si Si7 0.425729 0.071057 0.655801
O O1 0.750000 0.297448 0.286723
O O2 0.922905 0.228768 0.374594
O O3 0.981607 0.360150 0.349511
O O4 0.029644 0.260824 0.249745
O O5 0.500000 0.500000 0.761932
O O6 0.250000 0.575765 0.776382
O O7 0.489441 0.602566 0.857496
O O8 0.491106 0.633154 0.717991
O O9 0.500000 0.500000 0.359787
O O10 0.250000 0.423575 0.358499
O O11 0.424036 0.431623 0.244315
O O12 0.750000 0.207996 0.571331
O O13 0.505683 0.172798 0.496892
O O14 0.494450 0.265619 0.612234
O O15 0.527076 0.134258 0.629328
O O16 0.750000 0.134294 0.430983
O O17 0.750000 0.806564 0.183825
O O18 0.250000 0.078815 0.631405
O O19 0.500000 0.000000 0.628779
#
# Coordination Sequence:
#
# PCOD9378283 Si02
#       7
#     8   8   8   8   8   8   8
#     4  10  18  33  54  75 101 134 173 219 264 311
#     4  10  20  38  60  84 111 144 184 230 279 330
#     4  10  19  30  47  72 102 132 167 207 251 301
#     4  11  20  34  54  77 108 145 180 220 268 319
#     4   8  19  35  53  78 107 140 178 216 266 327
#     4  11  21  34  53  80 108 140 182 226 268 319
#     4  10  20  32  46  70 104 137 172 208 248 301
#
# _framework density 18.121755
#
# number of rings (size 3 to 8) (size 9 to 14) (size 15 to 20)
#    0.000    2.000    1.429    4.286    0.000    1.714 
#    0.000   10.000    0.000    0.857    0.000    4.000 
#    0.000    0.000    0.000    0.000    0.000    0.000 
#
# Total GULP energy -156100.968689 kJ/mol
# GULP energy per Si atom -5575.034596 kJ/mol
# Density = 1.808051 g / cm^3
# Si number density = 18.121755 Si / 1000 Ang^3
#
#
#
# Elastic Constant Matrix: (Units=GPa)
#
#
# Indices 1 2 3 4 5 6 
#
# 1 81.2454 27.4391 10.0147 0.0000 0.0000 0.0000
# 2 27.4391 122.4639 13.6642 0.0000 0.0000 0.0000
# 3 10.0147 13.6642 39.6394 0.0000 0.0000 0.0000
# 4 0.0000 0.0000 0.0000 9.3589 0.0000 0.0000
# 5 0.0000 0.0000 0.0000 0.0000 7.9602 0.0000
# 6 0.0000 0.0000 0.0000 0.0000 0.0000 30.5992
#
#
#
# Elastic Compliance Matrix: (Units=1/GPa)
#
#
# Indices 1 2 3 4 5 6 
#
# 1 0.013545 -0.002759 -0.002471 0.000000 0.000000 0.000000
# 2 -0.002759 0.009054 -0.002424 0.000000 0.000000 0.000000
# 3 -0.002471 -0.002424 0.026687 0.000000 0.000000 0.000000
# 4 0.000000 0.000000 0.000000 0.106850 0.000000 0.000000
# 5 0.000000 0.000000 0.000000 0.000000 0.125625 0.000000
# 6 0.000000 0.000000 0.000000 0.000000 0.000000 0.032681
#
#
# Mechanical properties :
#
#
# Convention : Reuss Voigt Hill
#
# Bulk Modulus (GPa) = 29.43061 38.39830 33.91446
# Shear Modulus (GPa) = 14.65943 22.39903 18.52923
#
# Velocity S-wave (km/s) = 2.84727 3.51954 3.20110
# Velocity P-wave (km/s) = 5.20433 6.14420 5.69369
#
# Compressibility (1/GPa) = 0.03397823
#
# Stress axis : x y z
#
# Youngs Moduli (GPa) = 73.82897 110.44416 37.47098
#
# Poissons Ratio (x) = 0.30473 0.09259
# Poissons Ratio (y) = 0.20370 0.09083
# Poissons Ratio (z) = 0.18243 0.26773
#
# Static dielectric constant tensor:
#      x y z
#    x 1.629210 0.000000 0.000000 
#    y 0.000000 1.615360 0.000000 
#    z 0.000000 0.000000 1.643580 
# 
# From -- ./inp_files/21235.got.cif
#   From: 2010.05.17/outbox.cif.g08.bks.cpg/sg46_11_cif.got.tgz:21235.got - 2010.06.03 19:58:25.
