data_PCOD9378871
_publ_section_title
;
Structure prediction by ZEFSAII (Michael W. Deem and Ramdas Pophale) SiO2 
 PCOD9378871
Probable space group: I M A 2
;
_chemical_formula_sum "Si O2"
_cell_formula_units_Z 60
_cell_length_a 18.955023
_cell_length_b 7.216093
_cell_length_c 22.580534
_cell_angle_alpha 90.000000
_cell_angle_beta 90.000000
_cell_angle_gamma 90.000000
_cell_volume 3088.592736
_symmetry_space_group_name_H-M "I M A 2"
_symmetry_group_IT_number 46
_symmetry_cell_setting 'orthorhombic'
loop_
_space_group_symop_operation_xyz
x,y,z
-x,-y,z
1/2-x,y,z
1/2+x,-y,z
1/2+x,1/2+y,1/2+z
1/2-x,1/2-y,1/2+z
-x,1/2+y,1/2+z
x,1/2-y,1/2+z
loop_
_atom_site_type_symbol
_atom_site_label
_atom_site_fract_x
_atom_site_fract_y
_atom_site_fract_z
Si Si1 0.133064 0.524023 0.033240
Si Si2 0.580940 0.429114 0.901588
Si Si3 0.000000 0.000000 0.615336
Si Si4 0.335322 0.213557 0.867052
Si Si5 0.423286 0.593403 0.313670
Si Si6 0.552064 0.171167 0.197156
Si Si7 0.170896 0.375307 0.497550
Si Si8 0.169414 0.616565 0.601870
O O1 0.170489 0.680097 0.072203
O O2 0.065800 0.471131 0.072431
O O3 0.108849 0.594565 0.968578
O O4 0.173812 0.336031 0.019193
O O5 0.500000 0.500000 0.902888
O O6 0.628102 0.585093 0.868096
O O7 0.585871 0.237839 0.866883
O O8 0.988120 0.179094 0.656103
O O9 0.250000 0.227274 0.865410
O O10 0.358458 0.130736 0.931429
O O11 0.366405 0.072063 0.818927
O O12 0.500000 0.500000 0.317450
O O13 0.422256 0.716597 0.254499
O O14 0.619415 0.108614 0.158573
O O15 0.500000 0.000000 0.211567
O O16 0.250000 0.453650 0.492039
O O17 0.135896 0.491307 0.549592
O O18 0.250000 0.558520 0.615157
#
# Coordination Sequence:
#
# PCOD9378871 Si02
#       8
#     8   8   4   8   8   8   8   8
#     4  10  19  33  58  90 122 154 193 250 305 366
#     4  11  21  38  63  98 129 164 209 254 309 378
#     4  10  20  36  56  86 118 152 202 252 306 358
#     4  10  23  41  63  95 130 164 205 257 319 380
#     4  12  24  40  65  87 123 168 216 264 310 368
#     4  11  24  40  61  84 118 164 214 260 309 366
#     4   9  18  35  57  85 124 157 188 238 309 375
#     4  10  21  38  60  89 120 158 202 253 312 374
#
# _framework density 19.426323
#
# number of rings (size 3 to 8) (size 9 to 14) (size 15 to 20)
#    0.000    1.600    2.667    2.400    0.000    1.600 
#    0.000    0.667    0.000    0.000    0.000    0.000 
#    0.000    0.000    0.000    0.000    0.000    0.000 
#
# Total GULP energy -167396.742098 kJ/mol
# GULP energy per Si atom -5579.891403 kJ/mol
# Density = 1.938211 g / cm^3
# Si number density = 19.426323 Si / 1000 Ang^3
#
#
#
# Elastic Constant Matrix: (Units=GPa)
#
#
# Indices 1 2 3 4 5 6 
#
# 1 82.0963 20.4512 14.4346 0.0000 0.0000 0.0000
# 2 20.4512 59.4267 26.4665 0.0000 0.0000 0.0000
# 3 14.4346 26.4665 63.8163 0.0000 0.0000 0.0000
# 4 0.0000 0.0000 0.0000 32.2398 0.0000 0.0000
# 5 0.0000 0.0000 0.0000 0.0000 18.4541 0.0000
# 6 0.0000 0.0000 0.0000 0.0000 0.0000 22.4268
#
#
#
# Elastic Compliance Matrix: (Units=1/GPa)
#
#
# Indices 1 2 3 4 5 6 
#
# 1 0.013421 -0.004007 -0.001374 0.000000 0.000000 0.000000
# 2 -0.004007 0.021836 -0.008150 0.000000 0.000000 0.000000
# 3 -0.001374 -0.008150 0.019361 0.000000 0.000000 0.000000
# 4 0.000000 0.000000 0.000000 0.031018 0.000000 0.000000
# 5 0.000000 0.000000 0.000000 0.000000 0.054188 0.000000
# 6 0.000000 0.000000 0.000000 0.000000 0.000000 0.044590
#
#
# Mechanical properties :
#
#
# Convention : Reuss Voigt Hill
#
# Bulk Modulus (GPa) = 36.28910 36.44933 36.36922
# Shear Modulus (GPa) = 22.65942 24.22326 23.44134
#
# Velocity S-wave (km/s) = 3.41901 3.53502 3.47750
# Velocity P-wave (km/s) = 5.85722 5.95528 5.90646
#
# Compressibility (1/GPa) = 0.02755648
#
# Stress axis : x y z
#
# Youngs Moduli (GPa) = 74.51286 45.79610 51.65106
#
# Poissons Ratio (x) = 0.18349 0.07096
# Poissons Ratio (y) = 0.29855 0.42094
# Poissons Ratio (z) = 0.10237 0.37323
#
# Static dielectric constant tensor:
#      x y z
#    x 1.680570 0.000000 0.000000 
#    y 0.000000 1.690630 0.000000 
#    z 0.000000 0.000000 1.682540 
# 
# From -- ./inp_files/23898.got.cif
#   From: 2010.05.17/outbox.cif.g08.bks.cpg/sg46_12_cif.got.tgz:23898.got - 2010.06.03 19:58:25.
