data_PCOD9378445
_publ_section_title
;
Structure prediction by ZEFSAII (Michael W. Deem and Ramdas Pophale) SiO2 
 PCOD9378445
Probable space group: I M A 2
;
_chemical_formula_sum "Si O2"
_cell_formula_units_Z 56
_cell_length_a 8.957876
_cell_length_b 18.646628
_cell_length_c 21.286850
_cell_angle_alpha 90.000000
_cell_angle_beta 90.000000
_cell_angle_gamma 90.000000
_cell_volume 3555.631565
_symmetry_space_group_name_H-M "I M A 2"
_symmetry_group_IT_number 46
_symmetry_cell_setting 'orthorhombic'
loop_
_space_group_symop_operation_xyz
x,y,z
-x,-y,z
1/2-x,y,z
1/2+x,-y,z
1/2+x,1/2+y,1/2+z
1/2-x,1/2-y,1/2+z
-x,1/2+y,1/2+z
x,1/2-y,1/2+z
loop_
_atom_site_type_symbol
_atom_site_label
_atom_site_fract_x
_atom_site_fract_y
_atom_site_fract_z
Si Si1 0.929004 0.159549 0.707080
Si Si2 0.571301 0.077609 0.332693
Si Si3 0.929424 0.850567 0.454944
Si Si4 0.428460 0.421353 0.089813
Si Si5 0.077481 0.291980 0.767825
Si Si6 0.920915 0.794436 0.900273
Si Si7 0.072800 0.577431 0.336890
O O1 0.750000 0.163022 0.702307
O O2 0.966128 0.110551 0.768259
O O3 0.000504 0.124002 0.646105
O O4 0.996566 0.238063 0.720329
O O5 0.750000 0.074703 0.331847
O O6 0.514521 0.106065 0.400655
O O7 0.509690 0.134965 0.282268
O O8 0.500000 0.000000 0.321952
O O9 0.750000 0.854704 0.442162
O O10 0.957720 0.883689 0.522881
O O11 0.971159 0.766384 0.449437
O O12 0.500000 0.500000 0.089785
O O13 0.250000 0.426508 0.098273
O O14 0.250000 0.304902 0.750727
O O15 0.077533 0.249349 0.834397
O O16 0.750000 0.815049 0.913701
O O17 0.017023 0.864824 0.888015
O O18 0.250000 0.571051 0.339825
O O19 0.000000 0.500000 0.344511
#
# Coordination Sequence:
#
# PCOD9378445 Si02
#       7
#     8   8   8   8   8   8   8
#     4  10  20  33  48  68  94 125 161 196 232 278
#     4  11  20  30  47  71  98 126 157 195 239 283
#     4   9  19  34  49  67  93 126 162 197 236 282
#     4  11  22  34  48  68  95 128 164 198 233 275
#     4   9  17  31  49  68  92 122 155 192 236 282
#     4   8  15  29  47  65  88 117 149 188 232 277
#     4  10  19  29  44  67  93 120 151 188 230 275
#
# _framework density 15.749663
#
# number of rings (size 3 to 8) (size 9 to 14) (size 15 to 20)
#    0.000    2.286    0.000    4.714    0.000    8.571 
#    0.000    0.000    0.000    0.000    0.000    1.000 
#    0.000    2.286    0.000    0.000    0.000    0.000 
#
# Total GULP energy -156161.877618 kJ/mol
# GULP energy per Si atom -5577.209915 kJ/mol
# Density = 1.571382 g / cm^3
# Si number density = 15.749663 Si / 1000 Ang^3
#
#
#
# Elastic Constant Matrix: (Units=GPa)
#
#
# Indices 1 2 3 4 5 6 
#
# 1 91.1170 82.5613 46.6165 0.0000 0.0000 0.0000
# 2 82.5613 163.4400 66.5132 0.0000 0.0000 0.0000
# 3 46.6165 66.5132 74.0610 0.0000 0.0000 0.0000
# 4 0.0000 0.0000 0.0000 25.7641 0.0000 0.0000
# 5 0.0000 0.0000 0.0000 0.0000 18.1832 0.0000
# 6 0.0000 0.0000 0.0000 0.0000 0.0000 29.6767
#
#
#
# Elastic Compliance Matrix: (Units=1/GPa)
#
#
# Indices 1 2 3 4 5 6 
#
# 1 0.021832 -0.008567 -0.006048 0.000000 0.000000 0.000000
# 2 -0.008567 0.013005 -0.006287 0.000000 0.000000 0.000000
# 3 -0.006048 -0.006287 0.022955 0.000000 0.000000 0.000000
# 4 0.000000 0.000000 0.000000 0.038814 0.000000 0.000000
# 5 0.000000 0.000000 0.000000 0.000000 0.054996 0.000000
# 6 0.000000 0.000000 0.000000 0.000000 0.000000 0.033696
#
#
# Mechanical properties :
#
#
# Convention : Reuss Voigt Hill
#
# Bulk Modulus (GPa) = 62.54591 80.00000 71.27295
# Shear Modulus (GPa) = 21.51191 23.58659 22.54925
#
# Velocity S-wave (km/s) = 3.69977 3.87407 3.78792
# Velocity P-wave (km/s) = 7.61904 8.42118 8.03013
#
# Compressibility (1/GPa) = 0.01598826
#
# Stress axis : x y z
#
# Youngs Moduli (GPa) = 45.80536 76.89621 43.56340
#
# Poissons Ratio (x) = 0.65877 0.26345
# Poissons Ratio (y) = 0.39242 0.27388
# Poissons Ratio (z) = 0.27701 0.48343
#
# Static dielectric constant tensor:
#      x y z
#    x 1.527060 0.000000 0.000000 
#    y 0.000000 1.524250 0.000000 
#    z 0.000000 0.000000 1.508720 
# 
# From -- ./inp_files/21215.got.cif
#   From: 2010.05.17/outbox.cif.g08.bks.cpg/sg46_11_cif.got.tgz:21215.got - 2010.06.03 19:58:25.
