data_PCOD9378289
_publ_section_title
;
Structure prediction by ZEFSAII (Michael W. Deem and Ramdas Pophale) SiO2 
 PCOD9378289
Probable space group: I M A 2
;
_chemical_formula_sum "Si O2"
_cell_formula_units_Z 64
_cell_length_a 8.685643
_cell_length_b 21.250667
_cell_length_c 20.125325
_cell_angle_alpha 90.000000
_cell_angle_beta 90.000000
_cell_angle_gamma 90.000000
_cell_volume 3714.646092
_symmetry_space_group_name_H-M "I M A 2"
_symmetry_group_IT_number 46
_symmetry_cell_setting 'orthorhombic'
loop_
_space_group_symop_operation_xyz
x,y,z
-x,-y,z
1/2-x,y,z
1/2+x,-y,z
1/2+x,1/2+y,1/2+z
1/2-x,1/2-y,1/2+z
-x,1/2+y,1/2+z
x,1/2-y,1/2+z
loop_
_atom_site_type_symbol
_atom_site_label
_atom_site_fract_x
_atom_site_fract_y
_atom_site_fract_z
Si Si1 0.566144 0.734403 0.608480
Si Si2 0.065087 0.119012 0.463235
Si Si3 0.565079 0.260175 0.467082
Si Si4 0.934646 0.883059 0.612706
Si Si5 0.934420 0.066422 0.328947
Si Si6 0.436131 0.688248 0.743971
Si Si7 0.066164 0.566637 0.247237
Si Si8 0.937178 0.311272 0.327368
O O1 0.750000 0.730200 0.604418
O O2 0.493528 0.715775 0.537994
O O3 0.526913 0.808585 0.619025
O O4 0.503286 0.695613 0.670567
O O5 0.250000 0.118886 0.459242
O O6 0.021546 0.097241 0.537771
O O7 0.005037 0.190603 0.456945
O O8 0.995151 0.079737 0.403190
O O9 0.750000 0.254723 0.467754
O O10 0.518322 0.302191 0.403991
O O11 0.750000 0.889356 0.619279
O O12 0.015400 0.919898 0.671647
O O13 0.750000 0.064525 0.330328
O O14 0.982349 0.125001 0.282547
O O15 0.000000 0.000000 0.305248
O O16 0.250000 0.689216 0.740510
O O17 0.486156 0.749476 0.786301
O O18 0.250000 0.564919 0.250321
O O19 0.009205 0.625246 0.291764
O O20 0.000000 0.500000 0.269340
O O21 0.750000 0.311779 0.325414
#
# Coordination Sequence:
#
# PCOD9378289 Si02
#       8
#     8   8   8   8   8   8   8   8
#     4  10  20  33  52  84 115 139 175 225 275 322
#     4  10  20  34  52  78 112 145 182 224 268 320
#     4  10  18  33  56  81 109 142 180 224 271 323
#     4   9  19  34  50  74 108 143 179 216 257 314
#     4  11  23  38  56  79 110 145 185 226 272 330
#     4  10  19  36  58  81 106 141 185 224 268 324
#     4  11  22  36  54  76 106 141 178 221 266 317
#     4   9  18  34  56  81 105 136 181 224 264 316
#
# _framework density 17.229096999999999
#
# number of rings (size 3 to 8) (size 9 to 14) (size 15 to 20)
#    0.000    2.000    2.500    2.625    0.000    4.000 
#    0.000    2.500    0.000    0.750    0.000    1.750 
#    0.000    0.000    0.000    0.000    0.000    0.000 
#
# Total GULP energy -178629.300068 kJ/mol
# GULP energy per Si atom -5582.165627 kJ/mol
# Density = 1.718988 g / cm^3
# Si number density = 17.229097 Si / 1000 Ang^3
#
#
#
# Elastic Constant Matrix: (Units=GPa)
#
#
# Indices 1 2 3 4 5 6 
#
# 1 31.6265 29.8643 27.5465 0.0000 0.0000 0.0000
# 2 29.8643 118.3378 69.1879 0.0000 0.0000 0.0000
# 3 27.5465 69.1879 123.5483 0.0000 0.0000 0.0000
# 4 0.0000 0.0000 0.0000 20.4791 0.0000 0.0000
# 5 0.0000 0.0000 0.0000 0.0000 19.0108 0.0000
# 6 0.0000 0.0000 0.0000 0.0000 0.0000 25.2296
#
#
#
# Elastic Compliance Matrix: (Units=1/GPa)
#
#
# Indices 1 2 3 4 5 6 
#
# 1 0.043734 -0.007933 -0.005308 0.000000 0.000000 0.000000
# 2 -0.007933 0.014003 -0.006073 0.000000 0.000000 0.000000
# 3 -0.005308 -0.006073 0.012678 0.000000 0.000000 0.000000
# 4 0.000000 0.000000 0.000000 0.048830 0.000000 0.000000
# 5 0.000000 0.000000 0.000000 0.000000 0.052602 0.000000
# 6 0.000000 0.000000 0.000000 0.000000 0.000000 0.039636
#
#
# Mechanical properties :
#
#
# Convention : Reuss Voigt Hill
#
# Bulk Modulus (GPa) = 31.46014 58.52333 44.99173
# Shear Modulus (GPa) = 19.17853 22.73815 20.95834
#
# Velocity S-wave (km/s) = 3.34001 3.63678 3.49155
# Velocity P-wave (km/s) = 5.75966 7.18863 6.51345
#
# Compressibility (1/GPa) = 0.03178625
#
# Stress axis : x y z
#
# Youngs Moduli (GPa) = 22.86559 71.41236 78.87381
#
# Poissons Ratio (x) = 0.56654 0.41868
# Poissons Ratio (y) = 0.18140 0.47900
# Poissons Ratio (z) = 0.12138 0.43369
#
# Static dielectric constant tensor:
#      x y z
#    x 1.578770 0.000000 0.000000 
#    y 0.000000 1.579460 0.000000 
#    z 0.000000 0.000000 1.582770 
# 
# From -- ./inp_files/21305.got.cif
#   From: 2010.05.17/outbox.cif.g08.bks.cpg/sg46_11_cif.got.tgz:21305.got - 2010.06.03 19:58:25.
