data_PCOD9378609
_publ_section_title
;
Structure prediction by ZEFSAII (Michael W. Deem and Ramdas Pophale) SiO2 
 PCOD9378609
Probable space group: I M A 2
;
_chemical_formula_sum "Si O2"
_cell_formula_units_Z 64
_cell_length_a 8.421244
_cell_length_b 15.343916
_cell_length_c 28.177918
_cell_angle_alpha 90.000000
_cell_angle_beta 90.000000
_cell_angle_gamma 90.000000
_cell_volume 3641.005745
_symmetry_space_group_name_H-M "I M A 2"
_symmetry_group_IT_number 46
_symmetry_cell_setting 'orthorhombic'
loop_
_space_group_symop_operation_xyz
x,y,z
-x,-y,z
1/2-x,y,z
1/2+x,-y,z
1/2+x,1/2+y,1/2+z
1/2-x,1/2-y,1/2+z
-x,1/2+y,1/2+z
x,1/2-y,1/2+z
loop_
_atom_site_type_symbol
_atom_site_label
_atom_site_fract_x
_atom_site_fract_y
_atom_site_fract_z
Si Si1 0.558369 0.405075 0.346270
Si Si2 0.557703 0.221921 0.039550
Si Si3 0.941416 0.095338 0.955613
Si Si4 0.941589 0.404934 0.003563
Si Si5 0.938617 0.595684 0.620602
Si Si6 0.944029 0.222583 0.310566
Si Si7 0.940557 0.404217 0.727387
Si Si8 0.441596 0.595398 0.894217
O O1 0.500000 0.500000 0.330884
O O2 0.750000 0.406109 0.346325
O O3 0.506061 0.391070 0.401167
O O4 0.504318 0.322532 0.315557
O O5 0.750000 0.220788 0.040659
O O6 0.496412 0.169643 0.084767
O O7 0.506455 0.168886 0.992433
O O8 0.505776 0.322130 0.034295
O O9 0.750000 0.095424 0.955404
O O10 0.000000 0.000000 0.970904
O O11 0.750000 0.405971 0.003431
O O12 0.993918 0.390897 0.948673
O O13 0.000000 0.500000 0.018898
O O14 0.750000 0.592677 0.621480
O O15 0.000000 0.500000 0.605306
O O16 0.000843 0.611032 0.673913
O O17 0.750000 0.222703 0.310341
O O18 0.995530 0.169376 0.264258
O O19 0.994093 0.168802 0.357331
O O20 0.750000 0.405768 0.727165
O O21 0.000000 0.500000 0.742353
O O22 0.500000 0.500000 0.879061
O O23 0.250000 0.595613 0.894254
#
# Coordination Sequence:
#
# PCOD9378609 Si02
#       8
#     8   8   8   8   8   8   8   8
#     4   9  17  31  47  67  95 128 162 196 231 273
#     4  10  19  32  50  72  96 128 165 200 238 284
#     4   9  17  28  45  68  97 128 159 193 232 277
#     4   9  18  31  48  69  98 132 165 199 237 278
#     4  11  22  36  53  74  99 126 154 193 241 291
#     4   9  17  29  49  71  94 126 162 193 231 281
#     4  10  19  33  52  74  98 125 154 190 235 285
#     4   9  16  28  45  69  99 131 161 192 230 277
#
# _framework density 17.577562
#
# number of rings (size 3 to 8) (size 9 to 14) (size 15 to 20)
#    0.000    2.500    0.000    3.750    0.000    5.000 
#    0.000    2.500    0.000    6.750    0.000    1.750 
#    0.000    0.000    0.000    0.000    0.000    0.000 
#
# Total GULP energy -178511.966031 kJ/mol
# GULP energy per Si atom -5578.498938 kJ/mol
# Density = 1.753755 g / cm^3
# Si number density = 17.577562 Si / 1000 Ang^3
#
#
#
# Elastic Constant Matrix: (Units=GPa)
#
#
# Indices 1 2 3 4 5 6 
#
# 1 24.8485 28.6855 19.0661 0.0000 0.0000 0.0000
# 2 28.6855 187.3160 91.8707 0.0000 0.0000 0.0000
# 3 19.0661 91.8707 76.7538 0.0000 0.0000 0.0000
# 4 0.0000 0.0000 0.0000 30.8055 0.0000 0.0000
# 5 0.0000 0.0000 0.0000 0.0000 4.9532 0.0000
# 6 0.0000 0.0000 0.0000 0.0000 0.0000 26.4331
#
#
#
# Elastic Compliance Matrix: (Units=1/GPa)
#
#
# Indices 1 2 3 4 5 6 
#
# 1 0.050845 -0.003855 -0.008016 0.000000 0.000000 0.000000
# 2 -0.003855 0.013220 -0.014867 0.000000 0.000000 0.000000
# 3 -0.008016 -0.014867 0.032815 0.000000 0.000000 0.000000
# 4 0.000000 0.000000 0.000000 0.032462 0.000000 0.000000
# 5 0.000000 0.000000 0.000000 0.000000 0.201892 0.000000
# 6 0.000000 0.000000 0.000000 0.000000 0.000000 0.037831
#
#
# Mechanical properties :
#
#
# Convention : Reuss Voigt Hill
#
# Bulk Modulus (GPa) = 23.03908 63.12920 43.08414
# Shear Modulus (GPa) = 11.44146 22.39141 16.91644
#
# Velocity S-wave (km/s) = 2.55407 3.57299 3.10560
# Velocity P-wave (km/s) = 4.67260 7.28109 6.11750
#
# Compressibility (1/GPa) = 0.04340450
#
# Stress axis : x y z
#
# Youngs Moduli (GPa) = 19.66775 75.64121 30.47431
#
# Poissons Ratio (x) = 0.29157 0.24429
# Poissons Ratio (y) = 0.07581 0.45305
# Poissons Ratio (z) = 0.15766 1.12452
#
# Static dielectric constant tensor:
#      x y z
#    x 1.613680 0.000000 0.000000 
#    y 0.000000 1.598750 0.000000 
#    z 0.000000 0.000000 1.590460 
# 
# From -- ./inp_files/25288.got.cif
#   From: 2010.05.17/outbox.cif.g08.bks.cpg/sg46_13_cif.got.tgz:25288.got - 2010.06.03 19:58:25.
