data_PCOD9378684
_publ_section_title
;
Structure prediction by ZEFSAII (Michael W. Deem and Ramdas Pophale) SiO2 
 PCOD9378684
Probable space group: I M A 2
;
_chemical_formula_sum "Si O2"
_cell_formula_units_Z 64
_cell_length_a 14.827530
_cell_length_b 13.373465
_cell_length_c 18.926869
_cell_angle_alpha 90.000000
_cell_angle_beta 90.000000
_cell_angle_gamma 90.000000
_cell_volume 3753.112072
_symmetry_space_group_name_H-M "I M A 2"
_symmetry_group_IT_number 46
_symmetry_cell_setting 'orthorhombic'
loop_
_space_group_symop_operation_xyz
x,y,z
-x,-y,z
1/2-x,y,z
1/2+x,-y,z
1/2+x,1/2+y,1/2+z
1/2-x,1/2-y,1/2+z
-x,1/2+y,1/2+z
x,1/2-y,1/2+z
loop_
_atom_site_type_symbol
_atom_site_label
_atom_site_fract_x
_atom_site_fract_y
_atom_site_fract_z
Si Si1 0.471036 0.231546 0.657080
Si Si2 0.347538 0.889157 0.679096
Si Si3 0.027863 0.350340 0.517989
Si Si4 0.647458 0.684918 0.944387
Si Si5 0.146144 0.540785 0.473803
Si Si6 0.646069 0.749511 0.791504
Si Si7 0.107413 0.482870 0.316949
Si Si8 0.402177 0.046012 0.565859
O O1 0.568224 0.185371 0.675919
O O2 0.477233 0.317447 0.598965
O O3 0.419989 0.267681 0.726502
O O4 0.416638 0.139895 0.619372
O O5 0.250000 0.839003 0.681787
O O6 0.358347 0.960371 0.747469
O O7 0.352640 0.960835 0.610537
O O8 0.073397 0.260215 0.475086
O O9 0.095315 0.443320 0.505639
O O10 0.926803 0.373626 0.491653
O O11 0.750000 0.725427 0.952766
O O12 0.631972 0.680494 0.860422
O O13 0.640272 0.587252 0.993712
O O14 0.250000 0.552901 0.497681
O O15 0.146281 0.525987 0.389380
O O16 0.750000 0.739651 0.769056
O O17 0.629779 0.865370 0.813693
O O18 0.000000 0.500000 0.319172
O O19 0.500000 0.000000 0.549651
#
# Coordination Sequence:
#
# PCOD9378684 Si02
#       8
#     8   8   8   8   8   8   8   8
#     4  10  21  34  49  74 106 134 173 211 259 307
#     4  11  20  31  51  78 108 141 169 205 255 310
#     4  10  21  35  51  76 106 138 173 216 263 310
#     4  10  19  32  53  79 107 140 177 215 262 312
#     4  11  21  35  56  78 104 138 174 214 263 318
#     4  11  20  31  50  77 105 132 166 213 258 303
#     4  12  18  32  51  79 112 136 164 204 259 319
#     4   9  18  33  50  75 106 139 176 214 258 307
#
# _framework density 17.052516000000001
#
# number of rings (size 3 to 8) (size 9 to 14) (size 15 to 20)
#    0.000    1.500    5.000    2.250    0.000    3.000 
#    0.000    0.000    2.750    0.000    0.000    0.000 
#    0.000    0.000    0.000    0.000    0.000    0.000 
#
# Total GULP energy -178454.117121 kJ/mol
# GULP energy per Si atom -5576.691160 kJ/mol
# Density = 1.701370 g / cm^3
# Si number density = 17.052516 Si / 1000 Ang^3
#
#
#
# Elastic Constant Matrix: (Units=GPa)
#
#
# Indices 1 2 3 4 5 6 
#
# 1 132.2939 21.7377 59.0411 0.0000 0.0000 0.0000
# 2 21.7377 29.2845 38.3427 0.0000 0.0000 0.0000
# 3 59.0411 38.3427 135.4712 0.0000 0.0000 0.0000
# 4 0.0000 0.0000 0.0000 24.3547 0.0000 0.0000
# 5 0.0000 0.0000 0.0000 0.0000 -17.9671 0.0000
# 6 0.0000 0.0000 0.0000 0.0000 0.0000 8.0181
#
#
#
# Elastic Compliance Matrix: (Units=1/GPa)
#
#
# Indices 1 2 3 4 5 6 
#
# 1 0.009506 -0.002593 -0.003409 0.000000 0.000000 0.000000
# 2 -0.002593 0.054960 -0.014425 0.000000 0.000000 0.000000
# 3 -0.003409 -0.014425 0.012950 0.000000 0.000000 0.000000
# 4 0.000000 0.000000 0.000000 0.041060 0.000000 0.000000
# 5 0.000000 0.000000 0.000000 0.000000 -0.055657 0.000000
# 6 0.000000 0.000000 0.000000 0.000000 0.000000 0.124718
#
#
# Mechanical properties :
#
#
# Convention : Reuss Voigt Hill
#
# Bulk Modulus (GPa) = 27.35102 59.47693 43.41397
# Shear Modulus (GPa) = 20.78313 14.74300 17.76306
#
# Velocity S-wave (km/s) = 3.49488 2.94354 3.23099
# Velocity P-wave (km/s) = 5.68856 6.81960 6.27959
#
# Compressibility (1/GPa) = 0.03656171
#
# Stress axis : x y z
#
# Youngs Moduli (GPa) = 105.19149 18.19512 77.21814
#
# Poissons Ratio (x) = 0.04718 0.26326
# Poissons Ratio (y) = 0.27274 1.11390
# Poissons Ratio (z) = 0.35863 0.26247
#
# Static dielectric constant tensor:
#      x y z
#    x 1.599260 0.000000 0.000000 
#    y 0.000000 1.570190 0.000000 
#    z 0.000000 0.000000 1.582090 
# 
# From -- ./inp_files/19723.got.cif
#   From: 2010.05.17/outbox.cif.g08.bks.cpg/sg46_10_cif.got.tgz:19723.got - 2010.06.03 19:58:25.
