data_PCOD9378382
_publ_section_title
;
Structure prediction by ZEFSAII (Michael W. Deem and Ramdas Pophale) SiO2 
 PCOD9378382
Probable space group: I M A 2
;
_chemical_formula_sum "Si O2"
_cell_formula_units_Z 64
_cell_length_a 22.517333
_cell_length_b 9.478194
_cell_length_c 13.607406
_cell_angle_alpha 90.000000
_cell_angle_beta 90.000000
_cell_angle_gamma 90.000000
_cell_volume 2904.142263
_symmetry_space_group_name_H-M "I M A 2"
_symmetry_group_IT_number 46
_symmetry_cell_setting 'orthorhombic'
loop_
_space_group_symop_operation_xyz
x,y,z
-x,-y,z
1/2-x,y,z
1/2+x,-y,z
1/2+x,1/2+y,1/2+z
1/2-x,1/2-y,1/2+z
-x,1/2+y,1/2+z
x,1/2-y,1/2+z
loop_
_atom_site_type_symbol
_atom_site_label
_atom_site_fract_x
_atom_site_fract_y
_atom_site_fract_z
Si Si1 0.318638 0.422180 0.549430
Si Si2 0.683261 0.451730 0.930458
Si Si3 0.886488 0.522354 0.745189
Si Si4 0.057278 0.328558 0.256548
Si Si5 0.816307 0.129619 0.867759
Si Si6 0.567207 0.278146 0.294406
Si Si7 0.984099 0.849854 0.962658
Si Si8 0.109523 0.354627 0.057610
O O1 0.250000 0.432235 0.578956
O O2 0.360718 0.479497 0.635679
O O3 0.325162 0.509851 0.449358
O O4 0.338806 0.260569 0.539281
O O5 0.750000 0.492537 0.961146
O O6 0.667474 0.514769 0.823145
O O7 0.682300 0.282777 0.920757
O O8 0.630867 0.510049 0.998706
O O9 0.923928 0.663929 0.763155
O O10 0.924004 0.383144 0.765672
O O11 0.012789 0.660598 0.231595
O O12 0.057885 0.386812 0.367631
O O13 0.098595 0.385688 0.171489
O O14 0.750000 0.112254 0.824649
O O15 0.869950 0.144529 0.791528
O O16 0.541531 0.289193 0.406055
O O17 0.949249 0.731037 0.022164
O O18 0.000000 0.000000 0.012197
#
# Coordination Sequence:
#
# PCOD9378382 Si02
#       8
#     8   8   8   8   8   8   8   8
#     4  10  21  36  58  88 118 151 198 245 291 353
#     4  10  19  35  60  87 119 158 195 241 299 351
#     4  10  18  36  57  84 112 152 198 246 288 345
#     4   9  21  35  54  83 116 148 196 245 288 349
#     4   9  19  36  58  86 116 152 193 238 292 355
#     4   9  19  34  55  79 112 146 185 233 284 348
#     4  10  21  38  56  82 123 155 192 243 300 353
#     4  11  21  37  62  86 117 156 201 247 297 350
#
# _framework density 22.037486000000001
#
# number of rings (size 3 to 8) (size 9 to 14) (size 15 to 20)
#    0.750    1.500    1.250    1.875    0.000    3.500 
#    2.250    1.250    0.000    0.000    0.000    0.000 
#    0.000    0.000    0.000    0.000    0.000    0.000 
#
# Total GULP energy -178545.446983 kJ/mol
# GULP energy per Si atom -5579.545218 kJ/mol
# Density = 2.198733 g / cm^3
# Si number density = 22.037486 Si / 1000 Ang^3
#
#
#
# Elastic Constant Matrix: (Units=GPa)
#
#
# Indices 1 2 3 4 5 6 
#
# 1 110.1535 44.3480 6.2119 0.0000 0.0000 0.0000
# 2 44.3480 83.0029 13.9525 0.0000 0.0000 0.0000
# 3 6.2119 13.9525 20.5916 0.0000 0.0000 0.0000
# 4 0.0000 0.0000 0.0000 3.2305 0.0000 0.0000
# 5 0.0000 0.0000 0.0000 0.0000 23.9066 0.0000
# 6 0.0000 0.0000 0.0000 0.0000 0.0000 28.8989
#
#
#
# Elastic Compliance Matrix: (Units=1/GPa)
#
#
# Indices 1 2 3 4 5 6 
#
# 1 0.011578 -0.006318 0.000789 0.000000 0.000000 0.000000
# 2 -0.006318 0.017045 -0.009643 0.000000 0.000000 0.000000
# 3 0.000789 -0.009643 0.054860 0.000000 0.000000 0.000000
# 4 0.000000 0.000000 0.000000 0.309547 0.000000 0.000000
# 5 0.000000 0.000000 0.000000 0.000000 0.041829 0.000000
# 6 0.000000 0.000000 0.000000 0.000000 0.000000 0.034603
#
#
# Mechanical properties :
#
#
# Convention : Reuss Voigt Hill
#
# Bulk Modulus (GPa) = 18.81959 38.08587 28.45273
# Shear Modulus (GPa) = 9.66147 21.15626 15.40887
#
# Velocity S-wave (km/s) = 2.09610 3.10177 2.64713
# Velocity P-wave (km/s) = 3.79691 5.49070 4.72040
#
# Compressibility (1/GPa) = 0.05313612
#
# Stress axis : x y z
#
# Youngs Moduli (GPa) = 86.37397 58.66956 18.22834
#
# Poissons Ratio (x) = 0.37070 -0.01437
# Poissons Ratio (y) = 0.54574 0.17578
# Poissons Ratio (z) = -0.06811 0.56575
#
# Static dielectric constant tensor:
#      x y z
#    x 1.838590 0.000000 0.000000 
#    y 0.000000 1.832860 0.000000 
#    z 0.000000 0.000000 1.788480 
# 
# From -- ./inp_files/17434.got.cif
#   From: 2010.05.17/outbox.cif.g08.bks.cpg/sg46_9_cif.got.tgz:17434.got - 2010.06.03 19:58:25.
