data_PCOD9378808
_publ_section_title
;
Structure prediction by ZEFSAII (Michael W. Deem and Ramdas Pophale) SiO2 
 PCOD9378808
Probable space group: I M A 2
;
_chemical_formula_sum "Si O2"
_cell_formula_units_Z 64
_cell_length_a 8.496991
_cell_length_b 25.614399
_cell_length_c 15.539841
_cell_angle_alpha 90.000000
_cell_angle_beta 90.000000
_cell_angle_gamma 90.000000
_cell_volume 3382.173633
_symmetry_space_group_name_H-M "I M A 2"
_symmetry_group_IT_number 46
_symmetry_cell_setting 'orthorhombic'
loop_
_space_group_symop_operation_xyz
x,y,z
-x,-y,z
1/2-x,y,z
1/2+x,-y,z
1/2+x,1/2+y,1/2+z
1/2-x,1/2-y,1/2+z
-x,1/2+y,1/2+z
x,1/2-y,1/2+z
loop_
_atom_site_type_symbol
_atom_site_label
_atom_site_fract_x
_atom_site_fract_y
_atom_site_fract_z
Si Si1 0.939794 0.149972 0.274630
Si Si2 0.562882 0.634778 0.147708
Si Si3 0.562033 0.441256 0.294209
Si Si4 0.060542 0.164278 0.464696
Si Si5 0.940264 0.390910 0.474766
Si Si6 0.438241 0.217955 0.934279
Si Si7 0.937635 0.233117 0.743731
Si Si8 0.439870 0.557085 0.651131
O O1 0.750000 0.150639 0.273926
O O2 0.990264 0.206555 0.237800
O O3 0.994739 0.101960 0.216681
O O4 0.994552 0.146309 0.373177
O O5 0.750000 0.627299 0.149051
O O6 0.488378 0.593644 0.213196
O O7 0.523198 0.692602 0.182129
O O8 0.506469 0.632994 0.048819
O O9 0.500000 0.500000 0.287839
O O10 0.750000 0.442527 0.297851
O O11 0.505554 0.414488 0.383386
O O12 0.250000 0.161232 0.461097
O O13 0.019832 0.225835 0.474098
O O14 0.750000 0.388144 0.473859
O O15 0.989173 0.426744 0.554666
O O16 0.005587 0.332578 0.485453
O O17 0.250000 0.216245 0.922226
O O18 0.521997 0.216258 0.841342
O O19 0.750000 0.229794 0.730326
O O20 0.500000 0.500000 0.673654
O O21 0.250000 0.556743 0.652777
#
# Coordination Sequence:
#
# PCOD9378808 Si02
#       8
#     8   8   8   8   8   8   8   8
#     4   9  20  38  59  83 113 149 193 240 289 343
#     4  11  22  37  57  84 119 154 192 239 286 341
#     4  11  23  39  59  84 115 154 198 237 286 343
#     4   9  21  38  56  83 118 152 190 237 288 341
#     4  10  21  36  56  83 118 153 189 233 281 343
#     4  10  19  33  54  82 116 153 190 228 279 339
#     4  10  19  33  54  83 115 150 189 230 282 341
#     4  10  22  40  59  84 114 149 194 242 289 340
#
# _framework density 18.922743000000001
#
# number of rings (size 3 to 8) (size 9 to 14) (size 15 to 20)
#    0.000    2.000    1.250    1.875    1.750    3.500 
#    0.000    0.625    0.000    1.500    0.000    0.000 
#    0.000    0.000    0.000    0.000    0.000    0.000 
#
# Total GULP energy -178694.077129 kJ/mol
# GULP energy per Si atom -5584.189910 kJ/mol
# Density = 1.887967 g / cm^3
# Si number density = 18.922743 Si / 1000 Ang^3
#
#
#
# Elastic Constant Matrix: (Units=GPa)
#
#
# Indices 1 2 3 4 5 6 
#
# 1 15.8147 16.8028 14.0007 0.0000 0.0000 0.0000
# 2 16.8028 124.7021 66.4047 0.0000 0.0000 0.0000
# 3 14.0007 66.4047 98.7808 0.0000 0.0000 0.0000
# 4 0.0000 0.0000 0.0000 27.5450 0.0000 0.0000
# 5 0.0000 0.0000 0.0000 0.0000 22.2624 0.0000
# 6 0.0000 0.0000 0.0000 0.0000 0.0000 30.7679
#
#
#
# Elastic Compliance Matrix: (Units=1/GPa)
#
#
# Indices 1 2 3 4 5 6 
#
# 1 0.076057 -0.007021 -0.006060 0.000000 0.000000 0.000000
# 2 -0.007021 0.013138 -0.007837 0.000000 0.000000 0.000000
# 3 -0.006060 -0.007837 0.016251 0.000000 0.000000 0.000000
# 4 0.000000 0.000000 0.000000 0.036304 0.000000 0.000000
# 5 0.000000 0.000000 0.000000 0.000000 0.044919 0.000000
# 6 0.000000 0.000000 0.000000 0.000000 0.000000 0.032501
#
#
# Mechanical properties :
#
#
# Convention : Reuss Voigt Hill
#
# Bulk Modulus (GPa) = 15.72082 48.19044 31.95563
# Shear Modulus (GPa) = 17.71724 25.58768 21.65246
#
# Velocity S-wave (km/s) = 3.06321 3.68124 3.38635
# Velocity P-wave (km/s) = 4.56475 6.60234 5.67573
#
# Compressibility (1/GPa) = 0.06360991
#
# Stress axis : x y z
#
# Youngs Moduli (GPa) = 13.14798 76.11225 61.53558
#
# Poissons Ratio (x) = 0.53440 0.37290
# Poissons Ratio (y) = 0.09232 0.48226
# Poissons Ratio (z) = 0.07968 0.59650
#
# Static dielectric constant tensor:
#      x y z
#    x 1.651850 0.000000 0.000000 
#    y 0.000000 1.639030 0.000000 
#    z 0.000000 0.000000 1.662030 
# 
# From -- ./inp_files/14512.got.cif
#   From: 2010.05.17/outbox.cif.g08.bks.cpg/sg46_8_cif.got.tgz:14512.got - 2010.06.03 19:58:25.
