data_PCOD9378264
_publ_section_title
;
Structure prediction by ZEFSAII (Michael W. Deem and Ramdas Pophale) SiO2 
 PCOD9378264
Probable space group: I M A 2
;
_chemical_formula_sum "Si O2"
_cell_formula_units_Z 64
_cell_length_a 7.819320
_cell_length_b 31.880822
_cell_length_c 12.340937
_cell_angle_alpha 90.000000
_cell_angle_beta 90.000000
_cell_angle_gamma 90.000000
_cell_volume 3076.427129
_symmetry_space_group_name_H-M "I M A 2"
_symmetry_group_IT_number 46
_symmetry_cell_setting 'orthorhombic'
loop_
_space_group_symop_operation_xyz
x,y,z
-x,-y,z
1/2-x,y,z
1/2+x,-y,z
1/2+x,1/2+y,1/2+z
1/2-x,1/2-y,1/2+z
-x,1/2+y,1/2+z
x,1/2-y,1/2+z
loop_
_atom_site_type_symbol
_atom_site_label
_atom_site_fract_x
_atom_site_fract_y
_atom_site_fract_z
Si Si1 0.960511 0.373748 0.634940
Si Si2 0.551739 0.046254 0.266812
Si Si3 0.546247 0.954051 0.745330
Si Si4 0.957596 0.162565 0.508192
Si Si5 0.545778 0.373618 0.387666
Si Si6 0.051541 0.434083 0.007928
Si Si7 0.540775 0.298052 0.236634
Si Si8 0.541285 0.203726 0.281939
O O1 0.750000 0.373682 0.635932
O O2 0.024968 0.413683 0.704397
O O3 0.018248 0.376304 0.510651
O O4 0.012758 0.330609 0.693347
O O5 0.750000 0.049409 0.244958
O O6 0.526435 0.050167 0.395838
O O7 0.500000 0.000000 0.230298
O O8 0.750000 0.950523 0.738462
O O9 0.486023 0.915717 0.819273
O O10 0.476043 0.949929 0.622073
O O11 0.500000 0.000000 0.788408
O O12 0.750000 0.158288 0.506973
O O13 0.007176 0.186910 0.616687
O O14 0.009046 0.186899 0.399974
O O15 0.032635 0.116068 0.509391
O O16 0.750000 0.368484 0.394898
O O17 0.480417 0.333118 0.321926
O O18 0.250000 0.446212 0.003957
O O19 0.750000 0.297782 0.240005
O O20 0.482401 0.250966 0.260693
O O21 0.750000 0.204556 0.280234
#
# Coordination Sequence:
#
# PCOD9378264 Si02
#       8
#     8   8   8   8   8   8   8   8
#     4   9  19  34  54  81 115 149 185 232 281 327
#     4  11  22  38  58  84 113 147 186 231 284 338
#     4  11  24  40  59  83 111 145 183 230 282 335
#     4  10  18  32  56  84 114 151 188 232 285 335
#     4  10  20  36  57  83 114 148 187 231 276 331
#     4  11  22  37  58  85 115 148 185 232 283 334
#     4   9  18  29  51  86 116 146 186 231 279 327
#     4   9  17  30  51  84 118 145 182 235 281 325
#
# _framework density 20.803353000000001
#
# number of rings (size 3 to 8) (size 9 to 14) (size 15 to 20)
#    0.000    2.000    2.500    1.500    1.750    3.000 
#    0.000    2.500    0.000    1.500    0.000    0.000 
#    0.000    0.000    0.000    0.000    0.000    0.000 
#
# Total GULP energy -178743.170822 kJ/mol
# GULP energy per Si atom -5585.724088 kJ/mol
# Density = 2.075600 g / cm^3
# Si number density = 20.803353 Si / 1000 Ang^3
#
#
#
# Elastic Constant Matrix: (Units=GPa)
#
#
# Indices 1 2 3 4 5 6 
#
# 1 20.4097 -2.3723 2.0093 0.0000 0.0000 0.0000
# 2 -2.3723 193.8077 89.4783 0.0001 0.0000 0.0000
# 3 2.0093 89.4783 151.8265 0.0001 0.0000 0.0000
# 4 0.0000 0.0001 0.0001 26.9216 0.0002 -0.0001
# 5 0.0000 0.0000 0.0000 0.0002 -12.2005 0.0000
# 6 0.0000 0.0000 0.0000 -0.0001 0.0000 19.4610
#
#
#
# Elastic Compliance Matrix: (Units=1/GPa)
#
#
# Indices 1 2 3 4 5 6 
#
# 1 0.049277 0.001242 -0.001384 0.000000 0.000000 0.000000
# 2 0.001242 0.007120 -0.004212 0.000000 0.000000 0.000000
# 3 -0.001384 -0.004212 0.009087 0.000000 0.000000 0.000000
# 4 0.000000 0.000000 0.000000 0.037145 0.000001 0.000000
# 5 0.000000 0.000000 0.000000 0.000001 -0.081964 0.000000
# 6 0.000000 0.000000 0.000000 0.000000 0.000000 0.051385
#
#
# Mechanical properties :
#
#
# Convention : Reuss Voigt Hill
#
# Bulk Modulus (GPa) = 17.61329 60.47496 39.04412
# Shear Modulus (GPa) = 50.15848 25.29833 37.72840
#
# Velocity S-wave (km/s) = 4.91560 3.49100 4.26323
# Velocity P-wave (km/s) = 6.37984 6.73665 6.56067
#
# Compressibility (1/GPa) = 0.05677530
#
# Stress axis : x y z
#
# Youngs Moduli (GPa) = 20.29343 140.45350 110.04271
#
# Poissons Ratio (x) = -0.17448 0.15233
# Poissons Ratio (y) = -0.02521 0.46355
# Poissons Ratio (z) = 0.02809 0.59165
#
# Static dielectric constant tensor:
#      x y z
#    x 1.777020 0.000000 0.000000 
#    y 0.000000 1.732330 0.000000 
#    z 0.000000 0.000000 1.727920 
# 
# From -- ./inp_files/9763.got.cif
#   From: 2010.05.17/outbox.cif.g08.bks.cpg/sg46_5_cif.got.tgz:9763.got - 2010.06.03 19:58:25.
