data_PCOD9378330
_publ_section_title
;
Structure prediction by ZEFSAII (Michael W. Deem and Ramdas Pophale) SiO2 
 PCOD9378330
Probable space group: I M A 2
;
_chemical_formula_sum "Si O2"
_cell_formula_units_Z 48
_cell_length_a 17.142302
_cell_length_b 14.442622
_cell_length_c 8.092638
_cell_angle_alpha 90.000000
_cell_angle_beta 90.000000
_cell_angle_gamma 90.000000
_cell_volume 2003.573600
_symmetry_space_group_name_H-M "I M A 2"
_symmetry_group_IT_number 46
_symmetry_cell_setting 'orthorhombic'
loop_
_space_group_symop_operation_xyz
x,y,z
-x,-y,z
1/2-x,y,z
1/2+x,-y,z
1/2+x,1/2+y,1/2+z
1/2-x,1/2-y,1/2+z
-x,1/2+y,1/2+z
x,1/2-y,1/2+z
loop_
_atom_site_type_symbol
_atom_site_label
_atom_site_fract_x
_atom_site_fract_y
_atom_site_fract_z
Si Si1 0.842382 0.378262 0.855510
Si Si2 0.841401 0.614496 0.218422
Si Si3 0.911909 0.464182 0.397493
Si Si4 0.659033 0.562440 0.710957
Si Si5 0.405300 0.229789 0.030872
Si Si6 0.585385 0.272920 0.546226
O O1 0.750000 0.374346 0.819503
O O2 0.863004 0.487196 0.849667
O O3 0.890952 0.326297 0.712257
O O4 0.861491 0.315610 0.012576
O O5 0.750000 0.603458 0.245333
O O6 0.883169 0.515827 0.233785
O O7 0.855707 0.677913 0.059656
O O8 0.879676 0.675053 0.367155
O O9 0.855957 0.503063 0.542724
O O10 0.907812 0.354109 0.407213
O O11 0.000000 0.500000 0.433509
O O12 0.750000 0.587037 0.724686
O O13 0.610704 0.654815 0.677080
O O14 0.495409 0.255413 0.040423
#
# Coordination Sequence:
#
# PCOD9378330 Si02
#       6
#     8   8   8   8   8   8
#     4  10  22  37  59  88 122 160 203 248 300 360
#     4  11  22  37  61  91 124 159 198 248 306 363
#     4  10  18  34  57  86 115 154 201 244 285 356
#     4   9  18  35  59  86 117 155 199 242 295 359
#     4  11  21  38  62  90 119 156 204 253 302 357
#     4  11  21  37  61  88 118 159 205 253 299 351
#
# _framework density 23.957193
#
# number of rings (size 3 to 8) (size 9 to 14) (size 15 to 20)
#    0.000    1.667    3.333    4.500    0.000    2.000 
#    0.000    1.667    0.000    4.000    0.000    0.000 
#    0.000    0.000    0.000    0.000    0.000    0.000 
#
# Total GULP energy -134207.453903 kJ/mol
# GULP energy per Si atom -5591.977246 kJ/mol
# Density = 2.390267 g / cm^3
# Si number density = 23.957193 Si / 1000 Ang^3
#
#
#
# Elastic Constant Matrix: (Units=GPa)
#
#
# Indices 1 2 3 4 5 6 
#
# 1 95.1192 7.3961 -3.0421 0.0000 0.0000 0.0000
# 2 7.3961 120.2889 2.8184 0.0000 0.0000 0.0000
# 3 -3.0421 2.8184 54.8355 0.0000 0.0000 0.0000
# 4 0.0000 0.0000 0.0000 33.0390 0.0000 0.0000
# 5 0.0000 0.0000 0.0000 0.0000 15.9764 0.0000
# 6 0.0000 0.0000 0.0000 0.0000 0.0000 -1.3087
#
#
#
# Elastic Compliance Matrix: (Units=1/GPa)
#
#
# Indices 1 2 3 4 5 6 
#
# 1 0.010585 -0.000665 0.000621 0.000000 0.000000 0.000000
# 2 -0.000665 0.008365 -0.000467 0.000000 0.000000 0.000000
# 3 0.000621 -0.000467 0.018295 0.000000 0.000000 0.000000
# 4 0.000000 0.000000 0.000000 0.030267 0.000000 0.000000
# 5 0.000000 0.000000 0.000000 0.000000 0.062592 0.000000
# 6 0.000000 0.000000 0.000000 0.000000 0.000000 -0.764131
#
#
# Mechanical properties :
#
#
# Convention : Reuss Voigt Hill
#
# Bulk Modulus (GPa) = 27.60671 31.62094 29.61383
# Shear Modulus (GPa) = -8.05243 27.07943 9.51350
#
# Velocity S-wave (km/s) = -1.83534 3.36568 1.99491
# Velocity P-wave (km/s) = 2.65652 5.32272 4.20645
#
# Compressibility (1/GPa) = 0.03622307
#
# Stress axis : x y z
#
# Youngs Moduli (GPa) = 94.47564 119.54330 54.66022
#
# Poissons Ratio (x) = 0.07954 -0.03397
# Poissons Ratio (y) = 0.06286 0.02552
# Poissons Ratio (z) = -0.05871 0.05581
#
# Static dielectric constant tensor:
#      x y z
#    x 1.790000 0.000000 0.000000 
#    y 0.000000 1.929650 0.000000 
#    z 0.000000 0.000000 2.044750 
# 
# From -- ./inp_files/11077.got.cif
#   From: 2010.05.17/outbox.cif.g08.bks.cpg/sg46_6_cif.got.tgz:11077.got - 2010.06.03 19:58:25.
