data_PCOD9378671
_publ_section_title
;
Structure prediction by ZEFSAII (Michael W. Deem and Ramdas Pophale) SiO2 
 PCOD9378671
Probable space group: I M A 2
;
_chemical_formula_sum "Si O2"
_cell_formula_units_Z 64
_cell_length_a 14.245984
_cell_length_b 11.014214
_cell_length_c 14.830731
_cell_angle_alpha 90.000000
_cell_angle_beta 90.000000
_cell_angle_gamma 90.000000
_cell_volume 2327.065032
_symmetry_space_group_name_H-M "I M A 2"
_symmetry_group_IT_number 46
_symmetry_cell_setting 'orthorhombic'
loop_
_space_group_symop_operation_xyz
x,y,z
-x,-y,z
1/2-x,y,z
1/2+x,-y,z
1/2+x,1/2+y,1/2+z
1/2-x,1/2-y,1/2+z
-x,1/2+y,1/2+z
x,1/2-y,1/2+z
loop_
_atom_site_type_symbol
_atom_site_label
_atom_site_fract_x
_atom_site_fract_y
_atom_site_fract_z
Si Si1 0.635092 0.207740 0.861200
Si Si2 0.855530 0.796726 0.030360
Si Si3 0.899869 0.561919 0.818481
Si Si4 0.138841 0.691324 0.156536
Si Si5 0.610251 0.036004 0.138504
Si Si6 0.860963 0.069764 0.484332
Si Si7 0.636156 0.693986 0.208933
Si Si8 0.864516 0.943181 0.872980
O O1 0.750000 0.212362 0.860009
O O2 0.599711 0.205043 0.757647
O O3 0.603067 0.320989 0.920341
O O4 0.607594 0.077300 0.901333
O O5 0.750000 0.750986 0.013487
O O6 0.901211 0.714688 0.108212
O O7 0.847107 0.929660 0.078395
O O8 0.901506 0.836469 0.937055
O O9 0.851203 0.478833 0.741098
O O10 0.870410 0.549813 0.922533
O O11 0.890827 0.691612 0.771627
O O12 0.000000 0.500000 0.820300
O O13 0.250000 0.667409 0.169660
O O14 0.127341 0.825290 0.112205
O O15 0.102555 0.591547 0.085168
O O16 0.500000 0.000000 0.137428
O O17 0.750000 0.087390 0.493162
O O18 0.750000 0.695664 0.200583
O O19 0.610810 0.578966 0.268818
O O20 0.750000 0.936385 0.877658
#
# Coordination Sequence:
#
# PCOD9378671 Si02
#       8
#     8   8   8   8   8   8   8   8
#     4   9  17  30  51  79 109 137 166 220 279 322
#     4   9  17  31  53  76  98 136 181 221 265 312
#     4  10  20  35  54  76 106 144 179 223 277 328
#     4  10  19  32  53  83 113 144 182 231 284 332
#     4  10  19  32  52  79 108 142 181 223 270 323
#     4  10  19  33  56  83 108 138 182 228 277 335
#     4   9  18  33  54  78 104 137 181 229 270 321
#     4   9  17  32  52  78 108 136 174 220 272 327
#
# _framework density 27.502455000000001
#
# number of rings (size 3 to 8) (size 9 to 14) (size 15 to 20)
#    0.000    2.500    1.250    1.500    0.000    3.000 
#    4.500    0.000    0.000    0.000    0.000    0.000 
#    0.000    0.000    0.000    0.000    0.000    0.000 
#
# Total GULP energy -178911.555280 kJ/mol
# GULP energy per Si atom -5590.986103 kJ/mol
# Density = 2.743986 g / cm^3
# Si number density = 27.502455 Si / 1000 Ang^3
#
#
#
# Elastic Constant Matrix: (Units=GPa)
#
#
# Indices 1 2 3 4 5 6 
#
# 1 94.6994 4.2750 13.2081 0.0000 0.0000 0.0000
# 2 4.2750 78.9327 10.7659 0.0000 0.0000 0.0000
# 3 13.2081 10.7659 148.6642 0.0000 0.0000 0.0000
# 4 0.0000 0.0000 0.0000 34.0704 0.0000 0.0000
# 5 0.0000 0.0000 0.0000 0.0000 2.1255 0.0000
# 6 0.0000 0.0000 0.0000 0.0000 0.0000 19.6425
#
#
#
# Elastic Compliance Matrix: (Units=1/GPa)
#
#
# Indices 1 2 3 4 5 6 
#
# 1 0.010708 -0.000455 -0.000918 0.000000 0.000000 0.000000
# 2 -0.000455 0.012815 -0.000888 0.000000 0.000000 0.000000
# 3 -0.000918 -0.000888 0.006872 0.000000 0.000000 0.000000
# 4 0.000000 0.000000 0.000000 0.029351 0.000000 0.000000
# 5 0.000000 0.000000 0.000000 0.000000 0.470473 0.000000
# 6 0.000000 0.000000 0.000000 0.000000 0.000000 0.050910
#
#
# Mechanical properties :
#
#
# Convention : Reuss Voigt Hill
#
# Bulk Modulus (GPa) = 38.64885 42.08825 40.36855
# Shear Modulus (GPa) = 8.41360 30.77086 19.59223
#
# Velocity S-wave (km/s) = 1.75096 3.34854 2.67194
# Velocity P-wave (km/s) = 4.26277 5.50336 4.92230
#
# Compressibility (1/GPa) = 0.02587399
#
# Stress axis : x y z
#
# Youngs Moduli (GPa) = 93.38505 78.03533 145.50851
#
# Poissons Ratio (x) = 0.03548 0.13364
# Poissons Ratio (y) = 0.04246 0.12916
# Poissons Ratio (z) = 0.08577 0.06927
#
# Static dielectric constant tensor:
#      x y z
#    x 2.123700 0.000000 0.000000 
#    y 0.000000 2.147460 0.000000 
#    z 0.000000 0.000000 2.220300 
# 
# From -- ./inp_files/16776.got.cif
#   From: 2010.05.17/outbox.cif.g08.bks.cpg/sg46_9_cif.got.tgz:16776.got - 2010.06.03 19:58:25.
