data_PCOD9378165
_publ_section_title
;
Structure prediction by ZEFSAII (Michael W. Deem and Ramdas Pophale) SiO2 
 PCOD9378165
Probable space group: I M A 2
;
_chemical_formula_sum "Si O2"
_cell_formula_units_Z 64
_cell_length_a 8.863074
_cell_length_b 30.807395
_cell_length_c 14.764592
_cell_angle_alpha 90.000000
_cell_angle_beta 90.000000
_cell_angle_gamma 90.000000
_cell_volume 4031.445589
_symmetry_space_group_name_H-M "I M A 2"
_symmetry_group_IT_number 46
_symmetry_cell_setting 'orthorhombic'
loop_
_space_group_symop_operation_xyz
x,y,z
-x,-y,z
1/2-x,y,z
1/2+x,-y,z
1/2+x,1/2+y,1/2+z
1/2-x,1/2-y,1/2+z
-x,1/2+y,1/2+z
x,1/2-y,1/2+z
loop_
_atom_site_type_symbol
_atom_site_label
_atom_site_fract_x
_atom_site_fract_y
_atom_site_fract_z
Si Si1 0.068277 0.453579 0.236060
Si Si2 0.431827 0.546434 0.435331
Si Si3 0.928142 0.794105 0.147722
Si Si4 0.079205 0.674313 0.326159
Si Si5 0.073348 0.363840 0.156920
Si Si6 0.424931 0.721883 0.835711
Si Si7 0.072413 0.865383 0.025060
Si Si8 0.569275 0.211363 0.542539
O O1 0.250000 0.456314 0.244574
O O2 0.031633 0.414462 0.167499
O O3 0.000000 0.500000 0.208903
O O4 0.998635 0.443573 0.335411
O O5 0.500000 0.500000 0.461742
O O6 0.250000 0.544311 0.427934
O O7 0.470519 0.584853 0.504966
O O8 0.750000 0.788631 0.143049
O O9 0.982089 0.795981 0.251495
O O10 0.979513 0.837565 0.096211
O O11 0.002867 0.752434 0.097510
O O12 0.250000 0.661014 0.297885
O O13 0.072691 0.726047 0.326143
O O14 0.056336 0.657757 0.427490
O O15 0.959942 0.655520 0.256425
O O16 0.250000 0.360526 0.135494
O O17 0.981056 0.333239 0.089587
O O18 0.250000 0.707806 0.827823
O O19 0.479063 0.711795 0.937333
O O20 0.250000 0.863638 0.049302
O O21 0.750000 0.215814 0.544811
#
# Coordination Sequence:
#
# PCOD9378165 Si02
#       8
#     8   8   8   8   8   8   8   8
#     4  10  20  32  48  72 104 137 170 209 254 304
#     4  10  19  31  50  74 102 136 172 211 255 302
#     4  12  24  34  51  77 104 134 168 214 261 298
#     4  10  18  31  51  71  99 139 177 209 243 294
#     4  11  22  33  48  76 106 134 170 214 258 299
#     4  10  21  37  54  71  97 136 178 214 247 295
#     4  10  20  35  52  72 100 139 180 209 246 304
#     4  11  22  37  55  73  98 137 177 210 248 303
#
# _framework density 15.875199
#
# number of rings (size 3 to 8) (size 9 to 14) (size 15 to 20)
#    0.000    1.500    3.750    3.375    0.000    4.000 
#    0.000    0.000    0.000    0.000    0.000    0.875 
#    0.000    6.000    0.000    0.000    0.000    0.000 
#
# Total GULP energy -178606.672333 kJ/mol
# GULP energy per Si atom -5581.458510 kJ/mol
# Density = 1.583907 g / cm^3
# Si number density = 15.875199 Si / 1000 Ang^3
#
#
#
# Elastic Constant Matrix: (Units=GPa)
#
#
# Indices 1 2 3 4 5 6 
#
# 1 63.3883 41.4815 41.7774 -0.0003 0.0001 0.0000
# 2 41.4815 98.9046 47.5038 -0.0005 0.0000 -0.0001
# 3 41.7774 47.5038 84.3419 -0.0012 0.0001 -0.0001
# 4 -0.0003 -0.0005 -0.0012 20.6363 0.0004 -0.0001
# 5 0.0001 0.0000 0.0001 0.0004 -73.9043 0.0000
# 6 0.0000 -0.0001 -0.0001 -0.0001 0.0000 24.0625
#
#
#
# Elastic Compliance Matrix: (Units=1/GPa)
#
#
# Indices 1 2 3 4 5 6 
#
# 1 0.026159 -0.006509 -0.009292 0.000000 0.000000 0.000000
# 2 -0.006509 0.015480 -0.005495 0.000000 0.000000 0.000000
# 3 -0.009292 -0.005495 0.019554 0.000001 0.000000 0.000000
# 4 0.000000 0.000000 0.000001 0.048458 0.000000 0.000000
# 5 0.000000 0.000000 0.000000 0.000000 -0.013531 0.000000
# 6 0.000000 0.000000 0.000000 0.000000 0.000000 0.041558
#
#
# Mechanical properties :
#
#
# Convention : Reuss Voigt Hill
#
# Bulk Modulus (GPa) = 53.75597 56.46223 55.10910
# Shear Modulus (GPa) = 26.81427 1.88372 14.34900
#
# Velocity S-wave (km/s) = 4.11428 1.09049 3.00969
# Velocity P-wave (km/s) = 7.51697 6.10156 6.84595
#
# Compressibility (1/GPa) = 0.01860258
#
# Stress axis : x y z
#
# Youngs Moduli (GPa) = 38.22811 64.60130 51.14132
#
# Poissons Ratio (x) = 0.42046 0.47518
# Poissons Ratio (y) = 0.24881 0.28100
# Poissons Ratio (z) = 0.35520 0.35496
#
# Static dielectric constant tensor:
#      x y z
#    x 1.562000 0.000000 0.000000 
#    y 0.000000 1.542040 0.000000 
#    z 0.000000 0.000000 1.513510 
# 
# From -- ./inp_files/14756.got.cif
#   From: 2010.05.17/outbox.cif.g08.bks.cpg/sg46_8_cif.got.tgz:14756.got - 2010.06.03 19:58:25.
