data_PCOD9378280
_publ_section_title
;
Structure prediction by ZEFSAII (Michael W. Deem and Ramdas Pophale) SiO2 
 PCOD9378280
Probable space group: I M A 2
;
_chemical_formula_sum "Si O2"
_cell_formula_units_Z 56
_cell_length_a 8.236795
_cell_length_b 19.704810
_cell_length_c 18.499599
_cell_angle_alpha 90.000000
_cell_angle_beta 90.000000
_cell_angle_gamma 90.000000
_cell_volume 3002.567805
_symmetry_space_group_name_H-M "I M A 2"
_symmetry_group_IT_number 46
_symmetry_cell_setting 'orthorhombic'
loop_
_space_group_symop_operation_xyz
x,y,z
-x,-y,z
1/2-x,y,z
1/2+x,-y,z
1/2+x,1/2+y,1/2+z
1/2-x,1/2-y,1/2+z
-x,1/2+y,1/2+z
x,1/2-y,1/2+z
loop_
_atom_site_type_symbol
_atom_site_label
_atom_site_fract_x
_atom_site_fract_y
_atom_site_fract_z
Si Si1 0.941616 0.219627 0.368950
Si Si2 0.555372 0.429606 0.863013
Si Si3 0.064009 0.158568 0.956625
Si Si4 0.942415 0.298362 0.612036
Si Si5 0.054122 0.571018 0.697616
Si Si6 0.943348 0.709946 0.232206
Si Si7 0.054193 0.423383 0.321077
O O1 0.750000 0.229566 0.385296
O O2 0.990541 0.144003 0.392237
O O3 0.051905 0.274645 0.407337
O O4 0.966718 0.235343 0.283983
O O5 0.500000 0.500000 0.897937
O O6 0.750000 0.430381 0.860671
O O7 0.493383 0.429031 0.780197
O O8 0.250000 0.141640 0.974208
O O9 0.996737 0.101138 0.901373
O O10 0.976189 0.181235 0.029543
O O11 0.750000 0.292349 0.621407
O O12 0.006518 0.363474 0.656141
O O13 0.017204 0.231613 0.649996
O O14 0.250000 0.573115 0.698746
O O15 0.000000 0.500000 0.663484
O O16 0.750000 0.715418 0.242676
O O17 0.994058 0.635310 0.262788
O O18 0.250000 0.422253 0.323319
O O19 0.000000 0.500000 0.304932
#
# Coordination Sequence:
#
# PCOD9378280 Si02
#       7
#     8   8   8   8   8   8   8
#     4  10  18  33  53  75 102 134 175 219 258 310
#     4   9  17  29  46  71 100 129 164 204 246 296
#     4  10  22  37  52  77 108 140 178 219 270 327
#     4  11  21  35  53  77 107 143 183 221 266 320
#     4   9  18  31  45  69 102 134 169 204 244 297
#     4  10  20  34  54  80 107 139 178 224 271 319
#     4   9  20  37  57  81 109 141 182 225 274 329
#
# _framework density 18.650703
#
# number of rings (size 3 to 8) (size 9 to 14) (size 15 to 20)
#    0.000    2.286    1.429    2.571    0.000    6.286 
#    0.000    2.857    0.000    0.857    0.000    6.000 
#    0.000    0.000    0.000    0.000    0.000    0.000 
#
# Total GULP energy -155908.284096 kJ/mol
# GULP energy per Si atom -5568.153003 kJ/mol
# Density = 1.860825 g / cm^3
# Si number density = 18.650703 Si / 1000 Ang^3
#
#
#
# Elastic Constant Matrix: (Units=GPa)
#
#
# Indices 1 2 3 4 5 6 
#
# 1 26.3090 9.3351 4.1122 0.0000 0.0000 0.0000
# 2 9.3351 119.5089 19.1232 0.0000 0.0000 0.0000
# 3 4.1122 19.1232 48.4678 0.0000 0.0000 0.0000
# 4 0.0000 0.0000 0.0000 14.0510 0.0000 0.0000
# 5 0.0000 0.0000 0.0000 0.0000 31.4141 0.0000
# 6 0.0000 0.0000 0.0000 0.0000 0.0000 26.9887
#
#
#
# Elastic Compliance Matrix: (Units=1/GPa)
#
#
# Indices 1 2 3 4 5 6 
#
# 1 0.039326 -0.002709 -0.002268 0.000000 0.000000 0.000000
# 2 -0.002709 0.009118 -0.003368 0.000000 0.000000 0.000000
# 3 -0.002268 -0.003368 0.022153 0.000000 0.000000 0.000000
# 4 0.000000 0.000000 0.000000 0.071169 0.000000 0.000000
# 5 0.000000 0.000000 0.000000 0.000000 0.031833 0.000000
# 6 0.000000 0.000000 0.000000 0.000000 0.000000 0.037053
#
#
# Mechanical properties :
#
#
# Convention : Reuss Voigt Hill
#
# Bulk Modulus (GPa) = 18.55003 28.82519 23.68761
# Shear Modulus (GPa) = 20.38237 25.27176 22.82707
#
# Velocity S-wave (km/s) = 3.30941 3.68503 3.50226
# Velocity P-wave (km/s) = 4.95687 5.79610 5.39283
#
# Compressibility (1/GPa) = 0.05390827
#
# Stress axis : x y z
#
# Youngs Moduli (GPa) = 25.42878 109.67235 45.13971
#
# Poissons Ratio (x) = 0.29710 0.10236
# Poissons Ratio (y) = 0.06888 0.15202
# Poissons Ratio (z) = 0.05766 0.36935
#
# Static dielectric constant tensor:
#      x y z
#    x 1.629130 0.000000 0.000000 
#    y 0.000000 1.679820 0.000000 
#    z 0.000000 0.000000 1.691470 
# 
# From -- ./inp_files/18466.got.cif
#   From: 2010.05.17/outbox.cif.g08.bks.cpg/sg46_10_cif.got.tgz:18466.got - 2010.06.03 19:58:25.
