data_PCOD9378894
_publ_section_title
;
Structure prediction by ZEFSAII (Michael W. Deem and Ramdas Pophale) SiO2 
 PCOD9378894
Probable space group: I M A 2
;
_chemical_formula_sum "Si O2"
_cell_formula_units_Z 64
_cell_length_a 8.605804
_cell_length_b 21.202138
_cell_length_c 20.133275
_cell_angle_alpha 90.000000
_cell_angle_beta 90.000000
_cell_angle_gamma 90.000000
_cell_volume 3673.546429
_symmetry_space_group_name_H-M "I M A 2"
_symmetry_group_IT_number 46
_symmetry_cell_setting 'orthorhombic'
loop_
_space_group_symop_operation_xyz
x,y,z
-x,-y,z
1/2-x,y,z
1/2+x,-y,z
1/2+x,1/2+y,1/2+z
1/2-x,1/2-y,1/2+z
-x,1/2+y,1/2+z
x,1/2-y,1/2+z
loop_
_atom_site_type_symbol
_atom_site_label
_atom_site_fract_x
_atom_site_fract_y
_atom_site_fract_z
Si Si1 0.434085 0.433022 0.289970
Si Si2 0.062507 0.813474 0.711558
Si Si3 0.561841 0.115686 0.073814
Si Si4 0.062652 0.736063 0.069916
Si Si5 0.062146 0.689995 0.797066
Si Si6 0.066135 0.242879 0.429014
Si Si7 0.437708 0.566758 0.714197
Si Si8 0.436200 0.884419 0.926651
O O1 0.500000 0.500000 0.267051
O O2 0.250000 0.434318 0.288447
O O3 0.494684 0.375178 0.245736
O O4 0.489698 0.420667 0.365421
O O5 0.250000 0.817128 0.713754
O O6 0.016585 0.802766 0.635024
O O7 0.017804 0.751039 0.753096
O O8 0.750000 0.111908 0.073477
O O9 0.524272 0.189934 0.081570
O O10 0.505612 0.079011 0.138529
O O11 0.509548 0.094887 0.000408
O O12 0.250000 0.732609 0.062560
O O13 0.983665 0.717314 0.001039
O O14 0.250000 0.690344 0.802768
O O15 0.015939 0.626203 0.759284
O O16 0.988129 0.698784 0.869064
O O17 0.250000 0.253297 0.426449
O O18 0.980821 0.310517 0.420619
O O19 0.500000 0.500000 0.738303
O O20 0.250000 0.565658 0.713051
O O21 0.250000 0.890032 0.922838
#
# Coordination Sequence:
#
# PCOD9378894 Si02
#       8
#     8   8   8   8   8   8   8   8
#     4  12  25  39  55  79 113 149 187 230 278 333
#     4  10  19  35  61  85 105 140 187 233 278 329
#     4   8  15  30  52  76 104 142 184 219 258 316
#     4   9  17  33  57  82 107 141 183 225 272 328
#     4  10  19  34  58  80 106 145 187 227 274 330
#     4  11  21  32  51  83 116 143 178 228 280 326
#     4  10  20  35  53  78 109 145 184 224 272 323
#     4  10  19  34  55  77 108 149 189 227 269 323
#
# _framework density 17.421858
#
# number of rings (size 3 to 8) (size 9 to 14) (size 15 to 20)
#    0.000    2.000    2.500    3.375    0.000    1.500 
#    0.000    4.375    0.000    0.750    0.000    3.500 
#    0.000    0.000    0.000    0.000    0.000    0.000 
#
# Total GULP energy -178624.329235 kJ/mol
# GULP energy per Si atom -5582.010289 kJ/mol
# Density = 1.738220 g / cm^3
# Si number density = 17.421858 Si / 1000 Ang^3
#
#
#
# Elastic Constant Matrix: (Units=GPa)
#
#
# Indices 1 2 3 4 5 6 
#
# 1 34.3637 28.3152 32.1325 0.0000 0.0000 0.0000
# 2 28.3152 113.6650 63.1911 0.0000 0.0000 0.0000
# 3 32.1325 63.1911 118.6904 0.0000 0.0000 0.0000
# 4 0.0000 0.0000 0.0000 19.8969 0.0000 0.0000
# 5 0.0000 0.0000 0.0000 0.0000 8.3168 0.0000
# 6 0.0000 0.0000 0.0000 0.0000 0.0000 22.0876
#
#
#
# Elastic Compliance Matrix: (Units=1/GPa)
#
#
# Indices 1 2 3 4 5 6 
#
# 1 0.041503 -0.005813 -0.008141 0.000000 0.000000 0.000000
# 2 -0.005813 0.013311 -0.005513 0.000000 0.000000 0.000000
# 3 -0.008141 -0.005513 0.013564 0.000000 0.000000 0.000000
# 4 0.000000 0.000000 0.000000 0.050259 0.000000 0.000000
# 5 0.000000 0.000000 0.000000 0.000000 0.120238 0.000000
# 6 0.000000 0.000000 0.000000 0.000000 0.000000 0.045274
#
#
# Mechanical properties :
#
#
# Convention : Reuss Voigt Hill
#
# Bulk Modulus (GPa) = 33.96277 57.11075 45.53676
# Shear Modulus (GPa) = 15.01962 19.59894 17.30928
#
# Velocity S-wave (km/s) = 2.93936 3.35768 3.15546
# Velocity P-wave (km/s) = 5.57283 6.91985 6.28255
#
# Compressibility (1/GPa) = 0.02944401
#
# Stress axis : x y z
#
# Youngs Moduli (GPa) = 24.09487 75.12744 73.72234
#
# Poissons Ratio (x) = 0.43670 0.60018
# Poissons Ratio (y) = 0.14006 0.40643
# Poissons Ratio (z) = 0.19616 0.41418
#
# Static dielectric constant tensor:
#      x y z
#    x 1.586380 0.000000 0.000000 
#    y 0.000000 1.574230 0.000000 
#    z 0.000000 0.000000 1.606770 
# 
# From -- ./inp_files/21439.got.cif
#   From: 2010.05.17/outbox.cif.g08.bks.cpg/sg46_11_cif.got.tgz:21439.got - 2010.06.03 19:58:25.
