data_PCOD9378937
_publ_section_title
;
Structure prediction by ZEFSAII (Michael W. Deem and Ramdas Pophale) SiO2 
 PCOD9378937
Probable space group: I M A 2
;
_chemical_formula_sum "Si O2"
_cell_formula_units_Z 40
_cell_length_a 14.420032
_cell_length_b 10.062835
_cell_length_c 12.102986
_cell_angle_alpha 90.000000
_cell_angle_beta 90.000000
_cell_angle_gamma 90.000000
_cell_volume 1756.220761
_symmetry_space_group_name_H-M "I M A 2"
_symmetry_group_IT_number 46
_symmetry_cell_setting 'orthorhombic'
loop_
_space_group_symop_operation_xyz
x,y,z
-x,-y,z
1/2-x,y,z
1/2+x,-y,z
1/2+x,1/2+y,1/2+z
1/2-x,1/2-y,1/2+z
-x,1/2+y,1/2+z
x,1/2-y,1/2+z
loop_
_atom_site_type_symbol
_atom_site_label
_atom_site_fract_x
_atom_site_fract_y
_atom_site_fract_z
Si Si1 0.042709 0.822537 0.222420
Si Si2 0.505228 0.856006 0.471003
Si Si3 0.147098 0.296045 0.129958
Si Si4 0.143801 0.629446 0.527359
Si Si5 0.892908 0.460902 0.286905
O O1 0.021295 0.870051 0.344664
O O2 0.941175 0.780260 0.179572
O O3 0.098293 0.921855 0.141602
O O4 0.106259 0.689294 0.239804
O O5 0.609136 0.812778 0.503987
O O6 0.427180 0.752330 0.509776
O O7 0.500000 0.000000 0.527653
O O8 0.250000 0.236965 0.132286
O O9 0.149950 0.432324 0.202841
O O10 0.250000 0.668145 0.544701
O O11 0.141044 0.544071 0.414491
O O12 0.000000 0.500000 0.297666
#
# Coordination Sequence:
#
# PCOD9378937 Si02
#       5
#     8   8   8   8   8
#     4   9  20  35  51  77 112 144 178 223 272 321
#     4  10  21  36  54  77 108 146 184 224 269 318
#     4  10  19  34  57  81 106 140 181 222 268 325
#     4  10  20  35  57  83 110 143 183 227 274 323
#     4   9  18  34  56  82 110 141 178 222 272 327
#
# _framework density 22.77618
#
# number of rings (size 3 to 8) (size 9 to 14) (size 15 to 20)
#    0.000    2.400    0.000    3.600    0.000    8.000 
#    0.000    0.000    0.000   10.800    0.000    0.000 
#    0.000    0.000    0.000    0.000    0.000    0.000 
#
# Total GULP energy -111401.921583 kJ/mol
# GULP energy per Si atom -5570.096079 kJ/mol
# Density = 2.272434 g / cm^3
# Si number density = 22.776180 Si / 1000 Ang^3
#
#
#
# Elastic Constant Matrix: (Units=GPa)
#
#
# Indices 1 2 3 4 5 6 
#
# 1 165.5491 7.6196 39.4651 0.0000 0.0000 0.0000
# 2 7.6196 59.8987 6.8283 0.0000 0.0000 0.0000
# 3 39.4651 6.8283 146.3242 0.0000 0.0000 0.0000
# 4 0.0000 0.0000 0.0000 6.9792 0.0000 0.0000
# 5 0.0000 0.0000 0.0000 0.0000 -18.8646 0.0000
# 6 0.0000 0.0000 0.0000 0.0000 0.0000 5.3944
#
#
#
# Elastic Compliance Matrix: (Units=1/GPa)
#
#
# Indices 1 2 3 4 5 6 
#
# 1 0.006479 -0.000628 -0.001718 0.000000 0.000000 0.000000
# 2 -0.000628 0.016845 -0.000617 0.000000 0.000000 0.000000
# 3 -0.001718 -0.000617 0.007326 0.000000 0.000000 0.000000
# 4 0.000000 0.000000 0.000000 0.143282 0.000000 0.000000
# 5 0.000000 0.000000 0.000000 0.000000 -0.053009 0.000000
# 6 0.000000 0.000000 0.000000 0.000000 0.000000 0.185378
#
#
# Mechanical properties :
#
#
# Convention : Reuss Voigt Hill
#
# Bulk Modulus (GPa) = 40.44612 53.28866 46.86739
# Shear Modulus (GPa) = 15.60217 19.89241 17.74729
#
# Velocity S-wave (km/s) = 2.62013 2.95852 2.79445
# Velocity P-wave (km/s) = 5.19135 5.92603 5.57082
#
# Compressibility (1/GPa) = 0.02472425
#
# Stress axis : x y z
#
# Youngs Moduli (GPa) = 154.34462 59.36453 136.49429
#
# Poissons Ratio (x) = 0.03730 0.23452
# Poissons Ratio (y) = 0.09698 0.08416
# Poissons Ratio (z) = 0.26518 0.03661
#
# Static dielectric constant tensor:
#      x y z
#    x 1.787530 0.000000 0.000000 
#    y 0.000000 2.058180 0.000000 
#    z 0.000000 0.000000 2.047080 
# 
# From -- ./inp_files/10901.got.cif
#   From: 2010.05.17/outbox.cif.g08.bks.cpg/sg46_6_cif.got.tgz:10901.got - 2010.06.03 19:58:25.
