data_PCOD9378550
_publ_section_title
;
Structure prediction by ZEFSAII (Michael W. Deem and Ramdas Pophale) SiO2 
 PCOD9378550
Probable space group: I M A 2
;
_chemical_formula_sum "Si O2"
_cell_formula_units_Z 64
_cell_length_a 8.793906
_cell_length_b 20.170229
_cell_length_c 21.143250
_cell_angle_alpha 90.000000
_cell_angle_beta 90.000000
_cell_angle_gamma 90.000000
_cell_volume 3750.286037
_symmetry_space_group_name_H-M "I M A 2"
_symmetry_group_IT_number 46
_symmetry_cell_setting 'orthorhombic'
loop_
_space_group_symop_operation_xyz
x,y,z
-x,-y,z
1/2-x,y,z
1/2+x,-y,z
1/2+x,1/2+y,1/2+z
1/2-x,1/2-y,1/2+z
-x,1/2+y,1/2+z
x,1/2-y,1/2+z
loop_
_atom_site_type_symbol
_atom_site_label
_atom_site_fract_x
_atom_site_fract_y
_atom_site_fract_z
Si Si1 0.932983 0.289462 0.025250
Si Si2 0.066228 0.288515 0.407839
Si Si3 0.567137 0.712929 0.266290
Si Si4 0.568010 0.929602 0.106801
Si Si5 0.932322 0.930321 0.957750
Si Si6 0.067353 0.568800 0.076660
Si Si7 0.431824 0.431734 0.217764
Si Si8 0.432268 0.793849 0.149920
O O1 0.750000 0.285698 0.021160
O O2 0.974703 0.365988 0.037274
O O3 0.979986 0.247585 0.087353
O O4 0.003696 0.257896 0.962924
O O5 0.250000 0.288138 0.410560
O O6 0.020389 0.268084 0.337238
O O7 0.016695 0.364296 0.421785
O O8 0.750000 0.720057 0.260691
O O9 0.532749 0.635029 0.255679
O O10 0.490093 0.755693 0.211691
O O11 0.750000 0.930471 0.111667
O O12 0.500656 0.867086 0.143446
O O13 0.500000 0.000000 0.127718
O O14 0.527513 0.921959 0.032134
O O15 0.750000 0.934432 0.953438
O O16 0.000000 0.000000 0.935395
O O17 0.250000 0.564701 0.080576
O O18 0.000000 0.500000 0.051154
O O19 0.001355 0.576492 0.147525
O O20 0.500000 0.500000 0.244535
O O21 0.250000 0.438325 0.212975
O O22 0.250000 0.796957 0.150423
#
# Coordination Sequence:
#
# PCOD9378550 Si02
#       8
#     8   8   8   8   8   8   8   8
#     4  10  21  35  54  80 108 137 176 224 270 318
#     4  10  21  37  54  76 107 143 183 222 266 318
#     4  10  22  37  53  76 108 145 183 223 268 322
#     4  10  19  33  54  82 111 141 178 222 271 320
#     4   9  18  31  49  74 105 141 178 216 257 310
#     4  10  19  33  52  79 108 136 173 218 265 315
#     4  10  19  31  49  74 106 142 180 217 260 312
#     4  11  21  35  56  81 109 141 180 226 273 318
#
# _framework density 17.065366000000001
#
# number of rings (size 3 to 8) (size 9 to 14) (size 15 to 20)
#    0.000    2.000    2.500    2.250    0.000    4.000 
#    0.000    0.000    0.000    0.750    0.000    1.750 
#    0.000    0.000    0.000    0.000    0.000    0.000 
#
# Total GULP energy -178615.778541 kJ/mol
# GULP energy per Si atom -5581.743079 kJ/mol
# Density = 1.702652 g / cm^3
# Si number density = 17.065366 Si / 1000 Ang^3
#
#
#
# Elastic Constant Matrix: (Units=GPa)
#
#
# Indices 1 2 3 4 5 6 
#
# 1 37.8230 44.9058 37.1680 0.0000 0.0000 0.0000
# 2 44.9058 138.7133 72.0607 0.0000 0.0000 0.0000
# 3 37.1680 72.0607 113.3849 0.0000 0.0000 0.0000
# 4 0.0000 0.0000 0.0000 20.7088 0.0000 0.0000
# 5 0.0000 0.0000 0.0000 0.0000 15.3070 0.0000
# 6 0.0000 0.0000 0.0000 0.0000 0.0000 31.8719
#
#
#
# Elastic Compliance Matrix: (Units=1/GPa)
#
#
# Indices 1 2 3 4 5 6 
#
# 1 0.048161 -0.011032 -0.008776 0.000000 0.000000 0.000000
# 2 -0.011032 0.013290 -0.004830 0.000000 0.000000 0.000000
# 3 -0.008776 -0.004830 0.014766 0.000000 0.000000 0.000000
# 4 0.000000 0.000000 0.000000 0.048289 0.000000 0.000000
# 5 0.000000 0.000000 0.000000 0.000000 0.065329 0.000000
# 6 0.000000 0.000000 0.000000 0.000000 0.000000 0.031376
#
#
# Mechanical properties :
#
#
# Convention : Reuss Voigt Hill
#
# Bulk Modulus (GPa) = 37.11853 66.46558 51.79206
# Shear Modulus (GPa) = 17.89127 22.62999 20.26063
#
# Velocity S-wave (km/s) = 3.24141 3.64548 3.44937
# Velocity P-wave (km/s) = 5.98389 7.53337 6.80289
#
# Compressibility (1/GPa) = 0.02694072
#
# Stress axis : x y z
#
# Youngs Moduli (GPa) = 20.76370 75.24700 67.72431
#
# Poissons Ratio (x) = 0.83014 0.59434
# Poissons Ratio (y) = 0.22907 0.32709
# Poissons Ratio (z) = 0.18222 0.36342
#
# Static dielectric constant tensor:
#      x y z
#    x 1.573580 0.000000 0.000000 
#    y 0.000000 1.577000 0.000000 
#    z 0.000000 0.000000 1.560920 
# 
# From -- ./inp_files/21340.got.cif
#   From: 2010.05.17/outbox.cif.g08.bks.cpg/sg46_11_cif.got.tgz:21340.got - 2010.06.03 19:58:25.
