data_PCOD9378159
_publ_section_title
;
Structure prediction by ZEFSAII (Michael W. Deem and Ramdas Pophale) SiO2 
 PCOD9378159
Probable space group: I M A 2
;
_chemical_formula_sum "Si O2"
_cell_formula_units_Z 64
_cell_length_a 8.803866
_cell_length_b 30.839327
_cell_length_c 14.832105
_cell_angle_alpha 90.000000
_cell_angle_beta 90.000000
_cell_angle_gamma 90.000000
_cell_volume 4026.995154
_symmetry_space_group_name_H-M "I M A 2"
_symmetry_group_IT_number 46
_symmetry_cell_setting 'orthorhombic'
loop_
_space_group_symop_operation_xyz
x,y,z
-x,-y,z
1/2-x,y,z
1/2+x,-y,z
1/2+x,1/2+y,1/2+z
1/2-x,1/2-y,1/2+z
-x,1/2+y,1/2+z
x,1/2-y,1/2+z
loop_
_atom_site_type_symbol
_atom_site_label
_atom_site_fract_x
_atom_site_fract_y
_atom_site_fract_z
Si Si1 0.071174 0.870956 0.484060
Si Si2 0.571947 0.774675 0.799403
Si Si3 0.078086 0.815088 0.303296
Si Si4 0.433548 0.953307 0.205386
Si Si5 0.426450 0.866137 0.115496
Si Si6 0.568987 0.546498 0.904640
Si Si7 0.431338 0.208925 0.002492
Si Si8 0.068146 0.708176 0.108611
O O1 0.250000 0.880875 0.497583
O O2 0.058077 0.845084 0.389821
O O3 0.020730 0.836322 0.559104
O O4 0.979638 0.915183 0.471675
O O5 0.750000 0.783945 0.789040
O O6 0.542120 0.723175 0.801326
O O7 0.484565 0.791554 0.711864
O O8 0.519994 0.790729 0.897767
O O9 0.250000 0.796237 0.307684
O O10 0.068393 0.842835 0.212884
O O11 0.250000 0.954484 0.211569
O O12 0.476483 0.915205 0.136094
O O13 0.498756 0.943788 0.305394
O O14 0.500000 0.000000 0.179350
O O15 0.250000 0.866551 0.086415
O O16 0.520610 0.835883 0.049114
O O17 0.500000 0.500000 0.931650
O O18 0.750000 0.543480 0.896788
O O19 0.250000 0.214142 0.005243
O O20 0.502493 0.249686 0.056566
O O21 0.250000 0.711145 0.102932
#
# Coordination Sequence:
#
# PCOD9378159 Si02
#       8
#     8   8   8   8   8   8   8   8
#     4  10  20  35  52  73 101 134 173 212 250 302
#     4  11  23  36  49  71 104 136 171 217 257 297
#     4  10  18  31  50  71 101 137 172 208 247 299
#     4  10  19  33  50  73 103 134 169 209 253 303
#     4  10  20  33  51  73 100 137 174 207 250 303
#     4  11  21  32  50  74 103 137 169 206 252 302
#     4  11  23  35  50  74 103 135 173 215 256 299
#     4  11  22  35  54  75  99 136 175 212 254 303
#
# _framework density 15.892742999999999
#
# number of rings (size 3 to 8) (size 9 to 14) (size 15 to 20)
#    0.000    1.500    3.750    3.375    0.000    4.000 
#    0.000    0.000    0.000    0.000    0.000    0.875 
#    0.000    4.000    0.000    0.000    0.000    0.000 
#
# Total GULP energy -178601.435280 kJ/mol
# GULP energy per Si atom -5581.294853 kJ/mol
# Density = 1.585657 g / cm^3
# Si number density = 15.892743 Si / 1000 Ang^3
#
#
#
# Elastic Constant Matrix: (Units=GPa)
#
#
# Indices 1 2 3 4 5 6 
#
# 1 57.6340 43.9236 35.4720 0.0000 0.0000 0.0000
# 2 43.9236 117.7901 52.5157 -0.0001 0.0000 0.0000
# 3 35.4720 52.5157 97.9232 -0.0008 0.0000 0.0000
# 4 0.0000 -0.0001 -0.0008 19.1892 -0.0001 0.0000
# 5 0.0000 0.0000 0.0000 -0.0001 9.4686 0.0000
# 6 0.0000 0.0000 0.0000 0.0000 0.0000 25.7687
#
#
#
# Elastic Compliance Matrix: (Units=1/GPa)
#
#
# Indices 1 2 3 4 5 6 
#
# 1 0.026408 -0.007337 -0.005632 0.000000 0.000000 0.000000
# 2 -0.007337 0.013196 -0.004419 0.000000 0.000000 0.000000
# 3 -0.005632 -0.004419 0.014622 0.000001 0.000000 0.000000
# 4 0.000000 0.000000 0.000001 0.052113 0.000000 0.000000
# 5 0.000000 0.000000 0.000000 0.000000 0.105612 0.000000
# 6 0.000000 0.000000 0.000000 0.000000 0.000000 0.038807
#
#
# Mechanical properties :
#
#
# Convention : Reuss Voigt Hill
#
# Bulk Modulus (GPa) = 51.41070 59.68555 55.54812
# Shear Modulus (GPa) = 17.12232 20.31436 18.71834
#
# Velocity S-wave (km/s) = 3.28589 3.57909 3.43562
# Velocity P-wave (km/s) = 6.84214 7.39707 7.12501
#
# Compressibility (1/GPa) = 0.01945121
#
# Stress axis : x y z
#
# Youngs Moduli (GPa) = 37.86674 75.78173 68.39001
#
# Poissons Ratio (x) = 0.55600 0.38514
# Poissons Ratio (y) = 0.27782 0.30222
# Poissons Ratio (z) = 0.21325 0.33489
#
# Static dielectric constant tensor:
#      x y z
#    x 1.541550 0.000000 0.000000 
#    y 0.000000 1.530390 0.000000 
#    z 0.000000 0.000000 1.525910 
# 
# From -- ./inp_files/14748.got.cif
#   From: 2010.05.17/outbox.cif.g08.bks.cpg/sg46_8_cif.got.tgz:14748.got - 2010.06.03 19:58:25.
