data_PCOD9378008
_publ_section_title
;
Structure prediction by ZEFSAII (Michael W. Deem and Ramdas Pophale) SiO2 
 PCOD9378008
Probable space group: I M A 2
;
_chemical_formula_sum "Si O2"
_cell_formula_units_Z 56
_cell_length_a 8.988649
_cell_length_b 19.494790
_cell_length_c 17.970326
_cell_angle_alpha 90.000000
_cell_angle_beta 90.000000
_cell_angle_gamma 90.000000
_cell_volume 3148.973014
_symmetry_space_group_name_H-M "I M A 2"
_symmetry_group_IT_number 46
_symmetry_cell_setting 'orthorhombic'
loop_
_space_group_symop_operation_xyz
x,y,z
-x,-y,z
1/2-x,y,z
1/2+x,-y,z
1/2+x,1/2+y,1/2+z
1/2-x,1/2-y,1/2+z
-x,1/2+y,1/2+z
x,1/2-y,1/2+z
loop_
_atom_site_type_symbol
_atom_site_label
_atom_site_fract_x
_atom_site_fract_y
_atom_site_fract_z
Si Si1 0.577345 0.564263 0.726560
Si Si2 0.570789 0.573837 0.124341
Si Si3 0.571218 0.709874 0.213315
Si Si4 0.073743 0.932205 0.065472
Si Si5 0.420791 0.785679 0.079809
Si Si6 0.579307 0.146975 0.486807
Si Si7 0.922741 0.808238 0.336799
O O1 0.500000 0.500000 0.767145
O O2 0.750000 0.549222 0.709111
O O3 0.484864 0.571840 0.650579
O O4 0.573299 0.631994 0.775196
O O5 0.500000 0.500000 0.141919
O O6 0.750000 0.569680 0.123701
O O7 0.512424 0.598502 0.043133
O O8 0.526022 0.634374 0.183168
O O9 0.750000 0.710728 0.215474
O O10 0.518552 0.762982 0.149799
O O11 0.520530 0.740034 0.293237
O O12 0.250000 0.941132 0.062000
O O13 0.033410 0.855787 0.038575
O O14 0.000000 0.000000 0.031419
O O15 0.250000 0.795988 0.105898
O O16 0.422046 0.721417 0.025556
O O17 0.750000 0.122534 0.482195
O O18 0.510967 0.161824 0.406476
O O19 0.750000 0.797088 0.358805
#
# Coordination Sequence:
#
# PCOD9378008 Si02
#       7
#     8   8   8   8   8   8   8
#     4  10  19  30  45  67  98 129 160 194 233 281
#     4  10  20  36  58  81 106 138 176 221 270 319
#     4   9  18  33  54  76 100 133 172 214 259 308
#     4  10  18  28  45  69  96 124 157 196 239 285
#     4   9  18  32  49  71  98 127 165 211 251 297
#     4  10  21  35  52  75 103 136 172 211 260 314
#     4  10  20  34  50  73 104 137 173 212 254 307
#
# _framework density 17.783574999999999
#
# number of rings (size 3 to 8) (size 9 to 14) (size 15 to 20)
#    0.000    2.286    1.429    2.571    0.000    4.000 
#    0.000    1.429    0.000    0.857    0.000    6.000 
#    0.000    0.000    0.000    0.000    0.000    0.000 
#
# Total GULP energy -155905.687053 kJ/mol
# GULP energy per Si atom -5568.060252 kJ/mol
# Density = 1.774310 g / cm^3
# Si number density = 17.783575 Si / 1000 Ang^3
#
#
#
# Elastic Constant Matrix: (Units=GPa)
#
#
# Indices 1 2 3 4 5 6 
#
# 1 51.3046 27.0436 7.2970 0.0000 0.0000 0.0000
# 2 27.0436 112.4849 -0.1927 0.0000 0.0000 0.0000
# 3 7.2970 -0.1927 25.0702 0.0000 0.0000 0.0000
# 4 0.0000 0.0000 0.0000 11.6061 0.0000 0.0000
# 5 0.0000 0.0000 0.0000 0.0000 11.8353 0.0000
# 6 0.0000 0.0000 0.0000 0.0000 0.0000 26.9315
#
#
#
# Elastic Compliance Matrix: (Units=1/GPa)
#
#
# Indices 1 2 3 4 5 6 
#
# 1 0.023446 -0.005649 -0.006868 0.000000 0.000000 0.000000
# 2 -0.005649 0.010251 0.001723 0.000000 0.000000 0.000000
# 3 -0.006868 0.001723 0.041900 0.000000 0.000000 0.000000
# 4 0.000000 0.000000 0.000000 0.086162 0.000000 0.000000
# 5 0.000000 0.000000 0.000000 0.000000 0.084493 0.000000
# 6 0.000000 0.000000 0.000000 0.000000 0.000000 0.037131
#
#
# Mechanical properties :
#
#
# Convention : Reuss Voigt Hill
#
# Bulk Modulus (GPa) = 18.51495 28.57282 23.54389
# Shear Modulus (GPa) = 15.48120 20.38871 17.93496
#
# Velocity S-wave (km/s) = 2.95368 3.38966 3.17915
# Velocity P-wave (km/s) = 4.69747 5.60550 5.17145
#
# Compressibility (1/GPa) = 0.05401041
#
# Stress axis : x y z
#
# Youngs Moduli (GPa) = 42.65186 97.55084 23.86625
#
# Poissons Ratio (x) = 0.55102 0.16390
# Poissons Ratio (y) = 0.24092 -0.04112
# Poissons Ratio (z) = 0.29291 -0.16807
#
# Static dielectric constant tensor:
#      x y z
#    x 1.619160 0.000000 0.000000 
#    y 0.000000 1.683230 0.000000 
#    z 0.000000 0.000000 1.594200 
# 
# From -- ./inp_files/18467.got.cif
#   From: 2010.05.17/outbox.cif.g08.bks.cpg/sg46_10_cif.got.tgz:18467.got - 2010.06.03 19:58:25.
