data_PCOD9378608
_publ_section_title
;
Structure prediction by ZEFSAII (Michael W. Deem and Ramdas Pophale) SiO2 
 PCOD9378608
Probable space group: I M A 2
;
_chemical_formula_sum "Si O2"
_cell_formula_units_Z 48
_cell_length_a 9.542489
_cell_length_b 17.585828
_cell_length_c 12.477465
_cell_angle_alpha 90.000000
_cell_angle_beta 90.000000
_cell_angle_gamma 90.000000
_cell_volume 2093.875472
_symmetry_space_group_name_H-M "I M A 2"
_symmetry_group_IT_number 46
_symmetry_cell_setting 'orthorhombic'
loop_
_space_group_symop_operation_xyz
x,y,z
-x,-y,z
1/2-x,y,z
1/2+x,-y,z
1/2+x,1/2+y,1/2+z
1/2-x,1/2-y,1/2+z
-x,1/2+y,1/2+z
x,1/2-y,1/2+z
loop_
_atom_site_type_symbol
_atom_site_label
_atom_site_fract_x
_atom_site_fract_y
_atom_site_fract_z
Si Si1 0.408498 0.282445 0.650500
Si Si2 0.904859 0.263147 0.342918
Si Si3 0.097096 0.599291 0.913344
Si Si4 0.590789 0.609951 0.099745
Si Si5 0.086040 0.929845 0.812146
Si Si6 0.586752 0.425626 0.656387
O O1 0.250000 0.312016 0.655415
O O2 0.466956 0.257553 0.766294
O O3 0.407161 0.201911 0.590849
O O4 0.512046 0.349135 0.615537
O O5 0.750000 0.262477 0.285428
O O6 0.895837 0.191671 0.420397
O O7 0.923769 0.350227 0.375939
O O8 0.250000 0.570582 0.949120
O O9 0.080980 0.580217 0.787656
O O10 0.969355 0.578203 0.989050
O O11 0.750000 0.586019 0.122880
O O12 0.486859 0.587472 0.196690
O O13 0.250000 0.948147 0.801002
O O14 0.000000 0.000000 0.859550
O O15 0.500000 0.500000 0.625317
O O16 0.750000 0.429537 0.625977
#
# Coordination Sequence:
#
# PCOD9378608 Si02
#       6
#     8   8   8   8   8   8
#     4   9  17  30  48  69  93 122 159 198 233 275
#     4   8  16  31  49  68  91 122 160 196 233 279
#     4   9  18  32  49  70  96 126 159 194 235 282
#     4  10  20  32  48  72  99 127 159 194 234 280
#     4  10  19  32  50  71  97 127 158 195 237 281
#     4  10  20  33  50  72  97 126 159 195 237 283
#
# _framework density 22.923998999999998
#
# number of rings (size 3 to 8) (size 9 to 14) (size 15 to 20)
#    0.000    2.667    0.000    3.000    0.000    6.667 
#    0.000    1.667    0.000    1.000    0.000    4.667 
#    0.000    0.000    0.000    0.000    0.000    0.000 
#
# Total GULP energy -133902.704695 kJ/mol
# GULP energy per Si atom -5579.279362 kJ/mol
# Density = 2.287182 g / cm^3
# Si number density = 22.923999 Si / 1000 Ang^3
#
#
#
# Elastic Constant Matrix: (Units=GPa)
#
#
# Indices 1 2 3 4 5 6 
#
# 1 187.1433 63.8766 39.9549 0.0000 0.0000 0.0000
# 2 63.8766 168.5495 -10.7569 0.0000 0.0000 0.0000
# 3 39.9549 -10.7569 50.9387 0.0000 0.0000 0.0000
# 4 0.0000 0.0000 0.0000 -2.5014 0.0000 0.0000
# 5 0.0000 0.0000 0.0000 0.0000 10.1023 0.0000
# 6 0.0000 0.0000 0.0000 0.0000 0.0000 41.5122
#
#
#
# Elastic Compliance Matrix: (Units=1/GPa)
#
#
# Indices 1 2 3 4 5 6 
#
# 1 0.008042 -0.003497 -0.007046 0.000000 0.000000 0.000000
# 2 -0.003497 0.007535 0.004334 0.000000 0.000000 0.000000
# 3 -0.007046 0.004334 0.026073 0.000000 0.000000 0.000000
# 4 0.000000 0.000000 0.000000 -0.399776 0.000000 0.000000
# 5 0.000000 0.000000 0.000000 0.000000 0.098987 0.000000
# 6 0.000000 0.000000 0.000000 0.000000 0.000000 0.024089
#
#
# Mechanical properties :
#
#
# Convention : Reuss Voigt Hill
#
# Bulk Modulus (GPa) = 34.20909 65.86453 50.03681
# Shear Modulus (GPa) = -23.48656 30.72642 3.61993
#
# Velocity S-wave (km/s) = -3.20432 3.66507 1.25799
# Velocity P-wave (km/s) = 1.12474 6.83406 4.89742
#
# Compressibility (1/GPa) = 0.02923200
#
# Stress axis : x y z
#
# Youngs Moduli (GPa) = 124.35458 132.71448 38.35314
#
# Poissons Ratio (x) = 0.46413 0.27024
# Poissons Ratio (y) = 0.43490 -0.16623
# Poissons Ratio (z) = 0.87621 -0.57523
#
# Static dielectric constant tensor:
#      x y z
#    x 1.820490 0.000000 0.000000 
#    y 0.000000 1.902650 0.000000 
#    z 0.000000 0.000000 1.857460 
# 
# From -- ./inp_files/13893.got.cif
#   From: 2010.05.17/outbox.cif.g08.bks.cpg/sg46_7_cif.got.tgz:13893.got - 2010.06.03 19:58:25.
