data_PCOD9378203
_publ_section_title
;
Structure prediction by ZEFSAII (Michael W. Deem and Ramdas Pophale) SiO2 
 PCOD9378203
Probable space group: I M A 2
;
_chemical_formula_sum "Si O2"
_cell_formula_units_Z 64
_cell_length_a 8.205281
_cell_length_b 25.834935
_cell_length_c 15.528573
_cell_angle_alpha 90.000000
_cell_angle_beta 90.000000
_cell_angle_gamma 90.000000
_cell_volume 3291.791957
_symmetry_space_group_name_H-M "I M A 2"
_symmetry_group_IT_number 46
_symmetry_cell_setting 'orthorhombic'
loop_
_space_group_symop_operation_xyz
x,y,z
-x,-y,z
1/2-x,y,z
1/2+x,-y,z
1/2+x,1/2+y,1/2+z
1/2-x,1/2-y,1/2+z
-x,1/2+y,1/2+z
x,1/2-y,1/2+z
loop_
_atom_site_type_symbol
_atom_site_label
_atom_site_fract_x
_atom_site_fract_y
_atom_site_fract_z
Si Si1 0.447805 0.734086 0.242690
Si Si2 0.446006 0.781761 0.543187
Si Si3 0.056863 0.942448 0.338601
Si Si4 0.949840 0.150742 0.220101
Si Si5 0.943338 0.606406 0.013485
Si Si6 0.448698 0.834614 0.024186
Si Si7 0.552982 0.133858 0.843867
Si Si8 0.555330 0.559216 0.193680
O O1 0.250000 0.734769 0.247391
O O2 0.489933 0.718901 0.144599
O O3 0.501512 0.793172 0.257080
O O4 0.505225 0.688922 0.305194
O O5 0.250000 0.784535 0.536323
O O6 0.515764 0.833195 0.501195
O O7 0.496761 0.725419 0.509080
O O8 0.250000 0.941539 0.330373
O O9 0.990760 0.897497 0.275779
O O10 0.013343 0.927293 0.436093
O O11 0.000000 0.000000 0.317653
O O12 0.750000 0.150734 0.220984
O O13 0.000851 0.148930 0.119799
O O14 0.750000 0.599888 0.013156
O O15 0.007356 0.587691 0.106869
O O16 0.250000 0.834697 0.026169
O O17 0.501660 0.868717 0.943089
O O18 0.750000 0.134599 0.843768
O O19 0.500229 0.089346 0.778814
O O20 0.500000 0.500000 0.193695
O O21 0.750000 0.560886 0.191227
#
# Coordination Sequence:
#
# PCOD9378203 Si02
#       8
#     8   8   8   8   8   8   8   8
#     4   8  14  26  49  82 112 139 177 220 261 313
#     4   9  16  30  53  81 113 147 183 220 263 318
#     4  11  23  38  59  80 107 143 187 235 278 326
#     4   8  16  32  53  81 112 143 183 229 271 316
#     4  11  23  37  54  80 113 145 181 224 275 334
#     4   8  16  30  54  85 115 146 184 226 266 320
#     4  10  18  31  56  86 114 144 183 227 269 320
#     4  11  24  40  57  77 108 147 186 228 276 330
#
# _framework density 19.442297
#
# number of rings (size 3 to 8) (size 9 to 14) (size 15 to 20)
#    0.000    2.500    1.250    3.000    1.750    2.500 
#    0.000    1.250    0.000    9.000    0.000    0.000 
#    0.000    0.000    0.000    0.000    0.000    0.000 
#
# Total GULP energy -178540.539646 kJ/mol
# GULP energy per Si atom -5579.391864 kJ/mol
# Density = 1.939805 g / cm^3
# Si number density = 19.442297 Si / 1000 Ang^3
#
#
#
# Elastic Constant Matrix: (Units=GPa)
#
#
# Indices 1 2 3 4 5 6 
#
# 1 13.0800 8.4792 8.5749 0.0000 0.0000 0.0000
# 2 8.4792 114.1115 48.2080 0.0001 0.0000 0.0000
# 3 8.5749 48.2080 76.6465 0.0001 0.0000 0.0000
# 4 0.0000 0.0001 0.0001 6.7630 0.0000 0.0000
# 5 0.0000 0.0000 0.0000 0.0000 10.0260 0.0000
# 6 0.0000 0.0000 0.0000 0.0000 0.0000 22.9296
#
#
#
# Elastic Compliance Matrix: (Units=1/GPa)
#
#
# Indices 1 2 3 4 5 6 
#
# 1 0.083284 -0.003067 -0.007388 0.000000 0.000000 0.000000
# 2 -0.003067 0.012048 -0.007234 0.000000 0.000000 0.000000
# 3 -0.007388 -0.007234 0.018424 0.000000 0.000000 0.000000
# 4 0.000000 0.000000 0.000000 0.147863 0.000000 0.000000
# 5 0.000000 0.000000 0.000000 0.000000 0.099740 0.000000
# 6 0.000000 0.000000 0.000000 0.000000 0.000000 0.043612
#
#
# Mechanical properties :
#
#
# Convention : Reuss Voigt Hill
#
# Bulk Modulus (GPa) = 12.75904 37.15134 24.95519
# Shear Modulus (GPa) = 10.71868 17.18212 13.95040
#
# Velocity S-wave (km/s) = 2.35054 2.97602 2.68158
# Velocity P-wave (km/s) = 3.73410 5.56407 4.73827
#
# Compressibility (1/GPa) = 0.07837581
#
# Stress axis : x y z
#
# Youngs Moduli (GPa) = 12.00705 83.00471 54.27814
#
# Poissons Ratio (x) = 0.25460 0.40102
# Poissons Ratio (y) = 0.03683 0.39267
# Poissons Ratio (z) = 0.08871 0.60048
#
# Static dielectric constant tensor:
#      x y z
#    x 1.689460 0.000000 0.000000 
#    y 0.000000 1.664840 0.000000 
#    z 0.000000 0.000000 1.697140 
# 
# From -- ./inp_files/14526.got.cif
#   From: 2010.05.17/outbox.cif.g08.bks.cpg/sg46_8_cif.got.tgz:14526.got - 2010.06.03 19:58:25.
