data_PCOD9378290
_publ_section_title
;
Structure prediction by ZEFSAII (Michael W. Deem and Ramdas Pophale) SiO2 
 PCOD9378290
Probable space group: I M A 2
;
_chemical_formula_sum "Si O2"
_cell_formula_units_Z 48
_cell_length_a 16.810452
_cell_length_b 9.146775
_cell_length_c 16.833298
_cell_angle_alpha 90.000000
_cell_angle_beta 90.000000
_cell_angle_gamma 90.000000
_cell_volume 2588.311839
_symmetry_space_group_name_H-M "I M A 2"
_symmetry_group_IT_number 46
_symmetry_cell_setting 'orthorhombic'
loop_
_space_group_symop_operation_xyz
x,y,z
-x,-y,z
1/2-x,y,z
1/2+x,-y,z
1/2+x,1/2+y,1/2+z
1/2-x,1/2-y,1/2+z
-x,1/2+y,1/2+z
x,1/2-y,1/2+z
loop_
_atom_site_type_symbol
_atom_site_label
_atom_site_fract_x
_atom_site_fract_y
_atom_site_fract_z
Si Si1 0.585352 0.929999 0.793250
Si Si2 0.345021 0.710907 0.220877
Si Si3 0.075705 0.898091 0.078639
Si Si4 0.509591 0.163230 0.298434
Si Si5 0.342741 0.367713 0.467062
Si Si6 0.021445 0.340039 0.985302
O O1 0.554253 0.774451 0.759092
O O2 0.632264 0.907154 0.875846
O O3 0.500000 0.000000 0.815953
O O4 0.629418 0.039516 0.732207
O O5 0.250000 0.724004 0.227509
O O6 0.378245 0.803986 0.145732
O O7 0.399897 0.783338 0.289072
O O8 0.000000 0.000000 0.103261
O O9 0.037263 0.777390 0.021939
O O10 0.131959 0.002041 0.026197
O O11 0.490089 0.160589 0.390994
O O12 0.500000 0.000000 0.268696
O O13 0.250000 0.343249 0.469239
O O14 0.390470 0.224071 0.495879
O O15 0.000000 0.500000 0.016873
#
# Coordination Sequence:
#
# PCOD9378290 Si02
#       6
#     8   8   8   8   8   8
#     4   9  18  33  55  77 104 141 178 212 261 321
#     4  11  21  33  50  78 108 138 178 223 258 300
#     4  10  20  35  55  76 106 147 180 210 261 320
#     4   9  18  36  57  77 102 137 177 215 263 324
#     4  10  18  33  56  82 107 136 175 223 265 308
#     4   9  19  36  57  78 103 137 177 215 262 323
#
# _framework density 18.544906000000001
#
# number of rings (size 3 to 8) (size 9 to 14) (size 15 to 20)
#    0.000    2.333    0.000    5.000    0.000    2.000 
#    0.000   10.833    0.000    0.000    0.000    0.000 
#    0.000    0.000    0.000    0.000    0.000    0.000 
#
# Total GULP energy -133602.095071 kJ/mol
# GULP energy per Si atom -5566.753961 kJ/mol
# Density = 1.850270 g / cm^3
# Si number density = 18.544906 Si / 1000 Ang^3
#
#
#
# Elastic Constant Matrix: (Units=GPa)
#
#
# Indices 1 2 3 4 5 6 
#
# 1 154.6285 69.4512 17.1619 0.0000 0.0000 0.0000
# 2 69.4512 166.1468 32.8784 0.0000 0.0000 0.0000
# 3 17.1619 32.8784 27.5063 0.0000 0.0000 0.0000
# 4 0.0000 0.0000 0.0000 48.1154 0.0000 0.0000
# 5 0.0000 0.0000 0.0000 0.0000 1888.2773 0.0000
# 6 0.0000 0.0000 0.0000 0.0000 0.0000 17.4948
#
#
#
# Elastic Compliance Matrix: (Units=1/GPa)
#
#
# Indices 1 2 3 4 5 6 
#
# 1 0.007997 -0.003085 -0.001302 0.000000 0.000000 0.000000
# 2 -0.003085 0.009074 -0.008921 0.000000 0.000000 0.000000
# 3 -0.001302 -0.008921 0.047831 0.000000 0.000000 0.000000
# 4 0.000000 0.000000 0.000000 0.020783 0.000000 0.000000
# 5 0.000000 0.000000 0.000000 0.000000 0.000530 0.000000
# 6 0.000000 0.000000 0.000000 0.000000 0.000000 0.057160
#
#
# Mechanical properties :
#
#
# Convention : Reuss Voigt Hill
#
# Bulk Modulus (GPa) = 26.11940 65.25162 45.68551
# Shear Modulus (GPa) = 27.35932 406.03017 216.69474
#
# Velocity S-wave (km/s) = 3.84513 14.81282 10.82138
# Velocity P-wave (km/s) = 5.81622 18.10584 13.44712
#
# Compressibility (1/GPa) = 0.03828572
#
# Stress axis : x y z
#
# Youngs Moduli (GPa) = 125.04070 110.20689 20.90704
#
# Poissons Ratio (x) = 0.34003 0.02722
# Poissons Ratio (y) = 0.38580 0.18651
# Poissons Ratio (z) = 0.16278 0.98315
#
# Static dielectric constant tensor:
#      x y z
#    x 1.468230 0.000000 0.000000 
#    y 0.000000 1.722350 0.000000 
#    z 0.000000 0.000000 1.661350 
# 
# From -- ./inp_files/19386.got.cif
#   From: 2010.05.17/outbox.cif.g08.bks.cpg/sg46_10_cif.got.tgz:19386.got - 2010.06.03 19:58:25.
