data_PCOD9378263
_publ_section_title
;
Structure prediction by ZEFSAII (Michael W. Deem and Ramdas Pophale) SiO2 
 PCOD9378263
Probable space group: I M A 2
;
_chemical_formula_sum "Si O2"
_cell_formula_units_Z 48
_cell_length_a 14.908097
_cell_length_b 12.008980
_cell_length_c 14.005384
_cell_angle_alpha 90.000000
_cell_angle_beta 90.000000
_cell_angle_gamma 90.000000
_cell_volume 2507.398445
_symmetry_space_group_name_H-M "I M A 2"
_symmetry_group_IT_number 46
_symmetry_cell_setting 'orthorhombic'
loop_
_space_group_symop_operation_xyz
x,y,z
-x,-y,z
1/2-x,y,z
1/2+x,-y,z
1/2+x,1/2+y,1/2+z
1/2-x,1/2-y,1/2+z
-x,1/2+y,1/2+z
x,1/2-y,1/2+z
loop_
_atom_site_type_symbol
_atom_site_label
_atom_site_fract_x
_atom_site_fract_y
_atom_site_fract_z
Si Si1 0.144009 0.423019 0.537890
Si Si2 0.150649 0.952016 0.849497
Si Si3 0.643180 0.355068 0.661621
Si Si4 0.431077 0.402308 0.219450
Si Si5 0.995072 0.722546 0.047298
Si Si6 0.465594 0.769501 0.330508
O O1 0.250000 0.390105 0.534105
O O2 0.114474 0.473252 0.435911
O O3 0.135907 0.524241 0.612527
O O4 0.076655 0.322674 0.556734
O O5 0.250000 0.920726 0.880501
O O6 0.154462 0.032467 0.757205
O O7 0.099425 0.837181 0.839363
O O8 0.750000 0.328592 0.671030
O O9 0.588029 0.266320 0.595782
O O10 0.588777 0.352022 0.761433
O O11 0.500000 0.500000 0.250386
O O12 0.452568 0.375507 0.110626
O O13 0.450197 0.286770 0.274886
O O14 0.009906 0.693331 0.936688
#
# Coordination Sequence:
#
# PCOD9378263 Si02
#       6
#     8   8   8   8   8   8
#     4  10  20  34  56  86 115 151 197 240 286 343
#     4  10  18  32  56  80 108 147 191 241 284 336
#     4  10  21  33  52  87 117 147 191 240 293 342
#     4   9  20  35  52  80 106 141 191 233 283 343
#     4  11  20  35  59  82 113 158 190 242 289 343
#     4  10  19  33  54  79 112 148 188 233 290 342
#
# _framework density 19.143348
#
# number of rings (size 3 to 8) (size 9 to 14) (size 15 to 20)
#    0.000    2.000    3.333    1.000    0.000    1.333 
#    0.000    3.333    0.000    0.000    0.000    0.000 
#    0.000    0.000    0.000    0.000    0.000    0.000 
#
# Total GULP energy -133624.851546 kJ/mol
# GULP energy per Si atom -5567.702148 kJ/mol
# Density = 1.909978 g / cm^3
# Si number density = 19.143348 Si / 1000 Ang^3
#
#
#
# Elastic Constant Matrix: (Units=GPa)
#
#
# Indices 1 2 3 4 5 6 
#
# 1 63.9412 14.3890 21.3181 0.0000 0.0000 0.0000
# 2 14.3890 31.4589 19.8873 0.0000 0.0000 0.0000
# 3 21.3181 19.8873 137.0795 0.0000 0.0000 0.0000
# 4 0.0000 0.0000 0.0000 30.6075 0.0000 0.0000
# 5 0.0000 0.0000 0.0000 0.0000 24.2477 0.0000
# 6 0.0000 0.0000 0.0000 0.0000 0.0000 16.5754
#
#
#
# Elastic Compliance Matrix: (Units=1/GPa)
#
#
# Indices 1 2 3 4 5 6 
#
# 1 0.017806 -0.007039 -0.001748 0.000000 0.000000 0.000000
# 2 -0.007039 0.037780 -0.004386 0.000000 0.000000 0.000000
# 3 -0.001748 -0.004386 0.008203 0.000000 0.000000 0.000000
# 4 0.000000 0.000000 0.000000 0.032672 0.000000 0.000000
# 5 0.000000 0.000000 0.000000 0.000000 0.041241 0.000000
# 6 0.000000 0.000000 0.000000 0.000000 0.000000 0.060330
#
#
# Mechanical properties :
#
#
# Convention : Reuss Voigt Hill
#
# Bulk Modulus (GPa) = 26.70777 38.18539 32.44658
# Shear Modulus (GPa) = 21.10944 26.07846 23.59395
#
# Velocity S-wave (km/s) = 3.32430 3.69490 3.51449
# Velocity P-wave (km/s) = 5.35877 6.18008 5.78402
#
# Compressibility (1/GPa) = 0.03744229
#
# Stress axis : x y z
#
# Youngs Moduli (GPa) = 56.16015 26.46892 121.90313
#
# Poissons Ratio (x) = 0.18633 0.21307
# Poissons Ratio (y) = 0.39533 0.53471
# Poissons Ratio (z) = 0.09816 0.11610
#
# Static dielectric constant tensor:
#      x y z
#    x 1.812640 0.000000 0.000000 
#    y 0.000000 1.666030 0.000000 
#    z 0.000000 0.000000 1.725950 
# 
# From -- ./inp_files/11074.got.cif
#   From: 2010.05.17/outbox.cif.g08.bks.cpg/sg46_6_cif.got.tgz:11074.got - 2010.06.03 19:58:25.
