data_PCOD9378733
_publ_section_title
;
Structure prediction by ZEFSAII (Michael W. Deem and Ramdas Pophale) SiO2 
 PCOD9378733
Probable space group: I M A 2
;
_chemical_formula_sum "Si O2"
_cell_formula_units_Z 32
_cell_length_a 5.541624
_cell_length_b 16.887327
_cell_length_c 15.748181
_cell_angle_alpha 90.000000
_cell_angle_beta 90.000000
_cell_angle_gamma 90.000000
_cell_volume 1473.765434
_symmetry_space_group_name_H-M "I M A 2"
_symmetry_group_IT_number 46
_symmetry_cell_setting 'orthorhombic'
loop_
_space_group_symop_operation_xyz
x,y,z
-x,-y,z
1/2-x,y,z
1/2+x,-y,z
1/2+x,1/2+y,1/2+z
1/2-x,1/2-y,1/2+z
-x,1/2+y,1/2+z
x,1/2-y,1/2+z
loop_
_atom_site_type_symbol
_atom_site_label
_atom_site_fract_x
_atom_site_fract_y
_atom_site_fract_z
Si Si1 0.250000 0.390359 0.406711
Si Si2 0.250000 0.768570 0.593749
Si Si3 0.750000 0.095967 0.818327
Si Si4 0.750000 0.044260 0.626579
Si Si5 0.750000 0.721666 0.618399
Si Si6 0.250000 0.714800 0.784018
Si Si7 0.250000 0.452940 0.598907
Si Si8 0.750000 0.727738 0.811627
O O1 0.501874 0.418893 0.366920
O O2 0.250000 0.420529 0.502408
O O3 0.250000 0.297946 0.379734
O O4 0.250000 0.863422 0.599012
O O5 0.513530 0.742622 0.563420
O O6 0.250000 0.718467 0.682475
O O7 0.750000 0.051780 0.728878
O O8 0.750000 0.191205 0.804226
O O9 0.500000 0.000000 0.601591
O O10 0.750000 0.630560 0.647034
O O11 0.750000 0.764646 0.712709
O O12 0.499408 0.681753 0.818456
O O13 0.500000 0.500000 0.613899
#
# Coordination Sequence:
#
# PCOD9378733 Si02
#       8
#     4   4   4   4   4   4   4   4
#     4  10  19  33  48  69 101 136 179 219 258 319
#     4   9  17  31  49  68  92 133 181 220 262 308
#     4   9  17  28  42  62  96 143 176 197 238 302
#     4  11  20  28  44  76 112 137 170 223 276 321
#     4  10  19  36  55  69  96 142 191 232 258 311
#     4   7  12  22  39  63  86 112 161 215 248 278
#     4  12  26  39  52  77 114 152 182 220 282 339
#     4   8  14  27  49  68  85 121 172 220 254 288
#
# _framework density 21.713087000000002
#
# number of rings (size 3 to 8) (size 9 to 14) (size 15 to 20)
#    0.000    2.500    0.000    4.500    0.000    5.000 
#    0.000    0.000    0.000    0.000    0.000    0.000 
#    0.000    6.000    0.000    0.000    0.000    0.000 
#
# Total GULP energy -89120.084788 kJ/mol
# GULP energy per Si atom -5570.005299 kJ/mol
# Density = 2.166367 g / cm^3
# Si number density = 21.713087 Si / 1000 Ang^3
#
#
#
# Elastic Constant Matrix: (Units=GPa)
#
#
# Indices 1 2 3 4 5 6 
#
# 1 272.4468 57.1395 10.0474 0.0000 0.0000 0.0000
# 2 57.1395 87.7469 13.5750 0.0000 0.0000 0.0000
# 3 10.0474 13.5750 22.3758 0.0000 0.0000 0.0000
# 4 0.0000 0.0000 0.0000 15.7725 0.0000 0.0000
# 5 0.0000 0.0000 0.0000 0.0000 14.9901 0.0000
# 6 0.0000 0.0000 0.0000 0.0000 0.0000 32.6622
#
#
#
# Elastic Compliance Matrix: (Units=1/GPa)
#
#
# Indices 1 2 3 4 5 6 
#
# 1 0.004252 -0.002730 -0.000253 0.000000 0.000000 0.000000
# 2 -0.002730 0.014329 -0.007468 0.000000 0.000000 0.000000
# 3 -0.000253 -0.007468 0.049335 0.000000 0.000000 0.000000
# 4 0.000000 0.000000 0.000000 0.063402 0.000000 0.000000
# 5 0.000000 0.000000 0.000000 0.000000 0.066711 0.000000
# 6 0.000000 0.000000 0.000000 0.000000 0.000000 0.030616
#
#
# Mechanical properties :
#
#
# Convention : Reuss Voigt Hill
#
# Bulk Modulus (GPa) = 21.26959 60.45482 40.86220
# Shear Modulus (GPa) = 18.85237 32.80547 25.82892
#
# Velocity S-wave (km/s) = 2.94980 3.89120 3.45273
# Velocity P-wave (km/s) = 4.62804 6.93481 5.89535
#
# Compressibility (1/GPa) = 0.04701549
#
# Stress axis : x y z
#
# Youngs Moduli (GPa) = 235.16650 69.78685 20.26949
#
# Poissons Ratio (x) = 0.19051 0.00513
# Poissons Ratio (y) = 0.64197 0.15136
# Poissons Ratio (z) = 0.05955 0.52114
#
# Static dielectric constant tensor:
#      x y z
#    x 1.927130 0.000000 0.000000 
#    y 0.000000 1.806040 0.000000 
#    z 0.000000 0.000000 1.825970 
# 
# From -- ./inp_files/17782.got.cif
#   From: 2010.05.17/outbox.cif.g08.bks.cpg/sg46_9_cif.got.tgz:17782.got - 2010.06.03 19:58:25.
