data_PCOD9378855
_publ_section_title
;
Structure prediction by ZEFSAII (Michael W. Deem and Ramdas Pophale) SiO2 
 PCOD9378855
Probable space group: I M A 2
;
_chemical_formula_sum "Si O2"
_cell_formula_units_Z 64
_cell_length_a 8.663543
_cell_length_b 33.730270
_cell_length_c 11.919377
_cell_angle_alpha 90.000000
_cell_angle_beta 90.000000
_cell_angle_gamma 90.000000
_cell_volume 3483.123788
_symmetry_space_group_name_H-M "I M A 2"
_symmetry_group_IT_number 46
_symmetry_cell_setting 'orthorhombic'
loop_
_space_group_symop_operation_xyz
x,y,z
-x,-y,z
1/2-x,y,z
1/2+x,-y,z
1/2+x,1/2+y,1/2+z
1/2-x,1/2-y,1/2+z
-x,1/2+y,1/2+z
x,1/2-y,1/2+z
loop_
_atom_site_type_symbol
_atom_site_label
_atom_site_fract_x
_atom_site_fract_y
_atom_site_fract_z
Si Si1 0.063629 0.875067 0.516570
Si Si2 0.066952 0.543480 0.390274
Si Si3 0.433033 0.188640 0.692515
Si Si4 0.436314 0.544517 0.137388
Si Si5 0.929137 0.272652 0.648404
Si Si6 0.563441 0.651250 0.775694
Si Si7 0.429231 0.396396 0.561012
Si Si8 0.427149 0.674325 0.433999
O O1 0.250000 0.873247 0.515427
O O2 0.017911 0.919938 0.553601
O O3 0.999541 0.844131 0.607901
O O4 0.998261 0.861685 0.396413
O O5 0.250000 0.542245 0.387630
O O6 0.016276 0.557109 0.264827
O O7 0.000000 0.500000 0.403511
O O8 0.015271 0.569432 0.494863
O O9 0.250000 0.183451 0.704958
O O10 0.472096 0.232937 0.652049
O O11 0.519383 0.184808 0.810824
O O12 0.500000 0.500000 0.115907
O O13 0.250000 0.541882 0.134651
O O14 0.750000 0.264490 0.677898
O O15 0.932166 0.289850 0.522240
O O16 0.993946 0.307223 0.730075
O O17 0.750000 0.654296 0.776159
O O18 0.517327 0.617845 0.683642
O O19 0.250000 0.406459 0.568041
O O20 0.458157 0.358196 0.483630
O O21 0.250000 0.659013 0.433458
#
# Coordination Sequence:
#
# PCOD9378855 Si02
#       8
#     8   8   8   8   8   8   8   8
#     4  11  23  40  61  87 119 157 203 246 295 360
#     4  10  19  33  56  86 119 151 188 238 295 354
#     4  12  25  38  58  86 118 152 192 244 295 347
#     4   9  20  37  59  87 118 153 191 241 296 353
#     4  10  22  40  61  83 112 152 194 239 293 351
#     4  10  22  40  60  84 116 154 197 245 296 351
#     4  10  20  36  58  83 113 148 189 236 289 348
#     4  10  21  38  59  82 109 145 189 233 286 344
#
# _framework density 18.374310999999999
#
# number of rings (size 3 to 8) (size 9 to 14) (size 15 to 20)
#    0.000    1.750    0.000    4.125    1.750    5.500 
#    0.000    0.625    0.000    1.500    0.000    0.000 
#    0.000    0.000    0.000    0.000    0.000    0.000 
#
# Total GULP energy -178631.682880 kJ/mol
# GULP energy per Si atom -5582.240090 kJ/mol
# Density = 1.833249 g / cm^3
# Si number density = 18.374311 Si / 1000 Ang^3
#
#
#
# Elastic Constant Matrix: (Units=GPa)
#
#
# Indices 1 2 3 4 5 6 
#
# 1 41.7859 16.2721 32.5100 -0.0009 0.0001 0.0000
# 2 16.2721 83.1693 63.6750 -0.0013 0.0001 0.0000
# 3 32.5100 63.6750 115.8873 -0.0023 0.0002 -0.0001
# 4 -0.0009 -0.0013 -0.0023 10.2674 0.0002 -0.0001
# 5 0.0001 0.0001 0.0002 0.0002 23.8344 -0.0001
# 6 0.0000 0.0000 -0.0001 -0.0001 -0.0001 34.5929
#
#
#
# Elastic Compliance Matrix: (Units=1/GPa)
#
#
# Indices 1 2 3 4 5 6 
#
# 1 0.030662 0.001012 -0.009158 0.000001 0.000000 0.000000
# 2 0.001012 0.020788 -0.011706 0.000000 0.000000 0.000000
# 3 -0.009158 -0.011706 0.017630 0.000002 0.000000 0.000000
# 4 0.000001 0.000000 0.000002 0.097396 -0.000001 0.000000
# 5 0.000000 0.000000 0.000000 -0.000001 0.041956 0.000000
# 6 0.000000 0.000000 0.000000 0.000000 0.000000 0.028908
#
#
# Mechanical properties :
#
#
# Convention : Reuss Voigt Hill
#
# Bulk Modulus (GPa) = 34.04032 51.75074 42.89553
# Shear Modulus (GPa) = 17.43163 22.29797 19.86480
#
# Velocity S-wave (km/s) = 3.08343 3.48737 3.29160
# Velocity P-wave (km/s) = 5.58954 6.66645 6.15161
#
# Compressibility (1/GPa) = 0.02937693
#
# Stress axis : x y z
#
# Youngs Moduli (GPa) = 32.61335 48.10529 56.72136
#
# Poissons Ratio (x) = -0.04870 0.51945
# Poissons Ratio (y) = -0.03301 0.66398
# Poissons Ratio (z) = 0.29867 0.56312
#
# Static dielectric constant tensor:
#      x y z
#    x 1.635030 0.000000 0.000000 
#    y 0.000000 1.620260 0.000000 
#    z 0.000000 0.000000 1.631900 
# 
# From -- ./inp_files/9811.got.cif
#   From: 2010.05.17/outbox.cif.g08.bks.cpg/sg46_5_cif.got.tgz:9811.got - 2010.06.03 19:58:25.
