data_PCOD9378108
_publ_section_title
;
Structure prediction by ZEFSAII (Michael W. Deem and Ramdas Pophale) SiO2 
 PCOD9378108
Probable space group: I M A 2
;
_chemical_formula_sum "Si O2"
_cell_formula_units_Z 56
_cell_length_a 9.180627
_cell_length_b 19.112793
_cell_length_c 18.428854
_cell_angle_alpha 90.000000
_cell_angle_beta 90.000000
_cell_angle_gamma 90.000000
_cell_volume 3233.663529
_symmetry_space_group_name_H-M "I M A 2"
_symmetry_group_IT_number 46
_symmetry_cell_setting 'orthorhombic'
loop_
_space_group_symop_operation_xyz
x,y,z
-x,-y,z
1/2-x,y,z
1/2+x,-y,z
1/2+x,1/2+y,1/2+z
1/2-x,1/2-y,1/2+z
-x,1/2+y,1/2+z
x,1/2-y,1/2+z
loop_
_atom_site_type_symbol
_atom_site_label
_atom_site_fract_x
_atom_site_fract_y
_atom_site_fract_z
Si Si1 0.415469 0.660125 0.544460
Si Si2 0.420569 0.432809 0.303859
Si Si3 0.076454 0.429934 0.132340
Si Si4 0.085434 0.796385 0.644593
Si Si5 0.424609 0.209195 0.265890
Si Si6 0.423021 0.204311 0.898431
Si Si7 0.925191 0.574703 0.668227
O O1 0.250000 0.633707 0.533066
O O2 0.406899 0.730045 0.592351
O O3 0.489745 0.685063 0.470316
O O4 0.508958 0.606039 0.593159
O O5 0.500000 0.500000 0.335822
O O6 0.250000 0.446689 0.307194
O O7 0.457686 0.426835 0.218851
O O8 0.448608 0.361663 0.345589
O O9 0.250000 0.431702 0.122391
O O10 0.000000 0.500000 0.103635
O O11 0.004301 0.358215 0.106446
O O12 0.250000 0.820211 0.661955
O O13 0.004030 0.765651 0.714883
O O14 0.250000 0.220133 0.259312
O O15 0.462822 0.227732 0.349366
O O16 0.456468 0.132834 0.231426
O O17 0.250000 0.208556 0.914865
O O18 0.750000 0.567882 0.662811
O O19 0.000000 0.500000 0.682990
#
# Coordination Sequence:
#
# PCOD9378108 Si02
#       7
#     8   8   8   8   8   8   8
#     4  10  22  36  51  76 107 139 177 217 261 317
#     4   9  18  30  45  68  99 130 161 198 236 288
#     4  10  18  30  48  72 100 129 164 204 248 296
#     4  10  19  32  50  73 101 132 171 216 257 303
#     4   9  18  34  55  77 102 136 177 219 265 319
#     4  10  19  34  52  74 104 139 178 216 259 315
#     4  10  20  36  59  82 107 141 180 225 275 325
#
# _framework density 17.317819
#
# number of rings (size 3 to 8) (size 9 to 14) (size 15 to 20)
#    0.000    2.286    1.429    1.714    0.000    4.571 
#    0.000    1.429    0.000    0.857    0.000    4.000 
#    0.000    0.000    0.000    0.000    0.000    0.000 
#
# Total GULP energy -155979.454422 kJ/mol
# GULP energy per Si atom -5570.694801 kJ/mol
# Density = 1.727840 g / cm^3
# Si number density = 17.317819 Si / 1000 Ang^3
#
#
#
# Elastic Constant Matrix: (Units=GPa)
#
#
# Indices 1 2 3 4 5 6 
#
# 1 51.6107 41.7185 16.4187 0.0000 0.0000 0.0000
# 2 41.7185 76.3339 -3.3694 0.0000 0.0000 0.0000
# 3 16.4187 -3.3694 41.5999 0.0000 0.0000 0.0000
# 4 0.0000 0.0000 0.0000 16.7268 0.0000 0.0000
# 5 0.0000 0.0000 0.0000 0.0000 10.9472 0.0000
# 6 0.0000 0.0000 0.0000 0.0000 0.0000 31.3453
#
#
#
# Elastic Compliance Matrix: (Units=1/GPa)
#
#
# Indices 1 2 3 4 5 6 
#
# 1 0.048155 -0.027254 -0.021213 0.000000 0.000000 0.000000
# 2 -0.027254 0.028572 0.013071 0.000000 0.000000 0.000000
# 3 -0.021213 0.013071 0.033470 0.000000 0.000000 0.000000
# 4 0.000000 0.000000 0.000000 0.059784 0.000000 0.000000
# 5 0.000000 0.000000 0.000000 0.000000 0.091348 0.000000
# 6 0.000000 0.000000 0.000000 0.000000 0.000000 0.031903
#
#
# Mechanical properties :
#
#
# Convention : Reuss Voigt Hill
#
# Bulk Modulus (GPa) = 25.37818 31.00888 28.19353
# Shear Modulus (GPa) = 13.25701 19.45563 16.35632
#
# Velocity S-wave (km/s) = 2.76979 3.35542 3.07657
# Velocity P-wave (km/s) = 4.99151 5.74077 5.37920
#
# Compressibility (1/GPa) = 0.03940393
#
# Stress axis : x y z
#
# Youngs Moduli (GPa) = 20.76642 34.99880 29.87780
#
# Poissons Ratio (x) = 0.95386 0.63380
# Poissons Ratio (y) = 0.56597 -0.39053
# Poissons Ratio (z) = 0.44052 -0.45747
#
# Static dielectric constant tensor:
#      x y z
#    x 1.599090 0.000000 0.000000 
#    y 0.000000 1.613690 0.000000 
#    z 0.000000 0.000000 1.616780 
# 
# From -- ./inp_files/18472.got.cif
#   From: 2010.05.17/outbox.cif.g08.bks.cpg/sg46_10_cif.got.tgz:18472.got - 2010.06.03 19:58:25.
