data_PCOD9378471
_publ_section_title
;
Structure prediction by ZEFSAII (Michael W. Deem and Ramdas Pophale) SiO2 
 PCOD9378471
Probable space group: I M A 2
;
_chemical_formula_sum "Si O2"
_cell_formula_units_Z 64
_cell_length_a 8.775841
_cell_length_b 14.459252
_cell_length_c 30.589322
_cell_angle_alpha 90.000000
_cell_angle_beta 90.000000
_cell_angle_gamma 90.000000
_cell_volume 3881.543200
_symmetry_space_group_name_H-M "I M A 2"
_symmetry_group_IT_number 46
_symmetry_cell_setting 'orthorhombic'
loop_
_space_group_symop_operation_xyz
x,y,z
-x,-y,z
1/2-x,y,z
1/2+x,-y,z
1/2+x,1/2+y,1/2+z
1/2-x,1/2-y,1/2+z
-x,1/2+y,1/2+z
x,1/2-y,1/2+z
loop_
_atom_site_type_symbol
_atom_site_label
_atom_site_fract_x
_atom_site_fract_y
_atom_site_fract_z
Si Si1 0.070851 0.739018 0.307040
Si Si2 0.421656 0.408879 0.359053
Si Si3 0.066780 0.103212 0.542027
Si Si4 0.421016 0.407343 0.462843
Si Si5 0.433056 0.103003 0.636829
Si Si6 0.434888 0.603515 0.869432
Si Si7 0.432009 0.792122 0.459132
Si Si8 0.933191 0.895120 0.733684
O O1 0.250000 0.742856 0.297841
O O2 0.019420 0.838877 0.325629
O O3 0.034550 0.673892 0.348527
O O4 0.990392 0.681215 0.268390
O O5 0.500000 0.500000 0.339961
O O6 0.250000 0.393820 0.341885
O O7 0.407653 0.421362 0.410612
O O8 0.250000 0.100526 0.538890
O O9 0.024032 0.145913 0.589797
O O10 0.999282 0.154072 0.500407
O O11 0.000000 0.000000 0.541544
O O12 0.500000 0.500000 0.480757
O O13 0.250000 0.395592 0.480573
O O14 0.514945 0.313231 0.465619
O O15 0.250000 0.097746 0.636847
O O16 0.477820 0.139476 0.684667
O O17 0.500000 0.000000 0.636044
O O18 0.500000 0.500000 0.870089
O O19 0.250000 0.600338 0.869800
O O20 0.483772 0.659422 0.913476
O O21 0.250000 0.796398 0.459277
O O22 0.750000 0.902629 0.736013
O O23 0.000000 0.000000 0.739384
#
# Coordination Sequence:
#
# PCOD9378471 Si02
#       8
#     8   8   8   8   8   8   8   8
#     4  11  21  34  48  68  96 129 164 203 244 291
#     4  10  19  30  46  67  92 125 160 197 236 281
#     4  10  19  32  50  75 103 135 170 209 251 299
#     4  10  20  33  50  71  96 129 165 205 247 293
#     4   8  16  30  48  70 101 132 163 200 247 297
#     4  10  23  38  52  68  94 129 167 209 251 288
#     4  11  21  35  52  74 101 134 171 210 249 297
#     4  10  19  32  50  75 103 135 166 201 245 298
#
# _framework density 16.488288000000001
#
# number of rings (size 3 to 8) (size 9 to 14) (size 15 to 20)
#    0.000    2.000    1.250    3.000    0.000    5.000 
#    0.000    0.000    0.000    0.000    0.000    0.875 
#    0.000    2.000    0.000    0.000    0.000    0.000 
#
# Total GULP energy -178145.117380 kJ/mol
# GULP energy per Si atom -5567.034918 kJ/mol
# Density = 1.645076 g / cm^3
# Si number density = 16.488288 Si / 1000 Ang^3
#
#
#
# Elastic Constant Matrix: (Units=GPa)
#
#
# Indices 1 2 3 4 5 6 
#
# 1 48.6085 28.2120 36.0311 0.0000 0.0000 0.0000
# 2 28.2120 104.1220 50.0531 0.0000 0.0000 0.0000
# 3 36.0311 50.0531 110.6563 0.0000 0.0000 0.0000
# 4 0.0000 0.0000 0.0000 -61.0521 0.0000 0.0000
# 5 0.0000 0.0000 0.0000 0.0000 26.6131 0.0000
# 6 0.0000 0.0000 0.0000 0.0000 0.0000 23.6254
#
#
#
# Elastic Compliance Matrix: (Units=1/GPa)
#
#
# Indices 1 2 3 4 5 6 
#
# 1 0.028462 -0.004162 -0.007385 0.000000 0.000000 0.000000
# 2 -0.004162 0.012881 -0.004471 0.000000 0.000000 0.000000
# 3 -0.007385 -0.004471 0.013464 0.000000 0.000000 0.000000
# 4 0.000000 0.000000 0.000000 -0.016379 0.000000 0.000000
# 5 0.000000 0.000000 0.000000 0.000000 0.037576 0.000000
# 6 0.000000 0.000000 0.000000 0.000000 0.000000 0.042327
#
#
# Mechanical properties :
#
#
# Convention : Reuss Voigt Hill
#
# Bulk Modulus (GPa) = 43.91547 54.66436 49.28992
# Shear Modulus (GPa) = 31.65396 7.77666 19.71531
#
# Velocity S-wave (km/s) = 4.38629 2.17410 3.46166
# Velocity P-wave (km/s) = 7.23497 6.28711 6.77763
#
# Compressibility (1/GPa) = 0.02277102
#
# Stress axis : x y z
#
# Youngs Moduli (GPa) = 35.13430 77.63227 74.27063
#
# Poissons Ratio (x) = 0.32308 0.54850
# Poissons Ratio (y) = 0.14622 0.33210
# Poissons Ratio (z) = 0.25947 0.34713
#
# Static dielectric constant tensor:
#      x y z
#    x 1.573850 0.000000 0.000000 
#    y 0.000000 1.598620 0.000000 
#    z 0.000000 0.000000 1.609420 
# 
# From -- ./inp_files/25224.got.cif
#   From: 2010.05.17/outbox.cif.g08.bks.cpg/sg46_13_cif.got.tgz:25224.got - 2010.06.03 19:58:25.
