data_PCOD9378534
_publ_section_title
;
Structure prediction by ZEFSAII (Michael W. Deem and Ramdas Pophale) SiO2 
 PCOD9378534
Probable space group: I M A 2
;
_chemical_formula_sum "Si O2"
_cell_formula_units_Z 64
_cell_length_a 8.851825
_cell_length_b 23.798900
_cell_length_c 19.635053
_cell_angle_alpha 90.000000
_cell_angle_beta 90.000000
_cell_angle_gamma 90.000000
_cell_volume 4136.392875
_symmetry_space_group_name_H-M "I M A 2"
_symmetry_group_IT_number 46
_symmetry_cell_setting 'orthorhombic'
loop_
_space_group_symop_operation_xyz
x,y,z
-x,-y,z
1/2-x,y,z
1/2+x,-y,z
1/2+x,1/2+y,1/2+z
1/2-x,1/2-y,1/2+z
-x,1/2+y,1/2+z
x,1/2-y,1/2+z
loop_
_atom_site_type_symbol
_atom_site_label
_atom_site_fract_x
_atom_site_fract_y
_atom_site_fract_z
Si Si1 0.569514 0.228443 0.539010
Si Si2 0.068877 0.061745 0.038698
Si Si3 0.931269 0.724768 0.330505
Si Si4 0.567981 0.883211 0.184582
Si Si5 0.569519 0.060711 0.318659
Si Si6 0.931560 0.752265 0.180512
Si Si7 0.068935 0.660217 0.452576
Si Si8 0.931861 0.167992 0.404880
O O1 0.750000 0.227853 0.547155
O O2 0.494587 0.224750 0.612283
O O3 0.528401 0.287999 0.503412
O O4 0.528165 0.181332 0.483167
O O5 0.250000 0.059707 0.033521
O O6 0.002612 0.104089 0.982707
O O7 0.030068 0.087358 0.113054
O O8 0.000000 0.000000 0.032346
O O9 0.750000 0.721641 0.335442
O O10 0.976188 0.722964 0.251270
O O11 0.005688 0.678463 0.379202
O O12 0.986491 0.784892 0.359482
O O13 0.750000 0.884867 0.192864
O O14 0.492784 0.915127 0.247425
O O15 0.520126 0.817869 0.182975
O O16 0.750000 0.056258 0.314511
O O17 0.531210 0.106792 0.376312
O O18 0.500000 0.000000 0.332112
O O19 0.750000 0.752355 0.177264
O O20 0.250000 0.656385 0.450404
O O21 0.750000 0.176538 0.398416
#
# Coordination Sequence:
#
# PCOD9378534 Si02
#       8
#     8   8   8   8   8   8   8   8
#     4   9  18  31  49  70  95 125 160 200 245 293
#     4  11  22  35  51  70  98 134 172 209 246 288
#     4  10  19  31  50  72  98 128 160 201 246 292
#     4  10  20  34  48  69 101 134 171 205 237 286
#     4  11  22  34  50  69  97 133 172 209 245 288
#     4  10  19  31  48  74 102 129 161 198 242 294
#     4  10  20  34  50  71  98 128 166 206 246 293
#     4   9  19  34  48  69  96 127 164 204 245 292
#
# _framework density 15.472419
#
# number of rings (size 3 to 8) (size 9 to 14) (size 15 to 20)
#    0.000    2.000    2.500    2.625    0.000    6.000 
#    0.000    0.000    0.000    0.000    0.000    0.875 
#    0.000    4.000    0.000    0.000    0.000    0.000 
#
# Total GULP energy -178566.669979 kJ/mol
# GULP energy per Si atom -5580.208437 kJ/mol
# Density = 1.543720 g / cm^3
# Si number density = 15.472419 Si / 1000 Ang^3
#
#
#
# Elastic Constant Matrix: (Units=GPa)
#
#
# Indices 1 2 3 4 5 6 
#
# 1 33.1963 38.1087 48.0597 0.0000 0.0000 0.0000
# 2 38.1087 102.5124 76.1641 0.0000 0.0000 0.0000
# 3 48.0597 76.1641 154.2088 0.0000 0.0000 0.0000
# 4 0.0000 0.0000 0.0000 18.9086 0.0000 0.0000
# 5 0.0000 0.0000 0.0000 0.0000 27.1953 0.0000
# 6 0.0000 0.0000 0.0000 0.0000 0.0000 22.4107
#
#
#
# Elastic Compliance Matrix: (Units=1/GPa)
#
#
# Indices 1 2 3 4 5 6 
#
# 1 0.066509 -0.014729 -0.013453 0.000000 0.000000 0.000000
# 2 -0.014729 0.018672 -0.004631 0.000000 0.000000 0.000000
# 3 -0.013453 -0.004631 0.012965 0.000000 0.000000 0.000000
# 4 0.000000 0.000000 0.000000 0.052886 0.000000 0.000000
# 5 0.000000 0.000000 0.000000 0.000000 0.036771 0.000000
# 6 0.000000 0.000000 0.000000 0.000000 0.000000 0.044622
#
#
# Mechanical properties :
#
#
# Convention : Reuss Voigt Hill
#
# Bulk Modulus (GPa) = 30.75217 68.28695 49.51956
# Shear Modulus (GPa) = 16.18692 22.20859 19.19775
#
# Velocity S-wave (km/s) = 3.23798 3.79273 3.52628
# Velocity P-wave (km/s) = 5.82220 7.96305 6.97525
#
# Compressibility (1/GPa) = 0.03251803
#
# Stress axis : x y z
#
# Youngs Moduli (GPa) = 15.03551 53.55720 77.13164
#
# Poissons Ratio (x) = 0.78887 1.03764
# Poissons Ratio (y) = 0.22146 0.35723
# Poissons Ratio (z) = 0.20227 0.24805
#
# Static dielectric constant tensor:
#      x y z
#    x 1.521010 0.000000 0.000000 
#    y 0.000000 1.494820 0.000000 
#    z 0.000000 0.000000 1.511840 
# 
# From -- ./inp_files/18554.got.cif
#   From: 2010.05.17/outbox.cif.g08.bks.cpg/sg46_10_cif.got.tgz:18554.got - 2010.06.03 19:58:25.
