data_PCOD9378990
_publ_section_title
;
Structure prediction by ZEFSAII (Michael W. Deem and Ramdas Pophale) SiO2 
 PCOD9378990
Probable space group: I M A 2
;
_chemical_formula_sum "Si O2"
_cell_formula_units_Z 56
_cell_length_a 18.009793
_cell_length_b 16.924938
_cell_length_c 9.005638
_cell_angle_alpha 90.000000
_cell_angle_beta 90.000000
_cell_angle_gamma 90.000000
_cell_volume 2745.050214
_symmetry_space_group_name_H-M "I M A 2"
_symmetry_group_IT_number 46
_symmetry_cell_setting 'orthorhombic'
loop_
_space_group_symop_operation_xyz
x,y,z
-x,-y,z
1/2-x,y,z
1/2+x,-y,z
1/2+x,1/2+y,1/2+z
1/2-x,1/2-y,1/2+z
-x,1/2+y,1/2+z
x,1/2-y,1/2+z
loop_
_atom_site_type_symbol
_atom_site_label
_atom_site_fract_x
_atom_site_fract_y
_atom_site_fract_z
Si Si1 0.621745 0.732664 0.669430
Si Si2 0.361648 0.137682 0.449345
Si Si3 0.333154 0.484238 0.369160
Si Si4 0.050893 0.347056 0.385040
Si Si5 0.026278 0.908410 0.387456
Si Si6 0.330924 0.543011 0.042438
Si Si7 0.560429 0.071204 0.058452
O O1 0.663195 0.802520 0.579469
O O2 0.660706 0.676567 0.791216
O O3 0.586770 0.680253 0.540643
O O4 0.560388 0.779822 0.764378
O O5 0.452480 0.135973 0.442325
O O6 0.337922 0.047685 0.479307
O O7 0.250000 0.451524 0.391807
O O8 0.395906 0.418843 0.337227
O O9 0.331958 0.535578 0.220037
O O10 0.361940 0.532876 0.511607
O O11 0.968747 0.373756 0.425641
O O12 0.052348 0.890115 0.219538
O O13 0.098901 0.907091 0.488679
O O14 0.000000 0.000000 0.386273
O O15 0.250000 0.573260 0.995029
O O16 0.500000 0.000000 0.060040
#
# Coordination Sequence:
#
# PCOD9378990 Si02
#       7
#     8   8   8   8   8   8   8
#     4  10  20  32  53  76 103 136 176 206 250 296
#     4  10  19  35  52  77 104 134 171 216 247 304
#     4  10  21  35  51  75 106 138 171 211 258 304
#     4  10  19  35  52  77 104 134 171 216 247 304
#     4   9  18  32  53  76  99 127 168 219 264 298
#     4  10  21  35  51  75 106 138 171 211 258 304
#     4   9  18  32  53  76  99 127 168 219 264 298
#
# _framework density 20.400355000000001
#
# number of rings (size 3 to 8) (size 9 to 14) (size 15 to 20)
#    0.000    2.286    2.857    0.000    4.000    2.286 
#    0.000    4.286    0.000    0.000    0.000    6.000 
#    0.000    0.000    0.000    0.000    0.000    0.000 
#
# Total GULP energy -156053.369599 kJ/mol
# GULP energy per Si atom -5573.334629 kJ/mol
# Density = 2.035392 g / cm^3
# Si number density = 20.400355 Si / 1000 Ang^3
#
#
#
# Elastic Constant Matrix: (Units=GPa)
#
#
# Indices 1 2 3 4 5 6 
#
# 1 107.0219 6.4986 16.4973 0.0000 0.0000 0.0000
# 2 6.4986 12.8036 0.3122 0.0000 0.0000 0.0000
# 3 16.4973 0.3122 83.9174 0.0000 0.0000 0.0000
# 4 0.0000 0.0000 0.0000 33.2634 0.0000 0.0000
# 5 0.0000 0.0000 0.0000 0.0000 3.1747 0.0000
# 6 0.0000 0.0000 0.0000 0.0000 0.0000 5.4902
#
#
#
# Elastic Compliance Matrix: (Units=1/GPa)
#
#
# Indices 1 2 3 4 5 6 
#
# 1 0.009946 -0.005001 -0.001937 0.000000 0.000000 0.000000
# 2 -0.005001 0.080625 0.000683 0.000000 0.000000 0.000000
# 3 -0.001937 0.000683 0.012295 0.000000 0.000000 0.000000
# 4 0.000000 0.000000 0.000000 0.030063 0.000000 0.000000
# 5 0.000000 0.000000 0.000000 0.000000 0.314992 0.000000
# 6 0.000000 0.000000 0.000000 0.000000 0.000000 0.182141
#
#
# Mechanical properties :
#
#
# Convention : Reuss Voigt Hill
#
# Bulk Modulus (GPa) = 11.06729 27.81769 19.44249
# Shear Modulus (GPa) = 7.43284 20.41466 13.92375
#
# Velocity S-wave (km/s) = 1.91086 3.16682 2.61535
# Velocity P-wave (km/s) = 3.21020 5.19972 4.32102
#
# Compressibility (1/GPa) = 0.09035636
#
# Stress axis : x y z
#
# Youngs Moduli (GPa) = 100.54202 12.40315 81.33602
#
# Poissons Ratio (x) = 0.06203 0.15752
# Poissons Ratio (y) = 0.50281 -0.05557
# Poissons Ratio (z) = 0.19472 -0.00847
#
# Static dielectric constant tensor:
#      x y z
#    x 1.754740 0.000000 0.000000 
#    y 0.000000 1.750570 0.000000 
#    z 0.000000 0.000000 1.748860 
# 
# From -- ./inp_files/6860.got.cif
#   From: 2010.05.17/outbox.cif.g08.bks.cpg/sg46_4_cif.got.tgz:6860.got - 2010.06.03 19:58:25.
