data_PCOD9378032
_publ_section_title
;
Structure prediction by ZEFSAII (Michael W. Deem and Ramdas Pophale) SiO2 
 PCOD9378032
Probable space group: I M A 2
;
_chemical_formula_sum "Si O2"
_cell_formula_units_Z 56
_cell_length_a 14.659275
_cell_length_b 23.684686
_cell_length_c 9.790346
_cell_angle_alpha 90.000000
_cell_angle_beta 90.000000
_cell_angle_gamma 90.000000
_cell_volume 3399.211317
_symmetry_space_group_name_H-M "I M A 2"
_symmetry_group_IT_number 46
_symmetry_cell_setting 'orthorhombic'
loop_
_space_group_symop_operation_xyz
x,y,z
-x,-y,z
1/2-x,y,z
1/2+x,-y,z
1/2+x,1/2+y,1/2+z
1/2-x,1/2-y,1/2+z
-x,1/2+y,1/2+z
x,1/2-y,1/2+z
loop_
_atom_site_type_symbol
_atom_site_label
_atom_site_fract_x
_atom_site_fract_y
_atom_site_fract_z
Si Si1 0.445928 0.392007 0.875000
Si Si2 0.860639 0.816674 0.827705
Si Si3 0.360395 0.284821 0.019329
Si Si4 0.640573 0.944779 0.868208
Si Si5 0.349206 0.922942 0.362849
Si Si6 0.101070 0.478885 0.670365
Si Si7 0.356438 0.019217 0.574658
O O1 0.405363 0.333882 0.928755
O O2 0.555018 0.390031 0.848486
O O3 0.392829 0.418038 0.743919
O O4 0.420938 0.438749 0.990287
O O5 0.750000 0.818545 0.826207
O O6 0.886384 0.774547 0.949971
O O7 0.887387 0.793389 0.677825
O O8 0.894077 0.880543 0.850632
O O9 0.250000 0.290156 0.012534
O O10 0.750000 0.941482 0.872145
O O11 0.616665 0.979377 0.732459
O O12 0.613472 0.972414 0.010379
O O13 0.250000 0.893206 0.361976
O O14 0.344440 0.972107 0.247252
O O15 0.358082 0.958634 0.503163
O O16 0.000000 0.500000 0.699908
O O17 0.250000 0.039707 0.564066
#
# Coordination Sequence:
#
# PCOD9378032 Si02
#       7
#     8   8   8   8   8   8   8
#     4  10  18  30  47  66  91 125 158 190 228 275
#     4   9  19  31  44  66  95 124 152 181 219 275
#     4  10  19  32  47  68  97 123 151 186 227 276
#     4  10  18  29  44  66  96 126 152 180 224 278
#     4   9  18  32  47  66  90 121 160 197 229 270
#     4   9  19  30  43  67  95 123 157 191 226 274
#     4   9  16  28  45  65  94 124 151 183 224 274
#
# _framework density 16.474411
#
# number of rings (size 3 to 8) (size 9 to 14) (size 15 to 20)
#    0.000    2.571    1.429    2.143    2.000    2.857 
#    0.000    0.000    0.000    0.000    0.000    1.000 
#    0.000    0.000    0.000    0.000    0.000    0.000 
#
# Total GULP energy -155872.177616 kJ/mol
# GULP energy per Si atom -5566.863486 kJ/mol
# Density = 1.643691 g / cm^3
# Si number density = 16.474411 Si / 1000 Ang^3
#
#
#
# Elastic Constant Matrix: (Units=GPa)
#
#
# Indices 1 2 3 4 5 6 
#
# 1 59.1306 -7.5964 -4.9086 0.0000 0.0000 -0.0001
# 2 -7.5964 23.9823 7.1257 0.0001 0.0000 0.0002
# 3 -4.9086 7.1257 94.9516 0.0008 0.0001 0.0014
# 4 0.0000 0.0001 0.0008 11.1563 0.0000 0.0007
# 5 0.0000 0.0000 0.0001 0.0000 20.3813 -0.0002
# 6 -0.0001 0.0002 0.0014 0.0007 -0.0002 -36.9398
#
#
#
# Elastic Compliance Matrix: (Units=1/GPa)
#
#
# Indices 1 2 3 4 5 6 
#
# 1 0.017653 0.005442 0.000504 0.000000 0.000000 0.000000
# 2 0.005442 0.044326 -0.003045 0.000000 0.000000 0.000000
# 3 0.000504 -0.003045 0.010786 -0.000001 0.000000 0.000000
# 4 0.000000 0.000000 -0.000001 0.089635 0.000000 0.000002
# 5 0.000000 0.000000 0.000000 0.000000 0.049065 0.000000
# 6 0.000000 0.000000 0.000000 0.000002 0.000000 -0.027071
#
#
# Mechanical properties :
#
#
# Convention : Reuss Voigt Hill
#
# Bulk Modulus (GPa) = 12.72810 18.58954 15.65882
# Shear Modulus (GPa) = 24.41633 11.14915 17.78274
#
# Velocity S-wave (km/s) = 3.85395 2.60428 3.28901
# Velocity P-wave (km/s) = 5.24849 4.51125 4.89377
#
# Compressibility (1/GPa) = 0.07856631
#
# Stress axis : x y z
#
# Youngs Moduli (GPa) = 56.64872 22.56017 92.71042
#
# Poissons Ratio (x) = -0.12277 -0.04674
# Poissons Ratio (y) = -0.30827 0.28232
# Poissons Ratio (z) = -0.02856 0.06870
#
# Static dielectric constant tensor:
#      x y z
#    x 1.572380 0.000000 0.000000 
#    y 0.000000 1.549910 0.000000 
#    z 0.000000 0.000000 1.590820 
# 
# From -- ./inp_files/6186.got.cif
#   From: 2010.05.17/outbox.cif.g08.bks.cpg/sg46_4_cif.got.tgz:6186.got - 2010.06.03 19:58:25.
