data_PCOD9378011
_publ_section_title
;
Structure prediction by ZEFSAII (Michael W. Deem and Ramdas Pophale) SiO2 
 PCOD9378011
Probable space group: I M A 2
;
_chemical_formula_sum "Si O2"
_cell_formula_units_Z 64
_cell_length_a 8.263221
_cell_length_b 21.678973
_cell_length_c 17.326713
_cell_angle_alpha 90.000000
_cell_angle_beta 90.000000
_cell_angle_gamma 90.000000
_cell_volume 3103.875225
_symmetry_space_group_name_H-M "I M A 2"
_symmetry_group_IT_number 46
_symmetry_cell_setting 'orthorhombic'
loop_
_space_group_symop_operation_xyz
x,y,z
-x,-y,z
1/2-x,y,z
1/2+x,-y,z
1/2+x,1/2+y,1/2+z
1/2-x,1/2-y,1/2+z
-x,1/2+y,1/2+z
x,1/2-y,1/2+z
loop_
_atom_site_type_symbol
_atom_site_label
_atom_site_fract_x
_atom_site_fract_y
_atom_site_fract_z
Si Si1 0.559365 0.427948 0.179500
Si Si2 0.945168 0.928835 0.148061
Si Si3 0.061239 0.133075 0.302624
Si Si4 0.062886 0.065441 0.451292
Si Si5 0.934361 0.331988 0.051182
Si Si6 0.559220 0.242141 0.408562
Si Si7 0.558971 0.069377 0.986279
Si Si8 0.563880 0.631316 0.335449
O O1 0.500000 0.500000 0.171838
O O2 0.750000 0.430939 0.162665
O O3 0.493171 0.371871 0.123404
O O4 0.530555 0.401933 0.265773
O O5 0.750000 0.928986 0.144774
O O6 0.000010 0.887439 0.219863
O O7 0.000000 0.000000 0.159213
O O8 0.014647 0.901550 0.068572
O O9 0.250000 0.151751 0.295928
O O10 0.057151 0.074328 0.359603
O O11 0.972171 0.186666 0.348696
O O12 0.250000 0.076942 0.474729
O O13 0.942061 0.114138 0.487871
O O14 0.000000 0.000000 0.476351
O O15 0.750000 0.314520 0.072000
O O16 0.005125 0.276853 0.995460
O O17 0.750000 0.251853 0.418903
O O18 0.488798 0.301216 0.364617
O O19 0.750000 0.073868 0.972206
O O20 0.462840 0.093222 0.913289
O O21 0.500000 0.000000 0.996917
O O22 0.750000 0.632254 0.311577
#
# Coordination Sequence:
#
# PCOD9378011 Si02
#       8
#     8   8   8   8   8   8   8   8
#     4  11  23  41  65  96 129 162 202 257 314 373
#     4  10  19  33  54  83 119 154 195 243 294 349
#     4   9  19  34  52  78 114 156 198 243 291 347
#     4  10  18  28  47  76 112 153 196 240 291 349
#     4   9  20  38  60  86 119 156 197 246 300 360
#     4  10  21  40  63  87 118 159 205 251 297 356
#     4  11  22  39  62  88 117 150 191 242 299 357
#     4  12  25  43  64  88 118 158 202 250 305 365
#
# _framework density 20.619385999999999
#
# number of rings (size 3 to 8) (size 9 to 14) (size 15 to 20)
#    0.000    1.750    0.000    5.625    0.000    4.000 
#    2.250    0.000    0.000    0.000    0.000    0.000 
#    0.000    0.000    0.000    0.000    0.000    0.000 
#
# Total GULP energy -178188.368477 kJ/mol
# GULP energy per Si atom -5568.386515 kJ/mol
# Density = 2.057246 g / cm^3
# Si number density = 20.619386 Si / 1000 Ang^3
#
#
#
# Elastic Constant Matrix: (Units=GPa)
#
#
# Indices 1 2 3 4 5 6 
#
# 1 45.7374 4.7486 -7.0952 0.0000 0.0000 0.0000
# 2 4.7486 52.6715 26.0004 0.0000 0.0000 0.0000
# 3 -7.0952 26.0004 125.1724 0.0000 0.0000 0.0000
# 4 0.0000 0.0000 0.0000 52.9699 0.0000 0.0000
# 5 0.0000 0.0000 0.0000 0.0000 24.8184 0.0000
# 6 0.0000 0.0000 0.0000 0.0000 0.0000 25.2062
#
#
#
# Elastic Compliance Matrix: (Units=1/GPa)
#
#
# Indices 1 2 3 4 5 6 
#
# 1 0.022464 -0.002957 0.001888 0.000000 0.000000 0.000000
# 2 -0.002957 0.021544 -0.004643 0.000000 0.000000 0.000000
# 3 0.001888 -0.004643 0.009060 0.000000 0.000000 0.000000
# 4 0.000000 0.000000 0.000000 0.018879 0.000000 0.000000
# 5 0.000000 0.000000 0.000000 0.000000 0.040293 0.000000
# 6 0.000000 0.000000 0.000000 0.000000 0.000000 0.039673
#
#
# Mechanical properties :
#
#
# Convention : Reuss Voigt Hill
#
# Bulk Modulus (GPa) = 24.01313 30.09876 27.05595
# Shear Modulus (GPa) = 28.21390 33.92739 31.07064
#
# Velocity S-wave (km/s) = 3.70309 4.06077 3.88605
# Velocity P-wave (km/s) = 5.47312 6.05107 5.76934
#
# Compressibility (1/GPa) = 0.04164388
#
# Stress axis : x y z
#
# Youngs Moduli (GPa) = 44.51617 46.41675 110.37128
#
# Poissons Ratio (x) = 0.13725 -0.20833
# Poissons Ratio (y) = 0.13163 0.51241
# Poissons Ratio (z) = -0.08403 0.21550
#
# Static dielectric constant tensor:
#      x y z
#    x 1.753280 0.000000 0.000000 
#    y 0.000000 1.723590 0.000000 
#    z 0.000000 0.000000 1.770770 
# 
# From -- ./inp_files/18578.got.cif
#   From: 2010.05.17/outbox.cif.g08.bks.cpg/sg46_10_cif.got.tgz:18578.got - 2010.06.03 19:58:25.
