data_PCOD9378751
_publ_section_title
;
Structure prediction by ZEFSAII (Michael W. Deem and Ramdas Pophale) SiO2 
 PCOD9378751
Probable space group: I M A 2
;
_chemical_formula_sum "Si O2"
_cell_formula_units_Z 64
_cell_length_a 8.818538
_cell_length_b 23.572774
_cell_length_c 19.553244
_cell_angle_alpha 90.000000
_cell_angle_beta 90.000000
_cell_angle_gamma 90.000000
_cell_volume 4064.677589
_symmetry_space_group_name_H-M "I M A 2"
_symmetry_group_IT_number 46
_symmetry_cell_setting 'orthorhombic'
loop_
_space_group_symop_operation_xyz
x,y,z
-x,-y,z
1/2-x,y,z
1/2+x,-y,z
1/2+x,1/2+y,1/2+z
1/2-x,1/2-y,1/2+z
-x,1/2+y,1/2+z
x,1/2-y,1/2+z
loop_
_atom_site_type_symbol
_atom_site_label
_atom_site_fract_x
_atom_site_fract_y
_atom_site_fract_z
Si Si1 0.930906 0.664550 0.028810
Si Si2 0.431175 0.249812 0.312937
Si Si3 0.069060 0.062466 0.172981
Si Si4 0.931073 0.272969 0.452135
Si Si5 0.567994 0.376487 0.806234
Si Si6 0.569054 0.734568 0.159449
Si Si7 0.069686 0.842400 0.084841
Si Si8 0.569104 0.437733 0.949967
O O1 0.750000 0.662550 0.019914
O O2 0.964473 0.684093 0.106484
O O3 0.997755 0.714857 0.981681
O O4 0.002810 0.605799 0.005393
O O5 0.250000 0.246441 0.320841
O O6 0.502234 0.282131 0.377167
O O7 0.499269 0.186315 0.312279
O O8 0.465505 0.276149 0.238604
O O9 0.250000 0.059946 0.177438
O O10 0.002754 0.091930 0.241218
O O11 0.017258 0.102396 0.110515
O O12 0.000000 0.000000 0.166775
O O13 0.750000 0.266032 0.448855
O O14 0.965409 0.321463 0.507959
O O15 0.750000 0.372846 0.798744
O O16 0.533402 0.411231 0.875324
O O17 0.750000 0.746740 0.154242
O O18 0.480930 0.789999 0.133069
O O19 0.250000 0.850851 0.091137
O O20 0.500000 0.500000 0.955925
O O21 0.750000 0.440318 0.956183
#
# Coordination Sequence:
#
# PCOD9378751 Si02
#       8
#     8   8   8   8   8   8   8   8
#     4  10  19  33  52  72  98 131 169 211 254 298
#     4  11  20  31  51  77 105 138 171 206 252 303
#     4  12  24  37  53  73 101 136 177 215 253 303
#     4  10  20  33  50  74 103 133 169 210 254 304
#     4  11  22  35  50  72 104 138 175 213 247 293
#     4   9  19  33  50  74 101 131 167 208 253 304
#     4  10  20  34  52  73  99 133 171 213 256 298
#     4  11  23  36  51  71  99 134 175 212 249 297
#
# _framework density 15.745405999999999
#
# number of rings (size 3 to 8) (size 9 to 14) (size 15 to 20)
#    0.000    1.500    2.500    3.750    0.000    5.000 
#    0.000    0.000    0.000    0.000    0.000    0.875 
#    0.000    6.000    0.000    0.000    0.000    0.000 
#
# Total GULP energy -178724.601706 kJ/mol
# GULP energy per Si atom -5585.143803 kJ/mol
# Density = 1.570957 g / cm^3
# Si number density = 15.745406 Si / 1000 Ang^3
#
#
#
# Elastic Constant Matrix: (Units=GPa)
#
#
# Indices 1 2 3 4 5 6 
#
# 1 69.0285 42.7360 57.4857 0.0000 0.0000 0.0000
# 2 42.7360 76.7061 54.0283 0.0000 0.0000 0.0000
# 3 57.4857 54.0283 133.1993 0.0000 0.0000 0.0000
# 4 0.0000 0.0000 0.0000 17.6497 0.0000 0.0000
# 5 0.0000 0.0000 0.0000 0.0000 25.7842 0.0000
# 6 0.0000 0.0000 0.0000 0.0000 0.0000 25.3650
#
#
#
# Elastic Compliance Matrix: (Units=1/GPa)
#
#
# Indices 1 2 3 4 5 6 
#
# 1 0.026783 -0.009492 -0.007709 0.000000 0.000000 0.000000
# 2 -0.009492 0.021615 -0.004671 0.000000 0.000000 0.000000
# 3 -0.007709 -0.004671 0.012729 0.000000 0.000000 0.000000
# 4 0.000000 0.000000 0.000000 0.056658 0.000000 0.000000
# 5 0.000000 0.000000 0.000000 0.000000 0.038784 0.000000
# 6 0.000000 0.000000 0.000000 0.000000 0.000000 0.039424
#
#
# Mechanical properties :
#
#
# Convention : Reuss Voigt Hill
#
# Bulk Modulus (GPa) = 57.52539 65.27044 61.39791
# Shear Modulus (GPa) = 20.36391 22.07202 21.21797
#
# Velocity S-wave (km/s) = 3.60018 3.74813 3.67490
# Velocity P-wave (km/s) = 7.34137 7.76370 7.55549
#
# Compressibility (1/GPa) = 0.01738363
#
# Stress axis : x y z
#
# Youngs Moduli (GPa) = 37.33679 46.26348 78.56020
#
# Poissons Ratio (x) = 0.43915 0.60560
# Poissons Ratio (y) = 0.35441 0.36695
# Poissons Ratio (z) = 0.28782 0.21609
#
# Static dielectric constant tensor:
#      x y z
#    x 1.525050 0.000000 0.000000 
#    y 0.000000 1.490690 0.000000 
#    z 0.000000 0.000000 1.542280 
# 
# From -- ./inp_files/18565.got.cif
#   From: 2010.05.17/outbox.cif.g08.bks.cpg/sg46_10_cif.got.tgz:18565.got - 2010.06.03 19:58:25.
