data_PCOD9378966
_publ_section_title
;
Structure prediction by ZEFSAII (Michael W. Deem and Ramdas Pophale) SiO2 
 PCOD9378966
Probable space group: I M A 2
;
_chemical_formula_sum "Si O2"
_cell_formula_units_Z 64
_cell_length_a 7.610696
_cell_length_b 24.463220
_cell_length_c 16.116362
_cell_angle_alpha 90.000000
_cell_angle_beta 90.000000
_cell_angle_gamma 90.000000
_cell_volume 3000.578615
_symmetry_space_group_name_H-M "I M A 2"
_symmetry_group_IT_number 46
_symmetry_cell_setting 'orthorhombic'
loop_
_space_group_symop_operation_xyz
x,y,z
-x,-y,z
1/2-x,y,z
1/2+x,-y,z
1/2+x,1/2+y,1/2+z
1/2-x,1/2-y,1/2+z
-x,1/2+y,1/2+z
x,1/2-y,1/2+z
loop_
_atom_site_type_symbol
_atom_site_label
_atom_site_fract_x
_atom_site_fract_y
_atom_site_fract_z
Si Si1 0.045946 0.436419 0.071560
Si Si2 0.035913 0.751843 0.967666
Si Si3 0.039030 0.563866 0.566940
Si Si4 0.461715 0.866757 0.409141
Si Si5 0.545377 0.135641 0.726188
Si Si6 0.535063 0.250925 0.659993
Si Si7 0.535449 0.129562 0.906475
Si Si8 0.964798 0.368394 0.725941
O O1 0.250000 0.431479 0.087893
O O2 0.000000 0.500000 0.066644
O O3 0.960497 0.405421 0.149178
O O4 0.006697 0.405996 0.985298
O O5 0.250000 0.750971 0.966230
O O6 0.975629 0.694891 0.928330
O O7 0.983960 0.807393 0.922088
O O8 0.982011 0.754290 0.063827
O O9 0.250000 0.570624 0.567374
O O10 0.972022 0.592834 0.483071
O O11 0.973682 0.593974 0.650115
O O12 0.000000 0.500000 0.567676
O O13 0.250000 0.864408 0.406452
O O14 0.522991 0.884978 0.318094
O O15 0.750000 0.146978 0.742604
O O16 0.469761 0.194350 0.699140
O O17 0.475445 0.113739 0.813972
O O18 0.750000 0.249947 0.659950
O O19 0.483405 0.305766 0.707638
O O20 0.750000 0.126704 0.910299
O O21 0.750000 0.369731 0.725322
#
# Coordination Sequence:
#
# PCOD9378966 Si02
#       8
#     8   8   8   8   8   8   8   8
#     4  12  26  43  60  78 106 145 187 234 281 332
#     4   9  14  25  51  86 117 143 176 220 267 319
#     4  10  20  35  52  74 106 145 185 226 267 316
#     4  10  19  34  58  88 114 141 178 226 277 329
#     4  10  19  34  58  88 114 141 178 226 277 329
#     4   9  14  25  51  86 117 143 176 220 267 319
#     4   9  17  30  53  84 116 145 179 223 273 322
#     4   9  17  30  53  84 116 145 179 223 273 322
#
# _framework density 21.329221
#
# number of rings (size 3 to 8) (size 9 to 14) (size 15 to 20)
#    0.000    2.250    2.500    1.875    0.000    4.000 
#    0.000    3.750    0.000    6.000    0.000    0.000 
#    0.000    0.000    0.000    0.000    0.000    0.000 
#
# Total GULP energy -178697.272599 kJ/mol
# GULP energy per Si atom -5584.289769 kJ/mol
# Density = 2.128067 g / cm^3
# Si number density = 21.329221 Si / 1000 Ang^3
#
#
#
# Elastic Constant Matrix: (Units=GPa)
#
#
# Indices 1 2 3 4 5 6 
#
# 1 38.7722 -13.6383 -6.8414 0.0000 0.0000 0.0000
# 2 -13.6383 144.3693 78.7431 0.0000 0.0000 0.0000
# 3 -6.8414 78.7431 184.4876 0.0002 0.0000 0.0000
# 4 0.0000 0.0000 0.0002 2.3364 0.0000 0.0000
# 5 0.0000 0.0000 0.0000 0.0000 -8.3286 0.0000
# 6 0.0000 0.0000 0.0000 0.0000 0.0000 9.0464
#
#
#
# Elastic Compliance Matrix: (Units=1/GPa)
#
#
# Indices 1 2 3 4 5 6 
#
# 1 0.026680 0.002582 -0.000113 0.000000 0.000000 0.000000
# 2 0.002582 0.009278 -0.003864 0.000000 0.000000 0.000000
# 3 -0.000113 -0.003864 0.007066 -0.000001 0.000000 0.000000
# 4 0.000000 0.000000 -0.000001 0.428015 0.000001 0.000000
# 5 0.000000 0.000000 0.000000 0.000001 -0.120069 0.000000
# 6 0.000000 0.000000 0.000000 0.000000 0.000000 0.110541
#
#
# Mechanical properties :
#
#
# Convention : Reuss Voigt Hill
#
# Bulk Modulus (GPa) = 24.85490 53.79510 39.32500
# Shear Modulus (GPa) = 10.46653 21.23523 15.85088
#
# Velocity S-wave (km/s) = 2.21761 3.15873 2.72904
# Velocity P-wave (km/s) = 4.27028 6.21124 5.32986
#
# Compressibility (1/GPa) = 0.04023352
#
# Stress axis : x y z
#
# Youngs Moduli (GPa) = 37.48134 107.77764 141.52932
#
# Poissons Ratio (x) = -0.27826 0.01593
# Poissons Ratio (y) = -0.09677 0.54693
# Poissons Ratio (z) = 0.00422 0.41650
#
# Static dielectric constant tensor:
#      x y z
#    x 1.817470 0.000000 0.000000 
#    y 0.000000 1.707200 0.000000 
#    z 0.000000 0.000000 1.792630 
# 
# From -- ./inp_files/14534.got.cif
#   From: 2010.05.17/outbox.cif.g08.bks.cpg/sg46_8_cif.got.tgz:14534.got - 2010.06.03 19:58:25.
