data_PCOD9378989
_publ_section_title
;
Structure prediction by ZEFSAII (Michael W. Deem and Ramdas Pophale) SiO2 
 PCOD9378989
Probable space group: I M A 2
;
_chemical_formula_sum "Si O2"
_cell_formula_units_Z 48
_cell_length_a 14.164961
_cell_length_b 21.727269
_cell_length_c 9.007361
_cell_angle_alpha 90.000000
_cell_angle_beta 90.000000
_cell_angle_gamma 90.000000
_cell_volume 2772.158727
_symmetry_space_group_name_H-M "I M A 2"
_symmetry_group_IT_number 46
_symmetry_cell_setting 'orthorhombic'
loop_
_space_group_symop_operation_xyz
x,y,z
-x,-y,z
1/2-x,y,z
1/2+x,-y,z
1/2+x,1/2+y,1/2+z
1/2-x,1/2-y,1/2+z
-x,1/2+y,1/2+z
x,1/2-y,1/2+z
loop_
_atom_site_type_symbol
_atom_site_label
_atom_site_fract_x
_atom_site_fract_y
_atom_site_fract_z
Si Si1 0.353378 0.662689 0.359560
Si Si2 0.860750 0.438666 0.777106
Si Si3 0.139815 0.420410 0.732322
Si Si4 0.923941 0.249729 0.614700
Si Si5 0.516940 0.431349 0.485230
Si Si6 0.001018 0.336247 0.873048
O O1 0.250000 0.632621 0.364645
O O2 0.366088 0.707955 0.500573
O O3 0.361345 0.704791 0.214493
O O4 0.442521 0.616619 0.367666
O O5 0.750000 0.424786 0.787894
O O6 0.876064 0.511566 0.802931
O O7 0.899969 0.431927 0.609431
O O8 0.922668 0.391109 0.872411
O O9 0.250000 0.414538 0.699780
O O10 0.075624 0.415382 0.583329
O O11 0.099721 0.369560 0.843874
O O12 0.977034 0.294140 0.729894
O O13 0.991383 0.207105 0.514714
O O14 0.500000 0.500000 0.426351
#
# Coordination Sequence:
#
# PCOD9378989 Si02
#       6
#     8   8   8   8   8   8
#     4  11  20  34  53  79 107 135 166 204 255 313
#     4   9  16  28  52  79 101 127 166 212 258 306
#     4   9  17  32  55  78  98 131 177 218 252 289
#     4  10  22  33  51  73 107 139 168 198 251 309
#     4   9  17  30  49  75 105 135 167 209 254 297
#     4  10  19  35  51  74 105 135 169 211 252 301
#
# _framework density 17.315024999999999
#
# number of rings (size 3 to 8) (size 9 to 14) (size 15 to 20)
#    0.000    2.333    3.333    2.500    0.000    4.000 
#    0.000    2.500    0.000    1.000    0.000    0.000 
#    0.000    0.000    0.000    0.000    0.000    0.000 
#
# Total GULP energy -133673.720527 kJ/mol
# GULP energy per Si atom -5569.738355 kJ/mol
# Density = 1.727561 g / cm^3
# Si number density = 17.315025 Si / 1000 Ang^3
#
#
#
# Elastic Constant Matrix: (Units=GPa)
#
#
# Indices 1 2 3 4 5 6 
#
# 1 105.5543 53.7540 17.6832 0.0000 0.0000 0.0000
# 2 53.7540 87.5879 25.6538 0.0000 0.0000 0.0000
# 3 17.6832 25.6538 52.3469 0.0000 0.0000 0.0000
# 4 0.0000 0.0000 0.0000 9.6063 0.0000 0.0000
# 5 0.0000 0.0000 0.0000 0.0000 8.2830 0.0000
# 6 0.0000 0.0000 0.0000 0.0000 0.0000 21.5839
#
#
#
# Elastic Compliance Matrix: (Units=1/GPa)
#
#
# Indices 1 2 3 4 5 6 
#
# 1 0.013797 -0.008293 -0.000597 0.000000 0.000000 0.000000
# 2 -0.008293 0.018315 -0.006174 0.000000 0.000000 0.000000
# 3 -0.000597 -0.006174 0.022331 0.000000 0.000000 0.000000
# 4 0.000000 0.000000 0.000000 0.104099 0.000000 0.000000
# 5 0.000000 0.000000 0.000000 0.000000 0.120729 0.000000
# 6 0.000000 0.000000 0.000000 0.000000 0.000000 0.046331
#
#
# Mechanical properties :
#
#
# Convention : Reuss Voigt Hill
#
# Bulk Modulus (GPa) = 41.12651 48.85236 44.98943
# Shear Modulus (GPa) = 13.74258 17.78785 15.76522
#
# Velocity S-wave (km/s) = 2.82029 3.20864 3.02071
# Velocity P-wave (km/s) = 5.86591 6.48092 6.18106
#
# Compressibility (1/GPa) = 0.02431522
#
# Stress axis : x y z
#
# Youngs Moduli (GPa) = 72.48079 54.60085 44.78133
#
# Poissons Ratio (x) = 0.45278 0.02672
# Poissons Ratio (y) = 0.60105 0.27649
# Poissons Ratio (z) = 0.04325 0.33712
#
# Static dielectric constant tensor:
#      x y z
#    x 1.588000 0.000000 0.000000 
#    y 0.000000 1.634820 0.000000 
#    z 0.000000 0.000000 1.580290 
# 
# From -- ./inp_files/5805.got.cif
#   From: 2010.05.17/outbox.cif.g08.bks.cpg/sg46_3_cif.got.tgz:5805.got - 2010.06.03 19:58:25.
