data_PCOD9378775
_publ_section_title
;
Structure prediction by ZEFSAII (Michael W. Deem and Ramdas Pophale) SiO2 
 PCOD9378775
Probable space group: I M A 2
;
_chemical_formula_sum "Si O2"
_cell_formula_units_Z 48
_cell_length_a 19.544875
_cell_length_b 24.285147
_cell_length_c 4.982847
_cell_angle_alpha 90.000000
_cell_angle_beta 90.000000
_cell_angle_gamma 90.000000
_cell_volume 2365.109138
_symmetry_space_group_name_H-M "I M A 2"
_symmetry_group_IT_number 46
_symmetry_cell_setting 'orthorhombic'
loop_
_space_group_symop_operation_xyz
x,y,z
-x,-y,z
1/2-x,y,z
1/2+x,-y,z
1/2+x,1/2+y,1/2+z
1/2-x,1/2-y,1/2+z
-x,1/2+y,1/2+z
x,1/2-y,1/2+z
loop_
_atom_site_type_symbol
_atom_site_label
_atom_site_fract_x
_atom_site_fract_y
_atom_site_fract_z
Si Si1 0.468519 0.212791 0.137550
Si Si2 0.323459 0.210995 0.264485
Si Si3 0.172975 0.466990 0.181365
Si Si4 0.526314 0.938123 0.809547
Si Si5 0.673488 0.456347 0.683171
Si Si6 0.959461 0.390032 0.810960
O O1 0.469957 0.265081 0.336666
O O2 0.395463 0.182929 0.199802
O O3 0.528392 0.171851 0.215693
O O4 0.250000 0.182081 0.224027
O O5 0.324261 0.236582 0.561515
O O6 0.250000 0.443506 0.215878
O O7 0.106507 0.431315 0.246766
O O8 0.166980 0.518798 0.385694
O O9 0.166850 0.491726 0.884109
O O10 0.483004 0.898785 0.615209
O O11 0.500000 0.000000 0.747404
O O12 0.508577 0.926111 0.116983
O O13 0.750000 0.434049 0.717963
O O14 0.615544 0.413252 0.756550
#
# Coordination Sequence:
#
# PCOD9378775 Si02
#       6
#     8   8   8   8   8   8
#     4  10  21  37  54  76 106 137 181 231 270 312
#     4   8  14  27  48  69  90 123 166 209 257 310
#     4  10  20  34  52  77 114 150 174 213 269 319
#     4  12  21  35  56  82 115 140 178 228 264 329
#     4  10  19  33  53  79 107 142 184 218 258 331
#     4  12  22  35  58  84 106 147 187 223 276 324
#
# _framework density 20.295048000000001
#
# number of rings (size 3 to 8) (size 9 to 14) (size 15 to 20)
#    0.000    1.667    3.333    2.500    0.000    0.000 
#    0.000    1.667    0.000    3.000    0.000    0.000 
#    0.000    0.000    0.000    0.000    0.000    0.000 
#
# Total GULP energy -134007.587459 kJ/mol
# GULP energy per Si atom -5583.649477 kJ/mol
# Density = 2.024886 g / cm^3
# Si number density = 20.295048 Si / 1000 Ang^3
#
#
#
# Elastic Constant Matrix: (Units=GPa)
#
#
# Indices 1 2 3 4 5 6 
#
# 1 112.5838 11.3382 -9.6723 0.0000 0.0000 0.0000
# 2 11.3382 23.6492 -0.9920 0.0000 0.0000 0.0000
# 3 -9.6723 -0.9920 56.2911 0.0000 0.0000 0.0000
# 4 0.0000 0.0000 0.0000 17.1900 0.0000 0.0000
# 5 0.0000 0.0000 0.0000 0.0000 20.8681 0.0000
# 6 0.0000 0.0000 0.0000 0.0000 0.0000 13.7417
#
#
#
# Elastic Compliance Matrix: (Units=1/GPa)
#
#
# Indices 1 2 3 4 5 6 
#
# 1 0.009466 -0.004473 0.001548 0.000000 0.000000 0.000000
# 2 -0.004473 0.044430 0.000014 0.000000 0.000000 0.000000
# 3 0.001548 0.000014 0.018031 0.000000 0.000000 0.000000
# 4 0.000000 0.000000 0.000000 0.058173 0.000000 0.000000
# 5 0.000000 0.000000 0.000000 0.000000 0.047920 0.000000
# 6 0.000000 0.000000 0.000000 0.000000 0.000000 0.072771
#
#
# Mechanical properties :
#
#
# Convention : Reuss Voigt Hill
#
# Bulk Modulus (GPa) = 15.12764 21.54132 18.33448
# Shear Modulus (GPa) = 17.94377 23.14998 20.54687
#
# Velocity S-wave (km/s) = 2.97668 3.38105 3.18529
# Velocity P-wave (km/s) = 4.39138 5.08715 4.75202
#
# Compressibility (1/GPa) = 0.06610416
#
# Stress axis : x y z
#
# Youngs Moduli (GPa) = 105.64428 22.50735 55.46012
#
# Poissons Ratio (x) = 0.10068 -0.08583
# Poissons Ratio (y) = 0.47257 -0.00080
# Poissons Ratio (z) = -0.16350 -0.00032
#
# Static dielectric constant tensor:
#      x y z
#    x 1.771130 0.000000 0.000000 
#    y 0.000000 1.710500 0.000000 
#    z 0.000000 0.000000 1.700130 
# 
# From -- ./inp_files/1701.got.cif
#   From: 2010.05.17/outbox.cif.g08.bks.cpg/sg46_1_cif.got.tgz:1701.got - 2010.06.03 19:58:25.
