data_PCOD9378667
_publ_section_title
;
Structure prediction by ZEFSAII (Michael W. Deem and Ramdas Pophale) SiO2 
 PCOD9378667
Probable space group: I M A 2
;
_chemical_formula_sum "Si O2"
_cell_formula_units_Z 56
_cell_length_a 7.631133
_cell_length_b 16.097120
_cell_length_c 21.121405
_cell_angle_alpha 90.000000
_cell_angle_beta 90.000000
_cell_angle_gamma 90.000000
_cell_volume 2594.537837
_symmetry_space_group_name_H-M "I M A 2"
_symmetry_group_IT_number 46
_symmetry_cell_setting 'orthorhombic'
loop_
_space_group_symop_operation_xyz
x,y,z
-x,-y,z
1/2-x,y,z
1/2+x,-y,z
1/2+x,1/2+y,1/2+z
1/2-x,1/2-y,1/2+z
-x,1/2+y,1/2+z
x,1/2-y,1/2+z
loop_
_atom_site_type_symbol
_atom_site_label
_atom_site_fract_x
_atom_site_fract_y
_atom_site_fract_z
Si Si1 0.539882 0.619021 0.788140
Si Si2 0.460470 0.187148 0.765791
Si Si3 0.465512 0.257278 0.488481
Si Si4 0.057171 0.588463 0.652810
Si Si5 0.040636 0.087002 0.424749
Si Si6 0.447263 0.233052 0.629268
Si Si7 0.960720 0.597208 0.392692
O O1 0.750000 0.605531 0.781353
O O2 0.513346 0.718494 0.788998
O O3 0.442039 0.582059 0.728459
O O4 0.470764 0.584331 0.853631
O O5 0.250000 0.174422 0.760701
O O6 0.526398 0.189056 0.692234
O O7 0.525031 0.127472 0.822557
O O8 0.250000 0.262281 0.491623
O O9 0.519133 0.173749 0.452764
O O10 0.529432 0.238632 0.559811
O O11 0.521172 0.339125 0.448537
O O12 0.250000 0.608730 0.629043
O O13 0.000000 0.500000 0.625765
O O14 0.937641 0.668391 0.643849
O O15 0.250000 0.093588 0.421089
O O16 0.000000 0.000000 0.458320
O O17 0.250000 0.198973 0.622327
O O18 0.750000 0.606057 0.390960
O O19 0.000000 0.500000 0.403767
#
# Coordination Sequence:
#
# PCOD9378667 Si02
#       7
#     8   8   8   8   8   8   8
#     4   9  16  30  52  75 101 134 171 211 258 311
#     4   8  14  29  53  75  98 132 174 215 260 312
#     4   9  18  35  57  78 106 143 184 221 267 332
#     4  11  21  32  47  72 105 137 170 213 264 320
#     4  10  19  32  52  78 106 138 174 217 265 320
#     4   9  18  34  56  76  96 137 184 223 267 322
#     4  10  19  34  55  80 108 143 182 228 272 321
#
# _framework density 21.583804000000001
#
# number of rings (size 3 to 8) (size 9 to 14) (size 15 to 20)
#    0.000    2.571    1.429    2.571    0.000    2.286 
#    0.000    7.143    0.000    0.000    0.000    0.000 
#    0.000    0.000    0.000    0.000    0.000    0.000 
#
# Total GULP energy -155902.758245 kJ/mol
# GULP energy per Si atom -5567.955652 kJ/mol
# Density = 2.153468 g / cm^3
# Si number density = 21.583804 Si / 1000 Ang^3
#
#
#
# Elastic Constant Matrix: (Units=GPa)
#
#
# Indices 1 2 3 4 5 6 
#
# 1 51.3604 -1.3039 -1.7069 0.0000 0.0000 0.0000
# 2 -1.3039 100.4290 42.7835 0.0000 0.0000 0.0000
# 3 -1.7069 42.7835 135.5978 0.0000 0.0000 0.0000
# 4 0.0000 0.0000 0.0000 0.6462 0.0000 0.0000
# 5 0.0000 0.0000 0.0000 0.0000 4.3865 0.0000
# 6 0.0000 0.0000 0.0000 0.0000 0.0000 17.1240
#
#
#
# Elastic Compliance Matrix: (Units=1/GPa)
#
#
# Indices 1 2 3 4 5 6 
#
# 1 0.019481 0.000172 0.000191 0.000000 0.000000 0.000000
# 2 0.000172 0.011505 -0.003628 0.000000 0.000000 0.000000
# 3 0.000191 -0.003628 0.008522 0.000000 0.000000 0.000000
# 4 0.000000 0.000000 0.000000 1.547540 0.000000 0.000000
# 5 0.000000 0.000000 0.000000 0.000000 0.227975 0.000000
# 6 0.000000 0.000000 0.000000 0.000000 0.000000 0.058398
#
#
# Mechanical properties :
#
#
# Convention : Reuss Voigt Hill
#
# Bulk Modulus (GPa) = 30.32390 40.77029 35.54709
# Shear Modulus (GPa) = 2.64418 20.93896 11.79157
#
# Velocity S-wave (km/s) = 1.10803 3.11806 2.33988
# Velocity P-wave (km/s) = 3.96445 5.64742 4.87905
#
# Compressibility (1/GPa) = 0.03297729
#
# Stress axis : x y z
#
# Youngs Moduli (GPa) = 51.33215 86.91863 117.34593
#
# Poissons Ratio (x) = -0.01491 -0.02243
# Poissons Ratio (y) = -0.00880 0.42572
# Poissons Ratio (z) = -0.00981 0.31533
#
# Static dielectric constant tensor:
#      x y z
#    x 1.782910 0.000000 0.000000 
#    y 0.000000 1.816890 0.000000 
#    z 0.000000 0.000000 1.867380 
# 
# From -- ./inp_files/21102.got.cif
#   From: 2010.05.17/outbox.cif.g08.bks.cpg/sg46_11_cif.got.tgz:21102.got - 2010.06.03 19:58:25.
