data_PCOD9378536
_publ_section_title
;
Structure prediction by ZEFSAII (Michael W. Deem and Ramdas Pophale) SiO2 
 PCOD9378536
Probable space group: I M A 2
;
_chemical_formula_sum "Si O2"
_cell_formula_units_Z 64
_cell_length_a 8.846237
_cell_length_b 14.682799
_cell_length_c 24.869752
_cell_angle_alpha 90.000000
_cell_angle_beta 90.000000
_cell_angle_gamma 90.000000
_cell_volume 3230.270405
_symmetry_space_group_name_H-M "I M A 2"
_symmetry_group_IT_number 46
_symmetry_cell_setting 'orthorhombic'
loop_
_space_group_symop_operation_xyz
x,y,z
-x,-y,z
1/2-x,y,z
1/2+x,-y,z
1/2+x,1/2+y,1/2+z
1/2-x,1/2-y,1/2+z
-x,1/2+y,1/2+z
x,1/2-y,1/2+z
loop_
_atom_site_type_symbol
_atom_site_label
_atom_site_fract_x
_atom_site_fract_y
_atom_site_fract_z
Si Si1 0.581066 0.378408 0.732110
Si Si2 0.068538 0.100234 0.956842
Si Si3 0.067121 0.401318 0.120058
Si Si4 0.079102 0.079452 0.123015
Si Si5 0.578583 0.339350 0.232354
Si Si6 0.927236 0.594606 0.841702
Si Si7 0.069728 0.196381 0.844208
Si Si8 0.422366 0.244578 0.042762
O O1 0.750000 0.410753 0.746120
O O2 0.524270 0.409700 0.674776
O O3 0.586007 0.269747 0.727954
O O4 0.463488 0.404932 0.778039
O O5 0.250000 0.094086 0.967046
O O6 0.043592 0.134526 0.896117
O O7 0.009492 0.182973 0.995016
O O8 0.000000 0.000000 0.964465
O O9 0.250000 0.399782 0.120139
O O10 0.012258 0.333194 0.072392
O O11 0.000000 0.500000 0.109144
O O12 0.010785 0.373530 0.179954
O O13 0.250000 0.055359 0.137028
O O14 0.084195 0.172519 0.091222
O O15 0.000000 0.000000 0.089022
O O16 0.750000 0.376580 0.231549
O O17 0.503648 0.348749 0.291193
O O18 0.750000 0.590735 0.853004
O O19 0.982636 0.698157 0.856090
O O20 0.000000 0.500000 0.863273
O O21 0.250000 0.203441 0.834450
O O22 0.250000 0.268288 0.025544
#
# Coordination Sequence:
#
# PCOD9378536 Si02
#       8
#     8   8   8   8   8   8   8   8
#     4  10  19  31  48  74 108 147 186 230 276 333
#     4  10  21  41  65  90 116 150 195 242 294 350
#     4  11  22  39  61  87 119 156 196 239 291 352
#     4  11  20  31  48  75 107 145 185 226 278 335
#     4  10  20  35  57  85 118 154 196 243 292 344
#     4  10  19  32  50  75 108 150 192 233 282 338
#     4   9  20  37  59  84 117 159 199 241 295 356
#     4   9  20  38  60  82 113 151 188 234 289 346
#
# _framework density 19.812583
#
# number of rings (size 3 to 8) (size 9 to 14) (size 15 to 20)
#    0.000    2.000    1.250    2.625    0.000    2.500 
#    0.000    3.750    0.000    0.000    0.000    0.000 
#    0.000    0.000    0.000    0.000    0.000    0.000 
#
# Total GULP energy -178304.500916 kJ/mol
# GULP energy per Si atom -5572.015654 kJ/mol
# Density = 1.976749 g / cm^3
# Si number density = 19.812583 Si / 1000 Ang^3
#
#
#
# Elastic Constant Matrix: (Units=GPa)
#
#
# Indices 1 2 3 4 5 6 
#
# 1 46.5340 29.9463 28.4917 0.0000 0.0000 0.0000
# 2 29.9463 117.7637 51.4123 0.0000 0.0000 0.0000
# 3 28.4917 51.4123 93.6699 0.0000 0.0000 0.0000
# 4 0.0000 0.0000 0.0000 6.0072 0.0000 0.0000
# 5 0.0000 0.0000 0.0000 0.0000 0.3187 0.0000
# 6 0.0000 0.0000 0.0000 0.0000 0.0000 29.5377
#
#
#
# Elastic Compliance Matrix: (Units=1/GPa)
#
#
# Indices 1 2 3 4 5 6 
#
# 1 0.028105 -0.004491 -0.006084 0.000000 0.000000 0.000000
# 2 -0.004491 0.011885 -0.005157 0.000000 0.000000 0.000000
# 3 -0.006084 -0.005157 0.015357 0.000000 0.000000 0.000000
# 4 0.000000 0.000000 0.000000 0.166468 0.000000 0.000000
# 5 0.000000 0.000000 0.000000 0.000000 3.137800 0.000000
# 6 0.000000 0.000000 0.000000 0.000000 0.000000 0.033855
#
#
# Mechanical properties :
#
#
# Convention : Reuss Voigt Hill
#
# Bulk Modulus (GPa) = 41.87102 53.07424 47.47263
# Shear Modulus (GPa) = 1.45650 17.04721 9.25186
#
# Velocity S-wave (km/s) = 0.85833 2.93648 2.16329
# Velocity P-wave (km/s) = 4.70763 6.19221 5.50024
#
# Compressibility (1/GPa) = 0.02388287
#
# Stress axis : x y z
#
# Youngs Moduli (GPa) = 35.58143 84.13899 65.11684
#
# Poissons Ratio (x) = 0.37785 0.39616
# Poissons Ratio (y) = 0.15979 0.33583
# Poissons Ratio (z) = 0.21647 0.43394
#
# Static dielectric constant tensor:
#      x y z
#    x 1.723430 0.000000 0.000000 
#    y 0.000000 1.756240 0.000000 
#    z 0.000000 0.000000 1.696320 
# 
# From -- ./inp_files/23241.got.cif
#   From: 2010.05.17/outbox.cif.g08.bks.cpg/sg46_12_cif.got.tgz:23241.got - 2010.06.03 19:58:25.
