data_PCOD9378776
_publ_section_title
;
Structure prediction by ZEFSAII (Michael W. Deem and Ramdas Pophale) SiO2 
 PCOD9378776
Probable space group: I M A 2
;
_chemical_formula_sum "Si O2"
_cell_formula_units_Z 48
_cell_length_a 8.604003
_cell_length_b 9.647162
_cell_length_c 32.190701
_cell_angle_alpha 90.000000
_cell_angle_beta 90.000000
_cell_angle_gamma 90.000000
_cell_volume 2671.963731
_symmetry_space_group_name_H-M "I M A 2"
_symmetry_group_IT_number 46
_symmetry_cell_setting 'orthorhombic'
loop_
_space_group_symop_operation_xyz
x,y,z
-x,-y,z
1/2-x,y,z
1/2+x,-y,z
1/2+x,1/2+y,1/2+z
1/2-x,1/2-y,1/2+z
-x,1/2+y,1/2+z
x,1/2-y,1/2+z
loop_
_atom_site_type_symbol
_atom_site_label
_atom_site_fract_x
_atom_site_fract_y
_atom_site_fract_z
Si Si1 0.436983 0.156561 0.973280
Si Si2 0.437304 0.342376 0.381868
Si Si3 0.563244 0.344443 0.807343
Si Si4 0.063729 0.653897 0.136698
Si Si5 0.563333 0.656529 0.563744
Si Si6 0.437376 0.653982 0.231020
O O1 0.250000 0.153114 0.973264
O O2 0.483936 0.212654 0.928050
O O3 0.500000 0.000000 0.973553
O O4 0.484723 0.216468 0.018134
O O5 0.500000 0.500000 0.377443
O O6 0.250000 0.346297 0.379344
O O7 0.503757 0.244876 0.346237
O O8 0.500000 0.500000 0.808470
O O9 0.750000 0.347751 0.807969
O O10 0.511815 0.263781 0.765533
O O11 0.250000 0.652480 0.135257
O O12 0.015308 0.692113 0.183923
O O13 0.000000 0.500000 0.129039
O O14 0.000399 0.755575 0.101786
O O15 0.500000 0.500000 0.566287
O O16 0.750000 0.653494 0.565445
O O17 0.500000 0.500000 0.240235
O O18 0.250000 0.647377 0.231929
#
# Coordination Sequence:
#
# PCOD9378776 Si02
#       6
#     8   8   8   8   8   8
#     4   8  16  30  50  75 104 135 172 213 255 301
#     4  10  19  34  56  81 106 137 175 216 257 306
#     4  11  23  38  54  77 107 139 172 213 262 312
#     4  10  20  36  55  78 106 138 174 215 259 308
#     4  10  19  33  53  79 108 140 175 215 259 307
#     4   9  20  37  57  78 102 133 173 214 257 308
#
# _framework density 17.964317000000001
#
# number of rings (size 3 to 8) (size 9 to 14) (size 15 to 20)
#    0.000    2.333    0.000    2.500    0.000    5.333 
#    0.000    2.500    0.000    0.000    0.000    0.000 
#    0.000    0.000    0.000    0.000    0.000    0.000 
#
# Total GULP energy -133812.917339 kJ/mol
# GULP energy per Si atom -5575.538222 kJ/mol
# Density = 1.792343 g / cm^3
# Si number density = 17.964317 Si / 1000 Ang^3
#
#
#
# Elastic Constant Matrix: (Units=GPa)
#
#
# Indices 1 2 3 4 5 6 
#
# 1 43.9529 31.8690 49.2609 0.0000 0.0000 0.0000
# 2 31.8690 98.5729 111.9590 0.0000 0.0000 0.0000
# 3 49.2609 111.9590 201.4431 0.0000 0.0000 0.0000
# 4 0.0000 0.0000 0.0000 29.6323 0.0000 0.0000
# 5 0.0000 0.0000 0.0000 0.0000 25.6204 0.0000
# 6 0.0000 0.0000 0.0000 0.0000 0.0000 30.5023
#
#
#
# Elastic Compliance Matrix: (Units=1/GPa)
#
#
# Indices 1 2 3 4 5 6 
#
# 1 0.031896 -0.003941 -0.005610 0.000000 0.000000 0.000000
# 2 -0.003941 0.027999 -0.014598 0.000000 0.000000 0.000000
# 3 -0.005610 -0.014598 0.014449 0.000000 0.000000 0.000000
# 4 0.000000 0.000000 0.000000 0.033747 0.000000 0.000000
# 5 0.000000 0.000000 0.000000 0.000000 0.039031 0.000000
# 6 0.000000 0.000000 0.000000 0.000000 0.000000 0.032784
#
#
# Mechanical properties :
#
#
# Convention : Reuss Voigt Hill
#
# Bulk Modulus (GPa) = 38.39063 81.12741 59.75902
# Shear Modulus (GPa) = 21.10725 27.20966 24.15846
#
# Velocity S-wave (km/s) = 3.43148 3.89607 3.67113
# Velocity P-wave (km/s) = 6.09237 8.09305 7.16291
#
# Compressibility (1/GPa) = 0.02604802
#
# Stress axis : x y z
#
# Youngs Moduli (GPa) = 31.35182 35.71586 69.20822
#
# Poissons Ratio (x) = 0.14074 0.38824
# Poissons Ratio (y) = 0.12354 1.01028
# Poissons Ratio (z) = 0.17588 0.52137
#
# Static dielectric constant tensor:
#      x y z
#    x 1.609140 0.000000 0.000000 
#    y 0.000000 1.558570 0.000000 
#    z 0.000000 0.000000 1.661920 
# 
# From -- ./inp_files/24969.got.cif
#   From: 2010.05.17/outbox.cif.g08.bks.cpg/sg46_13_cif.got.tgz:24969.got - 2010.06.03 19:58:25.
