data_PCOD9378204
_publ_section_title
;
Structure prediction by ZEFSAII (Michael W. Deem and Ramdas Pophale) SiO2 
 PCOD9378204
Probable space group: I M A 2
;
_chemical_formula_sum "Si O2"
_cell_formula_units_Z 48
_cell_length_a 13.900514
_cell_length_b 9.434157
_cell_length_c 18.241489
_cell_angle_alpha 90.000000
_cell_angle_beta 90.000000
_cell_angle_gamma 90.000000
_cell_volume 2392.182145
_symmetry_space_group_name_H-M "I M A 2"
_symmetry_group_IT_number 46
_symmetry_cell_setting 'orthorhombic'
loop_
_space_group_symop_operation_xyz
x,y,z
-x,-y,z
1/2-x,y,z
1/2+x,-y,z
1/2+x,1/2+y,1/2+z
1/2-x,1/2-y,1/2+z
-x,1/2+y,1/2+z
x,1/2-y,1/2+z
loop_
_atom_site_type_symbol
_atom_site_label
_atom_site_fract_x
_atom_site_fract_y
_atom_site_fract_z
Si Si1 0.140829 0.241935 0.267260
Si Si2 0.137308 0.364999 0.608164
Si Si3 0.359438 0.864491 0.003828
Si Si4 0.030591 0.852090 0.582113
Si Si5 0.966164 0.159754 0.852022
Si Si6 0.356468 0.924195 0.723143
O O1 0.250000 0.216343 0.295584
O O2 0.124244 0.139897 0.196818
O O3 0.141625 0.405643 0.237548
O O4 0.054967 0.240877 0.327088
O O5 0.250000 0.325841 0.596502
O O6 0.120487 0.509838 0.562713
O O7 0.060120 0.252437 0.579329
O O8 0.250000 0.884928 0.978452
O O9 0.377642 0.719270 0.045746
O O10 0.430000 0.848188 0.934787
O O11 0.063614 0.881075 0.664967
O O12 0.000000 0.000000 0.547657
O O13 0.877839 0.168470 0.795531
O O14 0.000000 0.000000 0.836771
O O15 0.250000 0.892172 0.695476
#
# Coordination Sequence:
#
# PCOD9378204 Si02
#       6
#     8   8   8   8   8   8
#     4   9  17  32  59  91 119 155 208 265 315 371
#     4  10  20  37  58  90 125 160 203 261 325 385
#     4  11  25  40  60  90 130 167 208 265 328 392
#     4  12  21  37  60  90 119 162 210 259 315 378
#     4  10  18  35  56  88 121 165 215 262 316 371
#     4  10  18  31  57  88 117 152 211 266 304 360
#
# _framework density 20.065362
#
# number of rings (size 3 to 8) (size 9 to 14) (size 15 to 20)
#    0.000    1.667    3.333    3.000    0.000    1.333 
#    0.000    0.833    3.667    0.000    0.000    0.000 
#    0.000    0.000    0.000    0.000    0.000    0.000 
#
# Total GULP energy -133678.269512 kJ/mol
# GULP energy per Si atom -5569.927896 kJ/mol
# Density = 2.001969 g / cm^3
# Si number density = 20.065362 Si / 1000 Ang^3
#
#
#
# Elastic Constant Matrix: (Units=GPa)
#
#
# Indices 1 2 3 4 5 6 
#
# 1 118.3240 31.8610 50.2458 0.0000 0.0000 0.0000
# 2 31.8610 53.8289 29.6736 0.0000 0.0000 0.0000
# 3 50.2458 29.6736 95.1212 0.0000 0.0000 0.0000
# 4 0.0000 0.0000 0.0000 17.9805 0.0000 0.0000
# 5 0.0000 0.0000 0.0000 0.0000 35.8088 0.0000
# 6 0.0000 0.0000 0.0000 0.0000 0.0000 19.4520
#
#
#
# Elastic Compliance Matrix: (Units=1/GPa)
#
#
# Indices 1 2 3 4 5 6 
#
# 1 0.011641 -0.004227 -0.004830 0.000000 0.000000 0.000000
# 2 -0.004227 0.023971 -0.005245 0.000000 0.000000 0.000000
# 3 -0.004830 -0.005245 0.014701 0.000000 0.000000 0.000000
# 4 0.000000 0.000000 0.000000 0.055616 0.000000 0.000000
# 5 0.000000 0.000000 0.000000 0.000000 0.027926 0.000000
# 6 0.000000 0.000000 0.000000 0.000000 0.000000 0.051409
#
#
# Mechanical properties :
#
#
# Convention : Reuss Voigt Hill
#
# Bulk Modulus (GPa) = 46.06763 54.53723 50.30243
# Shear Modulus (GPa) = 22.61387 25.01452 23.81420
#
# Velocity S-wave (km/s) = 3.36074 3.53463 3.44878
# Velocity P-wave (km/s) = 6.16993 6.62547 6.40176
#
# Compressibility (1/GPa) = 0.02170722
#
# Stress axis : x y z
#
# Youngs Moduli (GPa) = 85.90450 41.71746 68.02482
#
# Poissons Ratio (x) = 0.17636 0.32858
# Poissons Ratio (y) = 0.36316 0.35677
# Poissons Ratio (z) = 0.41494 0.21880
#
# Static dielectric constant tensor:
#      x y z
#    x 1.753420 0.000000 0.000000 
#    y 0.000000 1.705420 0.000000 
#    z 0.000000 0.000000 1.804380 
# 
# From -- ./inp_files/19391.got.cif
#   From: 2010.05.17/outbox.cif.g08.bks.cpg/sg46_10_cif.got.tgz:19391.got - 2010.06.03 19:58:25.
