data_PCOD9378005
_publ_section_title
;
Structure prediction by ZEFSAII (Michael W. Deem and Ramdas Pophale) SiO2 
 PCOD9378005
Probable space group: I M A 2
;
_chemical_formula_sum "Si O2"
_cell_formula_units_Z 56
_cell_length_a 8.745689
_cell_length_b 13.976744
_cell_length_c 30.131559
_cell_angle_alpha 90.000000
_cell_angle_beta 90.000000
_cell_angle_gamma 90.000000
_cell_volume 3683.168967
_symmetry_space_group_name_H-M "I M A 2"
_symmetry_group_IT_number 46
_symmetry_cell_setting 'orthorhombic'
loop_
_space_group_symop_operation_xyz
x,y,z
-x,-y,z
1/2-x,y,z
1/2+x,-y,z
1/2+x,1/2+y,1/2+z
1/2-x,1/2-y,1/2+z
-x,1/2+y,1/2+z
x,1/2-y,1/2+z
loop_
_atom_site_type_symbol
_atom_site_label
_atom_site_fract_x
_atom_site_fract_y
_atom_site_fract_z
Si Si1 0.933262 0.392639 0.316930
Si Si2 0.067405 0.103675 0.180080
Si Si3 0.065367 0.714744 0.226979
Si Si4 0.433855 0.797786 0.092998
Si Si5 0.433390 0.107536 0.006405
Si Si6 0.567153 0.892656 0.907926
Si Si7 0.067008 0.603121 0.138824
O O1 0.750000 0.399878 0.319013
O O2 0.975713 0.328813 0.274521
O O3 0.000000 0.500000 0.311668
O O4 0.995395 0.350064 0.363297
O O5 0.250000 0.100380 0.178551
O O6 0.011063 0.184979 0.214267
O O7 0.002886 0.136493 0.132057
O O8 0.000000 0.000000 0.190989
O O9 0.250000 0.726231 0.224922
O O10 0.021484 0.640332 0.187903
O O11 0.250000 0.805883 0.094463
O O12 0.496332 0.830806 0.045820
O O13 0.476802 0.688811 0.105564
O O14 0.250000 0.102519 0.010686
O O15 0.500000 0.000000 0.009646
O O16 0.469119 0.147101 0.956893
O O17 0.750000 0.896486 0.903275
O O18 0.500000 0.000000 0.909031
O O19 0.250000 0.596182 0.138376
O O20 0.000000 0.500000 0.128776
#
# Coordination Sequence:
#
# PCOD9378005 Si02
#       7
#     8   8   8   8   8   8   8
#     4  10  18  28  45  67  94 124 153 186 223 265
#     4  11  21  33  49  67  90 120 151 186 224 265
#     4   9  19  33  46  66  93 120 152 186 220 261
#     4  10  20  33  47  66  92 120 151 186 223 267
#     4  10  19  30  45  66  91 121 153 187 225 267
#     4   9  17  28  42  62  90 119 150 185 223 268
#     4   9  18  31  46  64  89 118 147 182 220 257
#
# _framework density 15.204298
#
# number of rings (size 3 to 8) (size 9 to 14) (size 15 to 20)
#    0.000    2.286    0.000    5.571    0.000    5.714 
#    0.000    0.000    0.000    0.000    0.000    1.000 
#    0.000    4.571    0.000    0.000    0.000    0.000 
#
# Total GULP energy -156115.243031 kJ/mol
# GULP energy per Si atom -5575.544394 kJ/mol
# Density = 1.516969 g / cm^3
# Si number density = 15.204298 Si / 1000 Ang^3
#
#
#
# Elastic Constant Matrix: (Units=GPa)
#
#
# Indices 1 2 3 4 5 6 
#
# 1 64.4526 37.3641 54.0541 0.0000 0.0000 0.0000
# 2 37.3641 92.5592 63.7872 0.0000 0.0000 0.0000
# 3 54.0541 63.7872 156.2420 0.0000 0.0000 0.0000
# 4 0.0000 0.0000 0.0000 22.7848 0.0000 0.0000
# 5 0.0000 0.0000 0.0000 0.0000 31.0927 0.0000
# 6 0.0000 0.0000 0.0000 0.0000 0.0000 25.2399
#
#
#
# Elastic Compliance Matrix: (Units=1/GPa)
#
#
# Indices 1 2 3 4 5 6 
#
# 1 0.023677 -0.005445 -0.005969 0.000000 0.000000 0.000000
# 2 -0.005445 0.016286 -0.004765 0.000000 0.000000 0.000000
# 3 -0.005969 -0.004765 0.010411 0.000000 0.000000 0.000000
# 4 0.000000 0.000000 0.000000 0.043889 0.000000 0.000000
# 5 0.000000 0.000000 0.000000 0.000000 0.032162 0.000000
# 6 0.000000 0.000000 0.000000 0.000000 0.000000 0.039620
#
#
# Mechanical properties :
#
#
# Convention : Reuss Voigt Hill
#
# Bulk Modulus (GPa) = 55.50396 69.29609 62.40002
# Shear Modulus (GPa) = 24.46102 26.36004 25.41053
#
# Velocity S-wave (km/s) = 4.01536 4.16832 4.09256
# Velocity P-wave (km/s) = 7.62117 8.29711 7.96631
#
# Compressibility (1/GPa) = 0.01801673
#
# Stress axis : x y z
#
# Youngs Moduli (GPa) = 42.23445 61.40368 96.05547
#
# Poissons Ratio (x) = 0.33433 0.57332
# Poissons Ratio (y) = 0.22996 0.45771
# Poissons Ratio (z) = 0.25208 0.29259
#
# Static dielectric constant tensor:
#      x y z
#    x 1.510190 0.000000 0.000000 
#    y 0.000000 1.473450 0.000000 
#    z 0.000000 0.000000 1.525910 
# 
# From -- ./inp_files/25247.got.cif
#   From: 2010.05.17/outbox.cif.g08.bks.cpg/sg46_13_cif.got.tgz:25247.got - 2010.06.03 19:58:25.
