data_PCOD9378043
_publ_section_title
;
Structure prediction by ZEFSAII (Michael W. Deem and Ramdas Pophale) SiO2 
 PCOD9378043
Probable space group: I M A 2
;
_chemical_formula_sum "Si O2"
_cell_formula_units_Z 52
_cell_length_a 9.777628
_cell_length_b 14.828336
_cell_length_c 17.532299
_cell_angle_alpha 90.000000
_cell_angle_beta 90.000000
_cell_angle_gamma 90.000000
_cell_volume 2541.937083
_symmetry_space_group_name_H-M "I M A 2"
_symmetry_group_IT_number 46
_symmetry_cell_setting 'orthorhombic'
loop_
_space_group_symop_operation_xyz
x,y,z
-x,-y,z
1/2-x,y,z
1/2+x,-y,z
1/2+x,1/2+y,1/2+z
1/2-x,1/2-y,1/2+z
-x,1/2+y,1/2+z
x,1/2-y,1/2+z
loop_
_atom_site_type_symbol
_atom_site_label
_atom_site_fract_x
_atom_site_fract_y
_atom_site_fract_z
Si Si1 0.907609 0.138472 0.707260
Si Si2 0.500000 0.500000 0.326743
Si Si3 0.590964 0.141374 0.545060
Si Si4 0.404724 0.858415 0.079287
Si Si5 0.915823 0.162066 0.252126
Si Si6 0.599518 0.636030 0.445988
Si Si7 0.086254 0.156374 0.399882
O O1 0.750000 0.157682 0.688733
O O2 0.916218 0.064776 0.771814
O O3 0.965600 0.106215 0.626225
O O4 0.959979 0.233268 0.739474
O O5 0.590422 0.563531 0.379524
O O6 0.750000 0.115714 0.528905
O O7 0.591142 0.249799 0.562941
O O8 0.492416 0.119252 0.474605
O O9 0.250000 0.888835 0.067276
O O10 0.440652 0.877982 0.167415
O O11 0.500649 0.893653 0.013428
O O12 0.750000 0.157655 0.267119
O O13 0.005378 0.127848 0.323106
O O14 0.750000 0.643605 0.479243
O O15 0.567725 0.734878 0.411176
O O16 0.250000 0.137784 0.397459
#
# Coordination Sequence:
#
# PCOD9378043 Si02
#       7
#     8   4   8   8   8   8   8
#     4   9  18  31  47  66  93 131 173 204 232 279
#     4  12  20  32  48  70 104 138 166 192 238 284
#     4   8  15  30  48  66  88 123 166 206 242 281
#     4   8  16  30  49  67  88 122 165 206 245 285
#     4   9  16  30  50  72  93 123 166 207 243 283
#     4  10  21  32  43  67 101 133 165 196 239 292
#     4  10  18  29  45  72 101 126 156 199 253 296
#
# _framework density 20.45684
#
# number of rings (size 3 to 8) (size 9 to 14) (size 15 to 20)
#    0.000    2.769    1.538    2.769    0.000    2.462 
#    0.000    3.846    0.000    0.000    0.000    1.077 
#    0.000    4.923    0.000    0.000    0.000    0.000 
#
# Total GULP energy -144835.921941 kJ/mol
# GULP energy per Si atom -5570.612382 kJ/mol
# Density = 2.041028 g / cm^3
# Si number density = 20.456840 Si / 1000 Ang^3
#
#
#
# Elastic Constant Matrix: (Units=GPa)
#
#
# Indices 1 2 3 4 5 6 
#
# 1 82.4658 -1.1678 87.3823 0.0000 0.0000 0.0000
# 2 -1.1678 23.1260 1.0917 0.0000 0.0000 0.0000
# 3 87.3823 1.0917 186.1892 0.0000 0.0000 0.0000
# 4 0.0000 0.0000 0.0000 16.7492 0.0000 0.0000
# 5 0.0000 0.0000 0.0000 0.0000 26.4060 0.0000
# 6 0.0000 0.0000 0.0000 0.0000 0.0000 1.0183
#
#
#
# Elastic Compliance Matrix: (Units=1/GPa)
#
#
# Indices 1 2 3 4 5 6 
#
# 1 0.024193 0.001758 -0.011365 0.000000 0.000000 0.000000
# 2 0.001758 0.043381 -0.001079 0.000000 0.000000 0.000000
# 3 -0.011365 -0.001079 0.010711 0.000000 0.000000 0.000000
# 4 0.000000 0.000000 0.000000 0.059704 0.000000 0.000000
# 5 0.000000 0.000000 0.000000 0.000000 0.037870 0.000000
# 6 0.000000 0.000000 0.000000 0.000000 0.000000 0.982049
#
#
# Mechanical properties :
#
#
# Convention : Reuss Voigt Hill
#
# Bulk Modulus (GPa) = 17.57056 51.82147 34.69602
# Shear Modulus (GPa) = 4.17274 22.46635 13.31955
#
# Velocity S-wave (km/s) = 1.42976 3.31755 2.55444
# Velocity P-wave (km/s) = 3.36650 6.32945 5.06929
#
# Compressibility (1/GPa) = 0.05691337
#
# Stress axis : x y z
#
# Youngs Moduli (GPa) = 41.33343 23.05146 93.36253
#
# Poissons Ratio (x) = -0.04053 1.06105
# Poissons Ratio (y) = -0.07267 0.10078
# Poissons Ratio (z) = 0.46975 0.02488
#
# Static dielectric constant tensor:
#      x y z
#    x 1.729270 0.000000 0.000000 
#    y 0.000000 1.787500 0.000000 
#    z 0.000000 0.000000 1.759050 
# 
# From -- ./inp_files/18298.got.cif
#   From: 2010.05.17/outbox.cif.g08.bks.cpg/sg46_10_cif.got.tgz:18298.got - 2010.06.03 19:58:25.
