data_PCOD9378377
_publ_section_title
;
Structure prediction by ZEFSAII (Michael W. Deem and Ramdas Pophale) SiO2 
 PCOD9378377
Probable space group: I M A 2
;
_chemical_formula_sum "Si O2"
_cell_formula_units_Z 48
_cell_length_a 9.737870
_cell_length_b 8.806753
_cell_length_c 27.597355
_cell_angle_alpha 90.000000
_cell_angle_beta 90.000000
_cell_angle_gamma 90.000000
_cell_volume 2366.722004
_symmetry_space_group_name_H-M "I M A 2"
_symmetry_group_IT_number 46
_symmetry_cell_setting 'orthorhombic'
loop_
_space_group_symop_operation_xyz
x,y,z
-x,-y,z
1/2-x,y,z
1/2+x,-y,z
1/2+x,1/2+y,1/2+z
1/2-x,1/2-y,1/2+z
-x,1/2+y,1/2+z
x,1/2-y,1/2+z
loop_
_atom_site_type_symbol
_atom_site_label
_atom_site_fract_x
_atom_site_fract_y
_atom_site_fract_z
Si Si1 0.750000 0.242483 0.878100
Si Si2 0.250000 0.606870 0.980758
Si Si3 0.026040 0.823360 0.557417
Si Si4 0.750000 0.614905 0.408318
Si Si5 0.911730 0.843782 0.726913
Si Si6 0.525886 0.819013 0.834288
Si Si7 0.250000 0.246112 0.510660
Si Si8 0.409163 0.852479 0.152436
O O1 0.750000 0.346318 0.925269
O O2 0.615725 0.262924 0.845714
O O3 0.750000 0.065176 0.896090
O O4 0.250000 0.425569 0.988759
O O5 0.380276 0.673267 0.009542
O O6 0.093356 0.745197 0.603276
O O7 0.884291 0.742857 0.543489
O O8 0.000000 0.000000 0.569798
O O9 0.877849 0.692916 0.381143
O O10 0.750000 0.641852 0.465264
O O11 0.750000 0.864739 0.712948
O O12 0.913356 0.780093 0.782038
O O13 0.000194 0.736237 0.692214
O O14 0.000000 0.000000 0.726446
O O15 0.500000 0.000000 0.830958
O O16 0.250000 0.881536 0.167271
O O17 0.500000 0.000000 0.142058
#
# Coordination Sequence:
#
# PCOD9378377 Si02
#       8
#     4   4   8   4   8   8   4   8
#     4  10  20  32  59  82 123 163 206 255 311 366
#     4  10  20  40  55  90 121 163 208 259 309 364
#     4  10  22  41  65  89 122 163 212 257 310 374
#     4  10  18  36  53  88 119 161 204 257 309 360
#     4  11  23  41  69  97 127 166 215 261 313 376
#     4   9  19  34  58  88 120 157 211 258 300 358
#     4  10  22  34  63  88 123 159 208 259 305 368
#     4  12  27  45  66  93 130 163 205 263 326 387
#
# _framework density 20.281215
#
# number of rings (size 3 to 8) (size 9 to 14) (size 15 to 20)
#    0.000    1.667    1.667    2.500    7.000    1.333 
#    0.000    1.667    0.000    0.000    0.000    0.000 
#    0.000    0.000    0.000    0.000    0.000    0.000 
#
# Total GULP energy -133972.341545 kJ/mol
# GULP energy per Si atom -5582.180898 kJ/mol
# Density = 2.023505 g / cm^3
# Si number density = 20.281215 Si / 1000 Ang^3
#
#
#
# Elastic Constant Matrix: (Units=GPa)
#
#
# Indices 1 2 3 4 5 6 
#
# 1 158.9452 19.8512 26.2609 0.0000 0.0000 0.0000
# 2 19.8512 26.0109 21.8253 0.0000 0.0000 0.0000
# 3 26.2609 21.8253 75.5223 0.0000 0.0000 0.0000
# 4 0.0000 0.0000 0.0000 22.2738 0.0000 0.0000
# 5 0.0000 0.0000 0.0000 0.0000 11.7124 0.0000
# 6 0.0000 0.0000 0.0000 0.0000 0.0000 22.6901
#
#
#
# Elastic Compliance Matrix: (Units=1/GPa)
#
#
# Indices 1 2 3 4 5 6 
#
# 1 0.007033 -0.004377 -0.001181 0.000000 0.000000 0.000000
# 2 -0.004377 0.053476 -0.013932 0.000000 0.000000 0.000000
# 3 -0.001181 -0.013932 0.017678 0.000000 0.000000 0.000000
# 4 0.000000 0.000000 0.000000 0.044896 0.000000 0.000000
# 5 0.000000 0.000000 0.000000 0.000000 0.085379 0.000000
# 6 0.000000 0.000000 0.000000 0.000000 0.000000 0.044072
#
#
# Mechanical properties :
#
#
# Convention : Reuss Voigt Hill
#
# Bulk Modulus (GPa) = 25.50522 44.03925 34.77223
# Shear Modulus (GPa) = 16.41587 24.17134 20.29361
#
# Velocity S-wave (km/s) = 2.84810 3.45600 3.16668
# Velocity P-wave (km/s) = 4.83929 6.13895 5.52745
#
# Compressibility (1/GPa) = 0.03920766
#
# Stress axis : x y z
#
# Youngs Moduli (GPa) = 142.18271 18.69991 56.56763
#
# Poissons Ratio (x) = 0.08185 0.06679
# Poissons Ratio (y) = 0.62233 0.78811
# Poissons Ratio (z) = 0.16788 0.26053
#
# Static dielectric constant tensor:
#      x y z
#    x 1.759190 0.000000 0.000000 
#    y 0.000000 1.730850 0.000000 
#    z 0.000000 0.000000 1.679090 
# 
# From -- ./inp_files/25106.got.cif
#   From: 2010.05.17/outbox.cif.g08.bks.cpg/sg46_13_cif.got.tgz:25106.got - 2010.06.03 19:58:25.
