data_PCOD9378688
_publ_section_title
;
Structure prediction by ZEFSAII (Michael W. Deem and Ramdas Pophale) SiO2 
 PCOD9378688
Probable space group: I M A 2
;
_chemical_formula_sum "Si O2"
_cell_formula_units_Z 64
_cell_length_a 8.969195
_cell_length_b 16.503410
_cell_length_c 22.671091
_cell_angle_alpha 90.000000
_cell_angle_beta 90.000000
_cell_angle_gamma 90.000000
_cell_volume 3355.827089
_symmetry_space_group_name_H-M "I M A 2"
_symmetry_group_IT_number 46
_symmetry_cell_setting 'orthorhombic'
loop_
_space_group_symop_operation_xyz
x,y,z
-x,-y,z
1/2-x,y,z
1/2+x,-y,z
1/2+x,1/2+y,1/2+z
1/2-x,1/2-y,1/2+z
-x,1/2+y,1/2+z
x,1/2-y,1/2+z
loop_
_atom_site_type_symbol
_atom_site_label
_atom_site_fract_x
_atom_site_fract_y
_atom_site_fract_z
Si Si1 0.915775 0.701018 0.996100
Si Si2 0.430181 0.914821 0.282148
Si Si3 0.423863 0.920951 0.418508
Si Si4 0.078917 0.388001 0.461716
Si Si5 0.573031 0.746197 0.626668
Si Si6 0.070031 0.584301 0.334630
Si Si7 0.070524 0.731332 0.245353
Si Si8 0.072522 0.919201 0.086152
O O1 0.750000 0.665103 0.988012
O O2 0.910961 0.791880 0.971477
O O3 0.035209 0.653682 0.958762
O O4 0.949734 0.706140 0.065424
O O5 0.250000 0.921049 0.277060
O O6 0.475847 0.909754 0.351180
O O7 0.472836 0.825650 0.257860
O O8 0.500000 0.000000 0.259518
O O9 0.250000 0.933706 0.415488
O O10 0.500000 0.000000 0.444252
O O11 0.250000 0.420202 0.463232
O O12 0.999582 0.405918 0.400020
O O13 0.984188 0.415223 0.518385
O O14 0.750000 0.731924 0.632226
O O15 0.507577 0.789629 0.683759
O O16 0.489916 0.660562 0.617782
O O17 0.250000 0.577894 0.337787
O O18 0.033418 0.664421 0.295476
O O19 0.000000 0.500000 0.310583
O O20 0.250000 0.730373 0.239564
O O21 0.250000 0.921859 0.089142
O O22 0.000000 0.000000 0.112367
#
# Coordination Sequence:
#
# PCOD9378688 Si02
#       8
#     8   8   8   8   8   8   8   8
#     4   9  19  35  54  78 108 140 177 222 271 328
#     4   9  19  35  55  83 115 145 180 221 268 327
#     4  10  19  32  53  80 110 141 175 218 270 327
#     4  10  20  35  56  84 116 147 181 224 279 340
#     4  10  22  39  57  79 107 141 185 232 277 330
#     4  11  23  39  59  84 114 149 193 241 289 341
#     4  10  22  40  59  80 111 151 193 236 282 335
#     4  11  21  35  56  82 114 148 182 222 273 332
#
# _framework density 19.071306
#
# number of rings (size 3 to 8) (size 9 to 14) (size 15 to 20)
#    0.000    2.000    0.000    4.500    0.000    6.500 
#    0.000    1.875    0.000    1.500    0.000    0.000 
#    0.000    0.000    0.000    0.000    0.000    0.000 
#
# Total GULP energy -178561.407997 kJ/mol
# GULP energy per Si atom -5580.044000 kJ/mol
# Density = 1.902790 g / cm^3
# Si number density = 19.071306 Si / 1000 Ang^3
#
#
#
# Elastic Constant Matrix: (Units=GPa)
#
#
# Indices 1 2 3 4 5 6 
#
# 1 62.3982 22.1404 36.5587 0.0000 0.0000 0.0000
# 2 22.1404 70.9777 34.6828 0.0000 0.0000 0.0000
# 3 36.5587 34.6828 89.2491 0.0000 0.0000 0.0000
# 4 0.0000 0.0000 0.0000 -6.1117 0.0000 0.0000
# 5 0.0000 0.0000 0.0000 0.0000 40.7538 0.0000
# 6 0.0000 0.0000 0.0000 0.0000 0.0000 34.7348
#
#
#
# Elastic Compliance Matrix: (Units=1/GPa)
#
#
# Indices 1 2 3 4 5 6 
#
# 1 0.021585 -0.002978 -0.007684 0.000000 0.000000 0.000000
# 2 -0.002978 0.017802 -0.005698 0.000000 0.000000 0.000000
# 3 -0.007684 -0.005698 0.016567 0.000000 0.000000 0.000000
# 4 0.000000 0.000000 0.000000 -0.163621 0.000000 0.000000
# 5 0.000000 0.000000 0.000000 0.000000 0.024538 0.000000
# 6 0.000000 0.000000 0.000000 0.000000 0.000000 0.028790
#
#
# Mechanical properties :
#
#
# Convention : Reuss Voigt Hill
#
# Bulk Modulus (GPa) = 43.04315 45.48765 44.26540
# Shear Modulus (GPa) = -360.38415 22.49161 -168.94627
#
# Velocity S-wave (km/s) = -13.76143 3.43788 -9.42226
# Velocity P-wave (km/s) = 15.16193 6.29776 9.75249
#
# Compressibility (1/GPa) = 0.02323250
#
# Stress axis : x y z
#
# Youngs Moduli (GPa) = 46.32821 56.17257 60.36206
#
# Poissons Ratio (x) = 0.16729 0.46385
# Poissons Ratio (y) = 0.13797 0.34395
# Poissons Ratio (z) = 0.35601 0.32008
#
# Static dielectric constant tensor:
#      x y z
#    x 1.608590 0.000000 0.000000 
#    y 0.000000 1.710730 0.000000 
#    z 0.000000 0.000000 1.659010 
# 
# From -- ./inp_files/23151.got.cif
#   From: 2010.05.17/outbox.cif.g08.bks.cpg/sg46_12_cif.got.tgz:23151.got - 2010.06.03 19:58:25.
