data_PCOD9378209
_publ_section_title
;
Structure prediction by ZEFSAII (Michael W. Deem and Ramdas Pophale) SiO2 
 PCOD9378209
Probable space group: I M A 2
;
_chemical_formula_sum "Si O2"
_cell_formula_units_Z 64
_cell_length_a 25.759385
_cell_length_b 19.392346
_cell_length_c 7.860039
_cell_angle_alpha 90.000000
_cell_angle_beta 90.000000
_cell_angle_gamma 90.000000
_cell_volume 3926.363848
_symmetry_space_group_name_H-M "I M A 2"
_symmetry_group_IT_number 46
_symmetry_cell_setting 'orthorhombic'
loop_
_space_group_symop_operation_xyz
x,y,z
-x,-y,z
1/2-x,y,z
1/2+x,-y,z
1/2+x,1/2+y,1/2+z
1/2-x,1/2-y,1/2+z
-x,1/2+y,1/2+z
x,1/2-y,1/2+z
loop_
_atom_site_type_symbol
_atom_site_label
_atom_site_fract_x
_atom_site_fract_y
_atom_site_fract_z
Si Si1 0.996025 0.856680 0.127020
Si Si2 0.561621 0.498584 0.229736
Si Si3 0.809354 0.146843 0.086194
Si Si4 0.056680 0.037578 0.362680
Si Si5 0.467448 0.750998 0.905885
Si Si6 0.404320 0.545241 0.570510
Si Si7 0.592417 0.340668 0.173556
Si Si8 0.191159 0.800204 0.470533
O O1 0.953647 0.898143 0.236185
O O2 0.016327 0.799731 0.257842
O O3 0.042573 0.909224 0.078523
O O4 0.988965 0.806909 0.963003
O O5 0.500000 0.500000 0.259193
O O6 0.588233 0.508379 0.414076
O O7 0.577878 0.420353 0.184282
O O8 0.572391 0.544614 0.061030
O O9 0.750000 0.120122 0.073496
O O10 0.853815 0.092091 0.042497
O O11 0.818442 0.171750 0.281035
O O12 0.811630 0.217324 0.978770
O O13 0.095953 0.990035 0.255789
O O14 0.000000 0.000000 0.372266
O O15 0.419572 0.798689 0.845326
O O16 0.446751 0.697853 0.045592
O O17 0.649177 0.330601 0.098590
O O18 0.250000 0.818766 0.520332
#
# Coordination Sequence:
#
# PCOD9378209 Si02
#       8
#     8   8   8   8   8   8   8   8
#     4  10  18  32  44  69  92 124 161 200 243 304
#     4  11  21  32  49  68  87 123 165 211 249 301
#     4  10  21  34  47  67  95 130 173 222 264 301
#     4   9  19  33  48  66  93 122 160 204 241 295
#     4  10  19  27  46  63  93 123 155 200 252 292
#     4  11  20  32  49  66  93 127 169 211 247 294
#     4  11  19  30  44  67  90 122 166 207 247 301
#     4  10  20  32  47  66  94 129 169 219 269 302
#
# _framework density 16.300069000000001
#
# number of rings (size 3 to 8) (size 9 to 14) (size 15 to 20)
#    0.000    1.750    1.250    7.125    1.750    0.000 
#    0.000    0.000    0.000    0.000    0.000    0.000 
#    0.000    0.000    0.000    1.125    0.250    1.375 
#
# Total GULP energy -178250.144875 kJ/mol
# GULP energy per Si atom -5570.317027 kJ/mol
# Density = 1.626297 g / cm^3
# Si number density = 16.300069 Si / 1000 Ang^3
#
#
#
# Elastic Constant Matrix: (Units=GPa)
#
#
# Indices 1 2 3 4 5 6 
#
# 1 43.6336 9.4209 12.0895 0.0000 0.0000 0.0000
# 2 9.4209 20.7667 4.2288 0.0000 0.0000 0.0000
# 3 12.0895 4.2288 69.2412 0.0000 0.0000 0.0000
# 4 0.0000 0.0000 0.0000 18.6745 0.0000 0.0000
# 5 0.0000 0.0000 0.0000 0.0000 16.7994 0.0000
# 6 0.0000 0.0000 0.0000 0.0000 0.0000 24.4742
#
#
#
# Elastic Compliance Matrix: (Units=1/GPa)
#
#
# Indices 1 2 3 4 5 6 
#
# 1 0.026422 -0.011186 -0.003930 0.000000 0.000000 0.000000
# 2 -0.011186 0.053496 -0.001314 0.000000 0.000000 0.000000
# 3 -0.003930 -0.001314 0.015209 0.000000 0.000000 0.000000
# 4 0.000000 0.000000 0.000000 0.053549 0.000000 0.000000
# 5 0.000000 0.000000 0.000000 0.000000 0.059526 0.000000
# 6 0.000000 0.000000 0.000000 0.000000 0.000000 0.040859
#
#
# Mechanical properties :
#
#
# Convention : Reuss Voigt Hill
#
# Bulk Modulus (GPa) = 16.06003 20.56887 18.31445
# Shear Modulus (GPa) = 16.51918 19.18309 17.85114
#
# Velocity S-wave (km/s) = 3.18691 3.43428 3.31291
# Velocity P-wave (km/s) = 4.83901 5.32653 5.08861
#
# Compressibility (1/GPa) = 0.06226640
#
# Stress axis : x y z
#
# Youngs Moduli (GPa) = 37.84682 18.69283 65.75171
#
# Poissons Ratio (x) = 0.20910 0.25841
# Poissons Ratio (y) = 0.42337 0.08640
# Poissons Ratio (z) = 0.14874 0.02456
#
# Static dielectric constant tensor:
#      x y z
#    x 1.541050 0.000000 0.000000 
#    y 0.000000 1.574010 0.000000 
#    z 0.000000 0.000000 1.700020 
# 
# From -- ./inp_files/8024.got.cif
#   From: 2010.05.17/outbox.cif.g08.bks.cpg/sg46_5_cif.got.tgz:8024.got - 2010.06.03 19:58:25.
