data_PCOD9378831
_publ_section_title
;
Structure prediction by ZEFSAII (Michael W. Deem and Ramdas Pophale) SiO2 
 PCOD9378831
Probable space group: I M A 2
;
_chemical_formula_sum "Si O2"
_cell_formula_units_Z 64
_cell_length_a 8.569882
_cell_length_b 25.714845
_cell_length_c 15.428185
_cell_angle_alpha 90.000000
_cell_angle_beta 90.000000
_cell_angle_gamma 90.000000
_cell_volume 3399.958303
_symmetry_space_group_name_H-M "I M A 2"
_symmetry_group_IT_number 46
_symmetry_cell_setting 'orthorhombic'
loop_
_space_group_symop_operation_xyz
x,y,z
-x,-y,z
1/2-x,y,z
1/2+x,-y,z
1/2+x,1/2+y,1/2+z
1/2-x,1/2-y,1/2+z
-x,1/2+y,1/2+z
x,1/2-y,1/2+z
loop_
_atom_site_type_symbol
_atom_site_label
_atom_site_fract_x
_atom_site_fract_y
_atom_site_fract_z
Si Si1 0.437754 0.106602 0.746210
Si Si2 0.061219 0.847766 0.451642
Si Si3 0.562838 0.443341 0.072504
Si Si4 0.565087 0.777441 0.774117
Si Si5 0.562455 0.136122 0.073929
Si Si6 0.936840 0.334147 0.755580
Si Si7 0.062013 0.558381 0.424679
Si Si8 0.566057 0.763981 0.979926
O O1 0.250000 0.105240 0.748038
O O2 0.500000 0.072958 0.666717
O O3 0.486871 0.167092 0.737145
O O4 0.500992 0.084723 0.836705
O O5 0.250000 0.845230 0.451594
O O6 0.013252 0.898232 0.505602
O O7 0.005345 0.849412 0.351398
O O8 0.998179 0.794138 0.491806
O O9 0.500000 0.500000 0.048593
O O10 0.750000 0.444701 0.074865
O O11 0.750000 0.771396 0.757839
O O12 0.479111 0.726286 0.741068
O O13 0.542304 0.778150 0.878328
O O14 0.750000 0.132637 0.075772
O O15 0.504320 0.133590 0.172971
O O16 0.506572 0.092392 0.006962
O O17 0.516693 0.192149 0.035944
O O18 0.750000 0.338855 0.758088
O O19 0.250000 0.558187 0.422829
O O20 0.000000 0.500000 0.429903
O O21 0.750000 0.764732 0.997839
#
# Coordination Sequence:
#
# PCOD9378831 Si02
#       8
#     8   8   8   8   8   8   8   8
#     4  11  22  38  58  83 117 151 188 232 283 342
#     4   9  20  39  60  82 111 148 189 233 283 337
#     4  11  24  41  60  83 111 147 194 240 287 340
#     4   9  19  34  52  81 116 149 183 222 274 332
#     4  10  21  36  56  84 115 150 190 230 278 335
#     4   9  19  36  58  82 113 150 187 230 275 332
#     4  11  23  39  59  82 114 153 194 236 282 337
#     4  10  19  33  55  83 115 148 183 227 276 331
#
# _framework density 18.823761000000001
#
# number of rings (size 3 to 8) (size 9 to 14) (size 15 to 20)
#    0.000    2.000    1.250    1.875    1.750    3.500 
#    0.000    0.625    0.000    0.000    0.000    0.000 
#    0.000    0.000    0.000    0.000    0.000    0.000 
#
# Total GULP energy -178704.131593 kJ/mol
# GULP energy per Si atom -5584.504112 kJ/mol
# Density = 1.878092 g / cm^3
# Si number density = 18.823761 Si / 1000 Ang^3
#
#
#
# Elastic Constant Matrix: (Units=GPa)
#
#
# Indices 1 2 3 4 5 6 
#
# 1 18.4021 15.9832 13.1194 0.0000 0.0000 0.0000
# 2 15.9832 116.9947 50.6149 0.0000 0.0000 0.0000
# 3 13.1194 50.6149 84.4749 0.0000 0.0001 0.0000
# 4 0.0000 0.0000 0.0000 30.1358 0.0000 0.0000
# 5 0.0000 0.0000 0.0001 0.0000 7.0196 0.0000
# 6 0.0000 0.0000 0.0000 0.0000 0.0000 28.8040
#
#
#
# Elastic Compliance Matrix: (Units=1/GPa)
#
#
# Indices 1 2 3 4 5 6 
#
# 1 0.064089 -0.006006 -0.006354 0.000000 0.000000 0.000000
# 2 -0.006006 0.012101 -0.006318 0.000000 0.000000 0.000000
# 3 -0.006354 -0.006318 0.016610 0.000000 0.000000 0.000000
# 4 0.000000 0.000000 0.000000 0.033183 0.000000 0.000000
# 5 0.000000 0.000000 0.000000 0.000000 0.142458 0.000000
# 6 0.000000 0.000000 0.000000 0.000000 0.000000 0.034717
#
#
# Mechanical properties :
#
#
# Convention : Reuss Voigt Hill
#
# Bulk Modulus (GPa) = 18.03662 42.14519 30.09090
# Shear Modulus (GPa) = 13.92770 22.53550 18.23160
#
# Velocity S-wave (km/s) = 2.72306 3.46379 3.11552
# Velocity P-wave (km/s) = 4.41468 6.19960 5.38166
#
# Compressibility (1/GPa) = 0.05544276
#
# Stress axis : x y z
#
# Youngs Moduli (GPa) = 15.60337 82.63616 60.20392
#
# Poissons Ratio (x) = 0.49634 0.38256
# Poissons Ratio (y) = 0.09372 0.38036
# Poissons Ratio (z) = 0.09915 0.52209
#
# Static dielectric constant tensor:
#      x y z
#    x 1.635940 0.000000 0.000000 
#    y 0.000000 1.622930 0.000000 
#    z 0.000000 0.000000 1.677290 
# 
# From -- ./inp_files/14424.got.cif
#   From: 2010.05.17/outbox.cif.g08.bks.cpg/sg46_8_cif.got.tgz:14424.got - 2010.06.03 19:58:25.
