data_PCOD9378077
_publ_section_title
;
Structure prediction by ZEFSAII (Michael W. Deem and Ramdas Pophale) SiO2 
 PCOD9378077
Probable space group: I M A 2
;
_chemical_formula_sum "Si O2"
_cell_formula_units_Z 48
_cell_length_a 22.118815
_cell_length_b 15.764263
_cell_length_c 8.979723
_cell_angle_alpha 90.000000
_cell_angle_beta 90.000000
_cell_angle_gamma 90.000000
_cell_volume 3131.111030
_symmetry_space_group_name_H-M "I M A 2"
_symmetry_group_IT_number 46
_symmetry_cell_setting 'orthorhombic'
loop_
_space_group_symop_operation_xyz
x,y,z
-x,-y,z
1/2-x,y,z
1/2+x,-y,z
1/2+x,1/2+y,1/2+z
1/2-x,1/2-y,1/2+z
-x,1/2+y,1/2+z
x,1/2-y,1/2+z
loop_
_atom_site_type_symbol
_atom_site_label
_atom_site_fract_x
_atom_site_fract_y
_atom_site_fract_z
Si Si1 0.492874 0.737288 0.062750
Si Si2 0.453679 0.426539 0.215667
Si Si3 0.087497 0.456931 0.881661
Si Si4 0.116054 0.317894 0.432142
Si Si5 0.538746 0.368679 0.795567
Si Si6 0.678236 0.670015 0.746272
O O1 0.510787 0.660590 0.174266
O O2 0.460837 0.814346 0.146414
O O3 0.555937 0.771061 0.994240
O O4 0.453960 0.695726 0.932536
O O5 0.500000 0.500000 0.261900
O O6 0.406462 0.400099 0.342108
O O7 0.423349 0.455862 0.059636
O O8 0.081988 0.551173 0.816098
O O9 0.146938 0.407135 0.834675
O O10 0.029581 0.405773 0.815535
O O11 0.157302 0.335509 0.574942
O O12 0.149846 0.254895 0.318822
O O13 0.750000 0.670540 0.759499
#
# Coordination Sequence:
#
# PCOD9378077 Si02
#       6
#     8   8   8   8   8   8
#     4  11  16  30  48  74 104 134 159 197 255 317
#     4  11  19  30  51  75 107 135 162 210 265 309
#     4  10  18  34  49  74 103 139 166 211 255 311
#     4  12  20  33  50  73 104 139 180 210 242 306
#     4  10  18  29  52  71 109 132 160 204 264 309
#     4  12  23  36  51  71 103 147 184 212 245 293
#
# _framework density 15.330021
#
# number of rings (size 3 to 8) (size 9 to 14) (size 15 to 20)
#    0.000    1.000   11.667    0.500    0.000    1.333 
#    0.000    0.833    0.000    0.000    0.000    1.167 
#    0.000    0.000    0.000    0.000    0.000    0.000 
#
# Total GULP energy -133894.407829 kJ/mol
# GULP energy per Si atom -5578.933660 kJ/mol
# Density = 1.529513 g / cm^3
# Si number density = 15.330021 Si / 1000 Ang^3
#
#
#
# Elastic Constant Matrix: (Units=GPa)
#
#
# Indices 1 2 3 4 5 6 
#
# 1 73.3775 48.9549 43.1884 0.0000 0.0000 0.0000
# 2 48.9549 99.5860 51.2017 0.0000 0.0000 0.0000
# 3 43.1884 51.2017 70.4239 0.0000 0.0000 0.0000
# 4 0.0000 0.0000 0.0000 27.7283 0.0000 0.0000
# 5 0.0000 0.0000 0.0000 0.0000 13.9610 0.0000
# 6 0.0000 0.0000 0.0000 0.0000 0.0000 13.2787
#
#
#
# Elastic Compliance Matrix: (Units=1/GPa)
#
#
# Indices 1 2 3 4 5 6 
#
# 1 0.023838 -0.006711 -0.009740 0.000000 0.000000 0.000000
# 2 -0.006711 0.017925 -0.008917 0.000000 0.000000 0.000000
# 3 -0.009740 -0.008917 0.026656 0.000000 0.000000 0.000000
# 4 0.000000 0.000000 0.000000 0.036064 0.000000 0.000000
# 5 0.000000 0.000000 0.000000 0.000000 0.071628 0.000000
# 6 0.000000 0.000000 0.000000 0.000000 0.000000 0.075309
#
#
# Mechanical properties :
#
#
# Convention : Reuss Voigt Hill
#
# Bulk Modulus (GPa) = 56.54904 58.89750 57.72327
# Shear Modulus (GPa) = 16.23114 17.66311 16.94712
#
# Velocity S-wave (km/s) = 3.25742 3.39808 3.32849
# Velocity P-wave (km/s) = 7.14952 7.34159 7.24619
#
# Compressibility (1/GPa) = 0.01768377
#
# Stress axis : x y z
#
# Youngs Moduli (GPa) = 41.94983 55.78784 37.51482
#
# Poissons Ratio (x) = 0.37437 0.36540
# Poissons Ratio (y) = 0.28151 0.33452
# Poissons Ratio (z) = 0.40859 0.49746
#
# Static dielectric constant tensor:
#      x y z
#    x 1.475800 0.000000 0.000000 
#    y 0.000000 1.523830 0.000000 
#    z 0.000000 0.000000 1.550270 
# 
# From -- ./inp_files/6705.got.cif
#   From: 2010.05.17/outbox.cif.g08.bks.cpg/sg46_4_cif.got.tgz:6705.got - 2010.06.03 19:58:25.
