data_PCOD9378759
_publ_section_title
;
Structure prediction by ZEFSAII (Michael W. Deem and Ramdas Pophale) SiO2 
 PCOD9378759
Probable space group: I M A 2
;
_chemical_formula_sum "Si O2"
_cell_formula_units_Z 64
_cell_length_a 8.728502
_cell_length_b 21.191954
_cell_length_c 20.122411
_cell_angle_alpha 90.000000
_cell_angle_beta 90.000000
_cell_angle_gamma 90.000000
_cell_volume 3722.123111
_symmetry_space_group_name_H-M "I M A 2"
_symmetry_group_IT_number 46
_symmetry_cell_setting 'orthorhombic'
loop_
_space_group_symop_operation_xyz
x,y,z
-x,-y,z
1/2-x,y,z
1/2+x,-y,z
1/2+x,1/2+y,1/2+z
1/2-x,1/2-y,1/2+z
-x,1/2+y,1/2+z
x,1/2-y,1/2+z
loop_
_atom_site_type_symbol
_atom_site_label
_atom_site_fract_x
_atom_site_fract_y
_atom_site_fract_z
Si Si1 0.934352 0.189513 0.346750
Si Si2 0.933586 0.121733 0.567888
Si Si3 0.566041 0.567321 0.350907
Si Si4 0.065880 0.117513 0.707772
Si Si5 0.933509 0.765685 0.212283
Si Si6 0.934569 0.066668 0.427812
Si Si7 0.934003 0.763119 0.062878
Si Si8 0.934153 0.313810 0.429416
O O1 0.750000 0.189350 0.347679
O O2 0.986899 0.126075 0.383625
O O3 0.984088 0.251783 0.387532
O O4 0.990956 0.196258 0.271703
O O5 0.750000 0.127694 0.568363
O O6 0.979215 0.080465 0.504306
O O7 0.990280 0.096451 0.638883
O O8 0.005069 0.191332 0.558147
O O9 0.500000 0.500000 0.371802
O O10 0.750000 0.567384 0.354062
O O11 0.520610 0.580584 0.274022
O O12 0.501871 0.624284 0.395059
O O13 0.250000 0.114570 0.700347
O O14 0.024300 0.191409 0.718180
O O15 0.750000 0.769321 0.218831
O O16 0.974868 0.785695 0.137384
O O17 0.750000 0.064767 0.425289
O O18 0.000000 0.000000 0.405544
O O19 0.750000 0.762438 0.057414
O O20 0.006441 0.803388 0.003983
O O21 0.750000 0.316434 0.428751
#
# Coordination Sequence:
#
# PCOD9378759 Si02
#       8
#     8   8   8   8   8   8   8   8
#     4  10  20  35  55  80 110 139 178 228 275 323
#     4  10  19  33  52  76 110 146 185 228 269 321
#     4  11  23  39  56  79 113 150 189 231 277 332
#     4   9  19  34  51  76 110 145 185 224 264 324
#     4   9  18  33  53  81 110 138 179 223 269 323
#     4  10  22  38  52  76 109 144 184 225 270 324
#     4  10  20  34  54  82 113 143 179 226 276 328
#     4  11  21  36  58  84 111 143 184 231 281 329
#
# _framework density 17.194488
#
# number of rings (size 3 to 8) (size 9 to 14) (size 15 to 20)
#    0.000    2.000    2.500    2.250    0.000    6.000 
#    0.000    2.500    0.000    0.750    0.000    1.750 
#    0.000    0.000    0.000    0.000    0.000    0.000 
#
# Total GULP energy -178628.887832 kJ/mol
# GULP energy per Si atom -5582.152745 kJ/mol
# Density = 1.715535 g / cm^3
# Si number density = 17.194488 Si / 1000 Ang^3
#
#
#
# Elastic Constant Matrix: (Units=GPa)
#
#
# Indices 1 2 3 4 5 6 
#
# 1 31.9603 32.1917 32.7871 0.0000 0.0000 0.0000
# 2 32.1917 120.0895 70.8409 0.0000 0.0000 0.0000
# 3 32.7871 70.8409 120.8732 0.0000 0.0000 0.0000
# 4 0.0000 0.0000 0.0000 22.8241 0.0000 0.0000
# 5 0.0000 0.0000 0.0000 0.0000 31.8841 0.0000
# 6 0.0000 0.0000 0.0000 0.0000 0.0000 23.5326
#
#
#
# Elastic Compliance Matrix: (Units=1/GPa)
#
#
# Indices 1 2 3 4 5 6 
#
# 1 0.047793 -0.007893 -0.008338 0.000000 0.000000 0.000000
# 2 -0.007893 0.014031 -0.006082 0.000000 0.000000 0.000000
# 3 -0.008338 -0.006082 0.014099 0.000000 0.000000 0.000000
# 4 0.000000 0.000000 0.000000 0.043813 0.000000 0.000000
# 5 0.000000 0.000000 0.000000 0.000000 0.031364 0.000000
# 6 0.000000 0.000000 0.000000 0.000000 0.000000 0.042494
#
#
# Mechanical properties :
#
#
# Convention : Reuss Voigt Hill
#
# Bulk Modulus (GPa) = 31.95219 60.50695 46.22957
# Shear Modulus (GPa) = 20.10840 24.78839 22.44839
#
# Velocity S-wave (km/s) = 3.42346 3.80102 3.61717
# Velocity P-wave (km/s) = 5.85234 7.38443 6.66257
#
# Compressibility (1/GPa) = 0.03129676
#
# Stress axis : x y z
#
# Youngs Moduli (GPa) = 20.92372 71.27186 70.92475
#
# Poissons Ratio (x) = 0.56254 0.59137
# Poissons Ratio (y) = 0.16515 0.43138
# Poissons Ratio (z) = 0.17446 0.43349
#
# Static dielectric constant tensor:
#      x y z
#    x 1.578850 0.000000 0.000000 
#    y 0.000000 1.565560 0.000000 
#    z 0.000000 0.000000 1.585850 
# 
# From -- ./inp_files/18566.got.cif
#   From: 2010.05.17/outbox.cif.g08.bks.cpg/sg46_10_cif.got.tgz:18566.got - 2010.06.03 19:58:25.
