data_PCOD9378168
_publ_section_title
;
Structure prediction by ZEFSAII (Michael W. Deem and Ramdas Pophale) SiO2 
 PCOD9378168
Probable space group: I M A 2
;
_chemical_formula_sum "Si O2"
_cell_formula_units_Z 64
_cell_length_a 8.340000
_cell_length_b 19.231801
_cell_length_c 22.275479
_cell_angle_alpha 90.000000
_cell_angle_beta 90.000000
_cell_angle_gamma 90.000000
_cell_volume 3572.835811
_symmetry_space_group_name_H-M "I M A 2"
_symmetry_group_IT_number 46
_symmetry_cell_setting 'orthorhombic'
loop_
_space_group_symop_operation_xyz
x,y,z
-x,-y,z
1/2-x,y,z
1/2+x,-y,z
1/2+x,1/2+y,1/2+z
1/2-x,1/2-y,1/2+z
-x,1/2+y,1/2+z
x,1/2-y,1/2+z
loop_
_atom_site_type_symbol
_atom_site_label
_atom_site_fract_x
_atom_site_fract_y
_atom_site_fract_z
Si Si1 0.445051 0.220768 0.069990
Si Si2 0.940272 0.572062 0.944870
Si Si3 0.443499 0.869170 0.894661
Si Si4 0.559563 0.076973 0.766538
Si Si5 0.558986 0.574252 0.520009
Si Si6 0.442276 0.780157 0.442774
Si Si7 0.933771 0.681352 0.167615
Si Si8 0.062079 0.574078 0.079428
O O1 0.250000 0.225602 0.068716
O O2 0.494272 0.141303 0.058102
O O3 0.499775 0.249543 0.134864
O O4 0.508802 0.263589 0.012060
O O5 0.750000 0.566859 0.955128
O O6 0.000000 0.500000 0.914617
O O7 0.980781 0.648209 0.919098
O O8 0.034284 0.574307 0.008329
O O9 0.250000 0.869678 0.893591
O O10 0.503497 0.901671 0.832522
O O11 0.492685 0.788879 0.906042
O O12 0.498652 0.912336 0.952352
O O13 0.750000 0.072381 0.769417
O O14 0.517092 0.138905 0.720653
O O15 0.500000 0.000000 0.749186
O O16 0.500000 0.500000 0.542155
O O17 0.750000 0.574406 0.518945
O O18 0.250000 0.786573 0.440524
O O19 0.750000 0.692598 0.185008
O O20 0.950137 0.629531 0.111146
O O21 0.250000 0.585165 0.093019
O O22 0.000000 0.500000 0.101707
#
# Coordination Sequence:
#
# PCOD9378168 Si02
#       8
#     8   8   8   8   8   8   8   8
#     4   9  19  33  49  70  99 131 165 205 251 305
#     4  11  20  30  44  67  98 131 165 202 245 296
#     4   9  20  36  54  75 101 134 172 215 256 302
#     4  11  23  38  53  73 102 137 178 216 251 294
#     4  10  19  32  52  78 104 132 163 204 256 308
#     4  10  18  31  51  74  99 129 166 209 260 307
#     4  11  21  34  50  69  97 132 170 211 252 295
#     4  11  20  30  44  64  91 128 166 202 241 287
#
# _framework density 17.912941
#
# number of rings (size 3 to 8) (size 9 to 14) (size 15 to 20)
#    0.000    1.750    1.250    5.250    0.000    3.500 
#    0.000    0.000    0.000    0.000    0.000    0.875 
#    0.000    4.000    0.000    0.000    0.000    0.125 
#
# Total GULP energy -178423.010795 kJ/mol
# GULP energy per Si atom -5575.719087 kJ/mol
# Density = 1.787217 g / cm^3
# Si number density = 17.912941 Si / 1000 Ang^3
#
#
#
# Elastic Constant Matrix: (Units=GPa)
#
#
# Indices 1 2 3 4 5 6 
#
# 1 42.2267 19.6091 8.8475 0.0000 0.0000 0.0000
# 2 19.6091 134.0317 32.3109 0.0000 0.0000 0.0000
# 3 8.8475 32.3109 61.5698 0.0000 0.0000 0.0000
# 4 0.0000 0.0000 0.0000 15.2475 0.0000 0.0000
# 5 0.0000 0.0000 0.0000 0.0000 12.8890 0.0000
# 6 0.0000 0.0000 0.0000 0.0000 0.0000 25.6944
#
#
#
# Elastic Compliance Matrix: (Units=1/GPa)
#
#
# Indices 1 2 3 4 5 6 
#
# 1 0.025613 -0.003274 -0.001962 0.000000 0.000000 0.000000
# 2 -0.003274 0.008960 -0.004232 0.000000 0.000000 0.000000
# 3 -0.001962 -0.004232 0.018744 0.000000 0.000000 0.000000
# 4 0.000000 0.000000 0.000000 0.065585 0.000000 0.000000
# 5 0.000000 0.000000 0.000000 0.000000 0.077585 0.000000
# 6 0.000000 0.000000 0.000000 0.000000 0.000000 0.038919
#
#
# Mechanical properties :
#
#
# Convention : Reuss Voigt Hill
#
# Bulk Modulus (GPa) = 29.08542 39.92923 34.50733
# Shear Modulus (GPa) = 18.81089 22.57023 20.69056
#
# Velocity S-wave (km/s) = 3.24408 3.55349 3.40231
# Velocity P-wave (km/s) = 5.50495 6.25904 5.89406
#
# Compressibility (1/GPa) = 0.03438149
#
# Stress axis : x y z
#
# Youngs Moduli (GPa) = 39.04213 111.60639 53.34930
#
# Poissons Ratio (x) = 0.36543 0.10469
# Poissons Ratio (y) = 0.12783 0.22575
# Poissons Ratio (z) = 0.07661 0.47227
#
# Static dielectric constant tensor:
#      x y z
#    x 1.612270 0.000000 0.000000 
#    y 0.000000 1.699440 0.000000 
#    z 0.000000 0.000000 1.611190 
# 
# From -- ./inp_files/21411.got.cif
#   From: 2010.05.17/outbox.cif.g08.bks.cpg/sg46_11_cif.got.tgz:21411.got - 2010.06.03 19:58:25.
