data_PCOD9378236
_publ_section_title
;
Structure prediction by ZEFSAII (Michael W. Deem and Ramdas Pophale) SiO2 
 PCOD9378236
Probable space group: I M A 2
;
_chemical_formula_sum "Si O2"
_cell_formula_units_Z 64
_cell_length_a 7.864148
_cell_length_b 25.602444
_cell_length_c 15.648615
_cell_angle_alpha 90.000000
_cell_angle_beta 90.000000
_cell_angle_gamma 90.000000
_cell_volume 3150.714190
_symmetry_space_group_name_H-M "I M A 2"
_symmetry_group_IT_number 46
_symmetry_cell_setting 'orthorhombic'
loop_
_space_group_symop_operation_xyz
x,y,z
-x,-y,z
1/2-x,y,z
1/2+x,-y,z
1/2+x,1/2+y,1/2+z
1/2-x,1/2-y,1/2+z
-x,1/2+y,1/2+z
x,1/2-y,1/2+z
loop_
_atom_site_type_symbol
_atom_site_label
_atom_site_fract_x
_atom_site_fract_y
_atom_site_fract_z
Si Si1 0.450318 0.727681 0.527990
Si Si2 0.454056 0.363477 0.224600
Si Si3 0.458570 0.612448 0.552351
Si Si4 0.456736 0.264819 0.330676
Si Si5 0.547484 0.060690 0.875789
Si Si6 0.951580 0.441016 0.723551
Si Si7 0.045952 0.350212 0.851953
Si Si8 0.447825 0.156579 0.543198
O O1 0.250000 0.733878 0.545046
O O2 0.511170 0.672622 0.565650
O O3 0.479092 0.722998 0.426030
O O4 0.541327 0.780717 0.556222
O O5 0.250000 0.358407 0.217221
O O6 0.518098 0.309462 0.266743
O O7 0.488365 0.409687 0.290777
O O8 0.522445 0.369410 0.128319
O O9 0.250000 0.612689 0.550385
O O10 0.517941 0.589762 0.461368
O O11 0.518858 0.577069 0.630846
O O12 0.250000 0.266527 0.332425
O O13 0.511831 0.205290 0.312372
O O14 0.750000 0.064608 0.877885
O O15 0.500000 0.000000 0.876836
O O16 0.750000 0.438738 0.717623
O O17 0.000000 0.500000 0.744064
O O18 0.005097 0.399377 0.794338
O O19 0.250000 0.346155 0.858382
O O20 0.976978 0.354117 0.949235
O O21 0.250000 0.141234 0.537873
#
# Coordination Sequence:
#
# PCOD9378236 Si02
#       8
#     8   8   8   8   8   8   8   8
#     4  10  18  32  53  81 116 151 186 223 273 332
#     4  10  20  36  58  85 115 151 191 232 280 335
#     4   9  20  36  54  81 116 149 183 227 279 336
#     4   9  18  33  54  82 115 147 184 225 274 334
#     4  11  22  39  59  82 115 152 191 235 283 336
#     4  11  23  40  59  81 109 145 191 238 284 336
#     4   9  19  37  57  82 113 146 184 233 284 332
#     4   9  20  37  57  82 117 152 187 232 279 334
#
# _framework density 20.312854000000002
#
# number of rings (size 3 to 8) (size 9 to 14) (size 15 to 20)
#    0.000    2.250    1.250    2.250    1.750    2.500 
#    0.000    4.375    0.000    0.000    0.000    0.000 
#    0.000    0.000    0.000    0.000    0.000    0.000 
#
# Total GULP energy -178620.388493 kJ/mol
# GULP energy per Si atom -5581.887140 kJ/mol
# Density = 2.026662 g / cm^3
# Si number density = 20.312854 Si / 1000 Ang^3
#
#
#
# Elastic Constant Matrix: (Units=GPa)
#
#
# Indices 1 2 3 4 5 6 
#
# 1 18.5950 -12.1352 1.3557 0.0000 0.0000 0.0000
# 2 -12.1352 102.4739 48.1376 0.0000 0.0000 0.0000
# 3 1.3557 48.1376 90.0752 0.0000 0.0000 0.0000
# 4 0.0000 0.0000 0.0000 34.2223 0.0000 0.0000
# 5 0.0000 0.0000 0.0000 0.0000 17.8205 0.0000
# 6 0.0000 0.0000 0.0000 0.0000 0.0000 20.6690
#
#
#
# Elastic Compliance Matrix: (Units=1/GPa)
#
#
# Indices 1 2 3 4 5 6 
#
# 1 0.060902 0.010204 -0.006370 0.000000 0.000000 0.000000
# 2 0.010204 0.014739 -0.008031 0.000000 0.000000 0.000000
# 3 -0.006370 -0.008031 0.015489 0.000000 0.000000 0.000000
# 4 0.000000 0.000000 0.000000 0.029221 0.000000 0.000000
# 5 0.000000 0.000000 0.000000 0.000000 0.056115 0.000000
# 6 0.000000 0.000000 0.000000 0.000000 0.000000 0.048382
#
#
# Mechanical properties :
#
#
# Convention : Reuss Voigt Hill
#
# Bulk Modulus (GPa) = 12.08628 31.76226 21.92427
# Shear Modulus (GPa) = 19.17033 26.12811 22.64922
#
# Velocity S-wave (km/s) = 3.07539 3.59037 3.34281
# Velocity P-wave (km/s) = 4.30972 5.73220 5.07109
#
# Compressibility (1/GPa) = 0.08273846
#
# Stress axis : x y z
#
# Youngs Moduli (GPa) = 16.41985 67.84531 64.56042
#
# Poissons Ratio (x) = -0.69233 0.41125
# Poissons Ratio (y) = -0.16756 0.51846
# Poissons Ratio (z) = 0.10459 0.54484
#
# Static dielectric constant tensor:
#      x y z
#    x 1.728420 0.000000 0.000000 
#    y 0.000000 1.639220 0.000000 
#    z 0.000000 0.000000 1.752710 
# 
# From -- ./inp_files/14492.got.cif
#   From: 2010.05.17/outbox.cif.g08.bks.cpg/sg46_8_cif.got.tgz:14492.got - 2010.06.03 19:58:25.
