data_PCOD9378829
_publ_section_title
;
Structure prediction by ZEFSAII (Michael W. Deem and Ramdas Pophale) SiO2 
 PCOD9378829
Probable space group: I M A 2
;
_chemical_formula_sum "Si O2"
_cell_formula_units_Z 56
_cell_length_a 8.459652
_cell_length_b 14.549999
_cell_length_c 23.557327
_cell_angle_alpha 90.000000
_cell_angle_beta 90.000000
_cell_angle_gamma 90.000000
_cell_volume 2899.622573
_symmetry_space_group_name_H-M "I M A 2"
_symmetry_group_IT_number 46
_symmetry_cell_setting 'orthorhombic'
loop_
_space_group_symop_operation_xyz
x,y,z
-x,-y,z
1/2-x,y,z
1/2+x,-y,z
1/2+x,1/2+y,1/2+z
1/2-x,1/2-y,1/2+z
-x,1/2+y,1/2+z
x,1/2-y,1/2+z
loop_
_atom_site_type_symbol
_atom_site_label
_atom_site_fract_x
_atom_site_fract_y
_atom_site_fract_z
Si Si1 0.062003 0.207751 0.887670
Si Si2 0.558025 0.201867 0.114009
Si Si3 0.928974 0.353614 0.271729
Si Si4 0.939846 0.094735 0.353106
Si Si5 0.939704 0.603990 0.501095
Si Si6 0.070797 0.859070 0.232402
Si Si7 0.558784 0.404803 0.150796
O O1 0.250000 0.217019 0.889947
O O2 0.005620 0.155933 0.943996
O O3 0.017647 0.150283 0.831192
O O4 0.990916 0.310109 0.881951
O O5 0.750000 0.199709 0.116243
O O6 0.499453 0.144803 0.169549
O O7 0.510748 0.309079 0.121220
O O8 0.499533 0.157540 0.056412
O O9 0.750000 0.387510 0.281370
O O10 0.917135 0.247839 0.250687
O O11 0.001261 0.400879 0.216229
O O12 0.750000 0.094453 0.350270
O O13 0.007070 0.097984 0.288142
O O14 0.000000 0.000000 0.379948
O O15 0.750000 0.603314 0.501248
O O16 0.000000 0.500000 0.501762
O O17 0.250000 0.896278 0.227305
O O18 0.500000 0.500000 0.124445
O O19 0.750000 0.404798 0.153078
#
# Coordination Sequence:
#
# PCOD9378829 Si02
#       7
#     8   8   8   8   8   8   8
#     4  10  21  37  55  78 108 141 182 228 270 316
#     4   9  18  36  58  79 108 144 182 223 268 316
#     4   8  15  30  51  75 105 140 175 212 260 312
#     4  10  19  33  55  83 115 147 178 215 264 321
#     4  11  25  42  59  79 103 135 179 228 273 320
#     4   7  13  28  50  75 103 136 172 211 255 305
#     4   9  18  32  53  83 116 147 178 217 266 322
#
# _framework density 19.312859
#
# number of rings (size 3 to 8) (size 9 to 14) (size 15 to 20)
#    0.000    2.857    0.000    3.857    0.000    4.571 
#    0.000   11.429    0.000    1.714    0.000    0.000 
#    0.000    0.000    0.000    0.000    0.000    0.000 
#
# Total GULP energy -155987.315679 kJ/mol
# GULP energy per Si atom -5570.975560 kJ/mol
# Density = 1.926890 g / cm^3
# Si number density = 19.312859 Si / 1000 Ang^3
#
#
#
# Elastic Constant Matrix: (Units=GPa)
#
#
# Indices 1 2 3 4 5 6 
#
# 1 29.6214 21.9018 27.4040 0.0000 0.0000 0.0000
# 2 21.9018 132.3910 67.3198 0.0000 0.0000 0.0000
# 3 27.4040 67.3198 140.8091 0.0000 0.0000 0.0000
# 4 0.0000 0.0000 0.0000 19.2768 0.0000 0.0000
# 5 0.0000 0.0000 0.0000 0.0000 14.9007 0.0000
# 6 0.0000 0.0000 0.0000 0.0000 0.0000 23.2050
#
#
#
# Elastic Compliance Matrix: (Units=1/GPa)
#
#
# Indices 1 2 3 4 5 6 
#
# 1 0.042526 -0.003735 -0.006491 0.000000 0.000000 0.000000
# 2 -0.003735 0.010307 -0.004201 0.000000 0.000000 0.000000
# 3 -0.006491 -0.004201 0.010374 0.000000 0.000000 0.000000
# 4 0.000000 0.000000 0.000000 0.051876 0.000000 0.000000
# 5 0.000000 0.000000 0.000000 0.000000 0.067111 0.000000
# 6 0.000000 0.000000 0.000000 0.000000 0.000000 0.043094
#
#
# Mechanical properties :
#
#
# Convention : Reuss Voigt Hill
#
# Bulk Modulus (GPa) = 29.10903 59.56365 44.33634
# Shear Modulus (GPa) = 18.82589 23.88955 21.35772
#
# Velocity S-wave (km/s) = 3.12554 3.52088 3.32909
# Velocity P-wave (km/s) = 5.30381 6.88747 6.14685
#
# Compressibility (1/GPa) = 0.03435360
#
# Stress axis : x y z
#
# Youngs Moduli (GPa) = 23.51529 97.01739 96.39904
#
# Poissons Ratio (x) = 0.36232 0.62570
# Poissons Ratio (y) = 0.08782 0.40498
# Poissons Ratio (z) = 0.15263 0.40758
#
# Static dielectric constant tensor:
#      x y z
#    x 1.680710 0.000000 0.000000 
#    y 0.000000 1.689650 0.000000 
#    z 0.000000 0.000000 1.690520 
# 
# From -- ./inp_files/21067.got.cif
#   From: 2010.05.17/outbox.cif.g08.bks.cpg/sg46_11_cif.got.tgz:21067.got - 2010.06.03 19:58:25.
