data_PCOD9378338
_publ_section_title
;
Structure prediction by ZEFSAII (Michael W. Deem and Ramdas Pophale) SiO2 
 PCOD9378338
Probable space group: I M A 2
;
_chemical_formula_sum "Si O2"
_cell_formula_units_Z 48
_cell_length_a 10.228820
_cell_length_b 8.707665
_cell_length_c 29.033681
_cell_angle_alpha 90.000000
_cell_angle_beta 90.000000
_cell_angle_gamma 90.000000
_cell_volume 2586.004937
_symmetry_space_group_name_H-M "I M A 2"
_symmetry_group_IT_number 46
_symmetry_cell_setting 'orthorhombic'
loop_
_space_group_symop_operation_xyz
x,y,z
-x,-y,z
1/2-x,y,z
1/2+x,-y,z
1/2+x,1/2+y,1/2+z
1/2-x,1/2-y,1/2+z
-x,1/2+y,1/2+z
x,1/2-y,1/2+z
loop_
_atom_site_type_symbol
_atom_site_label
_atom_site_fract_x
_atom_site_fract_y
_atom_site_fract_z
Si Si1 0.903853 0.356761 0.337760
Si Si2 0.750000 0.318090 0.591150
Si Si3 0.750000 0.813349 0.487681
Si Si4 0.250000 0.309451 0.592864
Si Si5 0.404252 0.645242 0.748013
Si Si6 0.505102 0.184830 0.937179
Si Si7 0.750000 0.179637 0.490656
Si Si8 0.496629 0.813144 0.151082
O O1 0.750000 0.399472 0.346634
O O2 0.905519 0.247063 0.293697
O O3 0.963653 0.279492 0.383752
O O4 0.000000 0.500000 0.328808
O O5 0.750000 0.504306 0.587378
O O6 0.750000 0.240210 0.542235
O O7 0.876023 0.269359 0.619479
O O8 0.750000 0.756372 0.541015
O O9 0.625308 0.751818 0.459575
O O10 0.750000 0.996791 0.488289
O O11 0.374079 0.264410 0.624122
O O12 0.500000 0.500000 0.755265
O O13 0.250000 0.604379 0.737972
O O14 0.465061 0.732181 0.703522
O O15 0.623961 0.251745 0.965990
O O16 0.500000 0.000000 0.940392
O O17 0.500000 0.000000 0.153149
#
# Coordination Sequence:
#
# PCOD9378338 Si02
#       8
#     8   4   4   4   8   8   4   8
#     4  10  23  43  65  92 122 158 207 256 305 368
#     4  10  18  34  59  80 113 163 208 249 301 366
#     4  12  26  40  61  96 131 161 204 269 325 372
#     4  10  20  36  57  86 117 161 216 255 299 372
#     4  10  21  38  61  94 128 161 202 254 311 364
#     4  11  23  43  66  89 119 171 216 254 303 379
#     4  12  24  40  61  92 131 159 202 269 327 368
#     4   9  18  33  57  86 115 156 208 257 292 353
#
# _framework density 18.561447999999999
#
# number of rings (size 3 to 8) (size 9 to 14) (size 15 to 20)
#    0.000    1.667    1.667    3.000    7.000    3.333 
#    0.000    1.667    0.000    0.000    0.000    0.000 
#    0.000    0.000    0.000    0.000    0.000    0.000 
#
# Total GULP energy -133914.272125 kJ/mol
# GULP energy per Si atom -5579.761339 kJ/mol
# Density = 1.851920 g / cm^3
# Si number density = 18.561448 Si / 1000 Ang^3
#
#
#
# Elastic Constant Matrix: (Units=GPa)
#
#
# Indices 1 2 3 4 5 6 
#
# 1 195.0315 40.7429 96.9715 0.0000 0.0000 0.0000
# 2 40.7429 49.5268 55.0045 0.0000 0.0000 0.0000
# 3 96.9715 55.0045 185.9228 0.0000 0.0000 0.0000
# 4 0.0000 0.0000 0.0000 23.2162 0.0000 0.0000
# 5 0.0000 0.0000 0.0000 0.0000 39.5451 0.0000
# 6 0.0000 0.0000 0.0000 0.0000 0.0000 27.0626
#
#
#
# Elastic Compliance Matrix: (Units=1/GPa)
#
#
# Indices 1 2 3 4 5 6 
#
# 1 0.007139 -0.002588 -0.002958 0.000000 0.000000 0.000000
# 2 -0.002588 0.031010 -0.007824 0.000000 0.000000 0.000000
# 3 -0.002958 -0.007824 0.009236 0.000000 0.000000 0.000000
# 4 0.000000 0.000000 0.000000 0.043073 0.000000 0.000000
# 5 0.000000 0.000000 0.000000 0.000000 0.025288 0.000000
# 6 0.000000 0.000000 0.000000 0.000000 0.000000 0.036951
#
#
# Mechanical properties :
#
#
# Convention : Reuss Voigt Hill
#
# Bulk Modulus (GPa) = 48.43866 90.65763 69.54815
# Shear Modulus (GPa) = 26.83587 33.81558 30.32573
#
# Velocity S-wave (km/s) = 3.80647 4.27291 4.04642
# Velocity P-wave (km/s) = 6.74329 8.56105 7.70596
#
# Compressibility (1/GPa) = 0.02064467
#
# Stress axis : x y z
#
# Youngs Moduli (GPa) = 140.08461 32.24801 108.27152
#
# Poissons Ratio (x) = 0.08345 0.32023
# Poissons Ratio (y) = 0.36249 0.84716
# Poissons Ratio (z) = 0.41433 0.25232
#
# Static dielectric constant tensor:
#      x y z
#    x 1.612860 0.000000 0.000000 
#    y 0.000000 1.622850 0.000000 
#    z 0.000000 0.000000 1.641550 
# 
# From -- ./inp_files/25080.got.cif
#   From: 2010.05.17/outbox.cif.g08.bks.cpg/sg46_13_cif.got.tgz:25080.got - 2010.06.03 19:58:25.
