data_PCOD9378817
_publ_section_title
;
Structure prediction by ZEFSAII (Michael W. Deem and Ramdas Pophale) SiO2 
 PCOD9378817
Probable space group: I M A 2
;
_chemical_formula_sum "Si O2"
_cell_formula_units_Z 64
_cell_length_a 7.618679
_cell_length_b 17.174435
_cell_length_c 21.589264
_cell_angle_alpha 90.000000
_cell_angle_beta 90.000000
_cell_angle_gamma 90.000000
_cell_volume 2824.879789
_symmetry_space_group_name_H-M "I M A 2"
_symmetry_group_IT_number 46
_symmetry_cell_setting 'orthorhombic'
loop_
_space_group_symop_operation_xyz
x,y,z
-x,-y,z
1/2-x,y,z
1/2+x,-y,z
1/2+x,1/2+y,1/2+z
1/2-x,1/2-y,1/2+z
-x,1/2+y,1/2+z
x,1/2-y,1/2+z
loop_
_atom_site_type_symbol
_atom_site_label
_atom_site_fract_x
_atom_site_fract_y
_atom_site_fract_z
Si Si1 0.958677 0.584403 0.071550
Si Si2 0.543217 0.290538 0.172792
Si Si3 0.465288 0.127347 0.303785
Si Si4 0.958677 0.915597 0.036021
Si Si5 0.451175 0.387214 0.670228
Si Si6 0.956783 0.290538 0.434779
Si Si7 0.048825 0.387214 0.937343
Si Si8 0.952495 0.189032 0.803785
O O1 0.750000 0.594285 0.067026
O O2 0.000000 0.500000 0.099102
O O3 0.024265 0.654086 0.114192
O O4 0.034927 0.585993 0.001667
O O5 0.750000 0.273957 0.181754
O O6 0.452990 0.207015 0.165647
O O7 0.474403 0.331517 0.236046
O O8 0.250000 0.129260 0.303785
O O9 0.526246 0.092804 0.238067
O O10 0.526246 0.092804 0.369504
O O11 0.530853 0.216688 0.303785
O O12 0.750000 0.905715 0.040545
O O13 0.034926 0.914007 0.105904
O O14 0.000000 0.000000 0.008469
O O15 0.024265 0.845914 0.993379
O O16 0.250000 0.414833 0.671153
O O17 0.750000 0.273957 0.425817
O O18 0.025597 0.331517 0.371525
O O19 0.047010 0.207015 0.441924
O O20 0.250000 0.414833 0.936418
O O21 0.750000 0.163383 0.803785
#
# Coordination Sequence:
#
# PCOD9378817 Si02
#       8
#     8   8   8   8   8   8   8   8
#     4  11  23  37  51  71 102 137 173 211 251 296
#     4  10  19  33  55  80 104 131 165 205 250 300
#     4   8  14  28  51  76 100 128 163 202 246 294
#     4  11  23  37  51  71 102 137 173 211 251 296
#     4   9  18  33  54  78 103 132 167 207 249 296
#     4  10  19  33  55  80 104 131 165 205 250 300
#     4   9  18  33  54  78 103 132 167 207 249 296
#     4   8  16  30  49  76 105 128 157 202 249 294
#
# _framework density 22.655833000000001
#
# number of rings (size 3 to 8) (size 9 to 14) (size 15 to 20)
#    0.000    2.500    0.000    2.250    0.000    6.000 
#    0.000    1.250    0.000    0.000    0.000    0.000 
#    0.000    0.000    0.000    0.000    0.000    0.000 
#
# Total GULP energy -178495.161013 kJ/mol
# GULP energy per Si atom -5577.973782 kJ/mol
# Density = 2.260427 g / cm^3
# Si number density = 22.655833 Si / 1000 Ang^3
#
#
#
# Elastic Constant Matrix: (Units=GPa)
#
#
# Indices 1 2 3 4 5 6 
#
# 1 70.4246 -10.9523 0.6242 0.0000 0.0000 0.0000
# 2 -10.9523 66.4685 37.9523 0.0000 0.0000 0.0000
# 3 0.6242 37.9523 148.4030 0.0000 0.0000 0.0000
# 4 0.0000 0.0000 0.0000 -32.8815 0.0000 0.0000
# 5 0.0000 0.0000 0.0000 0.0000 16.2914 0.0000
# 6 0.0000 0.0000 0.0000 0.0000 0.0000 7.9532
#
#
#
# Elastic Compliance Matrix: (Units=1/GPa)
#
#
# Indices 1 2 3 4 5 6 
#
# 1 0.014653 0.002868 -0.000795 0.000000 0.000000 0.000000
# 2 0.002868 0.018179 -0.004661 0.000000 0.000000 0.000000
# 3 -0.000795 -0.004661 0.007934 0.000000 0.000000 0.000000
# 4 0.000000 0.000000 0.000000 -0.030412 0.000000 0.000000
# 5 0.000000 0.000000 0.000000 0.000000 0.061382 0.000000
# 6 0.000000 0.000000 0.000000 0.000000 0.000000 0.125735
#
#
# Mechanical properties :
#
#
# Convention : Reuss Voigt Hill
#
# Bulk Modulus (GPa) = 28.09810 37.83828 32.96819
# Shear Modulus (GPa) = 23.30907 15.45076 19.37991
#
# Velocity S-wave (km/s) = 3.21102 2.61430 2.92790
# Velocity P-wave (km/s) = 5.11631 5.08433 5.10034
#
# Compressibility (1/GPa) = 0.03558960
#
# Stress axis : x y z
#
# Youngs Moduli (GPa) = 68.24669 55.00928 126.04361
#
# Poissons Ratio (x) = -0.15779 0.10023
# Poissons Ratio (y) = -0.19576 0.58750
# Poissons Ratio (z) = 0.05427 0.25640
#
# Static dielectric constant tensor:
#      x y z
#    x 1.894990 0.000000 0.000000 
#    y 0.000000 1.759110 0.000000 
#    z 0.000000 0.000000 1.942300 
# 
# From -- ./inp_files/21284.got.cif
#   From: 2010.05.17/outbox.cif.g08.bks.cpg/sg46_11_cif.got.tgz:21284.got - 2010.06.03 19:58:25.
