data_PCOD9378473
_publ_section_title
;
Structure prediction by ZEFSAII (Michael W. Deem and Ramdas Pophale) SiO2 
 PCOD9378473
Probable space group: I M A 2
;
_chemical_formula_sum "Si O2"
_cell_formula_units_Z 56
_cell_length_a 8.780516
_cell_length_b 13.939641
_cell_length_c 29.908295
_cell_angle_alpha 90.000000
_cell_angle_beta 90.000000
_cell_angle_gamma 90.000000
_cell_volume 3660.692786
_symmetry_space_group_name_H-M "I M A 2"
_symmetry_group_IT_number 46
_symmetry_cell_setting 'orthorhombic'
loop_
_space_group_symop_operation_xyz
x,y,z
-x,-y,z
1/2-x,y,z
1/2+x,-y,z
1/2+x,1/2+y,1/2+z
1/2-x,1/2-y,1/2+z
-x,1/2+y,1/2+z
x,1/2-y,1/2+z
loop_
_atom_site_type_symbol
_atom_site_label
_atom_site_fract_x
_atom_site_fract_y
_atom_site_fract_z
Si Si1 0.931963 0.607855 0.171630
Si Si2 0.567617 0.107390 0.763270
Si Si3 0.567700 0.212809 0.586348
Si Si4 0.932532 0.605255 0.538965
Si Si5 0.068226 0.895092 0.494065
Si Si6 0.431948 0.213602 0.947160
Si Si7 0.432179 0.892641 0.862679
O O1 0.750000 0.601622 0.172114
O O2 0.000000 0.500000 0.167103
O O3 0.992305 0.650013 0.218843
O O4 0.990589 0.670364 0.130352
O O5 0.750000 0.103808 0.757644
O O6 0.533478 0.147213 0.812726
O O7 0.500000 0.000000 0.764908
O O8 0.750000 0.216404 0.591692
O O9 0.503842 0.316584 0.572400
O O10 0.532815 0.143420 0.544116
O O11 0.750000 0.604291 0.543505
O O12 0.969744 0.643139 0.488849
O O13 0.000000 0.500000 0.545569
O O14 0.250000 0.897134 0.489296
O O15 0.998568 0.816740 0.460584
O O16 0.000000 0.000000 0.487646
O O17 0.250000 0.218880 0.943853
O O18 0.501000 0.171741 0.901939
O O19 0.250000 0.899392 0.866774
O O20 0.500000 0.000000 0.866322
#
# Coordination Sequence:
#
# PCOD9378473 Si02
#       7
#     8   8   8   8   8   8   8
#     4  11  20  30  46  68  95 125 156 191 230 276
#     4   9  17  29  44  64  91 122 154 189 229 274
#     4  10  20  33  49  69  93 123 157 192 230 274
#     4  10  20  33  48  68  94 124 157 193 231 272
#     4  10  20  33  49  68  93 123 156 193 232 273
#     4  10  20  32  48  69  94 124 158 192 229 274
#     4  10  19  30  46  68  95 125 157 192 231 275
#
# _framework density 15.297651999999999
#
# number of rings (size 3 to 8) (size 9 to 14) (size 15 to 20)
#    0.000    2.000    0.000    5.571    0.000    7.429 
#    0.000    0.000    0.000    0.000    0.000    1.000 
#    0.000    6.857    0.000    0.000    0.000    0.000 
#
# Total GULP energy -156225.723830 kJ/mol
# GULP energy per Si atom -5579.490137 kJ/mol
# Density = 1.526283 g / cm^3
# Si number density = 15.297652 Si / 1000 Ang^3
#
#
#
# Elastic Constant Matrix: (Units=GPa)
#
#
# Indices 1 2 3 4 5 6 
#
# 1 86.7771 50.2203 71.8516 0.0000 0.0000 0.0000
# 2 50.2203 107.6940 70.9732 0.0000 0.0000 0.0000
# 3 71.8516 70.9732 153.8412 0.0000 0.0000 0.0000
# 4 0.0000 0.0000 0.0000 26.2069 0.0000 0.0000
# 5 0.0000 0.0000 0.0000 0.0000 27.0812 0.0000
# 6 0.0000 0.0000 0.0000 0.0000 0.0000 26.7876
#
#
#
# Elastic Compliance Matrix: (Units=1/GPa)
#
#
# Indices 1 2 3 4 5 6 
#
# 1 0.020272 -0.004617 -0.007338 0.000000 0.000000 0.000000
# 2 -0.004617 0.014394 -0.004484 0.000000 0.000000 0.000000
# 3 -0.007338 -0.004484 0.011996 0.000000 0.000000 0.000000
# 4 0.000000 0.000000 0.000000 0.038158 0.000000 0.000000
# 5 0.000000 0.000000 0.000000 0.000000 0.036926 0.000000
# 6 0.000000 0.000000 0.000000 0.000000 0.000000 0.037331
#
#
# Mechanical properties :
#
#
# Convention : Reuss Voigt Hill
#
# Bulk Modulus (GPa) = 72.55136 81.60028 77.07582
# Shear Modulus (GPa) = 25.43906 26.36629 25.90267
#
# Velocity S-wave (km/s) = 4.08234 4.15607 4.11937
# Velocity P-wave (km/s) = 8.35165 8.74575 8.55097
#
# Compressibility (1/GPa) = 0.01378334
#
# Stress axis : x y z
#
# Youngs Moduli (GPa) = 49.33014 69.47456 83.36210
#
# Poissons Ratio (x) = 0.32079 0.61168
# Poissons Ratio (y) = 0.22778 0.37378
# Poissons Ratio (z) = 0.36197 0.31151
#
# Static dielectric constant tensor:
#      x y z
#    x 1.506190 0.000000 0.000000 
#    y 0.000000 1.466070 0.000000 
#    z 0.000000 0.000000 1.525030 
# 
# From -- ./inp_files/25248.got.cif
#   From: 2010.05.17/outbox.cif.g08.bks.cpg/sg46_13_cif.got.tgz:25248.got - 2010.06.03 19:58:25.
