data_PCOD9378851
_publ_section_title
;
Structure prediction by ZEFSAII (Michael W. Deem and Ramdas Pophale) SiO2 
 PCOD9378851
Probable space group: I M A 2
;
_chemical_formula_sum "Si O2"
_cell_formula_units_Z 56
_cell_length_a 13.191726
_cell_length_b 5.353229
_cell_length_c 34.732449
_cell_angle_alpha 90.000000
_cell_angle_beta 90.000000
_cell_angle_gamma 90.000000
_cell_volume 2452.747552
_symmetry_space_group_name_H-M "I M A 2"
_symmetry_group_IT_number 46
_symmetry_cell_setting 'orthorhombic'
loop_
_space_group_symop_operation_xyz
x,y,z
-x,-y,z
1/2-x,y,z
1/2+x,-y,z
1/2+x,1/2+y,1/2+z
1/2-x,1/2-y,1/2+z
-x,1/2+y,1/2+z
x,1/2-y,1/2+z
loop_
_atom_site_type_symbol
_atom_site_label
_atom_site_fract_x
_atom_site_fract_y
_atom_site_fract_z
Si Si1 0.436610 0.254086 0.452320
Si Si2 0.066678 0.248891 0.109446
Si Si3 0.368466 0.420581 0.030423
Si Si4 0.869722 0.737519 0.364782
Si Si5 0.132013 0.349943 0.193987
Si Si6 0.872034 0.261068 0.819799
Si Si7 0.874504 0.151373 0.232979
O O1 0.500000 0.500000 0.462100
O O2 0.365292 0.209222 0.489031
O O3 0.394771 0.293406 0.409572
O O4 0.500000 0.000000 0.448424
O O5 0.129325 0.265814 0.069867
O O6 0.123991 0.263676 0.149902
O O7 0.000000 0.500000 0.110478
O O8 0.000000 0.000000 0.108457
O O9 0.500000 0.500000 0.029918
O O10 0.250000 0.549236 0.032357
O O11 0.750000 0.741979 0.362790
O O12 0.899859 0.495343 0.340530
O O13 0.899721 0.999170 0.345432
O O14 0.250000 0.367652 0.203679
O O15 0.094484 0.629880 0.203106
O O16 0.092972 0.124944 0.220414
O O17 0.750000 0.261729 0.817335
O O18 0.908412 0.280751 0.776003
O O19 0.750000 0.142976 0.233071
#
# Coordination Sequence:
#
# PCOD9378851 Si02
#       7
#     8   8   8   8   8   8   8
#     4  11  23  41  63  92 130 174 221 277 343 411
#     4  11  23  41  63  92 130 174 221 277 343 411
#     4  10  23  46  75 110 148 190 238 292 354 424
#     4  10  19  33  56  84 115 158 212 273 338 406
#     4  10  19  33  56  84 115 158 212 273 338 406
#     4   9  17  30  52  83 116 154 209 275 340 407
#     4   9  17  30  52  83 116 154 209 275 340 407
#
# _framework density 22.831537000000001
#
# number of rings (size 3 to 8) (size 9 to 14) (size 15 to 20)
#    0.000    2.000    0.000    3.857    0.000    3.429 
#    0.000   18.571    0.000   17.143    0.000    0.000 
#    0.000    0.000    0.000    0.000    0.000    0.000 
#
# Total GULP energy -155875.043282 kJ/mol
# GULP energy per Si atom -5566.965831 kJ/mol
# Density = 2.277957 g / cm^3
# Si number density = 22.831537 Si / 1000 Ang^3
#
#
#
# Elastic Constant Matrix: (Units=GPa)
#
#
# Indices 1 2 3 4 5 6 
#
# 1 122.2046 36.5899 16.0593 0.0000 0.0000 0.0000
# 2 36.5899 161.6847 58.5899 0.0000 0.0000 0.0000
# 3 16.0593 58.5899 179.0333 0.0000 0.0000 0.0000
# 4 0.0000 0.0000 0.0000 23.4437 0.0000 0.0000
# 5 0.0000 0.0000 0.0000 0.0000 40.9623 0.0000
# 6 0.0000 0.0000 0.0000 0.0000 0.0000 130.3742
#
#
#
# Elastic Compliance Matrix: (Units=1/GPa)
#
#
# Indices 1 2 3 4 5 6 
#
# 1 0.008782 -0.001931 -0.000156 0.000000 0.000000 0.000000
# 2 -0.001931 0.007442 -0.002262 0.000000 0.000000 0.000000
# 3 -0.000156 -0.002262 0.006340 0.000000 0.000000 0.000000
# 4 0.000000 0.000000 0.000000 0.042655 0.000000 0.000000
# 5 0.000000 0.000000 0.000000 0.000000 0.024413 0.000000
# 6 0.000000 0.000000 0.000000 0.000000 0.000000 0.007670
#
#
# Mechanical properties :
#
#
# Convention : Reuss Voigt Hill
#
# Bulk Modulus (GPa) = 72.12186 76.15565 74.13876
# Shear Modulus (GPa) = 45.19955 62.40162 53.80058
#
# Velocity S-wave (km/s) = 4.45421 5.23361 4.85956
# Velocity P-wave (km/s) = 7.62303 8.36354 8.00185
#
# Compressibility (1/GPa) = 0.01386542
#
# Stress axis : x y z
#
# Youngs Moduli (GPa) = 113.87450 134.38054 157.73320
#
# Poissons Ratio (x) = 0.25947 0.02458
# Poissons Ratio (y) = 0.21987 0.35681
# Poissons Ratio (z) = 0.01774 0.30398
#
# Static dielectric constant tensor:
#      x y z
#    x 2.050960 0.000000 0.000000 
#    y 0.000000 1.827810 0.000000 
#    z 0.000000 0.000000 1.820640 
# 
# From -- ./inp_files/25381.got.cif
#   From: 2010.05.17/outbox.cif.g08.bks.cpg/sg46_13_cif.got.tgz:25381.got - 2010.06.03 19:58:25.
