data_PCOD9378919
_publ_section_title
;
Structure prediction by ZEFSAII (Michael W. Deem and Ramdas Pophale) SiO2 
 PCOD9378919
Probable space group: I M A 2
;
_chemical_formula_sum "Si O2"
_cell_formula_units_Z 64
_cell_length_a 20.593186
_cell_length_b 9.342326
_cell_length_c 18.900512
_cell_angle_alpha 90.000000
_cell_angle_beta 90.000000
_cell_angle_gamma 90.000000
_cell_volume 3636.236560
_symmetry_space_group_name_H-M "I M A 2"
_symmetry_group_IT_number 46
_symmetry_cell_setting 'orthorhombic'
loop_
_space_group_symop_operation_xyz
x,y,z
-x,-y,z
1/2-x,y,z
1/2+x,-y,z
1/2+x,1/2+y,1/2+z
1/2-x,1/2-y,1/2+z
-x,1/2+y,1/2+z
x,1/2-y,1/2+z
loop_
_atom_site_type_symbol
_atom_site_label
_atom_site_fract_x
_atom_site_fract_y
_atom_site_fract_z
Si Si1 0.674388 0.156633 0.623870
Si Si2 0.561818 0.904231 0.147610
Si Si3 0.675610 0.425887 0.720842
Si Si4 0.434598 0.077951 0.977116
Si Si5 0.565402 0.922048 0.631100
Si Si6 0.824390 0.074112 0.387374
Si Si7 0.438182 0.404231 0.960606
Si Si8 0.825612 0.343366 0.484346
O O1 0.750000 0.115304 0.612110
O O2 0.670877 0.267180 0.688572
O O3 0.653654 0.250000 0.554108
O O4 0.628220 0.022875 0.639982
O O5 0.564164 0.735689 0.164750
O O6 0.500000 0.000000 0.171536
O O7 0.625591 0.977057 0.178644
O O8 0.561142 0.908487 0.062393
O O9 0.750000 0.473666 0.709457
O O10 0.661990 0.427278 0.804108
O O11 0.435836 0.235689 0.943466
O O12 0.500000 0.000000 0.952743
O O13 0.371780 0.977125 0.968234
O O14 0.561142 0.908487 0.545823
O O15 0.500000 0.000000 0.655473
O O16 0.750000 0.026334 0.398759
O O17 0.829122 0.232820 0.419644
O O18 0.874409 0.977057 0.429572
O O19 0.500000 0.500000 0.936680
O O20 0.750000 0.384696 0.496106
#
# Coordination Sequence:
#
# PCOD9378919 Si02
#       8
#     8   8   8   8   8   8   8   8
#     4  10  19  34  56  81 108 140 182 228 270 318
#     4  10  20  34  54  81 111 143 181 226 272 323
#     4  10  21  37  56  78 109 148 182 218 274 334
#     4  10  20  32  55  84 110 140 181 230 276 316
#     4  10  20  32  55  84 110 140 181 230 276 316
#     4  10  21  37  56  78 109 148 182 218 274 334
#     4  10  20  34  54  81 111 143 181 226 272 323
#     4  10  19  34  56  81 108 140 182 228 270 318
#
# _framework density 17.600615999999999
#
# number of rings (size 3 to 8) (size 9 to 14) (size 15 to 20)
#    0.000    2.000    2.500    1.500    3.500    1.500 
#    0.000    3.750    0.000    6.000    0.000    0.000 
#    0.000    0.000    0.000    0.000    0.000    0.000 
#
# Total GULP energy -178369.968366 kJ/mol
# GULP energy per Si atom -5574.061511 kJ/mol
# Density = 1.756056 g / cm^3
# Si number density = 17.600616 Si / 1000 Ang^3
#
#
#
# Elastic Constant Matrix: (Units=GPa)
#
#
# Indices 1 2 3 4 5 6 
#
# 1 101.7587 89.9556 18.9861 0.0000 0.0000 0.0000
# 2 89.9556 146.8955 17.1528 0.0000 0.0000 0.0000
# 3 18.9861 17.1528 22.7227 0.0000 0.0000 0.0000
# 4 0.0000 0.0000 0.0000 11.0952 0.0000 0.0000
# 5 0.0000 0.0000 0.0000 0.0000 2.4868 0.0000
# 6 0.0000 0.0000 0.0000 0.0000 0.0000 26.9774
#
#
#
# Elastic Compliance Matrix: (Units=1/GPa)
#
#
# Indices 1 2 3 4 5 6 
#
# 1 0.023148 -0.013069 -0.009476 0.000000 0.000000 0.000000
# 2 -0.013069 0.014844 -0.000285 0.000000 0.000000 0.000000
# 3 -0.009476 -0.000285 0.052143 0.000000 0.000000 0.000000
# 4 0.000000 0.000000 0.000000 0.090129 0.000000 0.000000
# 5 0.000000 0.000000 0.000000 0.000000 0.402125 0.000000
# 6 0.000000 0.000000 0.000000 0.000000 0.000000 0.037068
#
#
# Mechanical properties :
#
#
# Convention : Reuss Voigt Hill
#
# Bulk Modulus (GPa) = 22.48544 58.17398 40.32971
# Shear Modulus (GPa) = 7.35355 17.79737 12.57546
#
# Velocity S-wave (km/s) = 2.04624 3.18335 2.67589
# Velocity P-wave (km/s) = 4.28788 6.82903 5.70182
#
# Compressibility (1/GPa) = 0.04447323
#
# Stress axis : x y z
#
# Youngs Moduli (GPa) = 43.19949 67.36682 19.17821
#
# Poissons Ratio (x) = 0.88042 0.18174
# Poissons Ratio (y) = 0.56458 0.00547
# Poissons Ratio (z) = 0.40937 0.01923
#
# Static dielectric constant tensor:
#      x y z
#    x 1.611760 0.000000 0.000000 
#    y 0.000000 1.604580 0.000000 
#    z 0.000000 0.000000 1.584320 
# 
# From -- ./inp_files/20213.got.cif
#   From: 2010.05.17/outbox.cif.g08.bks.cpg/sg46_11_cif.got.tgz:20213.got - 2010.06.03 19:58:25.
