data_PCOD9378955
_publ_section_title
;
Structure prediction by ZEFSAII (Michael W. Deem and Ramdas Pophale) SiO2 
 PCOD9378955
Probable space group: I M A 2
;
_chemical_formula_sum "Si O2"
_cell_formula_units_Z 48
_cell_length_a 10.580843
_cell_length_b 18.589162
_cell_length_c 11.682386
_cell_angle_alpha 90.000000
_cell_angle_beta 90.000000
_cell_angle_gamma 90.000000
_cell_volume 2297.796874
_symmetry_space_group_name_H-M "I M A 2"
_symmetry_group_IT_number 46
_symmetry_cell_setting 'orthorhombic'
loop_
_space_group_symop_operation_xyz
x,y,z
-x,-y,z
1/2-x,y,z
1/2+x,-y,z
1/2+x,1/2+y,1/2+z
1/2-x,1/2-y,1/2+z
-x,1/2+y,1/2+z
x,1/2-y,1/2+z
loop_
_atom_site_type_symbol
_atom_site_label
_atom_site_fract_x
_atom_site_fract_y
_atom_site_fract_z
Si Si1 0.596866 0.717689 0.895380
Si Si2 0.750000 0.405848 0.140898
Si Si3 0.498070 0.414196 0.540821
Si Si4 0.596866 0.717689 0.646108
Si Si5 0.250000 0.078636 0.645742
Si Si6 0.250000 0.905848 0.900590
Si Si7 0.001930 0.414196 0.000667
Si Si8 0.250000 0.421364 0.395746
O O1 0.750000 0.712396 0.897606
O O2 0.563281 0.751635 0.770744
O O3 0.560263 0.750000 0.020744
O O4 0.531919 0.639160 0.897966
O O5 0.750000 0.492477 0.153159
O O6 0.750000 0.376034 0.270744
O O7 0.624258 0.391420 0.068069
O O8 0.500000 0.500000 0.567285
O O9 0.468081 0.360840 0.643522
O O10 0.624258 0.391420 0.473419
O O11 0.377294 0.401874 0.459363
O O12 0.750000 0.712396 0.643882
O O13 0.377294 0.098126 0.582125
O O14 0.250000 0.110954 0.770744
O O15 0.250000 0.992477 0.888329
O O16 0.000000 0.500000 0.974203
#
# Coordination Sequence:
#
# PCOD9378955 Si02
#       8
#     8   4   8   8   4   4   8   4
#     4  10  22  41  63  91 123 159 205 255 306 360
#     4   9  18  30  48  83 126 159 193 243 300 359
#     4  10  19  34  57  87 121 159 203 251 303 358
#     4  10  22  41  63  91 123 159 205 255 306 360
#     4   9  16  28  50  81 118 159 201 245 296 351
#     4   9  18  30  48  83 126 159 193 243 300 359
#     4  10  19  34  57  87 121 159 203 251 303 358
#     4   9  16  28  50  81 118 159 201 245 296 351
#
# _framework density 20.889575000000001
#
# number of rings (size 3 to 8) (size 9 to 14) (size 15 to 20)
#    0.000    2.333    1.667    1.000    0.000    7.333 
#    0.000    1.667    0.000    0.000    0.000    0.000 
#    0.000    0.000    0.000    0.000    0.000    0.000 
#
# Total GULP energy -133695.586494 kJ/mol
# GULP energy per Si atom -5570.649437 kJ/mol
# Density = 2.084203 g / cm^3
# Si number density = 20.889575 Si / 1000 Ang^3
#
#
#
# Elastic Constant Matrix: (Units=GPa)
#
#
# Indices 1 2 3 4 5 6 
#
# 1 121.3048 8.1031 39.7327 0.0000 0.0000 0.0006
# 2 8.1031 66.3805 46.7177 -0.0002 0.0000 0.0001
# 3 39.7327 46.7177 169.3890 -0.0004 0.0001 0.0003
# 4 0.0000 -0.0002 -0.0004 16.6498 0.0001 0.0003
# 5 0.0000 0.0000 0.0001 0.0001 13.5014 0.0000
# 6 0.0006 0.0001 0.0003 0.0003 0.0000 -132.9736
#
#
#
# Elastic Compliance Matrix: (Units=1/GPa)
#
#
# Indices 1 2 3 4 5 6 
#
# 1 0.008942 0.000477 -0.002229 0.000000 0.000000 0.000000
# 2 0.000477 0.018719 -0.005275 0.000000 0.000000 0.000000
# 3 -0.002229 -0.005275 0.007881 0.000000 0.000000 0.000000
# 4 0.000000 0.000000 0.000000 0.060061 0.000000 0.000000
# 5 0.000000 0.000000 0.000000 0.000000 0.074066 0.000000
# 6 0.000000 0.000000 0.000000 0.000000 0.000000 -0.007520
#
#
# Mechanical properties :
#
#
# Convention : Reuss Voigt Hill
#
# Bulk Modulus (GPa) = 46.53566 60.68683 53.61124
# Shear Modulus (GPa) = 27.26815 -3.06308 12.10254
#
# Velocity S-wave (km/s) = 3.61688 -1.21223 2.40960
# Velocity P-wave (km/s) = 6.30617 5.21104 5.78458
#
# Compressibility (1/GPa) = 0.02148890
#
# Stress axis : x y z
#
# Youngs Moduli (GPa) = 111.83255 53.42288 126.88474
#
# Poissons Ratio (x) = -0.02550 0.28284
# Poissons Ratio (y) = -0.05337 0.66926
# Poissons Ratio (z) = 0.24929 0.28178
#
# Static dielectric constant tensor:
#      x y z
#    x 1.530960 0.000000 0.000000 
#    y 0.000000 1.829610 0.000000 
#    z 0.000000 0.000000 1.779090 
# 
# From -- ./inp_files/10309.got.cif
#   From: 2010.05.17/outbox.cif.g08.bks.cpg/sg46_6_cif.got.tgz:10309.got - 2010.06.03 19:58:25.
