data_PCOD9378921
_publ_section_title
;
Structure prediction by ZEFSAII (Michael W. Deem and Ramdas Pophale) SiO2 
 PCOD9378921
Probable space group: I M A 2
;
_chemical_formula_sum "Si O2"
_cell_formula_units_Z 64
_cell_length_a 8.761616
_cell_length_b 21.040398
_cell_length_c 20.035209
_cell_angle_alpha 90.000000
_cell_angle_beta 90.000000
_cell_angle_gamma 90.000000
_cell_volume 3693.448460
_symmetry_space_group_name_H-M "I M A 2"
_symmetry_group_IT_number 46
_symmetry_cell_setting 'orthorhombic'
loop_
_space_group_symop_operation_xyz
x,y,z
-x,-y,z
1/2-x,y,z
1/2+x,-y,z
1/2+x,1/2+y,1/2+z
1/2-x,1/2-y,1/2+z
-x,1/2+y,1/2+z
x,1/2-y,1/2+z
loop_
_atom_site_type_symbol
_atom_site_label
_atom_site_fract_x
_atom_site_fract_y
_atom_site_fract_z
Si Si1 0.066759 0.933483 0.468680
Si Si2 0.431019 0.615090 0.248206
Si Si3 0.932249 0.615085 0.105165
Si Si4 0.932845 0.184983 0.966649
Si Si5 0.435620 0.810715 0.385151
Si Si6 0.931835 0.267053 0.742165
Si Si7 0.930813 0.766100 0.100566
Si Si8 0.068249 0.432404 0.385813
O O1 0.250000 0.935375 0.469350
O O2 0.015523 0.874310 0.422882
O O3 0.006597 0.921015 0.543377
O O4 0.000000 0.000000 0.444273
O O5 0.250000 0.602995 0.250040
O O6 0.499379 0.595848 0.176695
O O7 0.454582 0.691456 0.254299
O O8 0.510573 0.582334 0.310798
O O9 0.750000 0.606771 0.105404
O O10 0.966055 0.690464 0.095312
O O11 0.750000 0.179942 0.961459
O O12 0.982864 0.248072 0.925946
O O13 0.007418 0.123798 0.932944
O O14 0.982481 0.196627 0.042602
O O15 0.250000 0.810405 0.384954
O O16 0.484084 0.803519 0.308475
O O17 0.750000 0.276270 0.733140
O O18 0.016928 0.285326 0.674562
O O19 0.750000 0.773924 0.092581
O O20 0.250000 0.434288 0.386873
O O21 0.000000 0.500000 0.406787
#
# Coordination Sequence:
#
# PCOD9378921 Si02
#       8
#     8   8   8   8   8   8   8   8
#     4  11  22  37  55  79 111 150 190 233 281 335
#     4  10  19  34  56  81 111 148 188 229 275 332
#     4  10  20  34  52  79 114 150 189 231 276 331
#     4  11  20  37  61  85 110 147 190 232 280 334
#     4   9  18  34  58  83 108 142 187 230 278 334
#     4   9  17  33  56  82 109 143 184 228 275 333
#     4  10  20  33  52  85 118 144 179 231 283 330
#     4  12  25  40  57  82 115 151 188 232 281 334
#
# _framework density 17.32798
#
# number of rings (size 3 to 8) (size 9 to 14) (size 15 to 20)
#    0.000    1.750    2.500    3.000    0.000    2.000 
#    0.000    3.750    0.000    0.750    0.000    3.500 
#    0.000    0.000    0.000    0.000    0.000    0.000 
#
# Total GULP energy -178757.946508 kJ/mol
# GULP energy per Si atom -5586.185828 kJ/mol
# Density = 1.728854 g / cm^3
# Si number density = 17.327980 Si / 1000 Ang^3
#
#
#
# Elastic Constant Matrix: (Units=GPa)
#
#
# Indices 1 2 3 4 5 6 
#
# 1 71.6368 51.4627 38.6218 0.0000 0.0000 0.0000
# 2 51.4627 113.9925 63.6268 0.0000 0.0000 0.0000
# 3 38.6218 63.6268 110.3622 0.0000 0.0000 0.0000
# 4 0.0000 0.0000 0.0000 17.6745 0.0000 0.0000
# 5 0.0000 0.0000 0.0000 0.0000 27.5363 0.0000
# 6 0.0000 0.0000 0.0000 0.0000 0.0000 24.9244
#
#
#
# Elastic Compliance Matrix: (Units=1/GPa)
#
#
# Indices 1 2 3 4 5 6 
#
# 1 0.021234 -0.008019 -0.002808 0.000000 0.000000 0.000000
# 2 -0.008019 0.015963 -0.006397 0.000000 0.000000 0.000000
# 3 -0.002808 -0.006397 0.013732 0.000000 0.000000 0.000000
# 4 0.000000 0.000000 0.000000 0.056579 0.000000 0.000000
# 5 0.000000 0.000000 0.000000 0.000000 0.036316 0.000000
# 6 0.000000 0.000000 0.000000 0.000000 0.000000 0.040121
#
#
# Mechanical properties :
#
#
# Convention : Reuss Voigt Hill
#
# Bulk Modulus (GPa) = 60.67447 67.04602 63.86025
# Shear Modulus (GPa) = 22.33282 23.51237 22.92260
#
# Velocity S-wave (km/s) = 3.59392 3.68761 3.64107
# Velocity P-wave (km/s) = 7.23278 7.54372 7.38988
#
# Compressibility (1/GPa) = 0.01648140
#
# Stress axis : x y z
#
# Youngs Moduli (GPa) = 47.09487 62.64368 72.82423
#
# Poissons Ratio (x) = 0.50234 0.20447
# Poissons Ratio (y) = 0.37765 0.46586
# Poissons Ratio (z) = 0.13223 0.40073
#
# Static dielectric constant tensor:
#      x y z
#    x 1.576210 0.000000 0.000000 
#    y 0.000000 1.585710 0.000000 
#    z 0.000000 0.000000 1.573500 
# 
# From -- ./inp_files/18562.got.cif
#   From: 2010.05.17/outbox.cif.g08.bks.cpg/sg46_10_cif.got.tgz:18562.got - 2010.06.03 19:58:25.
