data_PCOD9378801
_publ_section_title
;
Structure prediction by ZEFSAII (Michael W. Deem and Ramdas Pophale) SiO2 
 PCOD9378801
Probable space group: I M A 2
;
_chemical_formula_sum "Si O2"
_cell_formula_units_Z 56
_cell_length_a 8.639254
_cell_length_b 24.610022
_cell_length_c 14.116042
_cell_angle_alpha 90.000000
_cell_angle_beta 90.000000
_cell_angle_gamma 90.000000
_cell_volume 3001.243183
_symmetry_space_group_name_H-M "I M A 2"
_symmetry_group_IT_number 46
_symmetry_cell_setting 'orthorhombic'
loop_
_space_group_symop_operation_xyz
x,y,z
-x,-y,z
1/2-x,y,z
1/2+x,-y,z
1/2+x,1/2+y,1/2+z
1/2-x,1/2-y,1/2+z
-x,1/2+y,1/2+z
x,1/2-y,1/2+z
loop_
_atom_site_type_symbol
_atom_site_label
_atom_site_fract_x
_atom_site_fract_y
_atom_site_fract_z
Si Si1 0.562667 0.337457 0.507540
Si Si2 0.435657 0.881014 0.295916
Si Si3 0.562142 0.227873 0.188347
Si Si4 0.565433 0.940801 0.114840
Si Si5 0.437214 0.835594 0.790754
Si Si6 0.935322 0.940511 0.471039
Si Si7 0.564967 0.559053 0.190812
O O1 0.750000 0.340936 0.512278
O O2 0.512813 0.292097 0.584205
O O3 0.495536 0.394664 0.543341
O O4 0.518235 0.325636 0.399910
O O5 0.250000 0.884936 0.293276
O O6 0.480064 0.820725 0.260518
O O7 0.504670 0.922249 0.218184
O O8 0.496399 0.896950 0.398725
O O9 0.750000 0.230037 0.187316
O O10 0.506912 0.285948 0.224932
O O11 0.750000 0.941839 0.114925
O O12 0.500000 0.000000 0.091533
O O13 0.250000 0.837054 0.786981
O O14 0.500318 0.892683 0.754291
O O15 0.750000 0.941193 0.464370
O O16 0.979780 0.930827 0.580596
O O17 0.000000 0.000000 0.444662
O O18 0.500000 0.500000 0.217813
O O19 0.750000 0.557658 0.195964
#
# Coordination Sequence:
#
# PCOD9378801 Si02
#       7
#     8   8   8   8   8   8   8
#     4   9  19  36  55  79 111 142 179 224 266 315
#     4  10  19  33  54  80 111 145 182 223 266 316
#     4   8  17  34  55  80 109 141 178 219 262 314
#     4  11  21  34  53  77 108 145 184 225 272 322
#     4  10  20  36  60  84 107 141 180 221 269 318
#     4  10  20  34  52  77 109 144 182 223 270 321
#     4  10  22  39  57  79 109 142 179 225 270 320
#
# _framework density 18.658936000000001
#
# number of rings (size 3 to 8) (size 9 to 14) (size 15 to 20)
#    0.000    2.286    0.000    3.857    0.000    4.000 
#    0.000    6.429    0.000    0.000    0.000    0.000 
#    0.000    0.000    0.000    0.000    0.000    0.000 
#
# Total GULP energy -156313.746349 kJ/mol
# GULP energy per Si atom -5582.633798 kJ/mol
# Density = 1.861647 g / cm^3
# Si number density = 18.658936 Si / 1000 Ang^3
#
#
#
# Elastic Constant Matrix: (Units=GPa)
#
#
# Indices 1 2 3 4 5 6 
#
# 1 39.7609 28.8824 33.4535 0.0000 0.0000 0.0000
# 2 28.8824 142.4608 93.6167 0.0000 0.0000 0.0000
# 3 33.4535 93.6167 117.0270 0.0000 0.0000 0.0000
# 4 0.0000 0.0000 0.0000 17.6164 0.0000 0.0000
# 5 0.0000 0.0000 0.0000 0.0000 26.0741 0.0000
# 6 0.0000 0.0000 0.0000 0.0000 0.0000 23.4220
#
#
#
# Elastic Compliance Matrix: (Units=1/GPa)
#
#
# Indices 1 2 3 4 5 6 
#
# 1 0.033188 -0.001042 -0.008654 0.000000 0.000000 0.000000
# 2 -0.001042 0.014832 -0.011567 0.000000 0.000000 0.000000
# 3 -0.008654 -0.011567 0.020272 0.000000 0.000000 0.000000
# 4 0.000000 0.000000 0.000000 0.056765 0.000000 0.000000
# 5 0.000000 0.000000 0.000000 0.000000 0.038352 0.000000
# 6 0.000000 0.000000 0.000000 0.000000 0.000000 0.042695
#
#
# Mechanical properties :
#
#
# Convention : Reuss Voigt Hill
#
# Bulk Modulus (GPa) = 38.80984 67.90599 53.35791
# Shear Modulus (GPa) = 19.43872 22.97558 21.20715
#
# Velocity S-wave (km/s) = 3.23118 3.51286 3.37496
# Velocity P-wave (km/s) = 5.89622 7.27502 6.62161
#
# Compressibility (1/GPa) = 0.02576666
#
# Stress axis : x y z
#
# Youngs Moduli (GPa) = 30.13125 67.42235 49.32907
#
# Poissons Ratio (x) = 0.07024 0.42689
# Poissons Ratio (y) = 0.03139 0.57059
# Poissons Ratio (z) = 0.26075 0.77988
#
# Static dielectric constant tensor:
#      x y z
#    x 1.629400 0.000000 0.000000 
#    y 0.000000 1.621710 0.000000 
#    z 0.000000 0.000000 1.649160 
# 
# From -- ./inp_files/14162.got.cif
#   From: 2010.05.17/outbox.cif.g08.bks.cpg/sg46_8_cif.got.tgz:14162.got - 2010.06.03 19:58:25.
