data_PCOD9378144
_publ_section_title
;
Structure prediction by ZEFSAII (Michael W. Deem and Ramdas Pophale) SiO2 
 PCOD9378144
Probable space group: I M A 2
;
_chemical_formula_sum "Si O2"
_cell_formula_units_Z 64
_cell_length_a 14.626519
_cell_length_b 17.907729
_cell_length_c 11.469269
_cell_angle_alpha 90.000000
_cell_angle_beta 90.000000
_cell_angle_gamma 90.000000
_cell_volume 3004.119691
_symmetry_space_group_name_H-M "I M A 2"
_symmetry_group_IT_number 46
_symmetry_cell_setting 'orthorhombic'
loop_
_space_group_symop_operation_xyz
x,y,z
-x,-y,z
1/2-x,y,z
1/2+x,-y,z
1/2+x,1/2+y,1/2+z
1/2-x,1/2-y,1/2+z
-x,1/2+y,1/2+z
x,1/2-y,1/2+z
loop_
_atom_site_type_symbol
_atom_site_label
_atom_site_fract_x
_atom_site_fract_y
_atom_site_fract_z
Si Si1 0.856602 0.668597 0.989220
Si Si2 0.352592 0.580199 0.852400
Si Si3 0.484379 0.665070 0.702541
Si Si4 0.965872 0.705948 0.357791
Si Si5 0.648999 0.919846 0.242455
Si Si6 0.152347 0.625827 0.095504
Si Si7 0.468297 0.413249 0.195045
Si Si8 0.353552 0.707187 0.499922
O O1 0.750000 0.682200 0.021565
O O2 0.909912 0.745962 0.955131
O O3 0.855744 0.623578 0.866455
O O4 0.906711 0.616935 0.086587
O O5 0.250000 0.611468 0.831772
O O6 0.435266 0.632747 0.817376
O O7 0.361433 0.505913 0.777003
O O8 0.357987 0.566202 0.990667
O O9 0.531144 0.741691 0.742378
O O10 0.565458 0.609959 0.666450
O O11 0.402167 0.671164 0.612231
O O12 0.930119 0.625660 0.313030
O O13 0.069671 0.698114 0.402572
O O14 0.750000 0.907274 0.192453
O O15 0.250000 0.614625 0.154372
O O16 0.153360 0.705230 0.030793
O O17 0.066935 0.624016 0.176436
O O18 0.500000 0.500000 0.199080
O O19 0.250000 0.680756 0.476770
#
# Coordination Sequence:
#
# PCOD9378144 Si02
#       8
#     8   8   8   8   8   8   8   8
#     4  10  21  40  64  89 125 172 222 271 315 379
#     4  10  18  30  52  87 121 154 196 252 314 372
#     4  11  19  34  57  82 118 156 206 248 302 365
#     4  11  22  40  58  89 123 164 211 265 317 381
#     4   9  19  33  54  86 122 159 204 254 310 362
#     4  10  19  34  58  90 123 156 195 247 314 382
#     4  12  24  40  64  96 133 169 215 268 333 390
#     4  11  22  37  59  87 118 152 198 253 308 375
#
# _framework density 21.304078000000001
#
# number of rings (size 3 to 8) (size 9 to 14) (size 15 to 20)
#    0.000    1.500    3.750    2.250    0.000    3.000 
#    0.000    4.375    0.000    0.000    0.000    0.000 
#    0.000    0.000    0.000    0.000    0.000    0.000 
#
# Total GULP energy -178394.431483 kJ/mol
# GULP energy per Si atom -5574.825984 kJ/mol
# Density = 2.125559 g / cm^3
# Si number density = 21.304078 Si / 1000 Ang^3
#
#
#
# Elastic Constant Matrix: (Units=GPa)
#
#
# Indices 1 2 3 4 5 6 
#
# 1 130.3262 44.1419 27.6822 0.0000 0.0000 0.0000
# 2 44.1419 83.1242 26.5288 0.0000 0.0000 0.0000
# 3 27.6822 26.5288 38.5396 0.0000 0.0000 0.0000
# 4 0.0000 0.0000 0.0000 23.0220 0.0000 0.0000
# 5 0.0000 0.0000 0.0000 0.0000 12.7478 0.0000
# 6 0.0000 0.0000 0.0000 0.0000 0.0000 23.5580
#
#
#
# Elastic Compliance Matrix: (Units=1/GPa)
#
#
# Indices 1 2 3 4 5 6 
#
# 1 0.009927 -0.003839 -0.004487 0.000000 0.000000 0.000000
# 2 -0.003839 0.016902 -0.008877 0.000000 0.000000 0.000000
# 3 -0.004487 -0.008877 0.035281 0.000000 0.000000 0.000000
# 4 0.000000 0.000000 0.000000 0.043437 0.000000 0.000000
# 5 0.000000 0.000000 0.000000 0.000000 0.078445 0.000000
# 6 0.000000 0.000000 0.000000 0.000000 0.000000 0.042448
#
#
# Mechanical properties :
#
#
# Convention : Reuss Voigt Hill
#
# Bulk Modulus (GPa) = 36.09768 49.85509 42.97638
# Shear Modulus (GPa) = 18.51302 22.10804 20.31053
#
# Velocity S-wave (km/s) = 2.95106 3.22489 3.09101
# Velocity P-wave (km/s) = 5.34719 6.10893 5.74071
#
# Compressibility (1/GPa) = 0.02770261
#
# Stress axis : x y z
#
# Youngs Moduli (GPa) = 100.73988 59.16461 28.34396
#
# Poissons Ratio (x) = 0.22715 0.12719
# Poissons Ratio (y) = 0.38677 0.25161
# Poissons Ratio (z) = 0.45205 0.52520
#
# Static dielectric constant tensor:
#      x y z
#    x 1.795300 0.000000 0.000000 
#    y 0.000000 1.851240 0.000000 
#    z 0.000000 0.000000 1.855750 
# 
# From -- ./inp_files/11333.got.cif
#   From: 2010.05.17/outbox.cif.g08.bks.cpg/sg46_6_cif.got.tgz:11333.got - 2010.06.03 19:58:25.
