data_PCOD9378953
_publ_section_title
;
Structure prediction by ZEFSAII (Michael W. Deem and Ramdas Pophale) SiO2 
 PCOD9378953
Probable space group: I M A 2
;
_chemical_formula_sum "Si O2"
_cell_formula_units_Z 64
_cell_length_a 8.429161
_cell_length_b 25.859889
_cell_length_c 15.363206
_cell_angle_alpha 90.000000
_cell_angle_beta 90.000000
_cell_angle_gamma 90.000000
_cell_volume 3348.828133
_symmetry_space_group_name_H-M "I M A 2"
_symmetry_group_IT_number 46
_symmetry_cell_setting 'orthorhombic'
loop_
_space_group_symop_operation_xyz
x,y,z
-x,-y,z
1/2-x,y,z
1/2+x,-y,z
1/2+x,1/2+y,1/2+z
1/2-x,1/2-y,1/2+z
-x,1/2+y,1/2+z
x,1/2-y,1/2+z
loop_
_atom_site_type_symbol
_atom_site_label
_atom_site_fract_x
_atom_site_fract_y
_atom_site_fract_z
Si Si1 0.058206 0.558402 0.131670
Si Si2 0.441197 0.604555 0.318205
Si Si3 0.937661 0.135962 0.481373
Si Si4 0.560929 0.218206 0.774725
Si Si5 0.438237 0.266142 0.080719
Si Si6 0.943236 0.651614 0.611465
Si Si7 0.061370 0.327405 0.808252
Si Si8 0.560882 0.943154 0.994686
O O1 0.250000 0.559358 0.131238
O O2 0.007628 0.582915 0.224025
O O3 0.000000 0.500000 0.124624
O O4 0.003347 0.593682 0.050993
O O5 0.250000 0.600782 0.322707
O O6 0.484825 0.665229 0.322585
O O7 0.512038 0.572367 0.397115
O O8 0.750000 0.129566 0.471050
O O9 0.973609 0.191827 0.523174
O O10 0.017076 0.135309 0.387062
O O11 0.750000 0.216269 0.758725
O O12 0.473478 0.220814 0.681697
O O13 0.517119 0.271204 0.822567
O O14 0.250000 0.269578 0.064067
O O15 0.491219 0.206590 0.069609
O O16 0.750000 0.651317 0.610394
O O17 0.991222 0.652932 0.712931
O O18 0.000461 0.602007 0.558705
O O19 0.250000 0.319930 0.805420
O O20 0.750000 0.943568 0.000140
O O21 0.500000 0.000000 0.016662
#
# Coordination Sequence:
#
# PCOD9378953 Si02
#       8
#     8   8   8   8   8   8   8   8
#     4  10  22  40  59  81 116 155 196 240 289 348
#     4  10  21  38  57  84 118 155 192 234 286 348
#     4  11  22  38  57  85 121 157 194 244 299 349
#     4  10  19  35  56  84 122 157 189 232 290 349
#     4  10  19  34  57  86 116 152 195 236 284 348
#     4   8  19  39  59  81 113 148 189 241 291 338
#     4  10  21  38  59  85 117 154 198 245 292 353
#     4  11  23  40  60  84 113 150 195 246 294 345
#
# _framework density 19.111162
#
# number of rings (size 3 to 8) (size 9 to 14) (size 15 to 20)
#    0.000    2.000    1.250    3.000    1.750    3.500 
#    0.000    7.500    0.000    3.000    0.000    0.000 
#    0.000    0.000    0.000    0.000    0.000    0.000 
#
# Total GULP energy -178713.245033 kJ/mol
# GULP energy per Si atom -5584.788907 kJ/mol
# Density = 1.906766 g / cm^3
# Si number density = 19.111162 Si / 1000 Ang^3
#
#
#
# Elastic Constant Matrix: (Units=GPa)
#
#
# Indices 1 2 3 4 5 6 
#
# 1 18.6163 17.1669 3.3228 0.0000 0.0000 0.0000
# 2 17.1669 135.8911 57.9645 0.0001 0.0000 0.0000
# 3 3.3228 57.9645 82.3813 0.0001 0.0000 0.0000
# 4 0.0000 0.0001 0.0001 27.7806 0.0000 0.0000
# 5 0.0000 0.0000 0.0000 0.0000 24.9403 0.0000
# 6 0.0000 0.0000 0.0000 0.0000 0.0000 27.2632
#
#
#
# Elastic Compliance Matrix: (Units=1/GPa)
#
#
# Indices 1 2 3 4 5 6 
#
# 1 0.061842 -0.009642 0.004290 0.000000 0.000000 0.000000
# 2 -0.009642 0.012018 -0.008067 0.000000 0.000000 0.000000
# 3 0.004290 -0.008067 0.017642 0.000000 0.000000 0.000000
# 4 0.000000 0.000000 0.000000 0.035996 0.000000 0.000000
# 5 0.000000 0.000000 0.000000 0.000000 0.040096 0.000000
# 6 0.000000 0.000000 0.000000 0.000000 0.000000 0.036679
#
#
# Mechanical properties :
#
#
# Convention : Reuss Voigt Hill
#
# Bulk Modulus (GPa) = 15.46472 43.75524 29.60998
# Shear Modulus (GPa) = 19.78892 26.55913 23.17402
#
# Velocity S-wave (km/s) = 3.22135 3.73194 3.48601
# Velocity P-wave (km/s) = 4.68462 6.44318 5.63295
#
# Compressibility (1/GPa) = 0.06466332
#
# Stress axis : x y z
#
# Youngs Moduli (GPa) = 16.17015 83.20888 56.68385
#
# Poissons Ratio (x) = 0.80233 -0.24318
# Poissons Ratio (y) = 0.15592 0.45727
# Poissons Ratio (z) = -0.06937 0.67125
#
# Static dielectric constant tensor:
#      x y z
#    x 1.655700 0.000000 0.000000 
#    y 0.000000 1.655800 0.000000 
#    z 0.000000 0.000000 1.671040 
# 
# From -- ./inp_files/14432.got.cif
#   From: 2010.05.17/outbox.cif.g08.bks.cpg/sg46_8_cif.got.tgz:14432.got - 2010.06.03 19:58:25.
