data_PCOD9378792
_publ_section_title
;
Structure prediction by ZEFSAII (Michael W. Deem and Ramdas Pophale) SiO2 
 PCOD9378792
Probable space group: I M A 2
;
_chemical_formula_sum "Si O2"
_cell_formula_units_Z 48
_cell_length_a 8.516316
_cell_length_b 32.774375
_cell_length_c 9.348444
_cell_angle_alpha 90.000000
_cell_angle_beta 90.000000
_cell_angle_gamma 90.000000
_cell_volume 2609.309029
_symmetry_space_group_name_H-M "I M A 2"
_symmetry_group_IT_number 46
_symmetry_cell_setting 'orthorhombic'
loop_
_space_group_symop_operation_xyz
x,y,z
-x,-y,z
1/2-x,y,z
1/2+x,-y,z
1/2+x,1/2+y,1/2+z
1/2-x,1/2-y,1/2+z
-x,1/2+y,1/2+z
x,1/2-y,1/2+z
loop_
_atom_site_type_symbol
_atom_site_label
_atom_site_fract_x
_atom_site_fract_y
_atom_site_fract_z
Si Si1 0.062269 0.458159 0.534300
Si Si2 0.062552 0.541902 0.860968
Si Si3 0.560205 0.209241 0.861705
Si Si4 0.061921 0.368382 0.531374
Si Si5 0.440081 0.868570 0.356420
Si Si6 0.058144 0.710404 0.033162
O O1 0.250000 0.460300 0.538932
O O2 0.015150 0.413708 0.475480
O O3 0.000000 0.500000 0.465556
O O4 0.998398 0.457766 0.697165
O O5 0.250000 0.539660 0.859492
O O6 0.014746 0.586662 0.917132
O O7 0.000000 0.500000 0.929045
O O8 0.750000 0.209571 0.862152
O O9 0.507021 0.211238 0.697503
O O10 0.504969 0.168171 0.938016
O O11 0.507079 0.249185 0.948761
O O12 0.250000 0.366577 0.531977
O O13 0.002867 0.364494 0.694913
O O14 0.250000 0.867651 0.348734
O O15 0.492649 0.830687 0.452413
O O16 0.250000 0.710404 0.032594
#
# Coordination Sequence:
#
# PCOD9378792 Si02
#       6
#     8   8   8   8   8   8
#     4   9  16  26  42  65  94 125 158 197 236 276
#     4   9  15  23  40  66  96 127 158 195 236 278
#     4  10  19  33  54  74  94 124 161 202 245 288
#     4  10  20  32  47  72 104 132 160 197 241 289
#     4   9  17  31  51  74  99 128 164 203 241 283
#     4   9  18  33  54  77  96 120 162 208 243 282
#
# _framework density 18.395675000000001
#
# number of rings (size 3 to 8) (size 9 to 14) (size 15 to 20)
#    0.000    2.667    0.000    3.500    0.000    5.333 
#    0.000    4.167    0.000    1.000    0.000    4.667 
#    0.000    0.000    0.000    0.000    0.000    0.000 
#
# Total GULP energy -133723.652237 kJ/mol
# GULP energy per Si atom -5571.818843 kJ/mol
# Density = 1.835381 g / cm^3
# Si number density = 18.395675 Si / 1000 Ang^3
#
#
#
# Elastic Constant Matrix: (Units=GPa)
#
#
# Indices 1 2 3 4 5 6 
#
# 1 22.2938 36.0053 14.4195 0.0000 0.0001 0.0001
# 2 36.0053 242.4454 88.5961 0.0001 0.0000 0.0002
# 3 14.4195 88.5961 86.6512 -0.0001 0.0001 0.0003
# 4 0.0000 0.0001 -0.0001 24.1869 0.0000 0.0001
# 5 0.0001 0.0000 0.0001 0.0000 4.9208 -0.0002
# 6 0.0001 0.0002 0.0003 0.0001 -0.0002 28.5428
#
#
#
# Elastic Compliance Matrix: (Units=1/GPa)
#
#
# Indices 1 2 3 4 5 6 
#
# 1 0.059111 -0.008276 -0.001375 0.000000 0.000000 0.000000
# 2 -0.008276 0.007744 -0.006540 0.000000 0.000000 0.000000
# 3 -0.001375 -0.006540 0.018456 0.000000 0.000000 0.000000
# 4 0.000000 0.000000 0.000000 0.041345 0.000000 0.000000
# 5 0.000000 0.000000 0.000000 0.000000 0.203219 0.000001
# 6 0.000000 0.000000 0.000000 0.000000 0.000001 0.035035
#
#
# Mechanical properties :
#
#
# Convention : Reuss Voigt Hill
#
# Bulk Modulus (GPa) = 18.89332 69.93689 44.41511
# Shear Modulus (GPa) = 12.05008 25.68807 18.86908
#
# Velocity S-wave (km/s) = 2.56217 3.74092 3.20618
# Velocity P-wave (km/s) = 4.36415 7.53392 6.15653
#
# Compressibility (1/GPa) = 0.05292876
#
# Stress axis : x y z
#
# Youngs Moduli (GPa) = 16.91737 129.13677 54.18177
#
# Poissons Ratio (x) = 1.06876 0.07448
# Poissons Ratio (y) = 0.14001 0.35437
# Poissons Ratio (z) = 0.02326 0.84460
#
# Static dielectric constant tensor:
#      x y z
#    x 1.628350 0.000000 0.000000 
#    y 0.000000 1.692060 0.000000 
#    z 0.000000 0.000000 1.601000 
# 
# From -- ./inp_files/3900.got.cif
#   From: 2010.05.17/outbox.cif.g08.bks.cpg/sg46_2_cif.got.tgz:3900.got - 2010.06.03 19:58:25.
