data_PCOD9378679
_publ_section_title
;
Structure prediction by ZEFSAII (Michael W. Deem and Ramdas Pophale) SiO2 
 PCOD9378679
Probable space group: I M A 2
;
_chemical_formula_sum "Si O2"
_cell_formula_units_Z 56
_cell_length_a 8.867771
_cell_length_b 24.430800
_cell_length_c 13.886871
_cell_angle_alpha 90.000000
_cell_angle_beta 90.000000
_cell_angle_gamma 90.000000
_cell_volume 3008.545327
_symmetry_space_group_name_H-M "I M A 2"
_symmetry_group_IT_number 46
_symmetry_cell_setting 'orthorhombic'
loop_
_space_group_symop_operation_xyz
x,y,z
-x,-y,z
1/2-x,y,z
1/2+x,-y,z
1/2+x,1/2+y,1/2+z
1/2-x,1/2-y,1/2+z
-x,1/2+y,1/2+z
x,1/2-y,1/2+z
loop_
_atom_site_type_symbol
_atom_site_label
_atom_site_fract_x
_atom_site_fract_y
_atom_site_fract_z
Si Si1 0.431584 0.558429 0.265680
Si Si2 0.069440 0.336652 0.793040
Si Si3 0.929486 0.769390 0.482404
Si Si4 0.929880 0.370381 0.087511
Si Si5 0.568717 0.058005 0.987883
Si Si6 0.929228 0.440077 0.896351
Si Si7 0.569335 0.169579 0.087517
O O1 0.500000 0.500000 0.237197
O O2 0.250000 0.554628 0.261924
O O3 0.476956 0.604554 0.189603
O O4 0.475980 0.568869 0.376419
O O5 0.250000 0.340599 0.788352
O O6 0.030067 0.293551 0.877477
O O7 0.001819 0.395175 0.825452
O O8 0.002298 0.319270 0.691231
O O9 0.750000 0.762039 0.486876
O O10 0.981482 0.816467 0.556688
O O11 0.012129 0.713947 0.511119
O O12 0.750000 0.358597 0.089073
O O13 0.954666 0.415684 0.003848
O O14 0.750000 0.053863 0.990318
O O15 0.500000 0.000000 0.017550
O O16 0.523030 0.108972 0.053040
O O17 0.750000 0.442565 0.880017
O O18 0.000000 0.500000 0.886606
O O19 0.750000 0.171593 0.093590
#
# Coordination Sequence:
#
# PCOD9378679 Si02
#       7
#     8   8   8   8   8   8   8
#     4   9  17  31  51  78 111 145 182 222 268 321
#     4  10  22  40  59  81 111 145 185 233 279 328
#     4  10  22  39  58  82 111 142 182 230 277 327
#     4   9  18  32  52  79 112 149 186 226 274 328
#     4   9  20  37  56  80 109 141 178 221 267 318
#     4  10  19  32  52  80 113 149 189 231 280 334
#     4  11  23  39  60  84 111 145 183 223 274 334
#
# _framework density 18.613647
#
# number of rings (size 3 to 8) (size 9 to 14) (size 15 to 20)
#    0.000    2.286    0.000    2.143    0.000    5.714 
#    0.000    2.857    0.000    0.000    0.000    0.000 
#    0.000    0.000    0.000    0.000    0.000    0.000 
#
# Total GULP energy -156340.443705 kJ/mol
# GULP energy per Si atom -5583.587275 kJ/mol
# Density = 1.857128 g / cm^3
# Si number density = 18.613647 Si / 1000 Ang^3
#
#
#
# Elastic Constant Matrix: (Units=GPa)
#
#
# Indices 1 2 3 4 5 6 
#
# 1 43.6090 43.6723 34.1659 0.0000 0.0000 0.0000
# 2 43.6723 114.7714 56.3890 0.0000 0.0000 0.0000
# 3 34.1659 56.3890 75.1642 0.0000 0.0000 0.0000
# 4 0.0000 0.0000 0.0000 19.2104 0.0000 0.0000
# 5 0.0000 0.0000 0.0000 0.0000 25.3012 0.0000
# 6 0.0000 0.0000 0.0000 0.0000 0.0000 36.3497
#
#
#
# Elastic Compliance Matrix: (Units=1/GPa)
#
#
# Indices 1 2 3 4 5 6 
#
# 1 0.042395 -0.010554 -0.011353 0.000000 0.000000 0.000000
# 2 -0.010554 0.016427 -0.007526 0.000000 0.000000 0.000000
# 3 -0.011353 -0.007526 0.024111 0.000000 0.000000 0.000000
# 4 0.000000 0.000000 0.000000 0.052055 0.000000 0.000000
# 5 0.000000 0.000000 0.000000 0.000000 0.039524 0.000000
# 6 0.000000 0.000000 0.000000 0.000000 0.000000 0.027511
#
#
# Mechanical properties :
#
#
# Convention : Reuss Voigt Hill
#
# Bulk Modulus (GPa) = 41.55181 55.77765 48.66473
# Shear Modulus (GPa) = 18.59358 22.79342 20.69350
#
# Velocity S-wave (km/s) = 3.16400 3.50316 3.33789
# Velocity P-wave (km/s) = 5.97659 6.81131 6.40756
#
# Compressibility (1/GPa) = 0.02406634
#
# Stress axis : x y z
#
# Youngs Moduli (GPa) = 23.58773 60.87668 41.47523
#
# Poissons Ratio (x) = 0.64250 0.47086
# Poissons Ratio (y) = 0.24895 0.31215
# Poissons Ratio (z) = 0.26779 0.45816
#
# Static dielectric constant tensor:
#      x y z
#    x 1.621500 0.000000 0.000000 
#    y 0.000000 1.612690 0.000000 
#    z 0.000000 0.000000 1.643870 
# 
# From -- ./inp_files/14134.got.cif
#   From: 2010.05.17/outbox.cif.g08.bks.cpg/sg46_8_cif.got.tgz:14134.got - 2010.06.03 19:58:25.
