data_PCOD9378453
_publ_section_title
;
Structure prediction by ZEFSAII (Michael W. Deem and Ramdas Pophale) SiO2 
 PCOD9378453
Probable space group: I M A 2
;
_chemical_formula_sum "Si O2"
_cell_formula_units_Z 52
_cell_length_a 7.874719
_cell_length_b 23.721526
_cell_length_c 18.955060
_cell_angle_alpha 90.000000
_cell_angle_beta 90.000000
_cell_angle_gamma 90.000000
_cell_volume 3540.811871
_symmetry_space_group_name_H-M "I M A 2"
_symmetry_group_IT_number 46
_symmetry_cell_setting 'orthorhombic'
loop_
_space_group_symop_operation_xyz
x,y,z
-x,-y,z
1/2-x,y,z
1/2+x,-y,z
1/2+x,1/2+y,1/2+z
1/2-x,1/2-y,1/2+z
-x,1/2+y,1/2+z
x,1/2-y,1/2+z
loop_
_atom_site_type_symbol
_atom_site_label
_atom_site_fract_x
_atom_site_fract_y
_atom_site_fract_z
Si Si1 0.953000 0.937625 0.047510
Si Si2 0.942584 0.715056 0.359740
Si Si3 0.058971 0.561508 0.234368
Si Si4 0.055922 0.418015 0.385749
Si Si5 0.557635 0.816493 0.699268
Si Si6 0.250000 0.770864 0.608979
Si Si7 0.250000 0.760252 0.954554
Si Si8 0.250000 0.647221 0.569287
O O1 0.750000 0.926511 0.055790
O O2 0.081607 0.890745 0.077669
O O3 0.992132 0.937295 0.963450
O O4 0.000000 0.000000 0.074466
O O5 0.750000 0.736218 0.369721
O O6 0.945227 0.649801 0.384349
O O7 0.979418 0.788866 0.776118
O O8 0.084780 0.745445 0.405789
O O9 0.250000 0.571744 0.210699
O O10 0.000000 0.500000 0.210341
O O11 0.052335 0.561883 0.319726
O O12 0.952736 0.615899 0.210682
O O13 0.250000 0.436235 0.371839
O O14 0.750000 0.801427 0.679069
O O15 0.416497 0.796569 0.644752
O O16 0.250000 0.778454 0.524146
O O17 0.250000 0.702745 0.618052
O O18 0.250000 0.822796 0.991514
#
# Coordination Sequence:
#
# PCOD9378453 Si02
#       8
#     8   8   8   8   8   4   4   4
#     4  11  20  29  43  61  90 124 157 196 233 274
#     4   9  17  29  46  67  91 121 158 204 242 276
#     4  11  20  28  42  62  89 118 159 200 235 272
#     4   9  17  26  37  59  86 120 157 190 231 265
#     4  10  20  34  50  67  93 127 166 200 244 286
#     4  10  21  35  48  68  89 131 171 203 236 288
#     4  10  19  29  50  64  93 119 170 197 243 278
#     4  10  22  32  44  66  88 122 171 192 239 276
#
# _framework density 14.685898
#
# number of rings (size 3 to 8) (size 9 to 14) (size 15 to 20)
#    0.462    1.538    3.077    3.231    4.308    2.462 
#    0.000    0.000    0.000    0.000    0.000    0.000 
#    0.000    0.000    0.000    5.538    1.231    1.077 
#
# Total GULP energy -144803.501497 kJ/mol
# GULP energy per Si atom -5569.365442 kJ/mol
# Density = 1.465247 g / cm^3
# Si number density = 14.685898 Si / 1000 Ang^3
#
#
#
# Elastic Constant Matrix: (Units=GPa)
#
#
# Indices 1 2 3 4 5 6 
#
# 1 99.2518 30.7571 49.3761 0.0000 0.0000 0.0000
# 2 30.7571 51.9692 23.0025 0.0000 0.0000 0.0000
# 3 49.3761 23.0025 55.7830 0.0000 0.0000 0.0000
# 4 0.0000 0.0000 0.0000 11.6884 0.0000 0.0000
# 5 0.0000 0.0000 0.0000 0.0000 13.2266 0.0000
# 6 0.0000 0.0000 0.0000 0.0000 0.0000 20.5904
#
#
#
# Elastic Compliance Matrix: (Units=1/GPa)
#
#
# Indices 1 2 3 4 5 6 
#
# 1 0.018867 -0.004617 -0.014796 0.000000 0.000000 0.000000
# 2 -0.004617 0.024668 -0.006085 0.000000 0.000000 0.000000
# 3 -0.014796 -0.006085 0.033533 0.000000 0.000000 0.000000
# 4 0.000000 0.000000 0.000000 0.085555 0.000000 0.000000
# 5 0.000000 0.000000 0.000000 0.000000 0.075605 0.000000
# 6 0.000000 0.000000 0.000000 0.000000 0.000000 0.048566
#
#
# Mechanical properties :
#
#
# Convention : Reuss Voigt Hill
#
# Bulk Modulus (GPa) = 38.35716 45.91950 42.13833
# Shear Modulus (GPa) = 14.43080 16.02565 15.22822
#
# Velocity S-wave (km/s) = 3.13809 3.30696 3.22363
# Velocity P-wave (km/s) = 6.26939 6.77620 6.52772
#
# Compressibility (1/GPa) = 0.02607075
#
# Stress axis : x y z
#
# Youngs Moduli (GPa) = 53.00262 40.53805 29.82167
#
# Poissons Ratio (x) = 0.18717 0.44125
# Poissons Ratio (y) = 0.24472 0.18147
# Poissons Ratio (z) = 0.78423 0.24669
#
# Static dielectric constant tensor:
#      x y z
#    x 1.510900 0.000000 0.000000 
#    y 0.000000 1.495710 0.000000 
#    z 0.000000 0.000000 1.465750 
# 
# From -- ./inp_files/18337.got.cif
#   From: 2010.05.17/outbox.cif.g08.bks.cpg/sg46_10_cif.got.tgz:18337.got - 2010.06.03 19:58:25.
