data_PCOD9378489
_publ_section_title
;
Structure prediction by ZEFSAII (Michael W. Deem and Ramdas Pophale) SiO2 
 PCOD9378489
Probable space group: I M A 2
;
_chemical_formula_sum "Si O2"
_cell_formula_units_Z 64
_cell_length_a 7.465525
_cell_length_b 14.779696
_cell_length_c 25.330942
_cell_angle_alpha 90.000000
_cell_angle_beta 90.000000
_cell_angle_gamma 90.000000
_cell_volume 2794.970291
_symmetry_space_group_name_H-M "I M A 2"
_symmetry_group_IT_number 46
_symmetry_cell_setting 'orthorhombic'
loop_
_space_group_symop_operation_xyz
x,y,z
-x,-y,z
1/2-x,y,z
1/2+x,-y,z
1/2+x,1/2+y,1/2+z
1/2-x,1/2-y,1/2+z
-x,1/2+y,1/2+z
x,1/2-y,1/2+z
loop_
_atom_site_type_symbol
_atom_site_label
_atom_site_fract_x
_atom_site_fract_y
_atom_site_fract_z
Si Si1 0.530044 0.808494 0.127040
Si Si2 0.038172 0.595936 0.355960
Si Si3 0.549712 0.746389 0.433233
Si Si4 0.964294 0.605176 0.518027
Si Si5 0.466331 0.634410 0.240824
Si Si6 0.043614 0.154960 0.241705
Si Si7 0.035326 0.102986 0.357200
Si Si8 0.552338 0.601571 0.124423
O O1 0.750000 0.804313 0.130786
O O2 0.478847 0.868193 0.077009
O O3 0.467849 0.854476 0.182158
O O4 0.467016 0.703149 0.118449
O O5 0.250000 0.614541 0.356729
O O6 0.977292 0.591207 0.295640
O O7 0.000000 0.500000 0.382052
O O8 0.940564 0.675312 0.385459
O O9 0.750000 0.773420 0.451316
O O10 0.464162 0.683594 0.478678
O O11 0.464038 0.832184 0.403797
O O12 0.750000 0.614061 0.515132
O O13 0.000000 0.500000 0.506135
O O14 0.250000 0.631531 0.235761
O O15 0.531264 0.737004 0.246266
O O16 0.549245 0.594610 0.188073
O O17 0.250000 0.123190 0.240040
O O18 0.965180 0.119131 0.297109
O O19 0.250000 0.120538 0.354656
O O20 0.000000 0.000000 0.370902
O O21 0.500000 0.500000 0.105562
O O22 0.750000 0.613995 0.102556
#
# Coordination Sequence:
#
# PCOD9378489 Si02
#       8
#     8   8   8   8   8   8   8   8
#     4   8  17  34  56  80 108 146 183 222 273 329
#     4  11  22  32  48  75 107 142 180 224 273 328
#     4  10  21  38  58  78 107 145 183 228 276 330
#     4  10  21  39  61  84 110 141 184 231 280 332
#     4  10  19  30  47  75 108 144 182 223 271 325
#     4   9  17  33  55  77 109 149 185 222 273 330
#     4  10  21  36  56  82 111 146 183 224 276 333
#     4  10  19  32  51  75 108 149 187 226 271 325
#
# _framework density 22.898277
#
# number of rings (size 3 to 8) (size 9 to 14) (size 15 to 20)
#    0.000    2.250    1.250    2.625    0.000    5.500 
#    0.000    3.750    0.000    0.000    0.000    0.000 
#    0.000    0.000    0.000    0.000    0.000    0.000 
#
# Total GULP energy -178306.028917 kJ/mol
# GULP energy per Si atom -5572.063404 kJ/mol
# Density = 2.284616 g / cm^3
# Si number density = 22.898277 Si / 1000 Ang^3
#
#
#
# Elastic Constant Matrix: (Units=GPa)
#
#
# Indices 1 2 3 4 5 6 
#
# 1 72.1413 -6.9588 0.6027 0.0000 0.0000 0.0000
# 2 -6.9588 130.5317 65.4841 0.0000 0.0000 0.0000
# 3 0.6027 65.4841 138.4508 0.0000 0.0000 0.0000
# 4 0.0000 0.0000 0.0000 -40.2933 0.0000 0.0000
# 5 0.0000 0.0000 0.0000 0.0000 0.1271 0.0000
# 6 0.0000 0.0000 0.0000 0.0000 0.0000 19.8701
#
#
#
# Elastic Compliance Matrix: (Units=1/GPa)
#
#
# Indices 1 2 3 4 5 6 
#
# 1 0.013964 0.001016 -0.000541 0.000000 0.000000 0.000000
# 2 0.001016 0.010118 -0.004790 0.000000 0.000000 0.000000
# 3 -0.000541 -0.004790 0.009491 0.000000 0.000000 0.000000
# 4 0.000000 0.000000 0.000000 -0.024818 0.000000 0.000000
# 5 0.000000 0.000000 0.000000 0.000000 7.868580 0.000000
# 6 0.000000 0.000000 0.000000 0.000000 0.000000 0.050327
#
#
# Mechanical properties :
#
#
# Convention : Reuss Voigt Hill
#
# Bulk Modulus (GPa) = 40.09249 51.04219 45.56734
# Shear Modulus (GPa) = 0.62936 14.74050 7.68493
#
# Velocity S-wave (km/s) = 0.52483 2.53995 1.83396
# Velocity P-wave (km/s) = 4.23252 5.56247 4.94243
#
# Compressibility (1/GPa) = 0.02494233
#
# Stress axis : x y z
#
# Youngs Moduli (GPa) = 71.61160 98.83180 105.36577
#
# Poissons Ratio (x) = -0.10042 0.05704
# Poissons Ratio (y) = -0.07276 0.50471
# Poissons Ratio (z) = 0.03877 0.47341
#
# Static dielectric constant tensor:
#      x y z
#    x 1.857100 0.000000 0.000000 
#    y 0.000000 1.848440 0.000000 
#    z 0.000000 0.000000 1.884850 
# 
# From -- ./inp_files/23169.got.cif
#   From: 2010.05.17/outbox.cif.g08.bks.cpg/sg46_12_cif.got.tgz:23169.got - 2010.06.03 19:58:25.
