data_PCOD9378876
_publ_section_title
;
Structure prediction by ZEFSAII (Michael W. Deem and Ramdas Pophale) SiO2 
 PCOD9378876
Probable space group: I M A 2
;
_chemical_formula_sum "Si O2"
_cell_formula_units_Z 56
_cell_length_a 8.660816
_cell_length_b 18.939290
_cell_length_c 21.425424
_cell_angle_alpha 90.000000
_cell_angle_beta 90.000000
_cell_angle_gamma 90.000000
_cell_volume 3514.405997
_symmetry_space_group_name_H-M "I M A 2"
_symmetry_group_IT_number 46
_symmetry_cell_setting 'orthorhombic'
loop_
_space_group_symop_operation_xyz
x,y,z
-x,-y,z
1/2-x,y,z
1/2+x,-y,z
1/2+x,1/2+y,1/2+z
1/2-x,1/2-y,1/2+z
-x,1/2+y,1/2+z
x,1/2-y,1/2+z
loop_
_atom_site_type_symbol
_atom_site_label
_atom_site_fract_x
_atom_site_fract_y
_atom_site_fract_z
Si Si1 0.071837 0.212256 0.893720
Si Si2 0.934218 0.421079 0.075756
Si Si3 0.432570 0.576273 0.824876
Si Si4 0.428013 0.205372 0.260820
Si Si5 0.437122 0.154716 0.697228
Si Si6 0.562751 0.578097 0.326676
Si Si7 0.063214 0.352834 0.949933
O O1 0.250000 0.201166 0.912711
O O2 0.073410 0.251810 0.826540
O O3 0.004972 0.135449 0.877796
O O4 0.006051 0.271814 0.939626
O O5 0.750000 0.423783 0.072784
O O6 0.000000 0.500000 0.081457
O O7 0.988869 0.376805 0.135617
O O8 0.000455 0.386285 0.012943
O O9 0.500000 0.500000 0.808764
O O10 0.250000 0.572101 0.832962
O O11 0.475180 0.635491 0.773626
O O12 0.507547 0.602464 0.890085
O O13 0.250000 0.186146 0.247574
O O14 0.481983 0.264040 0.211489
O O15 0.250000 0.153176 0.692624
O O16 0.479947 0.107806 0.757952
O O17 0.500000 0.500000 0.335924
O O18 0.750000 0.577913 0.328912
O O19 0.250000 0.352579 0.949898
#
# Coordination Sequence:
#
# PCOD9378876 Si02
#       7
#     8   8   8   8   8   8   8
#     4   7  13  27  46  64  85 115 148 183 224 272
#     4  12  24  35  47  67  95 125 159 194 229 272
#     4  11  20  30  46  70  98 124 153 190 234 279
#     4   8  15  30  49  67  89 119 154 190 230 276
#     4   9  18  33  50  67  92 126 160 191 226 271
#     4   9  16  27  44  68  94 119 148 182 222 266
#     4  10  19  34  51  65  87 122 161 196 234 278
#
# _framework density 15.934415
#
# number of rings (size 3 to 8) (size 9 to 14) (size 15 to 20)
#    0.000    2.571    0.000    6.429    0.000    2.286 
#    0.000    6.429    0.000    0.000    0.000    1.000 
#    0.000    2.286    0.000    0.000    0.000    0.000 
#
# Total GULP energy -155999.091600 kJ/mol
# GULP energy per Si atom -5571.396129 kJ/mol
# Density = 1.589815 g / cm^3
# Si number density = 15.934415 Si / 1000 Ang^3
#
#
#
# Elastic Constant Matrix: (Units=GPa)
#
#
# Indices 1 2 3 4 5 6 
#
# 1 65.5798 50.4102 31.9918 0.0000 0.0000 0.0000
# 2 50.4102 152.9796 61.5436 0.0000 0.0000 0.0000
# 3 31.9918 61.5436 72.0505 0.0000 0.0000 0.0000
# 4 0.0000 0.0000 0.0000 26.3800 0.0000 0.0000
# 5 0.0000 0.0000 0.0000 0.0000 19.4522 0.0000
# 6 0.0000 0.0000 0.0000 0.0000 0.0000 27.2969
#
#
#
# Elastic Compliance Matrix: (Units=1/GPa)
#
#
# Indices 1 2 3 4 5 6 
#
# 1 0.021707 -0.004990 -0.005376 0.000000 0.000000 0.000000
# 2 -0.004990 0.011106 -0.007271 0.000000 0.000000 0.000000
# 3 -0.005376 -0.007271 0.022477 0.000000 0.000000 0.000000
# 4 0.000000 0.000000 0.000000 0.037908 0.000000 0.000000
# 5 0.000000 0.000000 0.000000 0.000000 0.051408 0.000000
# 6 0.000000 0.000000 0.000000 0.000000 0.000000 0.036634
#
#
# Mechanical properties :
#
#
# Convention : Reuss Voigt Hill
#
# Bulk Modulus (GPa) = 49.95976 64.27787 57.11881
# Shear Modulus (GPa) = 22.40286 24.40344 23.40315
#
# Velocity S-wave (km/s) = 3.75366 3.91767 3.83654
# Velocity P-wave (km/s) = 7.08576 7.80326 7.45315
#
# Compressibility (1/GPa) = 0.02001611
#
# Stress axis : x y z
#
# Youngs Moduli (GPa) = 46.06810 90.03884 44.49045
#
# Poissons Ratio (x) = 0.44932 0.23917
# Poissons Ratio (y) = 0.22989 0.32349
# Poissons Ratio (z) = 0.24765 0.65467
#
# Static dielectric constant tensor:
#      x y z
#    x 1.541650 0.000000 0.000000 
#    y 0.000000 1.557060 0.000000 
#    z 0.000000 0.000000 1.514110 
# 
# From -- ./inp_files/21207.got.cif
#   From: 2010.05.17/outbox.cif.g08.bks.cpg/sg46_11_cif.got.tgz:21207.got - 2010.06.03 19:58:25.
