data_PCOD9378680
_publ_section_title
;
Structure prediction by ZEFSAII (Michael W. Deem and Ramdas Pophale) SiO2 
 PCOD9378680
Probable space group: I M A 2
;
_chemical_formula_sum "Si O2"
_cell_formula_units_Z 64
_cell_length_a 9.140838
_cell_length_b 26.407176
_cell_length_c 14.040529
_cell_angle_alpha 90.000000
_cell_angle_beta 90.000000
_cell_angle_gamma 90.000000
_cell_volume 3389.155091
_symmetry_space_group_name_H-M "I M A 2"
_symmetry_group_IT_number 46
_symmetry_cell_setting 'orthorhombic'
loop_
_space_group_symop_operation_xyz
x,y,z
-x,-y,z
1/2-x,y,z
1/2+x,-y,z
1/2+x,1/2+y,1/2+z
1/2-x,1/2-y,1/2+z
-x,1/2+y,1/2+z
x,1/2-y,1/2+z
loop_
_atom_site_type_symbol
_atom_site_label
_atom_site_fract_x
_atom_site_fract_y
_atom_site_fract_z
Si Si1 0.426827 0.335835 0.396900
Si Si2 0.588162 0.678280 0.064658
Si Si3 0.912069 0.855735 0.355170
Si Si4 0.077870 0.721718 0.558558
Si Si5 0.575456 0.551361 0.316365
Si Si6 0.419456 0.552303 0.912249
Si Si7 0.577397 0.256836 0.784644
Si Si8 0.919385 0.087690 0.632892
O O1 0.250000 0.329168 0.398961
O O2 0.498581 0.322931 0.500115
O O3 0.457776 0.394089 0.366049
O O4 0.496873 0.293670 0.324732
O O5 0.750000 0.687484 0.106916
O O6 0.510499 0.728539 0.028540
O O7 0.482371 0.644866 0.129542
O O8 0.607369 0.646583 0.968867
O O9 0.750000 0.856622 0.311135
O O10 0.006517 0.905934 0.344649
O O11 0.000399 0.806043 0.328073
O O12 0.250000 0.722188 0.534728
O O13 0.066556 0.729785 0.672301
O O14 0.500000 0.500000 0.355449
O O15 0.750000 0.544961 0.316976
O O16 0.516940 0.558083 0.208460
O O17 0.500000 0.500000 0.899161
O O18 0.250000 0.548704 0.888937
O O19 0.427187 0.566140 0.025490
O O20 0.750000 0.253125 0.808061
O O21 0.750000 0.087394 0.662490
#
# Coordination Sequence:
#
# PCOD9378680 Si02
#       8
#     8   8   8   8   8   8   8   8
#     4  11  24  41  61  88 120 158 200 247 301 360
#     4  10  19  32  52  80 114 151 189 232 283 341
#     4  10  20  34  54  79 110 149 188 231 285 341
#     4  11  23  37  58  86 117 154 194 240 294 351
#     4  11  24  40  59  83 114 153 199 248 302 359
#     4  10  20  33  51  77 111 151 194 241 290 350
#     4  11  23  38  59  88 120 154 194 242 298 359
#     4  10  20  33  53  81 115 154 196 239 290 349
#
# _framework density 18.883762999999998
#
# number of rings (size 3 to 8) (size 9 to 14) (size 15 to 20)
#    0.000    1.500    1.250    4.125    0.000    9.500 
#    0.000    0.000    0.000    0.750    0.000    1.750 
#    0.000    0.000    0.000    0.000    0.000    0.000 
#
# Total GULP energy -178348.084003 kJ/mol
# GULP energy per Si atom -5573.377625 kJ/mol
# Density = 1.884078 g / cm^3
# Si number density = 18.883763 Si / 1000 Ang^3
#
#
#
# Elastic Constant Matrix: (Units=GPa)
#
#
# Indices 1 2 3 4 5 6 
#
# 1 141.6298 88.0473 29.6083 0.0000 0.0000 0.0000
# 2 88.0473 150.8771 25.7134 0.0001 0.0000 0.0000
# 3 29.6083 25.7134 53.0090 0.0004 0.0000 0.0000
# 4 0.0000 0.0001 0.0004 -16.5688 -0.0001 0.0000
# 5 0.0000 0.0000 0.0000 -0.0001 20.7498 0.0000
# 6 0.0000 0.0000 0.0000 0.0000 0.0000 30.7813
#
#
#
# Elastic Compliance Matrix: (Units=1/GPa)
#
#
# Indices 1 2 3 4 5 6 
#
# 1 0.011646 -0.006200 -0.003497 0.000000 0.000000 0.000000
# 2 -0.006200 0.010526 -0.001643 0.000000 0.000000 0.000000
# 3 -0.003497 -0.001643 0.021615 0.000000 0.000000 0.000000
# 4 0.000000 0.000000 0.000000 -0.060354 0.000000 0.000000
# 5 0.000000 0.000000 0.000000 0.000000 0.048193 0.000000
# 6 0.000000 0.000000 0.000000 0.000000 0.000000 0.032487
#
#
# Mechanical properties :
#
#
# Convention : Reuss Voigt Hill
#
# Bulk Modulus (GPa) = 47.37886 70.25044 58.81465
# Shear Modulus (GPa) = 53.28735 20.46891 36.87813
#
# Velocity S-wave (km/s) = 5.31788 3.29590 4.42396
# Velocity P-wave (km/s) = 7.92784 7.19487 7.57023
#
# Compressibility (1/GPa) = 0.02110646
#
# Stress axis : x y z
#
# Youngs Moduli (GPa) = 85.86284 95.00026 46.26395
#
# Poissons Ratio (x) = 0.58905 0.16181
# Poissons Ratio (y) = 0.53239 0.07600
# Poissons Ratio (z) = 0.30030 0.15606
#
# Static dielectric constant tensor:
#      x y z
#    x 1.677280 0.000000 0.000000 
#    y 0.000000 1.686320 0.000000 
#    z 0.000000 0.000000 1.758270 
# 
# From -- ./inp_files/14525.got.cif
#   From: 2010.05.17/outbox.cif.g08.bks.cpg/sg46_8_cif.got.tgz:14525.got - 2010.06.03 19:58:25.
