data_PCOD9378272
_publ_section_title
;
Structure prediction by ZEFSAII (Michael W. Deem and Ramdas Pophale) SiO2 
 PCOD9378272
Probable space group: I M A 2
;
_chemical_formula_sum "Si O2"
_cell_formula_units_Z 48
_cell_length_a 15.145282
_cell_length_b 9.348036
_cell_length_c 14.956610
_cell_angle_alpha 90.000000
_cell_angle_beta 90.000000
_cell_angle_gamma 90.000000
_cell_volume 2117.536523
_symmetry_space_group_name_H-M "I M A 2"
_symmetry_group_IT_number 46
_symmetry_cell_setting 'orthorhombic'
loop_
_space_group_symop_operation_xyz
x,y,z
-x,-y,z
1/2-x,y,z
1/2+x,-y,z
1/2+x,1/2+y,1/2+z
1/2-x,1/2-y,1/2+z
-x,1/2+y,1/2+z
x,1/2-y,1/2+z
loop_
_atom_site_type_symbol
_atom_site_label
_atom_site_fract_x
_atom_site_fract_y
_atom_site_fract_z
Si Si1 0.057399 0.368737 0.233130
Si Si2 0.750000 0.767584 0.696052
Si Si3 0.095099 0.694152 0.472830
Si Si4 0.937511 0.133231 0.289114
Si Si5 0.250000 0.290670 0.010027
Si Si6 0.750000 0.477072 0.789814
Si Si7 0.094206 0.125775 0.943881
Si Si8 0.250000 0.609068 0.001536
O O1 0.157363 0.350864 0.201207
O O2 0.069101 0.389064 0.340097
O O3 0.000000 0.500000 0.196578
O O4 0.998041 0.226894 0.223560
O O5 0.750000 0.694552 0.598926
O O6 0.750000 0.645769 0.771396
O O7 0.086487 0.766951 0.374233
O O8 0.129446 0.531120 0.469517
O O9 0.163163 0.797883 0.522030
O O10 0.992851 0.671690 0.498801
O O11 0.843044 0.081657 0.252420
O O12 0.000000 0.000000 0.317509
O O13 0.164336 0.249803 0.955292
O O14 0.250000 0.452835 0.042805
O O15 0.750000 0.433587 0.895002
#
# Coordination Sequence:
#
# PCOD9378272 Si02
#       8
#     8   4   8   8   4   4   8   4
#     4  11  21  41  70  96 124 163 216 271 314 375
#     4  12  26  43  57  91 133 177 211 254 329 395
#     4   9  19  34  63  94 124 144 205 263 319 359
#     4  10  18  32  62 102 125 147 200 268 328 366
#     4  12  27  39  59  88 130 173 208 251 325 385
#     4  10  20  36  65  93 123 159 210 261 312 366
#     4  10  19  40  64  93 118 164 204 258 313 374
#     4  10  21  36  61 100 118 155 203 272 304 356
#
# _framework density 22.667847999999999
#
# number of rings (size 3 to 8) (size 9 to 14) (size 15 to 20)
#    0.000    1.667    5.000    2.000    7.000    0.667 
#    3.000    3.333    3.667    0.000    0.000    0.000 
#    0.000    0.000    0.000    0.000    0.000    0.000 
#
# Total GULP energy -133886.259543 kJ/mol
# GULP energy per Si atom -5578.594148 kJ/mol
# Density = 2.261625 g / cm^3
# Si number density = 22.667848 Si / 1000 Ang^3
#
#
#
# Elastic Constant Matrix: (Units=GPa)
#
#
# Indices 1 2 3 4 5 6 
#
# 1 194.1711 86.2341 14.9544 0.0000 0.0000 0.0000
# 2 86.2341 137.7503 11.1648 0.0000 0.0000 0.0000
# 3 14.9544 11.1648 27.8846 0.0000 0.0000 0.0000
# 4 0.0000 0.0000 0.0000 0.8431 0.0000 0.0000
# 5 0.0000 0.0000 0.0000 0.0000 9.8457 0.0000
# 6 0.0000 0.0000 0.0000 0.0000 0.0000 286.3986
#
#
#
# Elastic Compliance Matrix: (Units=1/GPa)
#
#
# Indices 1 2 3 4 5 6 
#
# 1 0.007255 -0.004368 -0.002142 0.000000 0.000000 0.000000
# 2 -0.004368 0.010133 -0.001715 0.000000 0.000000 0.000000
# 3 -0.002142 -0.001715 0.037697 0.000000 0.000000 0.000000
# 4 0.000000 0.000000 0.000000 1.186066 0.000000 0.000000
# 5 0.000000 0.000000 0.000000 0.000000 0.101567 0.000000
# 6 0.000000 0.000000 0.000000 0.000000 0.000000 0.003492
#
#
# Mechanical properties :
#
#
# Convention : Reuss Voigt Hill
#
# Bulk Modulus (GPa) = 25.88253 64.94586 45.41419
# Shear Modulus (GPa) = 3.63494 75.91432 39.77463
#
# Velocity S-wave (km/s) = 1.26769 5.79332 4.19342
# Velocity P-wave (km/s) = 3.68588 8.57108 6.59731
#
# Compressibility (1/GPa) = 0.03863610
#
# Stress axis : x y z
#
# Youngs Moduli (GPa) = 137.83548 98.68708 26.52714
#
# Poissons Ratio (x) = 0.43108 0.05682
# Poissons Ratio (y) = 0.60209 0.04548
# Poissons Ratio (z) = 0.29522 0.16921
#
# Static dielectric constant tensor:
#      x y z
#    x 1.816540 0.000000 0.000000 
#    y 0.000000 1.864390 0.000000 
#    z 0.000000 0.000000 1.847280 
# 
# From -- ./inp_files/19459.got.cif
#   From: 2010.05.17/outbox.cif.g08.bks.cpg/sg46_10_cif.got.tgz:19459.got - 2010.06.03 19:58:25.
