data_PCOD9378337
_publ_section_title
;
Structure prediction by ZEFSAII (Michael W. Deem and Ramdas Pophale) SiO2 
 PCOD9378337
Probable space group: I M A 2
;
_chemical_formula_sum "Si O2"
_cell_formula_units_Z 52
_cell_length_a 15.070285
_cell_length_b 7.543156
_cell_length_c 22.568544
_cell_angle_alpha 90.000000
_cell_angle_beta 90.000000
_cell_angle_gamma 90.000000
_cell_volume 2565.535902
_symmetry_space_group_name_H-M "I M A 2"
_symmetry_group_IT_number 46
_symmetry_cell_setting 'orthorhombic'
loop_
_space_group_symop_operation_xyz
x,y,z
-x,-y,z
1/2-x,y,z
1/2+x,-y,z
1/2+x,1/2+y,1/2+z
1/2-x,1/2-y,1/2+z
-x,1/2+y,1/2+z
x,1/2-y,1/2+z
loop_
_atom_site_type_symbol
_atom_site_label
_atom_site_fract_x
_atom_site_fract_y
_atom_site_fract_z
Si Si1 0.349385 0.562455 0.016750
Si Si2 0.465862 0.793165 0.422508
Si Si3 0.154916 0.254112 0.421961
Si Si4 0.653540 0.719276 0.288460
Si Si5 0.500000 0.000000 0.610644
Si Si6 0.352517 0.705288 0.306302
Si Si7 0.512859 0.304899 0.706599
O O1 0.250000 0.614013 0.035482
O O2 0.413337 0.497861 0.069040
O O3 0.402124 0.711581 0.979555
O O4 0.339950 0.401906 0.969762
O O5 0.554962 0.675192 0.429299
O O6 0.410502 0.751222 0.363880
O O7 0.500000 0.000000 0.418704
O O8 0.250000 0.356026 0.426714
O O9 0.152312 0.192134 0.353335
O O10 0.750000 0.756150 0.260801
O O11 0.647077 0.508218 0.299762
O O12 0.570543 0.772189 0.249852
O O13 0.490017 0.834263 0.654053
O O14 0.250000 0.762633 0.312077
O O15 0.400703 0.783256 0.248206
O O16 0.500000 0.500000 0.682129
#
# Coordination Sequence:
#
# PCOD9378337 Si02
#       7
#     8   8   8   8   4   8   8
#     4  10  21  39  65  93 125 172 219 268 326 390
#     4  10  18  34  58  94 129 161 206 259 326 385
#     4   9  17  31  58  92 121 155 201 251 320 385
#     4  10  21  39  63  96 136 172 209 267 333 397
#     4  12  24  46  66  88 128 176 230 270 314 384
#     4  11  22  37  61  97 137 173 211 268 332 397
#     4  12  26  43  64  93 128 173 226 272 325 386
#
# _framework density 20.268668999999999
#
# number of rings (size 3 to 8) (size 9 to 14) (size 15 to 20)
#    0.000    1.538    5.385    0.923    2.154    2.462 
#    0.000    1.538    0.000    1.846    0.000    0.000 
#    0.000    0.000    0.000    0.000    0.000    0.000 
#
# Total GULP energy -145053.628322 kJ/mol
# GULP energy per Si atom -5578.985705 kJ/mol
# Density = 2.022254 g / cm^3
# Si number density = 20.268669 Si / 1000 Ang^3
#
#
#
# Elastic Constant Matrix: (Units=GPa)
#
#
# Indices 1 2 3 4 5 6 
#
# 1 205.2064 20.3622 45.9439 0.0000 0.0000 0.0000
# 2 20.3622 54.5778 12.2302 0.0000 0.0000 0.0000
# 3 45.9439 12.2302 81.9164 0.0000 0.0000 0.0000
# 4 0.0000 0.0000 0.0000 29.0346 0.0000 0.0000
# 5 0.0000 0.0000 0.0000 0.0000 -10.1836 0.0000
# 6 0.0000 0.0000 0.0000 0.0000 0.0000 19.3094
#
#
#
# Elastic Compliance Matrix: (Units=1/GPa)
#
#
# Indices 1 2 3 4 5 6 
#
# 1 0.005682 -0.001455 -0.002970 0.000000 0.000000 0.000000
# 2 -0.001455 0.019329 -0.002070 0.000000 0.000000 0.000000
# 3 -0.002970 -0.002070 0.014182 0.000000 0.000000 0.000000
# 4 0.000000 0.000000 0.000000 0.034442 0.000000 0.000000
# 5 0.000000 0.000000 0.000000 0.000000 -0.098197 0.000000
# 6 0.000000 0.000000 0.000000 0.000000 0.000000 0.051788
#
#
# Mechanical properties :
#
#
# Convention : Reuss Voigt Hill
#
# Bulk Modulus (GPa) = 38.16093 55.41925 46.79009
# Shear Modulus (GPa) = 102.14442 25.17636 63.66039
#
# Velocity S-wave (km/s) = 7.10666 3.52821 5.61039
# Velocity P-wave (km/s) = 9.28482 6.63320 8.06868
#
# Compressibility (1/GPa) = 0.02620481
#
# Stress axis : x y z
#
# Youngs Moduli (GPa) = 175.98188 51.73571 70.51022
#
# Poissons Ratio (x) = 0.07525 0.20941
# Poissons Ratio (y) = 0.25597 0.14596
# Poissons Ratio (z) = 0.52265 0.10710
#
# Static dielectric constant tensor:
#      x y z
#    x 1.802940 0.000000 0.000000 
#    y 0.000000 1.760770 0.000000 
#    z 0.000000 0.000000 1.673870 
# 
# From -- ./inp_files/21982.got.cif
#   From: 2010.05.17/outbox.cif.g08.bks.cpg/sg46_11_cif.got.tgz:21982.got - 2010.06.03 19:58:25.
