data_PCOD9378554
_publ_section_title
;
Structure prediction by ZEFSAII (Michael W. Deem and Ramdas Pophale) SiO2 
 PCOD9378554
Probable space group: I M A 2
;
_chemical_formula_sum "Si O2"
_cell_formula_units_Z 60
_cell_length_a 14.018515
_cell_length_b 12.200056
_cell_length_c 18.067808
_cell_angle_alpha 90.000000
_cell_angle_beta 90.000000
_cell_angle_gamma 90.000000
_cell_volume 3090.077001
_symmetry_space_group_name_H-M "I M A 2"
_symmetry_group_IT_number 46
_symmetry_cell_setting 'orthorhombic'
loop_
_space_group_symop_operation_xyz
x,y,z
-x,-y,z
1/2-x,y,z
1/2+x,-y,z
1/2+x,1/2+y,1/2+z
1/2-x,1/2-y,1/2+z
-x,1/2+y,1/2+z
x,1/2-y,1/2+z
loop_
_atom_site_type_symbol
_atom_site_label
_atom_site_fract_x
_atom_site_fract_y
_atom_site_fract_z
Si Si1 0.139024 0.047994 0.144570
Si Si2 0.007213 0.332365 0.763194
Si Si3 0.000000 0.500000 0.450678
Si Si4 0.862936 0.654424 0.900508
Si Si5 0.638029 0.092795 0.379705
Si Si6 0.361902 0.143423 0.984055
Si Si7 0.136932 0.793559 0.991541
Si Si8 0.641003 0.216694 0.157633
O O1 0.250000 0.078355 0.156232
O O2 0.071628 0.102837 0.204690
O O3 0.134285 0.916464 0.148657
O O4 0.109354 0.093044 0.063452
O O5 0.078058 0.302557 0.830038
O O6 0.925720 0.399255 0.806994
O O7 0.941548 0.250013 0.714912
O O8 0.914843 0.574077 0.420640
O O9 0.933897 0.396894 0.481881
O O10 0.750000 0.664020 0.884939
O O11 0.882780 0.526411 0.913782
O O12 0.884593 0.730207 0.970843
O O13 0.750000 0.094940 0.360233
O O14 0.619472 0.197422 0.431884
O O15 0.250000 0.128264 0.978937
O O16 0.250000 0.827523 0.986115
O O17 0.125601 0.744226 0.073809
O O18 0.750000 0.242142 0.181063
#
# Coordination Sequence:
#
# PCOD9378554 Si02
#       8
#     8   8   4   8   8   8   8   8
#     4  10  19  31  49  77 109 138 171 220 279 328
#     4  12  21  31  50  78 111 144 172 220 275 326
#     4  12  18  30  54  80 106 138 170 224 272 322
#     4  10  21  37  55  79 110 146 184 218 263 323
#     4  10  21  37  55  79 110 146 184 218 263 323
#     4  10  21  35  53  81 112 143 181 225 270 320
#     4  10  21  35  53  81 112 143 181 225 270 320
#     4  10  19  31  49  77 109 138 171 220 279 328
#
# _framework density 19.416993000000002
#
# number of rings (size 3 to 8) (size 9 to 14) (size 15 to 20)
#    0.000    1.600    1.333    5.200    0.000    2.133 
#    0.000    0.000    0.000    0.000   13.867    0.000 
#    0.000    0.000    0.000    0.000    0.000    0.000 
#
# Total GULP energy -167055.078515 kJ/mol
# GULP energy per Si atom -5568.502617 kJ/mol
# Density = 1.937280 g / cm^3
# Si number density = 19.416993 Si / 1000 Ang^3
#
#
#
# Elastic Constant Matrix: (Units=GPa)
#
#
# Indices 1 2 3 4 5 6 
#
# 1 100.7495 35.4253 40.6245 0.0000 0.0000 0.0000
# 2 35.4253 71.0849 40.2709 0.0000 0.0000 0.0000
# 3 40.6245 40.2709 73.8535 0.0000 0.0000 0.0000
# 4 0.0000 0.0000 0.0000 19.0014 0.0000 0.0000
# 5 0.0000 0.0000 0.0000 0.0000 32.4934 0.0000
# 6 0.0000 0.0000 0.0000 0.0000 0.0000 17.8963
#
#
#
# Elastic Compliance Matrix: (Units=1/GPa)
#
#
# Indices 1 2 3 4 5 6 
#
# 1 0.013366 -0.003611 -0.005383 0.000000 0.000000 0.000000
# 2 -0.003611 0.021332 -0.009645 0.000000 0.000000 0.000000
# 3 -0.005383 -0.009645 0.021761 0.000000 0.000000 0.000000
# 4 0.000000 0.000000 0.000000 0.052628 0.000000 0.000000
# 5 0.000000 0.000000 0.000000 0.000000 0.030775 0.000000
# 6 0.000000 0.000000 0.000000 0.000000 0.000000 0.055877
#
#
# Mechanical properties :
#
#
# Convention : Reuss Voigt Hill
#
# Bulk Modulus (GPa) = 52.14007 53.14768 52.64387
# Shear Modulus (GPa) = 20.88460 22.50273 21.69366
#
# Velocity S-wave (km/s) = 3.28317 3.40798 3.34616
# Velocity P-wave (km/s) = 6.42521 6.55110 6.48846
#
# Compressibility (1/GPa) = 0.01917911
#
# Stress axis : x y z
#
# Youngs Moduli (GPa) = 74.81686 46.87881 45.95449
#
# Poissons Ratio (x) = 0.16930 0.24737
# Poissons Ratio (y) = 0.27019 0.44324
# Poissons Ratio (z) = 0.40274 0.45215
#
# Static dielectric constant tensor:
#      x y z
#    x 1.764790 0.000000 0.000000 
#    y 0.000000 1.676640 0.000000 
#    z 0.000000 0.000000 1.714190 
# 
# From -- ./inp_files/19608.got.cif
#   From: 2010.05.17/outbox.cif.g08.bks.cpg/sg46_10_cif.got.tgz:19608.got - 2010.06.03 19:58:25.
