data_PCOD9378674
_publ_section_title
;
Structure prediction by ZEFSAII (Michael W. Deem and Ramdas Pophale) SiO2 
 PCOD9378674
Probable space group: I M A 2
;
_chemical_formula_sum "Si O2"
_cell_formula_units_Z 64
_cell_length_a 8.011784
_cell_length_b 17.135040
_cell_length_c 22.734012
_cell_angle_alpha 90.000000
_cell_angle_beta 90.000000
_cell_angle_gamma 90.000000
_cell_volume 3120.976076
_symmetry_space_group_name_H-M "I M A 2"
_symmetry_group_IT_number 46
_symmetry_cell_setting 'orthorhombic'
loop_
_space_group_symop_operation_xyz
x,y,z
-x,-y,z
1/2-x,y,z
1/2+x,-y,z
1/2+x,1/2+y,1/2+z
1/2-x,1/2-y,1/2+z
-x,1/2+y,1/2+z
x,1/2-y,1/2+z
loop_
_atom_site_type_symbol
_atom_site_label
_atom_site_fract_x
_atom_site_fract_y
_atom_site_fract_z
Si Si1 0.551774 0.414075 0.532300
Si Si2 0.452448 0.414185 0.988287
Si Si3 0.450019 0.917172 0.898989
Si Si4 0.942724 0.762086 0.560964
Si Si5 0.946020 0.249127 0.186785
Si Si6 0.546789 0.276234 0.318918
Si Si7 0.049852 0.082286 0.226518
Si Si8 0.055703 0.110040 0.356884
O O1 0.500000 0.500000 0.557265
O O2 0.750000 0.417765 0.531547
O O3 0.482146 0.412105 0.465300
O O4 0.511078 0.326826 0.555630
O O5 0.500000 0.500000 0.012800
O O6 0.250000 0.410468 0.987375
O O7 0.516111 0.412143 0.920312
O O8 0.511919 0.335430 0.022496
O O9 0.250000 0.911634 0.903128
O O10 0.506323 0.849834 0.856226
O O11 0.500000 0.000000 0.874007
O O12 0.750000 0.755821 0.544474
O O13 0.962312 0.781475 0.629879
O O14 0.750000 0.263887 0.179333
O O15 0.000909 0.280658 0.250461
O O16 0.975409 0.156125 0.193259
O O17 0.750000 0.266849 0.320787
O O18 0.463178 0.202291 0.349399
O O19 0.250000 0.091151 0.227586
O O20 0.982579 0.082297 0.294193
O O21 0.000000 0.000000 0.199694
O O22 0.250000 0.086497 0.357201
#
# Coordination Sequence:
#
# PCOD9378674 Si02
#       8
#     8   8   8   8   8   8   8   8
#     4  10  20  35  57  85 115 146 179 217 267 327
#     4  10  22  38  57  82 111 144 183 227 273 323
#     4   9  18  32  51  78 108 135 167 209 259 316
#     4  11  23  39  57  79 109 144 186 233 275 317
#     4  10  21  37  55  74 100 137 180 221 263 313
#     4   9  18  33  53  77 104 135 172 214 260 314
#     4  10  19  32  52  79 110 139 169 208 257 315
#     4   9  18  32  52  80 110 138 169 209 261 319
#
# _framework density 20.506405999999998
#
# number of rings (size 3 to 8) (size 9 to 14) (size 15 to 20)
#    0.000    2.250    0.000    2.625    0.000    4.000 
#    0.000    3.125    0.000    3.000    0.000    0.000 
#    0.000    0.000    0.000    0.000    0.000    0.000 
#
# Total GULP energy -178385.098952 kJ/mol
# GULP energy per Si atom -5574.534342 kJ/mol
# Density = 2.045973 g / cm^3
# Si number density = 20.506406 Si / 1000 Ang^3
#
#
#
# Elastic Constant Matrix: (Units=GPa)
#
#
# Indices 1 2 3 4 5 6 
#
# 1 25.5066 6.7951 2.2554 0.0000 0.0000 0.0000
# 2 6.7951 118.7289 53.4490 0.0000 0.0000 0.0000
# 3 2.2554 53.4490 89.8845 0.0000 0.0000 0.0000
# 4 0.0000 0.0000 0.0000 53.7591 0.0000 0.0000
# 5 0.0000 0.0000 0.0000 0.0000 13.1125 0.0000
# 6 0.0000 0.0000 0.0000 0.0000 0.0000 24.9677
#
#
#
# Elastic Compliance Matrix: (Units=1/GPa)
#
#
# Indices 1 2 3 4 5 6 
#
# 1 0.039828 -0.002498 0.000486 0.000000 0.000000 0.000000
# 2 -0.002498 0.011658 -0.006870 0.000000 0.000000 0.000000
# 3 0.000486 -0.006870 0.015198 0.000000 0.000000 0.000000
# 4 0.000000 0.000000 0.000000 0.018602 0.000000 0.000000
# 5 0.000000 0.000000 0.000000 0.000000 0.076263 0.000000
# 6 0.000000 0.000000 0.000000 0.000000 0.000000 0.040052
#
#
# Mechanical properties :
#
#
# Convention : Reuss Voigt Hill
#
# Bulk Modulus (GPa) = 20.44121 39.90210 30.17165
# Shear Modulus (GPa) = 21.21602 29.80924 25.51263
#
# Velocity S-wave (km/s) = 3.22002 3.81682 3.53105
# Velocity P-wave (km/s) = 4.88001 6.23897 5.60086
#
# Compressibility (1/GPa) = 0.04892079
#
# Stress axis : x y z
#
# Youngs Moduli (GPa) = 25.10792 85.77718 65.79734
#
# Poissons Ratio (x) = 0.21430 -0.03199
# Poissons Ratio (y) = 0.06273 0.45201
# Poissons Ratio (z) = -0.01221 0.58926
#
# Static dielectric constant tensor:
#      x y z
#    x 2.263320 0.000000 0.000000 
#    y 0.000000 1.752490 0.000000 
#    z 0.000000 0.000000 1.754220 
# 
# From -- ./inp_files/23173.got.cif
#   From: 2010.05.17/outbox.cif.g08.bks.cpg/sg46_12_cif.got.tgz:23173.got - 2010.06.03 19:58:25.
