data_PCOD9378929
_publ_section_title
;
Structure prediction by ZEFSAII (Michael W. Deem and Ramdas Pophale) SiO2 
 PCOD9378929
Probable space group: I M A 2
;
_chemical_formula_sum "Si O2"
_cell_formula_units_Z 48
_cell_length_a 8.439232
_cell_length_b 28.060624
_cell_length_c 9.968166
_cell_angle_alpha 90.000000
_cell_angle_beta 90.000000
_cell_angle_gamma 90.000000
_cell_volume 2360.562547
_symmetry_space_group_name_H-M "I M A 2"
_symmetry_group_IT_number 46
_symmetry_cell_setting 'orthorhombic'
loop_
_space_group_symop_operation_xyz
x,y,z
-x,-y,z
1/2-x,y,z
1/2+x,-y,z
1/2+x,1/2+y,1/2+z
1/2-x,1/2-y,1/2+z
-x,1/2+y,1/2+z
x,1/2-y,1/2+z
loop_
_atom_site_type_symbol
_atom_site_label
_atom_site_fract_x
_atom_site_fract_y
_atom_site_fract_z
Si Si1 0.563191 0.724843 0.702810
Si Si2 0.558616 0.372283 0.592036
Si Si3 0.443690 0.590105 0.074644
Si Si4 0.558554 0.053216 0.863705
Si Si5 0.060730 0.802567 0.499405
Si Si6 0.560692 0.048947 0.303274
O O1 0.750000 0.732754 0.705283
O O2 0.521488 0.678225 0.614319
O O3 0.482550 0.768322 0.623368
O O4 0.506414 0.715415 0.855985
O O5 0.750000 0.365396 0.588008
O O6 0.511218 0.405085 0.466711
O O7 0.517073 0.404766 0.719585
O O8 0.250000 0.590368 0.076427
O O9 0.496421 0.569801 0.216752
O O10 0.492984 0.643924 0.038133
O O11 0.497979 0.556351 0.953983
O O12 0.750000 0.051672 0.866452
O O13 0.500000 0.000000 0.895445
O O14 0.250000 0.803922 0.483190
O O15 0.750000 0.046837 0.303518
O O16 0.500000 0.000000 0.242665
#
# Coordination Sequence:
#
# PCOD9378929 Si02
#       6
#     8   8   8   8   8   8
#     4  12  26  43  64  98 133 159 204 271 330 372
#     4  10  21  39  61  85 120 166 212 250 300 381
#     4   9  19  37  60  87 118 155 206 254 292 363
#     4  10  21  37  59  89 123 161 207 256 307 369
#     4  11  23  44  70  93 123 171 218 253 311 391
#     4  10  19  34  56  84 116 153 202 255 305 365
#
# _framework density 20.334136000000001
#
# number of rings (size 3 to 8) (size 9 to 14) (size 15 to 20)
#    0.000    1.667    1.667    3.000    2.333    1.333 
#    0.000    1.667    0.000    0.000    0.000    0.000 
#    0.000    0.000    0.000    0.000    0.000    0.000 
#
# Total GULP energy -134049.478027 kJ/mol
# GULP energy per Si atom -5585.394918 kJ/mol
# Density = 2.028786 g / cm^3
# Si number density = 20.334136 Si / 1000 Ang^3
#
#
#
# Elastic Constant Matrix: (Units=GPa)
#
#
# Indices 1 2 3 4 5 6 
#
# 1 14.1166 1.4875 6.8610 0.0006 0.0000 0.0000
# 2 1.4875 88.0679 -3.1532 -0.0028 0.0001 0.0000
# 3 6.8610 -3.1532 80.4815 -0.0160 0.0006 0.0001
# 4 0.0006 -0.0028 -0.0160 -425.2469 0.0065 0.0020
# 5 0.0000 0.0001 0.0006 0.0065 13.0598 0.0000
# 6 0.0000 0.0000 0.0001 0.0020 0.0000 26.9540
#
#
#
# Elastic Compliance Matrix: (Units=1/GPa)
#
#
# Indices 1 2 3 4 5 6 
#
# 1 0.074093 -0.001480 -0.006374 0.000000 0.000000 0.000000
# 2 -0.001480 0.011400 0.000573 0.000000 0.000000 0.000000
# 3 -0.006374 0.000573 0.012991 -0.000001 -0.000001 0.000000
# 4 0.000000 0.000000 -0.000001 -0.002352 0.000001 0.000000
# 5 0.000000 0.000000 -0.000001 0.000001 0.076571 0.000000
# 6 0.000000 0.000000 0.000000 0.000000 0.000000 0.037100
#
#
# Mechanical properties :
#
#
# Convention : Reuss Voigt Hill
#
# Bulk Modulus (GPa) = 11.91585 21.45070 16.68328
# Shear Modulus (GPa) = 19.81456 -65.21522 -22.70033
#
# Velocity S-wave (km/s) = 3.12500 -5.66934 -3.34483
# Velocity P-wave (km/s) = 4.34668 5.68183 2.58743
#
# Compressibility (1/GPa) = 0.08392183
#
# Stress axis : x y z
#
# Youngs Moduli (GPa) = 13.49661 87.71638 76.97597
#
# Poissons Ratio (x) = 0.12979 0.49067
# Poissons Ratio (y) = 0.01997 -0.04409
# Poissons Ratio (z) = 0.08603 -0.05024
#
# Static dielectric constant tensor:
#      x y z
#    x 1.700740 -0.000010 0.000000 
#    y -0.000010 2.937240 0.000000 
#    z 0.000000 0.000000 1.735750 
# 
# From -- ./inp_files/3960.got.cif
#   From: 2010.05.17/outbox.cif.g08.bks.cpg/sg46_2_cif.got.tgz:3960.got - 2010.06.03 19:58:25.
