data_PCOD9378706
_publ_section_title
;
Structure prediction by ZEFSAII (Michael W. Deem and Ramdas Pophale) SiO2 
 PCOD9378706
Probable space group: I M A 2
;
_chemical_formula_sum "Si O2"
_cell_formula_units_Z 64
_cell_length_a 17.133227
_cell_length_b 21.648256
_cell_length_c 9.037824
_cell_angle_alpha 90.000000
_cell_angle_beta 90.000000
_cell_angle_gamma 90.000000
_cell_volume 3352.169449
_symmetry_space_group_name_H-M "I M A 2"
_symmetry_group_IT_number 46
_symmetry_cell_setting 'orthorhombic'
loop_
_space_group_symop_operation_xyz
x,y,z
-x,-y,z
1/2-x,y,z
1/2+x,-y,z
1/2+x,1/2+y,1/2+z
1/2-x,1/2-y,1/2+z
-x,1/2+y,1/2+z
x,1/2-y,1/2+z
loop_
_atom_site_type_symbol
_atom_site_label
_atom_site_fract_x
_atom_site_fract_y
_atom_site_fract_z
Si Si1 0.069139 0.551164 0.761010
Si Si2 0.663425 0.484406 0.034628
Si Si3 0.435454 0.417346 0.199201
Si Si4 0.544441 0.389614 0.459393
Si Si5 0.540157 0.337174 0.977474
Si Si6 0.436326 0.224620 0.026564
Si Si7 0.838539 0.147238 0.701595
Si Si8 0.339649 0.200132 0.757694
O O1 0.138471 0.524731 0.863933
O O2 0.079119 0.567308 0.588198
O O3 0.000000 0.500000 0.773624
O O4 0.054475 0.617895 0.839619
O O5 0.750000 0.512223 0.043127
O O6 0.598119 0.523199 0.119638
O O7 0.665857 0.419338 0.120066
O O8 0.483430 0.424676 0.350688
O O9 0.493467 0.381726 0.089619
O O10 0.364047 0.369877 0.221159
O O11 0.491976 0.335022 0.532131
O O12 0.610561 0.360923 0.350778
O O13 0.487791 0.277879 0.948551
O O14 0.614396 0.315109 0.075385
O O15 0.399771 0.255519 0.171196
O O16 0.361484 0.208713 0.927879
O O17 0.750000 0.168452 0.729487
O O18 0.250000 0.212776 0.724402
#
# Coordination Sequence:
#
# PCOD9378706 Si02
#       8
#     8   8   8   8   8   8   8   8
#     4  11  21  33  54  84 112 145 185 230 289 337
#     4  10  20  36  57  79 108 144 186 232 278 336
#     4   9  18  34  55  80 106 147 192 225 263 334
#     4  10  22  34  56  82 114 150 186 238 286 341
#     4   9  18  35  59  78 107 144 192 232 266 338
#     4  10  20  36  55  80 110 149 193 227 276 331
#     4   9  20  36  56  80 104 139 186 235 283 330
#     4  10  19  32  54  81 113 147 184 228 273 321
#
# _framework density 19.092113000000001
#
# number of rings (size 3 to 8) (size 9 to 14) (size 15 to 20)
#    0.000    2.250    1.250    2.250    1.750    0.500 
#    0.000    0.625    0.000    3.750    0.000    0.000 
#    0.000    0.000    0.000    0.000    0.000    0.000 
#
# Total GULP energy -178262.574338 kJ/mol
# GULP energy per Si atom -5570.705448 kJ/mol
# Density = 1.904866 g / cm^3
# Si number density = 19.092113 Si / 1000 Ang^3
#
#
#
# Elastic Constant Matrix: (Units=GPa)
#
#
# Indices 1 2 3 4 5 6 
#
# 1 107.5424 11.0534 25.7149 0.0000 0.0000 0.0000
# 2 11.0534 32.7202 9.5610 0.0000 0.0000 0.0000
# 3 25.7149 9.5610 92.7142 0.0000 0.0000 0.0000
# 4 0.0000 0.0000 0.0000 17.7483 0.0000 0.0000
# 5 0.0000 0.0000 0.0000 0.0000 19.4375 0.0000
# 6 0.0000 0.0000 0.0000 0.0000 0.0000 15.0088
#
#
#
# Elastic Compliance Matrix: (Units=1/GPa)
#
#
# Indices 1 2 3 4 5 6 
#
# 1 0.010185 -0.002696 -0.002547 0.000000 0.000000 0.000000
# 2 -0.002696 0.032226 -0.002575 0.000000 0.000000 0.000000
# 3 -0.002547 -0.002575 0.011758 0.000000 0.000000 0.000000
# 4 0.000000 0.000000 0.000000 0.056344 0.000000 0.000000
# 5 0.000000 0.000000 0.000000 0.000000 0.051447 0.000000
# 6 0.000000 0.000000 0.000000 0.000000 0.000000 0.066628
#
#
# Mechanical properties :
#
#
# Convention : Reuss Voigt Hill
#
# Bulk Modulus (GPa) = 25.95303 36.18169 31.06736
# Shear Modulus (GPa) = 19.45020 22.88209 21.16614
#
# Velocity S-wave (km/s) = 3.19526 3.46571 3.33323
# Velocity P-wave (km/s) = 5.21881 5.91668 5.57867
#
# Compressibility (1/GPa) = 0.03853115
#
# Stress axis : x y z
#
# Youngs Moduli (GPa) = 98.18596 31.03124 85.05013
#
# Poissons Ratio (x) = 0.08367 0.21660
# Poissons Ratio (y) = 0.26475 0.21903
# Poissons Ratio (z) = 0.25005 0.07992
#
# Static dielectric constant tensor:
#      x y z
#    x 1.689710 0.000000 0.000000 
#    y 0.000000 1.671320 0.000000 
#    z 0.000000 0.000000 1.688480 
# 
# From -- ./inp_files/7028.got.cif
#   From: 2010.05.17/outbox.cif.g08.bks.cpg/sg46_4_cif.got.tgz:7028.got - 2010.06.03 19:58:25.
