data_PCOD9378709
_publ_section_title
;
Structure prediction by ZEFSAII (Michael W. Deem and Ramdas Pophale) SiO2 
 PCOD9378709
Probable space group: I M A 2
;
_chemical_formula_sum "Si O2"
_cell_formula_units_Z 48
_cell_length_a 15.252339
_cell_length_b 10.067284
_cell_length_c 11.882284
_cell_angle_alpha 90.000000
_cell_angle_beta 90.000000
_cell_angle_gamma 90.000000
_cell_volume 1824.520292
_symmetry_space_group_name_H-M "I M A 2"
_symmetry_group_IT_number 46
_symmetry_cell_setting 'orthorhombic'
loop_
_space_group_symop_operation_xyz
x,y,z
-x,-y,z
1/2-x,y,z
1/2+x,-y,z
1/2+x,1/2+y,1/2+z
1/2-x,1/2-y,1/2+z
-x,1/2+y,1/2+z
x,1/2-y,1/2+z
loop_
_atom_site_type_symbol
_atom_site_label
_atom_site_fract_x
_atom_site_fract_y
_atom_site_fract_z
Si Si1 0.401781 0.467413 0.262790
Si Si2 0.902654 0.874306 0.056623
Si Si3 0.613169 0.169193 0.036954
Si Si4 0.921813 0.827315 0.304233
Si Si5 0.373670 0.744162 0.796908
Si Si6 0.848283 0.585575 0.020085
O O1 0.500000 0.500000 0.302961
O O2 0.377353 0.320296 0.304902
O O3 0.350340 0.600925 0.284277
O O4 0.402264 0.458823 0.127336
O O5 0.896771 0.896421 0.189343
O O6 0.846545 0.745826 0.030995
O O7 0.004901 0.830529 0.036698
O O8 0.872638 0.013388 0.005932
O O9 0.646850 0.194331 0.166050
O O10 0.646498 0.265230 0.934859
O O11 0.895114 0.927272 0.401515
O O12 0.023794 0.793307 0.300423
O O13 0.750000 0.534082 0.022701
#
# Coordination Sequence:
#
# PCOD9378709 Si02
#       6
#     8   8   8   8   8   8
#     4   9  20  35  55  82 118 162 203 257 299 368
#     4   9  19  34  50  78 117 156 196 238 306 364
#     4  10  19  33  56  82 115 154 199 255 296 349
#     4   9  18  32  49  79 117 157 190 243 304 365
#     4  10  19  32  54  82 116 153 205 249 298 351
#     4  11  21  35  58  88 123 158 198 254 319 373
#
# _framework density 26.308284
#
# number of rings (size 3 to 8) (size 9 to 14) (size 15 to 20)
#    0.000    2.333    1.667    2.000    4.667    4.000 
#    3.000    0.000    0.000    1.000    0.000    0.000 
#    0.000    0.000    0.000    0.000    0.000    0.000 
#
# Total GULP energy -133719.351286 kJ/mol
# GULP energy per Si atom -5571.639637 kJ/mol
# Density = 2.624841 g / cm^3
# Si number density = 26.308284 Si / 1000 Ang^3
#
#
#
# Elastic Constant Matrix: (Units=GPa)
#
#
# Indices 1 2 3 4 5 6 
#
# 1 70.6079 20.4308 3.3749 0.0000 0.0000 0.0000
# 2 20.4308 105.7103 20.3927 0.0000 0.0000 0.0000
# 3 3.3749 20.3927 212.0547 0.0000 0.0000 0.0000
# 4 0.0000 0.0000 0.0000 38.8836 0.0000 0.0000
# 5 0.0000 0.0000 0.0000 0.0000 -57.7170 0.0000
# 6 0.0000 0.0000 0.0000 0.0000 0.0000 -5.9139
#
#
#
# Elastic Compliance Matrix: (Units=1/GPa)
#
#
# Indices 1 2 3 4 5 6 
#
# 1 0.015002 -0.002907 0.000041 0.000000 0.000000 0.000000
# 2 -0.002907 0.010202 -0.000935 0.000000 0.000000 0.000000
# 3 0.000041 -0.000935 0.004805 0.000000 0.000000 0.000000
# 4 0.000000 0.000000 0.000000 0.025718 0.000000 0.000000
# 5 0.000000 0.000000 0.000000 0.000000 -0.017326 0.000000
# 6 0.000000 0.000000 0.000000 0.000000 0.000000 -0.169094
#
#
# Mechanical properties :
#
#
# Convention : Reuss Voigt Hill
#
# Bulk Modulus (GPa) = 44.63008 52.97442 48.80225
# Shear Modulus (GPa) = -43.24468 17.99550 -12.62459
#
# Velocity S-wave (km/s) = -4.05874 2.61822 -2.19297
# Velocity P-wave (km/s) = 2.22786 5.41478 3.48973
#
# Compressibility (1/GPa) = 0.02240641
#
# Stress axis : x y z
#
# Youngs Moduli (GPa) = 66.65764 98.01936 208.11588
#
# Poissons Ratio (x) = 0.28498 -0.00850
# Poissons Ratio (y) = 0.19380 0.19455
# Poissons Ratio (z) = -0.00272 0.09163
#
# Static dielectric constant tensor:
#      x y z
#    x 2.021040 0.000000 0.000000 
#    y 0.000000 2.073320 0.000000 
#    z 0.000000 0.000000 2.210360 
# 
# From -- ./inp_files/11793.got.cif
#   From: 2010.05.17/outbox.cif.g08.bks.cpg/sg46_6_cif.got.tgz:11793.got - 2010.06.03 19:58:25.
