data_PCOD9378395
_publ_section_title
;
Structure prediction by ZEFSAII (Michael W. Deem and Ramdas Pophale) SiO2 
 PCOD9378395
Probable space group: I M A 2
;
_chemical_formula_sum "Si O2"
_cell_formula_units_Z 48
_cell_length_a 11.100908
_cell_length_b 20.220894
_cell_length_c 9.751413
_cell_angle_alpha 90.000000
_cell_angle_beta 90.000000
_cell_angle_gamma 90.000000
_cell_volume 2188.902445
_symmetry_space_group_name_H-M "I M A 2"
_symmetry_group_IT_number 46
_symmetry_cell_setting 'orthorhombic'
loop_
_space_group_symop_operation_xyz
x,y,z
-x,-y,z
1/2-x,y,z
1/2+x,-y,z
1/2+x,1/2+y,1/2+z
1/2-x,1/2-y,1/2+z
-x,1/2+y,1/2+z
x,1/2-y,1/2+z
loop_
_atom_site_type_symbol
_atom_site_label
_atom_site_fract_x
_atom_site_fract_y
_atom_site_fract_z
Si Si1 0.250000 0.323547 0.120620
Si Si2 0.500000 0.500000 0.009341
Si Si3 0.750000 0.677566 0.569157
Si Si4 0.390968 0.711429 0.979612
Si Si5 0.484171 0.861505 0.001811
Si Si6 0.250000 0.388424 0.834719
Si Si7 0.008177 0.122451 0.702338
Si Si8 0.022896 0.597577 0.794345
O O1 0.250000 0.254580 0.040900
O O2 0.369491 0.334643 0.207773
O O3 0.250000 0.374433 0.994513
O O4 0.422038 0.545608 0.902987
O O5 0.540100 0.557285 0.114760
O O6 0.628496 0.643201 0.520432
O O7 0.750000 0.674962 0.735202
O O8 0.250000 0.712216 0.948369
O O9 0.437118 0.785924 0.998166
O O10 0.458703 0.670355 0.860016
O O11 0.417654 0.668494 0.115818
O O12 0.459828 0.892356 0.853402
O O13 0.436309 0.899130 0.137146
O O14 0.379895 0.418955 0.799637
#
# Coordination Sequence:
#
# PCOD9378395 Si02
#       8
#     4   4   4   8   8   4   8   8
#     4  12  19  34  65  96 123 155 189 242 314 369
#     4  10  22  44  58  86 118 162 212 242 292 354
#     4  10  21  32  61 100 133 143 181 249 319 373
#     4  11  23  40  61  90 127 166 204 241 294 366
#     4  11  22  38  64  96 128 150 197 253 314 362
#     4  10  18  36  62  92 118 152 198 239 303 370
#     4  11  24  39  63  95 120 162 200 253 304 353
#     4  10  22  41  64  91 117 166 201 248 304 357
#
# _framework density 21.928798
#
# number of rings (size 3 to 8) (size 9 to 14) (size 15 to 20)
#    0.000    1.333    5.000    1.500    4.667    3.333 
#   12.000    0.000    0.000    0.000    0.000    0.000 
#    0.000    0.000    0.000    0.000    0.000    0.000 
#
# Total GULP energy -133757.414867 kJ/mol
# GULP energy per Si atom -5573.225619 kJ/mol
# Density = 2.187889 g / cm^3
# Si number density = 21.928798 Si / 1000 Ang^3
#
#
#
# Elastic Constant Matrix: (Units=GPa)
#
#
# Indices 1 2 3 4 5 6 
#
# 1 65.3705 4.8433 -9.1008 0.0000 0.0000 0.0000
# 2 4.8433 77.0310 29.9847 0.0000 0.0000 0.0000
# 3 -9.1008 29.9847 184.3800 0.0000 0.0000 0.0000
# 4 0.0000 0.0000 0.0000 18.2619 0.0000 0.0000
# 5 0.0000 0.0000 0.0000 0.0000 8.7660 0.0000
# 6 0.0000 0.0000 0.0000 0.0000 0.0000 4.3685
#
#
#
# Elastic Compliance Matrix: (Units=1/GPa)
#
#
# Indices 1 2 3 4 5 6 
#
# 1 0.015536 -0.001361 0.000988 0.000000 0.000000 0.000000
# 2 -0.001361 0.013978 -0.002340 0.000000 0.000000 0.000000
# 3 0.000988 -0.002340 0.005853 0.000000 0.000000 0.000000
# 4 0.000000 0.000000 0.000000 0.054759 0.000000 0.000000
# 5 0.000000 0.000000 0.000000 0.000000 0.114076 0.000000
# 6 0.000000 0.000000 0.000000 0.000000 0.000000 0.228912
#
#
# Mechanical properties :
#
#
# Convention : Reuss Voigt Hill
#
# Bulk Modulus (GPa) = 33.40024 42.02620 37.71322
# Shear Modulus (GPa) = 11.14773 26.34957 18.74865
#
# Velocity S-wave (km/s) = 2.25713 3.47017 2.92717
# Velocity P-wave (km/s) = 4.69650 5.93823 5.35349
#
# Compressibility (1/GPa) = 0.02993990
#
# Stress axis : x y z
#
# Youngs Moduli (GPa) = 64.36714 71.53890 170.85336
#
# Poissons Ratio (x) = 0.09740 -0.16885
# Poissons Ratio (y) = 0.08764 0.39987
# Poissons Ratio (z) = -0.06361 0.16743
#
# Static dielectric constant tensor:
#      x y z
#    x 1.825910 0.000000 0.000000 
#    y 0.000000 1.824780 0.000000 
#    z 0.000000 0.000000 1.873240 
# 
# From -- ./inp_files/4778.got.cif
#   From: 2010.05.17/outbox.cif.g08.bks.cpg/sg46_3_cif.got.tgz:4778.got - 2010.06.03 19:58:25.
