data_PCOD9378364
_publ_section_title
;
Structure prediction by ZEFSAII (Michael W. Deem and Ramdas Pophale) SiO2 
 PCOD9378364
Probable space group: I M A 2
;
_chemical_formula_sum "Si O2"
_cell_formula_units_Z 64
_cell_length_a 14.238138
_cell_length_b 10.179873
_cell_length_c 19.087217
_cell_angle_alpha 90.000000
_cell_angle_beta 90.000000
_cell_angle_gamma 90.000000
_cell_volume 2766.547740
_symmetry_space_group_name_H-M "I M A 2"
_symmetry_group_IT_number 46
_symmetry_cell_setting 'orthorhombic'
loop_
_space_group_symop_operation_xyz
x,y,z
-x,-y,z
1/2-x,y,z
1/2+x,-y,z
1/2+x,1/2+y,1/2+z
1/2-x,1/2-y,1/2+z
-x,1/2+y,1/2+z
x,1/2-y,1/2+z
loop_
_atom_site_type_symbol
_atom_site_label
_atom_site_fract_x
_atom_site_fract_y
_atom_site_fract_z
Si Si1 0.135135 0.800261 0.393640
Si Si2 0.602536 0.941126 0.774555
Si Si3 0.134750 0.882195 0.239021
Si Si4 0.357368 0.513454 0.429157
Si Si5 0.635160 0.795309 0.034584
Si Si6 0.136110 0.325941 0.696637
Si Si7 0.635203 0.500903 0.013639
Si Si8 0.356747 0.641787 0.152354
O O1 0.250000 0.794713 0.391392
O O2 0.104062 0.832421 0.315137
O O3 0.100405 0.658147 0.419054
O O4 0.108967 0.914027 0.447289
O O5 0.645309 0.949482 0.851834
O O6 0.603191 0.796051 0.743068
O O7 0.500000 0.000000 0.782578
O O8 0.646929 0.038454 0.716493
O O9 0.250000 0.877884 0.238299
O O10 0.100936 0.777076 0.181292
O O11 0.107577 0.031467 0.224528
O O12 0.250000 0.536498 0.452584
O O13 0.398883 0.413020 0.485229
O O14 0.750000 0.796259 0.031603
O O15 0.608907 0.811653 0.115527
O O16 0.604510 0.651425 0.009577
O O17 0.250000 0.320196 0.698876
O O18 0.750000 0.504305 0.016728
O O19 0.601478 0.430283 0.084991
O O20 0.250000 0.675194 0.131868
#
# Coordination Sequence:
#
# PCOD9378364 Si02
#       8
#     8   8   8   8   8   8   8   8
#     4   9  17  29  48  81 114 140 175 227 287 348
#     4  12  24  38  58  79 114 158 201 238 284 350
#     4   9  18  30  53  85 114 142 185 236 289 348
#     4  10  20  35  58  83 112 149 191 241 296 346
#     4   9  18  31  53  86 115 140 179 232 291 348
#     4  10  20  36  59  88 116 146 192 251 301 346
#     4   9  17  28  49  82 116 142 175 227 287 344
#     4  10  18  35  59  82 110 147 189 238 291 349
#
# _framework density 23.133526
#
# number of rings (size 3 to 8) (size 9 to 14) (size 15 to 20)
#    0.000    2.250    2.500    1.125    3.500    0.000 
#    0.000    0.625    2.750    0.000    0.000    0.000 
#    0.000    0.000    0.000    0.000    0.000    0.000 
#
# Total GULP energy -178970.842341 kJ/mol
# GULP energy per Si atom -5592.838823 kJ/mol
# Density = 2.308087 g / cm^3
# Si number density = 23.133526 Si / 1000 Ang^3
#
#
#
# Elastic Constant Matrix: (Units=GPa)
#
#
# Indices 1 2 3 4 5 6 
#
# 1 68.5130 14.4437 12.2798 0.0000 0.0000 0.0000
# 2 14.4437 240.8660 75.9960 0.0000 0.0000 0.0000
# 3 12.2798 75.9960 68.9400 0.0000 0.0000 0.0000
# 4 0.0000 0.0000 0.0000 48.6466 0.0000 0.0000
# 5 0.0000 0.0000 0.0000 0.0000 -0.5009 0.0000
# 6 0.0000 0.0000 0.0000 0.0000 0.0000 -75.0978
#
#
#
# Elastic Compliance Matrix: (Units=1/GPa)
#
#
# Indices 1 2 3 4 5 6 
#
# 1 0.015078 -0.000087 -0.002590 0.000000 0.000000 0.000000
# 2 -0.000087 0.006366 -0.007002 0.000000 0.000000 0.000000
# 3 -0.002590 -0.007002 0.022686 0.000000 0.000000 0.000000
# 4 0.000000 0.000000 0.000000 0.020556 0.000000 0.000000
# 5 0.000000 0.000000 0.000000 0.000000 -1.996532 0.000000
# 6 0.000000 0.000000 0.000000 0.000000 0.000000 -0.013316
#
#
# Mechanical properties :
#
#
# Convention : Reuss Voigt Hill
#
# Bulk Modulus (GPa) = 40.36842 64.86200 52.61521
# Shear Modulus (GPa) = -2.60750 12.98289 5.18769
#
# Velocity S-wave (km/s) = -1.06283 2.37157 1.49912
# Velocity P-wave (km/s) = 3.99774 5.96641 5.07839
#
# Compressibility (1/GPa) = 0.02477184
#
# Stress axis : x y z
#
# Youngs Moduli (GPa) = 66.32048 157.07942 44.08077
#
# Poissons Ratio (x) = 0.01368 0.11416
# Poissons Ratio (y) = 0.00577 0.30867
# Poissons Ratio (z) = 0.17176 1.09991
#
# Static dielectric constant tensor:
#      x y z
#    x 1.919190 0.000000 0.000000 
#    y 0.000000 1.818510 0.000000 
#    z 0.000000 0.000000 1.806310 
# 
# From -- ./inp_files/20264.got.cif
#   From: 2010.05.17/outbox.cif.g08.bks.cpg/sg46_11_cif.got.tgz:20264.got - 2010.06.03 19:58:25.
