data_PCOD9378737
_publ_section_title
;
Structure prediction by ZEFSAII (Michael W. Deem and Ramdas Pophale) SiO2 
 PCOD9378737
Probable space group: I M A 2
;
_chemical_formula_sum "Si O2"
_cell_formula_units_Z 48
_cell_length_a 13.613340
_cell_length_b 21.910111
_cell_length_c 6.904796
_cell_angle_alpha 90.000000
_cell_angle_beta 90.000000
_cell_angle_gamma 90.000000
_cell_volume 2059.492056
_symmetry_space_group_name_H-M "I M A 2"
_symmetry_group_IT_number 46
_symmetry_cell_setting 'orthorhombic'
loop_
_space_group_symop_operation_xyz
x,y,z
-x,-y,z
1/2-x,y,z
1/2+x,-y,z
1/2+x,1/2+y,1/2+z
1/2-x,1/2-y,1/2+z
-x,1/2+y,1/2+z
x,1/2-y,1/2+z
loop_
_atom_site_type_symbol
_atom_site_label
_atom_site_fract_x
_atom_site_fract_y
_atom_site_fract_z
Si Si1 0.250000 0.247445 0.345750
Si Si2 0.865753 0.600903 0.514763
Si Si3 0.134254 0.839975 0.070830
Si Si4 0.365876 0.979331 0.195541
Si Si5 0.500000 0.000000 0.544618
Si Si6 0.018784 0.867979 0.710058
Si Si7 0.458105 0.309693 0.812502
O O1 0.250000 0.248791 0.595796
O O2 0.130206 0.236726 0.344882
O O3 0.750000 0.608167 0.488543
O O4 0.891957 0.529437 0.533412
O O5 0.921684 0.632613 0.341192
O O6 0.900221 0.634333 0.708777
O O7 0.250000 0.827281 0.103072
O O8 0.110056 0.909135 0.149000
O O9 0.053688 0.797656 0.177139
O O10 0.106834 0.844143 0.844489
O O11 0.250000 0.981346 0.211647
O O12 0.410594 0.004845 0.392996
O O13 0.526503 0.060445 0.660211
O O14 0.002872 0.832294 0.513753
#
# Coordination Sequence:
#
# PCOD9378737 Si02
#       7
#     4   8   8   8   4   8   8
#     4  12  32  54  84 114 148 174 226 312 400 472
#     4  10  20  34  55  86 131 176 228 281 328 408
#     4  10  22  40  61  94 141 188 236 283 336 422
#     4  10  19  33  50  79 129 186 231 282 333 379
#     4  12  18  32  48  82 124 184 234 294 326 382
#     4  11  22  31  59  88 130 178 237 280 335 412
#     4  11  23  42  71  99 129 177 226 285 366 434
#
# _framework density 23.306716999999999
#
# number of rings (size 3 to 8) (size 9 to 14) (size 15 to 20)
#    0.000    1.333    4.167    2.000    5.833    2.000 
#    0.000    0.000    0.000    1.000    0.000    0.000 
#    0.000    0.000    0.000    0.000    0.000    0.000 
#
# Total GULP energy -133634.992221 kJ/mol
# GULP energy per Si atom -5568.124676 kJ/mol
# Density = 2.325367 g / cm^3
# Si number density = 23.306717 Si / 1000 Ang^3
#
#
#
# Elastic Constant Matrix: (Units=GPa)
#
#
# Indices 1 2 3 4 5 6 
#
# 1 127.3779 3.5800 18.4717 0.0005 0.0002 0.0001
# 2 3.5800 47.0917 3.1237 0.0000 0.0003 0.0001
# 3 18.4717 3.1237 121.7160 -0.0020 0.0005 -0.0001
# 4 0.0005 0.0000 -0.0020 12.2386 0.0000 -0.0001
# 5 0.0002 0.0003 0.0005 0.0000 46.3620 -0.0002
# 6 0.0001 0.0001 -0.0001 -0.0001 -0.0002 25.8037
#
#
#
# Elastic Compliance Matrix: (Units=1/GPa)
#
#
# Indices 1 2 3 4 5 6 
#
# 1 0.008041 -0.000531 -0.001207 -0.000001 0.000000 0.000000
# 2 -0.000531 0.021306 -0.000466 0.000000 0.000000 0.000000
# 3 -0.001207 -0.000466 0.008411 0.000001 0.000000 0.000000
# 4 -0.000001 0.000000 0.000001 0.081709 0.000000 0.000000
# 5 0.000000 0.000000 0.000000 0.000000 0.021569 0.000000
# 6 0.000000 0.000000 0.000000 0.000000 0.000000 0.038754
#
#
# Mechanical properties :
#
#
# Convention : Reuss Voigt Hill
#
# Bulk Modulus (GPa) = 29.98509 38.50405 34.24457
# Shear Modulus (GPa) = 25.59970 34.94822 30.27396
#
# Velocity S-wave (km/s) = 3.31778 3.87653 3.60799
# Velocity P-wave (km/s) = 5.25074 6.04922 5.66407
#
# Compressibility (1/GPa) = 0.03334991
#
# Stress axis : x y z
#
# Youngs Moduli (GPa) = 124.36938 46.93413 118.89301
#
# Poissons Ratio (x) = 0.02493 0.14346
# Poissons Ratio (y) = 0.06607 0.05543
# Poissons Ratio (z) = 0.15007 0.02188
#
# Static dielectric constant tensor:
#      x y z
#    x 1.830360 0.000000 0.000000 
#    y 0.000000 1.921220 0.000000 
#    z 0.000000 0.000000 1.923220 
# 
# From -- ./inp_files/1344.got.cif
#   From: 2010.05.17/outbox.cif.g08.bks.cpg/sg46_1_cif.got.tgz:1344.got - 2010.06.03 19:58:25.
