data_PCOD9378396
_publ_section_title
;
Structure prediction by ZEFSAII (Michael W. Deem and Ramdas Pophale) SiO2 
 PCOD9378396
Probable space group: I M A 2
;
_chemical_formula_sum "Si O2"
_cell_formula_units_Z 40
_cell_length_a 28.089657
_cell_length_b 7.124656
_cell_length_c 9.034533
_cell_angle_alpha 90.000000
_cell_angle_beta 90.000000
_cell_angle_gamma 90.000000
_cell_volume 1808.073349
_symmetry_space_group_name_H-M "I M A 2"
_symmetry_group_IT_number 46
_symmetry_cell_setting 'orthorhombic'
loop_
_space_group_symop_operation_xyz
x,y,z
-x,-y,z
1/2-x,y,z
1/2+x,-y,z
1/2+x,1/2+y,1/2+z
1/2-x,1/2-y,1/2+z
-x,1/2+y,1/2+z
x,1/2-y,1/2+z
loop_
_atom_site_type_symbol
_atom_site_label
_atom_site_fract_x
_atom_site_fract_y
_atom_site_fract_z
Si Si1 0.452766 0.621208 0.940600
Si Si2 0.609317 0.640364 0.762504
Si Si3 0.800901 0.034481 0.776105
Si Si4 0.826556 0.752979 0.513878
Si Si5 0.409826 0.925040 0.763060
O O1 0.500000 0.500000 0.969658
O O2 0.429059 0.510386 0.803252
O O3 0.446834 0.830154 0.876209
O O4 0.424158 0.613951 0.093928
O O5 0.632501 0.640677 0.602510
O O6 0.589571 0.850567 0.782150
O O7 0.650156 0.620065 0.886533
O O8 0.750000 0.139463 0.765076
O O9 0.803982 0.889042 0.636633
O O10 0.853326 0.130919 0.781653
O O11 0.799198 0.904403 0.922447
#
# Coordination Sequence:
#
# PCOD9378396 Si02
#       5
#     8   8   8   8   8
#     4  12  27  43  69  94 133 174 221 280 339 400
#     4  10  19  42  63  91 133 175 209 276 331 385
#     4  10  18  36  63  96 136 179 224 273 331 401
#     4   8  17  32  62  89 128 171 219 260 318 390
#     4  10  26  44  65 100 132 172 227 274 332 401
#
# _framework density 22.122997999999999
#
# number of rings (size 3 to 8) (size 9 to 14) (size 15 to 20)
#    0.000    2.400    4.000    0.600    8.400    0.000 
#    0.000    1.000    0.000    0.000    0.000    0.000 
#    0.000    0.000    0.000    0.000    0.000    0.000 
#
# Total GULP energy -111374.695096 kJ/mol
# GULP energy per Si atom -5568.734755 kJ/mol
# Density = 2.207264 g / cm^3
# Si number density = 22.122998 Si / 1000 Ang^3
#
#
#
# Elastic Constant Matrix: (Units=GPa)
#
#
# Indices 1 2 3 4 5 6 
#
# 1 100.3447 17.7238 12.9698 0.0000 0.0000 0.0000
# 2 17.7238 48.4851 20.5524 0.0000 0.0000 0.0000
# 3 12.9698 20.5524 98.9756 0.0000 0.0000 0.0000
# 4 0.0000 0.0000 0.0000 18.9073 0.0000 0.0000
# 5 0.0000 0.0000 0.0000 0.0000 40.8409 0.0000
# 6 0.0000 0.0000 0.0000 0.0000 0.0000 9.5274
#
#
#
# Elastic Compliance Matrix: (Units=1/GPa)
#
#
# Indices 1 2 3 4 5 6 
#
# 1 0.010691 -0.003634 -0.000646 0.000000 0.000000 0.000000
# 2 -0.003634 0.023851 -0.004476 0.000000 0.000000 0.000000
# 3 -0.000646 -0.004476 0.011118 0.000000 0.000000 0.000000
# 4 0.000000 0.000000 0.000000 0.052890 0.000000 0.000000
# 5 0.000000 0.000000 0.000000 0.000000 0.024485 0.000000
# 6 0.000000 0.000000 0.000000 0.000000 0.000000 0.104960
#
#
# Mechanical properties :
#
#
# Convention : Reuss Voigt Hill
#
# Bulk Modulus (GPa) = 35.52923 38.92193 37.22558
# Shear Modulus (GPa) = 19.61626 26.95910 23.28768
#
# Velocity S-wave (km/s) = 2.98097 3.49463 3.24797
# Velocity P-wave (km/s) = 5.28611 5.82365 5.56138
#
# Compressibility (1/GPa) = 0.02814584
#
# Stress axis : x y z
#
# Youngs Moduli (GPa) = 93.53582 41.92717 89.94639
#
# Poissons Ratio (x) = 0.15237 0.05813
# Poissons Ratio (y) = 0.33993 0.40264
# Poissons Ratio (z) = 0.06045 0.18768
#
# Static dielectric constant tensor:
#      x y z
#    x 1.888660 0.000000 0.000000 
#    y 0.000000 1.924440 0.000000 
#    z 0.000000 0.000000 1.776290 
# 
# From -- ./inp_files/8324.got.cif
#   From: 2010.05.17/outbox.cif.g08.bks.cpg/sg46_5_cif.got.tgz:8324.got - 2010.06.03 19:58:25.
