data_PCOD9378788
_publ_section_title
;
Structure prediction by ZEFSAII (Michael W. Deem and Ramdas Pophale) SiO2 
 PCOD9378788
Probable space group: I M A 2
;
_chemical_formula_sum "Si O2"
_cell_formula_units_Z 64
_cell_length_a 8.141179
_cell_length_b 29.749614
_cell_length_c 12.849924
_cell_angle_alpha 90.000000
_cell_angle_beta 90.000000
_cell_angle_gamma 90.000000
_cell_volume 3112.212179
_symmetry_space_group_name_H-M "I M A 2"
_symmetry_group_IT_number 46
_symmetry_cell_setting 'orthorhombic'
loop_
_space_group_symop_operation_xyz
x,y,z
-x,-y,z
1/2-x,y,z
1/2+x,-y,z
1/2+x,1/2+y,1/2+z
1/2-x,1/2-y,1/2+z
-x,1/2+y,1/2+z
x,1/2-y,1/2+z
loop_
_atom_site_type_symbol
_atom_site_label
_atom_site_fract_x
_atom_site_fract_y
_atom_site_fract_z
Si Si1 0.445438 0.312592 0.493400
Si Si2 0.054300 0.455691 0.206027
Si Si3 0.559749 0.669948 0.083052
Si Si4 0.939500 0.077556 0.498323
Si Si5 0.050205 0.362504 0.301630
Si Si6 0.051270 0.346730 0.716651
Si Si7 0.434501 0.721485 0.897491
Si Si8 0.554004 0.550750 0.771707
O O1 0.250000 0.317347 0.504031
O O2 0.513328 0.349436 0.413663
O O3 0.507814 0.321821 0.610390
O O4 0.471960 0.267294 0.426045
O O5 0.250000 0.454094 0.188433
O O6 0.002815 0.412053 0.268802
O O7 0.000000 0.500000 0.264550
O O8 0.957730 0.454454 0.097195
O O9 0.750000 0.685400 0.076700
O O10 0.548297 0.620027 0.034373
O O11 0.505709 0.668435 0.202866
O O12 0.443735 0.698175 0.010044
O O13 0.750000 0.091519 0.485494
O O14 0.000759 0.055826 0.392216
O O15 0.250000 0.360875 0.304170
O O16 0.250000 0.347789 0.718065
O O17 0.997666 0.399831 0.724738
O O18 0.001270 0.314895 0.814215
O O19 0.250000 0.732770 0.866773
O O20 0.500000 0.500000 0.735797
O O21 0.750000 0.550925 0.763540
#
# Coordination Sequence:
#
# PCOD9378788 Si02
#       8
#     8   8   8   8   8   8   8   8
#     4  10  22  43  67  89 115 159 213 256 304 368
#     4  10  19  33  53  81 116 157 199 249 302 359
#     4  10  19  35  58  86 118 156 196 238 290 359
#     4  11  20  32  52  83 119 157 193 243 304 359
#     4   8  18  36  60  85 113 149 197 249 293 348
#     4  10  23  43  67  90 121 165 213 261 305 374
#     4  12  25  39  60  92 126 159 195 248 313 368
#     4  11  22  37  58  86 120 162 208 254 309 370
#
# _framework density 20.564150000000001
#
# number of rings (size 3 to 8) (size 9 to 14) (size 15 to 20)
#    0.000    1.750    1.250    4.500    1.750    1.000 
#    0.000    3.750    0.000    0.000    0.000    0.000 
#    0.000    0.000    0.000    0.000    0.000    0.000 
#
# Total GULP energy -178255.060257 kJ/mol
# GULP energy per Si atom -5570.470633 kJ/mol
# Density = 2.051734 g / cm^3
# Si number density = 20.564150 Si / 1000 Ang^3
#
#
#
# Elastic Constant Matrix: (Units=GPa)
#
#
# Indices 1 2 3 4 5 6 
#
# 1 43.3249 3.0510 13.7304 0.0000 0.0000 0.0000
# 2 3.0510 79.6579 47.5794 -0.0002 -0.0001 0.0000
# 3 13.7304 47.5794 108.0115 0.0002 0.0001 0.0000
# 4 0.0000 -0.0002 0.0002 5.3715 0.0000 0.0000
# 5 0.0000 -0.0001 0.0001 0.0000 -9.4147 0.0000
# 6 0.0000 0.0000 0.0000 0.0000 0.0000 23.8547
#
#
#
# Elastic Compliance Matrix: (Units=1/GPa)
#
#
# Indices 1 2 3 4 5 6 
#
# 1 0.024139 0.001233 -0.003612 0.000000 0.000000 0.000000
# 2 0.001233 0.017099 -0.007689 0.000001 0.000000 0.000000
# 3 -0.003612 -0.007689 0.013104 -0.000001 0.000000 0.000000
# 4 0.000000 0.000001 -0.000001 0.186168 0.000001 0.000000
# 5 0.000000 0.000000 0.000000 0.000001 -0.106217 0.000000
# 6 0.000000 0.000000 0.000000 0.000000 0.000000 0.041921
#
#
# Mechanical properties :
#
#
# Convention : Reuss Voigt Hill
#
# Bulk Modulus (GPa) = 29.23384 39.96844 34.60114
# Shear Modulus (GPa) = 24.06715 15.07119 19.56917
#
# Velocity S-wave (km/s) = 3.42474 2.71012 3.08817
# Velocity P-wave (km/s) = 5.46674 5.41029 5.43859
#
# Compressibility (1/GPa) = 0.03420693
#
# Stress axis : x y z
#
# Youngs Moduli (GPa) = 41.42643 58.48290 76.31062
#
# Poissons Ratio (x) = -0.07209 0.27560
# Poissons Ratio (y) = -0.05106 0.58674
# Poissons Ratio (z) = 0.14961 0.44967
#
# Static dielectric constant tensor:
#      x y z
#    x 1.734150 0.000000 0.000000 
#    y 0.000000 1.878710 0.000000 
#    z 0.000000 0.000000 1.725660 
# 
# From -- ./inp_files/9784.got.cif
#   From: 2010.05.17/outbox.cif.g08.bks.cpg/sg46_5_cif.got.tgz:9784.got - 2010.06.03 19:58:25.
