data_PCOD9378700
_publ_section_title
;
Structure prediction by ZEFSAII (Michael W. Deem and Ramdas Pophale) SiO2 
 PCOD9378700
Probable space group: I M A 2
;
_chemical_formula_sum "Si O2"
_cell_formula_units_Z 64
_cell_length_a 9.082891
_cell_length_b 33.308785
_cell_length_c 11.988420
_cell_angle_alpha 90.000000
_cell_angle_beta 90.000000
_cell_angle_gamma 90.000000
_cell_volume 3626.977348
_symmetry_space_group_name_H-M "I M A 2"
_symmetry_group_IT_number 46
_symmetry_cell_setting 'orthorhombic'
loop_
_space_group_symop_operation_xyz
x,y,z
-x,-y,z
1/2-x,y,z
1/2+x,-y,z
1/2+x,1/2+y,1/2+z
1/2-x,1/2-y,1/2+z
-x,1/2+y,1/2+z
x,1/2-y,1/2+z
loop_
_atom_site_type_symbol
_atom_site_label
_atom_site_fract_x
_atom_site_fract_y
_atom_site_fract_z
Si Si1 0.083158 0.685821 0.062160
Si Si2 0.572335 0.874735 0.982817
Si Si3 0.924603 0.725674 0.866556
Si Si4 0.926745 0.856437 0.238846
Si Si5 0.917800 0.100961 0.436119
Si Si6 0.426585 0.456621 0.365370
Si Si7 0.074209 0.043132 0.609097
Si Si8 0.074388 0.689686 0.319532
O O1 0.250000 0.702919 0.056864
O O2 0.042553 0.680133 0.190280
O O3 0.086376 0.642953 0.002429
O O4 0.971576 0.712391 0.990801
O O5 0.750000 0.872212 0.972494
O O6 0.529194 0.919951 0.945859
O O7 0.500201 0.842526 0.900443
O O8 0.533883 0.863968 0.110353
O O9 0.750000 0.732145 0.859384
O O10 0.963932 0.688365 0.784356
O O11 0.010838 0.766018 0.839410
O O12 0.750000 0.860531 0.250535
O O13 0.005724 0.888296 0.319351
O O14 0.750000 0.086776 0.420980
O O15 0.009243 0.071489 0.514386
O O16 0.500000 0.500000 0.386828
O O17 0.250000 0.461663 0.373073
O O18 0.460730 0.444055 0.236970
O O19 0.250000 0.040661 0.599665
O O20 0.000000 0.000000 0.595776
O O21 0.250000 0.689141 0.335756
#
# Coordination Sequence:
#
# PCOD9378700 Si02
#       8
#     8   8   8   8   8   8   8   8
#     4   9  20  37  54  76 105 139 177 221 273 328
#     4  10  21  38  58  83 112 147 192 235 279 335
#     4  10  21  36  55  78 105 142 186 230 277 328
#     4   9  20  38  57  77 107 147 188 230 276 327
#     4  10  19  34  56  79 106 140 180 223 272 328
#     4   9  19  35  57  84 115 148 183 229 281 335
#     4  10  19  32  53  82 113 143 178 223 278 331
#     4  11  23  36  54  81 111 142 179 229 283 336
#
# _framework density 17.645547000000001
#
# number of rings (size 3 to 8) (size 9 to 14) (size 15 to 20)
#    0.000    2.250    0.000    2.250    1.750    3.500 
#    0.000    0.625    0.000    1.500    0.000    0.000 
#    0.000    0.000    0.000    0.000    0.000    0.000 
#
# Total GULP energy -178533.839034 kJ/mol
# GULP energy per Si atom -5579.182470 kJ/mol
# Density = 1.760538 g / cm^3
# Si number density = 17.645547 Si / 1000 Ang^3
#
#
#
# Elastic Constant Matrix: (Units=GPa)
#
#
# Indices 1 2 3 4 5 6 
#
# 1 47.8554 40.0366 59.2736 0.0001 0.0000 0.0000
# 2 40.0366 84.1700 72.2369 0.0000 0.0000 0.0000
# 3 59.2736 72.2369 155.0990 -0.0002 0.0000 -0.0001
# 4 0.0001 0.0000 -0.0002 15.8379 0.0000 -0.0001
# 5 0.0000 0.0000 0.0000 0.0000 26.6285 0.0000
# 6 0.0000 0.0000 -0.0001 -0.0001 0.0000 32.6851
#
#
#
# Elastic Compliance Matrix: (Units=1/GPa)
#
#
# Indices 1 2 3 4 5 6 
#
# 1 0.045157 -0.011109 -0.012083 0.000000 0.000000 0.000000
# 2 -0.011109 0.022525 -0.006245 0.000000 0.000000 0.000000
# 3 -0.012083 -0.006245 0.013974 0.000000 0.000000 0.000000
# 4 0.000000 0.000000 0.000000 0.063140 0.000000 0.000000
# 5 0.000000 0.000000 0.000000 0.000000 0.037554 0.000000
# 6 0.000000 0.000000 0.000000 0.000000 0.000000 0.030595
#
#
# Mechanical properties :
#
#
# Convention : Reuss Voigt Hill
#
# Bulk Modulus (GPa) = 43.89805 70.02430 56.96118
# Shear Modulus (GPa) = 17.89463 22.73545 20.31504
#
# Velocity S-wave (km/s) = 3.18797 3.59340 3.39674
# Velocity P-wave (km/s) = 6.20343 7.54895 6.90903
#
# Compressibility (1/GPa) = 0.02278005
#
# Stress axis : x y z
#
# Youngs Moduli (GPa) = 22.14500 44.39540 71.56098
#
# Poissons Ratio (x) = 0.49320 0.86470
# Poissons Ratio (y) = 0.24601 0.44692
# Poissons Ratio (z) = 0.26759 0.27726
#
# Static dielectric constant tensor:
#      x y z
#    x 1.605550 0.000000 0.000000 
#    y 0.000000 1.589170 0.000000 
#    z 0.000000 0.000000 1.592810 
# 
# From -- ./inp_files/9668.got.cif
#   From: 2010.05.17/outbox.cif.g08.bks.cpg/sg46_5_cif.got.tgz:9668.got - 2010.06.03 19:58:25.
