data_PCOD9378194
_publ_section_title
;
Structure prediction by ZEFSAII (Michael W. Deem and Ramdas Pophale) SiO2 
 PCOD9378194
Probable space group: I M A 2
;
_chemical_formula_sum "Si O2"
_cell_formula_units_Z 48
_cell_length_a 8.697334
_cell_length_b 14.254487
_cell_length_c 18.858011
_cell_angle_alpha 90.000000
_cell_angle_beta 90.000000
_cell_angle_gamma 90.000000
_cell_volume 2337.941421
_symmetry_space_group_name_H-M "I M A 2"
_symmetry_group_IT_number 46
_symmetry_cell_setting 'orthorhombic'
loop_
_space_group_symop_operation_xyz
x,y,z
-x,-y,z
1/2-x,y,z
1/2+x,-y,z
1/2+x,1/2+y,1/2+z
1/2-x,1/2-y,1/2+z
-x,1/2+y,1/2+z
x,1/2-y,1/2+z
loop_
_atom_site_type_symbol
_atom_site_label
_atom_site_fract_x
_atom_site_fract_y
_atom_site_fract_z
Si Si1 0.566324 0.101265 0.219180
Si Si2 0.934833 0.395338 0.010945
Si Si3 0.430054 0.245413 0.106970
Si Si4 0.574866 0.404005 0.513514
Si Si5 0.562786 0.302522 0.861618
Si Si6 0.923549 0.403082 0.343020
O O1 0.750000 0.098878 0.213538
O O2 0.504012 0.186640 0.171239
O O3 0.524413 0.123578 0.300647
O O4 0.500000 0.000000 0.198965
O O5 0.750000 0.396396 0.011251
O O6 0.984489 0.339205 0.939117
O O7 0.000000 0.500000 0.007567
O O8 0.993396 0.341913 0.081292
O O9 0.250000 0.257453 0.118699
O O10 0.466153 0.177503 0.040455
O O11 0.500000 0.500000 0.538894
O O12 0.750000 0.390089 0.539404
O O13 0.583140 0.408750 0.428809
O O14 0.750000 0.292654 0.865069
O O15 0.503617 0.200385 0.835167
O O16 0.750000 0.401047 0.314463
O O17 0.000000 0.500000 0.318045
#
# Coordination Sequence:
#
# PCOD9378194 Si02
#       6
#     8   8   8   8   8   8
#     4  11  23  41  64  90 123 164 204 253 311 371
#     4  11  22  41  65  93 123 158 203 256 310 368
#     4  12  24  39  58  86 120 159 206 251 300 362
#     4  10  18  31  53  81 116 151 190 241 297 353
#     4   9  19  38  63  89 124 163 202 249 309 368
#     4   9  17  32  53  83 117 152 191 239 294 353
#
# _framework density 20.530882999999999
#
# number of rings (size 3 to 8) (size 9 to 14) (size 15 to 20)
#    0.000    1.667    1.667    4.000    0.000    0.667 
#    0.000    5.000    0.000    2.000    0.000    0.000 
#    0.000    0.000    0.000    0.000    0.000    0.000 
#
# Total GULP energy -133897.104097 kJ/mol
# GULP energy per Si atom -5579.046004 kJ/mol
# Density = 2.048415 g / cm^3
# Si number density = 20.530883 Si / 1000 Ang^3
#
#
#
# Elastic Constant Matrix: (Units=GPa)
#
#
# Indices 1 2 3 4 5 6 
#
# 1 75.8183 29.6028 24.8223 0.0000 0.0000 0.0000
# 2 29.6028 140.5441 33.4904 0.0000 0.0000 0.0000
# 3 24.8223 33.4904 74.8234 0.0000 0.0000 0.0000
# 4 0.0000 0.0000 0.0000 71.0329 0.0000 0.0000
# 5 0.0000 0.0000 0.0000 0.0000 10.2463 0.0000
# 6 0.0000 0.0000 0.0000 0.0000 0.0000 32.1791
#
#
#
# Elastic Compliance Matrix: (Units=1/GPa)
#
#
# Indices 1 2 3 4 5 6 
#
# 1 0.015418 -0.002271 -0.004098 0.000000 0.000000 0.000000
# 2 -0.002271 0.008299 -0.002961 0.000000 0.000000 0.000000
# 3 -0.004098 -0.002961 0.016050 0.000000 0.000000 0.000000
# 4 0.000000 0.000000 0.000000 0.014078 0.000000 0.000000
# 5 0.000000 0.000000 0.000000 0.000000 0.097596 0.000000
# 6 0.000000 0.000000 0.000000 0.000000 0.000000 0.031076
#
#
# Mechanical properties :
#
#
# Convention : Reuss Voigt Hill
#
# Bulk Modulus (GPa) = 47.38030 51.89076 49.63553
# Shear Modulus (GPa) = 24.01380 36.24301 30.12840
#
# Velocity S-wave (km/s) = 3.42371 4.20610 3.83491
# Velocity P-wave (km/s) = 6.22549 6.99412 6.62097
#
# Compressibility (1/GPa) = 0.02110582
#
# Stress axis : x y z
#
# Youngs Moduli (GPa) = 64.85989 120.49404 62.30570
#
# Poissons Ratio (x) = 0.27362 0.25535
# Poissons Ratio (y) = 0.14729 0.18451
# Poissons Ratio (z) = 0.26582 0.35682
#
# Static dielectric constant tensor:
#      x y z
#    x 1.709690 0.000000 0.000000 
#    y 0.000000 1.752200 0.000000 
#    z 0.000000 0.000000 1.750780 
# 
# From -- ./inp_files/20914.got.cif
#   From: 2010.05.17/outbox.cif.g08.bks.cpg/sg46_11_cif.got.tgz:20914.got - 2010.06.03 19:58:25.
