data_PCOD9378452
_publ_section_title
;
Structure prediction by ZEFSAII (Michael W. Deem and Ramdas Pophale) SiO2 
 PCOD9378452
Probable space group: I M A 2
;
_chemical_formula_sum "Si O2"
_cell_formula_units_Z 64
_cell_length_a 9.098011
_cell_length_b 33.535994
_cell_length_c 11.921686
_cell_angle_alpha 90.000000
_cell_angle_beta 90.000000
_cell_angle_gamma 90.000000
_cell_volume 3637.435657
_symmetry_space_group_name_H-M "I M A 2"
_symmetry_group_IT_number 46
_symmetry_cell_setting 'orthorhombic'
loop_
_space_group_symop_operation_xyz
x,y,z
-x,-y,z
1/2-x,y,z
1/2+x,-y,z
1/2+x,1/2+y,1/2+z
1/2-x,1/2-y,1/2+z
-x,1/2+y,1/2+z
x,1/2-y,1/2+z
loop_
_atom_site_type_symbol
_atom_site_label
_atom_site_fract_x
_atom_site_fract_y
_atom_site_fract_z
Si Si1 0.078201 0.960187 0.562140
Si Si2 0.572432 0.457675 0.326348
Si Si3 0.578759 0.685191 0.821929
Si Si4 0.421201 0.324405 0.187262
Si Si5 0.572772 0.875930 0.905141
Si Si6 0.922247 0.231840 0.521027
Si Si7 0.085740 0.112668 0.484085
Si Si8 0.922736 0.177776 0.085302
O O1 0.250000 0.966236 0.558416
O O2 0.037725 0.953329 0.693145
O O3 0.030205 0.922104 0.492263
O O4 0.000000 0.000000 0.522495
O O5 0.500000 0.500000 0.361683
O O6 0.750000 0.458652 0.339796
O O7 0.502088 0.418862 0.384456
O O8 0.750000 0.695161 0.802265
O O9 0.572454 0.641475 0.878326
O O10 0.487280 0.684294 0.708783
O O11 0.511054 0.714287 0.915851
O O12 0.250000 0.312017 0.196655
O O13 0.466877 0.345514 0.302805
O O14 0.515218 0.288403 0.135167
O O15 0.429254 0.358684 0.092137
O O16 0.750000 0.879957 0.905143
O O17 0.513052 0.855252 0.017268
O O18 0.750000 0.221559 0.510727
O O19 0.937676 0.279245 0.525791
O O20 0.250000 0.095209 0.487827
O O21 0.750000 0.167591 0.088920
#
# Coordination Sequence:
#
# PCOD9378452 Si02
#       8
#     8   8   8   8   8   8   8   8
#     4  10  19  29  48  79 113 147 180 219 272 330
#     4  10  20  34  54  83 118 155 191 235 288 346
#     4  10  22  40  60  81 107 145 190 232 280 336
#     4   9  19  34  54  81 111 145 186 228 276 334
#     4  11  22  37  58  85 116 153 193 239 289 344
#     4  10  22  38  58  82 112 147 185 234 288 336
#     4   9  17  33  54  77 107 140 177 225 273 324
#     4  11  25  41  57  82 114 150 191 238 287 340
#
# _framework density 17.594812999999998
#
# number of rings (size 3 to 8) (size 9 to 14) (size 15 to 20)
#    0.000    2.000    1.250    3.000    1.750    6.500 
#    0.000    0.000    0.000    0.750    0.000    1.750 
#    0.000    0.000    0.000    0.000    0.000    0.000 
#
# Total GULP energy -178605.812606 kJ/mol
# GULP energy per Si atom -5581.431644 kJ/mol
# Density = 1.755477 g / cm^3
# Si number density = 17.594813 Si / 1000 Ang^3
#
#
#
# Elastic Constant Matrix: (Units=GPa)
#
#
# Indices 1 2 3 4 5 6 
#
# 1 68.3747 43.3101 23.7532 -0.0003 -0.0001 0.0000
# 2 43.3101 65.9697 17.4794 -0.0009 -0.0001 0.0000
# 3 23.7532 17.4794 64.0785 -0.0006 0.0000 0.0000
# 4 -0.0003 -0.0009 -0.0006 15.8817 0.0000 0.0000
# 5 -0.0001 -0.0001 0.0000 0.0000 23.5515 0.0000
# 6 0.0000 0.0000 0.0000 0.0000 0.0000 32.6882
#
#
#
# Elastic Compliance Matrix: (Units=1/GPa)
#
#
# Indices 1 2 3 4 5 6 
#
# 1 0.026734 -0.016088 -0.005521 -0.000001 0.000000 0.000000
# 2 -0.016088 0.026021 -0.001134 0.000001 0.000000 0.000000
# 3 -0.005521 -0.001134 0.017962 0.000000 0.000000 0.000000
# 4 -0.000001 0.000001 0.000000 0.062965 0.000000 0.000000
# 5 0.000000 0.000000 0.000000 0.000000 0.042460 0.000000
# 6 0.000000 0.000000 0.000000 0.000000 0.000000 0.030592
#
#
# Mechanical properties :
#
#
# Convention : Reuss Voigt Hill
#
# Bulk Modulus (GPa) = 39.63670 40.83425 40.23548
# Shear Modulus (GPa) = 19.18405 22.01631 20.60018
#
# Velocity S-wave (km/s) = 3.30559 3.54120 3.42542
# Velocity P-wave (km/s) = 6.09472 6.32287 6.20984
#
# Compressibility (1/GPa) = 0.02522914
#
# Stress axis : x y z
#
# Youngs Moduli (GPa) = 37.40530 38.43010 55.67298
#
# Poissons Ratio (x) = 0.61828 0.30740
# Poissons Ratio (y) = 0.60179 0.06315
# Poissons Ratio (z) = 0.20653 0.04359
#
# Static dielectric constant tensor:
#      x y z
#    x 1.596240 0.000000 0.000000 
#    y 0.000000 1.587260 0.000000 
#    z 0.000000 0.000000 1.584400 
# 
# From -- ./inp_files/9795.got.cif
#   From: 2010.05.17/outbox.cif.g08.bks.cpg/sg46_5_cif.got.tgz:9795.got - 2010.06.03 19:58:25.
