data_PCOD9378014
_publ_section_title
;
Structure prediction by ZEFSAII (Michael W. Deem and Ramdas Pophale) SiO2 
 PCOD9378014
Probable space group: I M A 2
;
_chemical_formula_sum "Si O2"
_cell_formula_units_Z 64
_cell_length_a 7.882514
_cell_length_b 31.488632
_cell_length_c 14.921301
_cell_angle_alpha 90.000000
_cell_angle_beta 90.000000
_cell_angle_gamma 90.000000
_cell_volume 3703.609893
_symmetry_space_group_name_H-M "I M A 2"
_symmetry_group_IT_number 46
_symmetry_cell_setting 'orthorhombic'
loop_
_space_group_symop_operation_xyz
x,y,z
-x,-y,z
1/2-x,y,z
1/2+x,-y,z
1/2+x,1/2+y,1/2+z
1/2-x,1/2-y,1/2+z
-x,1/2+y,1/2+z
x,1/2-y,1/2+z
loop_
_atom_site_type_symbol
_atom_site_label
_atom_site_fract_x
_atom_site_fract_y
_atom_site_fract_z
Si Si1 0.451601 0.451985 0.191940
Si Si2 0.453363 0.727861 0.598159
Si Si3 0.952673 0.133438 0.768464
Si Si4 0.550732 0.787930 0.300324
Si Si5 0.452964 0.797561 0.906010
Si Si6 0.046056 0.827945 0.580808
Si Si7 0.555079 0.630645 0.899325
Si Si8 0.455043 0.451687 0.987341
O O1 0.500000 0.500000 0.215771
O O2 0.250000 0.449259 0.187309
O O3 0.511992 0.416400 0.261205
O O4 0.518343 0.443878 0.089892
O O5 0.250000 0.721726 0.604590
O O6 0.527078 0.715148 0.693929
O O7 0.519321 0.705827 0.507494
O O8 0.482461 0.777842 0.583550
O O9 0.750000 0.139158 0.768769
O O10 0.020145 0.162471 0.849077
O O11 0.014506 0.152663 0.674350
O O12 0.750000 0.787973 0.321989
O O13 0.479688 0.746192 0.350511
O O14 0.476777 0.832582 0.337100
O O15 0.250000 0.802171 0.914337
O O16 0.250000 0.835059 0.570871
O O17 0.951916 0.848743 0.497961
O O18 0.750000 0.624520 0.869450
O O19 0.479800 0.583925 0.918161
O O20 0.500000 0.500000 0.964265
O O21 0.250000 0.448087 0.989524
#
# Coordination Sequence:
#
# PCOD9378014 Si02
#       8
#     8   8   8   8   8   8   8   8
#     4  10  19  31  48  70  97 130 160 196 240 290
#     4  10  20  35  51  68  96 133 170 208 244 282
#     4  10  19  31  47  71  98 127 164 202 242 286
#     4  11  22  32  48  72 100 131 164 204 247 293
#     4  10  20  35  52  70  96 131 170 208 244 285
#     4  10  18  28  48  71  94 128 166 202 235 279
#     4  10  20  33  46  68 100 132 161 197 243 289
#     4   9  18  31  46  66  94 124 157 193 235 285
#
# _framework density 17.280436000000002
#
# number of rings (size 3 to 8) (size 9 to 14) (size 15 to 20)
#    0.000    2.000    3.750    0.750    0.000    3.000 
#    0.000    0.000    0.000    0.000    0.000    0.875 
#    0.000    4.000    0.000    0.000    0.000    0.000 
#
# Total GULP energy -178422.373414 kJ/mol
# GULP energy per Si atom -5575.699169 kJ/mol
# Density = 1.724111 g / cm^3
# Si number density = 17.280436 Si / 1000 Ang^3
#
#
#
# Elastic Constant Matrix: (Units=GPa)
#
#
# Indices 1 2 3 4 5 6 
#
# 1 10.3983 -3.6330 -6.3586 -0.0001 0.0001 0.0000
# 2 -3.6330 97.2689 28.6796 -0.0003 0.0003 0.0000
# 3 -6.3586 28.6796 71.0014 -0.0004 0.0004 0.0000
# 4 -0.0001 -0.0003 -0.0004 10.2832 0.0004 0.0000
# 5 0.0001 0.0003 0.0004 0.0004 -5.4129 0.0000
# 6 0.0000 0.0000 0.0000 0.0000 0.0000 15.4558
#
#
#
# Elastic Compliance Matrix: (Units=1/GPa)
#
#
# Indices 1 2 3 4 5 6 
#
# 1 0.101878 0.001266 0.008613 0.000002 0.000003 0.000000
# 2 0.001266 0.011686 -0.004607 0.000000 0.000000 0.000000
# 3 0.008613 -0.004607 0.016717 0.000001 0.000001 0.000000
# 4 0.000002 0.000000 0.000001 0.097246 0.000006 0.000000
# 5 0.000003 0.000000 0.000001 0.000006 -0.184746 0.000000
# 6 0.000000 0.000000 0.000000 0.000000 0.000000 0.064701
#
#
# Mechanical properties :
#
#
# Convention : Reuss Voigt Hill
#
# Bulk Modulus (GPa) = 7.10108 24.00495 15.55302
# Shear Modulus (GPa) = 34.75075 14.73059 24.74067
#
# Velocity S-wave (km/s) = 4.48927 2.92283 3.78791
# Velocity P-wave (km/s) = 5.56683 5.03112 5.30574
#
# Compressibility (1/GPa) = 0.14082361
#
# Stress axis : x y z
#
# Youngs Moduli (GPa) = 9.81563 85.56907 59.82104
#
# Poissons Ratio (x) = -0.10831 -0.51522
# Poissons Ratio (y) = -0.01242 0.27561
# Poissons Ratio (z) = -0.08454 0.39423
#
# Static dielectric constant tensor:
#      x y z
#    x 1.644130 0.000000 0.000000 
#    y 0.000000 1.645260 0.000000 
#    z 0.000000 0.000000 1.585800 
# 
# From -- ./inp_files/14726.got.cif
#   From: 2010.05.17/outbox.cif.g08.bks.cpg/sg46_8_cif.got.tgz:14726.got - 2010.06.03 19:58:25.
