data_PCOD9378987
_publ_section_title
;
Structure prediction by ZEFSAII (Michael W. Deem and Ramdas Pophale) SiO2 
 PCOD9378987
Probable space group: I M A 2
;
_chemical_formula_sum "Si O2"
_cell_formula_units_Z 44
_cell_length_a 22.347463
_cell_length_b 13.959719
_cell_length_c 8.519240
_cell_angle_alpha 90.000000
_cell_angle_beta 90.000000
_cell_angle_gamma 90.000000
_cell_volume 2657.698776
_symmetry_space_group_name_H-M "I M A 2"
_symmetry_group_IT_number 46
_symmetry_cell_setting 'orthorhombic'
loop_
_space_group_symop_operation_xyz
x,y,z
-x,-y,z
1/2-x,y,z
1/2+x,-y,z
1/2+x,1/2+y,1/2+z
1/2-x,1/2-y,1/2+z
-x,1/2+y,1/2+z
x,1/2-y,1/2+z
loop_
_atom_site_type_symbol
_atom_site_label
_atom_site_fract_x
_atom_site_fract_y
_atom_site_fract_z
Si Si1 0.941177 0.843583 0.343560
Si Si2 0.680182 0.894853 0.843982
Si Si3 0.988817 0.851124 0.690718
Si Si4 0.179121 0.201923 0.500589
Si Si5 0.078276 0.534308 0.342853
Si Si6 0.500000 0.000000 0.126661
O O1 0.976572 0.851457 0.507252
O O2 0.961937 0.744810 0.263843
O O3 0.870894 0.845889 0.389208
O O4 0.962472 0.927341 0.230679
O O5 0.750000 0.914076 0.855904
O O6 0.670945 0.840486 0.675597
O O7 0.644801 0.994265 0.855494
O O8 0.664980 0.815353 0.977446
O O9 0.057268 0.876963 0.736051
O O10 0.952331 0.938892 0.768136
O O11 0.250000 0.189770 0.458393
O O12 0.047340 0.551201 0.510833
#
# Coordination Sequence:
#
# PCOD9378987 Si02
#       6
#     8   8   8   8   8   4
#     4  12  19  35  49  77 102 142 165 221 252 314
#     4  10  20  33  51  74 106 142 174 207 251 307
#     4  10  20  30  53  68 106 133 172 207 266 290
#     4  10  20  31  49  74 105 140 170 199 249 311
#     4  10  19  35  46  77  98 138 173 216 244 317
#     4  10  24  30  52  72 104 132 182 208 266 298
#
# _framework density 16.555676999999999
#
# number of rings (size 3 to 8) (size 9 to 14) (size 15 to 20)
#    0.000    1.818    3.636    3.273    2.545    0.000 
#    0.000    0.000    0.000    0.000    0.000    6.364 
#    0.000    0.000    0.000    0.000    0.000    0.000 
#
# Total GULP energy -122543.224446 kJ/mol
# GULP energy per Si atom -5570.146566 kJ/mol
# Density = 1.651800 g / cm^3
# Si number density = 16.555677 Si / 1000 Ang^3
#
#
#
# Elastic Constant Matrix: (Units=GPa)
#
#
# Indices 1 2 3 4 5 6 
#
# 1 91.0632 23.7901 25.7551 0.0000 0.0000 0.0000
# 2 23.7901 28.6615 11.5391 0.0000 0.0000 0.0000
# 3 25.7551 11.5391 83.3839 0.0000 0.0000 0.0000
# 4 0.0000 0.0000 0.0000 28.3546 0.0000 0.0000
# 5 0.0000 0.0000 0.0000 0.0000 20.2040 0.0000
# 6 0.0000 0.0000 0.0000 0.0000 0.0000 35.1812
#
#
#
# Elastic Compliance Matrix: (Units=1/GPa)
#
#
# Indices 1 2 3 4 5 6 
#
# 1 0.014707 -0.010991 -0.003022 0.000000 0.000000 0.000000
# 2 -0.010991 0.045163 -0.002855 0.000000 0.000000 0.000000
# 3 -0.003022 -0.002855 0.013321 0.000000 0.000000 0.000000
# 4 0.000000 0.000000 0.000000 0.035268 0.000000 0.000000
# 5 0.000000 0.000000 0.000000 0.000000 0.049495 0.000000
# 6 0.000000 0.000000 0.000000 0.000000 0.000000 0.028424
#
#
# Mechanical properties :
#
#
# Convention : Reuss Voigt Hill
#
# Bulk Modulus (GPa) = 25.34505 36.14189 30.74347
# Shear Modulus (GPa) = 21.43479 26.21625 23.82552
#
# Velocity S-wave (km/s) = 3.60211 3.98366 3.79768
# Velocity P-wave (km/s) = 5.71336 6.56029 6.15142
#
# Compressibility (1/GPa) = 0.03945544
#
# Stress axis : x y z
#
# Youngs Moduli (GPa) = 67.99284 22.14224 75.06869
#
# Poissons Ratio (x) = 0.24337 0.22684
# Poissons Ratio (y) = 0.74732 0.21432
# Poissons Ratio (z) = 0.20546 0.06321
#
# Static dielectric constant tensor:
#      x y z
#    x 1.688430 0.000000 0.000000 
#    y 0.000000 1.546900 0.000000 
#    z 0.000000 0.000000 1.583720 
# 
# From -- ./inp_files/7776.got.cif
#   From: 2010.05.17/outbox.cif.g08.bks.cpg/sg46_4_cif.got.tgz:7776.got - 2010.06.03 19:58:25.
