data_PCOD9378048
_publ_section_title
;
Structure prediction by ZEFSAII (Michael W. Deem and Ramdas Pophale) SiO2 
 PCOD9378048
Probable space group: I M A 2
;
_chemical_formula_sum "Si O2"
_cell_formula_units_Z 56
_cell_length_a 8.662060
_cell_length_b 18.960406
_cell_length_c 21.502904
_cell_angle_alpha 90.000000
_cell_angle_beta 90.000000
_cell_angle_gamma 90.000000
_cell_volume 3531.554691
_symmetry_space_group_name_H-M "I M A 2"
_symmetry_group_IT_number 46
_symmetry_cell_setting 'orthorhombic'
loop_
_space_group_symop_operation_xyz
x,y,z
-x,-y,z
1/2-x,y,z
1/2+x,-y,z
1/2+x,1/2+y,1/2+z
1/2-x,1/2-y,1/2+z
-x,1/2+y,1/2+z
x,1/2-y,1/2+z
loop_
_atom_site_type_symbol
_atom_site_label
_atom_site_fract_x
_atom_site_fract_y
_atom_site_fract_z
Si Si1 0.565127 0.787768 0.445560
Si Si2 0.066127 0.708997 0.324845
Si Si3 0.065063 0.152633 0.015887
Si Si4 0.935683 0.078227 0.392949
Si Si5 0.934332 0.577907 0.385737
Si Si6 0.565223 0.421264 0.636968
Si Si7 0.062346 0.653129 0.763332
O O1 0.750000 0.786569 0.435363
O O2 0.480381 0.750310 0.387727
O O3 0.532531 0.735306 0.502811
O O4 0.503887 0.867192 0.443492
O O5 0.250000 0.700864 0.321548
O O6 0.014749 0.765097 0.272360
O O7 0.990689 0.632773 0.333242
O O8 0.250000 0.144621 0.022011
O O9 0.985322 0.121606 0.076241
O O10 0.018058 0.109630 0.953403
O O11 0.750000 0.078751 0.395745
O O12 0.983479 0.108463 0.324618
O O13 0.000000 0.000000 0.400559
O O14 0.750000 0.576190 0.385216
O O15 0.000000 0.500000 0.377959
O O16 0.500000 0.500000 0.633758
O O17 0.750000 0.424867 0.639241
O O18 0.508932 0.382892 0.699980
O O19 0.250000 0.653092 0.763150
#
# Coordination Sequence:
#
# PCOD9378048 Si02
#       7
#     8   8   8   8   8   8   8
#     4   9  17  30  46  64  88 116 149 187 226 269
#     4   9  16  29  47  65  88 116 148 185 226 270
#     4   9  19  33  46  63  89 120 153 187 221 261
#     4  10  18  29  46  68  94 120 149 184 226 270
#     4  10  19  30  45  67  93 119 149 185 227 270
#     4  11  21  32  46  65  91 122 156 187 217 256
#     4   8  17  31  45  64  90 121 153 185 219 260
#
# _framework density 15.857039
#
# number of rings (size 3 to 8) (size 9 to 14) (size 15 to 20)
#    0.000    2.571    0.000    4.714    0.000    4.571 
#    0.000    7.857    0.000    0.000    0.000    1.000 
#    0.000    6.857    0.000    0.000    0.000    0.000 
#
# Total GULP energy -155977.581749 kJ/mol
# GULP energy per Si atom -5570.627920 kJ/mol
# Density = 1.582095 g / cm^3
# Si number density = 15.857039 Si / 1000 Ang^3
#
#
#
# Elastic Constant Matrix: (Units=GPa)
#
#
# Indices 1 2 3 4 5 6 
#
# 1 39.5131 39.3796 24.0681 0.0000 0.0000 0.0000
# 2 39.3796 163.3602 60.5979 0.0000 0.0000 0.0000
# 3 24.0681 60.5979 69.5489 0.0000 0.0000 0.0000
# 4 0.0000 0.0000 0.0000 21.0223 0.0000 0.0000
# 5 0.0000 0.0000 0.0000 0.0000 13.8987 0.0000
# 6 0.0000 0.0000 0.0000 0.0000 0.0000 26.9487
#
#
#
# Elastic Compliance Matrix: (Units=1/GPa)
#
#
# Indices 1 2 3 4 5 6 
#
# 1 0.035563 -0.005922 -0.007148 0.000000 0.000000 0.000000
# 2 -0.005922 0.010031 -0.006691 0.000000 0.000000 0.000000
# 3 -0.007148 -0.006691 0.022681 0.000000 0.000000 0.000000
# 4 0.000000 0.000000 0.000000 0.047569 0.000000 0.000000
# 5 0.000000 0.000000 0.000000 0.000000 0.071949 0.000000
# 6 0.000000 0.000000 0.000000 0.000000 0.000000 0.037108
#
#
# Mechanical properties :
#
#
# Convention : Reuss Voigt Hill
#
# Bulk Modulus (GPa) = 34.77537 57.83482 46.30510
# Shear Modulus (GPa) = 18.24781 22.26570 20.25675
#
# Velocity S-wave (km/s) = 3.39598 3.75127 3.57804
# Velocity P-wave (km/s) = 6.11188 7.43737 6.80697
#
# Compressibility (1/GPa) = 0.02875598
#
# Stress axis : x y z
#
# Youngs Moduli (GPa) = 28.11886 99.69380 44.08910
#
# Poissons Ratio (x) = 0.59034 0.31513
# Poissons Ratio (y) = 0.16651 0.29498
# Poissons Ratio (z) = 0.20098 0.66701
#
# Static dielectric constant tensor:
#      x y z
#    x 1.534560 0.000000 0.000000 
#    y 0.000000 1.558220 0.000000 
#    z 0.000000 0.000000 1.520360 
# 
# From -- ./inp_files/21220.got.cif
#   From: 2010.05.17/outbox.cif.g08.bks.cpg/sg46_11_cif.got.tgz:21220.got - 2010.06.03 19:58:25.
