data_PCOD9378996
_publ_section_title
;
Structure prediction by ZEFSAII (Michael W. Deem and Ramdas Pophale) SiO2 
 PCOD9378996
Probable space group: I M A 2
;
_chemical_formula_sum "Si O2"
_cell_formula_units_Z 64
_cell_length_a 9.159061
_cell_length_b 26.172689
_cell_length_c 13.822237
_cell_angle_alpha 90.000000
_cell_angle_beta 90.000000
_cell_angle_gamma 90.000000
_cell_volume 3313.428713
_symmetry_space_group_name_H-M "I M A 2"
_symmetry_group_IT_number 46
_symmetry_cell_setting 'orthorhombic'
loop_
_space_group_symop_operation_xyz
x,y,z
-x,-y,z
1/2-x,y,z
1/2+x,-y,z
1/2+x,1/2+y,1/2+z
1/2-x,1/2-y,1/2+z
-x,1/2+y,1/2+z
x,1/2-y,1/2+z
loop_
_atom_site_type_symbol
_atom_site_label
_atom_site_fract_x
_atom_site_fract_y
_atom_site_fract_z
Si Si1 0.085486 0.422584 0.714590
Si Si2 0.419629 0.447884 0.943315
Si Si3 0.573724 0.166947 0.965459
Si Si4 0.905908 0.166778 0.251259
Si Si5 0.576292 0.737883 0.064680
Si Si6 0.422806 0.551247 0.528574
Si Si7 0.080809 0.712282 0.256874
Si Si8 0.912948 0.148994 0.471772
O O1 0.250000 0.432196 0.680331
O O2 0.075177 0.440785 0.825666
O O3 0.045378 0.362299 0.710468
O O4 0.969071 0.446123 0.641488
O O5 0.500000 0.500000 0.966368
O O6 0.250000 0.448614 0.969057
O O7 0.500898 0.401941 0.998330
O O8 0.750000 0.172484 0.972016
O O9 0.533723 0.184543 0.855760
O O10 0.501637 0.208002 0.039453
O O11 0.535679 0.107482 0.985834
O O12 0.750000 0.156545 0.198891
O O13 0.917346 0.226510 0.269279
O O14 0.893369 0.143413 0.357410
O O15 0.750000 0.743447 0.062358
O O16 0.522523 0.710031 0.163428
O O17 0.513045 0.698181 0.986979
O O18 0.500000 0.500000 0.488124
O O19 0.250000 0.546081 0.518298
O O20 0.250000 0.697101 0.236792
O O21 0.750000 0.155125 0.514084
#
# Coordination Sequence:
#
# PCOD9378996 Si02
#       8
#     8   8   8   8   8   8   8   8
#     4  10  20  32  50  78 115 151 189 232 282 343
#     4  10  20  33  50  77 110 149 192 239 290 347
#     4  10  22  42  63  85 114 157 203 243 290 356
#     4   9  17  31  53  78 106 144 186 229 275 330
#     4  12  24  36  56  89 123 152 187 240 300 355
#     4  11  23  38  58  81 111 149 195 243 293 349
#     4  10  20  37  59  81 110 149 195 237 280 346
#     4  10  19  35  56  77 107 149 190 230 278 337
#
# _framework density 19.315339999999999
#
# number of rings (size 3 to 8) (size 9 to 14) (size 15 to 20)
#    0.000    1.750    1.250    3.750    0.000    8.000 
#    0.000    0.000    0.000    0.750    0.000    3.500 
#    0.000    0.000    0.000    0.000    0.000    0.000 
#
# Total GULP energy -178298.935810 kJ/mol
# GULP energy per Si atom -5571.841744 kJ/mol
# Density = 1.927138 g / cm^3
# Si number density = 19.315340 Si / 1000 Ang^3
#
#
#
# Elastic Constant Matrix: (Units=GPa)
#
#
# Indices 1 2 3 4 5 6 
#
# 1 85.8659 38.0294 14.2815 0.0000 0.0000 0.0000
# 2 38.0294 114.1339 5.9416 0.0000 0.0000 0.0000
# 3 14.2815 5.9416 53.8952 0.0001 0.0000 0.0001
# 4 0.0000 0.0000 0.0001 15.1217 0.0000 0.0000
# 5 0.0000 0.0000 0.0000 0.0000 18.7231 0.0000
# 6 0.0000 0.0000 0.0001 0.0000 0.0000 38.3391
#
#
#
# Elastic Compliance Matrix: (Units=1/GPa)
#
#
# Indices 1 2 3 4 5 6 
#
# 1 0.014211 -0.004565 -0.003262 0.000000 0.000000 0.000000
# 2 -0.004565 0.010279 0.000077 0.000000 0.000000 0.000000
# 3 -0.003262 0.000077 0.019411 0.000000 0.000000 0.000000
# 4 0.000000 0.000000 0.000000 0.066130 0.000000 0.000000
# 5 0.000000 0.000000 0.000000 0.000000 0.053410 0.000000
# 6 0.000000 0.000000 0.000000 0.000000 0.000000 0.026083
#
#
# Mechanical properties :
#
#
# Convention : Reuss Voigt Hill
#
# Bulk Modulus (GPa) = 35.21372 41.15557 38.18464
# Shear Modulus (GPa) = 23.31103 27.47961 25.39532
#
# Velocity S-wave (km/s) = 3.47777 3.77594 3.62992
# Velocity P-wave (km/s) = 5.86490 6.35325 6.11395
#
# Compressibility (1/GPa) = 0.02839802
#
# Stress axis : x y z
#
# Youngs Moduli (GPa) = 70.37034 97.28809 51.51831
#
# Poissons Ratio (x) = 0.44413 0.16807
# Poissons Ratio (y) = 0.32125 -0.00394
# Poissons Ratio (z) = 0.22957 -0.00744
#
# Static dielectric constant tensor:
#      x y z
#    x 1.698720 0.000000 0.000000 
#    y 0.000000 1.713180 0.000000 
#    z 0.000000 0.000000 1.733660 
# 
# From -- ./inp_files/14531.got.cif
#   From: 2010.05.17/outbox.cif.g08.bks.cpg/sg46_8_cif.got.tgz:14531.got - 2010.06.03 19:58:25.
