data_PCOD9378259
_publ_section_title
;
Structure prediction by ZEFSAII (Michael W. Deem and Ramdas Pophale) SiO2 
 PCOD9378259
Probable space group: I M A 2
;
_chemical_formula_sum "Si O2"
_cell_formula_units_Z 64
_cell_length_a 15.317356
_cell_length_b 9.591920
_cell_length_c 22.304617
_cell_angle_alpha 90.000000
_cell_angle_beta 90.000000
_cell_angle_gamma 90.000000
_cell_volume 3277.057973
_symmetry_space_group_name_H-M "I M A 2"
_symmetry_group_IT_number 46
_symmetry_cell_setting 'orthorhombic'
loop_
_space_group_symop_operation_xyz
x,y,z
-x,-y,z
1/2-x,y,z
1/2+x,-y,z
1/2+x,1/2+y,1/2+z
1/2-x,1/2-y,1/2+z
-x,1/2+y,1/2+z
x,1/2-y,1/2+z
loop_
_atom_site_type_symbol
_atom_site_label
_atom_site_fract_x
_atom_site_fract_y
_atom_site_fract_z
Si Si1 0.353713 0.164882 0.206890
Si Si2 0.647869 0.905473 0.624718
Si Si3 0.346824 0.369242 0.319090
Si Si4 0.150042 0.852326 0.396159
Si Si5 0.984945 0.656719 0.425174
Si Si6 0.088661 0.920796 0.731074
Si Si7 0.590553 0.919629 0.490088
Si Si8 0.645357 0.378346 0.756317
O O1 0.250000 0.146782 0.195458
O O2 0.390019 0.263651 0.154476
O O3 0.360628 0.251379 0.268587
O O4 0.387110 0.011151 0.219313
O O5 0.750000 0.905595 0.638773
O O6 0.635912 0.914431 0.554291
O O7 0.610487 0.032500 0.663619
O O8 0.250000 0.350139 0.346149
O O9 0.424145 0.363149 0.366667
O O10 0.347606 0.511903 0.280677
O O11 0.250000 0.800167 0.401652
O O12 0.136200 0.901005 0.327646
O O13 0.076670 0.735317 0.410532
O O14 0.138069 0.984996 0.440207
O O15 0.932149 0.765438 0.466604
O O16 0.000000 0.500000 0.449404
O O17 0.091812 0.757503 0.738568
O O18 0.000000 0.000000 0.745931
O O19 0.500000 0.000000 0.500039
O O20 0.750000 0.355711 0.745492
#
# Coordination Sequence:
#
# PCOD9378259 Si02
#       8
#     8   8   8   8   8   8   8   8
#     4   8  17  32  53  82 112 142 181 229 277 332
#     4  10  20  38  59  78 105 146 194 237 286 349
#     4  10  19  34  56  84 120 159 194 229 283 354
#     4  10  21  38  61  88 119 157 197 239 290 354
#     4  11  23  38  58  87 120 151 193 248 301 355
#     4  11  21  34  54  82 116 153 192 234 287 348
#     4  10  22  40  60  81 110 151 198 241 288 352
#     4  10  18  32  55  84 114 141 178 229 284 336
#
# _framework density 19.529713000000001
#
# number of rings (size 3 to 8) (size 9 to 14) (size 15 to 20)
#    0.000    2.000    0.000    5.250    0.000    3.500 
#    0.000    8.750    0.000    1.500    0.000    0.000 
#    0.000    0.000    0.000    0.000    0.000    0.000 
#
# Total GULP energy -178599.457633 kJ/mol
# GULP energy per Si atom -5581.233051 kJ/mol
# Density = 1.948526 g / cm^3
# Si number density = 19.529713 Si / 1000 Ang^3
#
#
#
# Elastic Constant Matrix: (Units=GPa)
#
#
# Indices 1 2 3 4 5 6 
#
# 1 68.8952 14.4083 18.6721 0.0000 0.0000 0.0000
# 2 14.4083 144.1402 49.9322 0.0000 0.0000 0.0000
# 3 18.6721 49.9322 92.2620 0.0000 0.0000 0.0000
# 4 0.0000 0.0000 0.0000 11.6053 0.0000 0.0000
# 5 0.0000 0.0000 0.0000 0.0000 47.0231 0.0000
# 6 0.0000 0.0000 0.0000 0.0000 0.0000 14.3402
#
#
#
# Elastic Compliance Matrix: (Units=1/GPa)
#
#
# Indices 1 2 3 4 5 6 
#
# 1 0.015395 -0.000566 -0.002809 0.000000 0.000000 0.000000
# 2 -0.000566 0.008559 -0.004518 0.000000 0.000000 0.000000
# 3 -0.002809 -0.004518 0.013852 0.000000 0.000000 0.000000
# 4 0.000000 0.000000 0.000000 0.086168 0.000000 0.000000
# 5 0.000000 0.000000 0.000000 0.000000 0.021266 0.000000
# 6 0.000000 0.000000 0.000000 0.000000 0.000000 0.069734
#
#
# Mechanical properties :
#
#
# Convention : Reuss Voigt Hill
#
# Bulk Modulus (GPa) = 45.41252 52.36918 48.89085
# Shear Modulus (GPa) = 20.99960 29.41271 25.20616
#
# Velocity S-wave (km/s) = 3.28268 3.88500 3.59647
# Velocity P-wave (km/s) = 6.13771 6.85548 6.50650
#
# Compressibility (1/GPa) = 0.02202036
#
# Stress axis : x y z
#
# Youngs Moduli (GPa) = 64.95824 116.83260 72.19016
#
# Poissons Ratio (x) = 0.06608 0.20281
# Poissons Ratio (y) = 0.03674 0.32614
# Poissons Ratio (z) = 0.18250 0.52783
#
# Static dielectric constant tensor:
#      x y z
#    x 1.734760 0.000000 0.000000 
#    y 0.000000 1.708390 0.000000 
#    z 0.000000 0.000000 1.663550 
# 
# From -- ./inp_files/23706.got.cif
#   From: 2010.05.17/outbox.cif.g08.bks.cpg/sg46_12_cif.got.tgz:23706.got - 2010.06.03 19:58:25.
