data_PCOD9378075
_publ_section_title
;
Structure prediction by ZEFSAII (Michael W. Deem and Ramdas Pophale) SiO2 
 PCOD9378075
Probable space group: I M A 2
;
_chemical_formula_sum "Si O2"
_cell_formula_units_Z 64
_cell_length_a 15.608715
_cell_length_b 9.701502
_cell_length_c 22.742339
_cell_angle_alpha 90.000000
_cell_angle_beta 90.000000
_cell_angle_gamma 90.000000
_cell_volume 3443.826450
_symmetry_space_group_name_H-M "I M A 2"
_symmetry_group_IT_number 46
_symmetry_cell_setting 'orthorhombic'
loop_
_space_group_symop_operation_xyz
x,y,z
-x,-y,z
1/2-x,y,z
1/2+x,-y,z
1/2+x,1/2+y,1/2+z
1/2-x,1/2-y,1/2+z
-x,1/2+y,1/2+z
x,1/2-y,1/2+z
loop_
_atom_site_type_symbol
_atom_site_label
_atom_site_fract_x
_atom_site_fract_y
_atom_site_fract_z
Si Si1 0.851686 0.617043 0.127540
Si Si2 0.089078 0.074284 0.312044
Si Si3 0.080481 0.599694 0.220802
Si Si4 0.033218 0.352899 0.683883
Si Si5 0.852992 0.103263 0.852216
Si Si6 0.347584 0.620675 0.901107
Si Si7 0.854368 0.809640 0.896679
Si Si8 0.145638 0.400667 0.993199
O O1 0.750000 0.644489 0.128824
O O2 0.870202 0.485898 0.169986
O O3 0.904233 0.752125 0.147872
O O4 0.879890 0.587093 0.060621
O O5 0.154960 0.967847 0.340968
O O6 0.084044 0.103459 0.243199
O O7 0.105681 0.215334 0.345842
O O8 0.000000 0.000000 0.327378
O O9 0.127369 0.609026 0.283078
O O10 0.000000 0.500000 0.232257
O O11 0.045363 0.750091 0.201590
O O12 0.000000 0.500000 0.658562
O O13 0.750000 0.107408 0.857066
O O14 0.890496 0.235772 0.885352
O O15 0.882064 0.964079 0.883608
O O16 0.250000 0.647936 0.919952
O O17 0.386459 0.524772 0.951653
O O18 0.750000 0.802295 0.891490
O O19 0.877468 0.740024 0.958908
O O20 0.250000 0.405276 0.992367
#
# Coordination Sequence:
#
# PCOD9378075 Si02
#       8
#     8   8   8   8   8   8   8   8
#     4  10  20  36  58  78  99 137 188 224 251 307
#     4  10  18  30  48  71  97 132 169 199 242 306
#     4  10  20  34  52  74 106 142 172 211 263 314
#     4  10  21  36  53  75 109 143 171 214 273 318
#     4  10  18  29  50  80 106 128 162 208 258 311
#     4   9  18  32  51  75 104 133 162 204 256 307
#     4   9  17  30  50  75 103 130 161 208 259 302
#     4   8  16  33  53  72  96 131 173 212 251 299
#
# _framework density 18.583978999999999
#
# number of rings (size 3 to 8) (size 9 to 14) (size 15 to 20)
#    0.000    2.500    0.000    4.500    0.000    2.000 
#    0.000   10.000    0.000    6.750    0.000    0.000 
#    0.000    0.000    0.000    0.000    0.000    0.000 
#
# Total GULP energy -178254.194356 kJ/mol
# GULP energy per Si atom -5570.443574 kJ/mol
# Density = 1.854168 g / cm^3
# Si number density = 18.583979 Si / 1000 Ang^3
#
#
#
# Elastic Constant Matrix: (Units=GPa)
#
#
# Indices 1 2 3 4 5 6 
#
# 1 27.6335 20.2875 18.8614 0.0000 0.0000 0.0000
# 2 20.2875 177.0172 69.0381 0.0000 0.0000 0.0000
# 3 18.8614 69.0381 125.2659 0.0000 0.0000 0.0000
# 4 0.0000 0.0000 0.0000 12.4912 0.0000 0.0000
# 5 0.0000 0.0000 0.0000 0.0000 1.0260 0.0000
# 6 0.0000 0.0000 0.0000 0.0000 0.0000 21.3870
#
#
#
# Elastic Compliance Matrix: (Units=1/GPa)
#
#
# Indices 1 2 3 4 5 6 
#
# 1 0.041512 -0.002955 -0.004622 0.000000 0.000000 0.000000
# 2 -0.002955 0.007406 -0.003637 0.000000 0.000000 0.000000
# 3 -0.004622 -0.003637 0.010683 0.000000 0.000000 0.000000
# 4 0.000000 0.000000 0.000000 0.080057 0.000000 0.000000
# 5 0.000000 0.000000 0.000000 0.000000 0.974681 0.000000
# 6 0.000000 0.000000 0.000000 0.000000 0.000000 0.046757
#
#
# Mechanical properties :
#
#
# Convention : Reuss Voigt Hill
#
# Bulk Modulus (GPa) = 26.90044 60.69893 43.79969
# Shear Modulus (GPa) = 4.18090 21.76281 12.97185
#
# Velocity S-wave (km/s) = 1.50154 3.42578 2.64486
# Velocity P-wave (km/s) = 4.18481 6.95563 5.73992
#
# Compressibility (1/GPa) = 0.03717411
#
# Stress axis : x y z
#
# Youngs Moduli (GPa) = 24.08935 135.02112 93.60361
#
# Poissons Ratio (x) = 0.39899 0.43263
# Poissons Ratio (y) = 0.07118 0.34043
# Poissons Ratio (z) = 0.11134 0.49106
#
# Static dielectric constant tensor:
#      x y z
#    x 1.703440 0.000000 0.000000 
#    y 0.000000 1.677290 0.000000 
#    z 0.000000 0.000000 1.630300 
# 
# From -- ./inp_files/23806.got.cif
#   From: 2010.05.17/outbox.cif.g08.bks.cpg/sg46_12_cif.got.tgz:23806.got - 2010.06.03 19:58:25.
