data_PCOD9378672
_publ_section_title
;
Structure prediction by ZEFSAII (Michael W. Deem and Ramdas Pophale) SiO2 
 PCOD9378672
Probable space group: I M A 2
;
_chemical_formula_sum "Si O2"
_cell_formula_units_Z 56
_cell_length_a 9.126600
_cell_length_b 14.346224
_cell_length_c 23.275077
_cell_angle_alpha 90.000000
_cell_angle_beta 90.000000
_cell_angle_gamma 90.000000
_cell_volume 3047.458153
_symmetry_space_group_name_H-M "I M A 2"
_symmetry_group_IT_number 46
_symmetry_cell_setting 'orthorhombic'
loop_
_space_group_symop_operation_xyz
x,y,z
-x,-y,z
1/2-x,y,z
1/2+x,-y,z
1/2+x,1/2+y,1/2+z
1/2-x,1/2-y,1/2+z
-x,1/2+y,1/2+z
x,1/2-y,1/2+z
loop_
_atom_site_type_symbol
_atom_site_label
_atom_site_fract_x
_atom_site_fract_y
_atom_site_fract_z
Si Si1 0.073096 0.591871 0.490060
Si Si2 0.584629 0.359644 0.078519
Si Si3 0.576197 0.592178 0.190860
Si Si4 0.426110 0.101060 0.344751
Si Si5 0.084896 0.857360 0.114959
Si Si6 0.425293 0.200259 0.225385
Si Si7 0.926485 0.199004 0.452563
O O1 0.250000 0.584325 0.489987
O O2 0.023558 0.598045 0.556849
O O3 0.036603 0.691554 0.461722
O O4 0.000000 0.500000 0.463815
O O5 0.750000 0.399158 0.084408
O O6 0.472909 0.401368 0.124140
O O7 0.595057 0.251245 0.096819
O O8 0.540381 0.356480 0.011878
O O9 0.500000 0.500000 0.215611
O O10 0.750000 0.584036 0.195586
O O11 0.528986 0.691011 0.218755
O O12 0.250000 0.092812 0.348208
O O13 0.464057 0.157202 0.286633
O O14 0.488741 0.155482 0.399582
O O15 0.500000 0.000000 0.342624
O O16 0.250000 0.892198 0.125383
O O17 0.993342 0.858644 0.173046
O O18 0.250000 0.198721 0.219212
O O19 0.750000 0.193176 0.444880
#
# Coordination Sequence:
#
# PCOD9378672 Si02
#       7
#     8   8   8   8   8   8   8
#     4   9  18  32  52  81 114 144 175 213 259 314
#     4   8  15  30  51  74 102 135 170 209 253 300
#     4  10  19  32  52  79 109 139 172 209 255 312
#     4  11  24  41  59  78 101 133 176 223 269 316
#     4   8  15  29  50  75 103 136 171 208 252 301
#     4   9  20  37  54  75 105 138 174 218 261 306
#     4   9  19  37  57  78 107 141 179 222 264 309
#
# _framework density 18.375969000000001
#
# number of rings (size 3 to 8) (size 9 to 14) (size 15 to 20)
#    0.000    2.857    0.000    2.571    0.000    4.571 
#    0.000    6.429    0.000    3.429    0.000    0.000 
#    0.000    0.000    0.000    0.000    0.000    0.000 
#
# Total GULP energy -156050.029304 kJ/mol
# GULP energy per Si atom -5573.215332 kJ/mol
# Density = 1.833414 g / cm^3
# Si number density = 18.375969 Si / 1000 Ang^3
#
#
#
# Elastic Constant Matrix: (Units=GPa)
#
#
# Indices 1 2 3 4 5 6 
#
# 1 36.8151 44.1803 47.6667 0.0000 0.0000 0.0000
# 2 44.1803 119.2551 57.0819 0.0000 0.0000 0.0000
# 3 47.6667 57.0819 131.7016 0.0000 0.0000 0.0000
# 4 0.0000 0.0000 0.0000 17.5932 0.0000 0.0000
# 5 0.0000 0.0000 0.0000 0.0000 22.0367 0.0000
# 6 0.0000 0.0000 0.0000 0.0000 0.0000 26.3679
#
#
#
# Elastic Compliance Matrix: (Units=1/GPa)
#
#
# Indices 1 2 3 4 5 6 
#
# 1 0.072940 -0.018152 -0.018532 0.000000 0.000000 0.000000
# 2 -0.018152 0.015098 0.000026 0.000000 0.000000 0.000000
# 3 -0.018532 0.000026 0.014289 0.000000 0.000000 0.000000
# 4 0.000000 0.000000 0.000000 0.056840 0.000000 0.000000
# 5 0.000000 0.000000 0.000000 0.000000 0.045379 0.000000
# 6 0.000000 0.000000 0.000000 0.000000 0.000000 0.037925
#
#
# Mechanical properties :
#
#
# Convention : Reuss Voigt Hill
#
# Bulk Modulus (GPa) = 34.46907 65.06995 49.76951
# Shear Modulus (GPa) = 15.36307 22.45575 18.90941
#
# Velocity S-wave (km/s) = 2.89457 3.49953 3.21133
# Velocity P-wave (km/s) = 5.47447 7.19834 6.39476
#
# Compressibility (1/GPa) = 0.02901152
#
# Stress axis : x y z
#
# Youngs Moduli (GPa) = 13.70988 66.23602 69.98456
#
# Poissons Ratio (x) = 1.20229 1.29695
# Poissons Ratio (y) = 0.24886 -0.00182
# Poissons Ratio (z) = 0.25407 -0.00173
#
# Static dielectric constant tensor:
#      x y z
#    x 1.629180 0.000000 0.000000 
#    y 0.000000 1.664380 0.000000 
#    z 0.000000 0.000000 1.616890 
# 
# From -- ./inp_files/21126.got.cif
#   From: 2010.05.17/outbox.cif.g08.bks.cpg/sg46_11_cif.got.tgz:21126.got - 2010.06.03 19:58:25.
