data_PCOD9378997
_publ_section_title
;
Structure prediction by ZEFSAII (Michael W. Deem and Ramdas Pophale) SiO2 
 PCOD9378997
Probable space group: I M A 2
;
_chemical_formula_sum "Si O2"
_cell_formula_units_Z 64
_cell_length_a 8.515143
_cell_length_b 29.077338
_cell_length_c 14.621404
_cell_angle_alpha 90.000000
_cell_angle_beta 90.000000
_cell_angle_gamma 90.000000
_cell_volume 3620.225871
_symmetry_space_group_name_H-M "I M A 2"
_symmetry_group_IT_number 46
_symmetry_cell_setting 'orthorhombic'
loop_
_space_group_symop_operation_xyz
x,y,z
-x,-y,z
1/2-x,y,z
1/2+x,-y,z
1/2+x,1/2+y,1/2+z
1/2-x,1/2-y,1/2+z
-x,1/2+y,1/2+z
x,1/2-y,1/2+z
loop_
_atom_site_type_symbol
_atom_site_label
_atom_site_fract_x
_atom_site_fract_y
_atom_site_fract_z
Si Si1 0.560438 0.051532 0.943480
Si Si2 0.936767 0.696009 0.943480
Si Si3 0.558928 0.374337 0.296326
Si Si4 0.559882 0.200927 0.943480
Si Si5 0.941072 0.125663 0.090635
Si Si6 0.060998 0.624245 0.086806
Si Si7 0.562702 0.551721 0.943480
Si Si8 0.439002 0.624245 0.800155
O O1 0.750000 0.050830 0.943480
O O2 0.509538 0.081130 0.854931
O O3 0.500000 0.000000 0.943480
O O4 0.509538 0.081130 0.032029
O O5 0.750000 0.691705 0.943481
O O6 0.987841 0.748781 0.943480
O O7 0.004157 0.668832 0.855857
O O8 0.004158 0.668832 0.031103
O O9 0.750000 0.374568 0.295428
O O10 0.513465 0.329455 0.354997
O O11 0.506289 0.374810 0.191763
O O12 0.750000 0.204680 0.943480
O O13 0.513465 0.170545 0.031964
O O14 0.750000 0.125432 0.091532
O O15 0.993711 0.125190 0.195198
O O16 0.250000 0.623060 0.084807
O O17 0.997936 0.580347 0.031127
O O18 0.500000 0.500000 0.943480
O O19 0.750000 0.551780 0.943480
O O20 0.502063 0.580347 0.855833
O O21 0.250000 0.623060 0.802154
#
# Coordination Sequence:
#
# PCOD9378997 Si02
#       8
#     8   8   8   8   8   8   8   8
#     4   9  17  33  52  76 105 133 163 203 248 298
#     4  11  22  35  49  74 107 137 167 211 260 304
#     4   8  17  33  55  77 101 131 170 211 250 296
#     4   9  17  35  57  76  99 135 174 209 247 302
#     4   8  17  33  55  77 101 131 170 211 250 296
#     4  10  19  35  56  78 101 133 172 212 253 302
#     4  11  22  37  54  76 104 137 171 211 256 302
#     4  10  19  35  56  78 101 133 172 212 253 302
#
# _framework density 17.678456000000001
#
# number of rings (size 3 to 8) (size 9 to 14) (size 15 to 20)
#    0.000    2.500    0.000    6.000    0.000    2.000 
#    0.000   15.000    0.000    0.000    0.000    0.000 
#    0.000    0.000    0.000    0.000    0.000    0.000 
#
# Total GULP energy -178525.006894 kJ/mol
# GULP energy per Si atom -5578.906465 kJ/mol
# Density = 1.763822 g / cm^3
# Si number density = 17.678456 Si / 1000 Ang^3
#
#
#
# Elastic Constant Matrix: (Units=GPa)
#
#
# Indices 1 2 3 4 5 6 
#
# 1 67.7839 40.6160 40.4869 0.0000 0.0000 0.0000
# 2 40.6160 189.3889 106.1875 -0.0001 0.0000 0.0000
# 3 40.4869 106.1875 204.3495 -0.0005 0.0001 0.0000
# 4 0.0000 -0.0001 -0.0005 4.8274 0.0001 0.0000
# 5 0.0000 0.0000 0.0001 0.0001 -1.6375 0.0000
# 6 0.0000 0.0000 0.0000 0.0000 0.0000 32.9620
#
#
#
# Elastic Compliance Matrix: (Units=1/GPa)
#
#
# Indices 1 2 3 4 5 6 
#
# 1 0.017573 -0.002563 -0.002150 0.000000 0.000000 0.000000
# 2 -0.002563 0.007825 -0.003558 0.000000 0.000000 0.000000
# 3 -0.002150 -0.003558 0.007168 0.000001 0.000001 0.000000
# 4 0.000000 0.000000 0.000001 0.207150 0.000008 0.000000
# 5 0.000000 0.000000 0.000001 0.000008 -0.610694 -0.000001
# 6 0.000000 0.000000 0.000000 0.000000 -0.000001 0.030338
#
#
# Mechanical properties :
#
#
# Convention : Reuss Voigt Hill
#
# Bulk Modulus (GPa) = 62.40772 92.90034 77.65403
# Shear Modulus (GPa) = -15.68598 25.51252 4.91327
#
# Velocity S-wave (km/s) = -2.98198 3.80299 1.66891
# Velocity P-wave (km/s) = 4.84994 8.48220 6.90904
#
# Compressibility (1/GPa) = 0.01602366
#
# Stress axis : x y z
#
# Youngs Moduli (GPa) = 56.90660 127.79668 139.49988
#
# Poissons Ratio (x) = 0.32759 0.29987
# Poissons Ratio (y) = 0.14587 0.49638
# Poissons Ratio (z) = 0.12233 0.45473
#
# Static dielectric constant tensor:
#      x y z
#    x 1.602330 0.000000 0.000000 
#    y 0.000000 1.569380 0.000000 
#    z 0.000000 0.000000 1.602670 
# 
# From -- ./inp_files/14759.got.cif
#   From: 2010.05.17/outbox.cif.g08.bks.cpg/sg46_8_cif.got.tgz:14759.got - 2010.06.03 19:58:25.
