data_PCOD9378226
_publ_section_title
;
Structure prediction by ZEFSAII (Michael W. Deem and Ramdas Pophale) SiO2 
 PCOD9378226
Probable space group: I M A 2
;
_chemical_formula_sum "Si O2"
_cell_formula_units_Z 64
_cell_length_a 8.648788
_cell_length_b 19.215059
_cell_length_c 22.126747
_cell_angle_alpha 90.000000
_cell_angle_beta 90.000000
_cell_angle_gamma 90.000000
_cell_volume 3677.177077
_symmetry_space_group_name_H-M "I M A 2"
_symmetry_group_IT_number 46
_symmetry_cell_setting 'orthorhombic'
loop_
_space_group_symop_operation_xyz
x,y,z
-x,-y,z
1/2-x,y,z
1/2+x,-y,z
1/2+x,1/2+y,1/2+z
1/2-x,1/2-y,1/2+z
-x,1/2+y,1/2+z
x,1/2-y,1/2+z
loop_
_atom_site_type_symbol
_atom_site_label
_atom_site_fract_x
_atom_site_fract_y
_atom_site_fract_z
Si Si1 0.435152 0.573887 0.509480
Si Si2 0.435379 0.722821 0.933020
Si Si3 0.928628 0.927531 0.571514
Si Si4 0.064246 0.135222 0.886212
Si Si5 0.930142 0.178106 0.656727
Si Si6 0.572666 0.573819 0.925839
Si Si7 0.565597 0.576498 0.256213
Si Si8 0.438026 0.718385 0.563521
O O1 0.500000 0.500000 0.529179
O O2 0.250000 0.571846 0.506758
O O3 0.498054 0.592682 0.442946
O O4 0.481709 0.638661 0.551743
O O5 0.250000 0.726702 0.932495
O O6 0.503085 0.785907 0.893419
O O7 0.487635 0.646412 0.911793
O O8 0.488167 0.740130 0.002445
O O9 0.750000 0.917893 0.591494
O O10 0.928790 0.927955 0.499152
O O11 0.042798 0.870875 0.598526
O O12 0.000000 0.000000 0.592688
O O13 0.250000 0.135644 0.889207
O O14 0.015867 0.099897 0.823408
O O15 0.750000 0.184445 0.672150
O O16 0.991261 0.250018 0.627516
O O17 0.013521 0.136831 0.710056
O O18 0.500000 0.500000 0.905727
O O19 0.750000 0.577500 0.905738
O O20 0.500000 0.500000 0.241542
O O21 0.750000 0.571680 0.254907
O O22 0.250000 0.722722 0.564309
#
# Coordination Sequence:
#
# PCOD9378226 Si02
#       8
#     8   8   8   8   8   8   8   8
#     4  10  19  33  53  79 106 133 165 206 258 310
#     4  10  18  32  52  74 102 132 169 213 262 314
#     4  10  19  29  42  63  92 129 167 204 241 288
#     4  10  21  36  54  75 101 134 174 217 261 308
#     4  11  20  33  51  69  96 133 172 211 252 299
#     4  10  19  29  44  68  99 134 170 207 250 302
#     4  11  24  39  53  73 102 137 178 219 255 300
#     4   8  17  31  48  71  99 130 163 203 250 305
#
# _framework density 17.404655000000002
#
# number of rings (size 3 to 8) (size 9 to 14) (size 15 to 20)
#    0.000    2.000    1.250    4.125    0.000    4.000 
#    0.000    1.875    0.000    0.000    0.000    0.875 
#    0.000    4.000    0.000    0.000    0.000    0.125 
#
# Total GULP energy -178395.327487 kJ/mol
# GULP energy per Si atom -5574.853984 kJ/mol
# Density = 1.736504 g / cm^3
# Si number density = 17.404655 Si / 1000 Ang^3
#
#
#
# Elastic Constant Matrix: (Units=GPa)
#
#
# Indices 1 2 3 4 5 6 
#
# 1 48.1215 25.0691 14.5071 0.0000 0.0000 0.0000
# 2 25.0691 132.9562 37.9156 0.0000 0.0000 0.0000
# 3 14.5071 37.9156 63.2698 0.0000 0.0000 0.0000
# 4 0.0000 0.0000 0.0000 17.0274 0.0000 0.0000
# 5 0.0000 0.0000 0.0000 0.0000 15.9018 0.0000
# 6 0.0000 0.0000 0.0000 0.0000 0.0000 28.7528
#
#
#
# Elastic Compliance Matrix: (Units=1/GPa)
#
#
# Indices 1 2 3 4 5 6 
#
# 1 0.023606 -0.003507 -0.003311 0.000000 0.000000 0.000000
# 2 -0.003507 0.009592 -0.004944 0.000000 0.000000 0.000000
# 3 -0.003311 -0.004944 0.019528 0.000000 0.000000 0.000000
# 4 0.000000 0.000000 0.000000 0.058729 0.000000 0.000000
# 5 0.000000 0.000000 0.000000 0.000000 0.062886 0.000000
# 6 0.000000 0.000000 0.000000 0.000000 0.000000 0.034779
#
#
# Mechanical properties :
#
#
# Convention : Reuss Voigt Hill
#
# Bulk Modulus (GPa) = 34.24496 44.37011 39.30753
# Shear Modulus (GPa) = 20.62892 23.46010 22.04451
#
# Velocity S-wave (km/s) = 3.44649 3.67539 3.56278
# Velocity P-wave (km/s) = 5.96290 6.59999 6.28952
#
# Compressibility (1/GPa) = 0.02920138
#
# Stress axis : x y z
#
# Youngs Moduli (GPa) = 42.36265 104.24830 51.20970
#
# Poissons Ratio (x) = 0.36556 0.16956
# Poissons Ratio (y) = 0.14855 0.25320
# Poissons Ratio (z) = 0.14027 0.51545
#
# Static dielectric constant tensor:
#      x y z
#    x 1.597680 0.000000 0.000000 
#    y 0.000000 1.637830 0.000000 
#    z 0.000000 0.000000 1.593720 
# 
# From -- ./inp_files/21343.got.cif
#   From: 2010.05.17/outbox.cif.g08.bks.cpg/sg46_11_cif.got.tgz:21343.got - 2010.06.03 19:58:25.
