data_PCOD9378909
_publ_section_title
;
Structure prediction by ZEFSAII (Michael W. Deem and Ramdas Pophale) SiO2 
 PCOD9378909
Probable space group: I M A 2
;
_chemical_formula_sum "Si O2"
_cell_formula_units_Z 48
_cell_length_a 8.579014
_cell_length_b 9.469753
_cell_length_c 32.202539
_cell_angle_alpha 90.000000
_cell_angle_beta 90.000000
_cell_angle_gamma 90.000000
_cell_volume 2616.171094
_symmetry_space_group_name_H-M "I M A 2"
_symmetry_group_IT_number 46
_symmetry_cell_setting 'orthorhombic'
loop_
_space_group_symop_operation_xyz
x,y,z
-x,-y,z
1/2-x,y,z
1/2+x,-y,z
1/2+x,1/2+y,1/2+z
1/2-x,1/2-y,1/2+z
-x,1/2+y,1/2+z
x,1/2-y,1/2+z
loop_
_atom_site_type_symbol
_atom_site_label
_atom_site_fract_x
_atom_site_fract_y
_atom_site_fract_z
Si Si1 0.436024 0.658080 0.025370
Si Si2 0.562075 0.660289 0.601233
Si Si3 0.937369 0.840294 0.191860
Si Si4 0.061930 0.339081 0.783085
Si Si5 0.563662 0.840702 0.435954
Si Si6 0.563846 0.341255 0.359743
O O1 0.500000 0.500000 0.031540
O O2 0.250000 0.655026 0.022661
O O3 0.491207 0.752621 0.063555
O O4 0.504801 0.707941 0.981227
O O5 0.500000 0.500000 0.599215
O O6 0.750000 0.660155 0.598355
O O7 0.515765 0.720756 0.646991
O O8 0.750000 0.844368 0.191833
O O9 0.984184 0.782211 0.236996
O O10 0.000000 0.000000 0.191722
O O11 0.250000 0.341509 0.786048
O O12 0.000000 0.500000 0.786896
O O13 0.993074 0.243792 0.819294
O O14 0.750000 0.844676 0.435387
O O15 0.500903 0.740615 0.399892
O O16 0.500000 0.000000 0.429693
O O17 0.500000 0.500000 0.358773
O O18 0.750000 0.342753 0.361084
#
# Coordination Sequence:
#
# PCOD9378909 Si02
#       6
#     8   8   8   8   8   8
#     4  11  22  38  58  83 112 146 184 228 275 326
#     4  10  19  34  55  83 114 148 186 229 275 325
#     4   8  16  30  52  79 110 143 183 228 271 317
#     4  10  19  35  58  85 112 146 187 229 272 323
#     4  11  22  40  63  86 110 143 183 226 270 324
#     4  12  25  41  58  82 113 146 181 226 278 331
#
# _framework density 18.347424
#
# number of rings (size 3 to 8) (size 9 to 14) (size 15 to 20)
#    0.000    1.667    0.000    7.000    0.000    2.000 
#    0.000    4.167    0.000    0.000    0.000    0.000 
#    0.000    0.000    0.000    0.000    0.000    0.000 
#
# Total GULP energy -133981.082561 kJ/mol
# GULP energy per Si atom -5582.545107 kJ/mol
# Density = 1.830566 g / cm^3
# Si number density = 18.347424 Si / 1000 Ang^3
#
#
#
# Elastic Constant Matrix: (Units=GPa)
#
#
# Indices 1 2 3 4 5 6 
#
# 1 148.1292 45.0186 82.5517 0.0000 0.0000 0.0000
# 2 45.0186 73.9969 97.7314 0.0000 0.0000 0.0000
# 3 82.5517 97.7314 230.5316 0.0000 0.0000 0.0000
# 4 0.0000 0.0000 0.0000 29.7267 0.0000 0.0000
# 5 0.0000 0.0000 0.0000 0.0000 38.2058 0.0000
# 6 0.0000 0.0000 0.0000 0.0000 0.0000 30.5153
#
#
#
# Elastic Compliance Matrix: (Units=1/GPa)
#
#
# Indices 1 2 3 4 5 6 
#
# 1 0.008659 -0.002665 -0.001971 0.000000 0.000000 0.000000
# 2 -0.002665 0.031528 -0.012412 0.000000 0.000000 0.000000
# 3 -0.001971 -0.012412 0.010305 0.000000 0.000000 0.000000
# 4 0.000000 0.000000 0.000000 0.033640 0.000000 0.000000
# 5 0.000000 0.000000 0.000000 0.000000 0.026174 0.000000
# 6 0.000000 0.000000 0.000000 0.000000 0.000000 0.032770
#
#
# Mechanical properties :
#
#
# Convention : Reuss Voigt Hill
#
# Bulk Modulus (GPa) = 60.98497 100.36237 80.67367
# Shear Modulus (GPa) = 27.37649 34.84661 31.11155
#
# Velocity S-wave (km/s) = 3.86698 4.36278 4.12234
# Velocity P-wave (km/s) = 7.29721 8.95535 8.16846
#
# Compressibility (1/GPa) = 0.01639748
#
# Stress axis : x y z
#
# Youngs Moduli (GPa) = 115.48387 31.71763 97.03585
#
# Poissons Ratio (x) = 0.08452 0.19126
# Poissons Ratio (y) = 0.30775 1.20439
# Poissons Ratio (z) = 0.22763 0.39367
#
# Static dielectric constant tensor:
#      x y z
#    x 1.611560 0.000000 0.000000 
#    y 0.000000 1.585900 0.000000 
#    z 0.000000 0.000000 1.664440 
# 
# From -- ./inp_files/24991.got.cif
#   From: 2010.05.17/outbox.cif.g08.bks.cpg/sg46_13_cif.got.tgz:24991.got - 2010.06.03 19:58:25.
