data_PCOD9378152
_publ_section_title
;
Structure prediction by ZEFSAII (Michael W. Deem and Ramdas Pophale) SiO2 
 PCOD9378152
Probable space group: I M A 2
;
_chemical_formula_sum "Si O2"
_cell_formula_units_Z 56
_cell_length_a 26.629588
_cell_length_b 21.770756
_cell_length_c 5.352074
_cell_angle_alpha 90.000000
_cell_angle_beta 90.000000
_cell_angle_gamma 90.000000
_cell_volume 3102.844899
_symmetry_space_group_name_H-M "I M A 2"
_symmetry_group_IT_number 46
_symmetry_cell_setting 'orthorhombic'
loop_
_space_group_symop_operation_xyz
x,y,z
-x,-y,z
1/2-x,y,z
1/2+x,-y,z
1/2+x,1/2+y,1/2+z
1/2-x,1/2-y,1/2+z
-x,1/2+y,1/2+z
x,1/2-y,1/2+z
loop_
_atom_site_type_symbol
_atom_site_label
_atom_site_fract_x
_atom_site_fract_y
_atom_site_fract_z
Si Si1 0.844379 0.674202 0.643890
Si Si2 0.404927 0.073052 0.269215
Si Si3 0.558358 0.987057 0.769074
Si Si4 0.192069 0.989627 0.248312
Si Si5 0.693420 0.690245 0.146413
Si Si6 0.809630 0.289919 0.247662
Si Si7 0.153175 0.925496 0.749457
O O1 0.896985 0.645080 0.718949
O O2 0.827822 0.650409 0.372485
O O3 0.838962 0.747643 0.616070
O O4 0.808520 0.659826 0.877427
O O5 0.424720 0.057146 0.542308
O O6 0.349328 0.043289 0.246558
O O7 0.435228 0.042841 0.042464
O O8 0.500000 0.000000 0.730007
O O9 0.596931 0.045075 0.754666
O O10 0.250000 0.009243 0.250055
O O11 0.179875 0.950887 0.498800
O O12 0.180833 0.950434 0.998191
O O13 0.750000 0.707989 0.214966
O O14 0.750000 0.306769 0.247613
O O15 0.818722 0.249953 0.497542
O O16 0.842019 0.352078 0.248021
#
# Coordination Sequence:
#
# PCOD9378152 Si02
#       7
#     8   8   8   8   8   8   8
#     4  10  18  31  46  69 100 134 174 223 253 296
#     4  10  21  34  52  80 103 130 172 221 265 313
#     4  10  21  39  59  79  99 128 180 222 276 321
#     4  10  19  30  47  72 108 142 164 195 253 315
#     4  10  19  30  47  71 103 150 187 205 242 299
#     4  10  19  30  48  76 105 140 173 197 237 302
#     4  10  20  34  51  75 104 138 169 213 254 299
#
# _framework density 18.047955000000002
#
# number of rings (size 3 to 8) (size 9 to 14) (size 15 to 20)
#    0.000    2.000    0.000    5.571    0.000    2.857 
#    0.000    0.000    0.000    0.000   22.286    0.000 
#    0.000    0.000    0.000    0.000    0.000    0.000 
#
# Total GULP energy -156027.656446 kJ/mol
# GULP energy per Si atom -5572.416302 kJ/mol
# Density = 1.800688 g / cm^3
# Si number density = 18.047955 Si / 1000 Ang^3
#
#
#
# Elastic Constant Matrix: (Units=GPa)
#
#
# Indices 1 2 3 4 5 6 
#
# 1 77.9613 12.5436 5.4007 0.0000 0.0000 0.0000
# 2 12.5436 55.3539 5.4121 0.0000 0.0000 0.0000
# 3 5.4007 5.4121 118.8813 0.0000 0.0000 0.0000
# 4 0.0000 0.0000 0.0000 18.5959 0.0000 0.0000
# 5 0.0000 0.0000 0.0000 0.0000 17.6983 0.0000
# 6 0.0000 0.0000 0.0000 0.0000 0.0000 523.4447
#
#
#
# Elastic Compliance Matrix: (Units=1/GPa)
#
#
# Indices 1 2 3 4 5 6 
#
# 1 0.013338 -0.002977 -0.000470 0.000000 0.000000 0.000000
# 2 -0.002977 0.018811 -0.000721 0.000000 0.000000 0.000000
# 3 -0.000470 -0.000721 0.008466 0.000000 0.000000 0.000000
# 4 0.000000 0.000000 0.000000 0.053775 0.000000 0.000000
# 5 0.000000 0.000000 0.000000 0.000000 0.056503 0.000000
# 6 0.000000 0.000000 0.000000 0.000000 0.000000 0.001910
#
#
# Mechanical properties :
#
#
# Convention : Reuss Voigt Hill
#
# Bulk Modulus (GPa) = 30.98026 33.21214 32.09620
# Shear Modulus (GPa) = 29.08682 127.20377 78.14530
#
# Velocity S-wave (km/s) = 4.01888 8.40440 6.58731
# Velocity P-wave (km/s) = 6.22398 10.61229 8.69939
#
# Compressibility (1/GPa) = 0.03227861
#
# Stress axis : x y z
#
# Youngs Moduli (GPa) = 74.97160 53.16153 118.12014
#
# Poissons Ratio (x) = 0.15824 0.05557
# Poissons Ratio (y) = 0.22316 0.08518
# Poissons Ratio (z) = 0.03527 0.03834
#
# Static dielectric constant tensor:
#      x y z
#    x 1.606700 0.000000 0.000000 
#    y 0.000000 1.665750 0.000000 
#    z 0.000000 0.000000 1.676600 
# 
# From -- ./inp_files/2368.got.cif
#   From: 2010.05.17/outbox.cif.g08.bks.cpg/sg46_2_cif.got.tgz:2368.got - 2010.06.03 19:58:25.
