data_PCOD9378124
_publ_section_title
;
Structure prediction by ZEFSAII (Michael W. Deem and Ramdas Pophale) SiO2 
 PCOD9378124
Probable space group: I M A 2
;
_chemical_formula_sum "Si O2"
_cell_formula_units_Z 64
_cell_length_a 8.880085
_cell_length_b 23.860286
_cell_length_c 19.728378
_cell_angle_alpha 90.000000
_cell_angle_beta 90.000000
_cell_angle_gamma 90.000000
_cell_volume 4180.075715
_symmetry_space_group_name_H-M "I M A 2"
_symmetry_group_IT_number 46
_symmetry_cell_setting 'orthorhombic'
loop_
_space_group_symop_operation_xyz
x,y,z
-x,-y,z
1/2-x,y,z
1/2+x,-y,z
1/2+x,1/2+y,1/2+z
1/2-x,1/2-y,1/2+z
-x,1/2+y,1/2+z
x,1/2-y,1/2+z
loop_
_atom_site_type_symbol
_atom_site_label
_atom_site_fract_x
_atom_site_fract_y
_atom_site_fract_z
Si Si1 0.431660 0.119713 0.664060
Si Si2 0.068650 0.060837 0.523381
Si Si3 0.929944 0.158528 0.890756
Si Si4 0.069922 0.438893 0.305359
Si Si5 0.431651 0.743931 0.165171
Si Si6 0.569709 0.833697 0.436210
Si Si7 0.568507 0.229443 0.016337
Si Si8 0.569627 0.274793 0.812768
O O1 0.250000 0.125046 0.663414
O O2 0.477089 0.086103 0.596561
O O3 0.475766 0.086589 0.732051
O O4 0.501780 0.181452 0.663967
O O5 0.250000 0.056729 0.523420
O O6 0.024458 0.106311 0.466589
O O7 0.000000 0.000000 0.512870
O O8 0.750000 0.149049 0.888296
O O9 0.972788 0.178408 0.966504
O O10 0.962546 0.212865 0.843567
O O11 0.013561 0.104960 0.861531
O O12 0.250000 0.442647 0.306649
O O13 0.000000 0.500000 0.314402
O O14 0.250000 0.739294 0.167366
O O15 0.478532 0.774286 0.234562
O O16 0.473097 0.774495 0.095092
O O17 0.750000 0.830127 0.437217
O O18 0.503942 0.785426 0.485159
O O19 0.508917 0.819212 0.361772
O O20 0.750000 0.235326 0.011476
O O21 0.750000 0.282493 0.817017
#
# Coordination Sequence:
#
# PCOD9378124 Si02
#       8
#     8   8   8   8   8   8   8   8
#     4  10  20  33  45  66  98 128 162 199 231 272
#     4  10  21  34  47  66  93 127 165 200 235 276
#     4   9  17  31  47  67  95 122 154 197 235 275
#     4  11  22  33  48  67  92 128 166 199 236 278
#     4  10  18  30  50  73  96 128 161 191 233 283
#     4  10  19  31  47  68  95 125 158 198 239 278
#     4   9  18  31  49  71  95 124 157 193 237 284
#     4   9  18  31  48  70  96 124 158 195 234 282
#
# _framework density 15.310727
#
# number of rings (size 3 to 8) (size 9 to 14) (size 15 to 20)
#    0.000    2.250    2.500    1.875    0.000    4.500 
#    0.000    0.000    0.000    0.000    0.000    0.875 
#    0.000    2.000    0.000    0.000    0.000    0.000 
#
# Total GULP energy -178459.877576 kJ/mol
# GULP energy per Si atom -5576.871174 kJ/mol
# Density = 1.527588 g / cm^3
# Si number density = 15.310727 Si / 1000 Ang^3
#
#
#
# Elastic Constant Matrix: (Units=GPa)
#
#
# Indices 1 2 3 4 5 6 
#
# 1 17.6159 33.6744 37.1832 0.0000 0.0000 0.0000
# 2 33.6744 106.0146 80.8577 0.0000 0.0000 0.0000
# 3 37.1832 80.8577 154.4547 0.0000 0.0000 0.0000
# 4 0.0000 0.0000 0.0000 19.7194 0.0000 0.0000
# 5 0.0000 0.0000 0.0000 0.0000 19.8555 0.0000
# 6 0.0000 0.0000 0.0000 0.0000 0.0000 26.1114
#
#
#
# Elastic Compliance Matrix: (Units=1/GPa)
#
#
# Indices 1 2 3 4 5 6 
#
# 1 0.182006 -0.040608 -0.022558 0.000000 0.000000 0.000000
# 2 -0.040608 0.024762 -0.003187 0.000000 0.000000 0.000000
# 3 -0.022558 -0.003187 0.013573 0.000000 0.000000 0.000000
# 4 0.000000 0.000000 0.000000 0.050711 0.000000 0.000000
# 5 0.000000 0.000000 0.000000 0.000000 0.050364 0.000000
# 6 0.000000 0.000000 0.000000 0.000000 0.000000 0.038297
#
#
# Mechanical properties :
#
#
# Convention : Reuss Voigt Hill
#
# Bulk Modulus (GPa) = 11.41073 64.61287 38.01180
# Shear Modulus (GPa) = 9.58530 21.56192 15.57361
#
# Velocity S-wave (km/s) = 2.50482 3.75679 3.19277
# Velocity P-wave (km/s) = 3.97925 7.81733 6.20262
#
# Compressibility (1/GPa) = 0.08763680
#
# Stress axis : x y z
#
# Youngs Moduli (GPa) = 5.49432 40.38415 73.67316
#
# Poissons Ratio (x) = 1.63990 1.66190
# Poissons Ratio (y) = 0.22311 0.23482
# Poissons Ratio (z) = 0.12394 0.12872
#
# Static dielectric constant tensor:
#      x y z
#    x 1.513460 0.000000 0.000000 
#    y 0.000000 1.469340 0.000000 
#    z 0.000000 0.000000 1.533020 
# 
# From -- ./inp_files/21417.got.cif
#   From: 2010.05.17/outbox.cif.g08.bks.cpg/sg46_11_cif.got.tgz:21417.got - 2010.06.03 19:58:25.
