data_PCOD9378200
_publ_section_title
;
Structure prediction by ZEFSAII (Michael W. Deem and Ramdas Pophale) SiO2 
 PCOD9378200
Probable space group: I M A 2
;
_chemical_formula_sum "Si O2"
_cell_formula_units_Z 56
_cell_length_a 14.923022
_cell_length_b 10.849232
_cell_length_c 13.723274
_cell_angle_alpha 90.000000
_cell_angle_beta 90.000000
_cell_angle_gamma 90.000000
_cell_volume 2221.843729
_symmetry_space_group_name_H-M "I M A 2"
_symmetry_group_IT_number 46
_symmetry_cell_setting 'orthorhombic'
loop_
_space_group_symop_operation_xyz
x,y,z
-x,-y,z
1/2-x,y,z
1/2+x,-y,z
1/2+x,1/2+y,1/2+z
1/2-x,1/2-y,1/2+z
-x,1/2+y,1/2+z
x,1/2-y,1/2+z
loop_
_atom_site_type_symbol
_atom_site_label
_atom_site_fract_x
_atom_site_fract_y
_atom_site_fract_z
Si Si1 0.545693 0.271054 0.244110
Si Si2 0.350358 0.712225 0.425304
Si Si3 0.395535 0.996998 0.226220
Si Si4 0.853078 0.824741 0.816860
Si Si5 0.854223 0.476150 0.147773
Si Si6 0.144680 0.993832 0.445239
Si Si7 0.893634 0.531425 0.517156
O O1 0.581409 0.329846 0.343649
O O2 0.611515 0.153067 0.228280
O O3 0.440126 0.255011 0.268597
O O4 0.573120 0.369487 0.163680
O O5 0.250000 0.724195 0.385396
O O6 0.379679 0.849081 0.455308
O O7 0.350120 0.602635 0.501055
O O8 0.380985 0.036492 0.338002
O O9 0.361319 0.063130 0.127924
O O10 0.500000 0.000000 0.211911
O O11 0.750000 0.772408 0.814536
O O12 0.851083 0.940396 0.743142
O O13 0.870489 0.874779 0.928189
O O14 0.750000 0.429850 0.134911
O O15 0.881059 0.550344 0.049176
O O16 0.250000 0.004091 0.441836
O O17 0.000000 0.500000 0.514344
#
# Coordination Sequence:
#
# PCOD9378200 Si02
#       7
#     8   8   8   8   8   8   8
#     4  11  20  37  58  90 120 157 200 257 311 368
#     4  10  18  31  55  86 116 145 181 240 307 363
#     4  10  24  39  58  84 117 165 207 251 310 376
#     4  11  22  36  61  92 122 162 204 252 312 369
#     4  10  19  34  59  91 120 150 196 253 313 374
#     4   9  20  36  55  83 116 149 191 240 303 374
#     4  11  19  35  56  85 123 153 199 253 309 365
#
# _framework density 25.204294000000001
#
# number of rings (size 3 to 8) (size 9 to 14) (size 15 to 20)
#    0.000    1.714    2.857    2.143    0.000    2.857 
#    0.000    0.714    0.000    1.714    0.000    0.000 
#    0.000    0.000    0.000    0.000    0.000    0.000 
#
# Total GULP energy -155885.385578 kJ/mol
# GULP energy per Si atom -5567.335199 kJ/mol
# Density = 2.514693 g / cm^3
# Si number density = 25.204294 Si / 1000 Ang^3
#
#
#
# Elastic Constant Matrix: (Units=GPa)
#
#
# Indices 1 2 3 4 5 6 
#
# 1 107.5211 13.8213 46.6849 0.0000 0.0000 0.0000
# 2 13.8213 40.3923 20.5146 0.0000 0.0000 0.0000
# 3 46.6849 20.5146 200.5905 0.0000 0.0000 0.0000
# 4 0.0000 0.0000 0.0000 6.0394 0.0000 0.0000
# 5 0.0000 0.0000 0.0000 0.0000 24.2975 0.0000
# 6 0.0000 0.0000 0.0000 0.0000 0.0000 24.0477
#
#
#
# Elastic Compliance Matrix: (Units=1/GPa)
#
#
# Indices 1 2 3 4 5 6 
#
# 1 0.010580 -0.002499 -0.002207 0.000000 0.000000 0.000000
# 2 -0.002499 0.026704 -0.002149 0.000000 0.000000 0.000000
# 3 -0.002207 -0.002149 0.005719 0.000000 0.000000 0.000000
# 4 0.000000 0.000000 0.000000 0.165580 0.000000 0.000000
# 5 0.000000 0.000000 0.000000 0.000000 0.041156 0.000000
# 6 0.000000 0.000000 0.000000 0.000000 0.000000 0.041584
#
#
# Mechanical properties :
#
#
# Convention : Reuss Voigt Hill
#
# Bulk Modulus (GPa) = 34.13940 56.72728 45.43334
# Shear Modulus (GPa) = 15.88317 28.70911 22.29614
#
# Velocity S-wave (km/s) = 2.51306 3.37865 2.97748
# Velocity P-wave (km/s) = 4.68989 6.14624 5.46678
#
# Compressibility (1/GPa) = 0.02929167
#
# Stress axis : x y z
#
# Youngs Moduli (GPa) = 94.51855 37.44744 174.86543
#
# Poissons Ratio (x) = 0.09360 0.38588
# Poissons Ratio (y) = 0.23625 0.37585
# Poissons Ratio (z) = 0.20858 0.08049
#
# Static dielectric constant tensor:
#      x y z
#    x 1.965510 0.000000 0.000000 
#    y 0.000000 3.166010 0.000000 
#    z 0.000000 0.000000 2.120660 
# 
# From -- ./inp_files/16062.got.cif
#   From: 2010.05.17/outbox.cif.g08.bks.cpg/sg46_9_cif.got.tgz:16062.got - 2010.06.03 19:58:25.
