data_PCOD9378654
_publ_section_title
;
Structure prediction by ZEFSAII (Michael W. Deem and Ramdas Pophale) SiO2 
 PCOD9378654
Probable space group: I M A 2
;
_chemical_formula_sum "Si O2"
_cell_formula_units_Z 64
_cell_length_a 8.976895
_cell_length_b 21.023142
_cell_length_c 20.112761
_cell_angle_alpha 90.000000
_cell_angle_beta 90.000000
_cell_angle_gamma 90.000000
_cell_volume 3795.731308
_symmetry_space_group_name_H-M "I M A 2"
_symmetry_group_IT_number 46
_symmetry_cell_setting 'orthorhombic'
loop_
_space_group_symop_operation_xyz
x,y,z
-x,-y,z
1/2-x,y,z
1/2+x,-y,z
1/2+x,1/2+y,1/2+z
1/2-x,1/2-y,1/2+z
-x,1/2+y,1/2+z
x,1/2-y,1/2+z
loop_
_atom_site_type_symbol
_atom_site_label
_atom_site_fract_x
_atom_site_fract_y
_atom_site_fract_z
Si Si1 0.928425 0.116650 0.801800
Si Si2 0.070486 0.184751 0.020962
Si Si3 0.929195 0.810661 0.436061
Si Si4 0.572204 0.233656 0.302794
Si Si5 0.428318 0.114805 0.664188
Si Si6 0.428953 0.566576 0.445524
Si Si7 0.929927 0.565866 0.021202
Si Si8 0.071664 0.234836 0.164764
O O1 0.750000 0.113330 0.795855
O O2 0.969534 0.191346 0.810088
O O3 0.973666 0.080712 0.868768
O O4 0.999799 0.093050 0.733250
O O5 0.250000 0.176741 0.016902
O O6 0.031914 0.248193 0.979239
O O7 0.989665 0.124495 0.989523
O O8 0.031166 0.197830 0.097742
O O9 0.750000 0.811208 0.429233
O O10 0.972997 0.874006 0.475920
O O11 0.002864 0.803810 0.364293
O O12 0.750000 0.229440 0.304021
O O13 0.509471 0.212761 0.231446
O O14 0.250000 0.109098 0.669352
O O15 0.477753 0.079518 0.597390
O O16 0.462825 0.190034 0.655439
O O17 0.500000 0.500000 0.466502
O O18 0.250000 0.564326 0.448554
O O19 0.750000 0.562214 0.020737
O O20 0.000000 0.500000 0.998105
O O21 0.250000 0.230241 0.173686
#
# Coordination Sequence:
#
# PCOD9378654 Si02
#       8
#     8   8   8   8   8   8   8   8
#     4   9  19  33  48  72 107 141 175 216 257 307
#     4  10  19  34  58  82 104 136 179 223 268 317
#     4  10  19  34  56  79 105 139 179 221 265 316
#     4  10  19  32  51  80 111 137 172 219 268 313
#     4   9  17  31  51  74 103 140 180 216 252 307
#     4  11  23  38  53  75 109 144 181 221 266 317
#     4  10  21  36  52  76 108 142 180 220 263 313
#     4   9  17  32  54  80 106 136 175 217 263 317
#
# _framework density 16.861046999999999
#
# number of rings (size 3 to 8) (size 9 to 14) (size 15 to 20)
#    0.000    2.250    2.500    0.750    0.000    3.500 
#    0.000    2.500    0.000    0.750    0.000    3.500 
#    0.000    0.000    0.000    0.000    0.000    0.000 
#
# Total GULP energy -178567.487123 kJ/mol
# GULP energy per Si atom -5580.233973 kJ/mol
# Density = 1.682267 g / cm^3
# Si number density = 16.861047 Si / 1000 Ang^3
#
#
#
# Elastic Constant Matrix: (Units=GPa)
#
#
# Indices 1 2 3 4 5 6 
#
# 1 22.8341 39.4022 41.6220 0.0000 0.0000 0.0000
# 2 39.4022 111.5353 65.7991 0.0000 0.0000 0.0000
# 3 41.6220 65.7991 127.8901 0.0000 0.0000 0.0000
# 4 0.0000 0.0000 0.0000 20.5032 0.0000 0.0000
# 5 0.0000 0.0000 0.0000 0.0000 22.3335 0.0000
# 6 0.0000 0.0000 0.0000 0.0000 0.0000 21.9720
#
#
#
# Elastic Compliance Matrix: (Units=1/GPa)
#
#
# Indices 1 2 3 4 5 6 
#
# 1 0.195199 -0.045200 -0.040273 0.000000 0.000000 0.000000
# 2 -0.045200 0.023339 0.002702 0.000000 0.000000 0.000000
# 3 -0.040273 0.002702 0.019536 0.000000 0.000000 0.000000
# 4 0.000000 0.000000 0.000000 0.048773 0.000000 0.000000
# 5 0.000000 0.000000 0.000000 0.000000 0.044776 0.000000
# 6 0.000000 0.000000 0.000000 0.000000 0.000000 0.045512
#
#
# Mechanical properties :
#
#
# Convention : Reuss Voigt Hill
#
# Bulk Modulus (GPa) = 13.78666 61.76737 37.77702
# Shear Modulus (GPa) = 8.82061 20.65750 14.73906
#
# Velocity S-wave (km/s) = 2.28970 3.50403 2.95981
# Velocity P-wave (km/s) = 3.89675 7.28585 5.84244
#
# Compressibility (1/GPa) = 0.07253390
#
# Stress axis : x y z
#
# Youngs Moduli (GPa) = 5.12297 42.84604 51.18827
#
# Poissons Ratio (x) = 1.93663 2.06149
# Poissons Ratio (y) = 0.23156 -0.13833
# Poissons Ratio (z) = 0.20632 -0.11578
#
# Static dielectric constant tensor:
#      x y z
#    x 1.560590 0.000000 0.000000 
#    y 0.000000 1.558830 0.000000 
#    z 0.000000 0.000000 1.560640 
# 
# From -- ./inp_files/18521.got.cif
#   From: 2010.05.17/outbox.cif.g08.bks.cpg/sg46_10_cif.got.tgz:18521.got - 2010.06.03 19:58:25.
