data_PCOD9378742
_publ_section_title
;
Structure prediction by ZEFSAII (Michael W. Deem and Ramdas Pophale) SiO2 
 PCOD9378742
Probable space group: I M A 2
;
_chemical_formula_sum "Si O2"
_cell_formula_units_Z 44
_cell_length_a 22.356873
_cell_length_b 14.310683
_cell_length_c 8.488115
_cell_angle_alpha 90.000000
_cell_angle_beta 90.000000
_cell_angle_gamma 90.000000
_cell_volume 2715.705528
_symmetry_space_group_name_H-M "I M A 2"
_symmetry_group_IT_number 46
_symmetry_cell_setting 'orthorhombic'
loop_
_space_group_symop_operation_xyz
x,y,z
-x,-y,z
1/2-x,y,z
1/2+x,-y,z
1/2+x,1/2+y,1/2+z
1/2-x,1/2-y,1/2+z
-x,1/2+y,1/2+z
x,1/2-y,1/2+z
loop_
_atom_site_type_symbol
_atom_site_label
_atom_site_fract_x
_atom_site_fract_y
_atom_site_fract_z
Si Si1 0.500000 0.500000 0.309960
Si Si2 0.319859 0.392522 0.565955
Si Si3 0.489568 0.147224 0.242294
Si Si4 0.556060 0.840550 0.596549
Si Si5 0.920782 0.470513 0.594816
Si Si6 0.678946 0.795807 0.728131
O O1 0.468397 0.423158 0.204563
O O2 0.549910 0.453998 0.423882
O O3 0.250000 0.411104 0.560734
O O4 0.354287 0.490118 0.581743
O O5 0.330003 0.315912 0.704536
O O6 0.334601 0.337411 0.401821
O O7 0.469592 0.148250 0.422278
O O8 0.470441 0.243981 0.164514
O O9 0.452656 0.064698 0.158805
O O10 0.557804 0.114227 0.206307
O O11 0.628216 0.838461 0.613887
O O12 0.750000 0.813177 0.692970
#
# Coordination Sequence:
#
# PCOD9378742 Si02
#       6
#     4   8   8   8   8   8
#     4  10  20  30  52  68 102 134 178 210 266 296
#     4  10  19  33  51  74 106 142 173 207 250 307
#     4  10  21  30  52  67 108 129 178 206 266 292
#     4  12  19  35  49  77  99 145 164 222 253 313
#     4  10  19  35  45  78  98 138 172 217 242 319
#     4  10  20  31  49  74 105 140 171 199 249 311
#
# _framework density 16.202051000000001
#
# number of rings (size 3 to 8) (size 9 to 14) (size 15 to 20)
#    0.000    1.818    3.636    4.364    0.000    0.000 
#    0.000    0.000    0.000    0.000    0.000    6.364 
#    0.000    0.000    0.000    0.000    0.000    0.000 
#
# Total GULP energy -122504.195447 kJ/mol
# GULP energy per Si atom -5568.372520 kJ/mol
# Density = 1.616517 g / cm^3
# Si number density = 16.202051 Si / 1000 Ang^3
#
#
#
# Elastic Constant Matrix: (Units=GPa)
#
#
# Indices 1 2 3 4 5 6 
#
# 1 81.1196 37.0370 33.4718 0.0000 0.0000 0.0000
# 2 37.0370 52.3362 26.5472 0.0000 0.0000 0.0000
# 3 33.4718 26.5472 88.8638 0.0000 0.0000 0.0000
# 4 0.0000 0.0000 0.0000 34.2724 0.0000 0.0000
# 5 0.0000 0.0000 0.0000 0.0000 18.4184 0.0000
# 6 0.0000 0.0000 0.0000 0.0000 0.0000 38.5514
#
#
#
# Elastic Compliance Matrix: (Units=1/GPa)
#
#
# Indices 1 2 3 4 5 6 
#
# 1 0.019213 -0.011698 -0.003742 0.000000 0.000000 0.000000
# 2 -0.011698 0.029643 -0.004449 0.000000 0.000000 0.000000
# 3 -0.003742 -0.004449 0.013992 0.000000 0.000000 0.000000
# 4 0.000000 0.000000 0.000000 0.029178 0.000000 0.000000
# 5 0.000000 0.000000 0.000000 0.000000 0.054294 0.000000
# 6 0.000000 0.000000 0.000000 0.000000 0.000000 0.025939
#
#
# Mechanical properties :
#
#
# Convention : Reuss Voigt Hill
#
# Bulk Modulus (GPa) = 43.34946 46.27017 44.80982
# Shear Modulus (GPa) = 22.75564 26.59935 24.67750
#
# Velocity S-wave (km/s) = 3.75172 4.05622 3.90694
# Velocity P-wave (km/s) = 6.75136 7.11037 6.93319
#
# Compressibility (1/GPa) = 0.02306834
#
# Stress axis : x y z
#
# Youngs Moduli (GPa) = 52.04934 33.73532 71.47060
#
# Poissons Ratio (x) = 0.39464 0.26744
# Poissons Ratio (y) = 0.60888 0.31798
# Poissons Ratio (z) = 0.19477 0.15009
#
# Static dielectric constant tensor:
#      x y z
#    x 1.652060 0.000000 0.000000 
#    y 0.000000 1.528040 0.000000 
#    z 0.000000 0.000000 1.578140 
# 
# From -- ./inp_files/7310.got.cif
#   From: 2010.05.17/outbox.cif.g08.bks.cpg/sg46_4_cif.got.tgz:7310.got - 2010.06.03 19:58:25.
