data_PCOD9378313
_publ_section_title
;
Structure prediction by ZEFSAII (Michael W. Deem and Ramdas Pophale) SiO2 
 PCOD9378313
Probable space group: I M A 2
;
_chemical_formula_sum "Si O2"
_cell_formula_units_Z 48
_cell_length_a 15.590346
_cell_length_b 10.438636
_cell_length_c 14.662115
_cell_angle_alpha 90.000000
_cell_angle_beta 90.000000
_cell_angle_gamma 90.000000
_cell_volume 2386.141142
_symmetry_space_group_name_H-M "I M A 2"
_symmetry_group_IT_number 46
_symmetry_cell_setting 'orthorhombic'
loop_
_space_group_symop_operation_xyz
x,y,z
-x,-y,z
1/2-x,y,z
1/2+x,-y,z
1/2+x,1/2+y,1/2+z
1/2-x,1/2-y,1/2+z
-x,1/2+y,1/2+z
x,1/2-y,1/2+z
loop_
_atom_site_type_symbol
_atom_site_label
_atom_site_fract_x
_atom_site_fract_y
_atom_site_fract_z
Si Si1 0.600152 0.023930 0.259590
Si Si2 0.648019 0.724818 0.259588
Si Si3 0.146217 0.878109 0.458449
Si Si4 0.853783 0.121883 0.060730
Si Si5 0.145213 0.126618 0.950744
Si Si6 0.645213 0.626612 0.068432
O O1 0.623532 0.098920 0.352475
O O2 0.623531 0.098919 0.166704
O O3 0.500000 0.000000 0.259591
O O4 0.638679 0.879235 0.259589
O O5 0.750000 0.702789 0.259588
O O6 0.612876 0.656959 0.349752
O O7 0.612876 0.656962 0.169423
O O8 0.250000 0.876550 0.461314
O O9 0.115591 0.749995 0.509588
O O10 0.115586 0.999519 0.517538
O O11 0.750000 0.123442 0.057866
O O12 0.884414 0.000471 0.001643
O O13 0.250000 0.120216 0.947908
O O14 0.122627 0.250006 0.009586
O O15 0.750000 0.620210 0.071269
#
# Coordination Sequence:
#
# PCOD9378313 Si02
#       6
#     8   8   8   8   8   8
#     4  12  24  39  56  86 120 162 199 231 305 367
#     4  10  18  33  60  87 112 144 197 249 283 341
#     4  10  21  39  63  89 118 153 199 251 297 349
#     4  10  21  39  63  89 118 153 199 251 297 349
#     4   9  16  29  56  89 110 138 190 243 292 335
#     4   9  16  29  56  89 110 138 190 243 292 335
#
# _framework density 20.116161000000002
#
# number of rings (size 3 to 8) (size 9 to 14) (size 15 to 20)
#    0.000    2.000    3.333    1.500    0.000    1.333 
#    6.000    5.000    0.000    2.000    0.000    0.000 
#    0.000    0.000    0.000    0.000    0.000    0.000 
#
# Total GULP energy -133924.676484 kJ/mol
# GULP energy per Si atom -5580.194854 kJ/mol
# Density = 2.007038 g / cm^3
# Si number density = 20.116161 Si / 1000 Ang^3
#
#
#
# Elastic Constant Matrix: (Units=GPa)
#
#
# Indices 1 2 3 4 5 6 
#
# 1 20.1012 7.6228 9.9600 0.0000 0.0000 0.0000
# 2 7.6228 193.7092 128.8040 0.0000 0.0000 0.0000
# 3 9.9600 128.8040 250.9409 0.0000 0.0000 0.0000
# 4 0.0000 0.0000 0.0000 33.7618 0.0000 0.0000
# 5 0.0000 0.0000 0.0000 0.0000 -58.5960 0.0000
# 6 0.0000 0.0000 0.0000 0.0000 0.0000 -0.5089
#
#
#
# Elastic Compliance Matrix: (Units=1/GPa)
#
#
# Indices 1 2 3 4 5 6 
#
# 1 0.050874 -0.001001 -0.001505 0.000000 0.000000 0.000000
# 2 -0.001001 0.007857 -0.003993 0.000000 0.000000 0.000000
# 3 -0.001505 -0.003993 0.006094 0.000000 0.000000 0.000000
# 4 0.000000 0.000000 0.000000 0.029619 0.000000 0.000000
# 5 0.000000 0.000000 0.000000 0.000000 -0.017066 0.000000
# 6 0.000000 0.000000 0.000000 0.000000 0.000000 -1.965135
#
#
# Mechanical properties :
#
#
# Convention : Reuss Voigt Hill
#
# Bulk Modulus (GPa) = 19.29530 84.16945 51.73237
# Shear Modulus (GPa) = -2.69182 16.15569 6.73194
#
# Velocity S-wave (km/s) = -1.15803 2.83701 1.83134
# Velocity P-wave (km/s) = 2.79727 7.25700 5.49949
#
# Compressibility (1/GPa) = 0.05182609
#
# Stress axis : x y z
#
# Youngs Moduli (GPa) = 19.65647 127.27634 164.08642
#
# Poissons Ratio (x) = 0.12740 0.24702
# Poissons Ratio (y) = 0.01968 0.65521
# Poissons Ratio (z) = 0.02959 0.50823
#
# Static dielectric constant tensor:
#      x y z
#    x 1.723130 0.000000 0.000000 
#    y 0.000000 1.705750 0.000000 
#    z 0.000000 0.000000 1.700010 
# 
# From -- ./inp_files/16516.got.cif
#   From: 2010.05.17/outbox.cif.g08.bks.cpg/sg46_9_cif.got.tgz:16516.got - 2010.06.03 19:58:25.
