data_PCOD9378597
_publ_section_title
;
Structure prediction by ZEFSAII (Michael W. Deem and Ramdas Pophale) SiO2 
 PCOD9378597
Probable space group: I M A 2
;
_chemical_formula_sum "Si O2"
_cell_formula_units_Z 64
_cell_length_a 8.736235
_cell_length_b 29.050374
_cell_length_c 14.800128
_cell_angle_alpha 90.000000
_cell_angle_beta 90.000000
_cell_angle_gamma 90.000000
_cell_volume 3756.137718
_symmetry_space_group_name_H-M "I M A 2"
_symmetry_group_IT_number 46
_symmetry_cell_setting 'orthorhombic'
loop_
_space_group_symop_operation_xyz
x,y,z
-x,-y,z
1/2-x,y,z
1/2+x,-y,z
1/2+x,1/2+y,1/2+z
1/2-x,1/2-y,1/2+z
-x,1/2+y,1/2+z
x,1/2-y,1/2+z
loop_
_atom_site_type_symbol
_atom_site_label
_atom_site_fract_x
_atom_site_fract_y
_atom_site_fract_z
Si Si1 0.933823 0.179446 0.842850
Si Si2 0.933792 0.321896 0.549157
Si Si3 0.433644 0.634276 0.730098
Si Si4 0.567827 0.722601 0.052452
Si Si5 0.565586 0.550092 0.050902
Si Si6 0.932315 0.780040 0.339315
Si Si7 0.564685 0.864435 0.672728
Si Si8 0.933572 0.550420 0.842552
O O1 0.750000 0.181683 0.840272
O O2 0.001661 0.229590 0.817772
O O3 0.995122 0.142808 0.771272
O O4 0.984412 0.169342 0.946098
O O5 0.750000 0.321609 0.548496
O O6 0.983293 0.357496 0.626167
O O7 0.989132 0.270789 0.575108
O O8 0.250000 0.631371 0.733487
O O9 0.488591 0.679428 0.784184
O O10 0.504015 0.589544 0.776768
O O11 0.750000 0.728382 0.064302
O O12 0.517718 0.679873 0.113081
O O13 0.540783 0.712553 0.946502
O O14 0.500000 0.500000 0.072911
O O15 0.750000 0.548046 0.053151
O O16 0.516025 0.589725 0.119817
O O17 0.521997 0.561314 0.946970
O O18 0.750000 0.780493 0.322988
O O19 0.750000 0.864415 0.678047
O O20 0.750000 0.549161 0.838197
O O21 0.000000 0.500000 0.821592
#
# Coordination Sequence:
#
# PCOD9378597 Si02
#       8
#     8   8   8   8   8   8   8   8
#     4  10  20  34  49  69  98 133 170 209 248 289
#     4   9  20  35  48  66  98 133 166 205 246 284
#     4  11  21  33  51  75 100 131 169 208 247 292
#     4   9  18  31  48  70  99 132 165 199 242 293
#     4   9  19  35  54  76 104 131 159 196 243 296
#     4  10  19  32  49  72 102 135 167 203 246 295
#     4  10  19  32  50  73  99 129 164 203 243 291
#     4  10  20  36  56  79 105 132 159 195 243 296
#
# _framework density 17.038778000000001
#
# number of rings (size 3 to 8) (size 9 to 14) (size 15 to 20)
#    0.000    2.250    0.000    3.000    0.000    7.500 
#    0.000    1.250    0.000    0.750    0.000    1.750 
#    0.000    0.000    0.000    0.000    0.000    0.000 
#
# Total GULP energy -178617.415998 kJ/mol
# GULP energy per Si atom -5581.794250 kJ/mol
# Density = 1.700000 g / cm^3
# Si number density = 17.038778 Si / 1000 Ang^3
#
#
#
# Elastic Constant Matrix: (Units=GPa)
#
#
# Indices 1 2 3 4 5 6 
#
# 1 30.7319 33.7720 35.5486 0.0000 0.0000 0.0000
# 2 33.7720 124.1944 101.2283 -0.0001 0.0000 0.0000
# 3 35.5486 101.2283 114.4124 -0.0002 0.0000 0.0000
# 4 0.0000 -0.0001 -0.0002 33.2979 0.0000 0.0000
# 5 0.0000 0.0000 0.0000 0.0000 22.7807 0.0000
# 6 0.0000 0.0000 0.0000 0.0000 0.0000 29.3026
#
#
#
# Elastic Compliance Matrix: (Units=1/GPa)
#
#
# Indices 1 2 3 4 5 6 
#
# 1 0.051200 -0.003430 -0.012874 0.000000 0.000000 0.000000
# 2 -0.003430 0.029106 -0.024686 0.000000 0.000000 0.000000
# 3 -0.012874 -0.024686 0.034582 0.000000 0.000000 0.000000
# 4 0.000000 0.000000 0.000000 0.030032 0.000000 0.000000
# 5 0.000000 0.000000 0.000000 0.000000 0.043897 0.000000
# 6 0.000000 0.000000 0.000000 0.000000 0.000000 0.034127
#
#
# Mechanical properties :
#
#
# Convention : Reuss Voigt Hill
#
# Bulk Modulus (GPa) = 30.38743 67.82630 49.10686
# Shear Modulus (GPa) = 15.82825 23.66222 19.74523
#
# Velocity S-wave (km/s) = 3.05118 3.73061 3.40787
# Velocity P-wave (km/s) = 5.50327 7.64526 6.66093
#
# Compressibility (1/GPa) = 0.03290834
#
# Stress axis : x y z
#
# Youngs Moduli (GPa) = 19.53131 34.35759 28.91703
#
# Poissons Ratio (x) = 0.11783 0.37227
# Poissons Ratio (y) = 0.06699 0.71385
# Poissons Ratio (z) = 0.25144 0.84816
#
# Static dielectric constant tensor:
#      x y z
#    x 1.573420 0.000000 0.000000 
#    y 0.000000 1.539960 0.000000 
#    z 0.000000 0.000000 1.601140 
# 
# From -- ./inp_files/14449.got.cif
#   From: 2010.05.17/outbox.cif.g08.bks.cpg/sg46_8_cif.got.tgz:14449.got - 2010.06.03 19:58:25.
