data_PCOD9378655
_publ_section_title
;
Structure prediction by ZEFSAII (Michael W. Deem and Ramdas Pophale) SiO2 
 PCOD9378655
Probable space group: I M A 2
;
_chemical_formula_sum "Si O2"
_cell_formula_units_Z 64
_cell_length_a 13.514096
_cell_length_b 31.080338
_cell_length_c 10.108943
_cell_angle_alpha 90.000000
_cell_angle_beta 90.000000
_cell_angle_gamma 90.000000
_cell_volume 4245.985244
_symmetry_space_group_name_H-M "I M A 2"
_symmetry_group_IT_number 46
_symmetry_cell_setting 'orthorhombic'
loop_
_space_group_symop_operation_xyz
x,y,z
-x,-y,z
1/2-x,y,z
1/2+x,-y,z
1/2+x,1/2+y,1/2+z
1/2-x,1/2-y,1/2+z
-x,1/2+y,1/2+z
x,1/2-y,1/2+z
loop_
_atom_site_type_symbol
_atom_site_label
_atom_site_fract_x
_atom_site_fract_y
_atom_site_fract_z
Si Si1 0.433022 0.063545 0.109380
Si Si2 0.630705 0.890975 0.368396
Si Si3 0.866610 0.625496 0.380355
Si Si4 0.445208 0.429161 0.140347
Si Si5 0.129680 0.218828 0.983340
Si Si6 0.637565 0.023073 0.700870
Si Si7 0.636664 0.470077 0.518445
Si Si8 0.629693 0.706058 0.786180
O O1 0.412084 0.077086 0.258243
O O2 0.549458 0.059471 0.075879
O O3 0.384573 0.017624 0.075178
O O4 0.383419 0.098706 0.014196
O O5 0.750000 0.893484 0.368102
O O6 0.590466 0.904932 0.510268
O O7 0.602386 0.842295 0.327917
O O8 0.750000 0.624754 0.345958
O O9 0.925729 0.601566 0.265230
O O10 0.896954 0.674403 0.409945
O O11 0.385067 0.473689 0.162684
O O12 0.558010 0.445459 0.135476
O O13 0.250000 0.219840 0.987139
O O14 0.096692 0.217370 0.136589
O O15 0.096698 0.259331 0.895738
O O16 0.750000 0.033670 0.667427
O O17 0.624334 0.026788 0.859668
O O18 0.750000 0.457313 0.546533
O O19 0.750000 0.707343 0.784174
#
# Coordination Sequence:
#
# PCOD9378655 Si02
#       8
#     8   8   8   8   8   8   8   8
#     4  11  19  33  49  71  95 129 166 203 241 286
#     4  11  22  33  47  70 105 134 161 202 240 284
#     4  11  18  29  49  69  94 129 168 198 232 287
#     4  11  21  33  48  74  95 132 173 199 238 290
#     4   9  18  29  44  66  95 129 160 194 238 288
#     4  10  19  34  51  70  99 127 162 213 251 280
#     4  10  19  32  52  73  95 125 167 213 249 282
#     4   9  18  31  44  65  96 129 159 192 239 287
#
# _framework density 15.073062
#
# number of rings (size 3 to 8) (size 9 to 14) (size 15 to 20)
#    0.000    1.750    3.750    3.000    1.750    2.000 
#    0.000    1.875    0.000    0.000    0.000    0.000 
#    0.000    6.000    0.000    0.000    0.000    0.000 
#
# Total GULP energy -178488.868689 kJ/mol
# GULP energy per Si atom -5577.777147 kJ/mol
# Density = 1.503876 g / cm^3
# Si number density = 15.073062 Si / 1000 Ang^3
#
#
#
# Elastic Constant Matrix: (Units=GPa)
#
#
# Indices 1 2 3 4 5 6 
#
# 1 69.8044 23.9895 18.4945 0.0002 -0.0001 -0.0001
# 2 23.9895 62.6044 19.4637 0.0002 -0.0001 -0.0001
# 3 18.4945 19.4637 67.1274 0.0021 -0.0004 -0.0004
# 4 0.0002 0.0002 0.0021 3.9700 -0.0003 -0.0002
# 5 -0.0001 -0.0001 -0.0004 -0.0003 20.7565 0.0000
# 6 -0.0001 -0.0001 -0.0004 -0.0002 0.0000 11.9917
#
#
#
# Elastic Compliance Matrix: (Units=1/GPa)
#
#
# Indices 1 2 3 4 5 6 
#
# 1 0.017060 -0.005579 -0.003083 0.000001 0.000000 0.000000
# 2 -0.005579 0.019380 -0.004082 0.000001 0.000000 0.000000
# 3 -0.003083 -0.004082 0.016930 -0.000008 0.000000 0.000001
# 4 0.000001 0.000001 -0.000008 0.251890 0.000004 0.000004
# 5 0.000000 0.000000 0.000000 0.000004 0.048178 0.000000
# 6 0.000000 0.000000 0.000001 0.000004 0.000000 0.083391
#
#
# Mechanical properties :
#
#
# Convention : Reuss Voigt Hill
#
# Bulk Modulus (GPa) = 35.86464 35.93685 35.90075
# Shear Modulus (GPa) = 10.60199 16.51622 13.55910
#
# Velocity S-wave (km/s) = 2.65500 3.31379 3.00252
# Velocity P-wave (km/s) = 5.76578 6.20767 5.99080
#
# Compressibility (1/GPa) = 0.02788261
#
# Stress axis : x y z
#
# Youngs Moduli (GPa) = 58.61766 51.59894 59.06666
#
# Poissons Ratio (x) = 0.28786 0.18208
# Poissons Ratio (y) = 0.32701 0.24113
# Poissons Ratio (z) = 0.18069 0.21064
#
# Static dielectric constant tensor:
#      x y z
#    x 1.494460 0.000000 0.000000 
#    y 0.000000 1.491280 0.000000 
#    z 0.000000 0.000000 1.500790 
# 
# From -- ./inp_files/6205.got.cif
#   From: 2010.05.17/outbox.cif.g08.bks.cpg/sg46_4_cif.got.tgz:6205.got - 2010.06.03 19:58:25.
