data_PCOD9378331
_publ_section_title
;
Structure prediction by ZEFSAII (Michael W. Deem and Ramdas Pophale) SiO2 
 PCOD9378331
Probable space group: I M A 2
;
_chemical_formula_sum "Si O2"
_cell_formula_units_Z 48
_cell_length_a 19.127689
_cell_length_b 15.526829
_cell_length_c 8.979570
_cell_angle_alpha 90.000000
_cell_angle_beta 90.000000
_cell_angle_gamma 90.000000
_cell_volume 2666.863653
_symmetry_space_group_name_H-M "I M A 2"
_symmetry_group_IT_number 46
_symmetry_cell_setting 'orthorhombic'
loop_
_space_group_symop_operation_xyz
x,y,z
-x,-y,z
1/2-x,y,z
1/2+x,-y,z
1/2+x,1/2+y,1/2+z
1/2-x,1/2-y,1/2+z
-x,1/2+y,1/2+z
x,1/2-y,1/2+z
loop_
_atom_site_type_symbol
_atom_site_label
_atom_site_fract_x
_atom_site_fract_y
_atom_site_fract_z
Si Si1 0.750000 0.817846 0.307550
Si Si2 0.590706 0.254940 0.889395
Si Si3 0.750000 0.634984 0.158162
Si Si4 0.167175 0.641865 0.633896
Si Si5 0.389096 0.032683 0.616570
Si Si6 0.330379 0.474323 0.792045
Si Si7 0.531375 0.365077 0.152664
O O1 0.750000 0.719903 0.259312
O O2 0.750000 0.830815 0.486320
O O3 0.816355 0.874586 0.249138
O O4 0.643954 0.305861 0.781810
O O5 0.538247 0.204764 0.781608
O O6 0.629367 0.186663 0.995752
O O7 0.551329 0.320625 0.997360
O O8 0.818804 0.576476 0.177583
O O9 0.250000 0.647415 0.611955
O O10 0.147525 0.542078 0.666984
O O11 0.376807 0.021484 0.438964
O O12 0.455454 0.093247 0.643853
O O13 0.411034 0.939927 0.679493
O O14 0.250000 0.501929 0.835314
#
# Coordination Sequence:
#
# PCOD9378331 Si02
#       7
#     4   8   4   8   8   8   8
#     4   8  18  34  54  81 113 136 186 231 287 322
#     4  10  21  36  55  86 117 151 195 237 284 355
#     4  10  20  38  60  85 107 144 196 241 279 342
#     4  10  18  34  57  87 117 152 190 240 288 345
#     4  10  19  38  61  81 113 155 190 233 290 343
#     4   8  16  33  58  83 115 142 189 233 282 344
#     4  10  22  37  59  81 120 154 193 230 294 348
#
# _framework density 17.998671999999999
#
# number of rings (size 3 to 8) (size 9 to 14) (size 15 to 20)
#    0.500    2.000    2.500    0.500    0.000    2.667 
#   10.500    0.000   14.667    0.000    0.000    0.000 
#    0.000    0.000    0.000    0.000    0.000    0.000 
#
# Total GULP energy -133656.084015 kJ/mol
# GULP energy per Si atom -5569.003501 kJ/mol
# Density = 1.795771 g / cm^3
# Si number density = 17.998672 Si / 1000 Ang^3
#
#
#
# Elastic Constant Matrix: (Units=GPa)
#
#
# Indices 1 2 3 4 5 6 
#
# 1 65.5842 39.7586 12.3859 0.0000 0.0000 0.0000
# 2 39.7586 82.8352 11.5334 0.0000 0.0000 0.0000
# 3 12.3859 11.5334 40.8692 0.0000 0.0000 0.0000
# 4 0.0000 0.0000 0.0000 32.1903 0.0000 0.0000
# 5 0.0000 0.0000 0.0000 0.0000 9.2016 0.0000
# 6 0.0000 0.0000 0.0000 0.0000 0.0000 22.0952
#
#
#
# Elastic Compliance Matrix: (Units=1/GPa)
#
#
# Indices 1 2 3 4 5 6 
#
# 1 0.022072 -0.010058 -0.003851 0.000000 0.000000 0.000000
# 2 -0.010058 0.017149 -0.001791 0.000000 0.000000 0.000000
# 3 -0.003851 -0.001791 0.026141 0.000000 0.000000 0.000000
# 4 0.000000 0.000000 0.000000 0.031065 0.000000 0.000000
# 5 0.000000 0.000000 0.000000 0.000000 0.108677 0.000000
# 6 0.000000 0.000000 0.000000 0.000000 0.000000 0.045259
#
#
# Mechanical properties :
#
#
# Convention : Reuss Voigt Hill
#
# Bulk Modulus (GPa) = 29.44473 35.18271 32.31372
# Shear Modulus (GPa) = 17.05998 21.07147 19.06573
#
# Velocity S-wave (km/s) = 3.08205 3.42530 3.25820
# Velocity P-wave (km/s) = 5.39076 5.93577 5.66982
#
# Compressibility (1/GPa) = 0.03396193
#
# Stress axis : x y z
#
# Youngs Moduli (GPa) = 45.30613 58.31228 38.25420
#
# Poissons Ratio (x) = 0.58649 0.14731
# Poissons Ratio (y) = 0.45568 0.06853
# Poissons Ratio (z) = 0.17447 0.10446
#
# Static dielectric constant tensor:
#      x y z
#    x 1.594980 0.000000 0.000000 
#    y 0.000000 1.649680 0.000000 
#    z 0.000000 0.000000 1.603070 
# 
# From -- ./inp_files/7338.got.cif
#   From: 2010.05.17/outbox.cif.g08.bks.cpg/sg46_4_cif.got.tgz:7338.got - 2010.06.03 19:58:25.
