data_PCOD9378764
_publ_section_title
;
Structure prediction by ZEFSAII (Michael W. Deem and Ramdas Pophale) SiO2 
 PCOD9378764
Probable space group: I M A 2
;
_chemical_formula_sum "Si O2"
_cell_formula_units_Z 40
_cell_length_a 20.986287
_cell_length_b 5.222772
_cell_length_c 19.312935
_cell_angle_alpha 90.000000
_cell_angle_beta 90.000000
_cell_angle_gamma 90.000000
_cell_volume 2116.824989
_symmetry_space_group_name_H-M "I M A 2"
_symmetry_group_IT_number 46
_symmetry_cell_setting 'orthorhombic'
loop_
_space_group_symop_operation_xyz
x,y,z
-x,-y,z
1/2-x,y,z
1/2+x,-y,z
1/2+x,1/2+y,1/2+z
1/2-x,1/2-y,1/2+z
-x,1/2+y,1/2+z
x,1/2-y,1/2+z
loop_
_atom_site_type_symbol
_atom_site_label
_atom_site_fract_x
_atom_site_fract_y
_atom_site_fract_z
Si Si1 0.672789 0.090861 0.734900
Si Si2 0.569941 0.037380 0.449554
Si Si3 0.880997 0.524399 0.385492
Si Si4 0.177571 0.684942 0.516144
Si Si5 0.327091 0.094876 0.155014
O O1 0.750000 0.089217 0.738911
O O2 0.653337 0.372214 0.708879
O O3 0.645468 0.013916 0.809173
O O4 0.652189 0.874022 0.679803
O O5 0.590044 0.799218 0.402294
O O6 0.500000 0.000000 0.480078
O O7 0.569986 0.296334 0.403819
O O8 0.626303 0.090584 0.504557
O O9 0.826775 0.468728 0.443706
O O10 0.250000 0.773697 0.529068
O O11 0.155804 0.504192 0.578816
O O12 0.250000 0.101377 0.155532
#
# Coordination Sequence:
#
# PCOD9378764 Si02
#       5
#     8   8   8   8   8
#     4  10  19  33  52  82 119 149 181 231 295 342
#     4  10  22  38  59  84 113 155 191 239 291 342
#     4  10  21  35  59  83 109 150 196 242 275 342
#     4   9  21  35  58  89 117 148 194 245 287 339
#     4   9  19  32  50  78 119 154 179 226 294 347
#
# _framework density 18.896225999999999
#
# number of rings (size 3 to 8) (size 9 to 14) (size 15 to 20)
#    1.200    1.200    0.000    2.400    2.800    1.600 
#    0.000    0.000    0.000    4.800    0.000    0.000 
#    0.000    0.000    0.000    0.000    0.000    0.000 
#
# Total GULP energy -111360.657857 kJ/mol
# GULP energy per Si atom -5568.032893 kJ/mol
# Density = 1.885322 g / cm^3
# Si number density = 18.896226 Si / 1000 Ang^3
#
#
#
# Elastic Constant Matrix: (Units=GPa)
#
#
# Indices 1 2 3 4 5 6 
#
# 1 62.6594 1.5221 5.4231 0.0000 0.0000 0.0000
# 2 1.5221 73.2681 -11.0223 0.0000 0.0000 0.0000
# 3 5.4231 -11.0223 64.8992 0.0000 0.0000 0.0000
# 4 0.0000 0.0000 0.0000 21.5610 0.0000 0.0000
# 5 0.0000 0.0000 0.0000 0.0000 -5.5807 0.0000
# 6 0.0000 0.0000 0.0000 0.0000 0.0000 15.0188
#
#
#
# Elastic Compliance Matrix: (Units=1/GPa)
#
#
# Indices 1 2 3 4 5 6 
#
# 1 0.016097 -0.000551 -0.001439 0.000000 0.000000 0.000000
# 2 -0.000551 0.014025 0.002428 0.000000 0.000000 0.000000
# 3 -0.001439 0.002428 0.015941 0.000000 0.000000 0.000000
# 4 0.000000 0.000000 0.000000 0.046380 0.000000 0.000000
# 5 0.000000 0.000000 0.000000 0.000000 -0.179190 0.000000
# 6 0.000000 0.000000 0.000000 0.000000 0.000000 0.066583
#
#
# Mechanical properties :
#
#
# Convention : Reuss Voigt Hill
#
# Bulk Modulus (GPa) = 21.30353 21.40805 21.35579
# Shear Modulus (GPa) = -926.97018 19.86008 -453.55505
#
# Velocity S-wave (km/s) = -22.17258 3.24544 -15.50952
# Velocity P-wave (km/s) = 25.38108 5.03962 17.58979
#
# Compressibility (1/GPa) = 0.04694058
#
# Stress axis : x y z
#
# Youngs Moduli (GPa) = 62.12263 71.30010 62.73091
#
# Poissons Ratio (x) = 0.03927 0.09025
# Poissons Ratio (y) = 0.03422 -0.15231
# Poissons Ratio (z) = 0.08937 -0.17312
#
# Static dielectric constant tensor:
#      x y z
#    x 1.649090 0.000000 0.000000 
#    y 0.000000 1.678260 0.000000 
#    z 0.000000 0.000000 1.646460 
# 
# From -- ./inp_files/17241.got.cif
#   From: 2010.05.17/outbox.cif.g08.bks.cpg/sg46_9_cif.got.tgz:17241.got - 2010.06.03 19:58:25.
