data_PCOD9378650
_publ_section_title
;
Structure prediction by ZEFSAII (Michael W. Deem and Ramdas Pophale) SiO2 
 PCOD9378650
Probable space group: I M A 2
;
_chemical_formula_sum "Si O2"
_cell_formula_units_Z 56
_cell_length_a 7.939109
_cell_length_b 21.049186
_cell_length_c 15.805757
_cell_angle_alpha 90.000000
_cell_angle_beta 90.000000
_cell_angle_gamma 90.000000
_cell_volume 2641.328218
_symmetry_space_group_name_H-M "I M A 2"
_symmetry_group_IT_number 46
_symmetry_cell_setting 'orthorhombic'
loop_
_space_group_symop_operation_xyz
x,y,z
-x,-y,z
1/2-x,y,z
1/2+x,-y,z
1/2+x,1/2+y,1/2+z
1/2-x,1/2-y,1/2+z
-x,1/2+y,1/2+z
x,1/2-y,1/2+z
loop_
_atom_site_type_symbol
_atom_site_label
_atom_site_fract_x
_atom_site_fract_y
_atom_site_fract_z
Si Si1 0.451706 0.211432 0.315110
Si Si2 0.954716 0.694502 0.162306
Si Si3 0.052711 0.740756 0.498509
Si Si4 0.057756 0.880048 0.098963
Si Si5 0.952483 0.572679 0.259047
Si Si6 0.449008 0.068421 0.935315
Si Si7 0.442845 0.072929 0.276413
O O1 0.250000 0.207598 0.304115
O O2 0.510832 0.252740 0.233168
O O3 0.483563 0.243316 0.406237
O O4 0.520158 0.138368 0.315457
O O5 0.750000 0.697330 0.159548
O O6 0.007532 0.624701 0.192025
O O7 0.024344 0.705798 0.068675
O O8 0.250000 0.726769 0.487969
O O9 0.977886 0.680693 0.550952
O O10 0.250000 0.867158 0.126246
O O11 0.960688 0.910467 0.176654
O O12 0.055331 0.926317 0.019444
O O13 0.750000 0.571984 0.263932
O O14 0.000995 0.605239 0.350489
O O15 0.000000 0.500000 0.237954
O O16 0.250000 0.075152 0.952316
O O17 0.500000 0.000000 0.901337
O O18 0.250000 0.072536 0.302978
O O19 0.500000 0.000000 0.290452
#
# Coordination Sequence:
#
# PCOD9378650 Si02
#       7
#     8   8   8   8   8   8   8
#     4  10  22  41  65  90 119 161 209 254 306 370
#     4  10  20  39  63  87 116 153 201 249 296 362
#     4  11  24  38  59  90 121 154 196 253 311 361
#     4  11  22  36  54  83 119 154 195 243 302 366
#     4   9  19  34  55  82 113 151 191 239 294 351
#     4  10  19  32  51  77 112 149 189 233 285 348
#     4  11  23  40  63  89 120 163 208 258 315 370
#
# _framework density 21.201453999999998
#
# number of rings (size 3 to 8) (size 9 to 14) (size 15 to 20)
#    0.000    1.714    1.429    3.000    0.000    5.714 
#    0.000    0.714    0.000    0.000    0.000    0.000 
#    0.000    0.000    0.000    0.000    0.000    0.000 
#
# Total GULP energy -155873.217707 kJ/mol
# GULP energy per Si atom -5566.900632 kJ/mol
# Density = 2.115320 g / cm^3
# Si number density = 21.201454 Si / 1000 Ang^3
#
#
#
# Elastic Constant Matrix: (Units=GPa)
#
#
# Indices 1 2 3 4 5 6 
#
# 1 28.4401 7.2584 -4.6802 0.0005 0.0000 0.0000
# 2 7.2584 116.5914 22.0363 0.0017 0.0000 0.0000
# 3 -4.6802 22.0363 76.1658 0.0039 0.0000 0.0000
# 4 0.0005 0.0017 0.0039 447.0597 -0.0001 -0.0001
# 5 0.0000 0.0000 0.0000 -0.0001 30.9891 0.0000
# 6 0.0000 0.0000 0.0000 -0.0001 0.0000 18.6849
#
#
#
# Elastic Compliance Matrix: (Units=1/GPa)
#
#
# Indices 1 2 3 4 5 6 
#
# 1 0.036391 -0.002844 0.003059 0.000000 0.000000 0.000000
# 2 -0.002844 0.009295 -0.002864 0.000000 0.000000 0.000000
# 3 0.003059 -0.002864 0.014146 0.000000 0.000000 0.000000
# 4 0.000000 0.000000 0.000000 0.002237 0.000000 0.000000
# 5 0.000000 0.000000 0.000000 0.000000 0.032269 0.000000
# 6 0.000000 0.000000 0.000000 0.000000 0.000000 0.053519
#
#
# Mechanical properties :
#
#
# Convention : Reuss Voigt Hill
#
# Bulk Modulus (GPa) = 18.33712 30.04739 24.19225
# Shear Modulus (GPa) = 29.18294 112.45226 70.81760
#
# Velocity S-wave (km/s) = 3.71409 7.29075 5.78574
# Velocity P-wave (km/s) = 5.20196 9.22369 7.48789
#
# Compressibility (1/GPa) = 0.05453419
#
# Stress axis : x y z
#
# Youngs Moduli (GPa) = 27.47948 107.58108 70.69218
#
# Poissons Ratio (x) = 0.30592 -0.21624
# Poissons Ratio (y) = 0.07814 0.20247
# Poissons Ratio (z) = -0.08406 0.30812
#
# Static dielectric constant tensor:
#      x y z
#    x 1.790580 0.000000 0.000000 
#    y 0.000000 -13.029700 0.000010 
#    z 0.000000 0.000010 1.805730 
# 
# From -- ./inp_files/14139.got.cif
#   From: 2010.05.17/outbox.cif.g08.bks.cpg/sg46_8_cif.got.tgz:14139.got - 2010.06.03 19:58:25.
