data_PCOD9378922
_publ_section_title
;
Structure prediction by ZEFSAII (Michael W. Deem and Ramdas Pophale) SiO2 
 PCOD9378922
Probable space group: I M A 2
;
_chemical_formula_sum "Si O2"
_cell_formula_units_Z 48
_cell_length_a 15.523969
_cell_length_b 18.499876
_cell_length_c 8.795972
_cell_angle_alpha 90.000000
_cell_angle_beta 90.000000
_cell_angle_gamma 90.000000
_cell_volume 2526.128406
_symmetry_space_group_name_H-M "I M A 2"
_symmetry_group_IT_number 46
_symmetry_cell_setting 'orthorhombic'
loop_
_space_group_symop_operation_xyz
x,y,z
-x,-y,z
1/2-x,y,z
1/2+x,-y,z
1/2+x,1/2+y,1/2+z
1/2-x,1/2-y,1/2+z
-x,1/2+y,1/2+z
x,1/2-y,1/2+z
loop_
_atom_site_type_symbol
_atom_site_label
_atom_site_fract_x
_atom_site_fract_y
_atom_site_fract_z
Si Si1 0.094695 0.033338 0.593320
Si Si2 0.651580 0.945566 0.932875
Si Si3 0.475071 0.325710 0.566140
Si Si4 0.655968 0.391846 0.929111
Si Si5 0.846856 0.394048 0.563026
Si Si6 0.474342 0.327700 0.930456
O O1 0.139084 0.051161 0.751984
O O2 0.080264 0.105252 0.494603
O O3 0.143795 0.970913 0.501595
O O4 0.000000 0.000000 0.626127
O O5 0.750000 0.925644 0.970533
O O6 0.584889 0.889217 0.002846
O O7 0.636537 0.026184 0.997061
O O8 0.573882 0.343047 0.518504
O O9 0.470001 0.325270 0.748506
O O10 0.448163 0.248524 0.500446
O O11 0.750000 0.362573 0.972556
O O12 0.652614 0.398712 0.746398
O O13 0.573881 0.344401 0.975752
O O14 0.750000 0.371395 0.515391
#
# Coordination Sequence:
#
# PCOD9378922 Si02
#       6
#     8   8   8   8   8   8
#     4  10  19  34  56  82 109 140 177 221 269 319
#     4  11  22  36  56  82 107 140 184 228 271 317
#     4  11  21  38  56  78 112 147 179 223 268 319
#     4   9  18  35  57  83 111 140 176 219 265 322
#     4   9  19  35  58  84 110 142 179 217 267 323
#     4  10  22  36  56  79 108 147 182 216 271 322
#
# _framework density 19.001408999999999
#
# number of rings (size 3 to 8) (size 9 to 14) (size 15 to 20)
#    0.000    2.000    0.000    4.000    0.000    4.667 
#    0.000    5.000    0.000    0.000    0.000    0.000 
#    0.000    0.000    0.000    0.000    0.000    0.000 
#
# Total GULP energy -134016.236241 kJ/mol
# GULP energy per Si atom -5584.009843 kJ/mol
# Density = 1.895816 g / cm^3
# Si number density = 19.001409 Si / 1000 Ang^3
#
#
#
# Elastic Constant Matrix: (Units=GPa)
#
#
# Indices 1 2 3 4 5 6 
#
# 1 35.4784 4.4240 1.3497 0.0000 0.0000 0.0000
# 2 4.4240 56.3111 7.6020 0.0000 0.0000 0.0000
# 3 1.3497 7.6020 20.3935 0.0000 0.0000 0.0000
# 4 0.0000 0.0000 0.0000 30.5554 0.0000 0.0000
# 5 0.0000 0.0000 0.0000 0.0000 24.4662 0.0000
# 6 0.0000 0.0000 0.0000 0.0000 0.0000 14.7468
#
#
#
# Elastic Compliance Matrix: (Units=1/GPa)
#
#
# Indices 1 2 3 4 5 6 
#
# 1 0.028489 -0.002089 -0.001107 0.000000 0.000000 0.000000
# 2 -0.002089 0.018853 -0.006889 0.000000 0.000000 0.000000
# 3 -0.001107 -0.006889 0.051677 0.000000 0.000000 0.000000
# 4 0.000000 0.000000 0.000000 0.032727 0.000000 0.000000
# 5 0.000000 0.000000 0.000000 0.000000 0.040873 0.000000
# 6 0.000000 0.000000 0.000000 0.000000 0.000000 0.067811
#
#
# Mechanical properties :
#
#
# Convention : Reuss Voigt Hill
#
# Bulk Modulus (GPa) = 12.68261 15.43715 14.05988
# Shear Modulus (GPa) = 17.42877 20.54085 18.98481
#
# Velocity S-wave (km/s) = 3.03188 3.29145 3.16432
# Velocity P-wave (km/s) = 4.35263 4.75255 4.55698
#
# Compressibility (1/GPa) = 0.07884812
#
# Stress axis : x y z
#
# Youngs Moduli (GPa) = 35.10160 53.04292 19.35110
#
# Poissons Ratio (x) = 0.11079 0.02142
# Poissons Ratio (y) = 0.07332 0.13332
# Poissons Ratio (z) = 0.03885 0.36543
#
# Static dielectric constant tensor:
#      x y z
#    x 1.682940 0.000000 0.000000 
#    y 0.000000 1.609880 0.000000 
#    z 0.000000 0.000000 1.631520 
# 
# From -- ./inp_files/5677.got.cif
#   From: 2010.05.17/outbox.cif.g08.bks.cpg/sg46_3_cif.got.tgz:5677.got - 2010.06.03 19:58:25.
