data_PCOD9378548
_publ_section_title
;
Structure prediction by ZEFSAII (Michael W. Deem and Ramdas Pophale) SiO2 
 PCOD9378548
Probable space group: I M A 2
;
_chemical_formula_sum "Si O2"
_cell_formula_units_Z 64
_cell_length_a 7.561225
_cell_length_b 21.281461
_cell_length_c 16.440929
_cell_angle_alpha 90.000000
_cell_angle_beta 90.000000
_cell_angle_gamma 90.000000
_cell_volume 2645.574251
_symmetry_space_group_name_H-M "I M A 2"
_symmetry_group_IT_number 46
_symmetry_cell_setting 'orthorhombic'
loop_
_space_group_symop_operation_xyz
x,y,z
-x,-y,z
1/2-x,y,z
1/2+x,-y,z
1/2+x,1/2+y,1/2+z
1/2-x,1/2-y,1/2+z
-x,1/2+y,1/2+z
x,1/2-y,1/2+z
loop_
_atom_site_type_symbol
_atom_site_label
_atom_site_fract_x
_atom_site_fract_y
_atom_site_fract_z
Si Si1 0.961468 0.074576 0.901170
Si Si2 0.459635 0.068171 0.408307
Si Si3 0.546097 0.694088 0.149916
Si Si4 0.449788 0.244264 0.813614
Si Si5 0.462454 0.925538 0.075989
Si Si6 0.039428 0.573355 0.221262
Si Si7 0.456150 0.875323 0.247060
Si Si8 0.532215 0.796433 0.474511
O O1 0.750000 0.083712 0.899727
O O2 0.027751 0.093694 0.811923
O O3 0.029997 0.098940 0.988193
O O4 0.000000 0.000000 0.903689
O O5 0.250000 0.073460 0.403879
O O6 0.532147 0.071426 0.315998
O O7 0.523734 0.131882 0.452879
O O8 0.500000 0.000000 0.445401
O O9 0.750000 0.715520 0.153540
O O10 0.459953 0.713494 0.235280
O O11 0.541612 0.618612 0.153711
O O12 0.471194 0.718606 0.065485
O O13 0.250000 0.219793 0.822537
O O14 0.443797 0.316861 0.785928
O O15 0.529953 0.249156 0.903642
O O16 0.250000 0.918749 0.075319
O O17 0.527388 0.893867 0.158731
O O18 0.500000 0.000000 0.081069
O O19 0.250000 0.580535 0.219023
O O20 0.000000 0.500000 0.210656
O O21 0.250000 0.858031 0.238697
O O22 0.750000 0.795465 0.474100
#
# Coordination Sequence:
#
# PCOD9378548 Si02
#       8
#     8   8   8   8   8   8   8   8
#     4   8  15  29  46  65  96 135 169 206 252 302
#     4  10  19  32  51  76 108 144 181 220 267 322
#     4  10  20  37  60  82 107 140 178 221 268 318
#     4   9  19  37  57  76 103 140 178 221 268 316
#     4   9  17  28  44  68  99 137 176 217 263 313
#     4  10  20  35  56  81 111 142 176 217 265 321
#     4  10  19  31  49  73 104 140 180 226 270 317
#     4   8  17  35  56  77 106 142 179 220 265 317
#
# _framework density 24.191343
#
# number of rings (size 3 to 8) (size 9 to 14) (size 15 to 20)
#    0.000    2.750    0.000    2.250    0.000    3.500 
#    2.250    4.375    0.000    0.000    0.000    0.000 
#    0.000    0.000    0.000    0.000    0.000    0.000 
#
# Total GULP energy -178551.171745 kJ/mol
# GULP energy per Si atom -5579.724117 kJ/mol
# Density = 2.413628 g / cm^3
# Si number density = 24.191343 Si / 1000 Ang^3
#
#
#
# Elastic Constant Matrix: (Units=GPa)
#
#
# Indices 1 2 3 4 5 6 
#
# 1 78.6973 3.3090 0.1795 0.0000 0.0000 0.0000
# 2 3.3090 40.6995 27.7436 0.0000 0.0000 0.0000
# 3 0.1795 27.7436 177.1666 0.0000 0.0000 0.0000
# 4 0.0000 0.0000 0.0000 25.3384 0.0000 0.0000
# 5 0.0000 0.0000 0.0000 0.0000 -2.0790 0.0000
# 6 0.0000 0.0000 0.0000 0.0000 0.0000 17.1272
#
#
#
# Elastic Compliance Matrix: (Units=1/GPa)
#
#
# Indices 1 2 3 4 5 6 
#
# 1 0.012755 -0.001151 0.000167 0.000000 0.000000 0.000000
# 2 -0.001151 0.027610 -0.004323 0.000000 0.000000 0.000000
# 3 0.000167 -0.004323 0.006321 0.000000 0.000000 0.000000
# 4 0.000000 0.000000 0.000000 0.039466 0.000000 0.000000
# 5 0.000000 0.000000 0.000000 0.000000 -0.481002 0.000000
# 6 0.000000 0.000000 0.000000 0.000000 0.000000 0.058387
#
#
# Mechanical properties :
#
#
# Convention : Reuss Voigt Hill
#
# Bulk Modulus (GPa) = 27.72079 39.89193 33.80636
# Shear Modulus (GPa) = -15.93240 25.76606 4.91683
#
# Velocity S-wave (km/s) = -2.56910 3.26712 1.42720
# Velocity P-wave (km/s) = 1.63813 5.54599 4.08910
#
# Compressibility (1/GPa) = 0.03607401
#
# Stress axis : x y z
#
# Youngs Moduli (GPa) = 78.40100 36.21814 158.19967
#
# Poissons Ratio (x) = 0.04169 -0.02647
# Poissons Ratio (y) = 0.09025 0.68382
# Poissons Ratio (z) = -0.01312 0.15655
#
# Static dielectric constant tensor:
#      x y z
#    x 1.907490 0.000000 0.000000 
#    y 0.000000 1.958370 0.000000 
#    z 0.000000 0.000000 1.991150 
# 
# From -- ./inp_files/14446.got.cif
#   From: 2010.05.17/outbox.cif.g08.bks.cpg/sg46_8_cif.got.tgz:14446.got - 2010.06.03 19:58:25.
