data_PCOD9378296
_publ_section_title
;
Structure prediction by ZEFSAII (Michael W. Deem and Ramdas Pophale) SiO2 
 PCOD9378296
Probable space group: I M A 2
;
_chemical_formula_sum "Si O2"
_cell_formula_units_Z 48
_cell_length_a 23.237332
_cell_length_b 9.533827
_cell_length_c 9.084743
_cell_angle_alpha 90.000000
_cell_angle_beta 90.000000
_cell_angle_gamma 90.000000
_cell_volume 2012.640353
_symmetry_space_group_name_H-M "I M A 2"
_symmetry_group_IT_number 46
_symmetry_cell_setting 'orthorhombic'
loop_
_space_group_symop_operation_xyz
x,y,z
-x,-y,z
1/2-x,y,z
1/2+x,-y,z
1/2+x,1/2+y,1/2+z
1/2-x,1/2-y,1/2+z
-x,1/2+y,1/2+z
x,1/2-y,1/2+z
loop_
_atom_site_type_symbol
_atom_site_label
_atom_site_fract_x
_atom_site_fract_y
_atom_site_fract_z
Si Si1 0.975268 0.818818 0.035010
Si Si2 0.948670 0.325720 0.262797
Si Si3 0.683473 0.489437 0.786310
Si Si4 0.815876 0.672055 0.266823
Si Si5 0.376492 0.528639 0.497864
Si Si6 0.100584 0.455582 0.034543
O O1 0.929393 0.939808 0.068372
O O2 0.943633 0.670328 0.007320
O O3 0.024131 0.797633 0.160366
O O4 0.999431 0.853301 0.874310
O O5 0.896884 0.350862 0.383153
O O6 0.931809 0.436972 0.139485
O O7 0.750000 0.452165 0.823950
O O8 0.681451 0.659831 0.773162
O O9 0.664275 0.423530 0.630607
O O10 0.632131 0.464925 0.901995
O O11 0.750000 0.630315 0.261060
O O12 0.844692 0.591485 0.402480
O O13 0.848220 0.618024 0.123911
#
# Coordination Sequence:
#
# PCOD9378296 Si02
#       6
#     8   8   8   8   8   8
#     4  12  20  40  59  84 123 164 194 250 282 344
#     4  11  27  40  61  87 122 162 209 240 296 353
#     4  11  20  33  57  91 124 157 188 240 312 369
#     4  10  18  33  56  88 126 163 189 232 304 373
#     4  11  21  37  58  91 124 161 197 241 294 360
#     4  11  21  37  58  91 124 161 197 241 294 360
#
# _framework density 23.849267999999999
#
# number of rings (size 3 to 8) (size 9 to 14) (size 15 to 20)
#    0.000    1.000    3.333    6.000    0.000    4.000 
#    0.000    3.333    0.000    0.000    0.000   58.333 
#    0.000    0.000    0.000    0.000    0.000    0.000 
#
# Total GULP energy -134074.011895 kJ/mol
# GULP energy per Si atom -5586.417162 kJ/mol
# Density = 2.379499 g / cm^3
# Si number density = 23.849268 Si / 1000 Ang^3
#
#
#
# Elastic Constant Matrix: (Units=GPa)
#
#
# Indices 1 2 3 4 5 6 
#
# 1 128.4945 55.1765 60.2316 0.0000 0.0000 0.0000
# 2 55.1765 67.4998 30.4527 0.0000 0.0000 0.0000
# 3 60.2316 30.4527 136.7594 0.0000 0.0000 0.0000
# 4 0.0000 0.0000 0.0000 -399.3055 0.0000 0.0000
# 5 0.0000 0.0000 0.0000 0.0000 -19.9688 0.0000
# 6 0.0000 0.0000 0.0000 0.0000 0.0000 15.8238
#
#
#
# Elastic Compliance Matrix: (Units=1/GPa)
#
#
# Indices 1 2 3 4 5 6 
#
# 1 0.013654 -0.009391 -0.003922 0.000000 0.000000 0.000000
# 2 -0.009391 0.022929 -0.000970 0.000000 0.000000 0.000000
# 3 -0.003922 -0.000970 0.009255 0.000000 0.000000 0.000000
# 4 0.000000 0.000000 0.000000 -0.002504 0.000000 0.000000
# 5 0.000000 0.000000 0.000000 0.000000 -0.050078 0.000000
# 6 0.000000 0.000000 0.000000 0.000000 0.000000 0.063196
#
#
# Mechanical properties :
#
#
# Convention : Reuss Voigt Hill
#
# Bulk Modulus (GPa) = 57.89727 69.38614 63.64170
# Shear Modulus (GPa) = 55.08097 -68.23057 -6.57480
#
# Velocity S-wave (km/s) = 4.81099 -5.35455 -1.66217
# Velocity P-wave (km/s) = 7.42899 3.01189 4.80200
#
# Compressibility (1/GPa) = 0.01727197
#
# Stress axis : x y z
#
# Youngs Moduli (GPa) = 73.24025 43.61262 108.04525
#
# Poissons Ratio (x) = 0.40959 0.42377
# Poissons Ratio (y) = 0.68783 0.10475
# Poissons Ratio (z) = 0.28726 0.04228
#
# Static dielectric constant tensor:
#      x y z
#    x 2.011340 0.000000 0.000000 
#    y 0.000000 4.034360 0.000000 
#    z 0.000000 0.000000 1.919250 
# 
# From -- ./inp_files/7820.got.cif
#   From: 2010.05.17/outbox.cif.g08.bks.cpg/sg46_4_cif.got.tgz:7820.got - 2010.06.03 19:58:25.
