data_PCOD9378271
_publ_section_title
;
Structure prediction by ZEFSAII (Michael W. Deem and Ramdas Pophale) SiO2 
 PCOD9378271
Probable space group: I M A 2
;
_chemical_formula_sum "Si O2"
_cell_formula_units_Z 40
_cell_length_a 17.912884
_cell_length_b 19.714878
_cell_length_c 5.220230
_cell_angle_alpha 90.000000
_cell_angle_beta 90.000000
_cell_angle_gamma 90.000000
_cell_volume 1843.525909
_symmetry_space_group_name_H-M "I M A 2"
_symmetry_group_IT_number 46
_symmetry_cell_setting 'orthorhombic'
loop_
_space_group_symop_operation_xyz
x,y,z
-x,-y,z
1/2-x,y,z
1/2+x,-y,z
1/2+x,1/2+y,1/2+z
1/2-x,1/2-y,1/2+z
-x,1/2+y,1/2+z
x,1/2-y,1/2+z
loop_
_atom_site_type_symbol
_atom_site_label
_atom_site_fract_x
_atom_site_fract_y
_atom_site_fract_z
Si Si1 0.384854 0.067712 0.996990
Si Si2 0.641905 0.718129 0.478651
Si Si3 0.476171 0.776688 0.456450
Si Si4 0.520814 0.074934 0.639497
Si Si5 0.836416 0.010813 0.505829
O O1 0.472169 0.074845 0.903334
O O2 0.346135 0.045220 0.730498
O O3 0.353474 0.141213 0.066871
O O4 0.366347 0.017637 0.231568
O O5 0.671527 0.732911 0.197741
O O6 0.553962 0.735186 0.446866
O O7 0.435358 0.754918 0.199970
O O8 0.496642 0.855685 0.491614
O O9 0.500000 0.000000 0.529932
O O10 0.610261 0.069606 0.622963
O O11 0.750000 0.028826 0.477826
#
# Coordination Sequence:
#
# PCOD9378271 Si02
#       5
#     8   8   8   8   8
#     4  11  22  40  66  96 126 173 231 274 318 399
#     4  10  18  32  59  90 127 160 204 274 336 367
#     4  10  20  33  56  91 132 155 199 275 343 364
#     4  10  23  37  65 101 121 165 231 275 312 388
#     4  11  26  44  64  92 143 181 213 272 346 398
#
# _framework density 21.697552000000002
#
# number of rings (size 3 to 8) (size 9 to 14) (size 15 to 20)
#    0.000    1.600    4.000    1.800    8.400   10.400 
#    0.000    0.000    0.000   13.200    0.000    0.000 
#    0.000    0.000    0.000    0.000    0.000    0.000 
#
# Total GULP energy -111363.569795 kJ/mol
# GULP energy per Si atom -5568.178490 kJ/mol
# Density = 2.164817 g / cm^3
# Si number density = 21.697552 Si / 1000 Ang^3
#
#
#
# Elastic Constant Matrix: (Units=GPa)
#
#
# Indices 1 2 3 4 5 6 
#
# 1 107.7092 -3.7929 38.8483 0.0000 0.0000 0.0000
# 2 -3.7929 76.0059 7.4379 0.0000 0.0000 0.0000
# 3 38.8483 7.4379 141.5918 0.0000 0.0000 0.0000
# 4 0.0000 0.0000 0.0000 19.8438 0.0000 0.0000
# 5 0.0000 0.0000 0.0000 0.0000 7.8371 0.0000
# 6 0.0000 0.0000 0.0000 0.0000 0.0000 -13.4364
#
#
#
# Elastic Compliance Matrix: (Units=1/GPa)
#
#
# Indices 1 2 3 4 5 6 
#
# 1 0.010352 0.000799 -0.002882 0.000000 0.000000 0.000000
# 2 0.000799 0.013286 -0.000917 0.000000 0.000000 0.000000
# 3 -0.002882 -0.000917 0.007902 0.000000 0.000000 0.000000
# 4 0.000000 0.000000 0.000000 0.050394 0.000000 0.000000
# 5 0.000000 0.000000 0.000000 0.000000 0.127598 0.000000
# 6 0.000000 0.000000 0.000000 0.000000 0.000000 -0.074424
#
#
# Mechanical properties :
#
#
# Convention : Reuss Voigt Hill
#
# Bulk Modulus (GPa) = 39.15630 45.58816 42.37223
# Shear Modulus (GPa) = 33.41771 21.70314 27.56043
#
# Velocity S-wave (km/s) = 3.92875 3.16612 3.56787
# Velocity P-wave (km/s) = 6.21817 5.86703 6.04515
#
# Compressibility (1/GPa) = 0.02553867
#
# Stress axis : x y z
#
# Youngs Moduli (GPa) = 96.60041 75.26452 126.55809
#
# Poissons Ratio (x) = -0.06011 0.36476
# Poissons Ratio (y) = -0.07715 0.11606
# Poissons Ratio (z) = 0.27842 0.06902
#
# Static dielectric constant tensor:
#      x y z
#    x 1.921260 0.000000 0.000000 
#    y 0.000000 1.795300 0.000000 
#    z 0.000000 0.000000 2.071100 
# 
# From -- ./inp_files/1645.got.cif
#   From: 2010.05.17/outbox.cif.g08.bks.cpg/sg46_1_cif.got.tgz:1645.got - 2010.06.03 19:58:25.
