data_PCOD9378803
_publ_section_title
;
Structure prediction by ZEFSAII (Michael W. Deem and Ramdas Pophale) SiO2 
 PCOD9378803
Probable space group: I M A 2
;
_chemical_formula_sum "Si O2"
_cell_formula_units_Z 40
_cell_length_a 8.701145
_cell_length_b 9.275466
_cell_length_c 26.868355
_cell_angle_alpha 90.000000
_cell_angle_beta 90.000000
_cell_angle_gamma 90.000000
_cell_volume 2168.469018
_symmetry_space_group_name_H-M "I M A 2"
_symmetry_group_IT_number 46
_symmetry_cell_setting 'orthorhombic'
loop_
_space_group_symop_operation_xyz
x,y,z
-x,-y,z
1/2-x,y,z
1/2+x,-y,z
1/2+x,1/2+y,1/2+z
1/2-x,1/2-y,1/2+z
-x,1/2+y,1/2+z
x,1/2-y,1/2+z
loop_
_atom_site_type_symbol
_atom_site_label
_atom_site_fract_x
_atom_site_fract_y
_atom_site_fract_z
Si Si1 0.934385 0.162245 0.097680
Si Si2 0.934478 0.837523 0.885032
Si Si3 0.933855 0.837562 0.995477
Si Si4 0.435289 0.839647 0.695209
Si Si5 0.434646 0.839525 0.292893
O O1 0.750000 0.153630 0.096113
O O2 0.982715 0.256115 0.145107
O O3 0.000000 0.000000 0.102630
O O4 0.994420 0.227385 0.045462
O O5 0.750000 0.844056 0.880676
O O6 0.971568 0.778297 0.940608
O O7 0.003881 0.740590 0.841788
O O8 0.000000 0.000000 0.880980
O O9 0.750000 0.842262 0.000569
O O10 0.000000 0.000000 0.994382
O O11 0.250000 0.846336 0.695236
O O12 0.482937 0.750344 0.744016
O O13 0.500000 0.000000 0.696686
O O14 0.250000 0.844229 0.294223
O O15 0.500000 0.000000 0.290145
#
# Coordination Sequence:
#
# PCOD9378803 Si02
#       5
#     8   8   8   8   8
#     4  10  19  33  54  81 110 141 179 220 264 314
#     4  10  20  35  56  83 113 145 183 225 269 319
#     4   9  17  30  51  79 109 142 179 218 262 312
#     4  10  23  39  56  80 108 140 178 221 269 321
#     4  11  23  39  58  81 109 142 181 224 273 326
#
# _framework density 18.446194999999999
#
# number of rings (size 3 to 8) (size 9 to 14) (size 15 to 20)
#    0.000    2.000    0.000    4.800    0.000    7.200 
#    0.000    1.000    0.000    2.400    0.000    0.000 
#    0.000    0.000    0.000    0.000    0.000    0.000 
#
# Total GULP energy -111635.769707 kJ/mol
# GULP energy per Si atom -5581.788485 kJ/mol
# Density = 1.840421 g / cm^3
# Si number density = 18.446195 Si / 1000 Ang^3
#
#
#
# Elastic Constant Matrix: (Units=GPa)
#
#
# Indices 1 2 3 4 5 6 
#
# 1 60.7434 35.8586 64.5831 0.0000 0.0000 0.0000
# 2 35.8586 111.3890 98.1235 0.0000 0.0000 0.0000
# 3 64.5831 98.1235 230.1751 0.0000 0.0000 0.0000
# 4 0.0000 0.0000 0.0000 32.7768 0.0000 0.0000
# 5 0.0000 0.0000 0.0000 0.0000 35.7622 0.0000
# 6 0.0000 0.0000 0.0000 0.0000 0.0000 30.5177
#
#
#
# Elastic Compliance Matrix: (Units=1/GPa)
#
#
# Indices 1 2 3 4 5 6 
#
# 1 0.024024 -0.002876 -0.005515 0.000000 0.000000 0.000000
# 2 -0.002876 0.014721 -0.005468 0.000000 0.000000 0.000000
# 3 -0.005515 -0.005468 0.008223 0.000000 0.000000 0.000000
# 4 0.000000 0.000000 0.000000 0.030509 0.000000 0.000000
# 5 0.000000 0.000000 0.000000 0.000000 0.027962 0.000000
# 6 0.000000 0.000000 0.000000 0.000000 0.000000 0.032768
#
#
# Mechanical properties :
#
#
# Convention : Reuss Voigt Hill
#
# Bulk Modulus (GPa) = 51.94987 88.82642 70.38814
# Shear Modulus (GPa) = 29.01222 33.39417 31.20319
#
# Velocity S-wave (km/s) = 3.97016 4.25944 4.11734
# Velocity P-wave (km/s) = 7.01714 8.51172 7.80031
#
# Compressibility (1/GPa) = 0.01924933
#
# Stress axis : x y z
#
# Youngs Moduli (GPa) = 41.62569 67.93232 121.60989
#
# Poissons Ratio (x) = 0.19536 0.67063
# Poissons Ratio (y) = 0.11971 0.66502
# Poissons Ratio (z) = 0.22955 0.37148
#
# Static dielectric constant tensor:
#      x y z
#    x 1.621260 0.000000 0.000000 
#    y 0.000000 1.591970 0.000000 
#    z 0.000000 0.000000 1.672460 
# 
# From -- ./inp_files/22728.got.cif
#   From: 2010.05.17/outbox.cif.g08.bks.cpg/sg46_12_cif.got.tgz:22728.got - 2010.06.03 19:58:25.
