data_PCOD9378327
_publ_section_title
;
Structure prediction by ZEFSAII (Michael W. Deem and Ramdas Pophale) SiO2 
 PCOD9378327
Probable space group: I M A 2
;
_chemical_formula_sum "Si O2"
_cell_formula_units_Z 64
_cell_length_a 8.586278
_cell_length_b 21.194579
_cell_length_c 20.268100
_cell_angle_alpha 90.000000
_cell_angle_beta 90.000000
_cell_angle_gamma 90.000000
_cell_volume 3688.440469
_symmetry_space_group_name_H-M "I M A 2"
_symmetry_group_IT_number 46
_symmetry_cell_setting 'orthorhombic'
loop_
_space_group_symop_operation_xyz
x,y,z
-x,-y,z
1/2-x,y,z
1/2+x,-y,z
1/2+x,1/2+y,1/2+z
1/2-x,1/2-y,1/2+z
-x,1/2+y,1/2+z
x,1/2-y,1/2+z
loop_
_atom_site_type_symbol
_atom_site_label
_atom_site_fract_x
_atom_site_fract_y
_atom_site_fract_z
Si Si1 0.438689 0.765503 0.507730
Si Si2 0.061251 0.760727 0.361721
Si Si3 0.563289 0.382523 0.506975
Si Si4 0.565193 0.933004 0.142893
Si Si5 0.563176 0.066891 0.729759
Si Si6 0.939844 0.187555 0.645878
Si Si7 0.435480 0.381717 0.364436
Si Si8 0.438043 0.815079 0.223525
O O1 0.250000 0.767766 0.508901
O O2 0.487053 0.785052 0.434088
O O3 0.480377 0.691618 0.516041
O O4 0.494387 0.805021 0.570435
O O5 0.250000 0.753991 0.360961
O O6 0.018224 0.803811 0.299780
O O7 0.992563 0.690563 0.354431
O O8 0.750000 0.386292 0.505734
O O9 0.499322 0.419799 0.569384
O O10 0.497646 0.402716 0.436053
O O11 0.750000 0.935040 0.140515
O O12 0.510088 0.875793 0.189182
O O13 0.500000 0.000000 0.166372
O O14 0.750000 0.066464 0.730188
O O15 0.508474 0.125318 0.684400
O O16 0.503848 0.079072 0.803849
O O17 0.500000 0.000000 0.705801
O O18 0.750000 0.186144 0.645743
O O19 0.983760 0.251251 0.684681
O O20 0.250000 0.384343 0.363744
O O21 0.250000 0.820224 0.219155
#
# Coordination Sequence:
#
# PCOD9378327 Si02
#       8
#     8   8   8   8   8   8   8   8
#     4   8  14  27  52  82 105 135 176 221 264 316
#     4   9  17  31  54  81 110 144 186 225 271 325
#     4  10  19  35  57  79 108 145 183 221 266 325
#     4  12  25  39  55  80 111 146 184 226 276 330
#     4  11  22  37  54  76 107 146 187 229 276 332
#     4   9  16  30  55  81 106 138 183 227 271 320
#     4  11  21  33  51  79 113 146 183 225 270 323
#     4  10  18  34  57  82 108 143 185 230 274 324
#
# _framework density 17.351506000000001
#
# number of rings (size 3 to 8) (size 9 to 14) (size 15 to 20)
#    0.000    2.000    2.500    3.750    0.000    1.000 
#    0.000    2.500    0.000    0.750    0.000    1.750 
#    0.000    0.000    0.000    0.000    0.000    0.000 
#
# Total GULP energy -178603.956696 kJ/mol
# GULP energy per Si atom -5581.373647 kJ/mol
# Density = 1.731201 g / cm^3
# Si number density = 17.351506 Si / 1000 Ang^3
#
#
#
# Elastic Constant Matrix: (Units=GPa)
#
#
# Indices 1 2 3 4 5 6 
#
# 1 53.1919 31.1879 30.0286 0.0000 0.0000 0.0000
# 2 31.1879 115.7825 69.3184 0.0000 0.0000 0.0000
# 3 30.0286 69.3184 125.1717 0.0000 0.0000 0.0000
# 4 0.0000 0.0000 0.0000 22.0987 0.0000 0.0000
# 5 0.0000 0.0000 0.0000 0.0000 16.5214 0.0000
# 6 0.0000 0.0000 0.0000 0.0000 0.0000 23.1169
#
#
#
# Elastic Compliance Matrix: (Units=1/GPa)
#
#
# Indices 1 2 3 4 5 6 
#
# 1 0.023122 -0.004349 -0.003138 0.000000 0.000000 0.000000
# 2 -0.004349 0.013739 -0.006565 0.000000 0.000000 0.000000
# 3 -0.003138 -0.006565 0.012378 0.000000 0.000000 0.000000
# 4 0.000000 0.000000 0.000000 0.045252 0.000000 0.000000
# 5 0.000000 0.000000 0.000000 0.000000 0.060527 0.000000
# 6 0.000000 0.000000 0.000000 0.000000 0.000000 0.043258
#
#
# Mechanical properties :
#
#
# Convention : Reuss Voigt Hill
#
# Bulk Modulus (GPa) = 47.31978 61.69069 54.50523
# Shear Modulus (GPa) = 21.42017 23.25482 22.33749
#
# Velocity S-wave (km/s) = 3.51733 3.66487 3.59186
# Velocity P-wave (km/s) = 6.62012 7.31704 6.97729
#
# Compressibility (1/GPa) = 0.02113281
#
# Stress axis : x y z
#
# Youngs Moduli (GPa) = 43.24956 72.78613 80.79173
#
# Poissons Ratio (x) = 0.31657 0.25355
# Poissons Ratio (y) = 0.18811 0.53040
# Poissons Ratio (z) = 0.13573 0.47784
#
# Static dielectric constant tensor:
#      x y z
#    x 1.585170 0.000000 0.000000 
#    y 0.000000 1.585790 0.000000 
#    z 0.000000 0.000000 1.607010 
# 
# From -- ./inp_files/21308.got.cif
#   From: 2010.05.17/outbox.cif.g08.bks.cpg/sg46_11_cif.got.tgz:21308.got - 2010.06.03 19:58:25.
