data_PCOD9378189
_publ_section_title
;
Structure prediction by ZEFSAII (Michael W. Deem and Ramdas Pophale) SiO2 
 PCOD9378189
Probable space group: I M A 2
;
_chemical_formula_sum "Si O2"
_cell_formula_units_Z 48
_cell_length_a 8.485661
_cell_length_b 29.231585
_cell_length_c 10.613368
_cell_angle_alpha 90.000000
_cell_angle_beta 90.000000
_cell_angle_gamma 90.000000
_cell_volume 2632.638724
_symmetry_space_group_name_H-M "I M A 2"
_symmetry_group_IT_number 46
_symmetry_cell_setting 'orthorhombic'
loop_
_space_group_symop_operation_xyz
x,y,z
-x,-y,z
1/2-x,y,z
1/2+x,-y,z
1/2+x,1/2+y,1/2+z
1/2-x,1/2-y,1/2+z
-x,1/2+y,1/2+z
x,1/2-y,1/2+z
loop_
_atom_site_type_symbol
_atom_site_label
_atom_site_fract_x
_atom_site_fract_y
_atom_site_fract_z
Si Si1 0.559406 0.807057 0.799240
Si Si2 0.061280 0.854035 0.052094
Si Si3 0.561087 0.049046 0.153360
Si Si4 0.561065 0.548940 0.939567
Si Si5 0.442111 0.145188 0.542201
Si Si6 0.940901 0.798860 0.294132
O O1 0.750000 0.807118 0.799122
O O2 0.504377 0.832662 0.672735
O O3 0.508985 0.754030 0.797477
O O4 0.503065 0.832390 0.924276
O O5 0.250000 0.853277 0.049359
O O6 0.010084 0.906671 0.074305
O O7 0.003717 0.824710 0.171583
O O8 0.750000 0.047694 0.157751
O O9 0.499028 0.054796 0.296272
O O10 0.500000 0.000000 0.106438
O O11 0.500000 0.500000 0.986157
O O12 0.750000 0.547962 0.936068
O O13 0.508831 0.592828 0.019618
O O14 0.250000 0.145796 0.543313
O O15 0.491229 0.175023 0.421210
O O16 0.750000 0.800025 0.289408
#
# Coordination Sequence:
#
# PCOD9378189 Si02
#       6
#     8   8   8   8   8   8
#     4  10  21  37  58  81 109 147 189 228 267 320
#     4  11  23  37  54  83 118 147 179 224 282 335
#     4  10  20  34  54  80 108 140 181 226 272 325
#     4  10  18  31  53  79 108 137 175 226 274 322
#     4   9  18  33  54  82 108 136 178 228 273 314
#     4  10  19  36  61  83 105 141 190 234 268 316
#
# _framework density 18.232658000000001
#
# number of rings (size 3 to 8) (size 9 to 14) (size 15 to 20)
#    0.000    2.000    1.667    3.500    0.000    5.333 
#    0.000    3.333    0.000    4.000    0.000    0.000 
#    0.000    0.000    0.000    0.000    0.000    0.000 
#
# Total GULP energy -133992.637236 kJ/mol
# GULP energy per Si atom -5583.026552 kJ/mol
# Density = 1.819116 g / cm^3
# Si number density = 18.232658 Si / 1000 Ang^3
#
#
#
# Elastic Constant Matrix: (Units=GPa)
#
#
# Indices 1 2 3 4 5 6 
#
# 1 24.0663 33.6861 17.9754 0.0000 0.0000 0.0000
# 2 33.6861 220.5005 108.1102 -0.0004 0.0000 0.0000
# 3 17.9754 108.1102 152.1531 -0.0004 -0.0001 0.0000
# 4 0.0000 -0.0004 -0.0004 2.1110 0.0002 0.0000
# 5 0.0000 0.0000 -0.0001 0.0002 13.6959 -0.0001
# 6 0.0000 0.0000 0.0000 0.0000 -0.0001 22.1517
#
#
#
# Elastic Compliance Matrix: (Units=1/GPa)
#
#
# Indices 1 2 3 4 5 6 
#
# 1 0.052914 -0.007702 -0.000779 -0.000001 0.000000 0.000000
# 2 -0.007702 0.008081 -0.004832 0.000001 0.000000 0.000000
# 3 -0.000779 -0.004832 0.010097 0.000001 0.000000 0.000000
# 4 -0.000001 0.000001 0.000001 0.473705 -0.000007 0.000000
# 5 0.000000 0.000000 0.000000 -0.000007 0.073014 0.000000
# 6 0.000000 0.000000 0.000000 0.000000 0.000000 0.045143
#
#
# Mechanical properties :
#
#
# Convention : Reuss Voigt Hill
#
# Bulk Modulus (GPa) = 22.48844 79.58482 51.03663
# Shear Modulus (GPa) = 7.09822 23.38828 15.24325
#
# Velocity S-wave (km/s) = 1.97524 3.58546 2.89457
# Velocity P-wave (km/s) = 4.19083 7.80289 6.26291
#
# Compressibility (1/GPa) = 0.04446729
#
# Stress axis : x y z
#
# Youngs Moduli (GPa) = 18.89860 123.75108 99.03478
#
# Poissons Ratio (x) = 0.95311 0.07713
# Poissons Ratio (y) = 0.14555 0.47851
# Poissons Ratio (z) = 0.01472 0.59793
#
# Static dielectric constant tensor:
#      x y z
#    x 1.625550 0.000000 0.000000 
#    y 0.000000 1.640470 0.000000 
#    z 0.000000 0.000000 1.583350 
# 
# From -- ./inp_files/3912.got.cif
#   From: 2010.05.17/outbox.cif.g08.bks.cpg/sg46_2_cif.got.tgz:3912.got - 2010.06.03 19:58:25.
