data_PCOD9378352
_publ_section_title
;
Structure prediction by ZEFSAII (Michael W. Deem and Ramdas Pophale) SiO2 
 PCOD9378352
Probable space group: I M A 2
;
_chemical_formula_sum "Si O2"
_cell_formula_units_Z 56
_cell_length_a 13.944516
_cell_length_b 9.073840
_cell_length_c 21.606413
_cell_angle_alpha 90.000000
_cell_angle_beta 90.000000
_cell_angle_gamma 90.000000
_cell_volume 2733.866071
_symmetry_space_group_name_H-M "I M A 2"
_symmetry_group_IT_number 46
_symmetry_cell_setting 'orthorhombic'
loop_
_space_group_symop_operation_xyz
x,y,z
-x,-y,z
1/2-x,y,z
1/2+x,-y,z
1/2+x,1/2+y,1/2+z
1/2-x,1/2-y,1/2+z
-x,1/2+y,1/2+z
x,1/2-y,1/2+z
loop_
_atom_site_type_symbol
_atom_site_label
_atom_site_fract_x
_atom_site_fract_y
_atom_site_fract_z
Si Si1 0.861748 0.788857 0.093360
Si Si2 0.031517 0.334926 0.465325
Si Si3 0.646308 0.049232 0.642389
Si Si4 0.511452 0.204156 0.191707
Si Si5 0.143309 0.107730 0.394440
Si Si6 0.596409 0.093523 0.509461
Si Si7 0.136855 0.457899 0.758327
O O1 0.750000 0.838733 0.101327
O O2 0.863764 0.622634 0.122487
O O3 0.953812 0.850530 0.130477
O O4 0.891727 0.809652 0.021651
O O5 0.072818 0.241870 0.408230
O O6 0.000000 0.500000 0.453952
O O7 0.936401 0.249420 0.485285
O O8 0.750000 0.067078 0.673500
O O9 0.564549 0.141279 0.678056
O O10 0.648776 0.117025 0.573481
O O11 0.423149 0.188833 0.240140
O O12 0.590532 0.090945 0.218910
O O13 0.250000 0.168173 0.387390
O O14 0.121335 0.020788 0.331561
O O15 0.141003 0.000613 0.454015
O O16 0.500000 0.000000 0.525289
O O17 0.250000 0.443803 0.746104
#
# Coordination Sequence:
#
# PCOD9378352 Si02
#       7
#     8   8   8   8   8   8   8
#     4  11  22  39  64  94 132 178 213 259 328 401
#     4  11  23  37  62 102 135 165 210 273 340 397
#     4  11  20  36  62  96 132 167 210 267 326 389
#     4  11  22  37  59  94 128 168 223 274 312 378
#     4  10  21  43  71  95 122 168 227 277 328 403
#     4  10  18  34  65  94 128 164 214 261 331 395
#     4  10  24  42  65  91 125 175 226 271 323 384
#
# _framework density 20.483812
#
# number of rings (size 3 to 8) (size 9 to 14) (size 15 to 20)
#    0.000    1.429    4.286    2.143    8.000    0.000 
#    0.000    5.714    0.000    0.000    0.000    0.000 
#    0.000    0.000    0.000    0.000    0.000    0.000 
#
# Total GULP energy -155878.328304 kJ/mol
# GULP energy per Si atom -5567.083154 kJ/mol
# Density = 2.043719 g / cm^3
# Si number density = 20.483812 Si / 1000 Ang^3
#
#
#
# Elastic Constant Matrix: (Units=GPa)
#
#
# Indices 1 2 3 4 5 6 
#
# 1 135.0991 36.7603 26.6509 0.0000 0.0000 0.0000
# 2 36.7603 105.8083 12.9357 0.0000 0.0000 0.0000
# 3 26.6509 12.9357 69.6668 0.0000 0.0000 0.0000
# 4 0.0000 0.0000 0.0000 22.2725 0.0000 0.0000
# 5 0.0000 0.0000 0.0000 0.0000 28.6496 0.0000
# 6 0.0000 0.0000 0.0000 0.0000 0.0000 7.0724
#
#
#
# Elastic Compliance Matrix: (Units=1/GPa)
#
#
# Indices 1 2 3 4 5 6 
#
# 1 0.008687 -0.002672 -0.002827 0.000000 0.000000 0.000000
# 2 -0.002672 0.010493 -0.000926 0.000000 0.000000 0.000000
# 3 -0.002827 -0.000926 0.015607 0.000000 0.000000 0.000000
# 4 0.000000 0.000000 0.000000 0.044898 0.000000 0.000000
# 5 0.000000 0.000000 0.000000 0.000000 0.034904 0.000000
# 6 0.000000 0.000000 0.000000 0.000000 0.000000 0.141394
#
#
# Mechanical properties :
#
#
# Convention : Reuss Voigt Hill
#
# Bulk Modulus (GPa) = 45.58636 51.47421 48.53028
# Shear Modulus (GPa) = 18.10631 27.21407 22.66019
#
# Velocity S-wave (km/s) = 2.97633 3.64890 3.32964
# Velocity P-wave (km/s) = 5.84076 6.55259 6.20689
#
# Compressibility (1/GPa) = 0.02193639
#
# Stress axis : x y z
#
# Youngs Moduli (GPa) = 115.11732 95.30431 64.07215
#
# Poissons Ratio (x) = 0.25469 0.18113
# Poissons Ratio (y) = 0.30764 0.05933
# Poissons Ratio (z) = 0.32543 0.08825
#
# Static dielectric constant tensor:
#      x y z
#    x 1.796790 0.000000 0.000000 
#    y 0.000000 1.794650 0.000000 
#    z 0.000000 0.000000 1.792170 
# 
# From -- ./inp_files/22007.got.cif
#   From: 2010.05.17/outbox.cif.g08.bks.cpg/sg46_12_cif.got.tgz:22007.got - 2010.06.03 19:58:25.
