data_PCOD9378901
_publ_section_title
;
Structure prediction by ZEFSAII (Michael W. Deem and Ramdas Pophale) SiO2 
 PCOD9378901
Probable space group: I M A 2
;
_chemical_formula_sum "Si O2"
_cell_formula_units_Z 64
_cell_length_a 8.910418
_cell_length_b 26.131855
_cell_length_c 13.607344
_cell_angle_alpha 90.000000
_cell_angle_beta 90.000000
_cell_angle_gamma 90.000000
_cell_volume 3168.412235
_symmetry_space_group_name_H-M "I M A 2"
_symmetry_group_IT_number 46
_symmetry_cell_setting 'orthorhombic'
loop_
_space_group_symop_operation_xyz
x,y,z
-x,-y,z
1/2-x,y,z
1/2+x,-y,z
1/2+x,1/2+y,1/2+z
1/2-x,1/2-y,1/2+z
-x,1/2+y,1/2+z
x,1/2-y,1/2+z
loop_
_atom_site_type_symbol
_atom_site_label
_atom_site_fract_x
_atom_site_fract_y
_atom_site_fract_z
Si Si1 0.086299 0.330892 0.203050
Si Si2 0.915968 0.652238 0.427501
Si Si3 0.918177 0.425264 0.172086
Si Si4 0.073684 0.765528 0.032948
Si Si5 0.573310 0.790266 0.227665
Si Si6 0.575875 0.447122 0.405207
Si Si7 0.926277 0.946870 0.481256
Si Si8 0.431700 0.663201 0.925198
O O1 0.250000 0.337220 0.151865
O O2 0.103148 0.353840 0.311444
O O3 0.060787 0.271555 0.224030
O O4 0.948733 0.364208 0.163949
O O5 0.750000 0.663167 0.468973
O O6 0.029241 0.698914 0.442052
O O7 0.989447 0.599122 0.457670
O O8 0.750000 0.437231 0.136753
O O9 0.930173 0.442090 0.285330
O O10 0.042209 0.447153 0.098901
O O11 0.250000 0.762171 0.050266
O O12 0.018890 0.708180 0.003497
O O13 0.999233 0.798433 0.120856
O O14 0.750000 0.803001 0.232411
O O15 0.489315 0.815938 0.319166
O O16 0.500000 0.500000 0.431958
O O17 0.750000 0.445267 0.431167
O O18 0.750000 0.946027 0.460753
O O19 0.001581 0.893426 0.444863
O O20 0.000000 0.000000 0.443178
O O21 0.250000 0.661363 0.926519
#
# Coordination Sequence:
#
# PCOD9378901 Si02
#       8
#     8   8   8   8   8   8   8   8
#     4   9  18  32  52  80 114 153 192 235 287 346
#     4  10  19  34  55  79 111 150 191 238 290 347
#     4  10  20  33  53  82 117 155 198 244 295 355
#     4  11  23  38  59  89 123 160 200 248 303 362
#     4  11  22  37  59  87 120 158 199 245 297 355
#     4  10  20  33  51  78 112 153 197 244 296 357
#     4  12  25  41  61  84 116 156 202 252 305 363
#     4  11  24  42  64  91 124 161 204 254 308 365
#
# _framework density 20.199392
#
# number of rings (size 3 to 8) (size 9 to 14) (size 15 to 20)
#    0.000    1.500    1.250    4.500    0.000    7.500 
#    0.000    0.000    0.000    0.750    0.000    5.250 
#    0.000    0.000    0.000    0.000    0.000    0.000 
#
# Total GULP energy -178330.007502 kJ/mol
# GULP energy per Si atom -5572.812734 kJ/mol
# Density = 2.015342 g / cm^3
# Si number density = 20.199392 Si / 1000 Ang^3
#
#
#
# Elastic Constant Matrix: (Units=GPa)
#
#
# Indices 1 2 3 4 5 6 
#
# 1 63.2935 26.5881 8.3403 0.0002 0.0000 0.0000
# 2 26.5881 113.1697 -2.0011 0.0003 0.0000 0.0000
# 3 8.3403 -2.0011 41.3850 0.0007 0.0000 -0.0001
# 4 0.0002 0.0003 0.0007 252.2090 0.0000 -0.0002
# 5 0.0000 0.0000 0.0000 0.0000 22.2307 0.0000
# 6 0.0000 0.0000 -0.0001 -0.0002 0.0000 18.8998
#
#
#
# Elastic Compliance Matrix: (Units=1/GPa)
#
#
# Indices 1 2 3 4 5 6 
#
# 1 0.018126 -0.004327 -0.003862 0.000000 0.000000 0.000000
# 2 -0.004327 0.009877 0.001350 0.000000 0.000000 0.000000
# 3 -0.003862 0.001350 0.025007 0.000000 0.000000 0.000000
# 4 0.000000 0.000000 0.000000 0.003965 0.000000 0.000000
# 5 0.000000 0.000000 0.000000 0.000000 0.044983 0.000000
# 6 0.000000 0.000000 0.000000 0.000000 0.000000 0.052910
#
#
# Mechanical properties :
#
#
# Convention : Reuss Voigt Hill
#
# Bulk Modulus (GPa) = 25.42536 31.52253 28.47394
# Shear Modulus (GPa) = 27.52443 70.99597 49.26020
#
# Velocity S-wave (km/s) = 3.69540 5.93497 4.94367
# Velocity P-wave (km/s) = 5.55180 7.91232 6.83473
#
# Compressibility (1/GPa) = 0.03933082
#
# Stress axis : x y z
#
# Youngs Moduli (GPa) = 55.16958 101.24850 39.98887
#
# Poissons Ratio (x) = 0.43808 0.15444
# Poissons Ratio (y) = 0.23871 -0.05397
# Poissons Ratio (z) = 0.21307 -0.13664
#
# Static dielectric constant tensor:
#      x y z
#    x 1.733160 0.000000 0.000000 
#    y 0.000000 1.600140 0.000000 
#    z 0.000000 0.000000 1.824050 
# 
# From -- ./inp_files/14520.got.cif
#   From: 2010.05.17/outbox.cif.g08.bks.cpg/sg46_8_cif.got.tgz:14520.got - 2010.06.03 19:58:25.
