data_PCOD9378905
_publ_section_title
;
Structure prediction by ZEFSAII (Michael W. Deem and Ramdas Pophale) SiO2 
 PCOD9378905
Probable space group: I M A 2
;
_chemical_formula_sum "Si O2"
_cell_formula_units_Z 48
_cell_length_a 27.785802
_cell_length_b 5.039641
_cell_length_c 16.122918
_cell_angle_alpha 90.000000
_cell_angle_beta 90.000000
_cell_angle_gamma 90.000000
_cell_volume 2257.699737
_symmetry_space_group_name_H-M "I M A 2"
_symmetry_group_IT_number 46
_symmetry_cell_setting 'orthorhombic'
loop_
_space_group_symop_operation_xyz
x,y,z
-x,-y,z
1/2-x,y,z
1/2+x,-y,z
1/2+x,1/2+y,1/2+z
1/2-x,1/2-y,1/2+z
-x,1/2+y,1/2+z
x,1/2-y,1/2+z
loop_
_atom_site_type_symbol
_atom_site_label
_atom_site_fract_x
_atom_site_fract_y
_atom_site_fract_z
Si Si1 0.802159 0.111574 0.002570
Si Si2 0.453861 0.357734 0.655844
Si Si3 0.097066 0.865497 0.903413
Si Si4 0.566188 0.639778 0.989913
Si Si5 0.601909 0.354426 0.212648
Si Si6 0.833050 0.885086 0.590893
O O1 0.750000 0.057041 0.962649
O O2 0.802211 0.400294 0.042583
O O3 0.810044 0.900077 0.076876
O O4 0.849477 0.108158 0.944160
O O5 0.500000 0.500000 0.694125
O O6 0.466804 0.257125 0.562848
O O7 0.413565 0.592790 0.660150
O O8 0.436569 0.092384 0.701165
O O9 0.064043 0.650627 0.951229
O O10 0.103453 0.783283 0.808667
O O11 0.072220 0.148817 0.916980
O O12 0.616272 0.629840 0.041639
O O13 0.650776 0.490454 0.178297
#
# Coordination Sequence:
#
# PCOD9378905 Si02
#       6
#     8   8   8   8   8   8
#     4  10  19  34  55  81 110 146 192 240 278 325
#     4  11  22  38  60  85 113 150 196 243 284 334
#     4  10  20  35  58  82 111 149 188 230 287 346
#     4   9  18  35  56  79 105 145 192 225 271 347
#     4  11  21  37  59  84 116 154 191 235 291 353
#     4   9  18  33  55  77 104 146 189 223 273 345
#
# _framework density 21.260576
#
# number of rings (size 3 to 8) (size 9 to 14) (size 15 to 20)
#    0.000    2.000    0.000    7.000    0.000    0.000 
#    0.000    5.000    0.000    2.000    0.000    0.000 
#    0.000    0.000    0.000    0.000    0.000    0.000 
#
# Total GULP energy -133797.017482 kJ/mol
# GULP energy per Si atom -5574.875728 kJ/mol
# Density = 2.121219 g / cm^3
# Si number density = 21.260576 Si / 1000 Ang^3
#
#
#
# Elastic Constant Matrix: (Units=GPa)
#
#
# Indices 1 2 3 4 5 6 
#
# 1 45.3530 26.0563 7.1210 0.0000 0.0000 0.0000
# 2 26.0563 130.0049 21.7591 0.0000 0.0000 0.0000
# 3 7.1210 21.7591 92.9749 0.0000 0.0000 0.0000
# 4 0.0000 0.0000 0.0000 24.7039 0.0000 0.0000
# 5 0.0000 0.0000 0.0000 0.0000 8.0938 0.0000
# 6 0.0000 0.0000 0.0000 0.0000 0.0000 13.6044
#
#
#
# Elastic Compliance Matrix: (Units=1/GPa)
#
#
# Indices 1 2 3 4 5 6 
#
# 1 0.024972 -0.004876 -0.000771 0.000000 0.000000 0.000000
# 2 -0.004876 0.008958 -0.001723 0.000000 0.000000 0.000000
# 3 -0.000771 -0.001723 0.011218 0.000000 0.000000 0.000000
# 4 0.000000 0.000000 0.000000 0.040479 0.000000 0.000000
# 5 0.000000 0.000000 0.000000 0.000000 0.123551 0.000000
# 6 0.000000 0.000000 0.000000 0.000000 0.000000 0.073506
#
#
# Mechanical properties :
#
#
# Convention : Reuss Voigt Hill
#
# Bulk Modulus (GPa) = 32.88749 42.02285 37.45517
# Shear Modulus (GPa) = 16.25700 23.50685 19.88192
#
# Velocity S-wave (km/s) = 2.76824 3.32875 3.06135
# Velocity P-wave (km/s) = 5.07148 5.88070 5.49101
#
# Compressibility (1/GPa) = 0.03040670
#
# Stress axis : x y z
#
# Youngs Moduli (GPa) = 40.04533 111.63669 89.14328
#
# Poissons Ratio (x) = 0.54432 0.06877
# Poissons Ratio (y) = 0.19525 0.15359
# Poissons Ratio (z) = 0.03089 0.19234
#
# Static dielectric constant tensor:
#      x y z
#    x 1.878360 0.000000 0.000000 
#    y 0.000000 1.780070 0.000000 
#    z 0.000000 0.000000 1.775420 
# 
# From -- ./inp_files/17646.got.cif
#   From: 2010.05.17/outbox.cif.g08.bks.cpg/sg46_9_cif.got.tgz:17646.got - 2010.06.03 19:58:25.
