data_PCOD9378051
_publ_section_title
;
Structure prediction by ZEFSAII (Michael W. Deem and Ramdas Pophale) SiO2 
 PCOD9378051
Probable space group: I M A 2
;
_chemical_formula_sum "Si O2"
_cell_formula_units_Z 56
_cell_length_a 8.674318
_cell_length_b 18.917242
_cell_length_c 21.378174
_cell_angle_alpha 90.000000
_cell_angle_beta 90.000000
_cell_angle_gamma 90.000000
_cell_volume 3508.033778
_symmetry_space_group_name_H-M "I M A 2"
_symmetry_group_IT_number 46
_symmetry_cell_setting 'orthorhombic'
loop_
_space_group_symop_operation_xyz
x,y,z
-x,-y,z
1/2-x,y,z
1/2+x,-y,z
1/2+x,1/2+y,1/2+z
1/2-x,1/2-y,1/2+z
-x,1/2+y,1/2+z
x,1/2-y,1/2+z
loop_
_atom_site_type_symbol
_atom_site_label
_atom_site_fract_x
_atom_site_fract_y
_atom_site_fract_z
Si Si1 0.072517 0.211759 0.893720
Si Si2 0.934969 0.421183 0.074405
Si Si3 0.433695 0.577086 0.822722
Si Si4 0.427496 0.208737 0.258991
Si Si5 0.565742 0.155470 0.703764
Si Si6 0.563705 0.578077 0.325673
Si Si7 0.063428 0.352777 0.948650
O O1 0.250000 0.200573 0.912913
O O2 0.072828 0.251159 0.826319
O O3 0.006130 0.134836 0.877771
O O4 0.006397 0.271478 0.939498
O O5 0.750000 0.423964 0.068429
O O6 0.973833 0.376624 0.136447
O O7 0.000000 0.500000 0.081077
O O8 0.005950 0.385933 0.012774
O O9 0.500000 0.500000 0.808373
O O10 0.250000 0.575011 0.826709
O O11 0.486615 0.635528 0.772205
O O12 0.501302 0.602631 0.889653
O O13 0.250000 0.196399 0.241651
O O14 0.506651 0.264562 0.212959
O O15 0.750000 0.153681 0.711615
O O16 0.491218 0.107952 0.758578
O O17 0.500000 0.500000 0.335530
O O18 0.750000 0.578098 0.326178
O O19 0.250000 0.353016 0.945647
#
# Coordination Sequence:
#
# PCOD9378051 Si02
#       7
#     8   8   8   8   8   8   8
#     4   7  14  28  45  64  87 116 148 186 229 277
#     4  11  23  35  47  67  95 127 163 198 233 277
#     4  11  20  31  48  71  99 127 157 194 238 283
#     4   9  17  31  49  69  93 121 155 193 236 283
#     4  10  20  33  48  67  93 126 161 195 234 279
#     4  10  18  29  46  69  96 122 152 191 235 282
#     4  10  19  33  50  67  91 125 163 199 238 281
#
# _framework density 15.963357
#
# number of rings (size 3 to 8) (size 9 to 14) (size 15 to 20)
#    0.000    2.286    0.000    6.000    0.000    3.429 
#    0.000    2.143    0.000    0.000    0.000    1.000 
#    0.000    4.571    0.000    0.000    0.000    0.000 
#
# Total GULP energy -156074.860168 kJ/mol
# GULP energy per Si atom -5574.102149 kJ/mol
# Density = 1.592702 g / cm^3
# Si number density = 15.963357 Si / 1000 Ang^3
#
#
#
# Elastic Constant Matrix: (Units=GPa)
#
#
# Indices 1 2 3 4 5 6 
#
# 1 78.6724 55.3470 35.9708 0.0000 0.0000 0.0000
# 2 55.3470 169.9481 66.0442 0.0000 0.0000 0.0000
# 3 35.9708 66.0442 70.7291 0.0000 0.0000 0.0000
# 4 0.0000 0.0000 0.0000 26.4550 0.0000 0.0000
# 5 0.0000 0.0000 0.0000 0.0000 17.1762 0.0000
# 6 0.0000 0.0000 0.0000 0.0000 0.0000 24.7297
#
#
#
# Elastic Compliance Matrix: (Units=1/GPa)
#
#
# Indices 1 2 3 4 5 6 
#
# 1 0.017855 -0.003588 -0.005730 0.000000 0.000000 0.000000
# 2 -0.003588 0.009956 -0.007472 0.000000 0.000000 0.000000
# 3 -0.005730 -0.007472 0.024030 0.000000 0.000000 0.000000
# 4 0.000000 0.000000 0.000000 0.037800 0.000000 0.000000
# 5 0.000000 0.000000 0.000000 0.000000 0.058220 0.000000
# 6 0.000000 0.000000 0.000000 0.000000 0.000000 0.040437
#
#
# Mechanical properties :
#
#
# Convention : Reuss Voigt Hill
#
# Bulk Modulus (GPa) = 54.76272 70.45264 62.60768
# Shear Modulus (GPa) = 21.93304 24.47136 23.20220
#
# Velocity S-wave (km/s) = 3.71072 3.91957 3.81657
# Velocity P-wave (km/s) = 7.26216 8.04449 7.66331
#
# Compressibility (1/GPa) = 0.01826060
#
# Stress axis : x y z
#
# Youngs Moduli (GPa) = 56.00623 100.43723 41.61472
#
# Poissons Ratio (x) = 0.36037 0.23846
# Poissons Ratio (y) = 0.20095 0.31095
# Poissons Ratio (z) = 0.32093 0.75049
#
# Static dielectric constant tensor:
#      x y z
#    x 1.541000 0.000000 0.000000 
#    y 0.000000 1.555910 0.000000 
#    z 0.000000 0.000000 1.509930 
# 
# From -- ./inp_files/21206.got.cif
#   From: 2010.05.17/outbox.cif.g08.bks.cpg/sg46_11_cif.got.tgz:21206.got - 2010.06.03 19:58:25.
