data_PCOD9378423
_publ_section_title
;
Structure prediction by ZEFSAII (Michael W. Deem and Ramdas Pophale) SiO2 
 PCOD9378423
Probable space group: I M A 2
;
_chemical_formula_sum "Si O2"
_cell_formula_units_Z 64
_cell_length_a 8.610665
_cell_length_b 19.280688
_cell_length_c 22.234884
_cell_angle_alpha 90.000000
_cell_angle_beta 90.000000
_cell_angle_gamma 90.000000
_cell_volume 3691.425332
_symmetry_space_group_name_H-M "I M A 2"
_symmetry_group_IT_number 46
_symmetry_cell_setting 'orthorhombic'
loop_
_space_group_symop_operation_xyz
x,y,z
-x,-y,z
1/2-x,y,z
1/2+x,-y,z
1/2+x,1/2+y,1/2+z
1/2-x,1/2-y,1/2+z
-x,1/2+y,1/2+z
x,1/2-y,1/2+z
loop_
_atom_site_type_symbol
_atom_site_label
_atom_site_fract_x
_atom_site_fract_y
_atom_site_fract_z
Si Si1 0.936116 0.721430 0.106990
Si Si2 0.931661 0.818566 0.827301
Si Si3 0.569975 0.427337 0.243900
Si Si4 0.927791 0.073582 0.598809
Si Si5 0.437337 0.370270 0.560160
Si Si6 0.938066 0.576655 0.428292
Si Si7 0.938489 0.785495 0.234514
Si Si8 0.934387 0.425602 0.684508
O O1 0.750000 0.717214 0.109368
O O2 0.978083 0.788678 0.067007
O O3 0.990317 0.741633 0.175015
O O4 0.995829 0.647556 0.083717
O O5 0.750000 0.807339 0.839974
O O6 0.995791 0.862403 0.883459
O O7 0.994445 0.747963 0.797395
O O8 0.957747 0.870419 0.771599
O O9 0.500000 0.500000 0.264833
O O10 0.750000 0.417907 0.262445
O O11 0.565964 0.427157 0.171783
O O12 0.750000 0.074804 0.579682
O O13 0.000000 0.000000 0.578748
O O14 0.250000 0.375222 0.566691
O O15 0.480993 0.402444 0.496277
O O16 0.513445 0.409783 0.615940
O O17 0.750000 0.574585 0.424053
O O18 0.000000 0.500000 0.413781
O O19 0.750000 0.784398 0.234105
O O20 0.996142 0.862871 0.223409
O O21 0.750000 0.425129 0.687964
O O22 0.000000 0.500000 0.702559
#
# Coordination Sequence:
#
# PCOD9378423 Si02
#       8
#     8   8   8   8   8   8   8   8
#     4   9  16  29  48  67  92 125 159 200 248 294
#     4  10  19  32  49  68  95 131 166 202 241 286
#     4  10  19  28  40  60  89 125 162 197 233 277
#     4  10  19  28  41  63  92 123 157 194 236 287
#     4   9  19  35  52  72  99 132 169 208 250 294
#     4  10  21  35  51  72 100 135 175 209 241 283
#     4   9  18  32  49  70  98 129 161 198 246 299
#     4  11  21  33  52  76 101 128 161 202 252 302
#
# _framework density 17.337475999999999
#
# number of rings (size 3 to 8) (size 9 to 14) (size 15 to 20)
#    0.000    2.250    1.250    3.375    0.000    6.500 
#    0.000    0.000    0.000    0.000    0.000    0.875 
#    0.000    0.000    0.000    0.000    0.000    0.125 
#
# Total GULP energy -178296.497284 kJ/mol
# GULP energy per Si atom -5571.765540 kJ/mol
# Density = 1.729802 g / cm^3
# Si number density = 17.337476 Si / 1000 Ang^3
#
#
#
# Elastic Constant Matrix: (Units=GPa)
#
#
# Indices 1 2 3 4 5 6 
#
# 1 12.7379 15.6039 9.9229 0.0000 0.0000 0.0000
# 2 15.6039 135.2420 37.6603 0.0000 0.0000 0.0000
# 3 9.9229 37.6603 62.9234 0.0000 0.0000 0.0000
# 4 0.0000 0.0000 0.0000 14.8213 0.0000 0.0000
# 5 0.0000 0.0000 0.0000 0.0000 8.6939 0.0000
# 6 0.0000 0.0000 0.0000 0.0000 0.0000 28.0025
#
#
#
# Elastic Compliance Matrix: (Units=1/GPa)
#
#
# Indices 1 2 3 4 5 6 
#
# 1 0.096672 -0.008290 -0.010283 0.000000 0.000000 0.000000
# 2 -0.008290 0.009584 -0.004429 0.000000 0.000000 0.000000
# 3 -0.010283 -0.004429 0.020165 0.000000 0.000000 0.000000
# 4 0.000000 0.000000 0.000000 0.067470 0.000000 0.000000
# 5 0.000000 0.000000 0.000000 0.000000 0.115023 0.000000
# 6 0.000000 0.000000 0.000000 0.000000 0.000000 0.035711
#
#
# Mechanical properties :
#
#
# Convention : Reuss Voigt Hill
#
# Bulk Modulus (GPa) = 12.43532 37.47527 24.95529
# Shear Modulus (GPa) = 11.97794 20.15131 16.06463
#
# Velocity S-wave (km/s) = 2.63129 3.41295 3.04729
# Velocity P-wave (km/s) = 4.05212 6.09861 5.17749
#
# Compressibility (1/GPa) = 0.08041613
#
# Stress axis : x y z
#
# Youngs Moduli (GPa) = 10.34427 104.34150 49.59190
#
# Poissons Ratio (x) = 0.86502 0.50996
# Poissons Ratio (y) = 0.08576 0.21963
# Poissons Ratio (z) = 0.10637 0.46210
#
# Static dielectric constant tensor:
#      x y z
#    x 1.601360 0.000000 0.000000 
#    y 0.000000 1.627230 0.000000 
#    z 0.000000 0.000000 1.592870 
# 
# From -- ./inp_files/23280.got.cif
#   From: 2010.05.17/outbox.cif.g08.bks.cpg/sg46_12_cif.got.tgz:23280.got - 2010.06.03 19:58:25.
