data_PCOD9378333
_publ_section_title
;
Structure prediction by ZEFSAII (Michael W. Deem and Ramdas Pophale) SiO2 
 PCOD9378333
Probable space group: I M A 2
;
_chemical_formula_sum "Si O2"
_cell_formula_units_Z 52
_cell_length_a 7.606908
_cell_length_b 27.024343
_cell_length_c 12.262943
_cell_angle_alpha 90.000000
_cell_angle_beta 90.000000
_cell_angle_gamma 90.000000
_cell_volume 2520.913929
_symmetry_space_group_name_H-M "I M A 2"
_symmetry_group_IT_number 46
_symmetry_cell_setting 'orthorhombic'
loop_
_space_group_symop_operation_xyz
x,y,z
-x,-y,z
1/2-x,y,z
1/2+x,-y,z
1/2+x,1/2+y,1/2+z
1/2-x,1/2-y,1/2+z
-x,1/2+y,1/2+z
x,1/2-y,1/2+z
loop_
_atom_site_type_symbol
_atom_site_label
_atom_site_fract_x
_atom_site_fract_y
_atom_site_fract_z
Si Si1 0.750000 0.161081 0.217121
Si Si2 0.951003 0.660671 0.891471
Si Si3 0.950734 0.676381 0.569952
Si Si4 0.960339 0.444950 0.210355
Si Si5 0.960281 0.055547 0.459394
Si Si6 0.039051 0.211636 0.617996
Si Si7 0.045104 0.848381 0.830470
O O1 0.593884 0.177396 0.304596
O O2 0.593494 0.143689 0.131252
O O3 0.750000 0.677902 0.872523
O O4 0.006391 0.678817 0.012433
O O5 0.957755 0.600911 0.894388
O O6 0.750000 0.670175 0.607959
O O7 0.016803 0.732255 0.595575
O O8 0.954293 0.669331 0.440210
O O9 0.750000 0.439412 0.204097
O O10 0.025075 0.441571 0.085203
O O11 0.027640 0.400307 0.283891
O O12 0.000000 0.500000 0.250977
O O13 0.750000 0.062796 0.456660
O O14 0.000000 0.000000 0.420530
O O15 0.250000 0.211435 0.626027
O O16 0.968163 0.189476 0.729752
O O17 0.250000 0.854635 0.857297
#
# Coordination Sequence:
#
# PCOD9378333 Si02
#       7
#     4   8   8   8   8   8   8
#     4  12  26  44  64  88 124 172 224 264 318 378
#     4  11  23  40  65  97 129 171 211 263 325 387
#     4  11  26  45  63  91 125 172 221 267 318 379
#     4   9  19  33  57  94 132 163 202 255 319 387
#     4  10  18  34  57  94 135 165 203 257 321 388
#     4  10  24  40  61  94 131 163 212 263 325 391
#     4  11  22  39  66  95 129 167 213 265 323 386
#
# _framework density 20.62744
#
# number of rings (size 3 to 8) (size 9 to 14) (size 15 to 20)
#    0.000    1.538    3.077    1.385    4.308    1.846 
#    0.000    0.000    0.000    0.923    4.000    0.000 
#    0.000    0.000    0.000    0.000    0.000    0.000 
#
# Total GULP energy -144762.553639 kJ/mol
# GULP energy per Si atom -5567.790525 kJ/mol
# Density = 2.058049 g / cm^3
# Si number density = 20.627440 Si / 1000 Ang^3
#
#
#
# Elastic Constant Matrix: (Units=GPa)
#
#
# Indices 1 2 3 4 5 6 
#
# 1 108.3976 -1.4396 27.0533 0.0000 0.0000 0.0000
# 2 -1.4396 70.0980 -2.9934 0.0000 0.0000 0.0000
# 3 27.0533 -2.9934 86.7188 0.0000 -0.0001 0.0000
# 4 0.0000 0.0000 0.0000 -7.2318 0.0000 0.0000
# 5 0.0000 0.0000 -0.0001 0.0000 29.7428 0.0000
# 6 0.0000 0.0000 0.0000 0.0000 0.0000 -3.7315
#
#
#
# Elastic Compliance Matrix: (Units=1/GPa)
#
#
# Indices 1 2 3 4 5 6 
#
# 1 0.010005 0.000072 -0.003119 0.000000 0.000000 0.000000
# 2 0.000072 0.014287 0.000471 0.000000 0.000000 0.000000
# 3 -0.003119 0.000471 0.012521 0.000000 0.000000 0.000000
# 4 0.000000 0.000000 0.000000 -0.138278 0.000000 0.000001
# 5 0.000000 0.000000 0.000000 0.000000 0.033622 0.000000
# 6 0.000000 0.000000 0.000000 0.000001 0.000000 -0.267992
#
#
# Mechanical properties :
#
#
# Convention : Reuss Voigt Hill
#
# Bulk Modulus (GPa) = 31.58440 34.49502 33.03971
# Shear Modulus (GPa) = -15.61862 19.92885 2.15511
#
# Velocity S-wave (km/s) = -2.75467 3.11164 1.02325
# Velocity P-wave (km/s) = 2.28637 5.44692 4.17710
#
# Compressibility (1/GPa) = 0.03166120
#
# Stress axis : x y z
#
# Youngs Moduli (GPa) = 99.95422 69.99209 79.86798
#
# Poissons Ratio (x) = -0.00506 0.24908
# Poissons Ratio (y) = -0.00723 -0.03759
# Poissons Ratio (z) = 0.31172 -0.03294
#
# Static dielectric constant tensor:
#      x y z
#    x 1.763050 0.000000 0.000000 
#    y 0.000000 1.774630 0.000000 
#    z 0.000000 0.000000 1.752330 
# 
# From -- ./inp_files/9455.got.cif
#   From: 2010.05.17/outbox.cif.g08.bks.cpg/sg46_5_cif.got.tgz:9455.got - 2010.06.03 19:58:25.
