data_PCOD9378413
_publ_section_title
;
Structure prediction by ZEFSAII (Michael W. Deem and Ramdas Pophale) SiO2 
 PCOD9378413
Probable space group: I M A 2
;
_chemical_formula_sum "Si O2"
_cell_formula_units_Z 40
_cell_length_a 11.546489
_cell_length_b 10.590437
_cell_length_c 14.189414
_cell_angle_alpha 90.000000
_cell_angle_beta 90.000000
_cell_angle_gamma 90.000000
_cell_volume 1735.115092
_symmetry_space_group_name_H-M "I M A 2"
_symmetry_group_IT_number 46
_symmetry_cell_setting 'orthorhombic'
loop_
_space_group_symop_operation_xyz
x,y,z
-x,-y,z
1/2-x,y,z
1/2+x,-y,z
1/2+x,1/2+y,1/2+z
1/2-x,1/2-y,1/2+z
-x,1/2+y,1/2+z
x,1/2-y,1/2+z
loop_
_atom_site_type_symbol
_atom_site_label
_atom_site_fract_x
_atom_site_fract_y
_atom_site_fract_z
Si Si1 0.750000 0.587732 0.295900
Si Si2 0.250000 0.678740 0.403994
Si Si3 0.002879 0.632505 0.634032
Si Si4 0.948213 0.168970 0.495099
Si Si5 0.250000 0.697916 0.709266
Si Si6 0.250000 0.961675 0.599194
Si Si7 0.621209 0.669401 0.827394
O O1 0.750000 0.459283 0.356784
O O2 0.750000 0.564235 0.182689
O O3 0.858015 0.678395 0.322323
O O4 0.139181 0.717542 0.464662
O O5 0.250000 0.780447 0.319796
O O6 0.979140 0.760117 0.576196
O O7 0.131996 0.638557 0.675456
O O8 0.000000 0.500000 0.579293
O O9 0.919680 0.628563 0.724518
O O10 0.866233 0.057406 0.536320
O O11 0.027103 0.139373 0.405900
O O12 0.250000 0.834988 0.661547
O O13 0.750000 0.617255 0.848754
#
# Coordination Sequence:
#
# PCOD9378413 Si02
#       7
#     4   4   8   8   4   4   8
#     4   9  22  39  67  98 136 167 216 284 353 381
#     4  10  18  38  68  93 120 160 223 275 318 401
#     4  11  24  40  66  91 129 174 212 272 332 402
#     4  10  21  40  68  96 127 168 228 276 320 413
#     4   9  18  39  62  89 122 164 214 261 323 388
#     4   8  18  40  65 102 122 171 221 278 328 398
#     4  10  24  43  61  97 136 172 216 284 337 407
#
# _framework density 23.053227
#
# number of rings (size 3 to 8) (size 9 to 14) (size 15 to 20)
#    0.600    1.600    2.000    0.600    4.200    0.800 
#    0.000    2.000    0.000    0.000    2.600    0.000 
#    0.000    0.000    0.000    0.000    0.000    0.000 
#
# Total GULP energy -111661.447754 kJ/mol
# GULP energy per Si atom -5583.072388 kJ/mol
# Density = 2.300076 g / cm^3
# Si number density = 23.053227 Si / 1000 Ang^3
#
#
#
# Elastic Constant Matrix: (Units=GPa)
#
#
# Indices 1 2 3 4 5 6 
#
# 1 83.9088 8.4312 27.5508 0.0000 0.0000 0.0000
# 2 8.4312 93.5296 22.5261 0.0000 0.0000 0.0000
# 3 27.5508 22.5261 115.7788 0.0000 0.0000 0.0000
# 4 0.0000 0.0000 0.0000 37.2633 0.0000 0.0000
# 5 0.0000 0.0000 0.0000 0.0000 -11.5772 0.0000
# 6 0.0000 0.0000 0.0000 0.0000 0.0000 21.4043
#
#
#
# Elastic Compliance Matrix: (Units=1/GPa)
#
#
# Indices 1 2 3 4 5 6 
#
# 1 0.012945 -0.000446 -0.002994 0.000000 0.000000 0.000000
# 2 -0.000446 0.011233 -0.002079 0.000000 0.000000 0.000000
# 3 -0.002994 -0.002079 0.009754 0.000000 0.000000 0.000000
# 4 0.000000 0.000000 0.000000 0.026836 0.000000 0.000000
# 5 0.000000 0.000000 0.000000 0.000000 -0.086377 0.000000
# 6 0.000000 0.000000 0.000000 0.000000 0.000000 0.046720
#
#
# Mechanical properties :
#
#
# Convention : Reuss Voigt Hill
#
# Bulk Modulus (GPa) = 43.67898 45.58149 44.63023
# Shear Modulus (GPa) = 125.68907 25.06535 75.37721
#
# Velocity S-wave (km/s) = 7.39186 3.30097 5.72434
# Velocity P-wave (km/s) = 9.58337 5.86036 7.94307
#
# Compressibility (1/GPa) = 0.02289431
#
# Stress axis : x y z
#
# Youngs Moduli (GPa) = 77.24697 89.02502 102.52080
#
# Poissons Ratio (x) = 0.03970 0.30692
# Poissons Ratio (y) = 0.03445 0.21318
# Poissons Ratio (z) = 0.23126 0.18511
#
# Static dielectric constant tensor:
#      x y z
#    x 1.898870 0.000000 0.000000 
#    y 0.000000 1.878980 0.000000 
#    z 0.000000 0.000000 1.859030 
# 
# From -- ./inp_files/15068.got.cif
#   From: 2010.05.17/outbox.cif.g08.bks.cpg/sg46_8_cif.got.tgz:15068.got - 2010.06.03 19:58:25.
