data_PCOD9378202
_publ_section_title
;
Structure prediction by ZEFSAII (Michael W. Deem and Ramdas Pophale) SiO2 
 PCOD9378202
Probable space group: I M A 2
;
_chemical_formula_sum "Si O2"
_cell_formula_units_Z 64
_cell_length_a 18.327275
_cell_length_b 8.540688
_cell_length_c 21.653190
_cell_angle_alpha 90.000000
_cell_angle_beta 90.000000
_cell_angle_gamma 90.000000
_cell_volume 3389.320513
_symmetry_space_group_name_H-M "I M A 2"
_symmetry_group_IT_number 46
_symmetry_cell_setting 'orthorhombic'
loop_
_space_group_symop_operation_xyz
x,y,z
-x,-y,z
1/2-x,y,z
1/2+x,-y,z
1/2+x,1/2+y,1/2+z
1/2-x,1/2-y,1/2+z
-x,1/2+y,1/2+z
x,1/2-y,1/2+z
loop_
_atom_site_type_symbol
_atom_site_label
_atom_site_fract_x
_atom_site_fract_y
_atom_site_fract_z
Si Si1 0.969026 0.677901 0.532120
Si Si2 0.418102 0.955834 0.195550
Si Si3 0.924022 0.585649 0.831879
Si Si4 0.335868 0.641392 0.906819
Si Si5 0.047970 0.861709 0.642596
Si Si6 0.666486 0.157851 0.550392
Si Si7 0.986564 0.315802 0.397387
Si Si8 0.334504 0.025883 0.074713
O O1 0.883059 0.648921 0.537834
O O2 0.000000 0.500000 0.536584
O O3 0.999070 0.775577 0.589884
O O4 0.992203 0.746746 0.466134
O O5 0.420744 0.766761 0.190412
O O6 0.500000 0.000000 0.176634
O O7 0.408140 0.034006 0.261970
O O8 0.362299 0.020208 0.145233
O O9 0.858330 0.516976 0.871619
O O10 0.000000 0.500000 0.850554
O O11 0.953153 0.757034 0.847667
O O12 0.250000 0.685797 0.895887
O O13 0.401469 0.763400 0.887557
O O14 0.343987 0.611686 0.979792
O O15 0.114790 0.920928 0.600568
O O16 0.000000 0.000000 0.670666
O O17 0.750000 0.134009 0.568024
O O18 0.652645 0.346624 0.552001
O O19 0.000000 0.500000 0.400945
O O20 0.250000 0.059562 0.070044
#
# Coordination Sequence:
#
# PCOD9378202 Si02
#       8
#     8   8   8   8   8   8   8   8
#     4  11  17  33  54  80 117 143 184 231 286 348
#     4  10  18  38  56  75 107 149 197 240 269 341
#     4   9  21  36  57  79 108 153 197 241 280 351
#     4  10  19  34  55  82 117 158 197 237 289 349
#     4  11  20  30  56  85 108 148 185 234 286 335
#     4   9  17  30  50  81 114 144 184 231 280 337
#     4  10  20  35  59  89 116 155 193 247 293 347
#     4  10  18  31  56  82 106 147 191 234 287 338
#
# _framework density 18.882840000000002
#
# number of rings (size 3 to 8) (size 9 to 14) (size 15 to 20)
#    0.000    2.000    5.000    0.750    1.750    0.500 
#    0.000    7.500    0.000    0.000    0.000    0.000 
#    0.000    0.000    0.000    0.000    0.000    0.000 
#
# Total GULP energy -178187.296919 kJ/mol
# GULP energy per Si atom -5568.353029 kJ/mol
# Density = 1.883986 g / cm^3
# Si number density = 18.882840 Si / 1000 Ang^3
#
#
#
# Elastic Constant Matrix: (Units=GPa)
#
#
# Indices 1 2 3 4 5 6 
#
# 1 109.3252 13.4137 24.6643 0.0000 0.0000 0.0000
# 2 13.4137 29.9850 23.0125 0.0000 0.0000 0.0000
# 3 24.6643 23.0125 87.9956 0.0000 0.0000 0.0000
# 4 0.0000 0.0000 0.0000 10.5681 0.0000 0.0000
# 5 0.0000 0.0000 0.0000 0.0000 21.0177 0.0000
# 6 0.0000 0.0000 0.0000 0.0000 0.0000 22.9425
#
#
#
# Elastic Compliance Matrix: (Units=1/GPa)
#
#
# Indices 1 2 3 4 5 6 
#
# 1 0.009961 -0.002894 -0.002035 0.000000 0.000000 0.000000
# 2 -0.002894 0.042565 -0.010320 0.000000 0.000000 0.000000
# 3 -0.002035 -0.010320 0.014634 0.000000 0.000000 0.000000
# 4 0.000000 0.000000 0.000000 0.094625 0.000000 0.000000
# 5 0.000000 0.000000 0.000000 0.000000 0.047579 0.000000
# 6 0.000000 0.000000 0.000000 0.000000 0.000000 0.043587
#
#
# Mechanical properties :
#
#
# Convention : Reuss Voigt Hill
#
# Bulk Modulus (GPa) = 27.27727 38.83190 33.05458
# Shear Modulus (GPa) = 16.91069 21.98667 19.44868
#
# Velocity S-wave (km/s) = 2.99584 3.41599 3.21279
# Velocity P-wave (km/s) = 5.14233 6.01398 5.59516
#
# Compressibility (1/GPa) = 0.03666057
#
# Stress axis : x y z
#
# Youngs Moduli (GPa) = 100.38878 23.49333 68.33576
#
# Poissons Ratio (x) = 0.06800 0.13907
# Poissons Ratio (y) = 0.29055 0.70525
# Poissons Ratio (z) = 0.20431 0.24246
#
# Static dielectric constant tensor:
#      x y z
#    x 1.682160 0.000000 0.000000 
#    y 0.000000 1.759650 0.000000 
#    z 0.000000 0.000000 1.668350 
# 
# From -- ./inp_files/23778.got.cif
#   From: 2010.05.17/outbox.cif.g08.bks.cpg/sg46_12_cif.got.tgz:23778.got - 2010.06.03 19:58:25.
