data_PCOD9378004
_publ_section_title
;
Structure prediction by ZEFSAII (Michael W. Deem and Ramdas Pophale) SiO2 
 PCOD9378004
Probable space group: I M A 2
;
_chemical_formula_sum "Si O2"
_cell_formula_units_Z 64
_cell_length_a 10.004061
_cell_length_b 30.275325
_cell_length_c 14.615215
_cell_angle_alpha 90.000000
_cell_angle_beta 90.000000
_cell_angle_gamma 90.000000
_cell_volume 4426.600754
_symmetry_space_group_name_H-M "I M A 2"
_symmetry_group_IT_number 46
_symmetry_cell_setting 'orthorhombic'
loop_
_space_group_symop_operation_xyz
x,y,z
-x,-y,z
1/2-x,y,z
1/2+x,-y,z
1/2+x,1/2+y,1/2+z
1/2-x,1/2-y,1/2+z
-x,1/2+y,1/2+z
x,1/2-y,1/2+z
loop_
_atom_site_type_symbol
_atom_site_label
_atom_site_fract_x
_atom_site_fract_y
_atom_site_fract_z
Si Si1 0.898016 0.811727 0.733520
Si Si2 0.091133 0.797817 0.437380
Si Si3 0.095306 0.364502 0.044357
Si Si4 0.906883 0.230130 0.233520
Si Si5 0.408324 0.458021 0.125340
Si Si6 0.404694 0.364502 0.422682
Si Si7 0.408323 0.041979 0.841697
Si Si8 0.908867 0.202181 0.029662
O O1 0.750000 0.790865 0.733520
O O2 0.908713 0.841416 0.643715
O O3 0.908714 0.841415 0.823326
O O4 0.008691 0.774556 0.733519
O O5 0.250000 0.804870 0.452795
O O6 0.066219 0.794679 0.328666
O O7 0.058070 0.749999 0.483522
O O8 0.003419 0.836433 0.481382
O O9 0.250000 0.362186 0.012250
O O10 0.059831 0.415488 0.063434
O O11 0.750000 0.241352 0.233520
O O12 0.933781 0.205319 0.138377
O O13 0.500000 0.500000 0.103825
O O14 0.250000 0.467728 0.114962
O O15 0.428901 0.447266 0.233519
O O16 0.250000 0.362186 0.454790
O O17 0.440169 0.415488 0.403604
O O18 0.503419 0.336434 0.485660
O O19 0.250000 0.032271 0.852075
O O20 0.500000 0.000000 0.863212
O O21 0.750000 0.195128 0.014247
#
# Coordination Sequence:
#
# PCOD9378004 Si02
#       8
#     8   8   8   8   8   8   8   8
#     4  10  18  28  45  67  93 125 157 190 226 267
#     4  10  20  32  47  67  92 123 159 194 231 275
#     4  10  19  31  47  68  95 126 158 191 228 271
#     4  10  20  34  46  63  94 125 155 198 235 265
#     4   9  17  30  46  67  95 124 153 187 228 274
#     4  10  19  31  47  68  95 126 158 191 228 271
#     4   9  17  30  46  67  95 124 153 187 228 274
#     4  10  20  32  47  67  92 123 159 194 231 275
#
# _framework density 14.458047000000001
#
# number of rings (size 3 to 8) (size 9 to 14) (size 15 to 20)
#    0.000    2.250    3.750    0.000    0.000    2.500 
#    0.000    0.000    0.000    0.000    0.000    0.875 
#    0.000    0.000    0.000    0.000    0.000    0.000 
#
# Total GULP energy -178313.296086 kJ/mol
# GULP energy per Si atom -5572.290503 kJ/mol
# Density = 1.442514 g / cm^3
# Si number density = 14.458047 Si / 1000 Ang^3
#
#
#
# Elastic Constant Matrix: (Units=GPa)
#
#
# Indices 1 2 3 4 5 6 
#
# 1 61.4776 78.8874 51.3807 0.0001 0.0000 0.0000
# 2 78.8874 125.4526 51.0193 0.0001 0.0000 0.0000
# 3 51.3807 51.0193 82.6283 0.0009 0.0002 0.0000
# 4 0.0001 0.0001 0.0009 19.1017 0.0001 0.0000
# 5 0.0000 0.0000 0.0002 0.0001 15.8614 0.0000
# 6 0.0000 0.0000 0.0000 0.0000 0.0000 30.1351
#
#
#
# Elastic Compliance Matrix: (Units=1/GPa)
#
#
# Indices 1 2 3 4 5 6 
#
# 1 0.170861 -0.085770 -0.053287 0.000002 0.000001 0.000000
# 2 -0.085770 0.053700 0.020177 -0.000001 0.000000 0.000000
# 3 -0.053287 0.020177 0.032779 -0.000001 -0.000001 0.000000
# 4 0.000002 -0.000001 -0.000001 0.052351 0.000000 0.000000
# 5 0.000001 0.000000 -0.000001 0.000000 0.063046 0.000000
# 6 0.000000 0.000000 0.000000 0.000000 0.000000 0.033184
#
#
# Mechanical properties :
#
#
# Convention : Reuss Voigt Hill
#
# Bulk Modulus (GPa) = 51.07283 70.23701 60.65492
# Shear Modulus (GPa) = 7.68985 18.90438 13.29711
#
# Velocity S-wave (km/s) = 2.30874 3.61991 3.03595
# Velocity P-wave (km/s) = 6.51986 8.13369 7.37108
#
# Compressibility (1/GPa) = 0.01957988
#
# Stress axis : x y z
#
# Youngs Moduli (GPa) = 5.85271 18.62208 30.50718
#
# Poissons Ratio (x) = 1.59722 1.62563
# Poissons Ratio (y) = 0.50199 -0.61555
# Poissons Ratio (z) = 0.31187 -0.37574
#
# Static dielectric constant tensor:
#      x y z
#    x 1.480670 0.000000 0.000000 
#    y 0.000000 1.455590 0.000000 
#    z 0.000000 0.000000 1.477990 
# 
# From -- ./inp_files/14731.got.cif
#   From: 2010.05.17/outbox.cif.g08.bks.cpg/sg46_8_cif.got.tgz:14731.got - 2010.06.03 19:58:25.
