data_PCOD9378249
_publ_section_title
;
Structure prediction by ZEFSAII (Michael W. Deem and Ramdas Pophale) SiO2 
 PCOD9378249
Probable space group: I M A 2
;
_chemical_formula_sum "Si O2"
_cell_formula_units_Z 48
_cell_length_a 8.561834
_cell_length_b 9.398106
_cell_length_c 31.949556
_cell_angle_alpha 90.000000
_cell_angle_beta 90.000000
_cell_angle_gamma 90.000000
_cell_volume 2570.821774
_symmetry_space_group_name_H-M "I M A 2"
_symmetry_group_IT_number 46
_symmetry_cell_setting 'orthorhombic'
loop_
_space_group_symop_operation_xyz
x,y,z
-x,-y,z
1/2-x,y,z
1/2+x,-y,z
1/2+x,1/2+y,1/2+z
1/2-x,1/2-y,1/2+z
-x,1/2+y,1/2+z
x,1/2-y,1/2+z
loop_
_atom_site_type_symbol
_atom_site_label
_atom_site_fract_x
_atom_site_fract_y
_atom_site_fract_z
Si Si1 0.562780 0.339055 0.250000
Si Si2 0.563148 0.662393 0.494451
Si Si3 0.062892 0.339666 0.827996
Si Si4 0.063147 0.661299 0.581928
Si Si5 0.437139 0.339730 0.159669
Si Si6 0.936993 0.161876 0.906401
O O1 0.500000 0.500000 0.256079
O O2 0.750000 0.341556 0.250221
O O3 0.498957 0.240510 0.286789
O O4 0.501635 0.289302 0.204636
O O5 0.500000 0.500000 0.494562
O O6 0.750000 0.661900 0.494303
O O7 0.499831 0.724756 0.537957
O O8 0.498426 0.722210 0.450845
O O9 0.250000 0.338975 0.828280
O O10 0.000000 0.500000 0.828671
O O11 0.999391 0.254670 0.868176
O O12 0.250000 0.659476 0.581160
O O13 0.000000 0.500000 0.584845
O O14 0.000150 0.746809 0.621530
O O15 0.500000 0.500000 0.154497
O O16 0.250000 0.339887 0.160425
O O17 0.750000 0.157801 0.906673
O O18 0.000000 0.000000 0.902027
#
# Coordination Sequence:
#
# PCOD9378249 Si02
#       6
#     8   8   8   8   8   8
#     4  11  22  40  63  88 114 149 191 235 280 334
#     4  10  18  32  54  83 114 149 190 237 282 331
#     4  12  25  42  60  85 117 151 187 233 287 343
#     4  11  21  36  57  85 117 153 192 237 285 337
#     4  11  22  39  60  86 116 151 190 235 284 338
#     4  11  21  37  60  87 115 151 193 237 281 333
#
# _framework density 18.671073
#
# number of rings (size 3 to 8) (size 9 to 14) (size 15 to 20)
#    0.000    1.000    0.000   12.500    0.000    0.667 
#    0.000    4.167    0.000    0.000    0.000    0.000 
#    0.000    0.000    0.000    0.000    0.000    0.000 
#
# Total GULP energy -134193.640317 kJ/mol
# GULP energy per Si atom -5591.401680 kJ/mol
# Density = 1.862858 g / cm^3
# Si number density = 18.671073 Si / 1000 Ang^3
#
#
#
# Elastic Constant Matrix: (Units=GPa)
#
#
# Indices 1 2 3 4 5 6 
#
# 1 254.5541 52.6526 103.9186 0.0000 0.0000 0.0000
# 2 52.6526 69.9371 92.7037 0.0000 0.0000 0.0000
# 3 103.9186 92.7037 233.3905 0.0000 0.0000 0.0000
# 4 0.0000 0.0000 0.0000 32.2206 0.0000 0.0000
# 5 0.0000 0.0000 0.0000 0.0000 39.2003 0.0000
# 6 0.0000 0.0000 0.0000 0.0000 0.0000 30.4110
#
#
#
# Elastic Compliance Matrix: (Units=1/GPa)
#
#
# Indices 1 2 3 4 5 6 
#
# 1 0.004893 -0.001681 -0.001511 0.000000 0.000000 0.000000
# 2 -0.001681 0.030775 -0.011476 0.000000 0.000000 0.000000
# 3 -0.001511 -0.011476 0.009516 0.000000 0.000000 0.000000
# 4 0.000000 0.000000 0.000000 0.031036 0.000000 0.000000
# 5 0.000000 0.000000 0.000000 0.000000 0.025510 0.000000
# 6 0.000000 0.000000 0.000000 0.000000 0.000000 0.032883
#
#
# Mechanical properties :
#
#
# Convention : Reuss Voigt Hill
#
# Bulk Modulus (GPa) = 63.09579 117.38130 90.23854
# Shear Modulus (GPa) = 29.54542 40.94017 35.24280
#
# Velocity S-wave (km/s) = 3.98228 4.68771 4.34932
# Velocity P-wave (km/s) = 7.41697 9.60750 8.58241
#
# Compressibility (1/GPa) = 0.01584892
#
# Stress axis : x y z
#
# Youngs Moduli (GPa) = 204.37594 32.49349 105.09006
#
# Poissons Ratio (x) = 0.05462 0.15879
# Poissons Ratio (y) = 0.34352 1.20598
# Poissons Ratio (z) = 0.30881 0.37289
#
# Static dielectric constant tensor:
#      x y z
#    x 1.616920 0.000000 0.000000 
#    y 0.000000 1.612290 0.000000 
#    z 0.000000 0.000000 1.667470 
# 
# From -- ./inp_files/25016.got.cif
#   From: 2010.05.17/outbox.cif.g08.bks.cpg/sg46_13_cif.got.tgz:25016.got - 2010.06.03 19:58:25.
