data_PCOD9378246
_publ_section_title
;
Structure prediction by ZEFSAII (Michael W. Deem and Ramdas Pophale) SiO2 
 PCOD9378246
Probable space group: I M A 2
;
_chemical_formula_sum "Si O2"
_cell_formula_units_Z 64
_cell_length_a 16.665369
_cell_length_b 8.692844
_cell_length_c 24.406132
_cell_angle_alpha 90.000000
_cell_angle_beta 90.000000
_cell_angle_gamma 90.000000
_cell_volume 3535.702991
_symmetry_space_group_name_H-M "I M A 2"
_symmetry_group_IT_number 46
_symmetry_cell_setting 'orthorhombic'
loop_
_space_group_symop_operation_xyz
x,y,z
-x,-y,z
1/2-x,y,z
1/2+x,-y,z
1/2+x,1/2+y,1/2+z
1/2-x,1/2-y,1/2+z
-x,1/2+y,1/2+z
x,1/2-y,1/2+z
loop_
_atom_site_type_symbol
_atom_site_label
_atom_site_fract_x
_atom_site_fract_y
_atom_site_fract_z
Si Si1 0.989704 0.183297 0.905870
Si Si2 0.841798 0.771644 0.089137
Si Si3 0.584878 0.091185 0.072071
Si Si4 0.341893 0.190754 0.214557
Si Si5 0.508629 0.682350 0.278897
Si Si6 0.077446 0.887727 0.195412
Si Si7 0.343949 0.709247 0.973536
Si Si8 0.921457 0.601937 0.990732
O O1 0.001073 0.226167 0.842498
O O2 0.052857 0.275008 0.944367
O O3 0.900202 0.229825 0.924599
O O4 0.000000 0.000000 0.912709
O O5 0.750000 0.723946 0.081644
O O6 0.863167 0.752162 0.152952
O O7 0.851881 0.952106 0.076328
O O8 0.896899 0.683827 0.046531
O O9 0.582888 0.166809 0.132562
O O10 0.500000 0.000000 0.061602
O O11 0.613562 0.210413 0.026384
O O12 0.250000 0.230538 0.226382
O O13 0.405727 0.261075 0.256033
O O14 0.352142 0.005453 0.211285
O O15 0.500000 0.500000 0.274936
O O16 0.441618 0.760831 0.240378
O O17 0.000000 0.000000 0.195424
O O18 0.250000 0.749212 0.970754
O O19 0.354906 0.524545 0.975093
O O20 0.000000 0.500000 0.999632
#
# Coordination Sequence:
#
# PCOD9378246 Si02
#       8
#     8   8   8   8   8   8   8   8
#     4  10  22  41  59  75 101 144 190 223 260 319
#     4  10  19  33  53  79 112 145 177 214 260 316
#     4  10  18  32  54  81 111 146 183 212 252 317
#     4   9  19  35  56  82 110 141 178 219 263 314
#     4  10  21  38  58  79 105 140 182 225 269 317
#     4   8  17  33  55  80 108 144 181 213 255 316
#     4  11  22  35  54  83 114 139 173 224 275 315
#     4  10  21  35  54  79 109 141 177 220 267 318
#
# _framework density 18.101068999999999
#
# number of rings (size 3 to 8) (size 9 to 14) (size 15 to 20)
#    0.000    2.250    0.000    4.125    0.000    6.500 
#    0.000    6.875    0.000    0.000    0.000    0.000 
#    0.000    0.000    0.000    0.000    0.000    0.000 
#
# Total GULP energy -178432.927729 kJ/mol
# GULP energy per Si atom -5576.028992 kJ/mol
# Density = 1.805987 g / cm^3
# Si number density = 18.101069 Si / 1000 Ang^3
#
#
#
# Elastic Constant Matrix: (Units=GPa)
#
#
# Indices 1 2 3 4 5 6 
#
# 1 89.3811 31.2692 65.9748 0.0000 0.0000 0.0000
# 2 31.2692 66.0045 67.9872 0.0000 0.0000 0.0000
# 3 65.9748 67.9872 162.6369 0.0000 0.0000 0.0000
# 4 0.0000 0.0000 0.0000 30.3578 0.0000 0.0000
# 5 0.0000 0.0000 0.0000 0.0000 13.1571 0.0000
# 6 0.0000 0.0000 0.0000 0.0000 0.0000 13.2678
#
#
#
# Elastic Compliance Matrix: (Units=1/GPa)
#
#
# Indices 1 2 3 4 5 6 
#
# 1 0.016063 -0.001577 -0.005857 0.000000 0.000000 0.000000
# 2 -0.001577 0.026762 -0.010548 0.000000 0.000000 0.000000
# 3 -0.005857 -0.010548 0.012934 0.000000 0.000000 0.000000
# 4 0.000000 0.000000 0.000000 0.032940 0.000000 0.000000
# 5 0.000000 0.000000 0.000000 0.000000 0.076005 0.000000
# 6 0.000000 0.000000 0.000000 0.000000 0.000000 0.075371
#
#
# Mechanical properties :
#
#
# Convention : Reuss Voigt Hill
#
# Bulk Modulus (GPa) = 50.51568 72.05387 61.28478
# Shear Modulus (GPa) = 17.69062 21.54262 19.61662
#
# Velocity S-wave (km/s) = 3.12961 3.45357 3.29557
# Velocity P-wave (km/s) = 6.40527 7.46965 6.95784
#
# Compressibility (1/GPa) = 0.01979583
#
# Stress axis : x y z
#
# Youngs Moduli (GPa) = 62.25567 37.36636 77.31714
#
# Poissons Ratio (x) = 0.05893 0.45283
# Poissons Ratio (y) = 0.09817 0.81551
# Poissons Ratio (z) = 0.36462 0.39413
#
# Static dielectric constant tensor:
#      x y z
#    x 1.646380 0.000000 0.000000 
#    y 0.000000 1.638060 0.000000 
#    z 0.000000 0.000000 1.621650 
# 
# From -- ./inp_files/23780.got.cif
#   From: 2010.05.17/outbox.cif.g08.bks.cpg/sg46_12_cif.got.tgz:23780.got - 2010.06.03 19:58:25.
