data_PCOD9378163
_publ_section_title
;
Structure prediction by ZEFSAII (Michael W. Deem and Ramdas Pophale) SiO2 
 PCOD9378163
Probable space group: I M A 2
;
_chemical_formula_sum "Si O2"
_cell_formula_units_Z 56
_cell_length_a 14.484332
_cell_length_b 21.348591
_cell_length_c 10.218475
_cell_angle_alpha 90.000000
_cell_angle_beta 90.000000
_cell_angle_gamma 90.000000
_cell_volume 3159.757655
_symmetry_space_group_name_H-M "I M A 2"
_symmetry_group_IT_number 46
_symmetry_cell_setting 'orthorhombic'
loop_
_space_group_symop_operation_xyz
x,y,z
-x,-y,z
1/2-x,y,z
1/2+x,-y,z
1/2+x,1/2+y,1/2+z
1/2-x,1/2-y,1/2+z
-x,1/2+y,1/2+z
x,1/2-y,1/2+z
loop_
_atom_site_type_symbol
_atom_site_label
_atom_site_fract_x
_atom_site_fract_y
_atom_site_fract_z
Si Si1 0.142915 0.399250 0.569860
Si Si2 0.642168 0.469090 0.646100
Si Si3 0.973617 0.395999 0.000970
Si Si4 0.528427 0.775221 0.628200
Si Si5 0.357978 0.283128 0.392128
Si Si6 0.971988 0.352346 0.710017
Si Si7 0.141483 0.012398 0.448634
O O1 0.250000 0.398207 0.611076
O O2 0.117083 0.472049 0.554860
O O3 0.133661 0.354618 0.444772
O O4 0.078663 0.368542 0.679674
O O5 0.750000 0.454801 0.630691
O O6 0.584222 0.406107 0.634252
O O7 0.628425 0.496144 0.793964
O O8 0.980685 0.341838 0.107365
O O9 0.072200 0.431575 0.985474
O O10 0.897606 0.450186 0.020054
O O11 0.952422 0.362360 0.862260
O O12 0.585728 0.758202 0.497158
O O13 0.459227 0.717751 0.658505
O O14 0.597643 0.777144 0.750495
O O15 0.250000 0.266343 0.392089
O O16 0.250000 0.023981 0.471618
#
# Coordination Sequence:
#
# PCOD9378163 Si02
#       7
#     8   8   8   8   8   8   8
#     4   9  17  29  49  77 106 134 168 212 266 317
#     4   9  16  29  53  81 104 132 178 229 267 304
#     4  10  19  33  54  79 105 138 180 223 268 320
#     4  11  21  36  52  76 108 150 178 218 268 322
#     4  10  21  34  50  77 112 146 181 215 264 330
#     4  10  18  31  50  76 109 138 176 217 262 312
#     4   9  18  32  54  82 106 134 178 229 273 315
#
# _framework density 17.722878999999999
#
# number of rings (size 3 to 8) (size 9 to 14) (size 15 to 20)
#    0.000    2.286    2.857    0.857    0.000    1.714 
#    0.000    0.714   12.571    0.000    0.000    0.000 
#    0.000    0.000    0.000    0.000    0.000    0.000 
#
# Total GULP energy -156070.438127 kJ/mol
# GULP energy per Si atom -5573.944219 kJ/mol
# Density = 1.768254 g / cm^3
# Si number density = 17.722879 Si / 1000 Ang^3
#
#
#
# Elastic Constant Matrix: (Units=GPa)
#
#
# Indices 1 2 3 4 5 6 
#
# 1 40.0389 22.3676 -3.1193 0.0000 0.0000 0.0000
# 2 22.3676 109.0377 7.7872 0.0000 0.0000 0.0000
# 3 -3.1193 7.7872 35.1399 0.0000 0.0000 0.0000
# 4 0.0000 0.0000 0.0000 27.2396 0.0000 0.0000
# 5 0.0000 0.0000 0.0000 0.0000 15.5299 0.0000
# 6 0.0000 0.0000 0.0000 0.0000 0.0000 20.5270
#
#
#
# Elastic Compliance Matrix: (Units=1/GPa)
#
#
# Indices 1 2 3 4 5 6 
#
# 1 0.028730 -0.006173 0.003918 0.000000 0.000000 0.000000
# 2 -0.006173 0.010645 -0.002907 0.000000 0.000000 0.000000
# 3 0.003918 -0.002907 0.029450 0.000000 0.000000 0.000000
# 4 0.000000 0.000000 0.000000 0.036711 0.000000 0.000000
# 5 0.000000 0.000000 0.000000 0.000000 0.064392 0.000000
# 6 0.000000 0.000000 0.000000 0.000000 0.000000 0.048716
#
#
# Mechanical properties :
#
#
# Convention : Reuss Voigt Hill
#
# Bulk Modulus (GPa) = 17.09387 26.47639 21.78513
# Shear Modulus (GPa) = 20.12332 23.13805 21.63068
#
# Velocity S-wave (km/s) = 3.37329 3.61716 3.49735
# Velocity P-wave (km/s) = 4.98379 5.69356 5.35046
#
# Compressibility (1/GPa) = 0.05850051
#
# Stress axis : x y z
#
# Youngs Moduli (GPa) = 34.80719 93.93961 33.95618
#
# Poissons Ratio (x) = 0.57992 -0.13305
# Poissons Ratio (y) = 0.21488 0.09871
# Poissons Ratio (z) = -0.13639 0.27309
#
# Static dielectric constant tensor:
#      x y z
#    x 1.606330 0.000000 0.000000 
#    y 0.000000 1.655270 0.000000 
#    z 0.000000 0.000000 1.596510 
# 
# From -- ./inp_files/5936.got.cif
#   From: 2010.05.17/outbox.cif.g08.bks.cpg/sg46_3_cif.got.tgz:5936.got - 2010.06.03 19:58:25.
