data_PCOD9378388
_publ_section_title
;
Structure prediction by ZEFSAII (Michael W. Deem and Ramdas Pophale) SiO2 
 PCOD9378388
Probable space group: I M A 2
;
_chemical_formula_sum "Si O2"
_cell_formula_units_Z 56
_cell_length_a 13.616289
_cell_length_b 12.177742
_cell_length_c 15.325005
_cell_angle_alpha 90.000000
_cell_angle_beta 90.000000
_cell_angle_gamma 90.000000
_cell_volume 2541.125733
_symmetry_space_group_name_H-M "I M A 2"
_symmetry_group_IT_number 46
_symmetry_cell_setting 'orthorhombic'
loop_
_space_group_symop_operation_xyz
x,y,z
-x,-y,z
1/2-x,y,z
1/2+x,-y,z
1/2+x,1/2+y,1/2+z
1/2-x,1/2-y,1/2+z
-x,1/2+y,1/2+z
x,1/2-y,1/2+z
loop_
_atom_site_type_symbol
_atom_site_label
_atom_site_fract_x
_atom_site_fract_y
_atom_site_fract_z
Si Si1 0.635414 0.428968 0.233970
Si Si2 0.446596 0.259434 0.959233
Si Si3 0.590446 0.411994 0.885455
Si Si4 0.433735 0.344189 0.633877
Si Si5 0.143068 0.919488 0.188449
Si Si6 0.074713 0.331795 0.278179
Si Si7 0.643371 0.532732 0.051939
O O1 0.750000 0.390004 0.240670
O O2 0.543405 0.358459 0.270113
O O3 0.625982 0.549930 0.276506
O O4 0.610966 0.456966 0.132174
O O5 0.551881 0.296255 0.922229
O O6 0.396233 0.231781 0.866939
O O7 0.426911 0.165860 0.029619
O O8 0.419049 0.365178 0.018038
O O9 0.500000 0.500000 0.870662
O O10 0.640080 0.403911 0.792483
O O11 0.649279 0.461954 0.964748
O O12 0.550354 0.354732 0.651353
O O13 0.379854 0.453286 0.667137
O O14 0.399553 0.243046 0.694552
O O15 0.250000 0.887610 0.154350
O O16 0.750000 0.575899 0.077714
#
# Coordination Sequence:
#
# PCOD9378388 Si02
#       7
#     8   8   8   8   8   8   8
#     4  10  23  40  61  91 129 166 206 256 313 374
#     4  11  22  37  66  87 122 165 210 256 309 373
#     4  10  18  36  60  89 118 156 205 263 309 359
#     4  11  22  42  62  93 125 165 211 254 317 374
#     4  11  23  40  62  89 129 167 205 259 314 373
#     4  11  22  41  64  92 123 171 204 257 318 367
#     4  10  20  35  60  92 118 155 212 268 312 358
#
# _framework density 22.037476999999999
#
# number of rings (size 3 to 8) (size 9 to 14) (size 15 to 20)
#    0.000    1.429    4.286    2.143    4.000    4.571 
#    0.000    3.571    0.000    0.000    0.000    0.000 
#    0.000    0.000    0.000    0.000    0.000    0.000 
#
# Total GULP energy -156056.528754 kJ/mol
# GULP energy per Si atom -5573.447455 kJ/mol
# Density = 2.198732 g / cm^3
# Si number density = 22.037477 Si / 1000 Ang^3
#
#
#
# Elastic Constant Matrix: (Units=GPa)
#
#
# Indices 1 2 3 4 5 6 
#
# 1 65.5543 -18.6566 4.2603 0.0000 0.0000 0.0000
# 2 -18.6566 40.3237 12.3965 0.0000 0.0000 0.0000
# 3 4.2603 12.3965 141.3233 0.0000 0.0000 0.0000
# 4 0.0000 0.0000 0.0000 21.6455 0.0000 0.0000
# 5 0.0000 0.0000 0.0000 0.0000 8.6079 0.0000
# 6 0.0000 0.0000 0.0000 0.0000 0.0000 0.9057
#
#
#
# Elastic Compliance Matrix: (Units=1/GPa)
#
#
# Indices 1 2 3 4 5 6 
#
# 1 0.017795 0.008631 -0.001294 0.000000 0.000000 0.000000
# 2 0.008631 0.029673 -0.002863 0.000000 0.000000 0.000000
# 3 -0.001294 -0.002863 0.007366 0.000000 0.000000 0.000000
# 4 0.000000 0.000000 0.000000 0.046199 0.000000 0.000000
# 5 0.000000 0.000000 0.000000 0.000000 0.116173 0.000000
# 6 0.000000 0.000000 0.000000 0.000000 0.000000 1.104127
#
#
# Mechanical properties :
#
#
# Convention : Reuss Voigt Hill
#
# Bulk Modulus (GPa) = 15.67830 27.02242 21.35036
# Shear Modulus (GPa) = 3.74912 22.84523 13.29717
#
# Velocity S-wave (km/s) = 1.30573 3.22320 2.45906
# Velocity P-wave (km/s) = 3.06644 5.11280 4.21567
#
# Compressibility (1/GPa) = 0.06378244
#
# Stress axis : x y z
#
# Youngs Moduli (GPa) = 56.19579 33.70097 135.75700
#
# Poissons Ratio (x) = -0.29087 0.17560
# Poissons Ratio (y) = -0.48502 0.38867
# Poissons Ratio (z) = 0.07269 0.09649
#
# Static dielectric constant tensor:
#      x y z
#    x 1.872950 0.000000 0.000000 
#    y 0.000000 1.884070 0.000000 
#    z 0.000000 0.000000 1.805230 
# 
# From -- ./inp_files/15942.got.cif
#   From: 2010.05.17/outbox.cif.g08.bks.cpg/sg46_8_cif.got.tgz:15942.got - 2010.06.03 19:58:25.
