data_PCOD9378304
_publ_section_title
;
Structure prediction by ZEFSAII (Michael W. Deem and Ramdas Pophale) SiO2 
 PCOD9378304
Probable space group: I M A 2
;
_chemical_formula_sum "Si O2"
_cell_formula_units_Z 64
_cell_length_a 16.460505
_cell_length_b 20.912530
_cell_length_c 9.285502
_cell_angle_alpha 90.000000
_cell_angle_beta 90.000000
_cell_angle_gamma 90.000000
_cell_volume 3196.355825
_symmetry_space_group_name_H-M "I M A 2"
_symmetry_group_IT_number 46
_symmetry_cell_setting 'orthorhombic'
loop_
_space_group_symop_operation_xyz
x,y,z
-x,-y,z
1/2-x,y,z
1/2+x,-y,z
1/2+x,1/2+y,1/2+z
1/2-x,1/2-y,1/2+z
-x,1/2+y,1/2+z
x,1/2-y,1/2+z
loop_
_atom_site_type_symbol
_atom_site_label
_atom_site_fract_x
_atom_site_fract_y
_atom_site_fract_z
Si Si1 0.844332 0.984458 0.496130
Si Si2 0.942377 0.438466 0.492284
Si Si3 0.614805 0.837461 0.484073
Si Si4 0.107469 0.241740 0.214118
Si Si5 0.420691 0.814924 0.514772
Si Si6 0.002163 0.194456 0.955450
Si Si7 0.152928 0.914139 0.721006
Si Si8 0.344575 0.595482 0.772410
O O1 0.750000 0.979253 0.534992
O O2 0.873301 0.912700 0.483697
O O3 0.882218 0.030412 0.616507
O O4 0.849878 0.027053 0.353287
O O5 0.992807 0.379689 0.429320
O O6 0.868943 0.440121 0.378312
O O7 0.905276 0.412169 0.640348
O O8 0.000000 0.500000 0.506239
O O9 0.646009 0.804296 0.335631
O O10 0.650050 0.797993 0.621192
O O11 0.516808 0.829476 0.496741
O O12 0.039309 0.276004 0.311098
O O13 0.064902 0.201290 0.088326
O O14 0.423617 0.737553 0.500233
O O15 0.385665 0.847931 0.659447
O O16 0.373380 0.849951 0.384527
O O17 0.250000 0.907210 0.704568
O O18 0.250000 0.606244 0.733552
#
# Coordination Sequence:
#
# PCOD9378304 Si02
#       8
#     8   8   8   8   8   8   8   8
#     4   9  21  38  59  77 112 153 195 237 286 346
#     4  12  25  34  57  87 119 153 198 238 286 343
#     4  10  18  33  58  83 111 144 197 231 293 339
#     4   8  18  32  55  80 115 144 172 248 286 334
#     4   9  19  36  65  81 109 150 193 241 284 346
#     4  10  19  36  52  86 120 142 190 235 293 325
#     4  10  22  40  56  84 120 153 193 244 294 349
#     4  10  22  40  56  84 120 153 193 244 294 349
#
# _framework density 20.022801000000001
#
# number of rings (size 3 to 8) (size 9 to 14) (size 15 to 20)
#    0.000    2.500    0.000    4.500    7.000    1.000 
#    0.000    4.375    0.000    0.000    0.000    0.000 
#    0.000    0.000    0.000    0.000    0.000    0.000 
#
# Total GULP energy -178136.731292 kJ/mol
# GULP energy per Si atom -5566.772853 kJ/mol
# Density = 1.997723 g / cm^3
# Si number density = 20.022801 Si / 1000 Ang^3
#
#
#
# Elastic Constant Matrix: (Units=GPa)
#
#
# Indices 1 2 3 4 5 6 
#
# 1 44.4417 4.5067 1.4043 0.0000 0.0000 0.0000
# 2 4.5067 96.0098 -15.1172 0.0000 0.0000 0.0000
# 3 1.4043 -15.1172 54.7787 0.0000 0.0000 0.0000
# 4 0.0000 0.0000 0.0000 7.2181 0.0000 0.0000
# 5 0.0000 0.0000 0.0000 0.0000 4.9238 0.0000
# 6 0.0000 0.0000 0.0000 0.0000 0.0000 0.2058
#
#
#
# Elastic Compliance Matrix: (Units=1/GPa)
#
#
# Indices 1 2 3 4 5 6 
#
# 1 0.022653 -0.001207 -0.000914 0.000000 0.000000 0.000000
# 2 -0.001207 0.010953 0.003054 0.000000 0.000000 0.000000
# 3 -0.000914 0.003054 0.019121 0.000000 0.000000 0.000000
# 4 0.000000 0.000000 0.000000 0.138540 0.000000 0.000000
# 5 0.000000 0.000000 0.000000 0.000000 0.203096 0.000000
# 6 0.000000 0.000000 0.000000 0.000000 0.000000 4.858555
#
#
# Mechanical properties :
#
#
# Convention : Reuss Voigt Hill
#
# Bulk Modulus (GPa) = 18.31760 19.64643 18.98202
# Shear Modulus (GPa) = 0.94890 16.09865 8.52377
#
# Velocity S-wave (km/s) = 0.68916 2.83859 2.06550
# Velocity P-wave (km/s) = 3.13073 4.53617 3.89733
#
# Compressibility (1/GPa) = 0.05459230
#
# Stress axis : x y z
#
# Youngs Moduli (GPa) = 44.14491 91.29849 52.29742
#
# Poissons Ratio (x) = 0.11022 0.04779
# Poissons Ratio (y) = 0.05329 -0.15970
# Poissons Ratio (z) = 0.04034 -0.27879
#
# Static dielectric constant tensor:
#      x y z
#    x 1.740970 0.000000 0.000000 
#    y 0.000000 1.781960 0.000000 
#    z 0.000000 0.000000 1.763850 
# 
# From -- ./inp_files/6961.got.cif
#   From: 2010.05.17/outbox.cif.g08.bks.cpg/sg46_4_cif.got.tgz:6961.got - 2010.06.03 19:58:25.
