data_PCOD9378696
_publ_section_title
;
Structure prediction by ZEFSAII (Michael W. Deem and Ramdas Pophale) SiO2 
 PCOD9378696
Probable space group: I M A 2
;
_chemical_formula_sum "Si O2"
_cell_formula_units_Z 56
_cell_length_a 8.664888
_cell_length_b 14.959494
_cell_length_c 22.408267
_cell_angle_alpha 90.000000
_cell_angle_beta 90.000000
_cell_angle_gamma 90.000000
_cell_volume 2904.612005
_symmetry_space_group_name_H-M "I M A 2"
_symmetry_group_IT_number 46
_symmetry_cell_setting 'orthorhombic'
loop_
_space_group_symop_operation_xyz
x,y,z
-x,-y,z
1/2-x,y,z
1/2+x,-y,z
1/2+x,1/2+y,1/2+z
1/2-x,1/2-y,1/2+z
-x,1/2+y,1/2+z
x,1/2-y,1/2+z
loop_
_atom_site_type_symbol
_atom_site_label
_atom_site_fract_x
_atom_site_fract_y
_atom_site_fract_z
Si Si1 0.065389 0.595673 0.513430
Si Si2 0.935697 0.404378 0.375693
Si Si3 0.435713 0.095654 0.435369
Si Si4 0.935861 0.719915 0.043825
Si Si5 0.935067 0.405219 0.801897
Si Si6 0.934724 0.599854 0.156394
Si Si7 0.563618 0.286077 0.265402
O O1 0.250000 0.592530 0.514625
O O2 0.013013 0.608669 0.444095
O O3 0.000000 0.500000 0.533492
O O4 0.006121 0.681736 0.548500
O O5 0.750000 0.408252 0.376075
O O6 0.982649 0.328140 0.329360
O O7 0.000000 0.500000 0.355050
O O8 0.250000 0.091508 0.432259
O O9 0.481783 0.172744 0.481564
O O10 0.503328 0.108514 0.369329
O O11 0.500000 0.000000 0.457181
O O12 0.750000 0.726871 0.044285
O O13 0.983180 0.654906 0.097572
O O14 0.750000 0.409889 0.804296
O O15 0.980894 0.318067 0.764343
O O16 0.000000 0.500000 0.780270
O O17 0.750000 0.594901 0.156942
O O18 0.000000 0.500000 0.156342
O O19 0.991907 0.654802 0.213567
O O20 0.750000 0.291212 0.261419
#
# Coordination Sequence:
#
# PCOD9378696 Si02
#       7
#     8   8   8   8   8   8   8
#     4  10  20  35  57  83 112 145 180 222 271 324
#     4   9  18  32  51  79 111 141 175 217 267 321
#     4  10  19  32  53  81 113 146 181 223 272 326
#     4  10  22  38  55  79 110 145 185 227 270 319
#     4  10  20  35  55  81 113 144 179 224 272 325
#     4  11  24  41  60  82 110 142 180 225 269 318
#     4  10  21  37  56  79 109 145 185 226 270 321
#
# _framework density 19.279684
#
# number of rings (size 3 to 8) (size 9 to 14) (size 15 to 20)
#    0.000    2.000    0.000    4.286    0.000    6.857 
#    0.000    0.714    0.000    1.714    0.000    0.000 
#    0.000    0.000    0.000    0.000    0.000    0.000 
#
# Total GULP energy -156395.241814 kJ/mol
# GULP energy per Si atom -5585.544351 kJ/mol
# Density = 1.923580 g / cm^3
# Si number density = 19.279684 Si / 1000 Ang^3
#
#
#
# Elastic Constant Matrix: (Units=GPa)
#
#
# Indices 1 2 3 4 5 6 
#
# 1 34.5245 46.2869 19.3104 0.0000 0.0000 0.0000
# 2 46.2869 202.2375 62.4696 0.0000 0.0000 0.0000
# 3 19.3104 62.4696 44.7836 0.0000 0.0000 0.0000
# 4 0.0000 0.0000 0.0000 32.7135 0.0000 0.0000
# 5 0.0000 0.0000 0.0000 0.0000 20.2873 0.0000
# 6 0.0000 0.0000 0.0000 0.0000 0.0000 31.4972
#
#
#
# Elastic Compliance Matrix: (Units=1/GPa)
#
#
# Indices 1 2 3 4 5 6 
#
# 1 0.043583 -0.007327 -0.008572 0.000000 0.000000 0.000000
# 2 -0.007327 0.009920 -0.010678 0.000000 0.000000 0.000000
# 3 -0.008572 -0.010678 0.040921 0.000000 0.000000 0.000000
# 4 0.000000 0.000000 0.000000 0.030568 0.000000 0.000000
# 5 0.000000 0.000000 0.000000 0.000000 0.049292 0.000000
# 6 0.000000 0.000000 0.000000 0.000000 0.000000 0.031749
#
#
# Mechanical properties :
#
#
# Convention : Reuss Voigt Hill
#
# Bulk Modulus (GPa) = 24.23092 59.74216 41.98654
# Shear Modulus (GPa) = 18.31870 27.13151 22.72511
#
# Velocity S-wave (km/s) = 3.08580 3.75542 3.43696
# Velocity P-wave (km/s) = 5.02908 7.06106 6.12985
#
# Compressibility (1/GPa) = 0.04126959
#
# Stress axis : x y z
#
# Youngs Moduli (GPa) = 22.94469 100.80464 24.43718
#
# Poissons Ratio (x) = 0.73862 0.20947
# Poissons Ratio (y) = 0.16812 0.26095
# Poissons Ratio (z) = 0.19668 1.07643
#
# Static dielectric constant tensor:
#      x y z
#    x 1.648770 0.000000 0.000000 
#    y 0.000000 1.670690 0.000000 
#    z 0.000000 0.000000 1.665720 
# 
# From -- ./inp_files/21113.got.cif
#   From: 2010.05.17/outbox.cif.g08.bks.cpg/sg46_11_cif.got.tgz:21113.got - 2010.06.03 19:58:25.
