data_PCOD9378504
_publ_section_title
;
Structure prediction by ZEFSAII (Michael W. Deem and Ramdas Pophale) SiO2 
 PCOD9378504
Probable space group: I M A 2
;
_chemical_formula_sum "Si O2"
_cell_formula_units_Z 48
_cell_length_a 7.435947
_cell_length_b 26.022163
_cell_length_c 16.747049
_cell_angle_alpha 90.000000
_cell_angle_beta 90.000000
_cell_angle_gamma 90.000000
_cell_volume 3240.544350
_symmetry_space_group_name_H-M "I M A 2"
_symmetry_group_IT_number 46
_symmetry_cell_setting 'orthorhombic'
loop_
_space_group_symop_operation_xyz
x,y,z
-x,-y,z
1/2-x,y,z
1/2+x,-y,z
1/2+x,1/2+y,1/2+z
1/2-x,1/2-y,1/2+z
-x,1/2+y,1/2+z
x,1/2-y,1/2+z
loop_
_atom_site_type_symbol
_atom_site_label
_atom_site_fract_x
_atom_site_fract_y
_atom_site_fract_z
Si Si1 0.250000 0.270750 0.239411
Si Si2 0.036437 0.939672 0.780730
Si Si3 0.957405 0.147647 0.483582
Si Si4 0.541116 0.255665 0.104898
Si Si5 0.964366 0.059480 0.598438
Si Si6 0.250000 0.204239 0.003008
Si Si7 0.250000 0.368498 0.357595
Si Si8 0.250000 0.197527 0.383822
O O1 0.425778 0.269432 0.183159
O O2 0.250000 0.320729 0.295656
O O3 0.250000 0.220686 0.295966
O O4 0.250000 0.930416 0.785744
O O5 0.972846 0.929993 0.688970
O O6 0.922739 0.903466 0.838213
O O7 0.000000 0.000000 0.796096
O O8 0.750000 0.139125 0.460714
O O9 0.961475 0.194337 0.547465
O O10 0.031576 0.098455 0.531534
O O11 0.077296 0.164510 0.409222
O O12 0.750000 0.242834 0.120061
O O13 0.426121 0.212260 0.058097
O O14 0.750000 0.067054 0.601063
O O15 0.000000 0.000000 0.580409
O O16 0.250000 0.154862 0.946400
O O17 0.250000 0.252847 0.942456
#
# Coordination Sequence:
#
# PCOD9378504 Si02
#       8
#     4   8   8   8   8   4   4   4
#     4  10  20  30  44  74  90 116 160 192 234 280
#     4  10  19  31  43  63  92 130 166 194 227 262
#     4   9  17  29  43  61  85 123 153 181 222 262
#     4   9  17  32  50  64  92 120 153 195 231 278
#     4   9  18  27  39  61  86 117 163 195 210 250
#     4   8  18  32  44  70  88 120 160 190 230 274
#     4  11  20  30  48  66 100 128 158 199 228 283
#     4   9  18  30  44  60  92 120 148 187 230 273
#
# _framework density 14.812327
#
# number of rings (size 3 to 8) (size 9 to 14) (size 15 to 20)
#    0.000    2.667    0.833    1.500    2.333    3.333 
#    0.000    3.333    0.000    0.000    0.000    0.000 
#    0.000    5.333    0.000    0.000    0.000    0.000 
#
# Total GULP energy -133716.090320 kJ/mol
# GULP energy per Si atom -5571.503763 kJ/mol
# Density = 1.477861 g / cm^3
# Si number density = 14.812327 Si / 1000 Ang^3
#
#
#
# Elastic Constant Matrix: (Units=GPa)
#
#
# Indices 1 2 3 4 5 6 
#
# 1 107.4328 23.3831 26.9376 0.0000 0.0000 0.0000
# 2 23.3831 57.6585 17.2254 0.0000 0.0000 0.0000
# 3 26.9376 17.2254 35.8973 0.0000 0.0000 0.0000
# 4 0.0000 0.0000 0.0000 28.4169 0.0000 0.0000
# 5 0.0000 0.0000 0.0000 0.0000 12.3239 0.0000
# 6 0.0000 0.0000 0.0000 0.0000 0.0000 11.4744
#
#
#
# Elastic Compliance Matrix: (Units=1/GPa)
#
#
# Indices 1 2 3 4 5 6 
#
# 1 0.011764 -0.002491 -0.007633 0.000000 0.000000 0.000000
# 2 -0.002491 0.020773 -0.008099 0.000000 0.000000 0.000000
# 3 -0.007633 -0.008099 0.037471 0.000000 0.000000 0.000000
# 4 0.000000 0.000000 0.000000 0.035190 0.000000 0.000000
# 5 0.000000 0.000000 0.000000 0.000000 0.081143 0.000000
# 6 0.000000 0.000000 0.000000 0.000000 0.000000 0.087150
#
#
# Mechanical properties :
#
#
# Convention : Reuss Voigt Hill
#
# Bulk Modulus (GPa) = 29.79414 37.34233 33.56824
# Shear Modulus (GPa) = 15.57027 19.33921 17.45474
#
# Velocity S-wave (km/s) = 3.24569 3.61725 3.43650
# Velocity P-wave (km/s) = 5.84843 6.53537 6.20142
#
# Compressibility (1/GPa) = 0.03356365
#
# Stress axis : x y z
#
# Youngs Moduli (GPa) = 85.00470 48.13908 26.68713
#
# Poissons Ratio (x) = 0.11989 0.20370
# Poissons Ratio (y) = 0.21171 0.21614
# Poissons Ratio (z) = 0.64882 0.38988
#
# Static dielectric constant tensor:
#      x y z
#    x 1.517930 0.000000 0.000000 
#    y 0.000000 1.493360 0.000000 
#    z 0.000000 0.000000 1.474440 
# 
# From -- ./inp_files/14054.got.cif
#   From: 2010.05.17/outbox.cif.g08.bks.cpg/sg46_8_cif.got.tgz:14054.got - 2010.06.03 19:58:25.
