data_PCOD9378270
_publ_section_title
;
Structure prediction by ZEFSAII (Michael W. Deem and Ramdas Pophale) SiO2 
 PCOD9378270
Probable space group: I M A 2
;
_chemical_formula_sum "Si O2"
_cell_formula_units_Z 60
_cell_length_a 14.525639
_cell_length_b 18.517248
_cell_length_c 10.576939
_cell_angle_alpha 90.000000
_cell_angle_beta 90.000000
_cell_angle_gamma 90.000000
_cell_volume 2844.930684
_symmetry_space_group_name_H-M "I M A 2"
_symmetry_group_IT_number 46
_symmetry_cell_setting 'orthorhombic'
loop_
_space_group_symop_operation_xyz
x,y,z
-x,-y,z
1/2-x,y,z
1/2+x,-y,z
1/2+x,1/2+y,1/2+z
1/2-x,1/2-y,1/2+z
-x,1/2+y,1/2+z
x,1/2-y,1/2+z
loop_
_atom_site_type_symbol
_atom_site_label
_atom_site_fract_x
_atom_site_fract_y
_atom_site_fract_z
Si Si1 0.141468 0.295510 0.791890
Si Si2 0.396576 0.530970 0.691162
Si Si3 0.849784 0.574653 0.470757
Si Si4 0.046650 0.284440 0.524349
Si Si5 0.353856 0.943421 0.784356
Si Si6 0.500000 0.000000 0.604751
Si Si7 0.643722 0.164741 0.022416
Si Si8 0.648321 0.947369 0.416580
O O1 0.250000 0.278595 0.779836
O O2 0.089289 0.273538 0.663608
O O3 0.133449 0.381060 0.819895
O O4 0.097514 0.260129 0.915972
O O5 0.500000 0.500000 0.695040
O O6 0.348663 0.479635 0.588420
O O7 0.383133 0.610841 0.637528
O O8 0.356580 0.518334 0.829451
O O9 0.750000 0.612335 0.464565
O O10 0.929298 0.632253 0.488936
O O11 0.860769 0.521991 0.352128
O O12 0.936687 0.276133 0.520467
O O13 0.250000 0.937100 0.730996
O O14 0.436366 0.946073 0.685982
O O15 0.362362 0.883457 0.894119
O O16 0.569572 0.953785 0.519308
O O17 0.750000 0.188147 0.035508
O O18 0.750000 0.938258 0.472850
#
# Coordination Sequence:
#
# PCOD9378270 Si02
#       8
#     8   8   8   8   8   4   8   8
#     4  11  25  43  62  90 126 167 214 267 320 384
#     4  11  17  33  60  93 119 148 194 265 322 369
#     4  10  18  32  59  86 113 151 198 253 310 368
#     4  12  23  40  64  89 125 167 219 263 317 376
#     4   9  20  35  54  88 124 154 195 252 318 382
#     4  12  22  34  56  84 124 164 194 240 316 384
#     4  10  21  38  65  94 119 154 210 271 322 378
#     4  11  23  38  57  85 123 159 199 252 316 381
#
# _framework density 21.090145
#
# number of rings (size 3 to 8) (size 9 to 14) (size 15 to 20)
#    0.000    1.333    3.333    4.400    1.867    2.133 
#    0.000    2.000    0.000    1.600    0.000    0.000 
#    0.000    0.000    0.000    0.000    0.000    0.000 
#
# Total GULP energy -167591.640236 kJ/mol
# GULP energy per Si atom -5586.388008 kJ/mol
# Density = 2.104214 g / cm^3
# Si number density = 21.090145 Si / 1000 Ang^3
#
#
#
# Elastic Constant Matrix: (Units=GPa)
#
#
# Indices 1 2 3 4 5 6 
#
# 1 191.7437 9.9264 72.6354 0.0000 0.0000 0.0000
# 2 9.9264 13.4622 12.7654 0.0000 0.0000 0.0000
# 3 72.6354 12.7654 108.7881 0.0000 0.0000 0.0000
# 4 0.0000 0.0000 0.0000 15.1901 0.0000 0.0000
# 5 0.0000 0.0000 0.0000 0.0000 16.0875 0.0000
# 6 0.0000 0.0000 0.0000 0.0000 0.0000 16.6035
#
#
#
# Elastic Compliance Matrix: (Units=1/GPa)
#
#
# Indices 1 2 3 4 5 6 
#
# 1 0.006989 -0.000820 -0.004570 0.000000 0.000000 0.000000
# 2 -0.000820 0.083678 -0.009272 0.000000 0.000000 0.000000
# 3 -0.004570 -0.009272 0.013332 0.000000 0.000000 0.000000
# 4 0.000000 0.000000 0.000000 0.065832 0.000000 0.000000
# 5 0.000000 0.000000 0.000000 0.000000 0.062160 0.000000
# 6 0.000000 0.000000 0.000000 0.000000 0.000000 0.060228
#
#
# Mechanical properties :
#
#
# Convention : Reuss Voigt Hill
#
# Bulk Modulus (GPa) = 13.39127 56.07204 34.73166
# Shear Modulus (GPa) = 14.43276 24.15402 19.29339
#
# Velocity S-wave (km/s) = 2.61882 3.38786 3.02786
# Velocity P-wave (km/s) = 3.93797 6.47673 5.35984
#
# Compressibility (1/GPa) = 0.07467550
#
# Stress axis : x y z
#
# Youngs Moduli (GPa) = 143.08208 11.95057 75.01005
#
# Poissons Ratio (x) = 0.00980 0.34281
# Poissons Ratio (y) = 0.11729 0.69546
# Poissons Ratio (z) = 0.65391 0.11080
#
# Static dielectric constant tensor:
#      x y z
#    x 1.828510 0.000000 0.000000 
#    y 0.000000 1.779720 0.000000 
#    z 0.000000 0.000000 1.764720 
# 
# From -- ./inp_files/11273.got.cif
#   From: 2010.05.17/outbox.cif.g08.bks.cpg/sg46_6_cif.got.tgz:11273.got - 2010.06.03 19:58:25.
