data_PCOD9378308
_publ_section_title
;
Structure prediction by ZEFSAII (Michael W. Deem and Ramdas Pophale) SiO2 
 PCOD9378308
Probable space group: I M A 2
;
_chemical_formula_sum "Si O2"
_cell_formula_units_Z 56
_cell_length_a 27.629020
_cell_length_b 6.641797
_cell_length_c 14.451517
_cell_angle_alpha 90.000000
_cell_angle_beta 90.000000
_cell_angle_gamma 90.000000
_cell_volume 2651.945023
_symmetry_space_group_name_H-M "I M A 2"
_symmetry_group_IT_number 46
_symmetry_cell_setting 'orthorhombic'
loop_
_space_group_symop_operation_xyz
x,y,z
-x,-y,z
1/2-x,y,z
1/2+x,-y,z
1/2+x,1/2+y,1/2+z
1/2-x,1/2-y,1/2+z
-x,1/2+y,1/2+z
x,1/2-y,1/2+z
loop_
_atom_site_type_symbol
_atom_site_label
_atom_site_fract_x
_atom_site_fract_y
_atom_site_fract_z
Si Si1 0.302346 0.213350 0.768490
Si Si2 0.053506 0.411464 0.764273
Si Si3 0.406442 0.825279 0.110324
Si Si4 0.804340 0.985646 0.106135
Si Si5 0.899491 0.494288 0.267624
Si Si6 0.894024 0.329879 0.922239
Si Si7 0.195257 0.110981 0.471018
O O1 0.250000 0.119014 0.746783
O O2 0.304150 0.423910 0.713923
O O3 0.348197 0.087626 0.738759
O O4 0.305356 0.260189 0.876375
O O5 0.073214 0.476719 0.662365
O O6 0.062222 0.174342 0.777159
O O7 0.082305 0.516438 0.848705
O O8 0.000000 0.500000 0.769854
O O9 0.414968 0.657862 0.187981
O O10 0.349656 0.871046 0.092911
O O11 0.424398 0.740403 0.012220
O O12 0.750000 0.056249 0.081122
O O13 0.812811 0.775496 0.051391
O O14 0.888452 0.371366 0.361110
O O15 0.845815 0.443605 0.957995
O O16 0.250000 0.028927 0.481874
#
# Coordination Sequence:
#
# PCOD9378308 Si02
#       7
#     8   8   8   8   8   8   8
#     4  10  18  33  59  87 123 176 217 253 320 391
#     4  11  26  50  68  93 130 170 213 293 349 400
#     4  11  24  40  67 102 127 173 226 269 334 408
#     4  10  20  36  60  93 138 181 222 270 324 393
#     4  11  22  42  68  92 137 174 218 284 343 396
#     4  11  24  40  67 102 127 173 226 269 334 408
#     4  10  20  36  60  93 138 181 222 270 324 393
#
# _framework density 21.116576999999999
#
# number of rings (size 3 to 8) (size 9 to 14) (size 15 to 20)
#    0.000    1.429    2.857    2.571    0.000    4.000 
#    5.143    0.000    0.000    0.000    0.000    0.000 
#    0.000    0.000    0.000    0.000    0.000    0.000 
#
# Total GULP energy -156233.534616 kJ/mol
# GULP energy per Si atom -5579.769093 kJ/mol
# Density = 2.106851 g / cm^3
# Si number density = 21.116577 Si / 1000 Ang^3
#
#
#
# Elastic Constant Matrix: (Units=GPa)
#
#
# Indices 1 2 3 4 5 6 
#
# 1 86.1286 30.6986 -1.4591 0.0000 0.0000 0.0000
# 2 30.6986 86.4685 10.6222 0.0000 0.0000 0.0000
# 3 -1.4591 10.6222 89.7306 0.0000 0.0000 0.0000
# 4 0.0000 0.0000 0.0000 23.3370 0.0000 0.0000
# 5 0.0000 0.0000 0.0000 0.0000 7.3649 0.0000
# 6 0.0000 0.0000 0.0000 0.0000 0.0000 13.9985
#
#
#
# Elastic Compliance Matrix: (Units=1/GPa)
#
#
# Indices 1 2 3 4 5 6 
#
# 1 0.013347 -0.004836 0.000789 0.000000 0.000000 0.000000
# 2 -0.004836 0.013488 -0.001675 0.000000 0.000000 0.000000
# 3 0.000789 -0.001675 0.011356 0.000000 0.000000 0.000000
# 4 0.000000 0.000000 0.000000 0.042851 0.000000 0.000000
# 5 0.000000 0.000000 0.000000 0.000000 0.135779 0.000000
# 6 0.000000 0.000000 0.000000 0.000000 0.000000 0.071436
#
#
# Mechanical properties :
#
#
# Convention : Reuss Voigt Hill
#
# Bulk Modulus (GPa) = 37.38646 38.00569 37.69607
# Shear Modulus (GPa) = 16.20139 23.77112 19.98625
#
# Velocity S-wave (km/s) = 2.77291 3.35880 3.07982
# Velocity P-wave (km/s) = 5.29105 5.75145 5.52605
#
# Compressibility (1/GPa) = 0.02674765
#
# Stress axis : x y z
#
# Youngs Moduli (GPa) = 74.92044 74.14270 88.06208
#
# Poissons Ratio (x) = 0.35853 -0.06952
# Poissons Ratio (y) = 0.36229 0.14753
# Poissons Ratio (z) = -0.05915 0.12421
#
# Static dielectric constant tensor:
#      x y z
#    x 1.794170 0.000000 0.000000 
#    y 0.000000 1.781160 0.000000 
#    z 0.000000 0.000000 1.780000 
# 
# From -- ./inp_files/17677.got.cif
#   From: 2010.05.17/outbox.cif.g08.bks.cpg/sg46_9_cif.got.tgz:17677.got - 2010.06.03 19:58:25.
