data_PCOD9378518
_publ_section_title
;
Structure prediction by ZEFSAII (Michael W. Deem and Ramdas Pophale) SiO2 
 PCOD9378518
Probable space group: I M A 2
;
_chemical_formula_sum "Si O2"
_cell_formula_units_Z 56
_cell_length_a 8.961350
_cell_length_b 19.655999
_cell_length_c 17.855931
_cell_angle_alpha 90.000000
_cell_angle_beta 90.000000
_cell_angle_gamma 90.000000
_cell_volume 3145.220228
_symmetry_space_group_name_H-M "I M A 2"
_symmetry_group_IT_number 46
_symmetry_cell_setting 'orthorhombic'
loop_
_space_group_symop_operation_xyz
x,y,z
-x,-y,z
1/2-x,y,z
1/2+x,-y,z
1/2+x,1/2+y,1/2+z
1/2-x,1/2-y,1/2+z
-x,1/2+y,1/2+z
x,1/2-y,1/2+z
loop_
_atom_site_type_symbol
_atom_site_label
_atom_site_fract_x
_atom_site_fract_y
_atom_site_fract_z
Si Si1 0.928262 0.686694 0.018730
Si Si2 0.078488 0.568521 0.931589
Si Si3 0.570746 0.793550 0.904684
Si Si4 0.423749 0.786486 0.270125
Si Si5 0.422554 0.650611 0.175211
Si Si6 0.069896 0.073960 0.813777
Si Si7 0.580571 0.432289 0.750619
O O1 0.750000 0.686644 0.027111
O O2 0.002563 0.660952 0.095024
O O3 0.975190 0.760401 0.984312
O O4 0.981328 0.631616 0.958041
O O5 0.250000 0.574243 0.957239
O O6 0.081155 0.564889 0.841427
O O7 0.000000 0.500000 0.959891
O O8 0.750000 0.792838 0.903327
O O9 0.511244 0.742189 0.841150
O O10 0.525145 0.868938 0.876357
O O11 0.250000 0.798881 0.292247
O O12 0.424884 0.725641 0.211444
O O13 0.484071 0.857112 0.236430
O O14 0.250000 0.628210 0.168938
O O15 0.508937 0.602397 0.234049
O O16 0.250000 0.070049 0.811686
O O17 0.000000 0.000000 0.828304
O O18 0.500000 0.500000 0.723180
O O19 0.750000 0.434030 0.723051
#
# Coordination Sequence:
#
# PCOD9378518 Si02
#       7
#     8   8   8   8   8   8   8
#     4  11  21  34  51  75 106 139 174 213 258 311
#     4  10  19  31  47  70 101 133 165 200 241 290
#     4   9  19  33  53  77 102 133 171 215 262 309
#     4   9  17  32  51  72  98 128 167 211 251 299
#     4  10  21  35  53  76 103 137 173 212 261 314
#     4  10  20  37  58  82 108 137 176 222 269 321
#     4   9  17  28  45  70  97 125 157 197 239 286
#
# _framework density 17.804794999999999
#
# number of rings (size 3 to 8) (size 9 to 14) (size 15 to 20)
#    0.000    2.286    1.429    1.714    0.000    3.429 
#    0.000    2.857    0.000    0.857    0.000    6.000 
#    0.000    0.000    0.000    0.000    0.000    0.000 
#
# Total GULP energy -155950.966568 kJ/mol
# GULP energy per Si atom -5569.677377 kJ/mol
# Density = 1.776427 g / cm^3
# Si number density = 17.804795 Si / 1000 Ang^3
#
#
#
# Elastic Constant Matrix: (Units=GPa)
#
#
# Indices 1 2 3 4 5 6 
#
# 1 47.6790 27.3582 10.7059 0.0000 0.0000 0.0000
# 2 27.3582 130.4831 8.6607 0.0000 0.0000 0.0000
# 3 10.7059 8.6607 27.9073 0.0000 0.0000 0.0000
# 4 0.0000 0.0000 0.0000 10.5336 0.0000 0.0000
# 5 0.0000 0.0000 0.0000 0.0000 13.6961 0.0000
# 6 0.0000 0.0000 0.0000 0.0000 0.0000 28.4976
#
#
#
# Elastic Compliance Matrix: (Units=1/GPa)
#
#
# Indices 1 2 3 4 5 6 
#
# 1 0.025607 -0.004816 -0.008329 0.000000 0.000000 0.000000
# 2 -0.004816 0.008731 -0.000862 0.000000 0.000000 0.000000
# 3 -0.008329 -0.000862 0.039296 0.000000 0.000000 0.000000
# 4 0.000000 0.000000 0.000000 0.094934 0.000000 0.000000
# 5 0.000000 0.000000 0.000000 0.000000 0.073013 0.000000
# 6 0.000000 0.000000 0.000000 0.000000 0.000000 0.035091
#
#
# Mechanical properties :
#
#
# Convention : Reuss Voigt Hill
#
# Bulk Modulus (GPa) = 21.92039 33.27990 27.60015
# Shear Modulus (GPa) = 15.63025 21.16844 18.39935
#
# Velocity S-wave (km/s) = 2.96610 3.45181 3.21813
# Velocity P-wave (km/s) = 4.90597 5.88377 5.41698
#
# Compressibility (1/GPa) = 0.04561962
#
# Stress axis : x y z
#
# Youngs Moduli (GPa) = 39.05129 114.53651 25.44816
#
# Poissons Ratio (x) = 0.55163 0.21196
# Poissons Ratio (y) = 0.18808 0.02193
# Poissons Ratio (z) = 0.32526 0.09872
#
# Static dielectric constant tensor:
#      x y z
#    x 1.610280 0.000000 0.000000 
#    y 0.000000 1.651170 0.000000 
#    z 0.000000 0.000000 1.608390 
# 
# From -- ./inp_files/18456.got.cif
#   From: 2010.05.17/outbox.cif.g08.bks.cpg/sg46_10_cif.got.tgz:18456.got - 2010.06.03 19:58:25.
