data_PCOD9378196
_publ_section_title
;
Structure prediction by ZEFSAII (Michael W. Deem and Ramdas Pophale) SiO2 
 PCOD9378196
Probable space group: I M A 2
;
_chemical_formula_sum "Si O2"
_cell_formula_units_Z 64
_cell_length_a 14.246024
_cell_length_b 11.745052
_cell_length_c 16.955266
_cell_angle_alpha 90.000000
_cell_angle_beta 90.000000
_cell_angle_gamma 90.000000
_cell_volume 2836.960069
_symmetry_space_group_name_H-M "I M A 2"
_symmetry_group_IT_number 46
_symmetry_cell_setting 'orthorhombic'
loop_
_space_group_symop_operation_xyz
x,y,z
-x,-y,z
1/2-x,y,z
1/2+x,-y,z
1/2+x,1/2+y,1/2+z
1/2-x,1/2-y,1/2+z
-x,1/2+y,1/2+z
x,1/2-y,1/2+z
loop_
_atom_site_type_symbol
_atom_site_label
_atom_site_fract_x
_atom_site_fract_y
_atom_site_fract_z
Si Si1 0.859259 0.167154 0.234360
Si Si2 0.635023 0.924046 0.675548
Si Si3 0.637651 0.967683 0.350107
Si Si4 0.860467 0.671533 0.701427
Si Si5 0.860844 0.091945 0.805792
Si Si6 0.135071 0.548299 0.015282
Si Si7 0.096457 0.535747 0.590894
Si Si8 0.644088 0.295200 0.460913
O O1 0.750000 0.141220 0.211834
O O2 0.866013 0.299941 0.247674
O O3 0.922663 0.118616 0.165170
O O4 0.877156 0.093226 0.312590
O O5 0.750000 0.926094 0.674256
O O6 0.601602 0.793829 0.675994
O O7 0.604682 0.984243 0.756847
O O8 0.605921 0.994637 0.598273
O O9 0.750000 0.951160 0.353068
O O10 0.600101 0.880698 0.283680
O O11 0.605778 0.970805 0.440268
O O12 0.750000 0.690051 0.717092
O O13 0.863994 0.576594 0.632851
O O14 0.750000 0.068137 0.822187
O O15 0.903086 0.141167 0.886774
O O16 0.250000 0.550738 0.017130
O O17 0.103979 0.678112 0.996760
O O18 0.151036 0.610980 0.529038
O O19 0.000000 0.500000 0.551231
O O20 0.750000 0.263274 0.433607
#
# Coordination Sequence:
#
# PCOD9378196 Si02
#       8
#     8   8   8   8   8   8   8   8
#     4   9  15  29  54  79 100 128 172 224 271 305
#     4   9  17  28  45  75 110 135 162 206 257 312
#     4   8  13  24  45  72 100 128 161 204 249 300
#     4   9  18  34  52  72 103 140 175 206 251 314
#     4   9  16  28  51  82 109 129 166 225 273 309
#     4   9  15  26  48  80 106 126 164 218 269 308
#     4  11  22  34  52  73 106 139 176 216 260 317
#     4  10  18  31  54  82 105 130 173 224 273 313
#
# _framework density 22.559358
#
# number of rings (size 3 to 8) (size 9 to 14) (size 15 to 20)
#    0.000    2.750    1.250    2.625    0.000    2.000 
#    2.250    0.000    2.750    2.250    0.000    0.000 
#    0.000    0.000    0.000    0.000    0.000    0.000 
#
# Total GULP energy -178494.185472 kJ/mol
# GULP energy per Si atom -5577.943296 kJ/mol
# Density = 2.250801 g / cm^3
# Si number density = 22.559358 Si / 1000 Ang^3
#
#
#
# Elastic Constant Matrix: (Units=GPa)
#
#
# Indices 1 2 3 4 5 6 
#
# 1 57.7179 -1.5306 2.3896 0.0000 0.0000 0.0000
# 2 -1.5306 152.6693 90.5534 0.0000 0.0000 0.0000
# 3 2.3896 90.5534 123.1953 0.0000 0.0000 0.0000
# 4 0.0000 0.0000 0.0000 25.9394 0.0000 0.0000
# 5 0.0000 0.0000 0.0000 0.0000 -7.7233 0.0000
# 6 0.0000 0.0000 0.0000 0.0000 0.0000 3.7113
#
#
#
# Elastic Compliance Matrix: (Units=1/GPa)
#
#
# Indices 1 2 3 4 5 6 
#
# 1 0.017377 0.000663 -0.000825 0.000000 0.000000 0.000000
# 2 0.000663 0.011639 -0.008568 0.000000 0.000000 0.000000
# 3 -0.000825 -0.008568 0.014431 0.000000 0.000000 0.000000
# 4 0.000000 0.000000 0.000000 0.038551 0.000000 0.000000
# 5 0.000000 0.000000 0.000000 0.000000 -0.129478 0.000000
# 6 0.000000 0.000000 0.000000 0.000000 0.000000 0.269448
#
#
# Mechanical properties :
#
#
# Convention : Reuss Voigt Hill
#
# Bulk Modulus (GPa) = 38.47818 57.37859 47.92839
# Shear Modulus (GPa) = 20.15406 20.53014 20.34210
#
# Velocity S-wave (km/s) = 2.99219 3.01998 3.00611
# Velocity P-wave (km/s) = 5.38804 6.13596 5.77413
#
# Compressibility (1/GPa) = 0.02598876
#
# Stress axis : x y z
#
# Youngs Moduli (GPa) = 57.54606 85.92165 69.29659
#
# Poissons Ratio (x) = -0.05700 0.05715
# Poissons Ratio (y) = -0.03817 0.59371
# Poissons Ratio (z) = 0.04746 0.73614
#
# Static dielectric constant tensor:
#      x y z
#    x 1.917920 0.000000 0.000000 
#    y 0.000000 1.801370 0.000000 
#    z 0.000000 0.000000 1.828020 
# 
# From -- ./inp_files/16781.got.cif
#   From: 2010.05.17/outbox.cif.g08.bks.cpg/sg46_9_cif.got.tgz:16781.got - 2010.06.03 19:58:25.
