data_PCOD9378174
_publ_section_title
;
Structure prediction by ZEFSAII (Michael W. Deem and Ramdas Pophale) SiO2 
 PCOD9378174
Probable space group: I M A 2
;
_chemical_formula_sum "Si O2"
_cell_formula_units_Z 60
_cell_length_a 17.398504
_cell_length_b 18.402256
_cell_length_c 7.664295
_cell_angle_alpha 90.000000
_cell_angle_beta 90.000000
_cell_angle_gamma 90.000000
_cell_volume 2453.890548
_symmetry_space_group_name_H-M "I M A 2"
_symmetry_group_IT_number 46
_symmetry_cell_setting 'orthorhombic'
loop_
_space_group_symop_operation_xyz
x,y,z
-x,-y,z
1/2-x,y,z
1/2+x,-y,z
1/2+x,1/2+y,1/2+z
1/2-x,1/2-y,1/2+z
-x,1/2+y,1/2+z
x,1/2-y,1/2+z
loop_
_atom_site_type_symbol
_atom_site_label
_atom_site_fract_x
_atom_site_fract_y
_atom_site_fract_z
Si Si1 0.486777 0.660338 0.909250
Si Si2 0.095457 0.773944 0.106523
Si Si3 0.659876 0.838283 0.765074
Si Si4 0.623551 0.684629 0.642346
Si Si5 0.162443 0.648002 0.280636
Si Si6 0.834386 0.975093 0.159627
Si Si7 0.000000 0.000000 0.344265
Si Si8 0.337596 0.492764 0.238907
O O1 0.416118 0.677740 0.777545
O O2 0.556176 0.680557 0.781824
O O3 0.494917 0.575716 0.945586
O O4 0.475106 0.718309 0.062976
O O5 0.160330 0.714418 0.146052
O O6 0.112645 0.825224 0.944206
O O7 0.750000 0.848604 0.818798
O O8 0.658646 0.764765 0.655767
O O9 0.633952 0.913797 0.676791
O O10 0.608497 0.827901 0.937372
O O11 0.669835 0.611711 0.689528
O O12 0.250000 0.635201 0.338343
O O13 0.130947 0.572798 0.201351
O O14 0.750000 0.005919 0.217140
O O15 0.839318 0.988093 0.950610
O O16 0.917990 0.997745 0.237744
O O17 0.250000 0.495298 0.174315
#
# Coordination Sequence:
#
# PCOD9378174 Si02
#       8
#     8   8   8   8   8   8   4   8
#     4  10  21  38  55  80 110 148 189 231 283 341
#     4  10  21  36  56  78 109 142 183 234 285 344
#     4  10  18  31  51  80 110 145 187 234 281 329
#     4  10  19  32  54  76 108 148 189 232 279 337
#     4  10  19  35  57  82 107 141 184 235 291 347
#     4   9  17  32  52  80 110 145 187 231 281 342
#     4  10  20  34  58  80 110 148 188 236 284 328
#     4   8  16  30  51  76 109 142 180 231 283 334
#
# _framework density 24.450968
#
# number of rings (size 3 to 8) (size 9 to 14) (size 15 to 20)
#    0.000    2.400    0.000    4.000    0.000    0.000 
#    0.000    7.333    0.000    3.200    0.000    0.000 
#    0.000    0.000    0.000    0.000    0.000    0.000 
#
# Total GULP energy -167232.149778 kJ/mol
# GULP energy per Si atom -5574.404993 kJ/mol
# Density = 2.439532 g / cm^3
# Si number density = 24.450968 Si / 1000 Ang^3
#
#
#
# Elastic Constant Matrix: (Units=GPa)
#
#
# Indices 1 2 3 4 5 6 
#
# 1 104.4886 28.5414 25.3883 0.0000 0.0000 0.0000
# 2 28.5414 185.4192 14.7292 0.0000 0.0000 0.0000
# 3 25.3883 14.7292 48.4908 0.0000 0.0000 0.0000
# 4 0.0000 0.0000 0.0000 18.2189 0.0000 0.0000
# 5 0.0000 0.0000 0.0000 0.0000 25.4749 0.0000
# 6 0.0000 0.0000 0.0000 0.0000 0.0000 21.6938
#
#
#
# Elastic Compliance Matrix: (Units=1/GPa)
#
#
# Indices 1 2 3 4 5 6 
#
# 1 0.011261 -0.001296 -0.005502 0.000000 0.000000 0.000000
# 2 -0.001296 0.005676 -0.001045 0.000000 0.000000 0.000000
# 3 -0.005502 -0.001045 0.023821 0.000000 0.000000 0.000000
# 4 0.000000 0.000000 0.000000 0.054888 0.000000 0.000000
# 5 0.000000 0.000000 0.000000 0.000000 0.039254 0.000000
# 6 0.000000 0.000000 0.000000 0.000000 0.000000 0.046096
#
#
# Mechanical properties :
#
#
# Convention : Reuss Voigt Hill
#
# Bulk Modulus (GPa) = 39.88827 52.85736 46.37281
# Shear Modulus (GPa) = 24.38529 31.06015 27.72272
#
# Velocity S-wave (km/s) = 3.16145 3.56800 3.37086
# Velocity P-wave (km/s) = 5.44751 6.21601 5.84441
#
# Compressibility (1/GPa) = 0.02507003
#
# Stress axis : x y z
#
# Youngs Moduli (GPa) = 88.79831 176.18759 41.97999
#
# Poissons Ratio (x) = 0.22840 0.23099
# Poissons Ratio (y) = 0.11512 0.04388
# Poissons Ratio (z) = 0.48860 0.18417
#
# Static dielectric constant tensor:
#      x y z
#    x 2.078720 0.000000 0.000000 
#    y 0.000000 1.969210 0.000000 
#    z 0.000000 0.000000 1.910030 
# 
# From -- ./inp_files/6806.got.cif
#   From: 2010.05.17/outbox.cif.g08.bks.cpg/sg46_4_cif.got.tgz:6806.got - 2010.06.03 19:58:25.
