data_PCOD9378463
_publ_section_title
;
Structure prediction by ZEFSAII (Michael W. Deem and Ramdas Pophale) SiO2 
 PCOD9378463
Probable space group: I M A 2
;
_chemical_formula_sum "Si O2"
_cell_formula_units_Z 64
_cell_length_a 8.673257
_cell_length_b 27.271409
_cell_length_c 19.006535
_cell_angle_alpha 90.000000
_cell_angle_beta 90.000000
_cell_angle_gamma 90.000000
_cell_volume 4495.652577
_symmetry_space_group_name_H-M "I M A 2"
_symmetry_group_IT_number 46
_symmetry_cell_setting 'orthorhombic'
loop_
_space_group_symop_operation_xyz
x,y,z
-x,-y,z
1/2-x,y,z
1/2+x,-y,z
1/2+x,1/2+y,1/2+z
1/2-x,1/2-y,1/2+z
-x,1/2+y,1/2+z
x,1/2-y,1/2+z
loop_
_atom_site_type_symbol
_atom_site_label
_atom_site_fract_x
_atom_site_fract_y
_atom_site_fract_z
Si Si1 0.062790 0.647969 0.029710
Si Si2 0.562904 0.244450 0.765920
Si Si3 0.932482 0.757923 0.610650
Si Si4 0.571956 0.196985 0.394686
Si Si5 0.935347 0.447015 0.116775
Si Si6 0.427928 0.702385 0.486136
Si Si7 0.565888 0.946611 0.772751
Si Si8 0.563164 0.146326 0.851389
O O1 0.250000 0.651477 0.028758
O O2 0.020785 0.596109 0.063298
O O3 0.002246 0.691899 0.078589
O O4 0.005218 0.657999 0.949986
O O5 0.750000 0.245912 0.765471
O O6 0.500870 0.250001 0.687839
O O7 0.505233 0.286734 0.819744
O O8 0.520233 0.191626 0.799705
O O9 0.750000 0.762481 0.614320
O O10 0.978306 0.715093 0.555789
O O11 0.750000 0.182834 0.381871
O O12 0.572890 0.247637 0.439548
O O13 0.750000 0.449131 0.121658
O O14 0.000000 0.500000 0.095613
O O15 0.001654 0.436040 0.194320
O O16 0.250000 0.692450 0.505216
O O17 0.483157 0.661529 0.430806
O O18 0.750000 0.948703 0.770420
O O19 0.508780 0.903587 0.823533
O O20 0.500000 0.000000 0.792914
O O21 0.750000 0.143191 0.850517
#
# Coordination Sequence:
#
# PCOD9378463 Si02
#       8
#     8   8   8   8   8   8   8   8
#     4   9  17  30  45  58  76 107 142 170 202 244
#     4   9  16  27  43  59  79 108 137 165 199 241
#     4  11  20  26  37  60  87 110 135 168 201 237
#     4   7  12  25  43  59  73  97 136 170 193 229
#     4  10  19  30  44  60  81 108 139 175 209 243
#     4   8  15  29  45  58  77 106 137 167 200 243
#     4  11  21  31  43  59  83 111 140 174 207 241
#     4   9  17  30  47  63  79 105 141 175 207 244
#
# _framework density 14.235975
#
# number of rings (size 3 to 8) (size 9 to 14) (size 15 to 20)
#    0.000    2.750    0.000    6.375    0.000    5.000 
#    0.000    5.000    0.000    0.000    0.000    0.000 
#    0.000    1.000    0.000    6.000    0.000    3.000 
#
# Total GULP energy -178198.137976 kJ/mol
# GULP energy per Si atom -5568.691812 kJ/mol
# Density = 1.420357 g / cm^3
# Si number density = 14.235975 Si / 1000 Ang^3
#
#
#
# Elastic Constant Matrix: (Units=GPa)
#
#
# Indices 1 2 3 4 5 6 
#
# 1 35.8971 27.9339 29.7755 0.0000 0.0000 0.0000
# 2 27.9339 93.6466 62.6720 0.0000 0.0000 0.0000
# 3 29.7755 62.6720 114.9469 0.0001 0.0000 0.0000
# 4 0.0000 0.0000 0.0001 27.6620 0.0000 0.0000
# 5 0.0000 0.0000 0.0000 0.0000 4.6065 0.0000
# 6 0.0000 0.0000 0.0000 0.0000 0.0000 18.5669
#
#
#
# Elastic Compliance Matrix: (Units=1/GPa)
#
#
# Indices 1 2 3 4 5 6 
#
# 1 0.038636 -0.007600 -0.005864 0.000000 0.000000 0.000000
# 2 -0.007600 0.018308 -0.008014 0.000000 0.000000 0.000000
# 3 -0.005864 -0.008014 0.014588 0.000000 0.000000 0.000000
# 4 0.000000 0.000000 0.000000 0.036151 0.000000 0.000000
# 5 0.000000 0.000000 0.000000 0.000000 0.217086 0.000000
# 6 0.000000 0.000000 0.000000 0.000000 0.000000 0.053859
#
#
# Mechanical properties :
#
#
# Convention : Reuss Voigt Hill
#
# Bulk Modulus (GPa) = 34.99403 53.91706 44.45555
# Shear Modulus (GPa) = 11.59799 18.44103 15.01951
#
# Velocity S-wave (km/s) = 2.85738 3.60305 3.25166
# Velocity P-wave (km/s) = 5.95995 7.43406 6.73744
#
# Compressibility (1/GPa) = 0.02857630
#
# Stress axis : x y z
#
# Youngs Moduli (GPa) = 25.88270 54.61968 68.54979
#
# Poissons Ratio (x) = 0.41511 0.40200
# Poissons Ratio (y) = 0.19671 0.54933
# Poissons Ratio (z) = 0.15179 0.43770
#
# Static dielectric constant tensor:
#      x y z
#    x 1.480690 0.000000 0.000000 
#    y 0.000000 1.461810 0.000000 
#    z 0.000000 0.000000 1.480520 
# 
# From -- ./inp_files/18691.got.cif
#   From: 2010.05.17/outbox.cif.g08.bks.cpg/sg46_10_cif.got.tgz:18691.got - 2010.06.03 19:58:25.
