data_PCOD9378739
_publ_section_title
;
Structure prediction by ZEFSAII (Michael W. Deem and Ramdas Pophale) SiO2 
 PCOD9378739
Probable space group: I M A 2
;
_chemical_formula_sum "Si O2"
_cell_formula_units_Z 40
_cell_length_a 24.427906
_cell_length_b 7.692476
_cell_length_c 8.946719
_cell_angle_alpha 90.000000
_cell_angle_beta 90.000000
_cell_angle_gamma 90.000000
_cell_volume 1681.187635
_symmetry_space_group_name_H-M "I M A 2"
_symmetry_group_IT_number 46
_symmetry_cell_setting 'orthorhombic'
loop_
_space_group_symop_operation_xyz
x,y,z
-x,-y,z
1/2-x,y,z
1/2+x,-y,z
1/2+x,1/2+y,1/2+z
1/2-x,1/2-y,1/2+z
-x,1/2+y,1/2+z
x,1/2-y,1/2+z
loop_
_atom_site_type_symbol
_atom_site_label
_atom_site_fract_x
_atom_site_fract_y
_atom_site_fract_z
Si Si1 0.501308 0.738901 0.096050
Si Si2 0.810420 0.001797 0.888992
Si Si3 0.811092 0.365830 0.730900
Si Si4 0.575002 0.335049 0.846346
Si Si5 0.923810 0.583669 0.350813
O O1 0.461792 0.856333 0.199802
O O2 0.542422 0.645303 0.208936
O O3 0.458867 0.626203 0.994902
O O4 0.540683 0.839440 0.983781
O O5 0.750000 0.921777 0.886602
O O6 0.817697 0.088114 0.055236
O O7 0.810530 0.158537 0.767133
O O8 0.859846 0.870648 0.857850
O O9 0.750000 0.428321 0.776817
O O10 0.865985 0.420863 0.820217
O O11 0.579162 0.124989 0.856768
#
# Coordination Sequence:
#
# PCOD9378739 Si02
#       5
#     8   8   8   8   8
#     4  10  19  33  51  72 103 140 176 213 254 313
#     4   9  18  35  57  80 109 141 173 218 268 312
#     4   9  17  31  55  83 108 136 173 217 268 317
#     4  10  19  34  52  75 106 136 170 217 267 307
#     4  10  21  37  52  74 105 137 175 217 264 311
#
# _framework density 23.792704000000001
#
# number of rings (size 3 to 8) (size 9 to 14) (size 15 to 20)
#    0.000    2.400    0.000    4.800    0.000    0.000 
#    0.000   33.000    0.000    0.000    0.000    0.000 
#    0.000    0.000    0.000    0.000    0.000    0.000 
#
# Total GULP energy -111692.217332 kJ/mol
# GULP energy per Si atom -5584.610867 kJ/mol
# Density = 2.373855 g / cm^3
# Si number density = 23.792704 Si / 1000 Ang^3
#
#
#
# Elastic Constant Matrix: (Units=GPa)
#
#
# Indices 1 2 3 4 5 6 
#
# 1 287.6848 32.4188 94.0268 0.0000 0.0000 0.0000
# 2 32.4188 40.5169 29.7508 0.0000 0.0000 0.0000
# 3 94.0268 29.7508 154.8149 0.0000 0.0000 0.0000
# 4 0.0000 0.0000 0.0000 21.3390 0.0000 0.0000
# 5 0.0000 0.0000 0.0000 0.0000 19.8032 0.0000
# 6 0.0000 0.0000 0.0000 0.0000 0.0000 26.3728
#
#
#
# Elastic Compliance Matrix: (Units=1/GPa)
#
#
# Indices 1 2 3 4 5 6 
#
# 1 0.004451 -0.001835 -0.002351 0.000000 0.000000 0.000000
# 2 -0.001835 0.029493 -0.004553 0.000000 0.000000 0.000000
# 3 -0.002351 -0.004553 0.008762 0.000000 0.000000 0.000000
# 4 0.000000 0.000000 0.000000 0.046863 0.000000 0.000000
# 5 0.000000 0.000000 0.000000 0.000000 0.050497 0.000000
# 6 0.000000 0.000000 0.000000 0.000000 0.000000 0.037918
#
#
# Mechanical properties :
#
#
# Convention : Reuss Voigt Hill
#
# Bulk Modulus (GPa) = 39.63876 88.37885 64.00880
# Shear Modulus (GPa) = 24.52537 35.29101 29.90819
#
# Velocity S-wave (km/s) = 3.21408 3.85550 3.54931
# Velocity P-wave (km/s) = 5.51996 7.55287 6.61498
#
# Compressibility (1/GPa) = 0.02522783
#
# Stress axis : x y z
#
# Youngs Moduli (GPa) = 224.66058 33.90665 114.12990
#
# Poissons Ratio (x) = 0.06223 0.26828
# Poissons Ratio (y) = 0.41235 0.51962
# Poissons Ratio (z) = 0.52811 0.15437
#
# Static dielectric constant tensor:
#      x y z
#    x 2.004910 0.000000 0.000000 
#    y 0.000000 1.974760 0.000000 
#    z 0.000000 0.000000 1.878040 
# 
# From -- ./inp_files/7700.got.cif
#   From: 2010.05.17/outbox.cif.g08.bks.cpg/sg46_4_cif.got.tgz:7700.got - 2010.06.03 19:58:25.
