data_PCOD9378350
_publ_section_title
;
Structure prediction by ZEFSAII (Michael W. Deem and Ramdas Pophale) SiO2 
 PCOD9378350
Probable space group: I M A 2
;
_chemical_formula_sum "Si O2"
_cell_formula_units_Z 64
_cell_length_a 14.645807
_cell_length_b 18.607544
_cell_length_c 12.127573
_cell_angle_alpha 90.000000
_cell_angle_beta 90.000000
_cell_angle_gamma 90.000000
_cell_volume 3305.036491
_symmetry_space_group_name_H-M "I M A 2"
_symmetry_group_IT_number 46
_symmetry_cell_setting 'orthorhombic'
loop_
_space_group_symop_operation_xyz
x,y,z
-x,-y,z
1/2-x,y,z
1/2+x,-y,z
1/2+x,1/2+y,1/2+z
1/2-x,1/2-y,1/2+z
-x,1/2+y,1/2+z
x,1/2-y,1/2+z
loop_
_atom_site_type_symbol
_atom_site_label
_atom_site_fract_x
_atom_site_fract_y
_atom_site_fract_z
Si Si1 0.358949 0.388488 0.126300
Si Si2 0.641007 0.373867 0.913819
Si Si3 0.358004 0.544139 0.498439
Si Si4 0.359583 0.542252 0.246133
Si Si5 0.854320 0.534486 0.912856
Si Si6 0.923553 0.940805 0.182314
Si Si7 0.922203 0.162830 0.171083
Si Si8 0.045488 0.675617 0.122421
O O1 0.250000 0.369500 0.135856
O O2 0.373866 0.463083 0.193599
O O3 0.437942 0.331347 0.152947
O O4 0.385950 0.407613 0.000013
O O5 0.750000 0.366815 0.939549
O O6 0.605610 0.455621 0.928928
O O7 0.627057 0.358405 0.784794
O O8 0.578189 0.327732 0.994767
O O9 0.250000 0.542188 0.491378
O O10 0.392762 0.544216 0.373193
O O11 0.387366 0.473888 0.568542
O O12 0.383919 0.614480 0.570167
O O13 0.250000 0.554326 0.242934
O O14 0.406844 0.606377 0.178943
O O15 0.750000 0.523390 0.945860
O O16 0.857941 0.557395 0.786418
O O17 0.973344 0.865074 0.175122
O O18 0.000000 0.000000 0.214100
O O19 0.917524 0.247700 0.161250
#
# Coordination Sequence:
#
# PCOD9378350 Si02
#       8
#     8   8   8   8   8   8   8   8
#     4  10  22  40  63  88 116 151 203 256 292 341
#     4  11  22  38  62  92 122 152 195 246 299 358
#     4  10  21  39  61  86 117 153 196 248 297 347
#     4  10  22  39  61  90 116 154 204 246 297 353
#     4  10  18  34  62  90 110 140 191 249 299 337
#     4  10  19  34  58  82 114 150 195 239 284 340
#     4  11  25  38  54  89 121 160 195 236 292 362
#     4  12  25  39  60  88 122 164 195 235 303 361
#
# _framework density 19.364384999999999
#
# number of rings (size 3 to 8) (size 9 to 14) (size 15 to 20)
#    0.000    1.500    3.750    2.250    1.750    5.000 
#    0.000    1.250    0.000    0.750    0.000    0.000 
#    0.000    0.000    0.000    0.000    0.000    0.000 
#
# Total GULP energy -178336.367665 kJ/mol
# GULP energy per Si atom -5573.011490 kJ/mol
# Density = 1.932031 g / cm^3
# Si number density = 19.364385 Si / 1000 Ang^3
#
#
#
# Elastic Constant Matrix: (Units=GPa)
#
#
# Indices 1 2 3 4 5 6 
#
# 1 67.2983 14.9658 13.0108 0.0000 0.0000 0.0000
# 2 14.9658 24.9251 4.7933 0.0000 0.0000 0.0000
# 3 13.0108 4.7933 97.5592 0.0000 0.0000 0.0000
# 4 0.0000 0.0000 0.0000 10.0054 0.0000 0.0000
# 5 0.0000 0.0000 0.0000 0.0000 15.9877 0.0000
# 6 0.0000 0.0000 0.0000 0.0000 0.0000 3.8689
#
#
#
# Elastic Compliance Matrix: (Units=1/GPa)
#
#
# Indices 1 2 3 4 5 6 
#
# 1 0.017467 -0.010136 -0.001831 0.000000 0.000000 0.000000
# 2 -0.010136 0.046384 -0.000927 0.000000 0.000000 0.000000
# 3 -0.001831 -0.000927 0.010540 0.000000 0.000000 0.000000
# 4 0.000000 0.000000 0.000000 0.099946 0.000000 0.000000
# 5 0.000000 0.000000 0.000000 0.000000 0.062548 0.000000
# 6 0.000000 0.000000 0.000000 0.000000 0.000000 0.258474
#
#
# Mechanical properties :
#
#
# Convention : Reuss Voigt Hill
#
# Bulk Modulus (GPa) = 20.57496 28.36915 24.47206
# Shear Modulus (GPa) = 9.30492 16.43991 12.87241
#
# Velocity S-wave (km/s) = 2.19445 2.91688 2.58107
# Velocity P-wave (km/s) = 4.13147 5.10159 4.64194
#
# Compressibility (1/GPa) = 0.04860276
#
# Stress axis : x y z
#
# Youngs Moduli (GPa) = 57.24996 21.55901 94.87666
#
# Poissons Ratio (x) = 0.21852 0.17377
# Poissons Ratio (y) = 0.58027 0.08797
# Poissons Ratio (z) = 0.10485 0.01999
#
# Static dielectric constant tensor:
#      x y z
#    x 1.724350 0.000000 0.000000 
#    y 0.000000 1.658410 0.000000 
#    z 0.000000 0.000000 1.747790 
# 
# From -- ./inp_files/11308.got.cif
#   From: 2010.05.17/outbox.cif.g08.bks.cpg/sg46_6_cif.got.tgz:11308.got - 2010.06.03 19:58:25.
