data_PCOD9378321
_publ_section_title
;
Structure prediction by ZEFSAII (Michael W. Deem and Ramdas Pophale) SiO2 
 PCOD9378321
Probable space group: I M A 2
;
_chemical_formula_sum "Si O2"
_cell_formula_units_Z 60
_cell_length_a 25.775795
_cell_length_b 20.505765
_cell_length_c 5.348119
_cell_angle_alpha 90.000000
_cell_angle_beta 90.000000
_cell_angle_gamma 90.000000
_cell_volume 2826.761106
_symmetry_space_group_name_H-M "I M A 2"
_symmetry_group_IT_number 46
_symmetry_cell_setting 'orthorhombic'
loop_
_space_group_symop_operation_xyz
x,y,z
-x,-y,z
1/2-x,y,z
1/2+x,-y,z
1/2+x,1/2+y,1/2+z
1/2-x,1/2-y,1/2+z
-x,1/2+y,1/2+z
x,1/2-y,1/2+z
loop_
_atom_site_type_symbol
_atom_site_label
_atom_site_fract_x
_atom_site_fract_y
_atom_site_fract_z
Si Si1 0.383568 0.267229 0.241430
Si Si2 0.869612 0.516100 0.183742
Si Si3 0.250000 0.706191 0.082304
Si Si4 0.545719 0.609739 0.240170
Si Si5 0.485166 0.170977 0.239927
Si Si6 0.901471 0.284754 0.670989
Si Si7 0.190772 0.476905 0.695718
Si Si8 0.838205 0.107667 0.425844
O O1 0.354201 0.250621 0.492119
O O2 0.405248 0.340014 0.240386
O O3 0.435073 0.219290 0.243284
O O4 0.928413 0.539955 0.204290
O O5 0.838680 0.533598 0.435480
O O6 0.865126 0.438926 0.130220
O O7 0.842351 0.547265 0.935987
O O8 0.250000 0.756032 0.845926
O O9 0.299144 0.658698 0.048572
O O10 0.520302 0.621673 0.507938
O O11 0.512657 0.633609 0.003464
O O12 0.536447 0.211930 0.188262
O O13 0.885028 0.264339 0.393888
O O14 0.878558 0.353328 0.757144
O O15 0.250000 0.453579 0.691470
O O16 0.191035 0.554892 0.752141
#
# Coordination Sequence:
#
# PCOD9378321 Si02
#       8
#     8   8   4   8   8   8   8   8
#     4   8  14  25  46  73 104 136 175 227 276 312
#     4  10  22  36  62  85 119 151 201 241 305 353
#     4  12  26  40  64  92 114 152 202 250 308 356
#     4  10  18  34  56  84 114 152 193 248 278 358
#     4  10  19  34  56  81 117 150 196 242 296 337
#     4  12  24  38  59  85 115 158 205 251 308 361
#     4  10  21  39  63  81 113 157 191 240 311 350
#     4  10  25  40  61  82 123 150 197 255 307 357
#
# _framework density 21.225705000000001
#
# number of rings (size 3 to 8) (size 9 to 14) (size 15 to 20)
#    0.800    1.067    0.667    5.200    4.667    0.000 
#    0.000    0.667    0.000    0.000    0.000    0.000 
#    0.000   96.000    0.000    0.000    0.000    0.000 
#
# Total GULP energy -167389.445367 kJ/mol
# GULP energy per Si atom -5579.648179 kJ/mol
# Density = 2.117739 g / cm^3
# Si number density = 21.225705 Si / 1000 Ang^3
#
#
#
# Elastic Constant Matrix: (Units=GPa)
#
#
# Indices 1 2 3 4 5 6 
#
# 1 34.5254 12.8168 9.2411 0.0000 0.0000 0.0000
# 2 12.8168 36.0484 5.1241 0.0000 0.0000 0.0000
# 3 9.2411 5.1241 118.8041 0.0000 0.0000 0.0000
# 4 0.0000 0.0000 0.0000 19.9654 0.0000 0.0000
# 5 0.0000 0.0000 0.0000 0.0000 20.5546 0.0000
# 6 0.0000 0.0000 0.0000 0.0000 0.0000 29.3247
#
#
#
# Elastic Compliance Matrix: (Units=1/GPa)
#
#
# Indices 1 2 3 4 5 6 
#
# 1 0.033896 -0.011749 -0.002130 0.000000 0.000000 0.000000
# 2 -0.011749 0.031984 -0.000466 0.000000 0.000000 0.000000
# 3 -0.002130 -0.000466 0.008603 0.000000 0.000000 0.000000
# 4 0.000000 0.000000 0.000000 0.050087 0.000000 0.000000
# 5 0.000000 0.000000 0.000000 0.000000 0.048651 0.000000
# 6 0.000000 0.000000 0.000000 0.000000 0.000000 0.034101
#
#
# Mechanical properties :
#
#
# Convention : Reuss Voigt Hill
#
# Bulk Modulus (GPa) = 21.83684 27.08246 24.45965
# Shear Modulus (GPa) = 19.89859 24.78199 22.34029
#
# Velocity S-wave (km/s) = 3.06514 3.42064 3.24776
# Velocity P-wave (km/s) = 4.77881 5.32804 5.06089
#
# Compressibility (1/GPa) = 0.04579418
#
# Stress axis : x y z
#
# Youngs Moduli (GPa) = 29.50228 31.26579 116.23892
#
# Poissons Ratio (x) = 0.36733 0.24757
# Poissons Ratio (y) = 0.34661 0.05412
# Poissons Ratio (z) = 0.06283 0.01456
#
# Static dielectric constant tensor:
#      x y z
#    x 1.763810 0.000000 0.000000 
#    y 0.000000 1.799280 0.000000 
#    z 0.000000 0.000000 1.816080 
# 
# From -- ./inp_files/2398.got.cif
#   From: 2010.05.17/outbox.cif.g08.bks.cpg/sg46_2_cif.got.tgz:2398.got - 2010.06.03 19:58:25.
