data_PCOD9378852
_publ_section_title
;
Structure prediction by ZEFSAII (Michael W. Deem and Ramdas Pophale) SiO2 
 PCOD9378852
Probable space group: I M A 2
;
_chemical_formula_sum "Si O2"
_cell_formula_units_Z 64
_cell_length_a 8.758236
_cell_length_b 25.670562
_cell_length_c 15.415836
_cell_angle_alpha 90.000000
_cell_angle_beta 90.000000
_cell_angle_gamma 90.000000
_cell_volume 3465.924529
_symmetry_space_group_name_H-M "I M A 2"
_symmetry_group_IT_number 46
_symmetry_cell_setting 'orthorhombic'
loop_
_space_group_symop_operation_xyz
x,y,z
-x,-y,z
1/2-x,y,z
1/2+x,-y,z
1/2+x,1/2+y,1/2+z
1/2-x,1/2-y,1/2+z
-x,1/2+y,1/2+z
x,1/2-y,1/2+z
loop_
_atom_site_type_symbol
_atom_site_label
_atom_site_fract_x
_atom_site_fract_y
_atom_site_fract_z
Si Si1 0.428764 0.723652 0.603300
Si Si2 0.571191 0.259291 0.809486
Si Si3 0.067201 0.333781 0.083519
Si Si4 0.434372 0.606766 0.579467
Si Si5 0.433643 0.351426 0.279503
Si Si6 0.434483 0.359913 0.899370
Si Si7 0.433458 0.442439 0.754559
Si Si8 0.566964 0.056855 0.895704
O O1 0.250000 0.730114 0.581525
O O2 0.442498 0.724481 0.708040
O O3 0.518547 0.773813 0.570654
O O4 0.480954 0.667336 0.570355
O O5 0.750000 0.254301 0.830302
O O6 0.491418 0.203363 0.818702
O O7 0.496355 0.305068 0.864436
O O8 0.250000 0.358364 0.897394
O O9 0.012692 0.351400 0.178562
O O10 0.015344 0.365758 0.999334
O O11 0.250000 0.606322 0.589989
O O12 0.508506 0.582460 0.664811
O O13 0.473910 0.574640 0.493601
O O14 0.250000 0.352733 0.281763
O O15 0.501239 0.399828 0.331152
O O16 0.250000 0.163947 0.586517
O O17 0.483606 0.405327 0.833951
O O18 0.500000 0.500000 0.763655
O O19 0.250000 0.444580 0.753329
O O20 0.750000 0.055858 0.889425
O O21 0.500000 0.000000 0.877953
#
# Coordination Sequence:
#
# PCOD9378852 Si02
#       8
#     8   8   8   8   8   8   8   8
#     4   9  18  33  53  82 117 151 186 226 275 335
#     4  10  19  33  56  84 116 151 187 231 280 338
#     4   9  20  37  57  82 116 153 189 234 284 339
#     4  10  21  38  58  84 118 152 189 233 283 343
#     4  10  21  39  61  84 114 151 192 240 291 340
#     4  10  21  37  56  84 117 152 192 235 284 341
#     4  11  23  38  59  83 115 154 195 238 285 341
#     4  11  24  41  61  85 114 150 195 243 291 343
#
# _framework density 18.465492000000001
#
# number of rings (size 3 to 8) (size 9 to 14) (size 15 to 20)
#    0.000    2.000    1.250    1.875    1.750    4.500 
#    0.000    0.625    0.000    1.500    0.000    0.000 
#    0.000    0.000    0.000    0.000    0.000    0.000 
#
# Total GULP energy -178709.716492 kJ/mol
# GULP energy per Si atom -5584.678640 kJ/mol
# Density = 1.842346 g / cm^3
# Si number density = 18.465492 Si / 1000 Ang^3
#
#
#
# Elastic Constant Matrix: (Units=GPa)
#
#
# Indices 1 2 3 4 5 6 
#
# 1 24.5494 30.1284 28.6169 0.0000 0.0000 0.0000
# 2 30.1284 135.9916 72.1327 0.0000 0.0000 0.0000
# 3 28.6169 72.1327 106.4634 0.0001 0.0000 0.0000
# 4 0.0000 0.0000 0.0001 25.4625 0.0000 0.0000
# 5 0.0000 0.0000 0.0000 0.0000 16.4459 0.0000
# 6 0.0000 0.0000 0.0000 0.0000 0.0000 30.9959
#
#
#
# Elastic Compliance Matrix: (Units=1/GPa)
#
#
# Indices 1 2 3 4 5 6 
#
# 1 0.064377 -0.007936 -0.011927 0.000000 0.000000 0.000000
# 2 -0.007936 0.012457 -0.006307 0.000000 0.000000 0.000000
# 3 -0.011927 -0.006307 0.016872 0.000000 0.000000 0.000000
# 4 0.000000 0.000000 0.000000 0.039273 0.000000 0.000000
# 5 0.000000 0.000000 0.000000 0.000000 0.060806 0.000000
# 6 0.000000 0.000000 0.000000 0.000000 0.000000 0.032262
#
#
# Mechanical properties :
#
#
# Convention : Reuss Voigt Hill
#
# Bulk Modulus (GPa) = 24.17462 58.75117 41.46290
# Shear Modulus (GPa) = 17.11295 23.65594 20.38444
#
# Velocity S-wave (km/s) = 3.04756 3.58311 3.32614
# Velocity P-wave (km/s) = 5.05012 7.00029 6.10360
#
# Compressibility (1/GPa) = 0.04136570
#
# Stress axis : x y z
#
# Youngs Moduli (GPa) = 15.53344 80.27727 59.26972
#
# Poissons Ratio (x) = 0.63708 0.70694
# Poissons Ratio (y) = 0.12327 0.37380
# Poissons Ratio (z) = 0.18527 0.50629
#
# Static dielectric constant tensor:
#      x y z
#    x 1.619580 0.000000 0.000000 
#    y 0.000000 1.597120 0.000000 
#    z 0.000000 0.000000 1.662780 
# 
# From -- ./inp_files/14485.got.cif
#   From: 2010.05.17/outbox.cif.g08.bks.cpg/sg46_8_cif.got.tgz:14485.got - 2010.06.03 19:58:25.
