data_PCOD9378436
_publ_section_title
;
Structure prediction by ZEFSAII (Michael W. Deem and Ramdas Pophale) SiO2 
 PCOD9378436
Probable space group: I M A 2
;
_chemical_formula_sum "Si O2"
_cell_formula_units_Z 56
_cell_length_a 8.596508
_cell_length_b 14.037101
_cell_length_c 30.390839
_cell_angle_alpha 90.000000
_cell_angle_beta 90.000000
_cell_angle_gamma 90.000000
_cell_volume 3667.264093
_symmetry_space_group_name_H-M "I M A 2"
_symmetry_group_IT_number 46
_symmetry_cell_setting 'orthorhombic'
loop_
_space_group_symop_operation_xyz
x,y,z
-x,-y,z
1/2-x,y,z
1/2+x,-y,z
1/2+x,1/2+y,1/2+z
1/2-x,1/2-y,1/2+z
-x,1/2+y,1/2+z
x,1/2-y,1/2+z
loop_
_atom_site_type_symbol
_atom_site_label
_atom_site_fract_x
_atom_site_fract_y
_atom_site_fract_z
Si Si1 0.438193 0.392234 0.492650
Si Si2 0.436674 0.395273 0.670627
Si Si3 0.063776 0.892166 0.804487
Si Si4 0.061042 0.207551 0.081029
Si Si5 0.436366 0.391933 0.395936
Si Si6 0.063220 0.395962 0.129479
Si Si7 0.563165 0.209241 0.714626
O O1 0.500000 0.500000 0.496817
O O2 0.250000 0.396389 0.493925
O O3 0.493871 0.330476 0.534039
O O4 0.481134 0.352814 0.444137
O O5 0.500000 0.500000 0.679881
O O6 0.250000 0.395143 0.672094
O O7 0.485453 0.361461 0.621365
O O8 0.499590 0.313863 0.703152
O O9 0.250000 0.897627 0.805855
O O10 0.016282 0.830203 0.762338
O O11 0.004198 0.850339 0.850913
O O12 0.000000 0.000000 0.799715
O O13 0.250000 0.207068 0.080055
O O14 0.013506 0.313942 0.094993
O O15 0.500000 0.500000 0.396624
O O16 0.250000 0.393338 0.392761
O O17 0.250000 0.397685 0.131013
O O18 0.000000 0.500000 0.119091
O O19 0.001505 0.360577 0.176778
O O20 0.750000 0.209990 0.712216
#
# Coordination Sequence:
#
# PCOD9378436 Si02
#       7
#     8   8   8   8   8   8   8
#     4   9  16  27  42  62  87 114 142 173 209 252
#     4  10  19  31  47  66  90 119 147 180 216 253
#     4  10  19  29  43  62  87 116 144 177 216 257
#     4   8  16  29  44  63  87 115 146 176 211 252
#     4   9  16  25  40  60  84 112 141 173 211 255
#     4  10  19  31  46  64  88 117 146 181 219 257
#     4  10  20  32  46  65  87 115 149 182 217 258
#
# _framework density 15.270238000000001
#
# number of rings (size 3 to 8) (size 9 to 14) (size 15 to 20)
#    0.000    2.571    0.000    4.714    0.000    4.000 
#    0.000    3.571    0.000    0.000    0.000    1.000 
#    0.000    4.571    0.000    0.000    0.000    0.000 
#
# Total GULP energy -156012.460976 kJ/mol
# GULP energy per Si atom -5571.873606 kJ/mol
# Density = 1.523548 g / cm^3
# Si number density = 15.270238 Si / 1000 Ang^3
#
#
#
# Elastic Constant Matrix: (Units=GPa)
#
#
# Indices 1 2 3 4 5 6 
#
# 1 38.2584 23.0455 34.2007 0.0000 0.0000 0.0000
# 2 23.0455 93.9837 67.3341 0.0000 0.0000 0.0000
# 3 34.2007 67.3341 163.1346 0.0000 0.0000 0.0000
# 4 0.0000 0.0000 0.0000 23.6417 0.0000 0.0000
# 5 0.0000 0.0000 0.0000 0.0000 15.3224 0.0000
# 6 0.0000 0.0000 0.0000 0.0000 0.0000 21.6042
#
#
#
# Elastic Compliance Matrix: (Units=1/GPa)
#
#
# Indices 1 2 3 4 5 6 
#
# 1 0.033463 -0.004514 -0.005152 0.000000 0.000000 0.000000
# 2 -0.004514 0.015717 -0.005541 0.000000 0.000000 0.000000
# 3 -0.005152 -0.005541 0.009497 0.000000 0.000000 0.000000
# 4 0.000000 0.000000 0.000000 0.042298 0.000000 0.000000
# 5 0.000000 0.000000 0.000000 0.000000 0.065264 0.000000
# 6 0.000000 0.000000 0.000000 0.000000 0.000000 0.046287
#
#
# Mechanical properties :
#
#
# Convention : Reuss Voigt Hill
#
# Bulk Modulus (GPa) = 35.38254 60.50416 47.94335
# Shear Modulus (GPa) = 19.81293 23.50011 21.65652
#
# Velocity S-wave (km/s) = 3.60597 3.92720 3.77001
# Velocity P-wave (km/s) = 6.36856 7.76351 7.10038
#
# Compressibility (1/GPa) = 0.02826253
#
# Stress axis : x y z
#
# Youngs Moduli (GPa) = 29.88383 63.62688 105.29656
#
# Poissons Ratio (x) = 0.28722 0.54251
# Poissons Ratio (y) = 0.13490 0.58342
# Poissons Ratio (z) = 0.15397 0.35254
#
# Static dielectric constant tensor:
#      x y z
#    x 1.518930 0.000000 0.000000 
#    y 0.000000 1.476160 0.000000 
#    z 0.000000 0.000000 1.538970 
# 
# From -- ./inp_files/25230.got.cif
#   From: 2010.05.17/outbox.cif.g08.bks.cpg/sg46_13_cif.got.tgz:25230.got - 2010.06.03 19:58:25.
