data_PCOD9378253
_publ_section_title
;
Structure prediction by ZEFSAII (Michael W. Deem and Ramdas Pophale) SiO2 
 PCOD9378253
Probable space group: I M A 2
;
_chemical_formula_sum "Si O2"
_cell_formula_units_Z 48
_cell_length_a 10.292326
_cell_length_b 8.551024
_cell_length_c 29.041211
_cell_angle_alpha 90.000000
_cell_angle_beta 90.000000
_cell_angle_gamma 90.000000
_cell_volume 2555.914850
_symmetry_space_group_name_H-M "I M A 2"
_symmetry_group_IT_number 46
_symmetry_cell_setting 'orthorhombic'
loop_
_space_group_symop_operation_xyz
x,y,z
-x,-y,z
1/2-x,y,z
1/2+x,-y,z
1/2+x,1/2+y,1/2+z
1/2-x,1/2-y,1/2+z
-x,1/2+y,1/2+z
x,1/2-y,1/2+z
loop_
_atom_site_type_symbol
_atom_site_label
_atom_site_fract_x
_atom_site_fract_y
_atom_site_fract_z
Si Si1 0.096945 0.353788 0.309370
Si Si2 0.250000 0.320406 0.065228
Si Si3 0.597321 0.856712 0.218315
Si Si4 0.504495 0.688561 0.126035
Si Si5 0.250000 0.314151 0.464338
Si Si6 0.003869 0.191139 0.906495
Si Si7 0.750000 0.191784 0.962293
Si Si8 0.250000 0.696658 0.068399
O O1 0.250000 0.397075 0.319501
O O2 0.096916 0.250788 0.263645
O O3 0.036457 0.266215 0.353908
O O4 0.000000 0.500000 0.301825
O O5 0.376678 0.270954 0.092842
O O6 0.250000 0.508564 0.063359
O O7 0.250000 0.247593 0.015426
O O8 0.750000 0.898313 0.209270
O O9 0.536738 0.764934 0.174844
O O10 0.500000 0.000000 0.226309
O O11 0.500000 0.500000 0.131688
O O12 0.374898 0.740282 0.099230
O O13 0.376540 0.258582 0.437680
O O14 0.250000 0.502720 0.463521
O O15 0.874382 0.243677 0.932441
O O16 0.000000 0.000000 0.905561
O O17 0.750000 0.241809 0.015886
#
# Coordination Sequence:
#
# PCOD9378253 Si02
#       8
#     8   4   8   8   4   8   4   4
#     4  10  21  39  64  91 118 154 200 244 291 348
#     4  10  20  36  57  82 115 153 196 245 295 344
#     4  11  25  43  61  89 123 153 191 243 302 358
#     4  10  21  40  62  85 114 157 200 246 292 346
#     4  10  18  32  55  78 113 153 190 233 293 344
#     4   9  18  33  55  84 112 149 195 241 283 335
#     4  10  20  34  53  84 117 151 194 245 287 344
#     4  10  22  36  57  88 117 149 202 247 287 348
#
# _framework density 18.779969000000001
#
# number of rings (size 3 to 8) (size 9 to 14) (size 15 to 20)
#    0.000    2.000    1.667    1.500    4.667    2.000 
#    0.000    1.667    0.000    0.000    0.000    0.000 
#    0.000    0.000    0.000    0.000    0.000    0.000 
#
# Total GULP energy -133858.919338 kJ/mol
# GULP energy per Si atom -5577.454972 kJ/mol
# Density = 1.873723 g / cm^3
# Si number density = 18.779969 Si / 1000 Ang^3
#
#
#
# Elastic Constant Matrix: (Units=GPa)
#
#
# Indices 1 2 3 4 5 6 
#
# 1 206.1885 39.7064 96.7377 0.0000 0.0000 0.0000
# 2 39.7064 19.1277 34.6390 0.0000 0.0000 0.0000
# 3 96.7377 34.6390 174.1722 0.0000 0.0000 0.0000
# 4 0.0000 0.0000 0.0000 29.6298 0.0000 0.0000
# 5 0.0000 0.0000 0.0000 0.0000 39.0133 0.0000
# 6 0.0000 0.0000 0.0000 0.0000 0.0000 17.6944
#
#
#
# Elastic Compliance Matrix: (Units=1/GPa)
#
#
# Indices 1 2 3 4 5 6 
#
# 1 0.008458 -0.014145 -0.001885 0.000000 0.000000 0.000000
# 2 -0.014145 0.105363 -0.013098 0.000000 0.000000 0.000000
# 3 -0.001885 -0.013098 0.009393 0.000000 0.000000 0.000000
# 4 0.000000 0.000000 0.000000 0.033750 0.000000 0.000000
# 5 0.000000 0.000000 0.000000 0.000000 0.025632 0.000000
# 6 0.000000 0.000000 0.000000 0.000000 0.000000 0.056515
#
#
# Mechanical properties :
#
#
# Convention : Reuss Voigt Hill
#
# Bulk Modulus (GPa) = 15.39439 82.40606 48.90022
# Shear Modulus (GPa) = 15.67306 32.49452 24.08379
#
# Velocity S-wave (km/s) = 2.89201 4.16417 3.58497
# Velocity P-wave (km/s) = 4.40076 8.19118 6.57503
#
# Compressibility (1/GPa) = 0.06495875
#
# Stress axis : x y z
#
# Youngs Moduli (GPa) = 118.23048 9.49104 106.46096
#
# Poissons Ratio (x) = 0.13425 0.20064
# Poissons Ratio (y) = 1.67234 1.39443
# Poissons Ratio (z) = 0.22282 0.12431
#
# Static dielectric constant tensor:
#      x y z
#    x 1.768050 0.000000 0.000000 
#    y 0.000000 1.647390 0.000000 
#    z 0.000000 0.000000 1.627980 
# 
# From -- ./inp_files/23467.got.cif
#   From: 2010.05.17/outbox.cif.g08.bks.cpg/sg46_12_cif.got.tgz:23467.got - 2010.06.03 19:58:25.
