data_PCOD9378741
_publ_section_title
;
Structure prediction by ZEFSAII (Michael W. Deem and Ramdas Pophale) SiO2 
 PCOD9378741
Probable space group: I M A 2
;
_chemical_formula_sum "Si O2"
_cell_formula_units_Z 48
_cell_length_a 8.448967
_cell_length_b 13.563308
_cell_length_c 18.204384
_cell_angle_alpha 90.000000
_cell_angle_beta 90.000000
_cell_angle_gamma 90.000000
_cell_volume 2086.148528
_symmetry_space_group_name_H-M "I M A 2"
_symmetry_group_IT_number 46
_symmetry_cell_setting 'orthorhombic'
loop_
_space_group_symop_operation_xyz
x,y,z
-x,-y,z
1/2-x,y,z
1/2+x,-y,z
1/2+x,1/2+y,1/2+z
1/2-x,1/2-y,1/2+z
-x,1/2+y,1/2+z
x,1/2-y,1/2+z
loop_
_atom_site_type_symbol
_atom_site_label
_atom_site_fract_x
_atom_site_fract_y
_atom_site_fract_z
Si Si1 0.058327 0.398618 0.862070
Si Si2 0.937382 0.181097 0.830576
Si Si3 0.060414 0.181197 0.675284
Si Si4 0.071455 0.366931 0.020272
Si Si5 0.072993 0.365393 0.484659
Si Si6 0.932511 0.104051 0.136964
O O1 0.250000 0.394382 0.862606
O O2 0.000000 0.500000 0.826515
O O3 0.995520 0.295406 0.831324
O O4 0.991165 0.402067 0.945909
O O5 0.750000 0.178114 0.838937
O O6 0.988915 0.142567 0.750941
O O7 0.015272 0.127914 0.900988
O O8 0.250000 0.172177 0.676620
O O9 0.998530 0.127586 0.601122
O O10 0.020811 0.297738 0.664792
O O11 0.250000 0.408651 0.023880
O O12 0.086117 0.250855 0.002504
O O13 0.250000 0.407350 0.493470
O O14 0.955547 0.399167 0.548407
O O15 0.750000 0.113933 0.156550
O O16 0.000000 0.000000 0.163710
#
# Coordination Sequence:
#
# PCOD9378741 Si02
#       6
#     8   8   8   8   8   8
#     4  10  19  33  51  74 101 132 166 204 249 301
#     4  11  21  33  50  76 104 133 168 210 254 300
#     4  10  19  34  53  74 100 134 170 208 252 302
#     4   7  14  29  50  70  92 123 163 202 242 290
#     4   9  17  33  53  73  97 131 170 209 249 296
#     4  11  21  34  52  77 105 135 169 209 253 303
#
# _framework density 23.008906
#
# number of rings (size 3 to 8) (size 9 to 14) (size 15 to 20)
#    0.000    2.333    0.000    6.500    0.000    0.667 
#    0.000    5.833    0.000    1.000    0.000    4.667 
#    0.000    0.000    0.000    0.000    0.000    0.000 
#
# Total GULP energy -133956.708582 kJ/mol
# GULP energy per Si atom -5581.529524 kJ/mol
# Density = 2.295654 g / cm^3
# Si number density = 23.008906 Si / 1000 Ang^3
#
#
#
# Elastic Constant Matrix: (Units=GPa)
#
#
# Indices 1 2 3 4 5 6 
#
# 1 85.0242 -5.8398 8.3793 0.0000 0.0000 0.0000
# 2 -5.8398 38.4922 -11.8821 0.0000 0.0000 0.0000
# 3 8.3793 -11.8821 175.5566 0.0000 0.0000 0.0000
# 4 0.0000 0.0000 0.0000 -7.0714 0.0000 0.0000
# 5 0.0000 0.0000 0.0000 0.0000 26.4377 0.0000
# 6 0.0000 0.0000 0.0000 0.0000 0.0000 15.1156
#
#
#
# Elastic Compliance Matrix: (Units=1/GPa)
#
#
# Indices 1 2 3 4 5 6 
#
# 1 0.011921 0.001668 -0.000456 0.000000 0.000000 0.000000
# 2 0.001668 0.026767 0.001732 0.000000 0.000000 0.000000
# 3 -0.000456 0.001732 0.005835 0.000000 0.000000 0.000000
# 4 0.000000 0.000000 0.000000 -0.141416 0.000000 0.000000
# 5 0.000000 0.000000 0.000000 0.000000 0.037825 0.000000
# 6 0.000000 0.000000 0.000000 0.000000 0.000000 0.066157
#
#
# Mechanical properties :
#
#
# Convention : Reuss Voigt Hill
#
# Bulk Modulus (GPa) = 19.83719 31.15423 25.49571
# Shear Modulus (GPa) = 277.70260 27.45744 152.58002
#
# Velocity S-wave (km/s) = 10.99798 3.45822 8.15214
# Velocity P-wave (km/s) = 13.03512 5.43279 9.98573
#
# Compressibility (1/GPa) = 0.05041036
#
# Stress axis : x y z
#
# Youngs Moduli (GPa) = 83.88662 37.35950 171.37469
#
# Poissons Ratio (x) = -0.06231 0.07817
# Poissons Ratio (y) = -0.13990 -0.29683
# Poissons Ratio (z) = 0.03826 -0.06471
#
# Static dielectric constant tensor:
#      x y z
#    x 1.798020 0.000000 0.000000 
#    y 0.000000 1.916870 0.000000 
#    z 0.000000 0.000000 1.915790 
# 
# From -- ./inp_files/18179.got.cif
#   From: 2010.05.17/outbox.cif.g08.bks.cpg/sg46_10_cif.got.tgz:18179.got - 2010.06.03 19:58:25.
