data_PCOD9378686
_publ_section_title
;
Structure prediction by ZEFSAII (Michael W. Deem and Ramdas Pophale) SiO2 
 PCOD9378686
Probable space group: I M A 2
;
_chemical_formula_sum "Si O2"
_cell_formula_units_Z 64
_cell_length_a 9.207064
_cell_length_b 16.741124
_cell_length_c 21.829686
_cell_angle_alpha 90.000000
_cell_angle_beta 90.000000
_cell_angle_gamma 90.000000
_cell_volume 3364.753581
_symmetry_space_group_name_H-M "I M A 2"
_symmetry_group_IT_number 46
_symmetry_cell_setting 'orthorhombic'
loop_
_space_group_symop_operation_xyz
x,y,z
-x,-y,z
1/2-x,y,z
1/2+x,-y,z
1/2+x,1/2+y,1/2+z
1/2-x,1/2-y,1/2+z
-x,1/2+y,1/2+z
x,1/2-y,1/2+z
loop_
_atom_site_type_symbol
_atom_site_label
_atom_site_fract_x
_atom_site_fract_y
_atom_site_fract_z
Si Si1 0.576059 0.081734 0.805720
Si Si2 0.416943 0.207630 0.141105
Si Si3 0.922761 0.244585 0.520848
Si Si4 0.083532 0.581253 0.861029
Si Si5 0.085421 0.922128 0.213580
Si Si6 0.588488 0.610116 0.183779
Si Si7 0.423976 0.737687 0.382724
Si Si8 0.580377 0.921916 0.541301
O O1 0.750000 0.076017 0.811933
O O2 0.529690 0.088915 0.734366
O O3 0.526156 0.164073 0.839855
O O4 0.500000 0.000000 0.828850
O O5 0.250000 0.183537 0.132039
O O6 0.499435 0.152406 0.188265
O O7 0.417311 0.295879 0.169725
O O8 0.500541 0.210141 0.076615
O O9 0.750000 0.237878 0.531281
O O10 0.946605 0.282420 0.454113
O O11 0.994733 0.156758 0.520969
O O12 0.250000 0.577950 0.884746
O O13 0.088491 0.578436 0.787112
O O14 0.020914 0.670465 0.874425
O O15 0.000000 0.500000 0.879766
O O16 0.250000 0.921995 0.191157
O O17 0.000000 0.000000 0.192738
O O18 0.750000 0.589112 0.207664
O O19 0.574176 0.575180 0.115623
O O20 0.250000 0.744228 0.371465
O O21 0.750000 0.917598 0.524216
O O22 0.500000 0.000000 0.517678
#
# Coordination Sequence:
#
# PCOD9378686 Si02
#       8
#     8   8   8   8   8   8   8   8
#     4  11  22  37  57  81 109 141 181 227 274 325
#     4  10  20  35  54  78 108 138 175 221 268 321
#     4  10  20  36  56  75 100 138 183 224 266 317
#     4   9  18  34  55  82 113 143 177 217 265 323
#     4  10  19  32  53  80 109 140 174 214 266 324
#     4   9  19  34  53  79 109 139 172 214 264 320
#     4   9  20  38  57  77 106 145 185 225 268 319
#     4  10  20  34  52  78 111 142 174 214 262 317
#
# _framework density 19.020709
#
# number of rings (size 3 to 8) (size 9 to 14) (size 15 to 20)
#    0.000    2.250    0.000    3.750    0.000    6.000 
#    0.000    6.875    0.000    1.500    0.000    0.000 
#    0.000    0.000    0.000    0.000    0.000    0.000 
#
# Total GULP energy -178477.615004 kJ/mol
# GULP energy per Si atom -5577.425469 kJ/mol
# Density = 1.897742 g / cm^3
# Si number density = 19.020709 Si / 1000 Ang^3
#
#
#
# Elastic Constant Matrix: (Units=GPa)
#
#
# Indices 1 2 3 4 5 6 
#
# 1 110.9299 38.7872 33.9338 0.0000 0.0000 0.0000
# 2 38.7872 83.4284 23.6597 0.0000 0.0000 0.0000
# 3 33.9338 23.6597 54.4423 0.0000 0.0000 0.0000
# 4 0.0000 0.0000 0.0000 -4.9634 0.0000 0.0000
# 5 0.0000 0.0000 0.0000 0.0000 17.8721 0.0000
# 6 0.0000 0.0000 0.0000 0.0000 0.0000 28.6039
#
#
#
# Elastic Compliance Matrix: (Units=1/GPa)
#
#
# Indices 1 2 3 4 5 6 
#
# 1 0.012213 -0.004014 -0.005868 0.000000 0.000000 0.000000
# 2 -0.004014 0.014990 -0.004013 0.000000 0.000000 0.000000
# 3 -0.005868 -0.004013 0.023770 0.000000 0.000000 0.000000
# 4 0.000000 0.000000 0.000000 -0.201476 0.000000 0.000000
# 5 0.000000 0.000000 0.000000 0.000000 0.055953 0.000000
# 6 0.000000 0.000000 0.000000 0.000000 0.000000 0.034960
#
#
# Mechanical properties :
#
#
# Convention : Reuss Voigt Hill
#
# Bulk Modulus (GPa) = 43.13378 49.06242 46.09810
# Shear Modulus (GPa) = -207.70950 18.46386 -94.62282
#
# Velocity S-wave (km/s) = -10.46130 3.11902 -7.06083
# Velocity P-wave (km/s) = 11.09919 6.23067 6.49502
#
# Compressibility (1/GPa) = 0.02318369
#
# Stress axis : x y z
#
# Youngs Moduli (GPa) = 81.87800 66.70908 42.07072
#
# Poissons Ratio (x) = 0.26777 0.24688
# Poissons Ratio (y) = 0.32866 0.16882
# Poissons Ratio (z) = 0.48047 0.26768
#
# Static dielectric constant tensor:
#      x y z
#    x 1.656960 0.000000 0.000000 
#    y 0.000000 1.670370 0.000000 
#    z 0.000000 0.000000 1.657180 
# 
# From -- ./inp_files/21325.got.cif
#   From: 2010.05.17/outbox.cif.g08.bks.cpg/sg46_11_cif.got.tgz:21325.got - 2010.06.03 19:58:25.
