data_PCOD9378683
_publ_section_title
;
Structure prediction by ZEFSAII (Michael W. Deem and Ramdas Pophale) SiO2 
 PCOD9378683
Probable space group: I M A 2
;
_chemical_formula_sum "Si O2"
_cell_formula_units_Z 48
_cell_length_a 8.728448
_cell_length_b 9.639902
_cell_length_c 32.024690
_cell_angle_alpha 90.000000
_cell_angle_beta 90.000000
_cell_angle_gamma 90.000000
_cell_volume 2694.601717
_symmetry_space_group_name_H-M "I M A 2"
_symmetry_group_IT_number 46
_symmetry_cell_setting 'orthorhombic'
loop_
_space_group_symop_operation_xyz
x,y,z
-x,-y,z
1/2-x,y,z
1/2+x,-y,z
1/2+x,1/2+y,1/2+z
1/2-x,1/2-y,1/2+z
-x,1/2+y,1/2+z
x,1/2-y,1/2+z
loop_
_atom_site_type_symbol
_atom_site_label
_atom_site_fract_x
_atom_site_fract_y
_atom_site_fract_z
Si Si1 0.434964 0.345756 0.354020
Si Si2 0.433511 0.843900 0.189352
Si Si3 0.566263 0.655862 0.775397
Si Si4 0.066473 0.844843 0.097214
Si Si5 0.433683 0.346813 0.025255
Si Si6 0.934644 0.846854 0.430134
O O1 0.500000 0.500000 0.352126
O O2 0.250000 0.353255 0.354603
O O3 0.479017 0.253139 0.313953
O O4 0.485528 0.263582 0.395638
O O5 0.250000 0.848523 0.193551
O O6 0.505430 0.783212 0.231439
O O7 0.471612 0.784786 0.143526
O O8 0.500000 0.000000 0.188251
O O9 0.500000 0.500000 0.780621
O O10 0.750000 0.645624 0.773827
O O11 0.250000 0.851349 0.094272
O O12 0.999406 0.754984 0.059914
O O13 0.000000 0.000000 0.094890
O O14 0.500000 0.500000 0.032294
O O15 0.250000 0.349846 0.027747
O O16 0.477273 0.306994 0.977614
O O17 0.750000 0.855831 0.428338
O O18 0.000000 0.000000 0.421482
#
# Coordination Sequence:
#
# PCOD9378683 Si02
#       6
#     8   8   8   8   8   8
#     4  10  22  37  52  75 106 136 168 207 254 305
#     4   9  17  30  50  75 102 133 170 211 253 299
#     4  10  19  32  53  78 102 132 171 212 252 299
#     4  10  20  34  53  78 107 139 175 215 260 308
#     4  10  20  35  55  78 106 138 173 215 259 307
#     4   9  19  36  56  78 102 132 172 212 252 302
#
# _framework density 17.813393000000001
#
# number of rings (size 3 to 8) (size 9 to 14) (size 15 to 20)
#    0.000    2.333    0.000    3.500    0.000    5.333 
#    0.000    2.500    0.000    2.000    0.000    0.000 
#    0.000    0.000    0.000    0.000    0.000    0.000 
#
# Total GULP energy -133855.126967 kJ/mol
# GULP energy per Si atom -5577.296957 kJ/mol
# Density = 1.777285 g / cm^3
# Si number density = 17.813393 Si / 1000 Ang^3
#
#
#
# Elastic Constant Matrix: (Units=GPa)
#
#
# Indices 1 2 3 4 5 6 
#
# 1 48.5499 34.2461 56.9185 0.0000 0.0000 0.0000
# 2 34.2461 93.5699 107.1535 0.0000 0.0000 0.0000
# 3 56.9185 107.1535 197.0041 0.0000 0.0000 0.0000
# 4 0.0000 0.0000 0.0000 28.4558 0.0000 0.0000
# 5 0.0000 0.0000 0.0000 0.0000 31.3915 0.0000
# 6 0.0000 0.0000 0.0000 0.0000 0.0000 31.3137
#
#
#
# Elastic Compliance Matrix: (Units=1/GPa)
#
#
# Indices 1 2 3 4 5 6 
#
# 1 0.031448 -0.002930 -0.007492 0.000000 0.000000 0.000000
# 2 -0.002930 0.028612 -0.014716 0.000000 0.000000 0.000000
# 3 -0.007492 -0.014716 0.015245 0.000000 0.000000 0.000000
# 4 0.000000 0.000000 0.000000 0.035142 0.000000 0.000000
# 5 0.000000 0.000000 0.000000 0.000000 0.031856 0.000000
# 6 0.000000 0.000000 0.000000 0.000000 0.000000 0.031935
#
#
# Mechanical properties :
#
#
# Convention : Reuss Voigt Hill
#
# Bulk Modulus (GPa) = 39.95446 81.75112 60.85279
# Shear Modulus (GPa) = 21.47252 27.61926 24.54589
#
# Velocity S-wave (km/s) = 3.47567 3.94188 3.71610
# Velocity P-wave (km/s) = 6.21170 8.16766 7.25589
#
# Compressibility (1/GPa) = 0.02502849
#
# Stress axis : x y z
#
# Youngs Moduli (GPa) = 31.79875 34.95089 65.59555
#
# Poissons Ratio (x) = 0.10239 0.49147
# Poissons Ratio (y) = 0.09316 0.96529
# Poissons Ratio (z) = 0.23825 0.51433
#
# Static dielectric constant tensor:
#      x y z
#    x 1.599480 0.000000 0.000000 
#    y 0.000000 1.569270 0.000000 
#    z 0.000000 0.000000 1.647870 
# 
# From -- ./inp_files/24989.got.cif
#   From: 2010.05.17/outbox.cif.g08.bks.cpg/sg46_13_cif.got.tgz:24989.got - 2010.06.03 19:58:25.
