data_PCOD9378961
_publ_section_title
;
Structure prediction by ZEFSAII (Michael W. Deem and Ramdas Pophale) SiO2 
 PCOD9378961
Probable space group: I M A 2
;
_chemical_formula_sum "Si O2"
_cell_formula_units_Z 64
_cell_length_a 8.942202
_cell_length_b 17.675865
_cell_length_c 20.861622
_cell_angle_alpha 90.000000
_cell_angle_beta 90.000000
_cell_angle_gamma 90.000000
_cell_volume 3297.412076
_symmetry_space_group_name_H-M "I M A 2"
_symmetry_group_IT_number 46
_symmetry_cell_setting 'orthorhombic'
loop_
_space_group_symop_operation_xyz
x,y,z
-x,-y,z
1/2-x,y,z
1/2+x,-y,z
1/2+x,1/2+y,1/2+z
1/2-x,1/2-y,1/2+z
-x,1/2+y,1/2+z
x,1/2-y,1/2+z
loop_
_atom_site_type_symbol
_atom_site_label
_atom_site_fract_x
_atom_site_fract_y
_atom_site_fract_z
Si Si1 0.574788 0.716665 0.561360
Si Si2 0.069254 0.867752 0.696656
Si Si3 0.074303 0.378883 0.924591
Si Si4 0.426057 0.201423 0.203416
Si Si5 0.426333 0.621797 0.056274
Si Si6 0.572529 0.077382 0.293041
Si Si7 0.426795 0.924081 0.834063
Si Si8 0.923136 0.803386 0.921077
O O1 0.750000 0.744086 0.559138
O O2 0.556912 0.675566 0.629113
O O3 0.465134 0.788484 0.560176
O O4 0.551196 0.672874 0.495150
O O5 0.250000 0.857153 0.695890
O O6 0.028880 0.904222 0.627855
O O7 0.027560 0.913696 0.759830
O O8 0.990750 0.786272 0.704002
O O9 0.250000 0.395386 0.917370
O O10 0.054722 0.287343 0.920174
O O11 0.981920 0.412615 0.866117
O O12 0.016719 0.405187 0.994208
O O13 0.250000 0.202460 0.219293
O O14 0.511514 0.147598 0.252054
O O15 0.250000 0.609745 0.046587
O O16 0.750000 0.073691 0.290168
O O17 0.500000 0.000000 0.267880
O O18 0.250000 0.931386 0.836468
O O19 0.476487 0.850182 0.872925
O O20 0.500000 0.000000 0.860834
O O21 0.750000 0.817516 0.904552
#
# Coordination Sequence:
#
# PCOD9378961 Si02
#       8
#     8   8   8   8   8   8   8   8
#     4   8  16  31  52  79 110 140 173 216 264 316
#     4   9  19  35  55  80 109 142 181 223 266 317
#     4  10  20  36  58  84 111 140 176 217 264 320
#     4  10  19  34  58  85 110 139 176 219 268 320
#     4   9  16  29  52  81 110 138 173 220 268 312
#     4  12  25  40  56  77 108 144 182 223 268 320
#     4  11  23  37  52  73 104 141 181 222 265 313
#     4   9  18  34  56  81 108 138 174 216 261 312
#
# _framework density 19.40916
#
# number of rings (size 3 to 8) (size 9 to 14) (size 15 to 20)
#    0.000    2.250    0.000    4.125    0.000    6.500 
#    0.000    1.250    0.000    1.500    0.000    0.000 
#    0.000    0.000    0.000    0.000    0.000    0.000 
#
# Total GULP energy -178582.480856 kJ/mol
# GULP energy per Si atom -5580.702527 kJ/mol
# Density = 1.936498 g / cm^3
# Si number density = 19.409160 Si / 1000 Ang^3
#
#
#
# Elastic Constant Matrix: (Units=GPa)
#
#
# Indices 1 2 3 4 5 6 
#
# 1 64.3265 28.8181 35.4492 0.0000 0.0000 0.0000
# 2 28.8181 50.4476 22.9604 0.0000 0.0000 0.0000
# 3 35.4492 22.9604 85.4167 0.0000 0.0000 0.0000
# 4 0.0000 0.0000 0.0000 -17.6969 0.0000 0.0000
# 5 0.0000 0.0000 0.0000 0.0000 30.9575 0.0000
# 6 0.0000 0.0000 0.0000 0.0000 0.0000 20.4191
#
#
#
# Elastic Compliance Matrix: (Units=1/GPa)
#
#
# Indices 1 2 3 4 5 6 
#
# 1 0.024265 -0.010571 -0.007229 0.000000 0.000000 0.000000
# 2 -0.010571 0.027191 -0.002922 0.000000 0.000000 0.000000
# 3 -0.007229 -0.002922 0.015493 0.000000 0.000000 0.000000
# 4 0.000000 0.000000 0.000000 -0.056507 0.000000 0.000000
# 5 0.000000 0.000000 0.000000 0.000000 0.032302 0.000000
# 6 0.000000 0.000000 0.000000 0.000000 0.000000 0.048974
#
#
# Mechanical properties :
#
#
# Convention : Reuss Voigt Hill
#
# Bulk Modulus (GPa) = 39.20768 41.62736 40.41752
# Shear Modulus (GPa) = 35.29467 14.26682 24.78074
#
# Velocity S-wave (km/s) = 4.26896 2.71413 3.57705
# Velocity P-wave (km/s) = 6.67407 5.59606 6.15869
#
# Compressibility (1/GPa) = 0.02550521
#
# Stress axis : x y z
#
# Youngs Moduli (GPa) = 41.21094 36.77641 64.54609
#
# Poissons Ratio (x) = 0.38878 0.46659
# Poissons Ratio (y) = 0.43566 0.18859
# Poissons Ratio (z) = 0.29791 0.10745
#
# Static dielectric constant tensor:
#      x y z
#    x 1.646560 0.000000 0.000000 
#    y 0.000000 1.663210 0.000000 
#    z 0.000000 0.000000 1.719250 
# 
# From -- ./inp_files/21346.got.cif
#   From: 2010.05.17/outbox.cif.g08.bks.cpg/sg46_11_cif.got.tgz:21346.got - 2010.06.03 19:58:25.
