data_PCOD9378039
_publ_section_title
;
Structure prediction by ZEFSAII (Michael W. Deem and Ramdas Pophale) SiO2 
 PCOD9378039
Probable space group: I M A 2
;
_chemical_formula_sum "Si O2"
_cell_formula_units_Z 48
_cell_length_a 8.297224
_cell_length_b 24.639777
_cell_length_c 14.303218
_cell_angle_alpha 90.000000
_cell_angle_beta 90.000000
_cell_angle_gamma 90.000000
_cell_volume 2924.174905
_symmetry_space_group_name_H-M "I M A 2"
_symmetry_group_IT_number 46
_symmetry_cell_setting 'orthorhombic'
loop_
_space_group_symop_operation_xyz
x,y,z
-x,-y,z
1/2-x,y,z
1/2+x,-y,z
1/2+x,1/2+y,1/2+z
1/2-x,1/2-y,1/2+z
-x,1/2+y,1/2+z
x,1/2-y,1/2+z
loop_
_atom_site_type_symbol
_atom_site_label
_atom_site_fract_x
_atom_site_fract_y
_atom_site_fract_z
Si Si1 0.946489 0.225072 0.726630
Si Si2 0.446612 0.726376 0.437448
Si Si3 0.946782 0.165786 0.120175
Si Si4 0.557916 0.060149 0.225746
Si Si5 0.440506 0.059562 0.436862
Si Si6 0.555246 0.164016 0.543514
O O1 0.750000 0.224284 0.727806
O O2 0.003130 0.216190 0.832197
O O3 0.992981 0.284595 0.688519
O O4 0.996559 0.181852 0.647746
O O5 0.250000 0.725690 0.436339
O O6 0.498266 0.683170 0.516079
O O7 0.492481 0.786103 0.475282
O O8 0.750000 0.164676 0.119664
O O9 0.004745 0.108574 0.160172
O O10 0.750000 0.060405 0.220519
O O11 0.511403 0.070528 0.333576
O O12 0.500000 0.000000 0.200293
O O13 0.250000 0.057461 0.427500
O O14 0.490035 0.107478 0.506152
O O15 0.500000 0.000000 0.466942
O O16 0.750000 0.161679 0.542453
#
# Coordination Sequence:
#
# PCOD9378039 Si02
#       6
#     8   8   8   8   8   8
#     4   8  13  22  40  66  91 114 142 178 216 252
#     4   8  13  23  42  68  93 116 147 181 211 250
#     4   8  14  23  39  65  91 115 144 180 216 251
#     4  10  18  29  45  65  89 115 146 181 218 257
#     4  11  21  32  46  64  87 114 144 177 218 263
#     4   9  16  27  45  68  91 114 144 181 217 253
#
# _framework density 16.414885999999999
#
# number of rings (size 3 to 8) (size 9 to 14) (size 15 to 20)
#    0.000    3.000    0.000    6.000    0.000    2.667 
#    0.000    0.000    0.000   14.000    0.000    2.333 
#    0.000    0.000    0.000    0.000    0.000    0.000 
#
# Total GULP energy -133719.624705 kJ/mol
# GULP energy per Si atom -5571.651029 kJ/mol
# Density = 1.637753 g / cm^3
# Si number density = 16.414886 Si / 1000 Ang^3
#
#
#
# Elastic Constant Matrix: (Units=GPa)
#
#
# Indices 1 2 3 4 5 6 
#
# 1 21.2283 17.1173 12.5425 0.0000 0.0000 0.0000
# 2 17.1173 145.5975 97.4046 0.0000 0.0000 0.0000
# 3 12.5425 97.4046 146.3501 0.0000 0.0000 0.0000
# 4 0.0000 0.0000 0.0000 25.2534 0.0000 0.0000
# 5 0.0000 0.0000 0.0000 0.0000 7.9309 0.0000
# 6 0.0000 0.0000 0.0000 0.0000 0.0000 20.3908
#
#
#
# Elastic Compliance Matrix: (Units=1/GPa)
#
#
# Indices 1 2 3 4 5 6 
#
# 1 0.052080 -0.005655 -0.000700 0.000000 0.000000 0.000000
# 2 -0.005655 0.012995 -0.008164 0.000000 0.000000 0.000000
# 3 -0.000700 -0.008164 0.012327 0.000000 0.000000 0.000000
# 4 0.000000 0.000000 0.000000 0.039599 0.000000 0.000000
# 5 0.000000 0.000000 0.000000 0.000000 0.126089 0.000000
# 6 0.000000 0.000000 0.000000 0.000000 0.000000 0.049042
#
#
# Mechanical properties :
#
#
# Convention : Reuss Voigt Hill
#
# Bulk Modulus (GPa) = 20.67649 63.03383 41.85516
# Shear Modulus (GPa) = 14.82405 23.12247 18.97326
#
# Velocity S-wave (km/s) = 3.00840 3.75724 3.40348
# Velocity P-wave (km/s) = 4.96899 7.57009 6.40301
#
# Compressibility (1/GPa) = 0.04836410
#
# Stress axis : x y z
#
# Youngs Moduli (GPa) = 19.20125 76.95312 81.12464
#
# Poissons Ratio (x) = 0.43514 0.05678
# Poissons Ratio (y) = 0.10858 0.66232
# Poissons Ratio (z) = 0.01344 0.62827
#
# Static dielectric constant tensor:
#      x y z
#    x 1.572630 0.000000 0.000000 
#    y 0.000000 1.545050 0.000000 
#    z 0.000000 0.000000 1.555030 
# 
# From -- ./inp_files/14025.got.cif
#   From: 2010.05.17/outbox.cif.g08.bks.cpg/sg46_8_cif.got.tgz:14025.got - 2010.06.03 19:58:25.
