data_PCOD9378456
_publ_section_title
;
Structure prediction by ZEFSAII (Michael W. Deem and Ramdas Pophale) SiO2 
 PCOD9378456
Probable space group: I M A 2
;
_chemical_formula_sum "Si O2"
_cell_formula_units_Z 64
_cell_length_a 7.572065
_cell_length_b 14.337178
_cell_length_c 23.988984
_cell_angle_alpha 90.000000
_cell_angle_beta 90.000000
_cell_angle_gamma 90.000000
_cell_volume 2604.293130
_symmetry_space_group_name_H-M "I M A 2"
_symmetry_group_IT_number 46
_symmetry_cell_setting 'orthorhombic'
loop_
_space_group_symop_operation_xyz
x,y,z
-x,-y,z
1/2-x,y,z
1/2+x,-y,z
1/2+x,1/2+y,1/2+z
1/2-x,1/2-y,1/2+z
-x,1/2+y,1/2+z
x,1/2-y,1/2+z
loop_
_atom_site_type_symbol
_atom_site_label
_atom_site_fract_x
_atom_site_fract_y
_atom_site_fract_z
Si Si1 0.546128 0.127789 0.023160
Si Si2 0.943002 0.897856 0.902136
Si Si3 0.548738 0.879352 0.619909
Si Si4 0.462538 0.190940 0.262855
Si Si5 0.534394 0.656052 0.003891
Si Si6 0.033476 0.311763 0.883833
Si Si7 0.959137 0.331537 0.639549
Si Si8 0.538408 0.598946 0.239004
O O1 0.750000 0.099061 0.016758
O O2 0.482583 0.107280 0.086157
O O3 0.441126 0.094873 0.969361
O O4 0.531600 0.239385 0.015901
O O5 0.750000 0.885886 0.877340
O O6 0.029408 0.797033 0.889723
O O7 0.000000 0.000000 0.883945
O O8 0.750000 0.913678 0.618820
O O9 0.470349 0.897644 0.558958
O O10 0.552849 0.767643 0.630362
O O11 0.457939 0.909547 0.676789
O O12 0.250000 0.190017 0.262821
O O13 0.521586 0.152287 0.322977
O O14 0.515714 0.143074 0.204393
O O15 0.521660 0.300370 0.261421
O O16 0.750000 0.656733 0.005748
O O17 0.479165 0.634825 0.940480
O O18 0.250000 0.311121 0.885323
O O19 0.750000 0.317594 0.631133
O O20 0.500000 0.500000 0.267114
O O21 0.750000 0.607085 0.235196
#
# Coordination Sequence:
#
# PCOD9378456 Si02
#       8
#     8   8   8   8   8   8   8   8
#     4   9  16  26  40  58  79 100 126 163 205 243
#     4  10  19  30  43  59  81 109 141 171 200 235
#     4   8  14  25  40  56  73  95 123 158 202 242
#     4   9  17  29  41  54  77 107 136 163 193 230
#     4   8  13  24  42  59  74  94 123 159 201 244
#     4   8  15  27  42  58  76 102 133 163 193 229
#     4   9  16  25  39  59  78  97 126 164 203 238
#     4   9  17  26  36  51  73 102 132 159 185 217
#
# _framework density 24.574805999999999
#
# number of rings (size 3 to 8) (size 9 to 14) (size 15 to 20)
#    0.000    3.250    0.000    2.625    0.000    4.000 
#    0.000    3.125    0.000    0.000    0.000    0.000 
#    0.000    1.000    0.000    7.500    0.000    1.375 
#
# Total GULP energy -178165.453376 kJ/mol
# GULP energy per Si atom -5567.670418 kJ/mol
# Density = 2.451887 g / cm^3
# Si number density = 24.574806 Si / 1000 Ang^3
#
#
#
# Elastic Constant Matrix: (Units=GPa)
#
#
# Indices 1 2 3 4 5 6 
#
# 1 67.8298 -5.1844 7.5957 0.0000 0.0000 0.0000
# 2 -5.1844 25.9679 1.5191 0.0000 0.0000 0.0000
# 3 7.5957 1.5191 265.8735 0.0000 0.0000 0.0000
# 4 0.0000 0.0000 0.0000 -14.4881 0.0000 0.0000
# 5 0.0000 0.0000 0.0000 0.0000 23.7255 0.0000
# 6 0.0000 0.0000 0.0000 0.0000 0.0000 6.2390
#
#
#
# Elastic Compliance Matrix: (Units=1/GPa)
#
#
# Indices 1 2 3 4 5 6 
#
# 1 0.015024 0.003026 -0.000447 0.000000 0.000000 0.000000
# 2 0.003026 0.039131 -0.000310 0.000000 0.000000 0.000000
# 3 -0.000447 -0.000310 0.003776 0.000000 0.000000 0.000000
# 4 0.000000 0.000000 0.000000 -0.069022 0.000000 0.000000
# 5 0.000000 0.000000 0.000000 0.000000 0.042149 0.000000
# 6 0.000000 0.000000 0.000000 0.000000 0.000000 0.160282
#
#
# Mechanical properties :
#
#
# Convention : Reuss Voigt Hill
#
# Bulk Modulus (GPa) = 16.00789 40.83690 28.42239
# Shear Modulus (GPa) = 24.08189 26.81131 25.44660
#
# Velocity S-wave (km/s) = 3.13380 3.30662 3.22137
# Velocity P-wave (km/s) = 4.42971 5.58854 5.04253
#
# Compressibility (1/GPa) = 0.06246921
#
# Stress axis : x y z
#
# Youngs Moduli (GPa) = 66.55996 25.55501 264.85047
#
# Poissons Ratio (x) = -0.07732 0.11826
# Poissons Ratio (y) = -0.20139 0.08211
# Poissons Ratio (z) = 0.02972 0.00792
#
# Static dielectric constant tensor:
#      x y z
#    x 1.729020 0.000000 0.000000 
#    y 0.000000 1.967030 0.000000 
#    z 0.000000 0.000000 2.051520 
# 
# From -- ./inp_files/21412.got.cif
#   From: 2010.05.17/outbox.cif.g08.bks.cpg/sg46_11_cif.got.tgz:21412.got - 2010.06.03 19:58:25.
