data_PCOD9378939
_publ_section_title
;
Structure prediction by ZEFSAII (Michael W. Deem and Ramdas Pophale) SiO2 
 PCOD9378939
Probable space group: I M A 2
;
_chemical_formula_sum "Si O2"
_cell_formula_units_Z 48
_cell_length_a 16.308150
_cell_length_b 8.972510
_cell_length_c 16.841977
_cell_angle_alpha 90.000000
_cell_angle_beta 90.000000
_cell_angle_gamma 90.000000
_cell_volume 2464.402941
_symmetry_space_group_name_H-M "I M A 2"
_symmetry_group_IT_number 46
_symmetry_cell_setting 'orthorhombic'
loop_
_space_group_symop_operation_xyz
x,y,z
-x,-y,z
1/2-x,y,z
1/2+x,-y,z
1/2+x,1/2+y,1/2+z
1/2-x,1/2-y,1/2+z
-x,1/2+y,1/2+z
x,1/2-y,1/2+z
loop_
_atom_site_type_symbol
_atom_site_label
_atom_site_fract_x
_atom_site_fract_y
_atom_site_fract_z
Si Si1 0.083226 0.900098 0.385380
Si Si2 0.345604 0.874328 0.970890
Si Si3 0.404080 0.964512 0.136406
Si Si4 0.341561 0.356734 0.789542
Si Si5 0.152451 0.782498 0.739178
Si Si6 0.406365 0.044761 0.819055
O O1 0.103746 0.780055 0.454165
O O2 0.096094 0.795757 0.307116
O O3 0.149422 0.026238 0.361692
O O4 0.000000 0.000000 0.391625
O O5 0.250000 0.834817 0.978232
O O6 0.374259 0.970800 0.046253
O O7 0.357883 0.980725 0.894676
O O8 0.378062 0.796941 0.160394
O O9 0.500000 0.000000 0.140862
O O10 0.362415 0.064017 0.205630
O O11 0.250000 0.298214 0.785982
O O12 0.399933 0.219231 0.806777
O O13 0.250000 0.755530 0.752163
O O14 0.132523 0.955845 0.745139
O O15 0.500000 0.000000 0.829596
#
# Coordination Sequence:
#
# PCOD9378939 Si02
#       6
#     8   8   8   8   8   8
#     4  10  19  34  57  82 110 146 189 232 276 333
#     4  11  22  39  58  82 116 157 191 228 285 351
#     4  11  22  38  59  83 112 149 192 238 285 337
#     4  11  20  35  59  88 113 144 189 240 281 327
#     4  10  19  36  58  83 113 154 194 229 279 347
#     4  11  21  36  58  86 118 152 189 235 283 335
#
# _framework density 19.477335
#
# number of rings (size 3 to 8) (size 9 to 14) (size 15 to 20)
#    0.000    1.333    0.000   12.000    0.000    0.000 
#    0.000    4.167    0.000    0.000    0.000    0.000 
#    0.000    0.000    0.000    0.000    0.000    0.000 
#
# Total GULP energy -133711.035840 kJ/mol
# GULP energy per Si atom -5571.293160 kJ/mol
# Density = 1.943300 g / cm^3
# Si number density = 19.477335 Si / 1000 Ang^3
#
#
#
# Elastic Constant Matrix: (Units=GPa)
#
#
# Indices 1 2 3 4 5 6 
#
# 1 115.8089 1.3121 5.0956 0.0000 0.0000 0.0000
# 2 1.3121 91.1739 11.6829 0.0000 0.0000 0.0000
# 3 5.0956 11.6829 43.3369 0.0000 0.0000 0.0000
# 4 0.0000 0.0000 0.0000 15.6699 0.0000 0.0000
# 5 0.0000 0.0000 0.0000 0.0000 18.8613 0.0000
# 6 0.0000 0.0000 0.0000 0.0000 0.0000 34.8464
#
#
#
# Elastic Compliance Matrix: (Units=1/GPa)
#
#
# Indices 1 2 3 4 5 6 
#
# 1 0.008680 0.000006 -0.001022 0.000000 0.000000 0.000000
# 2 0.000006 0.011360 -0.003063 0.000000 0.000000 0.000000
# 3 -0.001022 -0.003063 0.024021 0.000000 0.000000 0.000000
# 4 0.000000 0.000000 0.000000 0.063817 0.000000 0.000000
# 5 0.000000 0.000000 0.000000 0.000000 0.053019 0.000000
# 6 0.000000 0.000000 0.000000 0.000000 0.000000 0.028697
#
#
# Mechanical properties :
#
#
# Convention : Reuss Voigt Hill
#
# Bulk Modulus (GPa) = 27.85326 31.83344 29.84335
# Shear Modulus (GPa) = 23.84126 29.35745 26.59935
#
# Velocity S-wave (km/s) = 3.50244 3.88656 3.69949
# Velocity P-wave (km/s) = 5.53963 6.04316 5.79686
#
# Compressibility (1/GPa) = 0.03590244
#
# Stress axis : x y z
#
# Youngs Moduli (GPa) = 115.20970 88.02439 41.63016
#
# Poissons Ratio (x) = -0.00053 0.04256
# Poissons Ratio (y) = -0.00070 0.12753
# Poissons Ratio (z) = 0.11777 0.26965
#
# Static dielectric constant tensor:
#      x y z
#    x 1.695500 0.000000 0.000000 
#    y 0.000000 1.720100 0.000000 
#    z 0.000000 0.000000 1.679440 
# 
# From -- ./inp_files/19390.got.cif
#   From: 2010.05.17/outbox.cif.g08.bks.cpg/sg46_10_cif.got.tgz:19390.got - 2010.06.03 19:58:25.
