data_PCOD9378913
_publ_section_title
;
Structure prediction by ZEFSAII (Michael W. Deem and Ramdas Pophale) SiO2 
 PCOD9378913
Probable space group: I M A 2
;
_chemical_formula_sum "Si O2"
_cell_formula_units_Z 56
_cell_length_a 14.844157
_cell_length_b 5.089714
_cell_length_c 34.868511
_cell_angle_alpha 90.000000
_cell_angle_beta 90.000000
_cell_angle_gamma 90.000000
_cell_volume 2634.403655
_symmetry_space_group_name_H-M "I M A 2"
_symmetry_group_IT_number 46
_symmetry_cell_setting 'orthorhombic'
loop_
_space_group_symop_operation_xyz
x,y,z
-x,-y,z
1/2-x,y,z
1/2+x,-y,z
1/2+x,1/2+y,1/2+z
1/2-x,1/2-y,1/2+z
-x,1/2+y,1/2+z
x,1/2-y,1/2+z
loop_
_atom_site_type_symbol
_atom_site_label
_atom_site_fract_x
_atom_site_fract_y
_atom_site_fract_z
Si Si1 0.640040 0.369702 0.595590
Si Si2 0.641730 0.582630 0.511818
Si Si3 0.750000 0.209482 0.404538
Si Si4 0.642579 0.866176 0.642454
Si Si5 0.439337 0.248736 0.222556
Si Si6 0.935094 0.753728 0.308822
Si Si7 0.595727 0.092858 0.464641
Si Si8 0.250000 0.279128 0.355054
O O1 0.750000 0.353846 0.593850
O O2 0.613797 0.482541 0.553997
O O3 0.612171 0.593328 0.624909
O O4 0.607535 0.099125 0.614831
O O5 0.750000 0.548533 0.508890
O O6 0.595087 0.377935 0.483645
O O7 0.622286 0.878916 0.497680
O O8 0.666031 0.123242 0.430599
O O9 0.750000 0.511143 0.390436
O O10 0.750000 0.022708 0.368145
O O11 0.750000 0.880947 0.639063
O O12 0.620822 0.847870 0.687303
O O13 0.500000 0.500000 0.229989
O O14 0.402085 0.185197 0.264908
O O15 0.500000 0.000000 0.210572
O O16 0.844431 0.692721 0.332500
O O17 0.000000 0.500000 0.310845
O O18 0.000000 0.000000 0.320380
O O19 0.500000 0.000000 0.449711
#
# Coordination Sequence:
#
# PCOD9378913 Si02
#       8
#     8   8   4   8   8   8   8   4
#     4   9  19  33  56  87 119 163 210 261 317 362
#     4  11  20  41  67  88 126 175 219 268 323 385
#     4  12  26  46  68 104 131 168 209 264 332 406
#     4  10  19  34  55  86 120 160 216 259 307 374
#     4  10  21  38  59  85 123 169 210 260 326 375
#     4  10  23  44  68 100 137 174 222 277 328 395
#     4  12  25  43  67  97 130 167 214 266 323 392
#     4  12  26  44  76 100 133 172 221 258 340 416
#
# _framework density 21.257183000000001
#
# number of rings (size 3 to 8) (size 9 to 14) (size 15 to 20)
#    0.000    1.429    1.429    3.857    1.000    4.000 
#    0.000    7.143    0.000    0.000    0.000    0.000 
#    0.000    0.000    0.000    0.000    0.000    0.000 
#
# Total GULP energy -156203.530064 kJ/mol
# GULP energy per Si atom -5578.697502 kJ/mol
# Density = 2.120880 g / cm^3
# Si number density = 21.257183 Si / 1000 Ang^3
#
#
#
# Elastic Constant Matrix: (Units=GPa)
#
#
# Indices 1 2 3 4 5 6 
#
# 1 103.6863 15.3141 37.9546 0.0000 0.0000 0.0000
# 2 15.3141 79.5361 -9.1262 0.0000 0.0000 0.0000
# 3 37.9546 -9.1262 64.5292 0.0000 0.0000 0.0000
# 4 0.0000 0.0000 0.0000 35.0895 0.0000 0.0000
# 5 0.0000 0.0000 0.0000 0.0000 -12.6801 0.0000
# 6 0.0000 0.0000 0.0000 0.0000 0.0000 23.9784
#
#
#
# Elastic Compliance Matrix: (Units=1/GPa)
#
#
# Indices 1 2 3 4 5 6 
#
# 1 0.013176 -0.003483 -0.008242 0.000000 0.000000 0.000000
# 2 -0.003483 0.013701 0.003986 0.000000 0.000000 0.000000
# 3 -0.008242 0.003986 0.020909 0.000000 0.000000 0.000000
# 4 0.000000 0.000000 0.000000 0.028499 0.000000 0.000000
# 5 0.000000 0.000000 0.000000 0.000000 -0.078863 0.000000
# 6 0.000000 0.000000 0.000000 0.000000 0.000000 0.041704
#
#
# Mechanical properties :
#
#
# Convention : Reuss Voigt Hill
#
# Bulk Modulus (GPa) = 30.95255 37.33741 34.14498
# Shear Modulus (GPa) = 76.48553 22.85149 49.66851
#
# Velocity S-wave (km/s) = 6.00493 3.28228 4.83903
# Velocity P-wave (km/s) = 7.91653 5.65395 6.87890
#
# Compressibility (1/GPa) = 0.03230752
#
# Stress axis : x y z
#
# Youngs Moduli (GPa) = 75.89557 72.98816 47.82726
#
# Poissons Ratio (x) = 0.25420 0.39421
# Poissons Ratio (y) = 0.26432 -0.19064
# Poissons Ratio (z) = 0.62556 -0.29094
#
# Static dielectric constant tensor:
#      x y z
#    x 1.776230 0.000000 0.000000 
#    y 0.000000 1.731320 0.000000 
#    z 0.000000 0.000000 1.860640 
# 
# From -- ./inp_files/25403.got.cif
#   From: 2010.05.17/outbox.cif.g08.bks.cpg/sg46_13_cif.got.tgz:25403.got - 2010.06.03 19:58:25.
