data_PCOD9378384
_publ_section_title
;
Structure prediction by ZEFSAII (Michael W. Deem and Ramdas Pophale) SiO2 
 PCOD9378384
Probable space group: I M A 2
;
_chemical_formula_sum "Si O2"
_cell_formula_units_Z 64
_cell_length_a 20.804261
_cell_length_b 19.006659
_cell_length_c 9.052957
_cell_angle_alpha 90.000000
_cell_angle_beta 90.000000
_cell_angle_gamma 90.000000
_cell_volume 3579.715681
_symmetry_space_group_name_H-M "I M A 2"
_symmetry_group_IT_number 46
_symmetry_cell_setting 'orthorhombic'
loop_
_space_group_symop_operation_xyz
x,y,z
-x,-y,z
1/2-x,y,z
1/2+x,-y,z
1/2+x,1/2+y,1/2+z
1/2-x,1/2-y,1/2+z
-x,1/2+y,1/2+z
x,1/2-y,1/2+z
loop_
_atom_site_type_symbol
_atom_site_label
_atom_site_fract_x
_atom_site_fract_y
_atom_site_fract_z
Si Si1 0.571391 0.472497 0.250000
Si Si2 0.980008 0.319303 0.616700
Si Si3 0.177195 0.421667 0.608062
Si Si4 0.824126 0.684139 0.349520
Si Si5 0.524173 0.327105 0.261164
Si Si6 0.390841 0.327496 0.811005
Si Si7 0.606336 0.889458 0.621130
Si Si8 0.569698 0.468744 0.605291
O O1 0.500000 0.500000 0.211028
O O2 0.573248 0.389719 0.218658
O O3 0.614743 0.529235 0.166887
O O4 0.575984 0.475673 0.427266
O O5 0.982479 0.317610 0.438163
O O6 0.957527 0.245250 0.682625
O O7 0.935546 0.387159 0.650334
O O8 0.049785 0.328039 0.695697
O O9 0.250000 0.447116 0.594715
O O10 0.158572 0.381472 0.456207
O O11 0.169829 0.359854 0.726998
O O12 0.128171 0.482674 0.656603
O O13 0.750000 0.702184 0.379046
O O14 0.870918 0.750541 0.368231
O O15 0.834535 0.655711 0.183827
O O16 0.455256 0.355540 0.204664
O O17 0.405944 0.375926 0.950467
O O18 0.500000 0.500000 0.645934
#
# Coordination Sequence:
#
# PCOD9378384 Si02
#       8
#     8   8   8   8   8   8   8   8
#     4   8  17  33  55  73 107 147 179 232 282 327
#     4  11  21  34  56  84 116 149 184 232 293 341
#     4  11  23  40  57  80 114 156 199 236 284 340
#     4  11  23  37  56  78 112 161 201 226 271 338
#     4  10  20  35  52  81 113 144 182 232 290 345
#     4  12  23  33  52  84 119 154 191 231 277 341
#     4  11  20  35  55  76 112 151 196 227 277 331
#     4  10  18  36  60  80 107 146 195 236 284 335
#
# _framework density 17.878516000000001
#
# number of rings (size 3 to 8) (size 9 to 14) (size 15 to 20)
#    0.000    1.500    3.750    3.375    0.000    2.000 
#    9.000    0.000    0.000    0.000    0.000    4.375 
#    0.000    0.000    0.000    0.000    0.000    0.000 
#
# Total GULP energy -178366.993453 kJ/mol
# GULP energy per Si atom -5573.968545 kJ/mol
# Density = 1.783782 g / cm^3
# Si number density = 17.878516 Si / 1000 Ang^3
#
#
#
# Elastic Constant Matrix: (Units=GPa)
#
#
# Indices 1 2 3 4 5 6 
#
# 1 50.8196 39.0102 6.7928 0.0000 0.0000 0.0000
# 2 39.0102 148.1196 35.3798 0.0000 0.0000 0.0000
# 3 6.7928 35.3798 72.6081 0.0000 0.0000 0.0000
# 4 0.0000 0.0000 0.0000 23.1417 0.0000 0.0000
# 5 0.0000 0.0000 0.0000 0.0000 11.0682 0.0000
# 6 0.0000 0.0000 0.0000 0.0000 0.0000 20.5519
#
#
#
# Elastic Compliance Matrix: (Units=1/GPa)
#
#
# Indices 1 2 3 4 5 6 
#
# 1 0.024724 -0.006744 0.000973 0.000000 0.000000 0.000000
# 2 -0.006744 0.009480 -0.003988 0.000000 0.000000 0.000000
# 3 0.000973 -0.003988 0.015625 0.000000 0.000000 0.000000
# 4 0.000000 0.000000 0.000000 0.043212 0.000000 0.000000
# 5 0.000000 0.000000 0.000000 0.000000 0.090349 0.000000
# 6 0.000000 0.000000 0.000000 0.000000 0.000000 0.048657
#
#
# Mechanical properties :
#
#
# Convention : Reuss Voigt Hill
#
# Bulk Modulus (GPa) = 32.99176 48.21256 40.60216
# Shear Modulus (GPa) = 19.10803 23.64332 21.37567
#
# Velocity S-wave (km/s) = 3.27275 3.64049 3.46151
# Velocity P-wave (km/s) = 5.72491 6.68552 6.22377
#
# Compressibility (1/GPa) = 0.03031060
#
# Stress axis : x y z
#
# Youngs Moduli (GPa) = 40.44612 105.48331 64.00003
#
# Poissons Ratio (x) = 0.71139 -0.06228
# Poissons Ratio (y) = 0.27277 0.25526
# Poissons Ratio (z) = -0.03936 0.42072
#
# Static dielectric constant tensor:
#      x y z
#    x 1.635930 0.000000 0.000000 
#    y 0.000000 1.669590 0.000000 
#    z 0.000000 0.000000 1.640710 
# 
# From -- ./inp_files/7548.got.cif
#   From: 2010.05.17/outbox.cif.g08.bks.cpg/sg46_4_cif.got.tgz:7548.got - 2010.06.03 19:58:25.
