data_PCOD9378910
_publ_section_title
;
Structure prediction by ZEFSAII (Michael W. Deem and Ramdas Pophale) SiO2 
 PCOD9378910
Probable space group: I M A 2
;
_chemical_formula_sum "Si O2"
_cell_formula_units_Z 60
_cell_length_a 14.248475
_cell_length_b 20.413801
_cell_length_c 11.547079
_cell_angle_alpha 90.000000
_cell_angle_beta 90.000000
_cell_angle_gamma 90.000000
_cell_volume 3358.647290
_symmetry_space_group_name_H-M "I M A 2"
_symmetry_group_IT_number 46
_symmetry_cell_setting 'orthorhombic'
loop_
_space_group_symop_operation_xyz
x,y,z
-x,-y,z
1/2-x,y,z
1/2+x,-y,z
1/2+x,1/2+y,1/2+z
1/2-x,1/2-y,1/2+z
-x,1/2+y,1/2+z
x,1/2-y,1/2+z
loop_
_atom_site_type_symbol
_atom_site_label
_atom_site_fract_x
_atom_site_fract_y
_atom_site_fract_z
Si Si1 0.856779 0.472314 0.625000
Si Si2 0.643585 0.629314 0.598118
Si Si3 0.000000 0.000000 0.303583
Si Si4 0.360058 0.585026 0.368205
Si Si5 0.963787 0.662412 0.374417
Si Si6 0.641874 0.793352 0.338130
Si Si7 0.861882 0.953372 0.735904
Si Si8 0.360652 0.420755 0.968642
O O1 0.750000 0.456516 0.661406
O O2 0.862772 0.551026 0.610556
O O3 0.935200 0.455583 0.719443
O O4 0.873181 0.441581 0.499183
O O5 0.750000 0.643713 0.555191
O O6 0.568152 0.654887 0.507459
O O7 0.634087 0.663297 0.722246
O O8 0.928527 0.959876 0.383277
O O9 0.250000 0.598646 0.350798
O O10 0.427307 0.646915 0.355116
O O11 0.388531 0.525305 0.283019
O O12 0.927382 0.732550 0.334268
O O13 0.910676 0.603714 0.308083
O O14 0.750000 0.769780 0.345519
O O15 0.625119 0.843482 0.444273
O O16 0.750000 0.948140 0.755360
O O17 0.879324 0.942055 0.600130
O O18 0.250000 0.433550 0.942104
#
# Coordination Sequence:
#
# PCOD9378910 Si02
#       8
#     8   8   4   8   8   8   8   8
#     4  10  19  34  56  85 115 144 184 241 292 332
#     4  10  19  34  55  83 116 146 181 233 288 341
#     4  12  20  32  58  82 112 154 194 228 280 340
#     4  10  22  38  58  85 117 148 195 251 292 324
#     4  12  22  34  60  84 114 152 199 228 285 345
#     4  10  22  38  55  84 120 153 186 230 287 351
#     4  10  21  37  56  84 117 149 185 237 293 345
#     4  10  23  39  55  82 122 154 186 231 284 345
#
# _framework density 17.864335000000001
#
# number of rings (size 3 to 8) (size 9 to 14) (size 15 to 20)
#    0.000    1.600    2.667    2.800    3.733    0.000 
#    0.000    0.000    0.000    2.400    0.000    0.000 
#    0.000    0.000    0.000    0.000    0.000    0.000 
#
# Total GULP energy -167546.128556 kJ/mol
# GULP energy per Si atom -5584.870952 kJ/mol
# Density = 1.782368 g / cm^3
# Si number density = 17.864335 Si / 1000 Ang^3
#
#
#
# Elastic Constant Matrix: (Units=GPa)
#
#
# Indices 1 2 3 4 5 6 
#
# 1 86.7860 49.1643 40.4991 0.0000 0.0000 0.0000
# 2 49.1643 77.9609 20.3115 0.0000 0.0000 0.0000
# 3 40.4991 20.3115 64.4262 0.0000 0.0000 0.0000
# 4 0.0000 0.0000 0.0000 9.3300 0.0000 0.0000
# 5 0.0000 0.0000 0.0000 0.0000 27.6678 0.0000
# 6 0.0000 0.0000 0.0000 0.0000 0.0000 31.4826
#
#
#
# Elastic Compliance Matrix: (Units=1/GPa)
#
#
# Indices 1 2 3 4 5 6 
#
# 1 0.023356 -0.011880 -0.010937 0.000000 0.000000 0.000000
# 2 -0.011880 0.020017 0.001157 0.000000 0.000000 0.000000
# 3 -0.010937 0.001157 0.022032 0.000000 0.000000 0.000000
# 4 0.000000 0.000000 0.000000 0.107181 0.000000 0.000000
# 5 0.000000 0.000000 0.000000 0.000000 0.036143 0.000000
# 6 0.000000 0.000000 0.000000 0.000000 0.000000 0.031764
#
#
# Mechanical properties :
#
#
# Convention : Reuss Voigt Hill
#
# Bulk Modulus (GPa) = 45.27692 49.90254 47.58973
# Shear Modulus (GPa) = 17.17192 21.64263 19.40728
#
# Velocity S-wave (km/s) = 3.10375 3.48444 3.29959
# Velocity P-wave (km/s) = 6.18419 6.64704 6.41979
#
# Compressibility (1/GPa) = 0.02208631
#
# Stress axis : x y z
#
# Youngs Moduli (GPa) = 42.81562 49.95733 45.38894
#
# Poissons Ratio (x) = 0.59347 0.49640
# Poissons Ratio (y) = 0.50863 -0.05251
# Poissons Ratio (z) = 0.46826 -0.05779
#
# Static dielectric constant tensor:
#      x y z
#    x 1.641320 0.000000 0.000000 
#    y 0.000000 1.585670 0.000000 
#    z 0.000000 0.000000 1.621650 
# 
# From -- ./inp_files/11276.got.cif
#   From: 2010.05.17/outbox.cif.g08.bks.cpg/sg46_6_cif.got.tgz:11276.got - 2010.06.03 19:58:25.
