data_PCOD9378466
_publ_section_title
;
Structure prediction by ZEFSAII (Michael W. Deem and Ramdas Pophale) SiO2 
 PCOD9378466
Probable space group: I M A 2
;
_chemical_formula_sum "Si O2"
_cell_formula_units_Z 64
_cell_length_a 17.507463
_cell_length_b 7.250051
_cell_length_c 22.525444
_cell_angle_alpha 90.000000
_cell_angle_beta 90.000000
_cell_angle_gamma 90.000000
_cell_volume 2859.154599
_symmetry_space_group_name_H-M "I M A 2"
_symmetry_group_IT_number 46
_symmetry_cell_setting 'orthorhombic'
loop_
_space_group_symop_operation_xyz
x,y,z
-x,-y,z
1/2-x,y,z
1/2+x,-y,z
1/2+x,1/2+y,1/2+z
1/2-x,1/2-y,1/2+z
-x,1/2+y,1/2+z
x,1/2-y,1/2+z
loop_
_atom_site_type_symbol
_atom_site_label
_atom_site_fract_x
_atom_site_fract_y
_atom_site_fract_z
Si Si1 0.841000 0.568460 0.463250
Si Si2 0.342552 0.435857 0.334074
Si Si3 0.090968 0.476039 0.829501
Si Si4 0.410533 0.038075 0.083259
Si Si5 0.661470 0.520154 0.207821
Si Si6 0.909509 0.523263 0.085990
Si Si7 0.161417 0.030364 0.206118
Si Si8 0.407775 0.018293 0.458221
O O1 0.750000 0.595706 0.468321
O O2 0.857062 0.479062 0.398858
O O3 0.871393 0.472248 0.522478
O O4 0.882463 0.767407 0.459757
O O5 0.250000 0.405143 0.329711
O O6 0.384926 0.239220 0.333106
O O7 0.366710 0.536393 0.273406
O O8 0.127600 0.541665 0.767953
O O9 0.118093 0.554195 0.893636
O O10 0.000000 0.500000 0.825717
O O11 0.394076 0.257507 0.084926
O O12 0.380158 0.967305 0.146229
O O13 0.500000 0.000000 0.078902
O O14 0.750000 0.471594 0.203012
O O15 0.621605 0.451765 0.148338
O O16 0.655735 0.744868 0.208174
O O17 0.000000 0.500000 0.086928
O O18 0.880432 0.446037 0.022643
O O19 0.250000 0.983738 0.202417
O O20 0.500000 0.000000 0.458391
#
# Coordination Sequence:
#
# PCOD9378466 Si02
#       8
#     8   8   8   8   8   8   8   8
#     4   9  16  27  45  66  87 116 154 191 226 270
#     4   8  14  25  40  60  86 112 142 184 228 263
#     4   9  14  21  35  57  85 114 141 172 221 269
#     4  10  19  30  45  66  92 118 146 185 232 270
#     4   8  14  25  42  62  83 108 141 183 222 255
#     4   9  17  29  44  63  88 115 144 178 217 265
#     4   9  16  26  40  60  85 113 148 186 220 261
#     4   8  15  25  38  60  90 118 143 181 228 269
#
# _framework density 22.384239999999998
#
# number of rings (size 3 to 8) (size 9 to 14) (size 15 to 20)
#    0.000    3.250    0.000    1.875    0.000    3.500 
#    0.000    0.625    0.000    1.500    0.000    5.250 
#    0.000   10.000    0.000    0.000    0.000    0.000 
#
# Total GULP energy -178298.624534 kJ/mol
# GULP energy per Si atom -5571.832017 kJ/mol
# Density = 2.233329 g / cm^3
# Si number density = 22.384240 Si / 1000 Ang^3
#
#
#
# Elastic Constant Matrix: (Units=GPa)
#
#
# Indices 1 2 3 4 5 6 
#
# 1 44.7007 4.4406 75.1982 0.0000 0.0000 0.0000
# 2 4.4406 95.7825 17.1865 0.0000 0.0000 0.0000
# 3 75.1982 17.1865 321.2265 0.0000 0.0000 0.0000
# 4 0.0000 0.0000 0.0000 -1.3987 0.0000 0.0000
# 5 0.0000 0.0000 0.0000 0.0000 39.4074 0.0000
# 6 0.0000 0.0000 0.0000 0.0000 0.0000 7.9813
#
#
#
# Elastic Compliance Matrix: (Units=1/GPa)
#
#
# Indices 1 2 3 4 5 6 
#
# 1 0.036907 -0.000162 -0.008631 0.000000 0.000000 0.000000
# 2 -0.000162 0.010542 -0.000526 0.000000 0.000000 0.000000
# 3 -0.008631 -0.000526 0.005162 0.000000 0.000000 0.000000
# 4 0.000000 0.000000 0.000000 -0.714932 0.000000 0.000000
# 5 0.000000 0.000000 0.000000 0.000000 0.025376 0.000000
# 6 0.000000 0.000000 0.000000 0.000000 0.000000 0.125293
#
#
# Mechanical properties :
#
#
# Convention : Reuss Voigt Hill
#
# Bulk Modulus (GPa) = 29.43606 72.81782 51.12694
# Shear Modulus (GPa) = -10.38015 33.52362 11.57173
#
# Velocity S-wave (km/s) = -2.15577 3.87414 2.27614
# Velocity P-wave (km/s) = 2.64244 7.25351 5.45875
#
# Compressibility (1/GPa) = 0.03397193
#
# Stress axis : x y z
#
# Youngs Moduli (GPa) = 27.09514 94.85650 193.73327
#
# Poissons Ratio (x) = 0.01540 1.67214
# Poissons Ratio (y) = 0.00440 0.10191
# Poissons Ratio (z) = 0.23386 0.04990
#
# Static dielectric constant tensor:
#      x y z
#    x 1.747190 0.000000 0.000000 
#    y 0.000000 1.794960 0.000000 
#    z 0.000000 0.000000 1.915050 
# 
# From -- ./inp_files/23666.got.cif
#   From: 2010.05.17/outbox.cif.g08.bks.cpg/sg46_12_cif.got.tgz:23666.got - 2010.06.03 19:58:25.
