data_PCOD9378326
_publ_section_title
;
Structure prediction by ZEFSAII (Michael W. Deem and Ramdas Pophale) SiO2 
 PCOD9378326
Probable space group: I M A 2
;
_chemical_formula_sum "Si O2"
_cell_formula_units_Z 56
_cell_length_a 9.081375
_cell_length_b 15.820462
_cell_length_c 20.406383
_cell_angle_alpha 90.000000
_cell_angle_beta 90.000000
_cell_angle_gamma 90.000000
_cell_volume 2931.816637
_symmetry_space_group_name_H-M "I M A 2"
_symmetry_group_IT_number 46
_symmetry_cell_setting 'orthorhombic'
loop_
_space_group_symop_operation_xyz
x,y,z
-x,-y,z
1/2-x,y,z
1/2+x,-y,z
1/2+x,1/2+y,1/2+z
1/2-x,1/2-y,1/2+z
-x,1/2+y,1/2+z
x,1/2-y,1/2+z
loop_
_atom_site_type_symbol
_atom_site_label
_atom_site_fract_x
_atom_site_fract_y
_atom_site_fract_z
Si Si1 0.922804 0.080172 0.623380
Si Si2 0.582550 0.738575 0.070863
Si Si3 0.076340 0.580256 0.392683
Si Si4 0.078689 0.120638 0.757069
Si Si5 0.919860 0.751187 0.917992
Si Si6 0.427786 0.090655 0.150412
Si Si7 0.420804 0.180193 0.282536
O O1 0.750000 0.066952 0.625973
O O2 0.965887 0.170159 0.593911
O O3 0.995076 0.087163 0.694624
O O4 0.000000 0.000000 0.589064
O O5 0.750000 0.720789 0.096849
O O6 0.545390 0.832615 0.098268
O O7 0.589135 0.724087 0.992885
O O8 0.250000 0.569657 0.390400
O O9 0.000000 0.500000 0.426297
O O10 0.004548 0.588691 0.320983
O O11 0.026943 0.668867 0.422249
O O12 0.250000 0.095890 0.757753
O O13 0.071042 0.222856 0.757774
O O14 0.750000 0.777138 0.898954
O O15 0.971937 0.688963 0.858911
O O16 0.250000 0.080829 0.152406
O O17 0.481746 0.122893 0.223032
O O18 0.500000 0.000000 0.134780
O O19 0.250000 0.154961 0.287530
#
# Coordination Sequence:
#
# PCOD9378326 Si02
#       7
#     8   8   8   8   8   8   8
#     4  12  24  37  57  85 116 150 191 237 297 358
#     4  10  21  40  61  84 118 156 197 247 304 360
#     4  11  21  33  50  78 114 149 190 235 285 348
#     4  10  18  34  57  81 112 147 185 232 290 346
#     4   9  19  36  59  81 106 151 196 240 303 361
#     4  10  20  36  58  86 118 156 197 245 299 354
#     4   8  15  32  57  81 109 144 186 233 288 345
#
# _framework density 19.100784999999998
#
# number of rings (size 3 to 8) (size 9 to 14) (size 15 to 20)
#    0.000    2.000    1.429    4.286    0.000    1.714 
#    0.000    2.857    0.000    1.714    0.000    0.000 
#    0.000    0.000    0.000    0.000    0.000    0.000 
#
# Total GULP energy -155959.738805 kJ/mol
# GULP energy per Si atom -5569.990672 kJ/mol
# Density = 1.905731 g / cm^3
# Si number density = 19.100785 Si / 1000 Ang^3
#
#
#
# Elastic Constant Matrix: (Units=GPa)
#
#
# Indices 1 2 3 4 5 6 
#
# 1 112.0648 25.3542 10.6216 0.0000 0.0000 0.0000
# 2 25.3542 60.5326 10.4775 0.0000 0.0000 0.0000
# 3 10.6216 10.4775 71.0584 0.0000 0.0000 0.0000
# 4 0.0000 0.0000 0.0000 -8.0501 0.0000 0.0000
# 5 0.0000 0.0000 0.0000 0.0000 7.4803 0.0000
# 6 0.0000 0.0000 0.0000 0.0000 0.0000 28.3892
#
#
#
# Elastic Compliance Matrix: (Units=1/GPa)
#
#
# Indices 1 2 3 4 5 6 
#
# 1 0.009912 -0.003997 -0.000892 0.000000 0.000000 0.000000
# 2 -0.003997 0.018565 -0.002140 0.000000 0.000000 0.000000
# 3 -0.000892 -0.002140 0.014522 0.000000 0.000000 0.000000
# 4 0.000000 0.000000 0.000000 -0.124222 0.000000 0.000000
# 5 0.000000 0.000000 0.000000 0.000000 0.133684 0.000000
# 6 0.000000 0.000000 0.000000 0.000000 0.000000 0.035225
#
#
# Mechanical properties :
#
#
# Convention : Reuss Voigt Hill
#
# Bulk Modulus (GPa) = 34.55432 37.39584 35.97508
# Shear Modulus (GPa) = 44.88692 18.71072 31.79882
#
# Velocity S-wave (km/s) = 4.85294 3.13322 4.08461
# Velocity P-wave (km/s) = 7.03784 5.71927 6.41254
#
# Compressibility (1/GPa) = 0.02893994
#
# Stress axis : x y z
#
# Youngs Moduli (GPa) = 100.88401 53.86564 68.86190
#
# Poissons Ratio (x) = 0.21532 0.06144
# Poissons Ratio (y) = 0.40327 0.14735
# Poissons Ratio (z) = 0.09002 0.11526
#
# Static dielectric constant tensor:
#      x y z
#    x 1.649160 0.000000 0.000000 
#    y 0.000000 1.754680 0.000000 
#    z 0.000000 0.000000 1.767050 
# 
# From -- ./inp_files/21059.got.cif
#   From: 2010.05.17/outbox.cif.g08.bks.cpg/sg46_11_cif.got.tgz:21059.got - 2010.06.03 19:58:25.
