data_PCOD9378950
_publ_section_title
;
Structure prediction by ZEFSAII (Michael W. Deem and Ramdas Pophale) SiO2 
 PCOD9378950
Probable space group: I M A 2
;
_chemical_formula_sum "Si O2"
_cell_formula_units_Z 48
_cell_length_a 8.977520
_cell_length_b 23.327180
_cell_length_c 11.855263
_cell_angle_alpha 90.000000
_cell_angle_beta 90.000000
_cell_angle_gamma 90.000000
_cell_volume 2482.731845
_symmetry_space_group_name_H-M "I M A 2"
_symmetry_group_IT_number 46
_symmetry_cell_setting 'orthorhombic'
loop_
_space_group_symop_operation_xyz
x,y,z
-x,-y,z
1/2-x,y,z
1/2+x,-y,z
1/2+x,1/2+y,1/2+z
1/2-x,1/2-y,1/2+z
-x,1/2+y,1/2+z
x,1/2-y,1/2+z
loop_
_atom_site_type_symbol
_atom_site_label
_atom_site_fract_x
_atom_site_fract_y
_atom_site_fract_z
Si Si1 0.069620 0.437452 0.984740
Si Si2 0.419678 0.441234 0.581131
Si Si3 0.428380 0.268511 0.607689
Si Si4 0.926380 0.642814 0.185689
Si Si5 0.080550 0.354237 0.790866
Si Si6 0.926702 0.350043 0.427323
O O1 0.250000 0.441410 0.971577
O O2 0.014061 0.389057 0.895722
O O3 0.000000 0.500000 0.966653
O O4 0.037386 0.411813 0.108391
O O5 0.500000 0.500000 0.608955
O O6 0.250000 0.450860 0.543772
O O7 0.414812 0.401098 0.690996
O O8 0.510753 0.406981 0.487415
O O9 0.250000 0.279999 0.601079
O O10 0.450840 0.200965 0.614583
O O11 0.483019 0.298993 0.724643
O O12 0.504155 0.298212 0.500931
O O13 0.750000 0.640883 0.213002
O O14 0.017452 0.648678 0.299792
O O15 0.250000 0.338172 0.825261
O O16 0.750000 0.347709 0.433761
#
# Coordination Sequence:
#
# PCOD9378950 Si02
#       6
#     8   8   8   8   8   8
#     4  10  21  37  57  85 117 154 195 237 287 350
#     4  10  19  34  57  84 114 149 193 240 291 345
#     4   9  19  37  63  88 112 145 192 250 300 351
#     4  10  22  38  61  85 112 153 200 245 291 349
#     4   8  16  32  56  86 115 142 183 237 291 346
#     4  11  23  38  56  82 119 153 189 237 292 357
#
# _framework density 19.333542000000001
#
# number of rings (size 3 to 8) (size 9 to 14) (size 15 to 20)
#    0.000    2.333    0.000    3.500    2.333    2.000 
#    0.000    5.000    0.000    0.000    0.000    0.000 
#    0.000    0.000    0.000    0.000    0.000    0.000 
#
# Total GULP energy -133887.939772 kJ/mol
# GULP energy per Si atom -5578.664157 kJ/mol
# Density = 1.928954 g / cm^3
# Si number density = 19.333542 Si / 1000 Ang^3
#
#
#
# Elastic Constant Matrix: (Units=GPa)
#
#
# Indices 1 2 3 4 5 6 
#
# 1 46.4115 13.7698 27.7356 0.0000 0.0000 -0.0001
# 2 13.7698 51.3234 7.5769 0.0000 0.0000 -0.0001
# 3 27.7356 7.5769 78.7711 0.0003 -0.0002 -0.0003
# 4 0.0000 0.0000 0.0003 14.8112 -0.0001 -0.0003
# 5 0.0000 0.0000 -0.0002 -0.0001 11.9447 0.0001
# 6 -0.0001 -0.0001 -0.0003 -0.0003 0.0001 6.4729
#
#
#
# Elastic Compliance Matrix: (Units=1/GPa)
#
#
# Indices 1 2 3 4 5 6 
#
# 1 0.029232 -0.006414 -0.009676 0.000000 0.000000 0.000000
# 2 -0.006414 0.021172 0.000222 0.000000 0.000000 0.000000
# 3 -0.009676 0.000222 0.016080 0.000000 0.000000 0.000000
# 4 0.000000 0.000000 0.000000 0.067517 0.000001 0.000003
# 5 0.000000 0.000000 0.000000 0.000001 0.083719 -0.000002
# 6 0.000000 0.000000 0.000000 0.000003 -0.000002 0.154490
#
#
# Mechanical properties :
#
#
# Convention : Reuss Voigt Hill
#
# Bulk Modulus (GPa) = 28.77808 30.51897 29.64853
# Shear Modulus (GPa) = 12.03287 15.14066 13.58677
#
# Velocity S-wave (km/s) = 2.49747 2.80148 2.65383
# Velocity P-wave (km/s) = 4.82015 5.12681 4.97584
#
# Compressibility (1/GPa) = 0.03474867
#
# Stress axis : x y z
#
# Youngs Moduli (GPa) = 34.20951 47.23114 62.18718
#
# Poissons Ratio (x) = 0.30295 0.60170
# Poissons Ratio (y) = 0.21943 -0.01380
# Poissons Ratio (z) = 0.33100 -0.01048
#
# Static dielectric constant tensor:
#      x y z
#    x 1.660820 0.000000 0.000000 
#    y 0.000000 1.671930 0.000000 
#    z 0.000000 0.000000 1.686360 
# 
# From -- ./inp_files/9289.got.cif
#   From: 2010.05.17/outbox.cif.g08.bks.cpg/sg46_5_cif.got.tgz:9289.got - 2010.06.03 19:58:25.
