data_PCOD9378735
_publ_section_title
;
Structure prediction by ZEFSAII (Michael W. Deem and Ramdas Pophale) SiO2 
 PCOD9378735
Probable space group: I M A 2
;
_chemical_formula_sum "Si O2"
_cell_formula_units_Z 60
_cell_length_a 14.928272
_cell_length_b 10.080409
_cell_length_c 20.937598
_cell_angle_alpha 90.000000
_cell_angle_beta 90.000000
_cell_angle_gamma 90.000000
_cell_volume 3150.754390
_symmetry_space_group_name_H-M "I M A 2"
_symmetry_group_IT_number 46
_symmetry_cell_setting 'orthorhombic'
loop_
_space_group_symop_operation_xyz
x,y,z
-x,-y,z
1/2-x,y,z
1/2+x,-y,z
1/2+x,1/2+y,1/2+z
1/2-x,1/2-y,1/2+z
-x,1/2+y,1/2+z
x,1/2-y,1/2+z
loop_
_atom_site_type_symbol
_atom_site_label
_atom_site_fract_x
_atom_site_fract_y
_atom_site_fract_z
Si Si1 0.967593 0.822661 0.463300
Si Si2 0.854554 0.182655 0.773044
Si Si3 0.515510 0.650347 0.817701
Si Si4 0.150053 0.712483 0.494139
Si Si5 0.646658 0.879566 0.792508
Si Si6 0.851465 0.185529 0.630148
Si Si7 0.500000 0.500000 0.073501
Si Si8 0.850802 0.581934 0.445086
O O1 0.948240 0.865718 0.390734
O O2 0.074286 0.808777 0.468816
O O3 0.942362 0.912123 0.523427
O O4 0.923297 0.680319 0.473074
O O5 0.750000 0.186951 0.794326
O O6 0.922755 0.265454 0.816419
O O7 0.861174 0.240468 0.701386
O O8 0.879435 0.025896 0.766826
O O9 0.500000 0.500000 0.793116
O O10 0.583851 0.751370 0.781477
O O11 0.250000 0.756417 0.476939
O O12 0.144040 0.712170 0.571205
O O13 0.134923 0.568260 0.465315
O O14 0.750000 0.853670 0.773807
O O15 0.643774 0.904491 0.868805
O O16 0.750000 0.126624 0.627879
O O17 0.931058 0.083848 0.615243
O O18 0.750000 0.620763 0.464469
#
# Coordination Sequence:
#
# PCOD9378735 Si02
#       8
#     8   8   8   8   8   8   4   8
#     4  10  19  33  49  77 110 140 174 219 270 340
#     4  10  21  38  59  80 106 148 199 239 279 337
#     4  11  22  35  54  83 118 148 182 231 297 343
#     4   9  17  31  51  75 103 135 175 222 271 321
#     4   9  19  35  56  82 111 145 190 236 277 334
#     4   9  20  36  55  78 105 141 186 232 271 324
#     4  10  20  34  54  76 108 142 180 220 274 326
#     4   9  17  30  51  78 106 137 173 219 274 325
#
# _framework density 19.043059
#
# number of rings (size 3 to 8) (size 9 to 14) (size 15 to 20)
#    0.000    2.400    0.667    1.600    1.867    4.800 
#    0.000    2.667    0.000    0.000    0.000    0.000 
#    0.000    0.000    0.000    0.000    0.000    0.000 
#
# Total GULP energy -167069.140515 kJ/mol
# GULP energy per Si atom -5568.971350 kJ/mol
# Density = 1.899972 g / cm^3
# Si number density = 19.043059 Si / 1000 Ang^3
#
#
#
# Elastic Constant Matrix: (Units=GPa)
#
#
# Indices 1 2 3 4 5 6 
#
# 1 55.1615 36.1430 -3.0040 0.0000 0.0000 0.0000
# 2 36.1430 69.6775 -3.5869 0.0000 0.0000 0.0000
# 3 -3.0040 -3.5869 32.9360 0.0000 0.0000 0.0000
# 4 0.0000 0.0000 0.0000 14.2310 0.0000 0.0000
# 5 0.0000 0.0000 0.0000 0.0000 18.7886 0.0000
# 6 0.0000 0.0000 0.0000 0.0000 0.0000 13.5120
#
#
#
# Elastic Compliance Matrix: (Units=1/GPa)
#
#
# Indices 1 2 3 4 5 6 
#
# 1 0.027493 -0.014212 0.000960 0.000000 0.000000 0.000000
# 2 -0.014212 0.021779 0.001076 0.000000 0.000000 0.000000
# 3 0.000960 0.001076 0.030567 0.000000 0.000000 0.000000
# 4 0.000000 0.000000 0.000000 0.070269 0.000000 0.000000
# 5 0.000000 0.000000 0.000000 0.000000 0.053224 0.000000
# 6 0.000000 0.000000 0.000000 0.000000 0.000000 0.074008
#
#
# Mechanical properties :
#
#
# Convention : Reuss Voigt Hill
#
# Bulk Modulus (GPa) = 18.02255 24.09770 21.06012
# Shear Modulus (GPa) = 15.61589 17.85451 16.73520
#
# Velocity S-wave (km/s) = 2.86672 3.06533 2.96769
# Velocity P-wave (km/s) = 4.52130 5.02096 4.77767
#
# Compressibility (1/GPa) = 0.05548605
#
# Stress axis : x y z
#
# Youngs Moduli (GPa) = 36.37346 45.91578 32.71549
#
# Poissons Ratio (x) = 0.65253 -0.03140
# Poissons Ratio (y) = 0.51692 -0.03519
# Poissons Ratio (z) = -0.03491 -0.04939
#
# Static dielectric constant tensor:
#      x y z
#    x 1.693310 0.000000 0.000000 
#    y 0.000000 1.691800 0.000000 
#    z 0.000000 0.000000 1.675080 
# 
# From -- ./inp_files/22101.got.cif
#   From: 2010.05.17/outbox.cif.g08.bks.cpg/sg46_12_cif.got.tgz:22101.got - 2010.06.03 19:58:25.
