data_PCOD9378994
_publ_section_title
;
Structure prediction by ZEFSAII (Michael W. Deem and Ramdas Pophale) SiO2 
 PCOD9378994
Probable space group: I M A 2
;
_chemical_formula_sum "Si O2"
_cell_formula_units_Z 48
_cell_length_a 16.752590
_cell_length_b 9.294445
_cell_length_c 16.671772
_cell_angle_alpha 90.000000
_cell_angle_beta 90.000000
_cell_angle_gamma 90.000000
_cell_volume 2595.895371
_symmetry_space_group_name_H-M "I M A 2"
_symmetry_group_IT_number 46
_symmetry_cell_setting 'orthorhombic'
loop_
_space_group_symop_operation_xyz
x,y,z
-x,-y,z
1/2-x,y,z
1/2+x,-y,z
1/2+x,1/2+y,1/2+z
1/2-x,1/2-y,1/2+z
-x,1/2+y,1/2+z
x,1/2-y,1/2+z
loop_
_atom_site_type_symbol
_atom_site_label
_atom_site_fract_x
_atom_site_fract_y
_atom_site_fract_z
Si Si1 0.653895 0.418740 0.319210
Si Si2 0.409989 0.441015 0.480234
Si Si3 0.339888 0.809121 0.069790
Si Si4 0.845572 0.626880 0.995433
Si Si5 0.408796 0.955669 0.645839
Si Si6 0.841897 0.359473 0.899492
O O1 0.750000 0.414160 0.317936
O O2 0.626927 0.514429 0.394460
O O3 0.621558 0.477152 0.235769
O O4 0.623348 0.254683 0.336549
O O5 0.500000 0.500000 0.481032
O O6 0.365339 0.529498 0.550389
O O7 0.395948 0.272525 0.492180
O O8 0.250000 0.801280 0.101893
O O9 0.396247 0.712224 0.124204
O O10 0.340682 0.731645 0.982524
O O11 0.750000 0.653739 0.985750
O O12 0.859182 0.546112 0.080067
O O13 0.874316 0.514240 0.926440
O O14 0.500000 0.000000 0.637719
O O15 0.750000 0.385781 0.875786
#
# Coordination Sequence:
#
# PCOD9378994 Si02
#       6
#     8   8   8   8   8   8
#     4  10  19  35  55  76 105 147 188 226 276 341
#     4  11  21  34  54  82 113 143 181 235 286 328
#     4   9  17  33  53  73  99 142 187 220 266 338
#     4  10  19  35  57  82 109 144 187 231 274 330
#     4  11  21  34  54  82 113 144 184 237 282 320
#     4   7  14  29  52  75  96 128 179 223 256 311
#
# _framework density 18.490728000000001
#
# number of rings (size 3 to 8) (size 9 to 14) (size 15 to 20)
#    0.000    2.333    0.000    6.500    0.000    0.000 
#    0.000    1.667    0.000    4.000    0.000    0.000 
#    0.000    0.000    0.000    0.000    0.000    0.000 
#
# Total GULP energy -133742.834788 kJ/mol
# GULP energy per Si atom -5572.618116 kJ/mol
# Density = 1.844864 g / cm^3
# Si number density = 18.490728 Si / 1000 Ang^3
#
#
#
# Elastic Constant Matrix: (Units=GPa)
#
#
# Indices 1 2 3 4 5 6 
#
# 1 56.3536 2.8950 4.3023 0.0000 0.0000 0.0000
# 2 2.8950 114.5792 13.5742 0.0000 0.0000 0.0000
# 3 4.3023 13.5742 59.1350 0.0000 0.0000 0.0000
# 4 0.0000 0.0000 0.0000 14.7320 0.0000 0.0000
# 5 0.0000 0.0000 0.0000 0.0000 6.8547 0.0000
# 6 0.0000 0.0000 0.0000 0.0000 0.0000 16.0527
#
#
#
# Elastic Compliance Matrix: (Units=1/GPa)
#
#
# Indices 1 2 3 4 5 6 
#
# 1 0.017855 -0.000306 -0.001229 0.000000 0.000000 0.000000
# 2 -0.000306 0.008977 -0.002038 0.000000 0.000000 0.000000
# 3 -0.001229 -0.002038 0.017468 0.000000 0.000000 0.000000
# 4 0.000000 0.000000 0.000000 0.067880 0.000000 0.000000
# 5 0.000000 0.000000 0.000000 0.000000 0.145885 0.000000
# 6 0.000000 0.000000 0.000000 0.000000 0.000000 0.062295
#
#
# Mechanical properties :
#
#
# Convention : Reuss Voigt Hill
#
# Bulk Modulus (GPa) = 26.91525 30.17897 28.54711
# Shear Modulus (GPa) = 14.71070 21.48097 18.09583
#
# Velocity S-wave (km/s) = 2.82365 3.41209 3.13172
# Velocity P-wave (km/s) = 5.02179 5.64621 5.34313
#
# Compressibility (1/GPa) = 0.03715366
#
# Stress axis : x y z
#
# Youngs Moduli (GPa) = 56.00795 111.39834 57.24837
#
# Poissons Ratio (x) = 0.03404 0.07035
# Poissons Ratio (y) = 0.01711 0.11669
# Poissons Ratio (z) = 0.06883 0.22707
#
# Static dielectric constant tensor:
#      x y z
#    x 1.678860 0.000000 0.000000 
#    y 0.000000 1.664130 0.000000 
#    z 0.000000 0.000000 1.630360 
# 
# From -- ./inp_files/16501.got.cif
#   From: 2010.05.17/outbox.cif.g08.bks.cpg/sg46_9_cif.got.tgz:16501.got - 2010.06.03 19:58:25.
