data_PCOD9378809
_publ_section_title
;
Structure prediction by ZEFSAII (Michael W. Deem and Ramdas Pophale) SiO2 
 PCOD9378809
Probable space group: I M A 2
;
_chemical_formula_sum "Si O2"
_cell_formula_units_Z 64
_cell_length_a 8.729610
_cell_length_b 20.085525
_cell_length_c 21.046119
_cell_angle_alpha 90.000000
_cell_angle_beta 90.000000
_cell_angle_gamma 90.000000
_cell_volume 3690.201248
_symmetry_space_group_name_H-M "I M A 2"
_symmetry_group_IT_number 46
_symmetry_cell_setting 'orthorhombic'
loop_
_space_group_symop_operation_xyz
x,y,z
-x,-y,z
1/2-x,y,z
1/2+x,-y,z
1/2+x,1/2+y,1/2+z
1/2-x,1/2-y,1/2+z
-x,1/2+y,1/2+z
x,1/2-y,1/2+z
loop_
_atom_site_type_symbol
_atom_site_label
_atom_site_fract_x
_atom_site_fract_y
_atom_site_fract_z
Si Si1 0.433474 0.212452 0.719230
Si Si2 0.934069 0.570286 0.272892
Si Si3 0.066607 0.794579 0.586243
Si Si4 0.567173 0.570327 0.036986
Si Si5 0.065557 0.793427 0.964931
Si Si6 0.566895 0.929485 0.921573
Si Si7 0.433814 0.569646 0.894768
Si Si8 0.065797 0.710919 0.838550
O O1 0.250000 0.213251 0.713090
O O2 0.482473 0.136480 0.735934
O O3 0.511401 0.232986 0.653562
O O4 0.484367 0.258332 0.777691
O O5 0.750000 0.566713 0.270673
O O6 0.980003 0.578450 0.347138
O O7 0.000000 0.500000 0.249712
O O8 0.250000 0.801365 0.584540
O O9 0.019750 0.747524 0.527449
O O10 0.991157 0.866721 0.576159
O O11 0.500000 0.500000 0.060367
O O12 0.750000 0.567373 0.036642
O O13 0.504857 0.579159 0.964962
O O14 0.250000 0.798564 0.965130
O O15 0.021622 0.752207 0.901748
O O16 0.994979 0.866420 0.959604
O O17 0.750000 0.931213 0.923778
O O18 0.500000 0.000000 0.943576
O O19 0.500000 0.500000 0.869812
O O20 0.250000 0.565439 0.901640
O O21 0.470351 0.633803 0.852414
O O22 0.250000 0.716781 0.831158
#
# Coordination Sequence:
#
# PCOD9378809 Si02
#       8
#     8   8   8   8   8   8   8   8
#     4  11  23  38  54  81 114 146 189 232 277 330
#     4   9  19  33  50  75 108 143 180 220 261 317
#     4  11  23  40  57  79 112 151 190 230 280 335
#     4  11  21  34  54  80 112 150 190 230 276 329
#     4  10  20  36  58  82 110 144 186 231 277 327
#     4  10  19  33  54  83 113 143 180 225 277 326
#     4  10  19  34  55  84 115 145 184 229 281 334
#     4  10  20  36  58  82 110 146 186 229 281 333
#
# _framework density 17.343228
#
# number of rings (size 3 to 8) (size 9 to 14) (size 15 to 20)
#    0.000    1.750    2.500    3.375    0.000    4.000 
#    0.000    1.250    0.000    0.750    0.000    3.500 
#    0.000    0.000    0.000    0.000    0.000    0.000 
#
# Total GULP energy -178729.676392 kJ/mol
# GULP energy per Si atom -5585.302387 kJ/mol
# Density = 1.730375 g / cm^3
# Si number density = 17.343228 Si / 1000 Ang^3
#
#
#
# Elastic Constant Matrix: (Units=GPa)
#
#
# Indices 1 2 3 4 5 6 
#
# 1 57.2733 41.6473 36.6781 0.0000 0.0000 0.0000
# 2 41.6473 121.6444 55.9944 0.0000 0.0000 0.0000
# 3 36.6781 55.9944 98.9412 0.0000 0.0000 0.0000
# 4 0.0000 0.0000 0.0000 20.5265 0.0000 0.0000
# 5 0.0000 0.0000 0.0000 0.0000 21.8366 0.0000
# 6 0.0000 0.0000 0.0000 0.0000 0.0000 32.5383
#
#
#
# Elastic Compliance Matrix: (Units=1/GPa)
#
#
# Indices 1 2 3 4 5 6 
#
# 1 0.025756 -0.005981 -0.006163 0.000000 0.000000 0.000000
# 2 -0.005981 0.012506 -0.004860 0.000000 0.000000 0.000000
# 3 -0.006163 -0.004860 0.015142 0.000000 0.000000 0.000000
# 4 0.000000 0.000000 0.000000 0.048718 0.000000 0.000000
# 5 0.000000 0.000000 0.000000 0.000000 0.045795 0.000000
# 6 0.000000 0.000000 0.000000 0.000000 0.000000 0.030733
#
#
# Mechanical properties :
#
#
# Convention : Reuss Voigt Hill
#
# Bulk Modulus (GPa) = 51.55860 60.72205 56.14033
# Shear Modulus (GPa) = 22.81819 24.54955 23.68387
#
# Velocity S-wave (km/s) = 3.63117 3.76641 3.69941
# Velocity P-wave (km/s) = 6.88284 7.34864 7.11955
#
# Compressibility (1/GPa) = 0.01939541
#
# Stress axis : x y z
#
# Youngs Moduli (GPa) = 38.82541 79.96389 66.04067
#
# Poissons Ratio (x) = 0.47828 0.40701
# Poissons Ratio (y) = 0.23222 0.32096
# Poissons Ratio (z) = 0.23928 0.38863
#
# Static dielectric constant tensor:
#      x y z
#    x 1.579530 0.000000 0.000000 
#    y 0.000000 1.584840 0.000000 
#    z 0.000000 0.000000 1.581670 
# 
# From -- ./inp_files/18572.got.cif
#   From: 2010.05.17/outbox.cif.g08.bks.cpg/sg46_10_cif.got.tgz:18572.got - 2010.06.03 19:58:25.
