data_PCOD9378766
_publ_section_title
;
Structure prediction by ZEFSAII (Michael W. Deem and Ramdas Pophale) SiO2 
 PCOD9378766
Probable space group: I M A 2
;
_chemical_formula_sum "Si O2"
_cell_formula_units_Z 64
_cell_length_a 8.427180
_cell_length_b 30.888272
_cell_length_c 15.086079
_cell_angle_alpha 90.000000
_cell_angle_beta 90.000000
_cell_angle_gamma 90.000000
_cell_volume 3926.921873
_symmetry_space_group_name_H-M "I M A 2"
_symmetry_group_IT_number 46
_symmetry_cell_setting 'orthorhombic'
loop_
_space_group_symop_operation_xyz
x,y,z
-x,-y,z
1/2-x,y,z
1/2+x,-y,z
1/2+x,1/2+y,1/2+z
1/2-x,1/2-y,1/2+z
-x,1/2+y,1/2+z
x,1/2-y,1/2+z
loop_
_atom_site_type_symbol
_atom_site_label
_atom_site_fract_x
_atom_site_fract_y
_atom_site_fract_z
Si Si1 0.063450 0.278094 0.070340
Si Si2 0.934563 0.365137 0.385469
Si Si3 0.941199 0.452129 0.467834
Si Si4 0.932773 0.674617 0.558741
Si Si5 0.940301 0.788888 0.767566
Si Si6 0.056842 0.202990 0.376256
Si Si7 0.060714 0.451865 0.668229
Si Si8 0.561448 0.134474 0.239117
O O1 0.250000 0.290508 0.072667
O O2 0.056886 0.226277 0.061092
O O3 0.995123 0.289330 0.166941
O O4 0.998411 0.296399 0.977906
O O5 0.750000 0.366223 0.361320
O O6 0.992066 0.414389 0.400220
O O7 0.956777 0.344094 0.482464
O O8 0.021593 0.333098 0.318419
O O9 0.750000 0.451820 0.473061
O O10 0.000000 0.500000 0.443662
O O11 0.006013 0.442530 0.566782
O O12 0.750000 0.662749 0.538290
O O13 0.980189 0.656634 0.653893
O O14 0.750000 0.784019 0.762190
O O15 0.995711 0.746795 0.823878
O O16 0.250000 0.203710 0.376858
O O17 0.998415 0.161202 0.323430
O O18 0.250000 0.450563 0.671007
O O19 0.000000 0.500000 0.688992
O O20 0.989368 0.415493 0.732217
O O21 0.750000 0.137997 0.231674
#
# Coordination Sequence:
#
# PCOD9378766 Si02
#       8
#     8   8   8   8   8   8   8   8
#     4   9  18  33  51  73  99 131 177 223 251 294
#     4  11  22  33  47  74 107 136 170 212 258 306
#     4  10  20  33  49  72 103 134 168 211 255 306
#     4  11  19  32  52  72  98 138 178 213 252 298
#     4  10  19  33  53  74  99 136 179 213 252 307
#     4  10  19  34  53  73  99 135 178 216 253 301
#     4  11  21  34  53  75 102 136 170 208 254 306
#     4  12  23  34  48  75 107 138 174 213 256 309
#
# _framework density 16.297753
#
# number of rings (size 3 to 8) (size 9 to 14) (size 15 to 20)
#    0.000    1.500    3.750    4.125    0.000    2.000 
#    0.000    0.625    0.000    0.000    0.000    0.875 
#    0.000    2.000    0.000    0.000    0.000    0.000 
#
# Total GULP energy -178568.983614 kJ/mol
# GULP energy per Si atom -5580.280738 kJ/mol
# Density = 1.626066 g / cm^3
# Si number density = 16.297753 Si / 1000 Ang^3
#
#
#
# Elastic Constant Matrix: (Units=GPa)
#
#
# Indices 1 2 3 4 5 6 
#
# 1 22.3886 10.0285 -6.4905 0.0001 0.0000 0.0000
# 2 10.0285 90.9848 46.8790 0.0001 0.0000 0.0000
# 3 -6.4905 46.8790 87.2052 0.0004 0.0001 0.0000
# 4 0.0001 0.0001 0.0004 21.8169 0.0000 0.0000
# 5 0.0000 0.0000 0.0001 0.0000 15.5359 0.0000
# 6 0.0000 0.0000 0.0000 0.0000 0.0000 21.6564
#
#
#
# Elastic Compliance Matrix: (Units=1/GPa)
#
#
# Indices 1 2 3 4 5 6 
#
# 1 0.052280 -0.010743 0.009666 0.000000 0.000000 0.000000
# 2 -0.010743 0.017409 -0.010158 0.000000 0.000000 0.000000
# 3 0.009666 -0.010158 0.017647 0.000000 0.000000 0.000000
# 4 0.000000 0.000000 0.000000 0.045836 0.000000 0.000000
# 5 0.000000 0.000000 0.000000 0.000000 0.064367 0.000000
# 6 0.000000 0.000000 0.000000 0.000000 0.000000 0.046176
#
#
# Mechanical properties :
#
#
# Convention : Reuss Voigt Hill
#
# Bulk Modulus (GPa) = 15.41628 33.49028 24.45328
# Shear Modulus (GPa) = 17.37281 21.81261 19.59271
#
# Velocity S-wave (km/s) = 3.26845 3.66236 3.47100
# Velocity P-wave (km/s) = 4.87067 6.20302 5.57677
#
# Compressibility (1/GPa) = 0.06486649
#
# Stress axis : x y z
#
# Youngs Moduli (GPa) = 19.12785 57.44240 56.66596
#
# Poissons Ratio (x) = 0.61709 -0.54774
# Poissons Ratio (y) = 0.20549 0.57561
# Poissons Ratio (z) = -0.18489 0.58350
#
# Static dielectric constant tensor:
#      x y z
#    x 1.554160 0.000000 0.000000 
#    y 0.000000 1.554180 0.000000 
#    z 0.000000 0.000000 1.544180 
# 
# From -- ./inp_files/14720.got.cif
#   From: 2010.05.17/outbox.cif.g08.bks.cpg/sg46_8_cif.got.tgz:14720.got - 2010.06.03 19:58:25.
