data_PCOD9378346
_publ_section_title
;
Structure prediction by ZEFSAII (Michael W. Deem and Ramdas Pophale) SiO2 
 PCOD9378346
Probable space group: I M A 2
;
_chemical_formula_sum "Si O2"
_cell_formula_units_Z 64
_cell_length_a 15.851284
_cell_length_b 11.656932
_cell_length_c 16.862250
_cell_angle_alpha 90.000000
_cell_angle_beta 90.000000
_cell_angle_gamma 90.000000
_cell_volume 3115.761696
_symmetry_space_group_name_H-M "I M A 2"
_symmetry_group_IT_number 46
_symmetry_cell_setting 'orthorhombic'
loop_
_space_group_symop_operation_xyz
x,y,z
-x,-y,z
1/2-x,y,z
1/2+x,-y,z
1/2+x,1/2+y,1/2+z
1/2-x,1/2-y,1/2+z
-x,1/2+y,1/2+z
x,1/2-y,1/2+z
loop_
_atom_site_type_symbol
_atom_site_label
_atom_site_fract_x
_atom_site_fract_y
_atom_site_fract_z
Si Si1 0.875654 0.171759 0.568420
Si Si2 0.647090 0.925571 0.123024
Si Si3 0.651181 0.531686 0.953037
Si Si4 0.853164 0.052758 0.285223
Si Si5 0.344368 0.994613 0.708218
Si Si6 0.426567 0.174908 0.597374
Si Si7 0.654919 0.401215 0.497761
Si Si8 0.146646 0.808974 0.832681
O O1 0.837095 0.099349 0.638994
O O2 0.840230 0.297957 0.560354
O O3 0.974231 0.181065 0.585621
O O4 0.858292 0.095698 0.490379
O O5 0.750000 0.925234 0.122225
O O6 0.613616 0.797237 0.116167
O O7 0.620816 0.992705 0.203163
O O8 0.615807 0.993834 0.045031
O O9 0.750000 0.560862 0.951591
O O10 0.619877 0.520999 0.862723
O O11 0.608223 0.616517 0.016159
O O12 0.750000 0.054082 0.286211
O O13 0.881071 0.185400 0.298368
O O14 0.250000 0.040378 0.725449
O O15 0.377208 0.919332 0.780575
O O16 0.402351 0.091682 0.670306
O O17 0.750000 0.436439 0.474491
O O18 0.615704 0.341566 0.420701
O O19 0.250000 0.802877 0.833142
#
# Coordination Sequence:
#
# PCOD9378346 Si02
#       8
#     8   8   8   8   8   8   8   8
#     4  11  20  34  59  82 113 146 186 235 284 331
#     4  10  21  38  58  82 114 152 190 230 279 339
#     4  10  18  34  61  86 109 144 193 243 282 327
#     4   9  17  32  58  88 112 136 185 249 291 326
#     4  10  19  34  59  84 108 144 190 237 279 324
#     4  11  23  37  53  79 123 157 190 215 274 356
#     4  10  19  35  61  85 109 140 185 243 291 330
#     4   9  17  32  57  91 112 129 182 250 295 325
#
# _framework density 20.540724000000001
#
# number of rings (size 3 to 8) (size 9 to 14) (size 15 to 20)
#    0.000    2.000    1.250    5.250    0.000    2.500 
#    2.250    1.250    5.500    0.000    0.000    0.000 
#    0.000    0.000    0.000    0.000    0.000    0.000 
#
# Total GULP energy -178528.768814 kJ/mol
# GULP energy per Si atom -5579.024025 kJ/mol
# Density = 2.049397 g / cm^3
# Si number density = 20.540724 Si / 1000 Ang^3
#
#
#
# Elastic Constant Matrix: (Units=GPa)
#
#
# Indices 1 2 3 4 5 6 
#
# 1 61.3869 16.3842 16.2949 0.0000 0.0000 0.0000
# 2 16.3842 126.6712 57.3425 0.0000 0.0000 0.0000
# 3 16.2949 57.3425 85.4760 0.0000 0.0000 0.0000
# 4 0.0000 0.0000 0.0000 25.3729 0.0000 0.0000
# 5 0.0000 0.0000 0.0000 0.0000 2.1133 0.0000
# 6 0.0000 0.0000 0.0000 0.0000 0.0000 -36.8383
#
#
#
# Elastic Compliance Matrix: (Units=1/GPa)
#
#
# Indices 1 2 3 4 5 6 
#
# 1 0.017258 -0.001067 -0.002574 0.000000 0.000000 0.000000
# 2 -0.001067 0.011404 -0.007447 0.000000 0.000000 0.000000
# 3 -0.002574 -0.007447 0.017186 0.000000 0.000000 0.000000
# 4 0.000000 0.000000 0.000000 0.039412 0.000000 0.000000
# 5 0.000000 0.000000 0.000000 0.000000 0.473194 0.000000
# 6 0.000000 0.000000 0.000000 0.000000 0.000000 -0.027146
#
#
# Mechanical properties :
#
#
# Convention : Reuss Voigt Hill
#
# Bulk Modulus (GPa) = 42.24498 50.39747 46.32123
# Shear Modulus (GPa) = 8.90670 10.36375 9.63522
#
# Velocity S-wave (km/s) = 2.08459 2.24865 2.16817
# Velocity P-wave (km/s) = 5.13859 5.59737 5.37288
#
# Compressibility (1/GPa) = 0.02367145
#
# Stress axis : x y z
#
# Youngs Moduli (GPa) = 57.94345 87.69224 58.18785
#
# Poissons Ratio (x) = 0.09356 0.14979
# Poissons Ratio (y) = 0.06182 0.43331
# Poissons Ratio (z) = 0.14917 0.65303
#
# Static dielectric constant tensor:
#      x y z
#    x 1.727030 0.000000 0.000000 
#    y 0.000000 1.705770 0.000000 
#    z 0.000000 0.000000 1.815150 
# 
# From -- ./inp_files/19674.got.cif
#   From: 2010.05.17/outbox.cif.g08.bks.cpg/sg46_10_cif.got.tgz:19674.got - 2010.06.03 19:58:25.
