data_PCOD9378480
_publ_section_title
;
Structure prediction by ZEFSAII (Michael W. Deem and Ramdas Pophale) SiO2 
 PCOD9378480
Probable space group: I M A 2
;
_chemical_formula_sum "Si O2"
_cell_formula_units_Z 40
_cell_length_a 25.077015
_cell_length_b 16.225150
_cell_length_c 5.242600
_cell_angle_alpha 90.000000
_cell_angle_beta 90.000000
_cell_angle_gamma 90.000000
_cell_volume 2133.100332
_symmetry_space_group_name_H-M "I M A 2"
_symmetry_group_IT_number 46
_symmetry_cell_setting 'orthorhombic'
loop_
_space_group_symop_operation_xyz
x,y,z
-x,-y,z
1/2-x,y,z
1/2+x,-y,z
1/2+x,1/2+y,1/2+z
1/2-x,1/2-y,1/2+z
-x,1/2+y,1/2+z
x,1/2-y,1/2+z
loop_
_atom_site_type_symbol
_atom_site_label
_atom_site_fract_x
_atom_site_fract_y
_atom_site_fract_z
Si Si1 0.923371 0.216249 0.899170
Si Si2 0.188564 0.193520 0.298096
Si Si3 0.062066 0.526837 0.254120
Si Si4 0.905282 0.935900 0.242966
Si Si5 0.043721 0.220037 0.051460
O O1 0.897679 0.272146 0.678305
O O2 0.929800 0.124149 0.793664
O O3 0.983750 0.243794 0.976034
O O4 0.250000 0.164202 0.301004
O O5 0.181278 0.251484 0.544442
O O6 0.146985 0.118663 0.293160
O O7 0.096033 0.485327 0.479807
O O8 0.000000 0.500000 0.286073
O O9 0.080073 0.493481 0.979349
O O10 0.951362 0.867615 0.188003
O O11 0.068487 0.280169 0.266514
#
# Coordination Sequence:
#
# PCOD9378480 Si02
#       5
#     8   8   8   8   8
#     4  10  21  36  50  67  99 146 184 215 266 325
#     4  10  21  39  60  85 118 154 194 239 286 338
#     4  12  24  36  51  79 113 145 186 241 281 326
#     4  12  22  34  54  78 111 146 189 232 282 331
#     4  10  19  30  47  70  99 138 183 217 252 316
#
# _framework density 18.752049
#
# number of rings (size 3 to 8) (size 9 to 14) (size 15 to 20)
#    0.000    1.200    2.000    5.400    5.600    0.000 
#    0.000    0.000    0.000    0.000    0.000    0.000 
#    0.000   16.000    0.000    0.000    0.000    0.000 
#
# Total GULP energy -111561.134775 kJ/mol
# GULP energy per Si atom -5578.056739 kJ/mol
# Density = 1.870937 g / cm^3
# Si number density = 18.752049 Si / 1000 Ang^3
#
#
#
# Elastic Constant Matrix: (Units=GPa)
#
#
# Indices 1 2 3 4 5 6 
#
# 1 45.6813 2.9708 11.8414 0.0000 0.0000 0.0000
# 2 2.9708 88.8590 47.0012 0.0000 0.0000 0.0000
# 3 11.8414 47.0012 183.8534 0.0000 0.0000 0.0000
# 4 0.0000 0.0000 0.0000 42.7257 0.0000 0.0000
# 5 0.0000 0.0000 0.0000 0.0000 19.4527 0.0000
# 6 0.0000 0.0000 0.0000 0.0000 0.0000 17.4011
#
#
#
# Elastic Compliance Matrix: (Units=1/GPa)
#
#
# Indices 1 2 3 4 5 6 
#
# 1 0.022263 0.000016 -0.001438 0.000000 0.000000 0.000000
# 2 0.000016 0.013013 -0.003328 0.000000 0.000000 0.000000
# 3 -0.001438 -0.003328 0.006382 0.000000 0.000000 0.000000
# 4 0.000000 0.000000 0.000000 0.023405 0.000000 0.000000
# 5 0.000000 0.000000 0.000000 0.000000 0.051407 0.000000
# 6 0.000000 0.000000 0.000000 0.000000 0.000000 0.057467
#
#
# Mechanical properties :
#
#
# Convention : Reuss Voigt Hill
#
# Bulk Modulus (GPa) = 31.09517 49.11339 40.10428
# Shear Modulus (GPa) = 25.75239 33.02126 29.38682
#
# Velocity S-wave (km/s) = 3.70984 4.20091 3.96299
# Velocity P-wave (km/s) = 5.91345 7.05535 6.50949
#
# Compressibility (1/GPa) = 0.03215933
#
# Stress axis : x y z
#
# Youngs Moduli (GPa) = 44.91858 76.84331 156.67856
#
# Poissons Ratio (x) = -0.00126 0.22531
# Poissons Ratio (y) = -0.00073 0.52141
# Poissons Ratio (z) = 0.06459 0.25573
#
# Static dielectric constant tensor:
#      x y z
#    x 1.678900 0.000000 0.000000 
#    y 0.000000 1.694070 0.000000 
#    z 0.000000 0.000000 1.799040 
# 
# From -- ./inp_files/2298.got.cif
#   From: 2010.05.17/outbox.cif.g08.bks.cpg/sg46_2_cif.got.tgz:2298.got - 2010.06.03 19:58:25.
