data_PCOD9378948
_publ_section_title
;
Structure prediction by ZEFSAII (Michael W. Deem and Ramdas Pophale) SiO2 
 PCOD9378948
Probable space group: I M A 2
;
_chemical_formula_sum "Si O2"
_cell_formula_units_Z 40
_cell_length_a 15.087104
_cell_length_b 9.379233
_cell_length_c 14.341302
_cell_angle_alpha 90.000000
_cell_angle_beta 90.000000
_cell_angle_gamma 90.000000
_cell_volume 2029.372590
_symmetry_space_group_name_H-M "I M A 2"
_symmetry_group_IT_number 46
_symmetry_cell_setting 'orthorhombic'
loop_
_space_group_symop_operation_xyz
x,y,z
-x,-y,z
1/2-x,y,z
1/2+x,-y,z
1/2+x,1/2+y,1/2+z
1/2-x,1/2-y,1/2+z
-x,1/2+y,1/2+z
x,1/2-y,1/2+z
loop_
_atom_site_type_symbol
_atom_site_label
_atom_site_fract_x
_atom_site_fract_y
_atom_site_fract_z
Si Si1 0.145286 0.457135 0.450390
Si Si2 0.078275 0.601465 0.750565
Si Si3 0.478937 0.732286 0.428763
Si Si4 0.155283 0.142557 0.164719
Si Si5 0.008996 0.664996 0.139214
O O1 0.250000 0.452461 0.422012
O O2 0.094926 0.606392 0.431063
O O3 0.144196 0.429449 0.562326
O O4 0.076059 0.338614 0.410659
O O5 0.049383 0.654349 0.851311
O O6 0.154063 0.485676 0.739411
O O7 0.086080 0.744439 0.689774
O O8 0.000000 0.500000 0.708997
O O9 0.483215 0.805752 0.529556
O O10 0.250000 0.216022 0.166220
O O11 0.079615 0.258713 0.176094
O O12 0.000000 0.500000 0.160621
#
# Coordination Sequence:
#
# PCOD9378948 Si02
#       5
#     8   8   8   8   8
#     4   9  18  34  57  83 115 152 191 240 297 355
#     4  10  20  35  57  80 109 153 192 232 287 357
#     4  10  19  34  57  84 113 152 196 242 294 353
#     4   9  18  37  59  81 113 153 193 239 293 356
#     4  10  20  35  56  84 114 148 192 242 294 354
#
# _framework density 19.710526000000002
#
# number of rings (size 3 to 8) (size 9 to 14) (size 15 to 20)
#    0.000    2.400    2.000    0.600    2.800    0.800 
#    0.000    6.000    0.000    7.200    0.000    0.000 
#    0.000    0.000    0.000    0.000    0.000    0.000 
#
# Total GULP energy -111368.875044 kJ/mol
# GULP energy per Si atom -5568.443752 kJ/mol
# Density = 1.966566 g / cm^3
# Si number density = 19.710526 Si / 1000 Ang^3
#
#
#
# Elastic Constant Matrix: (Units=GPa)
#
#
# Indices 1 2 3 4 5 6 
#
# 1 115.5228 35.6136 17.0022 0.0000 0.0000 0.0000
# 2 35.6136 135.2100 39.5222 0.0000 0.0000 0.0000
# 3 17.0022 39.5222 75.6681 0.0000 0.0000 0.0000
# 4 0.0000 0.0000 0.0000 28.7241 0.0000 0.0000
# 5 0.0000 0.0000 0.0000 0.0000 10.1711 0.0000
# 6 0.0000 0.0000 0.0000 0.0000 0.0000 11.0213
#
#
#
# Elastic Compliance Matrix: (Units=1/GPa)
#
#
# Indices 1 2 3 4 5 6 
#
# 1 0.009482 -0.002213 -0.000975 0.000000 0.000000 0.000000
# 2 -0.002213 0.009245 -0.004331 0.000000 0.000000 0.000000
# 3 -0.000975 -0.004331 0.015697 0.000000 0.000000 0.000000
# 4 0.000000 0.000000 0.000000 0.034814 0.000000 0.000000
# 5 0.000000 0.000000 0.000000 0.000000 0.098317 0.000000
# 6 0.000000 0.000000 0.000000 0.000000 0.000000 0.090733
#
#
# Mechanical properties :
#
#
# Convention : Reuss Voigt Hill
#
# Bulk Modulus (GPa) = 51.58402 56.74189 54.16295
# Shear Modulus (GPa) = 17.87067 25.60083 21.73575
#
# Velocity S-wave (km/s) = 3.01434 3.60785 3.32437
# Velocity P-wave (km/s) = 6.19214 6.79747 6.50185
#
# Compressibility (1/GPa) = 0.01938585
#
# Stress axis : x y z
#
# Youngs Moduli (GPa) = 105.46451 108.16921 63.70625
#
# Poissons Ratio (x) = 0.23932 0.06211
# Poissons Ratio (y) = 0.23334 0.27594
# Poissons Ratio (z) = 0.10282 0.46853
#
# Static dielectric constant tensor:
#      x y z
#    x 1.801740 0.000000 0.000000 
#    y 0.000000 1.696970 0.000000 
#    z 0.000000 0.000000 1.709130 
# 
# From -- ./inp_files/15665.got.cif
#   From: 2010.05.17/outbox.cif.g08.bks.cpg/sg46_8_cif.got.tgz:15665.got - 2010.06.03 19:58:25.
