data_PCOD9378195
_publ_section_title
;
Structure prediction by ZEFSAII (Michael W. Deem and Ramdas Pophale) SiO2 
 PCOD9378195
Probable space group: I M A 2
;
_chemical_formula_sum "Si O2"
_cell_formula_units_Z 64
_cell_length_a 8.779914
_cell_length_b 34.382974
_cell_length_c 12.084024
_cell_angle_alpha 90.000000
_cell_angle_beta 90.000000
_cell_angle_gamma 90.000000
_cell_volume 3647.919785
_symmetry_space_group_name_H-M "I M A 2"
_symmetry_group_IT_number 46
_symmetry_cell_setting 'orthorhombic'
loop_
_space_group_symop_operation_xyz
x,y,z
-x,-y,z
1/2-x,y,z
1/2+x,-y,z
1/2+x,1/2+y,1/2+z
1/2-x,1/2-y,1/2+z
-x,1/2+y,1/2+z
x,1/2-y,1/2+z
loop_
_atom_site_type_symbol
_atom_site_label
_atom_site_fract_x
_atom_site_fract_y
_atom_site_fract_z
Si Si1 0.068459 0.457879 0.534550
Si Si2 0.428356 0.685779 0.051767
Si Si3 0.069089 0.458896 0.270921
Si Si4 0.932620 0.376292 0.611874
Si Si5 0.926024 0.118457 0.721059
Si Si6 0.933791 0.181198 0.299680
Si Si7 0.430688 0.329911 0.408150
Si Si8 0.431906 0.237076 0.743267
O O1 0.250000 0.458843 0.549851
O O2 0.037651 0.453671 0.402600
O O3 0.000000 0.500000 0.568447
O O4 0.001443 0.419101 0.590961
O O5 0.250000 0.697664 0.050410
O O6 0.436195 0.644094 0.111388
O O7 0.517245 0.714839 0.132353
O O8 0.485508 0.682293 0.927030
O O9 0.250000 0.457587 0.255502
O O10 0.000000 0.500000 0.238441
O O11 0.984627 0.424754 0.207323
O O12 0.750000 0.379381 0.607188
O O13 0.979364 0.356240 0.727667
O O14 0.986757 0.346048 0.516670
O O15 0.750000 0.119300 0.759334
O O16 0.031359 0.138727 0.812992
O O17 0.750000 0.181970 0.299513
O O18 0.995140 0.220679 0.246145
O O19 0.250000 0.328198 0.428704
O O20 0.480355 0.289225 0.350327
O O21 0.250000 0.239600 0.746483
#
# Coordination Sequence:
#
# PCOD9378195 Si02
#       8
#     8   8   8   8   8   8   8   8
#     4  10  20  34  54  80 114 149 180 223 276 332
#     4   9  20  39  58  77 104 142 185 224 269 325
#     4  10  19  30  48  77 112 143 173 214 267 323
#     4  11  22  35  55  82 111 146 185 228 275 329
#     4  10  18  31  54  78 103 138 176 218 266 318
#     4  10  23  40  57  79 108 145 188 230 273 326
#     4  10  20  34  51  76 109 142 177 219 269 326
#     4  10  22  37  56  81 109 141 181 230 280 325
#
# _framework density 17.544245
#
# number of rings (size 3 to 8) (size 9 to 14) (size 15 to 20)
#    0.000    2.000    1.250    2.250    1.750    4.500 
#    0.000    0.000    0.000    0.750    0.000    0.000 
#    0.000    0.000    0.000    0.000    0.000    0.000 
#
# Total GULP energy -178558.486161 kJ/mol
# GULP energy per Si atom -5579.952693 kJ/mol
# Density = 1.750431 g / cm^3
# Si number density = 17.544245 Si / 1000 Ang^3
#
#
#
# Elastic Constant Matrix: (Units=GPa)
#
#
# Indices 1 2 3 4 5 6 
#
# 1 29.3073 28.2780 20.4643 -0.0001 0.0000 0.0000
# 2 28.2780 95.9238 27.2119 -0.0006 0.0001 0.0000
# 3 20.4643 27.2119 77.3653 -0.0011 0.0001 -0.0001
# 4 -0.0001 -0.0006 -0.0011 11.5891 0.0001 -0.0001
# 5 0.0000 0.0001 0.0001 0.0001 5.6151 -0.0001
# 6 0.0000 0.0000 -0.0001 -0.0001 -0.0001 29.1928
#
#
#
# Elastic Compliance Matrix: (Units=1/GPa)
#
#
# Indices 1 2 3 4 5 6 
#
# 1 0.053338 -0.013021 -0.009529 -0.000001 0.000000 0.000000
# 2 -0.013021 0.014759 -0.001747 0.000000 0.000000 0.000000
# 3 -0.009529 -0.001747 0.016061 0.000001 0.000000 0.000000
# 4 -0.000001 0.000000 0.000001 0.086288 -0.000002 0.000000
# 5 0.000000 0.000000 0.000000 -0.000002 0.178092 0.000000
# 6 0.000000 0.000000 0.000000 0.000000 0.000000 0.034255
#
#
# Mechanical properties :
#
#
# Convention : Reuss Voigt Hill
#
# Bulk Modulus (GPa) = 28.11787 39.38943 33.75365
# Shear Modulus (GPa) = 11.28054 17.72221 14.50137
#
# Velocity S-wave (km/s) = 2.53845 3.18172 2.87811
# Velocity P-wave (km/s) = 4.96520 5.99984 5.50687
#
# Compressibility (1/GPa) = 0.03556458
#
# Stress axis : x y z
#
# Youngs Moduli (GPa) = 18.74821 67.75517 62.26360
#
# Poissons Ratio (x) = 0.88222 0.59331
# Poissons Ratio (y) = 0.24412 0.10878
# Poissons Ratio (z) = 0.17865 0.11837
#
# Static dielectric constant tensor:
#      x y z
#    x 1.595980 0.000000 0.000000 
#    y 0.000000 1.834360 0.000000 
#    z 0.000000 0.000000 1.593990 
# 
# From -- ./inp_files/9657.got.cif
#   From: 2010.05.17/outbox.cif.g08.bks.cpg/sg46_5_cif.got.tgz:9657.got - 2010.06.03 19:58:25.
