data_PCOD9378669
_publ_section_title
;
Structure prediction by ZEFSAII (Michael W. Deem and Ramdas Pophale) SiO2 
 PCOD9378669
Probable space group: I M A 2
;
_chemical_formula_sum "Si O2"
_cell_formula_units_Z 52
_cell_length_a 8.918151
_cell_length_b 15.822725
_cell_length_c 20.470805
_cell_angle_alpha 90.000000
_cell_angle_beta 90.000000
_cell_angle_gamma 90.000000
_cell_volume 2888.624051
_symmetry_space_group_name_H-M "I M A 2"
_symmetry_group_IT_number 46
_symmetry_cell_setting 'orthorhombic'
loop_
_space_group_symop_operation_xyz
x,y,z
-x,-y,z
1/2-x,y,z
1/2+x,-y,z
1/2+x,1/2+y,1/2+z
1/2-x,1/2-y,1/2+z
-x,1/2+y,1/2+z
x,1/2-y,1/2+z
loop_
_atom_site_type_symbol
_atom_site_label
_atom_site_fract_x
_atom_site_fract_y
_atom_site_fract_z
Si Si1 0.077790 0.163324 0.160120
Si Si2 0.429752 0.708719 0.240667
Si Si3 0.574326 0.587122 0.338573
Si Si4 0.000000 0.500000 0.585818
Si Si5 0.915349 0.116427 0.966623
Si Si6 0.074673 0.774836 0.548297
Si Si7 0.929116 0.592289 0.125706
O O1 0.250000 0.191680 0.162240
O O2 0.996094 0.197991 0.224978
O O3 0.075973 0.066834 0.135215
O O4 0.987511 0.213220 0.104490
O O5 0.250000 0.709347 0.238083
O O6 0.491067 0.666794 0.306613
O O7 0.497622 0.646122 0.184934
O O8 0.500000 0.500000 0.313703
O O9 0.750000 0.588343 0.324052
O O10 0.542568 0.590085 0.416121
O O11 0.083036 0.560606 0.533006
O O12 0.750000 0.104977 0.936236
O O13 0.936994 0.214799 0.985381
O O14 0.250000 0.793759 0.558681
O O15 0.978380 0.858682 0.559434
O O16 0.750000 0.589948 0.132385
O O17 0.000000 0.500000 0.126598
#
# Coordination Sequence:
#
# PCOD9378669 Si02
#       7
#     8   8   8   4   8   8   8
#     4  10  19  32  52  78 107 141 179 220 267 318
#     4  11  22  37  53  73 105 142 181 222 269 320
#     4  12  24  37  54  77 107 143 183 222 265 322
#     4  10  20  32  56  84 118 144 180 222 270 324
#     4  10  20  34  52  78 111 144 177 216 265 321
#     4   9  18  32  49  73 105 136 170 213 265 318
#     4  11  20  32  51  75 103 135 175 218 264 314
#
# _framework density 18.001650999999999
#
# number of rings (size 3 to 8) (size 9 to 14) (size 15 to 20)
#    0.000    1.538    0.769    7.846    0.000    4.923 
#    0.000    0.000    0.000    0.000    2.000    0.000 
#    0.000    0.000    0.000    0.000    0.000    0.000 
#
# Total GULP energy -144807.849340 kJ/mol
# GULP energy per Si atom -5569.532667 kJ/mol
# Density = 1.796068 g / cm^3
# Si number density = 18.001651 Si / 1000 Ang^3
#
#
#
# Elastic Constant Matrix: (Units=GPa)
#
#
# Indices 1 2 3 4 5 6 
#
# 1 97.9457 17.4388 36.3643 0.0000 0.0000 0.0000
# 2 17.4388 80.6311 31.8438 0.0000 0.0000 0.0000
# 3 36.3643 31.8438 40.5952 0.0000 0.0000 0.0000
# 4 0.0000 0.0000 0.0000 28.3735 0.0000 0.0000
# 5 0.0000 0.0000 0.0000 0.0000 23.7742 0.0000
# 6 0.0000 0.0000 0.0000 0.0000 0.0000 23.1445
#
#
#
# Elastic Compliance Matrix: (Units=1/GPa)
#
#
# Indices 1 2 3 4 5 6 
#
# 1 0.015832 0.003154 -0.016656 0.000000 0.000000 0.000000
# 2 0.003154 0.018597 -0.017413 0.000000 0.000000 0.000000
# 3 -0.016656 -0.017413 0.053213 0.000000 0.000000 0.000000
# 4 0.000000 0.000000 0.000000 0.035244 0.000000 0.000000
# 5 0.000000 0.000000 0.000000 0.000000 0.042062 0.000000
# 6 0.000000 0.000000 0.000000 0.000000 0.000000 0.043207
#
#
# Mechanical properties :
#
#
# Convention : Reuss Voigt Hill
#
# Bulk Modulus (GPa) = 38.74255 43.38507 41.06381
# Shear Modulus (GPa) = 17.94757 23.96014 20.95385
#
# Velocity S-wave (km/s) = 3.16095 3.65224 3.41544
# Velocity P-wave (km/s) = 5.90682 6.47596 6.19793
#
# Compressibility (1/GPa) = 0.02581141
#
# Stress axis : x y z
#
# Youngs Moduli (GPa) = 63.16291 53.77201 18.79251
#
# Poissons Ratio (x) = -0.16959 0.31301
# Poissons Ratio (y) = -0.19921 0.32724
# Poissons Ratio (z) = 1.05204 0.93634
#
# Static dielectric constant tensor:
#      x y z
#    x 1.613620 0.000000 0.000000 
#    y 0.000000 1.679260 0.000000 
#    z 0.000000 0.000000 1.677180 
# 
# From -- ./inp_files/20979.got.cif
#   From: 2010.05.17/outbox.cif.g08.bks.cpg/sg46_11_cif.got.tgz:20979.got - 2010.06.03 19:58:25.
