data_PCOD9378610
_publ_section_title
;
Structure prediction by ZEFSAII (Michael W. Deem and Ramdas Pophale) SiO2 
 PCOD9378610
Probable space group: I M A 2
;
_chemical_formula_sum "Si O2"
_cell_formula_units_Z 48
_cell_length_a 8.859396
_cell_length_b 24.360693
_cell_length_c 14.003599
_cell_angle_alpha 90.000000
_cell_angle_beta 90.000000
_cell_angle_gamma 90.000000
_cell_volume 3022.271106
_symmetry_space_group_name_H-M "I M A 2"
_symmetry_group_IT_number 46
_symmetry_cell_setting 'orthorhombic'
loop_
_space_group_symop_operation_xyz
x,y,z
-x,-y,z
1/2-x,y,z
1/2+x,-y,z
1/2+x,1/2+y,1/2+z
1/2-x,1/2-y,1/2+z
-x,1/2+y,1/2+z
x,1/2-y,1/2+z
loop_
_atom_site_type_symbol
_atom_site_label
_atom_site_fract_x
_atom_site_fract_y
_atom_site_fract_z
Si Si1 0.568841 0.059062 0.545150
Si Si2 0.069781 0.777271 0.264793
Si Si3 0.431384 0.666647 0.379553
Si Si4 0.930265 0.774445 0.056553
Si Si5 0.569227 0.663535 0.942571
Si Si6 0.568499 0.058472 0.768059
O O1 0.750000 0.057634 0.537679
O O2 0.502303 0.108040 0.482513
O O3 0.528326 0.068817 0.656914
O O4 0.500000 0.000000 0.518625
O O5 0.250000 0.784156 0.264537
O O6 0.035800 0.716350 0.306062
O O7 0.004990 0.782562 0.159059
O O8 0.995699 0.819173 0.339779
O O9 0.250000 0.665503 0.393078
O O10 0.509711 0.682386 0.478565
O O11 0.480427 0.609205 0.333576
O O12 0.750000 0.777849 0.064168
O O13 0.969341 0.714260 0.013593
O O14 0.750000 0.659122 0.938250
O O15 0.750000 0.055170 0.772495
O O16 0.500000 0.000000 0.796306
#
# Coordination Sequence:
#
# PCOD9378610 Si02
#       6
#     8   8   8   8   8   8
#     4  10  19  32  50  73 100 130 164 200 241 287
#     4  10  19  32  51  72  96 128 163 199 240 288
#     4   9  18  32  49  70  96 127 162 196 234 284
#     4  10  20  32  48  72 100 128 159 198 243 288
#     4  10  20  33  49  72 101 130 161 199 243 290
#     4   9  18  31  48  71  98 127 160 198 237 281
#
# _framework density 15.882097
#
# number of rings (size 3 to 8) (size 9 to 14) (size 15 to 20)
#    0.000    2.333    0.000    3.000    0.000    5.333 
#    0.000    0.000    0.000    1.000    0.000    4.667 
#    0.000    0.000    0.000    0.000    0.000    0.000 
#
# Total GULP energy -133925.466674 kJ/mol
# GULP energy per Si atom -5580.227778 kJ/mol
# Density = 1.584595 g / cm^3
# Si number density = 15.882097 Si / 1000 Ang^3
#
#
#
# Elastic Constant Matrix: (Units=GPa)
#
#
# Indices 1 2 3 4 5 6 
#
# 1 50.4882 55.9661 56.1520 0.0000 0.0000 0.0000
# 2 55.9661 145.2937 90.8721 -0.0001 0.0000 0.0000
# 3 56.1520 90.8721 139.2683 -0.0001 0.0000 0.0000
# 4 0.0000 -0.0001 -0.0001 24.8354 0.0000 0.0000
# 5 0.0000 0.0000 0.0000 0.0000 26.2593 0.0000
# 6 0.0000 0.0000 0.0000 0.0000 0.0000 28.7991
#
#
#
# Elastic Compliance Matrix: (Units=1/GPa)
#
#
# Indices 1 2 3 4 5 6 
#
# 1 0.042545 -0.009561 -0.010915 0.000000 0.000000 0.000000
# 2 -0.009561 0.013777 -0.005134 0.000000 0.000000 0.000000
# 3 -0.010915 -0.005134 0.014931 0.000000 0.000000 0.000000
# 4 0.000000 0.000000 0.000000 0.040265 0.000000 0.000000
# 5 0.000000 0.000000 0.000000 0.000000 0.038082 0.000000
# 6 0.000000 0.000000 0.000000 0.000000 0.000000 0.034723
#
#
# Mechanical properties :
#
#
# Convention : Reuss Voigt Hill
#
# Bulk Modulus (GPa) = 49.92084 82.33673 66.12878
# Shear Modulus (GPa) = 20.64230 24.78275 22.71252
#
# Velocity S-wave (km/s) = 3.60908 3.95450 3.78573
# Velocity P-wave (km/s) = 6.99054 8.53263 7.79979
#
# Compressibility (1/GPa) = 0.02003172
#
# Stress axis : x y z
#
# Youngs Moduli (GPa) = 23.50468 72.58661 66.97344
#
# Poissons Ratio (x) = 0.69402 0.73102
# Poissons Ratio (y) = 0.22473 0.34385
# Poissons Ratio (z) = 0.25655 0.37267
#
# Static dielectric constant tensor:
#      x y z
#    x 1.528440 0.000000 0.000000 
#    y 0.000000 1.512250 0.000000 
#    z 0.000000 0.000000 1.504330 
# 
# From -- ./inp_files/9285.got.cif
#   From: 2010.05.17/outbox.cif.g08.bks.cpg/sg46_5_cif.got.tgz:9285.got - 2010.06.03 19:58:25.
