data_PCOD9378538
_publ_section_title
;
Structure prediction by ZEFSAII (Michael W. Deem and Ramdas Pophale) SiO2 
 PCOD9378538
Probable space group: I M A 2
;
_chemical_formula_sum "Si O2"
_cell_formula_units_Z 64
_cell_length_a 8.503247
_cell_length_b 15.094549
_cell_length_c 24.449723
_cell_angle_alpha 90.000000
_cell_angle_beta 90.000000
_cell_angle_gamma 90.000000
_cell_volume 3138.187436
_symmetry_space_group_name_H-M "I M A 2"
_symmetry_group_IT_number 46
_symmetry_cell_setting 'orthorhombic'
loop_
_space_group_symop_operation_xyz
x,y,z
-x,-y,z
1/2-x,y,z
1/2+x,-y,z
1/2+x,1/2+y,1/2+z
1/2-x,1/2-y,1/2+z
-x,1/2+y,1/2+z
x,1/2-y,1/2+z
loop_
_atom_site_type_symbol
_atom_site_label
_atom_site_fract_x
_atom_site_fract_y
_atom_site_fract_z
Si Si1 0.926777 0.413344 0.443490
Si Si2 0.061313 0.810348 0.552949
Si Si3 0.429877 0.094611 0.176700
Si Si4 0.075968 0.381690 0.548388
Si Si5 0.440231 0.200507 0.671051
Si Si6 0.439187 0.597763 0.938163
Si Si7 0.559844 0.399858 0.276595
Si Si8 0.941083 0.238685 0.871497
O O1 0.750000 0.412686 0.425793
O O2 0.993980 0.321708 0.422821
O O3 0.000000 0.500000 0.418538
O O4 0.943729 0.417675 0.508313
O O5 0.250000 0.791692 0.549893
O O6 0.020931 0.870034 0.500214
O O7 0.957849 0.722134 0.548362
O O8 0.018632 0.836653 0.615165
O O9 0.250000 0.096950 0.195939
O O10 0.431529 0.088140 0.110593
O O11 0.493679 0.196309 0.184673
O O12 0.500000 0.000000 0.196871
O O13 0.250000 0.400922 0.525846
O O14 0.250000 0.203987 0.664427
O O15 0.489880 0.136258 0.719855
O O16 0.500000 0.500000 0.929309
O O17 0.250000 0.598449 0.936451
O O18 0.496621 0.664385 0.890065
O O19 0.500000 0.500000 0.287862
O O20 0.750000 0.402085 0.274994
O O21 0.511990 0.323162 0.320559
O O22 0.750000 0.245881 0.868032
#
# Coordination Sequence:
#
# PCOD9378538 Si02
#       8
#     8   8   8   8   8   8   8   8
#     4  11  20  32  50  77 112 151 191 239 293 352
#     4  10  19  35  59  85 120 163 204 247 304 359
#     4   9  19  33  51  77 113 155 194 240 289 343
#     4  10  19  31  48  77 115 155 197 241 289 348
#     4  10  22  40  60  88 126 160 205 260 306 362
#     4  10  21  39  61  89 122 159 200 246 299 361
#     4  11  23  42  68  92 118 156 202 253 312 369
#     4   9  20  40  61  83 118 155 193 246 302 360
#
# _framework density 20.393937999999999
#
# number of rings (size 3 to 8) (size 9 to 14) (size 15 to 20)
#    0.000    2.000    1.250    3.375    0.000    5.500 
#    0.000    5.000    0.000    3.000    0.000    0.000 
#    0.000    0.000    0.000    0.000    0.000    0.000 
#
# Total GULP energy -178137.412883 kJ/mol
# GULP energy per Si atom -5566.794153 kJ/mol
# Density = 2.034752 g / cm^3
# Si number density = 20.393938 Si / 1000 Ang^3
#
#
#
# Elastic Constant Matrix: (Units=GPa)
#
#
# Indices 1 2 3 4 5 6 
#
# 1 42.4709 26.2835 11.3826 0.0000 0.0000 0.0000
# 2 26.2835 150.0792 49.7829 0.0000 0.0000 0.0000
# 3 11.3826 49.7829 86.0902 0.0000 0.0000 0.0000
# 4 0.0000 0.0000 0.0000 22.2108 0.0000 0.0000
# 5 0.0000 0.0000 0.0000 0.0000 34.2605 0.0000
# 6 0.0000 0.0000 0.0000 0.0000 0.0000 33.4905
#
#
#
# Elastic Compliance Matrix: (Units=1/GPa)
#
#
# Indices 1 2 3 4 5 6 
#
# 1 0.026479 -0.004301 -0.001014 0.000000 0.000000 0.000000
# 2 -0.004301 0.008943 -0.004603 0.000000 0.000000 0.000000
# 3 -0.001014 -0.004603 0.014411 0.000000 0.000000 0.000000
# 4 0.000000 0.000000 0.000000 0.045023 0.000000 0.000000
# 5 0.000000 0.000000 0.000000 0.000000 0.029188 0.000000
# 6 0.000000 0.000000 0.000000 0.000000 0.000000 0.029859
#
#
# Mechanical properties :
#
#
# Convention : Reuss Voigt Hill
#
# Bulk Modulus (GPa) = 33.33537 50.39315 41.86426
# Shear Modulus (GPa) = 27.21250 30.73842 28.97546
#
# Velocity S-wave (km/s) = 3.65683 3.88652 3.77342
# Velocity P-wave (km/s) = 5.84902 6.70101 6.28946
#
# Compressibility (1/GPa) = 0.02999816
#
# Stress axis : x y z
#
# Youngs Moduli (GPa) = 37.76583 111.81669 69.38919
#
# Poissons Ratio (x) = 0.48092 0.07035
# Poissons Ratio (y) = 0.16243 0.31939
# Poissons Ratio (z) = 0.03829 0.51468
#
# Static dielectric constant tensor:
#      x y z
#    x 1.637590 0.000000 0.000000 
#    y 0.000000 1.786650 0.000000 
#    z 0.000000 0.000000 1.760380 
# 
# From -- ./inp_files/23248.got.cif
#   From: 2010.05.17/outbox.cif.g08.bks.cpg/sg46_12_cif.got.tgz:23248.got - 2010.06.03 19:58:25.
