data_PCOD9378730
_publ_section_title
;
Structure prediction by ZEFSAII (Michael W. Deem and Ramdas Pophale) SiO2 
 PCOD9378730
Probable space group: I M A 2
;
_chemical_formula_sum "Si O2"
_cell_formula_units_Z 48
_cell_length_a 14.135478
_cell_length_b 22.047889
_cell_length_c 7.857845
_cell_angle_alpha 90.000000
_cell_angle_beta 90.000000
_cell_angle_gamma 90.000000
_cell_volume 2448.955934
_symmetry_space_group_name_H-M "I M A 2"
_symmetry_group_IT_number 46
_symmetry_cell_setting 'orthorhombic'
loop_
_space_group_symop_operation_xyz
x,y,z
-x,-y,z
1/2-x,y,z
1/2+x,-y,z
1/2+x,1/2+y,1/2+z
1/2-x,1/2-y,1/2+z
-x,1/2+y,1/2+z
x,1/2-y,1/2+z
loop_
_atom_site_type_symbol
_atom_site_label
_atom_site_fract_x
_atom_site_fract_y
_atom_site_fract_z
Si Si1 0.056212 0.136199 0.471270
Si Si2 0.555955 0.227207 0.660159
Si Si3 0.490840 0.071823 0.125079
Si Si4 0.857569 0.880184 0.829616
Si Si5 0.353445 0.261700 0.773958
Si Si6 0.358909 0.835392 0.990987
O O1 0.089833 0.107777 0.649671
O O2 0.135373 0.184787 0.410911
O O3 0.964851 0.177867 0.513929
O O4 0.037041 0.092108 0.315499
O O5 0.454851 0.262341 0.678209
O O6 0.585128 0.189496 0.825642
O O7 0.631788 0.277939 0.617052
O O8 0.500000 0.000000 0.115712
O O9 0.411958 0.093366 0.990178
O O10 0.585438 0.107786 0.069164
O O11 0.750000 0.902107 0.821652
O O12 0.854982 0.806884 0.843765
O O13 0.250000 0.269675 0.689830
O O14 0.250000 0.848711 0.953056
#
# Coordination Sequence:
#
# PCOD9378730 Si02
#       6
#     8   8   8   8   8   8
#     4  11  21  40  63  99 139 165 215 261 340 389
#     4  11  20  40  64  99 137 165 208 282 342 396
#     4  12  26  45  68  90 132 182 228 280 318 380
#     4  10  23  41  66 100 136 170 209 265 340 407
#     4  10  19  32  63 102 134 164 198 253 342 416
#     4  12  23  42  66  96 131 176 223 275 335 398
#
# _framework density 19.600189
#
# number of rings (size 3 to 8) (size 9 to 14) (size 15 to 20)
#    0.000    1.000    6.667    1.000    2.333    3.333 
#    0.000    0.833    0.000    0.000    0.000    0.000 
#    0.000    0.000    0.000    0.000    0.000    0.000 
#
# Total GULP energy -134003.226220 kJ/mol
# GULP energy per Si atom -5583.467759 kJ/mol
# Density = 1.955558 g / cm^3
# Si number density = 19.600189 Si / 1000 Ang^3
#
#
#
# Elastic Constant Matrix: (Units=GPa)
#
#
# Indices 1 2 3 4 5 6 
#
# 1 115.0221 20.2136 30.8142 0.0000 0.0000 0.0000
# 2 20.2136 82.3795 35.1313 0.0000 0.0000 0.0000
# 3 30.8142 35.1313 108.2650 0.0000 0.0000 0.0000
# 4 0.0000 0.0000 0.0000 21.4937 0.0000 0.0000
# 5 0.0000 0.0000 0.0000 0.0000 20.3779 0.0000
# 6 0.0000 0.0000 0.0000 0.0000 0.0000 14.2080
#
#
#
# Elastic Compliance Matrix: (Units=1/GPa)
#
#
# Indices 1 2 3 4 5 6 
#
# 1 0.009544 -0.001373 -0.002271 0.000000 0.000000 0.000000
# 2 -0.001373 0.014286 -0.004245 0.000000 0.000000 0.000000
# 3 -0.002271 -0.004245 0.011260 0.000000 0.000000 0.000000
# 4 0.000000 0.000000 0.000000 0.046525 0.000000 0.000000
# 5 0.000000 0.000000 0.000000 0.000000 0.049073 0.000000
# 6 0.000000 0.000000 0.000000 0.000000 0.000000 0.070383
#
#
# Mechanical properties :
#
#
# Convention : Reuss Voigt Hill
#
# Bulk Modulus (GPa) = 51.78053 53.10943 52.44498
# Shear Modulus (GPa) = 22.39278 25.84976 24.12127
#
# Velocity S-wave (km/s) = 3.38372 3.63554 3.51189
# Velocity P-wave (km/s) = 6.46079 6.69164 6.57723
#
# Compressibility (1/GPa) = 0.01931228
#
# Stress axis : x y z
#
# Youngs Moduli (GPa) = 104.78182 69.99765 88.80766
#
# Poissons Ratio (x) = 0.09614 0.20165
# Poissons Ratio (y) = 0.14391 0.37698
# Poissons Ratio (z) = 0.23792 0.29713
#
# Static dielectric constant tensor:
#      x y z
#    x 1.689550 0.000000 0.000000 
#    y 0.000000 1.659110 0.000000 
#    z 0.000000 0.000000 1.777730 
# 
# From -- ./inp_files/5819.got.cif
#   From: 2010.05.17/outbox.cif.g08.bks.cpg/sg46_3_cif.got.tgz:5819.got - 2010.06.03 19:58:25.
