data_PCOD9378198
_publ_section_title
;
Structure prediction by ZEFSAII (Michael W. Deem and Ramdas Pophale) SiO2 
 PCOD9378198
Probable space group: I M A 2
;
_chemical_formula_sum "Si O2"
_cell_formula_units_Z 40
_cell_length_a 8.635391
_cell_length_b 9.196637
_cell_length_c 26.652566
_cell_angle_alpha 90.000000
_cell_angle_beta 90.000000
_cell_angle_gamma 90.000000
_cell_volume 2116.655010
_symmetry_space_group_name_H-M "I M A 2"
_symmetry_group_IT_number 46
_symmetry_cell_setting 'orthorhombic'
loop_
_space_group_symop_operation_xyz
x,y,z
-x,-y,z
1/2-x,y,z
1/2+x,-y,z
1/2+x,1/2+y,1/2+z
1/2-x,1/2-y,1/2+z
-x,1/2+y,1/2+z
x,1/2-y,1/2+z
loop_
_atom_site_type_symbol
_atom_site_label
_atom_site_fract_x
_atom_site_fract_y
_atom_site_fract_z
Si Si1 0.064818 0.163424 0.913650
Si Si2 0.434926 0.834807 0.809673
Si Si3 0.435699 0.337344 0.015040
Si Si4 0.935177 0.337273 0.609936
Si Si5 0.435268 0.335315 0.205107
O O1 0.250000 0.154472 0.907602
O O2 0.992455 0.228123 0.862556
O O3 0.028375 0.257824 0.962529
O O4 0.000000 0.000000 0.920679
O O5 0.250000 0.836961 0.807465
O O6 0.503544 0.772446 0.758172
O O7 0.500000 0.000000 0.810758
O O8 0.500000 0.500000 0.014745
O O9 0.250000 0.338807 0.021294
O O10 0.510372 0.249459 0.060790
O O11 0.750000 0.339002 0.612639
O O12 0.000000 0.500000 0.607327
O O13 0.003429 0.257390 0.658710
O O14 0.500000 0.500000 0.200354
O O15 0.250000 0.340679 0.205582
#
# Coordination Sequence:
#
# PCOD9378198 Si02
#       5
#     8   8   8   8   8
#     4  10  20  35  57  85 116 151 192 236 285 339
#     4  10  18  31  54  84 116 151 192 235 283 337
#     4  11  24  41  61  86 116 152 193 238 289 343
#     4  12  25  42  62  86 116 150 191 237 289 345
#     4  11  21  37  60  87 119 154 194 238 286 338
#
# _framework density 18.897742999999998
#
# number of rings (size 3 to 8) (size 9 to 14) (size 15 to 20)
#    0.000    1.200    0.000   10.200    0.000    4.800 
#    0.000    1.000    0.000    2.400    0.000    0.000 
#    0.000    0.000    0.000    0.000    0.000    0.000 
#
# Total GULP energy -111815.285583 kJ/mol
# GULP energy per Si atom -5590.764279 kJ/mol
# Density = 1.885473 g / cm^3
# Si number density = 18.897743 Si / 1000 Ang^3
#
#
#
# Elastic Constant Matrix: (Units=GPa)
#
#
# Indices 1 2 3 4 5 6 
#
# 1 180.7387 60.5970 114.0587 0.0000 0.0000 0.0000
# 2 60.5970 106.1034 88.2959 0.0000 0.0000 0.0000
# 3 114.0587 88.2959 217.1122 0.0000 0.0000 0.0000
# 4 0.0000 0.0000 0.0000 27.3968 0.0000 0.0000
# 5 0.0000 0.0000 0.0000 0.0000 34.9328 0.0000
# 6 0.0000 0.0000 0.0000 0.0000 0.0000 28.9026
#
#
#
# Elastic Compliance Matrix: (Units=1/GPa)
#
#
# Indices 1 2 3 4 5 6 
#
# 1 0.008479 -0.001717 -0.003756 0.000000 0.000000 0.000000
# 2 -0.001717 0.014594 -0.005033 0.000000 0.000000 0.000000
# 3 -0.003756 -0.005033 0.008626 0.000000 0.000000 0.000000
# 4 0.000000 0.000000 0.000000 0.036501 0.000000 0.000000
# 5 0.000000 0.000000 0.000000 0.000000 0.028626 0.000000
# 6 0.000000 0.000000 0.000000 0.000000 0.000000 0.034599
#
#
# Mechanical properties :
#
#
# Convention : Reuss Voigt Hill
#
# Bulk Modulus (GPa) = 93.57491 114.42861 104.00176
# Shear Modulus (GPa) = 32.05158 34.31328 33.18243
#
# Velocity S-wave (km/s) = 4.12278 4.26577 4.19488
# Velocity P-wave (km/s) = 8.50218 9.21658 8.86658
#
# Compressibility (1/GPa) = 0.01068663
#
# Stress axis : x y z
#
# Youngs Moduli (GPa) = 117.94149 68.52331 115.92708
#
# Poissons Ratio (x) = 0.11762 0.43544
# Poissons Ratio (y) = 0.20245 0.58348
# Poissons Ratio (z) = 0.44301 0.34489
#
# Static dielectric constant tensor:
#      x y z
#    x 1.630730 0.000000 0.000000 
#    y 0.000000 1.699750 0.000000 
#    z 0.000000 0.000000 1.679480 
# 
# From -- ./inp_files/22743.got.cif
#   From: 2010.05.17/outbox.cif.g08.bks.cpg/sg46_12_cif.got.tgz:22743.got - 2010.06.03 19:58:25.
