data_PCOD9378977
_publ_section_title
;
Structure prediction by ZEFSAII (Michael W. Deem and Ramdas Pophale) SiO2 
 PCOD9378977
Probable space group: I M A 2
;
_chemical_formula_sum "Si O2"
_cell_formula_units_Z 44
_cell_length_a 15.827333
_cell_length_b 11.278650
_cell_length_c 13.829346
_cell_angle_alpha 90.000000
_cell_angle_beta 90.000000
_cell_angle_gamma 90.000000
_cell_volume 2468.689683
_symmetry_space_group_name_H-M "I M A 2"
_symmetry_group_IT_number 46
_symmetry_cell_setting 'orthorhombic'
loop_
_space_group_symop_operation_xyz
x,y,z
-x,-y,z
1/2-x,y,z
1/2+x,-y,z
1/2+x,1/2+y,1/2+z
1/2-x,1/2-y,1/2+z
-x,1/2+y,1/2+z
x,1/2-y,1/2+z
loop_
_atom_site_type_symbol
_atom_site_label
_atom_site_fract_x
_atom_site_fract_y
_atom_site_fract_z
Si Si1 0.155722 0.972824 0.247410
Si Si2 0.651805 0.309112 0.205217
Si Si3 0.849949 0.405143 0.417079
Si Si4 0.000000 0.500000 0.885893
Si Si5 0.417106 0.079276 0.062231
Si Si6 0.464805 0.713573 0.029008
O O1 0.250000 0.987864 0.287529
O O2 0.144155 0.832263 0.226331
O O3 0.082130 0.012547 0.318719
O O4 0.146272 0.045161 0.147640
O O5 0.750000 0.329986 0.176886
O O6 0.634787 0.380564 0.304036
O O7 0.585599 0.336237 0.121148
O O8 0.750000 0.391712 0.434274
O O9 0.881064 0.530128 0.460808
O O10 0.901326 0.306729 0.477246
O O11 0.987450 0.386865 0.953400
O O12 0.452180 0.211799 0.058550
O O13 0.500000 0.000000 0.084595
#
# Coordination Sequence:
#
# PCOD9378977 Si02
#       6
#     8   8   8   4   8   8
#     4  11  20  36  63  87 114 149 198 251 287 342
#     4  10  19  34  59  88 114 146 196 247 292 344
#     4  10  19  34  60  88 112 144 196 253 294 337
#     4  12  24  40  56  88 124 156 196 236 300 358
#     4  10  19  35  57  87 115 146 191 239 292 347
#     4  11  22  36  56  84 120 159 191 237 293 355
#
# _framework density 17.823221
#
# number of rings (size 3 to 8) (size 9 to 14) (size 15 to 20)
#    0.000    1.455    6.364    1.091    0.000    0.727 
#    4.909    1.818    0.000    2.182    0.000    0.000 
#    0.000    0.000    0.000    0.000    0.000    0.000 
#
# Total GULP energy -122772.270130 kJ/mol
# GULP energy per Si atom -5580.557733 kJ/mol
# Density = 1.778265 g / cm^3
# Si number density = 17.823221 Si / 1000 Ang^3
#
#
#
# Elastic Constant Matrix: (Units=GPa)
#
#
# Indices 1 2 3 4 5 6 
#
# 1 100.1768 26.5138 56.3040 0.0000 0.0000 0.0000
# 2 26.5138 37.2983 41.5510 0.0000 0.0000 0.0000
# 3 56.3040 41.5510 111.1909 0.0000 0.0000 0.0000
# 4 0.0000 0.0000 0.0000 21.9177 0.0000 0.0000
# 5 0.0000 0.0000 0.0000 0.0000 23.0429 0.0000
# 6 0.0000 0.0000 0.0000 0.0000 0.0000 13.8075
#
#
#
# Elastic Compliance Matrix: (Units=1/GPa)
#
#
# Indices 1 2 3 4 5 6 
#
# 1 0.014227 -0.003577 -0.005867 0.000000 0.000000 0.000000
# 2 -0.003577 0.046832 -0.015689 0.000000 0.000000 0.000000
# 3 -0.005867 -0.015689 0.017828 0.000000 0.000000 0.000000
# 4 0.000000 0.000000 0.000000 0.045625 0.000000 0.000000
# 5 0.000000 0.000000 0.000000 0.000000 0.043397 0.000000
# 6 0.000000 0.000000 0.000000 0.000000 0.000000 0.072424
#
#
# Mechanical properties :
#
#
# Convention : Reuss Voigt Hill
#
# Bulk Modulus (GPa) = 34.94189 55.26707 45.10448
# Shear Modulus (GPa) = 16.65888 20.04010 18.34949
#
# Velocity S-wave (km/s) = 3.06056 3.35682 3.21211
# Velocity P-wave (km/s) = 5.66892 6.78970 6.25447
#
# Compressibility (1/GPa) = 0.02861894
#
# Stress axis : x y z
#
# Youngs Moduli (GPa) = 70.28990 21.35300 56.09263
#
# Poissons Ratio (x) = 0.07637 0.32912
# Poissons Ratio (y) = 0.25141 0.88006
# Poissons Ratio (z) = 0.41242 0.33502
#
# Static dielectric constant tensor:
#      x y z
#    x 1.616080 0.000000 0.000000 
#    y 0.000000 1.599550 0.000000 
#    z 0.000000 0.000000 1.620680 
# 
# From -- ./inp_files/11722.got.cif
#   From: 2010.05.17/outbox.cif.g08.bks.cpg/sg46_6_cif.got.tgz:11722.got - 2010.06.03 19:58:25.
