data_PCOD9378826
_publ_section_title
;
Structure prediction by ZEFSAII (Michael W. Deem and Ramdas Pophale) SiO2 
 PCOD9378826
Probable space group: I M A 2
;
_chemical_formula_sum "Si O2"
_cell_formula_units_Z 64
_cell_length_a 8.834008
_cell_length_b 20.178497
_cell_length_c 21.027361
_cell_angle_alpha 90.000000
_cell_angle_beta 90.000000
_cell_angle_gamma 90.000000
_cell_volume 3748.274372
_symmetry_space_group_name_H-M "I M A 2"
_symmetry_group_IT_number 46
_symmetry_cell_setting 'orthorhombic'
loop_
_space_group_symop_operation_xyz
x,y,z
-x,-y,z
1/2-x,y,z
1/2+x,-y,z
1/2+x,1/2+y,1/2+z
1/2-x,1/2-y,1/2+z
-x,1/2+y,1/2+z
x,1/2-y,1/2+z
loop_
_atom_site_type_symbol
_atom_site_label
_atom_site_fract_x
_atom_site_fract_y
_atom_site_fract_z
Si Si1 0.932654 0.710322 0.836090
Si Si2 0.068856 0.070203 0.136568
Si Si3 0.567697 0.288836 0.453094
Si Si4 0.430859 0.069170 0.287723
Si Si5 0.568657 0.070473 0.753203
Si Si6 0.068859 0.930550 0.903502
Si Si7 0.068121 0.293903 0.210151
Si Si8 0.931558 0.291920 0.596261
O O1 0.750000 0.710478 0.839330
O O2 0.984175 0.635015 0.823554
O O3 0.975244 0.754017 0.774416
O O4 0.998603 0.742419 0.899286
O O5 0.250000 0.070801 0.128197
O O6 0.035976 0.076533 0.212389
O O7 0.993236 0.133518 0.104417
O O8 0.000000 0.000000 0.115201
O O9 0.750000 0.288040 0.446783
O O10 0.517471 0.364701 0.439783
O O11 0.529228 0.269094 0.524902
O O12 0.250000 0.065591 0.293476
O O13 0.500000 0.000000 0.309988
O O14 0.750000 0.069969 0.747305
O O15 0.530778 0.078092 0.828549
O O16 0.498741 0.132606 0.716542
O O17 0.500000 0.000000 0.732807
O O18 0.250000 0.935187 0.908445
O O19 0.000000 0.000000 0.925750
O O20 0.250000 0.295893 0.206954
O O21 0.004166 0.254103 0.150089
O O22 0.750000 0.292213 0.602989
#
# Coordination Sequence:
#
# PCOD9378826 Si02
#       8
#     8   8   8   8   8   8   8   8
#     4  10  20  35  56  81 108 139 180 227 274 324
#     4  10  19  34  53  77 111 147 186 226 268 323
#     4  10  22  38  53  77 110 144 185 227 270 324
#     4   9  18  33  52  80 109 137 174 220 267 320
#     4  10  19  33  55  83 112 143 180 224 276 327
#     4   9  18  32  50  74 106 142 179 219 260 315
#     4  11  21  36  57  82 111 143 183 231 277 324
#     4  11  23  37  54  78 111 149 187 228 276 328
#
# _framework density 17.074524
#
# number of rings (size 3 to 8) (size 9 to 14) (size 15 to 20)
#    0.000    2.000    2.500    1.500    0.000    4.000 
#    0.000    1.250    0.000    0.750    0.000    1.750 
#    0.000    0.000    0.000    0.000    0.000    0.000 
#
# Total GULP energy -178639.536667 kJ/mol
# GULP energy per Si atom -5582.485521 kJ/mol
# Density = 1.703566 g / cm^3
# Si number density = 17.074524 Si / 1000 Ang^3
#
#
#
# Elastic Constant Matrix: (Units=GPa)
#
#
# Indices 1 2 3 4 5 6 
#
# 1 36.0501 41.4090 43.6272 0.0000 0.0000 0.0000
# 2 41.4090 140.8361 70.8367 0.0000 0.0000 0.0000
# 3 43.6272 70.8367 106.4018 0.0000 0.0000 0.0000
# 4 0.0000 0.0000 0.0000 20.4112 0.0000 0.0000
# 5 0.0000 0.0000 0.0000 0.0000 16.7121 0.0000
# 6 0.0000 0.0000 0.0000 0.0000 0.0000 34.5535
#
#
#
# Elastic Compliance Matrix: (Units=1/GPa)
#
#
# Indices 1 2 3 4 5 6 
#
# 1 0.060496 -0.007985 -0.019489 0.000000 0.000000 0.000000
# 2 -0.007985 0.011729 -0.004535 0.000000 0.000000 0.000000
# 3 -0.019489 -0.004535 0.020408 0.000000 0.000000 0.000000
# 4 0.000000 0.000000 0.000000 0.048993 0.000000 0.000000
# 5 0.000000 0.000000 0.000000 0.000000 0.059837 0.000000
# 6 0.000000 0.000000 0.000000 0.000000 0.000000 0.028941
#
#
# Mechanical properties :
#
#
# Convention : Reuss Voigt Hill
#
# Bulk Modulus (GPa) = 34.94476 66.11486 50.52981
# Shear Modulus (GPa) = 16.44961 22.82972 19.63967
#
# Velocity S-wave (km/s) = 3.10724 3.66055 3.39519
# Velocity P-wave (km/s) = 5.77786 7.52806 6.71026
#
# Compressibility (1/GPa) = 0.02861660
#
# Stress axis : x y z
#
# Youngs Moduli (GPa) = 16.52998 85.25937 49.00016
#
# Poissons Ratio (x) = 0.68078 0.95496
# Poissons Ratio (y) = 0.13199 0.22219
# Poissons Ratio (z) = 0.32215 0.38661
#
# Static dielectric constant tensor:
#      x y z
#    x 1.572010 0.000000 0.000000 
#    y 0.000000 1.568970 0.000000 
#    z 0.000000 0.000000 1.567290 
# 
# From -- ./inp_files/18551.got.cif
#   From: 2010.05.17/outbox.cif.g08.bks.cpg/sg46_10_cif.got.tgz:18551.got - 2010.06.03 19:58:25.
