data_PCOD9378660
_publ_section_title
;
Structure prediction by ZEFSAII (Michael W. Deem and Ramdas Pophale) SiO2 
 PCOD9378660
Probable space group: I M A 2
;
_chemical_formula_sum "Si O2"
_cell_formula_units_Z 64
_cell_length_a 8.519453
_cell_length_b 21.338161
_cell_length_c 20.185254
_cell_angle_alpha 90.000000
_cell_angle_beta 90.000000
_cell_angle_gamma 90.000000
_cell_volume 3669.466419
_symmetry_space_group_name_H-M "I M A 2"
_symmetry_group_IT_number 46
_symmetry_cell_setting 'orthorhombic'
loop_
_space_group_symop_operation_xyz
x,y,z
-x,-y,z
1/2-x,y,z
1/2+x,-y,z
1/2+x,1/2+y,1/2+z
1/2-x,1/2-y,1/2+z
-x,1/2+y,1/2+z
x,1/2-y,1/2+z
loop_
_atom_site_type_symbol
_atom_site_label
_atom_site_fract_x
_atom_site_fract_y
_atom_site_fract_z
Si Si1 0.439477 0.433256 0.306910
Si Si2 0.937490 0.066708 0.229005
Si Si3 0.938265 0.240262 0.593634
Si Si4 0.939064 0.617202 0.446059
Si Si5 0.061588 0.382413 0.593580
Si Si6 0.438173 0.310164 0.226668
Si Si7 0.060868 0.758521 0.445093
Si Si8 0.560186 0.310203 0.806946
O O1 0.500000 0.500000 0.282900
O O2 0.250000 0.433837 0.307212
O O3 0.495339 0.421471 0.382626
O O4 0.490193 0.374017 0.262725
O O5 0.750000 0.066210 0.230634
O O6 0.994475 0.125737 0.272607
O O7 0.991905 0.078449 0.153696
O O8 0.000000 0.000000 0.252651
O O9 0.750000 0.244533 0.598653
O O10 0.981319 0.219375 0.519065
O O11 0.007515 0.310250 0.602291
O O12 0.002030 0.196929 0.651852
O O13 0.750000 0.615305 0.446217
O O14 0.992080 0.597426 0.519699
O O15 0.990328 0.689214 0.436337
O O16 0.250000 0.385104 0.596350
O O17 0.250000 0.308392 0.227531
O O18 0.500503 0.249984 0.266716
O O19 0.250000 0.752684 0.443219
O O20 0.012130 0.801334 0.383457
O O21 0.750000 0.309717 0.804036
#
# Coordination Sequence:
#
# PCOD9378660 Si02
#       8
#     8   8   8   8   8   8   8   8
#     4  10  22  37  52  75 106 141 180 220 264 314
#     4  11  23  37  53  75 107 142 181 222 266 319
#     4  10  19  32  52  80 110 138 175 218 265 316
#     4   9  18  33  50  74 107 141 176 215 257 308
#     4  10  19  32  52  76 107 143 179 216 259 310
#     4  11  21  34  55  80 107 139 178 221 266 315
#     4   9  18  32  53  80 106 136 173 216 264 314
#     4  10  20  35  56  80 105 136 177 220 264 315
#
# _framework density 17.441227999999999
#
# number of rings (size 3 to 8) (size 9 to 14) (size 15 to 20)
#    0.000    2.000    2.500    1.500    0.000    3.500 
#    0.000    1.250    0.000    0.750    0.000    3.500 
#    0.000    0.000    0.000    0.000    0.000    0.000 
#
# Total GULP energy -178575.307643 kJ/mol
# GULP energy per Si atom -5580.478364 kJ/mol
# Density = 1.740153 g / cm^3
# Si number density = 17.441228 Si / 1000 Ang^3
#
#
#
# Elastic Constant Matrix: (Units=GPa)
#
#
# Indices 1 2 3 4 5 6 
#
# 1 17.3574 17.4924 17.1718 0.0000 0.0000 0.0000
# 2 17.4924 118.2500 65.4001 0.0000 0.0000 0.0000
# 3 17.1718 65.4001 114.6634 0.0000 0.0000 0.0000
# 4 0.0000 0.0000 0.0000 23.0271 0.0000 0.0000
# 5 0.0000 0.0000 0.0000 0.0000 20.5192 0.0000
# 6 0.0000 0.0000 0.0000 0.0000 0.0000 24.8296
#
#
#
# Elastic Compliance Matrix: (Units=1/GPa)
#
#
# Indices 1 2 3 4 5 6 
#
# 1 0.071156 -0.006767 -0.006796 0.000000 0.000000 0.000000
# 2 -0.006767 0.012997 -0.006400 0.000000 0.000000 0.000000
# 3 -0.006796 -0.006400 0.013389 0.000000 0.000000 0.000000
# 4 0.000000 0.000000 0.000000 0.043427 0.000000 0.000000
# 5 0.000000 0.000000 0.000000 0.000000 0.048735 0.000000
# 6 0.000000 0.000000 0.000000 0.000000 0.000000 0.040275
#
#
# Mechanical properties :
#
#
# Convention : Reuss Voigt Hill
#
# Bulk Modulus (GPa) = 17.35643 50.04438 33.70041
# Shear Modulus (GPa) = 17.29445 23.68892 20.49169
#
# Velocity S-wave (km/s) = 3.15236 3.68939 3.43140
# Velocity P-wave (km/s) = 4.81901 6.84867 5.92145
#
# Compressibility (1/GPa) = 0.05761554
#
# Stress axis : x y z
#
# Youngs Moduli (GPa) = 14.05372 76.93997 74.68706
#
# Poissons Ratio (x) = 0.52065 0.50761
# Poissons Ratio (y) = 0.09510 0.47798
# Poissons Ratio (z) = 0.09552 0.49239
#
# Static dielectric constant tensor:
#      x y z
#    x 1.594740 0.000000 0.000000 
#    y 0.000000 1.568960 0.000000 
#    z 0.000000 0.000000 1.625050 
# 
# From -- ./inp_files/21294.got.cif
#   From: 2010.05.17/outbox.cif.g08.bks.cpg/sg46_11_cif.got.tgz:21294.got - 2010.06.03 19:58:25.
