data_PCOD9378081
_publ_section_title
;
Structure prediction by ZEFSAII (Michael W. Deem and Ramdas Pophale) SiO2 
 PCOD9378081
Probable space group: I M A 2
;
_chemical_formula_sum "Si O2"
_cell_formula_units_Z 48
_cell_length_a 22.353620
_cell_length_b 12.312009
_cell_length_c 7.181496
_cell_angle_alpha 90.000000
_cell_angle_beta 90.000000
_cell_angle_gamma 90.000000
_cell_volume 1976.476755
_symmetry_space_group_name_H-M "I M A 2"
_symmetry_group_IT_number 46
_symmetry_cell_setting 'orthorhombic'
loop_
_space_group_symop_operation_xyz
x,y,z
-x,-y,z
1/2-x,y,z
1/2+x,-y,z
1/2+x,1/2+y,1/2+z
1/2-x,1/2-y,1/2+z
-x,1/2+y,1/2+z
x,1/2-y,1/2+z
loop_
_atom_site_type_symbol
_atom_site_label
_atom_site_fract_x
_atom_site_fract_y
_atom_site_fract_z
Si Si1 0.862888 0.337566 0.241610
Si Si2 0.032954 0.598065 0.492682
Si Si3 0.913242 0.610744 0.632771
Si Si4 0.317299 0.879368 0.366690
Si Si5 0.683753 0.566325 0.332025
Si Si6 0.684122 0.876715 0.395781
O O1 0.832504 0.220073 0.234848
O O2 0.824561 0.435682 0.329956
O O3 0.923095 0.337278 0.361167
O O4 0.866507 0.373838 0.028853
O O5 0.978401 0.660645 0.588773
O O6 0.000000 0.500000 0.377514
O O7 0.068498 0.519538 0.638985
O O8 0.867457 0.615194 0.460316
O O9 0.877052 0.662514 0.802894
O O10 0.250000 0.859415 0.445289
O O11 0.314295 0.002689 0.302449
O O12 0.750000 0.590814 0.401751
O O13 0.679514 0.606376 0.117578
O O14 0.750000 0.827261 0.357558
#
# Coordination Sequence:
#
# PCOD9378081 Si02
#       6
#     8   8   8   8   8   8
#     4  10  18  30  41  57  91 119 155 191 219 262
#     4   7  17  30  42  56  74 115 164 188 214 263
#     4   8  15  29  44  54  78 114 151 185 218 254
#     4  10  20  28  42  68  93 122 156 188 225 272
#     4   9  16  26  41  61  84 110 138 176 224 263
#     4   9  17  27  40  66  90 110 146 180 220 272
#
# _framework density 24.285637999999999
#
# number of rings (size 3 to 8) (size 9 to 14) (size 15 to 20)
#    1.000    2.000    0.000    3.000    4.667    0.000 
#    0.000   10.000    0.000    0.000    0.000    0.000 
#    0.000    0.000    0.000    6.000    2.667    0.000 
#
# Total GULP energy -133728.816695 kJ/mol
# GULP energy per Si atom -5572.034029 kJ/mol
# Density = 2.423036 g / cm^3
# Si number density = 24.285638 Si / 1000 Ang^3
#
#
#
# Elastic Constant Matrix: (Units=GPa)
#
#
# Indices 1 2 3 4 5 6 
#
# 1 180.9568 7.8934 56.7675 0.0000 0.0000 0.0000
# 2 7.8934 99.4438 3.8340 0.0000 0.0000 0.0000
# 3 56.7675 3.8340 62.4403 0.0000 0.0000 0.0000
# 4 0.0000 0.0000 0.0000 5.9752 0.0000 0.0000
# 5 0.0000 0.0000 0.0000 0.0000 28.9889 0.0000
# 6 0.0000 0.0000 0.0000 0.0000 0.0000 4.3854
#
#
#
# Elastic Compliance Matrix: (Units=1/GPa)
#
#
# Indices 1 2 3 4 5 6 
#
# 1 0.007743 -0.000344 -0.007018 0.000000 0.000000 0.000000
# 2 -0.000344 0.010095 -0.000307 0.000000 0.000000 0.000000
# 3 -0.007018 -0.000307 0.022415 0.000000 0.000000 0.000000
# 4 0.000000 0.000000 0.000000 0.167359 0.000000 0.000000
# 5 0.000000 0.000000 0.000000 0.000000 0.034496 0.000000
# 6 0.000000 0.000000 0.000000 0.000000 0.000000 0.228027
#
#
# Mechanical properties :
#
#
# Convention : Reuss Voigt Hill
#
# Bulk Modulus (GPa) = 40.13818 53.31454 46.72636
# Shear Modulus (GPa) = 10.12600 26.15964 18.14282
#
# Velocity S-wave (km/s) = 2.04416 3.28558 2.73620
# Velocity P-wave (km/s) = 4.70477 6.03276 5.40967
#
# Compressibility (1/GPa) = 0.02491394
#
# Stress axis : x y z
#
# Youngs Moduli (GPa) = 129.15097 99.05816 44.61334
#
# Poissons Ratio (x) = 0.03408 0.31311
# Poissons Ratio (y) = 0.04443 0.01370
# Poissons Ratio (z) = 0.90642 0.03042
#
# Static dielectric constant tensor:
#      x y z
#    x 2.035740 0.000000 0.000000 
#    y 0.000000 1.974740 0.000000 
#    z 0.000000 0.000000 1.941850 
# 
# From -- ./inp_files/6700.got.cif
#   From: 2010.05.17/outbox.cif.g08.bks.cpg/sg46_4_cif.got.tgz:6700.got - 2010.06.03 19:58:25.
