data_PCOD9378282
_publ_section_title
;
Structure prediction by ZEFSAII (Michael W. Deem and Ramdas Pophale) SiO2 
 PCOD9378282
Probable space group: I M A 2
;
_chemical_formula_sum "Si O2"
_cell_formula_units_Z 40
_cell_length_a 14.325709
_cell_length_b 15.489686
_cell_length_c 7.859045
_cell_angle_alpha 90.000000
_cell_angle_beta 90.000000
_cell_angle_gamma 90.000000
_cell_volume 1743.927855
_symmetry_space_group_name_H-M "I M A 2"
_symmetry_group_IT_number 46
_symmetry_cell_setting 'orthorhombic'
loop_
_space_group_symop_operation_xyz
x,y,z
-x,-y,z
1/2-x,y,z
1/2+x,-y,z
1/2+x,1/2+y,1/2+z
1/2-x,1/2-y,1/2+z
-x,1/2+y,1/2+z
x,1/2-y,1/2+z
loop_
_atom_site_type_symbol
_atom_site_label
_atom_site_fract_x
_atom_site_fract_y
_atom_site_fract_z
Si Si1 0.351575 0.816928 0.963760
Si Si2 0.559569 0.413216 0.167772
Si Si3 0.616238 0.425901 0.787207
Si Si4 0.101084 0.385102 0.725279
Si Si5 0.449706 0.267226 0.009098
O O1 0.250000 0.777250 0.926773
O O2 0.374567 0.891092 0.826018
O O3 0.444132 0.758129 0.951261
O O4 0.346375 0.856273 0.153316
O O5 0.500000 0.500000 0.187296
O O6 0.619990 0.418622 0.992298
O O7 0.480995 0.337583 0.150197
O O8 0.506355 0.412148 0.753431
O O9 0.648192 0.521973 0.732087
O O10 0.115743 0.320060 0.881782
O O11 0.099900 0.320807 0.566290
#
# Coordination Sequence:
#
# PCOD9378282 Si02
#       5
#     8   8   8   8   8
#     4  11  25  37  54  88 127 160 180 222 300 368
#     4  11  21  36  59  82 114 154 200 244 277 333
#     4   9  19  36  54  75 114 154 193 233 277 332
#     4   9  16  31  52  81 107 140 192 243 280 316
#     4  10  18  33  53  81 117 143 189 237 288 329
#
# _framework density 22.936729
#
# number of rings (size 3 to 8) (size 9 to 14) (size 15 to 20)
#    0.000    2.000    6.000    0.000    5.600    1.600 
#    0.000    0.000    0.000    0.000    0.000    5.600 
#    0.000    0.000    0.000    0.000    0.000    0.000 
#
# Total GULP energy -111355.873429 kJ/mol
# GULP energy per Si atom -5567.793671 kJ/mol
# Density = 2.288452 g / cm^3
# Si number density = 22.936729 Si / 1000 Ang^3
#
#
#
# Elastic Constant Matrix: (Units=GPa)
#
#
# Indices 1 2 3 4 5 6 
#
# 1 43.2631 -9.6396 4.2835 0.0000 0.0000 0.0000
# 2 -9.6396 123.7235 26.2862 0.0000 0.0000 0.0000
# 3 4.2835 26.2862 56.4218 0.0000 0.0000 0.0000
# 4 0.0000 0.0000 0.0000 25.2725 0.0000 0.0000
# 5 0.0000 0.0000 0.0000 0.0000 11.5959 0.0000
# 6 0.0000 0.0000 0.0000 0.0000 0.0000 -8.7417
#
#
#
# Elastic Compliance Matrix: (Units=1/GPa)
#
#
# Indices 1 2 3 4 5 6 
#
# 1 0.023967 0.002502 -0.002985 0.000000 0.000000 0.000000
# 2 0.002502 0.009232 -0.004491 0.000000 0.000000 0.000000
# 3 -0.002985 -0.004491 0.020042 0.000000 0.000000 0.000000
# 4 0.000000 0.000000 0.000000 0.039569 0.000000 0.000000
# 5 0.000000 0.000000 0.000000 0.000000 0.086237 0.000000
# 6 0.000000 0.000000 0.000000 0.000000 0.000000 -0.114394
#
#
# Mechanical properties :
#
#
# Convention : Reuss Voigt Hill
#
# Bulk Modulus (GPa) = 23.09852 29.47429 26.28641
# Shear Modulus (GPa) = 56.15898 19.12387 37.64143
#
# Velocity S-wave (km/s) = 4.95353 2.89063 4.05544
# Velocity P-wave (km/s) = 6.54286 4.90094 5.78049
#
# Compressibility (1/GPa) = 0.04329282
#
# Stress axis : x y z
#
# Youngs Moduli (GPa) = 41.72346 108.32408 49.89400
#
# Poissons Ratio (x) = -0.27098 0.14894
# Poissons Ratio (y) = -0.10437 0.22406
# Poissons Ratio (z) = 0.12455 0.48646
#
# Static dielectric constant tensor:
#      x y z
#    x 1.525820 0.000000 0.000000 
#    y 0.000000 1.934040 0.000000 
#    z 0.000000 0.000000 1.957960 
# 
# From -- ./inp_files/6385.got.cif
#   From: 2010.05.17/outbox.cif.g08.bks.cpg/sg46_4_cif.got.tgz:6385.got - 2010.06.03 19:58:25.
