data_PCOD9378988
_publ_section_title
;
Structure prediction by ZEFSAII (Michael W. Deem and Ramdas Pophale) SiO2 
 PCOD9378988
Probable space group: I M A 2
;
_chemical_formula_sum "Si O2"
_cell_formula_units_Z 64
_cell_length_a 20.748645
_cell_length_b 16.273826
_cell_length_c 9.883329
_cell_angle_alpha 90.000000
_cell_angle_beta 90.000000
_cell_angle_gamma 90.000000
_cell_volume 3337.203274
_symmetry_space_group_name_H-M "I M A 2"
_symmetry_group_IT_number 46
_symmetry_cell_setting 'orthorhombic'
loop_
_space_group_symop_operation_xyz
x,y,z
-x,-y,z
1/2-x,y,z
1/2+x,-y,z
1/2+x,1/2+y,1/2+z
1/2-x,1/2-y,1/2+z
-x,1/2+y,1/2+z
x,1/2-y,1/2+z
loop_
_atom_site_type_symbol
_atom_site_label
_atom_site_fract_x
_atom_site_fract_y
_atom_site_fract_z
Si Si1 0.520012 0.353831 0.297950
Si Si2 0.382825 0.089365 0.908984
Si Si3 0.563226 0.440393 0.549106
Si Si4 0.822635 0.822409 0.686849
Si Si5 0.060479 0.939554 0.532856
Si Si6 0.615678 0.652221 0.706535
Si Si7 0.826171 0.558611 0.945657
Si Si8 0.030108 0.838171 0.286434
O O1 0.447088 0.387655 0.321639
O O2 0.548847 0.367478 0.445903
O O3 0.554618 0.410867 0.187564
O O4 0.528566 0.258964 0.259374
O O5 0.327029 0.109547 0.804274
O O6 0.379705 0.143387 0.044940
O O7 0.386276 0.999077 0.974096
O O8 0.500000 0.500000 0.558703
O O9 0.573938 0.396699 0.691551
O O10 0.750000 0.791767 0.670434
O O11 0.864836 0.745745 0.734137
O O12 0.842400 0.865227 0.546766
O O13 0.048536 0.860643 0.438490
O O14 0.125843 0.986246 0.491828
O O15 0.000000 0.000000 0.506186
O O16 0.543052 0.635148 0.753442
O O17 0.658932 0.590178 0.794183
O O18 0.750000 0.540428 0.961436
#
# Coordination Sequence:
#
# PCOD9378988 Si02
#       8
#     8   8   8   8   8   8   8   8
#     4  11  22  34  56  87 119 148 191 248 310 358
#     4  11  22  36  59  81 121 161 199 248 300 356
#     4  10  19  35  50  78 112 150 186 240 299 351
#     4  11  24  39  57  84 122 170 210 238 284 364
#     4  12  23  37  62  89 119 157 206 254 306 358
#     4  12  22  36  57  87 127 163 197 246 299 367
#     4  11  25  43  61  87 124 169 213 252 298 362
#     4  12  22  35  56  89 122 152 194 250 312 365
#
# _framework density 19.177734999999998
#
# number of rings (size 3 to 8) (size 9 to 14) (size 15 to 20)
#    0.000    0.750    5.000    5.625    0.000    2.000 
#    0.000    0.000    0.000    0.750    0.000    1.750 
#    0.000    0.000    0.000    0.000    0.000    0.000 
#
# Total GULP energy -178575.843710 kJ/mol
# GULP energy per Si atom -5580.495116 kJ/mol
# Density = 1.913409 g / cm^3
# Si number density = 19.177735 Si / 1000 Ang^3
#
#
#
# Elastic Constant Matrix: (Units=GPa)
#
#
# Indices 1 2 3 4 5 6 
#
# 1 53.9425 25.2564 11.1251 0.0000 0.0000 0.0000
# 2 25.2564 81.6920 14.3678 0.0000 0.0000 0.0000
# 3 11.1251 14.3678 81.7084 0.0000 0.0000 0.0000
# 4 0.0000 0.0000 0.0000 33.9760 0.0000 0.0000
# 5 0.0000 0.0000 0.0000 0.0000 17.5921 0.0000
# 6 0.0000 0.0000 0.0000 0.0000 0.0000 13.5141
#
#
#
# Elastic Compliance Matrix: (Units=1/GPa)
#
#
# Indices 1 2 3 4 5 6 
#
# 1 0.021944 -0.006459 -0.001852 0.000000 0.000000 0.000000
# 2 -0.006459 0.014533 -0.001676 0.000000 0.000000 0.000000
# 3 -0.001852 -0.001676 0.012786 0.000000 0.000000 0.000000
# 4 0.000000 0.000000 0.000000 0.029433 0.000000 0.000000
# 5 0.000000 0.000000 0.000000 0.000000 0.056844 0.000000
# 6 0.000000 0.000000 0.000000 0.000000 0.000000 0.073997
#
#
# Mechanical properties :
#
#
# Convention : Reuss Voigt Hill
#
# Bulk Modulus (GPa) = 34.14283 35.42684 34.78484
# Shear Modulus (GPa) = 20.89668 24.12267 22.50968
#
# Velocity S-wave (km/s) = 3.30454 3.55046 3.42971
# Velocity P-wave (km/s) = 5.69227 5.94312 5.81905
#
# Compressibility (1/GPa) = 0.02928872
#
# Stress axis : x y z
#
# Youngs Moduli (GPa) = 45.57004 68.81036 78.21332
#
# Poissons Ratio (x) = 0.44442 0.14486
# Poissons Ratio (y) = 0.29432 0.13109
# Poissons Ratio (z) = 0.08440 0.11533
#
# Static dielectric constant tensor:
#      x y z
#    x 1.679030 0.000000 0.000000 
#    y 0.000000 1.693170 0.000000 
#    z 0.000000 0.000000 1.685690 
# 
# From -- ./inp_files/7975.got.cif
#   From: 2010.05.17/outbox.cif.g08.bks.cpg/sg46_4_cif.got.tgz:7975.got - 2010.06.03 19:58:25.
