data_PCOD9378774
_publ_section_title
;
Structure prediction by ZEFSAII (Michael W. Deem and Ramdas Pophale) SiO2 
 PCOD9378774
Probable space group: I M A 2
;
_chemical_formula_sum "Si O2"
_cell_formula_units_Z 64
_cell_length_a 8.916941
_cell_length_b 20.090133
_cell_length_c 20.939756
_cell_angle_alpha 90.000000
_cell_angle_beta 90.000000
_cell_angle_gamma 90.000000
_cell_volume 3751.200881
_symmetry_space_group_name_H-M "I M A 2"
_symmetry_group_IT_number 46
_symmetry_cell_setting 'orthorhombic'
loop_
_space_group_symop_operation_xyz
x,y,z
-x,-y,z
1/2-x,y,z
1/2+x,-y,z
1/2+x,1/2+y,1/2+z
1/2-x,1/2-y,1/2+z
-x,1/2+y,1/2+z
x,1/2-y,1/2+z
loop_
_atom_site_type_symbol
_atom_site_label
_atom_site_fract_x
_atom_site_fract_y
_atom_site_fract_z
Si Si1 0.430471 0.213198 0.222940
Si Si2 0.427122 0.070697 0.802503
Si Si3 0.071135 0.707384 0.106932
Si Si4 0.929089 0.295712 0.963029
Si Si5 0.570968 0.930743 0.416906
Si Si6 0.427387 0.070776 0.648852
Si Si7 0.569894 0.206688 0.841701
Si Si8 0.570629 0.931341 0.266742
O O1 0.250000 0.218762 0.225469
O O2 0.492048 0.246375 0.158952
O O3 0.499223 0.252329 0.283061
O O4 0.473165 0.135685 0.230182
O O5 0.250000 0.070457 0.815524
O O6 0.445876 0.079220 0.725670
O O7 0.506507 0.132292 0.836737
O O8 0.500000 0.000000 0.819498
O O9 0.250000 0.707616 0.117376
O O10 0.009208 0.632691 0.116394
O O11 0.039223 0.729026 0.034412
O O12 0.750000 0.306945 0.958271
O O13 0.971043 0.244156 0.907349
O O14 0.009884 0.365850 0.951746
O O15 0.750000 0.934217 0.421637
O O16 0.528992 0.923459 0.341675
O O17 0.500000 0.000000 0.440065
O O18 0.250000 0.071047 0.634813
O O19 0.500000 0.000000 0.631298
O O20 0.750000 0.205835 0.835676
O O21 0.750000 0.937071 0.264266
O O22 0.500000 0.000000 0.243088
#
# Coordination Sequence:
#
# PCOD9378774 Si02
#       8
#     8   8   8   8   8   8   8   8
#     4  11  21  36  56  83 112 141 182 228 273 325
#     4  10  20  34  55  83 114 142 178 225 273 324
#     4  11  23  38  55  78 110 148 187 226 272 323
#     4  10  23  39  54  78 111 147 187 227 269 325
#     4  10  19  33  53  78 109 147 185 223 269 321
#     4  10  20  34  53  78 110 146 184 224 268 322
#     4  11  21  35  58  83 109 144 183 226 275 322
#     4   9  19  33  53  81 111 139 175 223 269 320
#
# _framework density 17.061202999999999
#
# number of rings (size 3 to 8) (size 9 to 14) (size 15 to 20)
#    0.000    1.750    2.500    2.250    0.000    4.500 
#    0.000    0.000    0.000    0.750    0.000    1.750 
#    0.000    0.000    0.000    0.000    0.000    0.000 
#
# Total GULP energy -178730.331852 kJ/mol
# GULP energy per Si atom -5585.322870 kJ/mol
# Density = 1.702237 g / cm^3
# Si number density = 17.061203 Si / 1000 Ang^3
#
#
#
# Elastic Constant Matrix: (Units=GPa)
#
#
# Indices 1 2 3 4 5 6 
#
# 1 64.9287 55.0285 54.0032 0.0000 0.0000 0.0000
# 2 55.0285 140.0328 68.3136 0.0000 0.0000 0.0000
# 3 54.0032 68.3136 98.9438 0.0000 0.0000 0.0000
# 4 0.0000 0.0000 0.0000 18.9358 0.0000 0.0000
# 5 0.0000 0.0000 0.0000 0.0000 -27.5693 0.0000
# 6 0.0000 0.0000 0.0000 0.0000 0.0000 34.0434
#
#
#
# Elastic Compliance Matrix: (Units=1/GPa)
#
#
# Indices 1 2 3 4 5 6 
#
# 1 0.031188 -0.005959 -0.012908 0.000000 0.000000 0.000000
# 2 -0.005959 0.011907 -0.004968 0.000000 0.000000 0.000000
# 3 -0.012908 -0.004968 0.020582 0.000000 0.000000 0.000000
# 4 0.000000 0.000000 0.000000 0.052810 0.000000 0.000000
# 5 0.000000 0.000000 0.000000 0.000000 -0.036272 0.000000
# 6 0.000000 0.000000 0.000000 0.000000 0.000000 0.029374
#
#
# Mechanical properties :
#
#
# Convention : Reuss Voigt Hill
#
# Bulk Modulus (GPa) = 62.47596 73.17730 67.82663
# Shear Modulus (GPa) = 30.75146 13.51934 22.13540
#
# Velocity S-wave (km/s) = 4.25010 2.81802 3.60587
# Velocity P-wave (km/s) = 7.79632 7.31932 7.56159
#
# Compressibility (1/GPa) = 0.01600616
#
# Stress axis : x y z
#
# Youngs Moduli (GPa) = 32.06401 83.98754 48.58563
#
# Poissons Ratio (x) = 0.50046 0.62715
# Poissons Ratio (y) = 0.19106 0.24139
# Poissons Ratio (z) = 0.41388 0.41728
#
# Static dielectric constant tensor:
#      x y z
#    x 1.568110 0.000000 0.000000 
#    y 0.000000 1.559430 0.000000 
#    z 0.000000 0.000000 1.574860 
# 
# From -- ./inp_files/18530.got.cif
#   From: 2010.05.17/outbox.cif.g08.bks.cpg/sg46_10_cif.got.tgz:18530.got - 2010.06.03 19:58:25.
