data_PCOD9378329
_publ_section_title
;
Structure prediction by ZEFSAII (Michael W. Deem and Ramdas Pophale) SiO2 
 PCOD9378329
Probable space group: I M A 2
;
_chemical_formula_sum "Si O2"
_cell_formula_units_Z 64
_cell_length_a 8.533630
_cell_length_b 25.704896
_cell_length_c 15.442326
_cell_angle_alpha 90.000000
_cell_angle_beta 90.000000
_cell_angle_gamma 90.000000
_cell_volume 3387.367969
_symmetry_space_group_name_H-M "I M A 2"
_symmetry_group_IT_number 46
_symmetry_cell_setting 'orthorhombic'
loop_
_space_group_symop_operation_xyz
x,y,z
-x,-y,z
1/2-x,y,z
1/2+x,-y,z
1/2+x,1/2+y,1/2+z
1/2-x,1/2-y,1/2+z
-x,1/2+y,1/2+z
x,1/2-y,1/2+z
loop_
_atom_site_type_symbol
_atom_site_label
_atom_site_fract_x
_atom_site_fract_y
_atom_site_fract_z
Si Si1 0.058870 0.393147 0.685150
Si Si2 0.563310 0.641876 0.012044
Si Si3 0.936198 0.722246 0.715761
Si Si4 0.936756 0.556513 0.507523
Si Si5 0.061648 0.852732 0.887453
Si Si6 0.560745 0.941636 0.368449
Si Si7 0.563129 0.235590 0.406088
Si Si8 0.063753 0.834899 0.689339
O O1 0.250000 0.393057 0.686341
O O2 0.010966 0.332823 0.676703
O O3 0.005329 0.426506 0.603200
O O4 0.007180 0.416949 0.776899
O O5 0.750000 0.647635 0.004418
O O6 0.516929 0.634432 0.111553
O O7 0.512494 0.595672 0.947670
O O8 0.483260 0.694837 0.978940
O O9 0.750000 0.728007 0.703096
O O10 0.974364 0.719543 0.818140
O O11 0.019978 0.773879 0.681919
O O12 0.750000 0.554304 0.510694
O O13 0.000000 0.500000 0.484018
O O14 0.987306 0.600867 0.440727
O O15 0.250000 0.857536 0.890738
O O16 0.020267 0.795565 0.924668
O O17 0.014727 0.851807 0.786103
O O18 0.750000 0.942598 0.367186
O O19 0.500000 0.000000 0.377564
O O20 0.750000 0.234133 0.389837
O O21 0.250000 0.840467 0.682935
#
# Coordination Sequence:
#
# PCOD9378329 Si02
#       8
#     8   8   8   8   8   8   8   8
#     4   9  19  36  56  84 119 154 191 235 284 345
#     4  11  22  37  59  86 119 159 200 243 292 353
#     4  10  18  34  57  84 120 158 195 234 285 350
#     4  11  23  39  61  86 115 152 199 247 295 349
#     4   9  21  41  60  82 116 153 192 244 299 351
#     4  10  21  39  59  83 117 155 197 241 289 347
#     4  10  20  35  56  86 121 155 193 239 292 347
#     4  10  22  39  58  85 121 155 194 246 301 355
#
# _framework density 18.893723999999999
#
# number of rings (size 3 to 8) (size 9 to 14) (size 15 to 20)
#    0.000    2.000    1.250    3.000    1.750    4.000 
#    0.000    3.125    0.000    1.500    0.000    0.000 
#    0.000    0.000    0.000    0.000    0.000    0.000 
#
# Total GULP energy -178717.354162 kJ/mol
# GULP energy per Si atom -5584.917318 kJ/mol
# Density = 1.885072 g / cm^3
# Si number density = 18.893724 Si / 1000 Ang^3
#
#
#
# Elastic Constant Matrix: (Units=GPa)
#
#
# Indices 1 2 3 4 5 6 
#
# 1 23.4606 22.7791 17.2197 0.0000 0.0000 0.0000
# 2 22.7791 130.6814 68.9769 0.0000 0.0000 0.0000
# 3 17.2197 68.9769 97.2467 0.0000 0.0000 0.0000
# 4 0.0000 0.0000 0.0000 26.2751 0.0000 0.0000
# 5 0.0000 0.0000 0.0000 0.0000 25.3728 0.0000
# 6 0.0000 0.0000 0.0000 0.0000 0.0000 29.8326
#
#
#
# Elastic Compliance Matrix: (Units=1/GPa)
#
#
# Indices 1 2 3 4 5 6 
#
# 1 0.052504 -0.006785 -0.004484 0.000000 0.000000 0.000000
# 2 -0.006785 0.013108 -0.008096 0.000000 0.000000 0.000000
# 3 -0.004484 -0.008096 0.016820 0.000000 0.000000 0.000000
# 4 0.000000 0.000000 0.000000 0.038059 0.000000 0.000000
# 5 0.000000 0.000000 0.000000 0.000000 0.039412 0.000000
# 6 0.000000 0.000000 0.000000 0.000000 0.000000 0.033520
#
#
# Mechanical properties :
#
#
# Convention : Reuss Voigt Hill
#
# Bulk Modulus (GPa) = 22.88282 52.14889 37.51586
# Shear Modulus (GPa) = 20.26572 25.79031 23.02802
#
# Velocity S-wave (km/s) = 3.27864 3.69863 3.49495
# Velocity P-wave (km/s) = 5.14492 6.77502 6.01544
#
# Compressibility (1/GPa) = 0.04370091
#
# Stress axis : x y z
#
# Youngs Moduli (GPa) = 19.04611 76.28757 59.45358
#
# Poissons Ratio (x) = 0.51761 0.26662
# Poissons Ratio (y) = 0.12923 0.48135
# Poissons Ratio (z) = 0.08541 0.61764
#
# Static dielectric constant tensor:
#      x y z
#    x 1.638220 0.000000 0.000000 
#    y 0.000000 1.630820 0.000000 
#    z 0.000000 0.000000 1.670940 
# 
# From -- ./inp_files/14431.got.cif
#   From: 2010.05.17/outbox.cif.g08.bks.cpg/sg46_8_cif.got.tgz:14431.got - 2010.06.03 19:58:25.
