data_PCOD9378744
_publ_section_title
;
Structure prediction by ZEFSAII (Michael W. Deem and Ramdas Pophale) SiO2 
 PCOD9378744
Probable space group: I M A 2
;
_chemical_formula_sum "Si O2"
_cell_formula_units_Z 64
_cell_length_a 8.753376
_cell_length_b 31.039527
_cell_length_c 14.521711
_cell_angle_alpha 90.000000
_cell_angle_beta 90.000000
_cell_angle_gamma 90.000000
_cell_volume 3945.558328
_symmetry_space_group_name_H-M "I M A 2"
_symmetry_group_IT_number 46
_symmetry_cell_setting 'orthorhombic'
loop_
_space_group_symop_operation_xyz
x,y,z
-x,-y,z
1/2-x,y,z
1/2+x,-y,z
1/2+x,1/2+y,1/2+z
1/2-x,1/2-y,1/2+z
-x,1/2+y,1/2+z
x,1/2-y,1/2+z
loop_
_atom_site_type_symbol
_atom_site_label
_atom_site_fract_x
_atom_site_fract_y
_atom_site_fract_z
Si Si1 0.924856 0.822741 0.793600
Si Si2 0.068466 0.714559 0.590329
Si Si3 0.566060 0.453894 0.211467
Si Si4 0.431188 0.730810 0.804705
Si Si5 0.927081 0.867518 0.990740
Si Si6 0.431510 0.298411 0.986272
Si Si7 0.433147 0.546574 0.426402
Si Si8 0.930474 0.133916 0.622010
O O1 0.750000 0.823394 0.758725
O O2 0.932782 0.850560 0.885663
O O3 0.975699 0.774808 0.817879
O O4 0.037952 0.840274 0.716355
O O5 0.250000 0.718317 0.574339
O O6 0.040797 0.716007 0.700053
O O7 0.008430 0.669622 0.549594
O O8 0.990103 0.755698 0.541049
O O9 0.500000 0.500000 0.183939
O O10 0.750000 0.455348 0.210044
O O11 0.520721 0.446136 0.318574
O O12 0.517721 0.414550 0.146297
O O13 0.250000 0.738528 0.814869
O O14 0.489187 0.700591 0.886485
O O15 0.750000 0.870873 0.018109
O O16 0.004748 0.914250 0.987540
O O17 0.250000 0.295557 0.977113
O O18 0.480244 0.340205 0.044233
O O19 0.500000 0.500000 0.452664
O O20 0.250000 0.545583 0.429833
O O21 0.750000 0.134107 0.601708
#
# Coordination Sequence:
#
# PCOD9378744 Si02
#       8
#     8   8   8   8   8   8   8   8
#     4  11  21  31  49  76 107 141 178 219 260 305
#     4  11  23  37  55  76 102 139 179 219 263 315
#     4   9  19  32  50  74 103 137 172 213 259 308
#     4  11  23  38  55  74 103 141 180 221 264 312
#     4  11  22  34  51  77 107 142 179 217 262 314
#     4  12  24  36  53  77 105 139 178 222 265 310
#     4  10  19  33  51  75 106 140 177 217 262 313
#     4  11  21  35  52  75 105 143 182 216 260 315
#
# _framework density 16.220770999999999
#
# number of rings (size 3 to 8) (size 9 to 14) (size 15 to 20)
#    0.000    1.250    3.750    3.375    0.000    4.000 
#    0.000    0.000    0.000    0.000    0.000    0.875 
#    0.000    4.000    0.000    0.000    0.000    0.000 
#
# Total GULP energy -178694.016905 kJ/mol
# GULP energy per Si atom -5584.188028 kJ/mol
# Density = 1.618385 g / cm^3
# Si number density = 16.220771 Si / 1000 Ang^3
#
#
#
# Elastic Constant Matrix: (Units=GPa)
#
#
# Indices 1 2 3 4 5 6 
#
# 1 62.1586 24.9445 21.9092 0.0001 0.0002 0.0000
# 2 24.9445 94.9516 13.1500 0.0001 0.0012 0.0000
# 3 21.9092 13.1500 48.1638 0.0003 -0.0009 0.0000
# 4 0.0001 0.0001 0.0003 20.5388 0.0001 0.0000
# 5 0.0002 0.0012 -0.0009 0.0001 -322.1115 0.0000
# 6 0.0000 0.0000 0.0000 0.0000 0.0000 25.9340
#
#
#
# Elastic Compliance Matrix: (Units=1/GPa)
#
#
# Indices 1 2 3 4 5 6 
#
# 1 0.020723 -0.004301 -0.008252 0.000000 0.000000 0.000000
# 2 -0.004301 0.011838 -0.001276 0.000000 0.000000 0.000000
# 3 -0.008252 -0.001276 0.024865 0.000000 0.000000 0.000000
# 4 0.000000 0.000000 0.000000 0.048688 0.000000 0.000000
# 5 0.000000 0.000000 0.000000 0.000000 -0.003105 0.000000
# 6 0.000000 0.000000 0.000000 0.000000 0.000000 0.038559
#
#
# Mechanical properties :
#
#
# Convention : Reuss Voigt Hill
#
# Bulk Modulus (GPa) = 33.59355 36.14238 34.86797
# Shear Modulus (GPa) = 27.90971 -45.44306 -8.76667
#
# Velocity S-wave (km/s) = 4.15253 -5.29869 -2.32730
# Velocity P-wave (km/s) = 6.61411 3.88651 3.78428
#
# Compressibility (1/GPa) = 0.02976762
#
# Stress axis : x y z
#
# Youngs Moduli (GPa) = 48.25643 84.47162 40.21778
#
# Poissons Ratio (x) = 0.36332 0.33188
# Poissons Ratio (y) = 0.20756 0.05130
# Poissons Ratio (z) = 0.39822 0.10775
#
# Static dielectric constant tensor:
#      x y z
#    x 1.642180 0.000000 0.000000 
#    y 0.000000 1.542110 0.000000 
#    z 0.000000 0.000000 1.535110 
# 
# From -- ./inp_files/14766.got.cif
#   From: 2010.05.17/outbox.cif.g08.bks.cpg/sg46_8_cif.got.tgz:14766.got - 2010.06.03 19:58:25.
