data_PCOD9378805
_publ_section_title
;
Structure prediction by ZEFSAII (Michael W. Deem and Ramdas Pophale) SiO2 
 PCOD9378805
Probable space group: I M A 2
;
_chemical_formula_sum "Si O2"
_cell_formula_units_Z 64
_cell_length_a 13.899390
_cell_length_b 8.505047
_cell_length_c 19.798175
_cell_angle_alpha 90.000000
_cell_angle_beta 90.000000
_cell_angle_gamma 90.000000
_cell_volume 2340.440569
_symmetry_space_group_name_H-M "I M A 2"
_symmetry_group_IT_number 46
_symmetry_cell_setting 'orthorhombic'
loop_
_space_group_symop_operation_xyz
x,y,z
-x,-y,z
1/2-x,y,z
1/2+x,-y,z
1/2+x,1/2+y,1/2+z
1/2-x,1/2-y,1/2+z
-x,1/2+y,1/2+z
x,1/2-y,1/2+z
loop_
_atom_site_type_symbol
_atom_site_label
_atom_site_fract_x
_atom_site_fract_y
_atom_site_fract_z
Si Si1 0.631464 0.583456 0.042670
Si Si2 0.366749 0.070275 0.792716
Si Si3 0.358754 0.775991 0.618439
Si Si4 0.368120 0.578923 0.741314
Si Si5 0.633165 0.741263 0.669873
Si Si6 0.366234 0.749168 0.867617
Si Si7 0.896046 0.437454 0.497120
Si Si8 0.642066 0.752352 0.416333
O O1 0.750000 0.581398 0.038737
O O2 0.599729 0.421454 0.076607
O O3 0.602937 0.723245 0.093869
O O4 0.598215 0.622448 0.967436
O O5 0.250000 0.078808 0.795272
O O6 0.394540 0.112719 0.717442
O O7 0.403900 0.199982 0.846206
O O8 0.390323 0.900984 0.821338
O O9 0.250000 0.827130 0.635885
O O10 0.401154 0.712990 0.688212
O O11 0.353092 0.631422 0.565533
O O12 0.250000 0.583505 0.740418
O O13 0.397499 0.415438 0.707919
O O14 0.395603 0.606215 0.819107
O O15 0.750000 0.734995 0.667783
O O16 0.250000 0.740663 0.875724
O O17 0.401440 0.797086 0.941758
O O18 0.850208 0.587190 0.458486
O O19 0.000000 0.500000 0.513852
O O20 0.750000 0.808332 0.400231
#
# Coordination Sequence:
#
# PCOD9378805 Si02
#       8
#     8   8   8   8   8   8   8   8
#     4   9  17  28  48  76 105 133 169 219 279 335
#     4   8  14  24  41  64  94 126 159 199 250 305
#     4  10  19  33  54  82 110 140 181 236 289 338
#     4   9  17  28  50  81 110 135 169 220 278 330
#     4   9  15  24  41  73 109 134 158 205 268 327
#     4   9  17  32  53  78 106 141 183 232 282 332
#     4  11  22  35  53  76 110 153 191 227 276 344
#     4   9  17  32  52  74  98 130 172 222 272 325
#
# _framework density 27.345278
#
# number of rings (size 3 to 8) (size 9 to 14) (size 15 to 20)
#    0.000    2.750    0.000    3.375    0.000    6.000 
#    0.000    4.375    0.000    7.500    0.000    0.000 
#    0.000    0.000    0.000    0.000    0.000    0.000 
#
# Total GULP energy -179181.722968 kJ/mol
# GULP energy per Si atom -5599.428843 kJ/mol
# Density = 2.728304 g / cm^3
# Si number density = 27.345278 Si / 1000 Ang^3
#
#
#
# Elastic Constant Matrix: (Units=GPa)
#
#
# Indices 1 2 3 4 5 6 
#
# 1 100.3903 31.8968 21.0330 0.0000 0.0000 0.0000
# 2 31.8968 68.9390 7.7119 0.0000 0.0000 0.0000
# 3 21.0330 7.7119 126.8703 0.0000 0.0000 0.0000
# 4 0.0000 0.0000 0.0000 47.8885 0.0000 0.0000
# 5 0.0000 0.0000 0.0000 0.0000 -18.2760 0.0000
# 6 0.0000 0.0000 0.0000 0.0000 0.0000 20.9839
#
#
#
# Elastic Compliance Matrix: (Units=1/GPa)
#
#
# Indices 1 2 3 4 5 6 
#
# 1 0.012018 -0.005374 -0.001666 0.000000 0.000000 0.000000
# 2 -0.005374 0.017008 -0.000143 0.000000 0.000000 0.000000
# 3 -0.001666 -0.000143 0.008167 0.000000 0.000000 0.000000
# 4 0.000000 0.000000 0.000000 0.020882 0.000000 0.000000
# 5 0.000000 0.000000 0.000000 0.000000 -0.054717 0.000000
# 6 0.000000 0.000000 0.000000 0.000000 0.000000 0.047656
#
#
# Mechanical properties :
#
#
# Convention : Reuss Voigt Hill
#
# Bulk Modulus (GPa) = 43.80709 46.38699 45.09704
# Shear Modulus (GPa) = 68.50479 25.82313 47.16396
#
# Velocity S-wave (km/s) = 5.01061 3.07634 4.15752
# Velocity P-wave (km/s) = 7.03773 5.44231 6.29080
#
# Compressibility (1/GPa) = 0.02282735
#
# Stress axis : x y z
#
# Youngs Moduli (GPa) = 83.21158 58.79586 122.44556
#
# Poissons Ratio (x) = 0.31597 0.20395
# Poissons Ratio (y) = 0.44718 0.01750
# Poissons Ratio (z) = 0.13860 0.00840
#
# Static dielectric constant tensor:
#      x y z
#    x 2.196640 0.000000 0.000000 
#    y 0.000000 2.118420 0.000000 
#    z 0.000000 0.000000 2.018090 
# 
# From -- ./inp_files/22472.got.cif
#   From: 2010.05.17/outbox.cif.g08.bks.cpg/sg46_12_cif.got.tgz:22472.got - 2010.06.03 19:58:25.
