data_PCOD9378118
_publ_section_title
;
Structure prediction by ZEFSAII (Michael W. Deem and Ramdas Pophale) SiO2 
 PCOD9378118
Probable space group: I M A 2
;
_chemical_formula_sum "Si O2"
_cell_formula_units_Z 48
_cell_length_a 16.542199
_cell_length_b 18.809686
_cell_length_c 9.109893
_cell_angle_alpha 90.000000
_cell_angle_beta 90.000000
_cell_angle_gamma 90.000000
_cell_volume 2834.575720
_symmetry_space_group_name_H-M "I M A 2"
_symmetry_group_IT_number 46
_symmetry_cell_setting 'orthorhombic'
loop_
_space_group_symop_operation_xyz
x,y,z
-x,-y,z
1/2-x,y,z
1/2+x,-y,z
1/2+x,1/2+y,1/2+z
1/2-x,1/2-y,1/2+z
-x,1/2+y,1/2+z
x,1/2-y,1/2+z
loop_
_atom_site_type_symbol
_atom_site_label
_atom_site_fract_x
_atom_site_fract_y
_atom_site_fract_z
Si Si1 0.024516 0.919897 0.334020
Si Si2 0.654136 0.172704 0.477249
Si Si3 0.414625 0.292455 0.826530
Si Si4 0.925750 0.296755 0.290017
Si Si5 0.001820 0.082001 0.984778
Si Si6 0.657883 0.671650 0.523530
O O1 0.108687 0.893543 0.400931
O O2 0.957707 0.862950 0.388740
O O3 0.024812 0.913588 0.156127
O O4 0.000000 0.000000 0.371247
O O5 0.750000 0.164506 0.481960
O O6 0.628976 0.242092 0.382688
O O7 0.616834 0.183534 0.638676
O O8 0.489768 0.245562 0.763560
O O9 0.356257 0.315063 0.695601
O O10 0.368796 0.243774 0.942056
O O11 0.947796 0.365709 0.386507
O O12 0.000000 0.000000 0.939293
O O13 0.093047 0.112093 0.978126
O O14 0.750000 0.653491 0.490652
#
# Coordination Sequence:
#
# PCOD9378118 Si02
#       6
#     8   8   8   8   8   8
#     4   9  18  35  55  74 101 138 173 205 252 317
#     4  11  21  34  53  80 105 132 174 225 264 300
#     4   9  17  31  51  72  96 130 165 196 246 305
#     4  10  19  34  55  75 102 138 173 209 258 316
#     4   9  19  36  55  74 101 139 174 203 253 318
#     4  10  18  30  49  75  99 123 161 210 247 286
#
# _framework density 16.933751000000001
#
# number of rings (size 3 to 8) (size 9 to 14) (size 15 to 20)
#    0.000    2.333    0.000    6.000    0.000    0.667 
#    0.000   10.833    0.000    0.000    0.000    0.000 
#    0.000    0.000    0.000    0.000    0.000    0.000 
#
# Total GULP energy -133873.806727 kJ/mol
# GULP energy per Si atom -5578.075280 kJ/mol
# Density = 1.689521 g / cm^3
# Si number density = 16.933751 Si / 1000 Ang^3
#
#
#
# Elastic Constant Matrix: (Units=GPa)
#
#
# Indices 1 2 3 4 5 6 
#
# 1 130.2087 53.6130 53.6643 0.0000 0.0000 0.0000
# 2 53.6130 138.7191 40.1188 0.0000 0.0000 0.0000
# 3 53.6643 40.1188 55.6078 0.0000 0.0000 0.0000
# 4 0.0000 0.0000 0.0000 23.1536 0.0000 0.0000
# 5 0.0000 0.0000 0.0000 0.0000 14.4884 0.0000
# 6 0.0000 0.0000 0.0000 0.0000 0.0000 7.5871
#
#
#
# Elastic Compliance Matrix: (Units=1/GPa)
#
#
# Indices 1 2 3 4 5 6 
#
# 1 0.013089 -0.001776 -0.011350 0.000000 0.000000 0.000000
# 2 -0.001776 0.009351 -0.005032 0.000000 0.000000 0.000000
# 3 -0.011350 -0.005032 0.032567 0.000000 0.000000 0.000000
# 4 0.000000 0.000000 0.000000 0.043190 0.000000 0.000000
# 5 0.000000 0.000000 0.000000 0.000000 0.069021 0.000000
# 6 0.000000 0.000000 0.000000 0.000000 0.000000 0.131802
#
#
# Mechanical properties :
#
#
# Convention : Reuss Voigt Hill
#
# Bulk Modulus (GPa) = 53.50467 68.81420 61.15944
# Shear Modulus (GPa) = 14.63844 20.85512 17.74678
#
# Velocity S-wave (km/s) = 2.94335 3.51318 3.24081
# Velocity P-wave (km/s) = 6.57390 7.56189 7.08513
#
# Compressibility (1/GPa) = 0.01868996
#
# Stress axis : x y z
#
# Youngs Moduli (GPa) = 76.39851 106.94539 30.70585
#
# Poissons Ratio (x) = 0.18996 0.34852
# Poissons Ratio (y) = 0.13570 0.15451
# Poissons Ratio (z) = 0.86715 0.53814
#
# Static dielectric constant tensor:
#      x y z
#    x 1.557950 0.000000 0.000000 
#    y 0.000000 1.563660 0.000000 
#    z 0.000000 0.000000 1.575320 
# 
# From -- ./inp_files/5688.got.cif
#   From: 2010.05.17/outbox.cif.g08.bks.cpg/sg46_3_cif.got.tgz:5688.got - 2010.06.03 19:58:25.
