data_PCOD9378192
_publ_section_title
;
Structure prediction by ZEFSAII (Michael W. Deem and Ramdas Pophale) SiO2 
 PCOD9378192
Probable space group: I M A 2
;
_chemical_formula_sum "Si O2"
_cell_formula_units_Z 56
_cell_length_a 8.598531
_cell_length_b 15.048819
_cell_length_c 22.329415
_cell_angle_alpha 90.000000
_cell_angle_beta 90.000000
_cell_angle_gamma 90.000000
_cell_volume 2889.375762
_symmetry_space_group_name_H-M "I M A 2"
_symmetry_group_IT_number 46
_symmetry_cell_setting 'orthorhombic'
loop_
_space_group_symop_operation_xyz
x,y,z
-x,-y,z
1/2-x,y,z
1/2+x,-y,z
1/2+x,1/2+y,1/2+z
1/2-x,1/2-y,1/2+z
-x,1/2+y,1/2+z
x,1/2-y,1/2+z
loop_
_atom_site_type_symbol
_atom_site_label
_atom_site_fract_x
_atom_site_fract_y
_atom_site_fract_z
Si Si1 0.060525 0.784866 0.527300
Si Si2 0.936283 0.786951 0.303987
Si Si3 0.563349 0.403703 0.699554
Si Si4 0.063002 0.594994 0.137398
Si Si5 0.436483 0.900302 0.413973
Si Si6 0.063929 0.405342 0.271845
Si Si7 0.936844 0.405402 0.559214
O O1 0.250000 0.784068 0.526243
O O2 0.016261 0.829502 0.590398
O O3 0.008578 0.846080 0.472554
O O4 0.008173 0.682722 0.525099
O O5 0.750000 0.792177 0.307131
O O6 0.983094 0.683302 0.307342
O O7 0.992037 0.827960 0.241020
O O8 0.009254 0.846275 0.355946
O O9 0.500000 0.500000 0.719674
O O10 0.750000 0.401897 0.704321
O O11 0.520583 0.394155 0.629559
O O12 0.250000 0.592319 0.141038
O O13 0.000000 0.500000 0.115074
O O14 0.996105 0.607064 0.203788
O O15 0.250000 0.904052 0.414853
O O16 0.500000 0.000000 0.413554
O O17 0.250000 0.410203 0.270443
O O18 0.000000 0.500000 0.293880
O O19 0.750000 0.408596 0.556686
O O20 0.000000 0.500000 0.538105
#
# Coordination Sequence:
#
# PCOD9378192 Si02
#       7
#     8   8   8   8   8   8   8
#     4   9  19  35  55  78 106 142 179 216 261 315
#     4  11  23  38  55  78 108 141 181 225 267 314
#     4  10  19  32  54  82 112 145 178 217 266 320
#     4  10  18  31  53  81 112 142 174 214 263 318
#     4  11  23  40  60  80 106 140 178 220 265 314
#     4  10  21  36  55  80 110 141 176 220 266 317
#     4   9  18  34  54  79 109 139 175 216 261 314
#
# _framework density 19.381349
#
# number of rings (size 3 to 8) (size 9 to 14) (size 15 to 20)
#    0.000    2.000    0.000    4.714    0.000    4.000 
#    0.000    5.714    0.000    3.429    0.000    0.000 
#    0.000    0.000    0.000    0.000    0.000    0.000 
#
# Total GULP energy -156378.978180 kJ/mol
# GULP energy per Si atom -5584.963506 kJ/mol
# Density = 1.933724 g / cm^3
# Si number density = 19.381349 Si / 1000 Ang^3
#
#
#
# Elastic Constant Matrix: (Units=GPa)
#
#
# Indices 1 2 3 4 5 6 
#
# 1 41.2268 40.4476 16.8609 0.0000 0.0000 0.0000
# 2 40.4476 206.9073 59.7628 0.0000 0.0000 0.0000
# 3 16.8609 59.7628 42.7689 0.0000 0.0000 0.0000
# 4 0.0000 0.0000 0.0000 32.7081 0.0000 0.0000
# 5 0.0000 0.0000 0.0000 0.0000 11.5568 0.0000
# 6 0.0000 0.0000 0.0000 0.0000 0.0000 25.0286
#
#
#
# Elastic Compliance Matrix: (Units=1/GPa)
#
#
# Indices 1 2 3 4 5 6 
#
# 1 0.030990 -0.004241 -0.006291 0.000000 0.000000 0.000000
# 2 -0.004241 0.008684 -0.010463 0.000000 0.000000 0.000000
# 3 -0.006291 -0.010463 0.040482 0.000000 0.000000 0.000000
# 4 0.000000 0.000000 0.000000 0.030573 0.000000 0.000000
# 5 0.000000 0.000000 0.000000 0.000000 0.086529 0.000000
# 6 0.000000 0.000000 0.000000 0.000000 0.000000 0.039954
#
#
# Mechanical properties :
#
#
# Convention : Reuss Voigt Hill
#
# Bulk Modulus (GPa) = 26.20132 58.33840 42.26986
# Shear Modulus (GPa) = 17.12771 25.44748 21.28760
#
# Velocity S-wave (km/s) = 2.97597 3.62745 3.31774
# Velocity P-wave (km/s) = 5.03554 6.90725 6.04429
#
# Compressibility (1/GPa) = 0.03816601
#
# Stress axis : x y z
#
# Youngs Moduli (GPa) = 32.26866 115.15121 24.70241
#
# Poissons Ratio (x) = 0.48836 0.15540
# Poissons Ratio (y) = 0.13685 0.25846
# Poissons Ratio (z) = 0.20300 1.20482
#
# Static dielectric constant tensor:
#      x y z
#    x 1.656340 0.000000 0.000000 
#    y 0.000000 1.688250 0.000000 
#    z 0.000000 0.000000 1.658550 
# 
# From -- ./inp_files/21086.got.cif
#   From: 2010.05.17/outbox.cif.g08.bks.cpg/sg46_11_cif.got.tgz:21086.got - 2010.06.03 19:58:25.
