data_PCOD9378755
_publ_section_title
;
Structure prediction by ZEFSAII (Michael W. Deem and Ramdas Pophale) SiO2 
 PCOD9378755
Probable space group: I M A 2
;
_chemical_formula_sum "Si O2"
_cell_formula_units_Z 64
_cell_length_a 8.923151
_cell_length_b 11.437024
_cell_length_c 28.304621
_cell_angle_alpha 90.000000
_cell_angle_beta 90.000000
_cell_angle_gamma 90.000000
_cell_volume 2888.608061
_symmetry_space_group_name_H-M "I M A 2"
_symmetry_group_IT_number 46
_symmetry_cell_setting 'orthorhombic'
loop_
_space_group_symop_operation_xyz
x,y,z
-x,-y,z
1/2-x,y,z
1/2+x,-y,z
1/2+x,1/2+y,1/2+z
1/2-x,1/2-y,1/2+z
-x,1/2+y,1/2+z
x,1/2-y,1/2+z
loop_
_atom_site_type_symbol
_atom_site_label
_atom_site_fract_x
_atom_site_fract_y
_atom_site_fract_z
Si Si1 0.422760 0.124386 0.500000
Si Si2 0.418089 0.598944 0.279840
Si Si3 0.932867 0.122555 0.141276
Si Si4 0.916173 0.899690 0.346365
Si Si5 0.926957 0.377707 0.475462
Si Si6 0.918960 0.353740 0.747628
Si Si7 0.923362 0.875369 0.613955
Si Si8 0.420962 0.355290 0.378938
O O1 0.250000 0.128489 0.482533
O O2 0.501872 0.250780 0.489137
O O3 0.419130 0.119074 0.556973
O O4 0.500000 0.000000 0.485290
O O5 0.500000 0.500000 0.250789
O O6 0.250000 0.568205 0.293865
O O7 0.411801 0.714602 0.249956
O O8 0.517539 0.615644 0.326880
O O9 0.750000 0.121377 0.137719
O O10 0.980593 0.117635 0.196573
O O11 0.993803 0.250388 0.124685
O O12 0.000000 0.000000 0.120075
O O13 0.750000 0.938171 0.337195
O O14 0.916234 0.784030 0.376337
O O15 0.992975 0.881597 0.295445
O O16 0.000000 0.000000 0.373438
O O17 0.750000 0.377291 0.485349
O O18 0.000000 0.500000 0.495032
O O19 0.962256 0.385580 0.419403
O O20 0.750000 0.400926 0.750777
O O21 0.750000 0.870258 0.631212
O O22 0.000000 0.000000 0.629128
O O23 0.250000 0.396506 0.387372
#
# Coordination Sequence:
#
# PCOD9378755 Si02
#       8
#     8   8   8   8   8   8   8   8
#     4  10  22  43  69  96 125 158 197 241 295 357
#     4  10  19  33  52  75 105 144 192 243 295 350
#     4  11  23  39  60  89 124 162 204 250 302 359
#     4  10  20  33  53  77 105 145 192 243 295 349
#     4  12  25  41  63  91 124 162 202 248 301 357
#     4   9  20  36  53  76 109 149 193 241 293 349
#     4  10  22  42  68  95 124 159 197 242 296 356
#     4  10  21  37  54  77 110 149 194 242 295 353
#
# _framework density 22.156001
#
# number of rings (size 3 to 8) (size 9 to 14) (size 15 to 20)
#    0.000    1.750    0.000    4.125    0.000    7.000 
#    0.000    2.500    0.000    0.000    0.000    0.000 
#    0.000    0.000    0.000    0.000    0.000    0.000 
#
# Total GULP energy -178344.209788 kJ/mol
# GULP energy per Si atom -5573.256556 kJ/mol
# Density = 2.210557 g / cm^3
# Si number density = 22.156001 Si / 1000 Ang^3
#
#
#
# Elastic Constant Matrix: (Units=GPa)
#
#
# Indices 1 2 3 4 5 6 
#
# 1 140.4494 90.0676 7.4943 0.0000 0.0000 0.0000
# 2 90.0676 214.3024 15.8812 0.0000 0.0000 0.0000
# 3 7.4943 15.8812 48.9955 0.0000 0.0000 0.0000
# 4 0.0000 0.0000 0.0000 -33.7044 0.0000 0.0000
# 5 0.0000 0.0000 0.0000 0.0000 19.8059 0.0000
# 6 0.0000 0.0000 0.0000 0.0000 0.0000 44.7906
#
#
#
# Elastic Compliance Matrix: (Units=1/GPa)
#
#
# Indices 1 2 3 4 5 6 
#
# 1 0.009748 -0.004085 -0.000167 0.000000 0.000000 0.000000
# 2 -0.004085 0.006493 -0.001480 0.000000 0.000000 0.000000
# 3 -0.000167 -0.001480 0.020915 0.000000 0.000000 0.000000
# 4 0.000000 0.000000 0.000000 -0.029670 0.000000 0.000000
# 5 0.000000 0.000000 0.000000 0.000000 0.050490 0.000000
# 6 0.000000 0.000000 0.000000 0.000000 0.000000 0.022326
#
#
# Mechanical properties :
#
#
# Convention : Reuss Voigt Hill
#
# Bulk Modulus (GPa) = 38.92073 70.07037 54.49555
# Shear Modulus (GPa) = 49.83553 25.53203 37.68378
#
# Velocity S-wave (km/s) = 4.74783 3.39835 4.12860
# Velocity P-wave (km/s) = 6.90367 6.86243 6.88308
#
# Compressibility (1/GPa) = 0.02569325
#
# Stress axis : x y z
#
# Youngs Moduli (GPa) = 102.58145 154.01955 47.81205
#
# Poissons Ratio (x) = 0.62912 0.00799
# Poissons Ratio (y) = 0.41901 0.07075
# Poissons Ratio (z) = 0.01714 0.22791
#
# Static dielectric constant tensor:
#      x y z
#    x 1.828530 0.000000 0.000000 
#    y 0.000000 1.938840 0.000000 
#    z 0.000000 0.000000 1.802010 
# 
# From -- ./inp_files/25205.got.cif
#   From: 2010.05.17/outbox.cif.g08.bks.cpg/sg46_13_cif.got.tgz:25205.got - 2010.06.03 19:58:25.
