data_PCOD9378376
_publ_section_title
;
Structure prediction by ZEFSAII (Michael W. Deem and Ramdas Pophale) SiO2 
 PCOD9378376
Probable space group: I M A 2
;
_chemical_formula_sum "Si O2"
_cell_formula_units_Z 56
_cell_length_a 19.132989
_cell_length_b 16.577479
_cell_length_c 9.382377
_cell_angle_alpha 90.000000
_cell_angle_beta 90.000000
_cell_angle_gamma 90.000000
_cell_volume 2975.871594
_symmetry_space_group_name_H-M "I M A 2"
_symmetry_group_IT_number 46
_symmetry_cell_setting 'orthorhombic'
loop_
_space_group_symop_operation_xyz
x,y,z
-x,-y,z
1/2-x,y,z
1/2+x,-y,z
1/2+x,1/2+y,1/2+z
1/2-x,1/2-y,1/2+z
-x,1/2+y,1/2+z
x,1/2-y,1/2+z
loop_
_atom_site_type_symbol
_atom_site_label
_atom_site_fract_x
_atom_site_fract_y
_atom_site_fract_z
Si Si1 0.028754 0.287793 0.582900
Si Si2 0.172030 0.358390 0.487321
Si Si3 0.005642 0.137768 0.398097
Si Si4 0.323367 0.975958 0.162633
Si Si5 0.941842 0.429366 0.468712
Si Si6 0.666933 0.990795 0.762009
Si Si7 0.112731 0.994283 0.444267
O O1 0.109878 0.303419 0.543185
O O2 0.011818 0.198313 0.531371
O O3 0.011803 0.314481 0.746183
O O4 0.983956 0.346982 0.479586
O O5 0.250000 0.322052 0.483827
O O6 0.173889 0.435701 0.592231
O O7 0.157015 0.402792 0.336269
O O8 0.937241 0.083402 0.425887
O O9 0.067957 0.072569 0.400015
O O10 0.250000 0.937542 0.116251
O O11 0.326958 0.983680 0.329930
O O12 0.393012 0.933603 0.108013
O O13 0.885634 0.448809 0.345642
O O14 0.000000 0.500000 0.470110
O O15 0.750000 0.009350 0.777629
O O16 0.642739 0.993387 0.600512
#
# Coordination Sequence:
#
# PCOD9378376 Si02
#       7
#     8   8   8   8   8   8   8
#     4  12  23  41  61  94 127 163 206 260 308 371
#     4   9  19  37  61  90 126 164 204 242 302 376
#     4  11  27  38  65  93 125 158 215 256 314 361
#     4  10  18  35  64  90 115 161 209 251 297 366
#     4  11  19  35  64  90 123 162 205 248 305 364
#     4  10  22  36  61  96 125 162 208 253 304 367
#     4  11  22  42  61  92 123 163 209 260 302 367
#
# _framework density 18.818017000000001
#
# number of rings (size 3 to 8) (size 9 to 14) (size 15 to 20)
#    0.000    1.429    5.714    1.714    6.000    0.000 
#    0.000    2.143    0.000    5.143    0.000    0.000 
#    0.000    0.000    0.000    0.000    0.000    0.000 
#
# Total GULP energy -156074.398913 kJ/mol
# GULP energy per Si atom -5574.085675 kJ/mol
# Density = 1.877519 g / cm^3
# Si number density = 18.818017 Si / 1000 Ang^3
#
#
#
# Elastic Constant Matrix: (Units=GPa)
#
#
# Indices 1 2 3 4 5 6 
#
# 1 116.9850 30.1656 34.5997 0.0000 0.0000 0.0000
# 2 30.1656 72.7798 18.6343 0.0000 0.0000 0.0000
# 3 34.5997 18.6343 133.1679 0.0000 0.0000 0.0000
# 4 0.0000 0.0000 0.0000 16.3855 0.0000 0.0000
# 5 0.0000 0.0000 0.0000 0.0000 17.6422 0.0000
# 6 0.0000 0.0000 0.0000 0.0000 0.0000 10.3650
#
#
#
# Elastic Compliance Matrix: (Units=1/GPa)
#
#
# Indices 1 2 3 4 5 6 
#
# 1 0.010116 -0.003651 -0.002117 0.000000 0.000000 0.000000
# 2 -0.003651 0.015568 -0.001230 0.000000 0.000000 0.000000
# 3 -0.002117 -0.001230 0.008232 0.000000 0.000000 0.000000
# 4 0.000000 0.000000 0.000000 0.061030 0.000000 0.000000
# 5 0.000000 0.000000 0.000000 0.000000 0.056682 0.000000
# 6 0.000000 0.000000 0.000000 0.000000 0.000000 0.096478
#
#
# Mechanical properties :
#
#
# Convention : Reuss Voigt Hill
#
# Bulk Modulus (GPa) = 50.20232 54.41464 52.30848
# Shear Modulus (GPa) = 18.60525 24.84741 21.72633
#
# Velocity S-wave (km/s) = 3.14776 3.63768 3.40155
# Velocity P-wave (km/s) = 6.32036 6.82808 6.57912
#
# Compressibility (1/GPa) = 0.01991940
#
# Stress axis : x y z
#
# Youngs Moduli (GPa) = 98.85624 64.23399 121.48340
#
# Poissons Ratio (x) = 0.23449 0.25723
# Poissons Ratio (y) = 0.36088 0.14942
# Poissons Ratio (z) = 0.20932 0.07900
#
# Static dielectric constant tensor:
#      x y z
#    x 1.667390 0.000000 0.000000 
#    y 0.000000 1.628820 0.000000 
#    z 0.000000 0.000000 1.694070 
# 
# From -- ./inp_files/7422.got.cif
#   From: 2010.05.17/outbox.cif.g08.bks.cpg/sg46_4_cif.got.tgz:7422.got - 2010.06.03 19:58:25.
