data_PCOD9378113
_publ_section_title
;
Structure prediction by ZEFSAII (Michael W. Deem and Ramdas Pophale) SiO2 
 PCOD9378113
Probable space group: I M A 2
;
_chemical_formula_sum "Si O2"
_cell_formula_units_Z 56
_cell_length_a 19.269927
_cell_length_b 5.420010
_cell_length_c 25.145923
_cell_angle_alpha 90.000000
_cell_angle_beta 90.000000
_cell_angle_gamma 90.000000
_cell_volume 2626.320591
_symmetry_space_group_name_H-M "I M A 2"
_symmetry_group_IT_number 46
_symmetry_cell_setting 'orthorhombic'
loop_
_space_group_symop_operation_xyz
x,y,z
-x,-y,z
1/2-x,y,z
1/2+x,-y,z
1/2+x,1/2+y,1/2+z
1/2-x,1/2-y,1/2+z
-x,1/2+y,1/2+z
x,1/2-y,1/2+z
loop_
_atom_site_type_symbol
_atom_site_label
_atom_site_fract_x
_atom_site_fract_y
_atom_site_fract_z
Si Si1 0.503231 0.750876 0.942980
Si Si2 0.417830 0.506231 0.127417
Si Si3 0.334965 0.981118 0.302628
Si Si4 0.582701 0.507897 0.693256
Si Si5 0.168243 0.017720 0.858314
Si Si6 0.352934 0.653707 0.478427
Si Si7 0.861491 0.844353 0.515569
O O1 0.500000 0.500000 0.910798
O O2 0.500000 0.000000 0.909401
O O3 0.435831 0.789792 0.980236
O O4 0.568837 0.713544 0.981171
O O5 0.500000 0.500000 0.114839
O O6 0.404156 0.269043 0.164427
O O7 0.377653 0.455672 0.072924
O O8 0.403007 0.768250 0.155809
O O9 0.250000 0.980105 0.299466
O O10 0.369778 0.000139 0.245213
O O11 0.357360 0.215705 0.338860
O O12 0.359050 0.722297 0.327895
O O13 0.500000 0.500000 0.705999
O O14 0.250000 0.024769 0.847119
O O15 0.160720 0.958505 0.920411
O O16 0.330936 0.432810 0.517488
O O17 0.323994 0.929301 0.485625
#
# Coordination Sequence:
#
# PCOD9378113 Si02
#       7
#     8   8   8   8   8   8   8
#     4   8  15  25  40  64  97 130 163 196 236 291
#     4  10  19  32  54  80 110 147 181 217 272 334
#     4  10  21  40  62  80 104 143 187 230 277 336
#     4  10  21  36  56  84 112 139 179 234 285 322
#     4  10  21  37  58  79 100 139 191 229 272 332
#     4  10  18  30  49  73 104 134 171 219 255 300
#     4  10  18  30  49  76 109 144 176 207 253 323
#
# _framework density 21.322607999999999
#
# number of rings (size 3 to 8) (size 9 to 14) (size 15 to 20)
#    0.000    2.286    0.000    3.857    0.000    4.000 
#    0.000    6.429    0.000    5.143    0.000    0.000 
#    0.000    0.000    0.000    0.000    0.000    0.000 
#
# Total GULP energy -156009.593265 kJ/mol
# GULP energy per Si atom -5571.771188 kJ/mol
# Density = 2.127408 g / cm^3
# Si number density = 21.322608 Si / 1000 Ang^3
#
#
#
# Elastic Constant Matrix: (Units=GPa)
#
#
# Indices 1 2 3 4 5 6 
#
# 1 48.1051 29.9373 8.9212 0.0000 0.0000 0.0000
# 2 29.9373 200.2664 26.3338 0.0000 0.0000 0.0000
# 3 8.9212 26.3338 63.7840 0.0000 0.0000 0.0000
# 4 0.0000 0.0000 0.0000 37.6534 0.0000 0.0000
# 5 0.0000 0.0000 0.0000 0.0000 38.4904 0.0000
# 6 0.0000 0.0000 0.0000 0.0000 0.0000 -23.0940
#
#
#
# Elastic Compliance Matrix: (Units=1/GPa)
#
#
# Indices 1 2 3 4 5 6 
#
# 1 0.023139 -0.003207 -0.001912 0.000000 0.000000 0.000000
# 2 -0.003207 0.005725 -0.001915 0.000000 0.000000 0.000000
# 3 -0.001912 -0.001915 0.016736 0.000000 0.000000 0.000000
# 4 0.000000 0.000000 0.000000 0.026558 0.000000 0.000000
# 5 0.000000 0.000000 0.000000 0.000000 0.025980 0.000000
# 6 0.000000 0.000000 0.000000 0.000000 0.000000 -0.043301
#
#
# Mechanical properties :
#
#
# Convention : Reuss Voigt Hill
#
# Bulk Modulus (GPa) = 31.71552 49.17112 40.44332
# Shear Modulus (GPa) = 62.96036 27.07419 45.01728
#
# Velocity S-wave (km/s) = 5.43982 3.56721 4.59981
# Velocity P-wave (km/s) = 7.37305 6.33066 6.87165
#
# Compressibility (1/GPa) = 0.03153030
#
# Stress axis : x y z
#
# Youngs Moduli (GPa) = 43.21798 174.68409 59.75180
#
# Poissons Ratio (x) = 0.56030 0.11425
# Poissons Ratio (y) = 0.13862 0.11442
# Poissons Ratio (z) = 0.08263 0.33449
#
# Static dielectric constant tensor:
#      x y z
#    x 1.874420 0.000000 0.000000 
#    y 0.000000 1.918600 0.000000 
#    z 0.000000 0.000000 1.719480 
# 
# From -- ./inp_files/22543.got.cif
#   From: 2010.05.17/outbox.cif.g08.bks.cpg/sg46_12_cif.got.tgz:22543.got - 2010.06.03 19:58:25.
