data_PCOD9378255
_publ_section_title
;
Structure prediction by ZEFSAII (Michael W. Deem and Ramdas Pophale) SiO2 
 PCOD9378255
Probable space group: I M A 2
;
_chemical_formula_sum "Si O2"
_cell_formula_units_Z 48
_cell_length_a 10.200219
_cell_length_b 8.690005
_cell_length_c 29.297871
_cell_angle_alpha 90.000000
_cell_angle_beta 90.000000
_cell_angle_gamma 90.000000
_cell_volume 2596.961941
_symmetry_space_group_name_H-M "I M A 2"
_symmetry_group_IT_number 46
_symmetry_cell_setting 'orthorhombic'
loop_
_space_group_symop_operation_xyz
x,y,z
-x,-y,z
1/2-x,y,z
1/2+x,-y,z
1/2+x,1/2+y,1/2+z
1/2-x,1/2-y,1/2+z
-x,1/2+y,1/2+z
x,1/2-y,1/2+z
loop_
_atom_site_type_symbol
_atom_site_label
_atom_site_fract_x
_atom_site_fract_y
_atom_site_fract_z
Si Si1 0.750000 0.680598 0.967790
Si Si2 0.250000 0.813911 0.471142
Si Si3 0.406023 0.350173 0.213523
Si Si4 0.593854 0.849457 0.610611
Si Si5 0.750000 0.309052 0.366976
Si Si6 0.005114 0.182838 0.021302
Si Si7 0.997199 0.687783 0.308378
Si Si8 0.750000 0.681941 0.368223
O O1 0.750000 0.497701 0.971413
O O2 0.750000 0.737372 0.916326
O O3 0.623830 0.750216 0.992029
O O4 0.250000 0.758706 0.418123
O O5 0.374936 0.751893 0.498789
O O6 0.500000 0.500000 0.210486
O O7 0.250000 0.384853 0.223056
O O8 0.411813 0.284249 0.162333
O O9 0.466607 0.259860 0.256669
O O10 0.750000 0.883498 0.601694
O O11 0.535873 0.736330 0.572728
O O12 0.500000 0.000000 0.608293
O O13 0.626028 0.264856 0.335699
O O14 0.750000 0.495547 0.372830
O O15 0.000000 0.000000 0.018450
O O16 0.875933 0.729392 0.339760
O O17 0.000000 0.500000 0.305891
#
# Coordination Sequence:
#
# PCOD9378255 Si02
#       8
#     4   4   8   8   4   8   8   4
#     4  12  24  42  63  88 119 159 206 251 307 368
#     4  12  26  42  63  88 123 161 204 253 305 368
#     4   9  17  30  52  85 121 156 196 245 296 350
#     4  10  21  38  61  91 125 161 203 252 306 363
#     4  10  20  34  53  82 117 155 196 247 293 348
#     4  12  25  42  63  89 121 160 202 252 308 368
#     4   9  17  29  50  82 115 152 193 241 291 341
#     4  10  18  32  55  80 113 149 198 243 293 350
#
# _framework density 18.483136999999999
#
# number of rings (size 3 to 8) (size 9 to 14) (size 15 to 20)
#    0.000    1.667    1.667    4.000    4.667    1.333 
#    0.000    0.000    0.000    2.000    0.000    0.000 
#    0.000    0.000    0.000    0.000    0.000    0.000 
#
# Total GULP energy -133826.109760 kJ/mol
# GULP energy per Si atom -5576.087907 kJ/mol
# Density = 1.844107 g / cm^3
# Si number density = 18.483137 Si / 1000 Ang^3
#
#
#
# Elastic Constant Matrix: (Units=GPa)
#
#
# Indices 1 2 3 4 5 6 
#
# 1 188.1878 49.6378 97.6097 0.0000 0.0000 0.0000
# 2 49.6378 88.7981 62.6326 0.0000 0.0000 0.0000
# 3 97.6097 62.6326 198.3006 0.0000 0.0000 0.0000
# 4 0.0000 0.0000 0.0000 27.2389 0.0000 0.0000
# 5 0.0000 0.0000 0.0000 0.0000 36.7521 0.0000
# 6 0.0000 0.0000 0.0000 0.0000 0.0000 15.0974
#
#
#
# Elastic Compliance Matrix: (Units=1/GPa)
#
#
# Indices 1 2 3 4 5 6 
#
# 1 0.007407 -0.002018 -0.003008 0.000000 0.000000 0.000000
# 2 -0.002018 0.015040 -0.003757 0.000000 0.000000 0.000000
# 3 -0.003008 -0.003757 0.007710 0.000000 0.000000 0.000000
# 4 0.000000 0.000000 0.000000 0.036712 0.000000 0.000000
# 5 0.000000 0.000000 0.000000 0.000000 0.027209 0.000000
# 6 0.000000 0.000000 0.000000 0.000000 0.000000 0.066236
#
#
# Mechanical properties :
#
#
# Convention : Reuss Voigt Hill
#
# Bulk Modulus (GPa) = 79.43075 99.44962 89.44019
# Shear Modulus (GPa) = 27.46089 33.51146 30.48617
#
# Velocity S-wave (km/s) = 3.85869 4.26265 4.06569
# Velocity P-wave (km/s) = 7.93226 8.84021 8.39851
#
# Compressibility (1/GPa) = 0.01258958
#
# Stress axis : x y z
#
# Youngs Moduli (GPa) = 135.01574 66.49156 129.69984
#
# Poissons Ratio (x) = 0.13421 0.39017
# Poissons Ratio (y) = 0.27252 0.48724
# Poissons Ratio (z) = 0.40616 0.24979
#
# Static dielectric constant tensor:
#      x y z
#    x 1.626610 0.000000 0.000000 
#    y 0.000000 1.619340 0.000000 
#    z 0.000000 0.000000 1.669120 
# 
# From -- ./inp_files/25084.got.cif
#   From: 2010.05.17/outbox.cif.g08.bks.cpg/sg46_13_cif.got.tgz:25084.got - 2010.06.03 19:58:25.
