data_PCOD9378969
_publ_section_title
;
Structure prediction by ZEFSAII (Michael W. Deem and Ramdas Pophale) SiO2 
 PCOD9378969
Probable space group: I M A 2
;
_chemical_formula_sum "Si O2"
_cell_formula_units_Z 40
_cell_length_a 13.315759
_cell_length_b 19.658393
_cell_length_c 8.102788
_cell_angle_alpha 90.000000
_cell_angle_beta 90.000000
_cell_angle_gamma 90.000000
_cell_volume 2121.037835
_symmetry_space_group_name_H-M "I M A 2"
_symmetry_group_IT_number 46
_symmetry_cell_setting 'orthorhombic'
loop_
_space_group_symop_operation_xyz
x,y,z
-x,-y,z
1/2-x,y,z
1/2+x,-y,z
1/2+x,1/2+y,1/2+z
1/2-x,1/2-y,1/2+z
-x,1/2+y,1/2+z
x,1/2-y,1/2+z
loop_
_atom_site_type_symbol
_atom_site_label
_atom_site_fract_x
_atom_site_fract_y
_atom_site_fract_z
Si Si1 0.750000 0.639330 0.407171
Si Si2 0.750000 0.787570 0.271296
Si Si3 0.355874 0.850837 0.895807
Si Si4 0.452672 0.425588 0.275207
Si Si5 0.072970 0.724124 0.699203
Si Si6 0.945848 0.820490 0.485273
O O1 0.750000 0.704241 0.278866
O O2 0.750000 0.675442 0.590431
O O3 0.651396 0.592826 0.370445
O O4 0.846110 0.809318 0.380048
O O5 0.250000 0.887213 0.867707
O O6 0.457300 0.891916 0.877601
O O7 0.368046 0.788928 0.767921
O O8 0.361126 0.817899 0.074699
O O9 0.500000 0.500000 0.247104
O O10 0.442645 0.385569 0.102027
O O11 0.976517 0.756026 0.601321
O O12 0.034755 0.679634 0.851258
#
# Coordination Sequence:
#
# PCOD9378969 Si02
#       6
#     4   4   8   8   8   8
#     4  12  24  40  68  96 124 158 199 262 313 364
#     4  12  20  36  68 102 122 144 201 268 329 352
#     4  10  19  34  59  87 117 154 188 244 290 350
#     4  11  25  41  60  81 120 169 206 238 288 366
#     4   9  18  33  55  89 121 145 190 241 307 346
#     4  10  19  34  58  90 123 154 190 253 304 359
#
# _framework density 18.858692000000001
#
# number of rings (size 3 to 8) (size 9 to 14) (size 15 to 20)
#    0.000    1.600    0.000    8.400    1.400    0.000 
#    0.000    5.000    0.000    0.000    0.000    0.000 
#    0.000    0.000    0.000    0.000    0.000    0.000 
#
# Total GULP energy -111472.103497 kJ/mol
# GULP energy per Si atom -5573.605175 kJ/mol
# Density = 1.881577 g / cm^3
# Si number density = 18.858692 Si / 1000 Ang^3
#
#
#
# Elastic Constant Matrix: (Units=GPa)
#
#
# Indices 1 2 3 4 5 6 
#
# 1 157.0695 48.4547 38.5853 0.0000 0.0000 0.0000
# 2 48.4547 83.5727 32.0828 0.0000 0.0000 0.0000
# 3 38.5853 32.0828 108.8398 0.0000 0.0000 0.0000
# 4 0.0000 0.0000 0.0000 14.3537 0.0000 0.0000
# 5 0.0000 0.0000 0.0000 0.0000 -12.6272 0.0000
# 6 0.0000 0.0000 0.0000 0.0000 0.0000 14.8714
#
#
#
# Elastic Compliance Matrix: (Units=1/GPa)
#
#
# Indices 1 2 3 4 5 6 
#
# 1 0.008010 -0.004008 -0.001658 0.000000 0.000000 0.000000
# 2 -0.004008 0.015498 -0.003147 0.000000 0.000000 0.000000
# 3 -0.001658 -0.003147 0.010704 0.000000 0.000000 0.000000
# 4 0.000000 0.000000 0.000000 0.069668 0.000000 0.000000
# 5 0.000000 0.000000 0.000000 0.000000 -0.079194 0.000000
# 6 0.000000 0.000000 0.000000 0.000000 0.000000 0.067243
#
#
# Mechanical properties :
#
#
# Convention : Reuss Voigt Hill
#
# Bulk Modulus (GPa) = 60.29799 65.30305 62.80052
# Shear Modulus (GPa) = 43.44633 18.67685 31.06159
#
# Velocity S-wave (km/s) = 4.80498 3.15041 4.06281
# Velocity P-wave (km/s) = 7.92633 6.92360 7.44187
#
# Compressibility (1/GPa) = 0.01658430
#
# Stress axis : x y z
#
# Youngs Moduli (GPa) = 124.83846 64.52648 93.42716
#
# Poissons Ratio (x) = 0.25860 0.15494
# Poissons Ratio (y) = 0.50031 0.29406
# Poissons Ratio (z) = 0.20704 0.20309
#
# Static dielectric constant tensor:
#      x y z
#    x 1.741870 0.000000 0.000000 
#    y 0.000000 1.703360 0.000000 
#    z 0.000000 0.000000 1.670230 
# 
# From -- ./inp_files/4480.got.cif
#   From: 2010.05.17/outbox.cif.g08.bks.cpg/sg46_3_cif.got.tgz:4480.got - 2010.06.03 19:58:25.
