data_PCOD9378116
_publ_section_title
;
Structure prediction by ZEFSAII (Michael W. Deem and Ramdas Pophale) SiO2 
 PCOD9378116
Probable space group: I M A 2
;
_chemical_formula_sum "Si O2"
_cell_formula_units_Z 48
_cell_length_a 17.740043
_cell_length_b 21.559834
_cell_length_c 5.401309
_cell_angle_alpha 90.000000
_cell_angle_beta 90.000000
_cell_angle_gamma 90.000000
_cell_volume 2065.851520
_symmetry_space_group_name_H-M "I M A 2"
_symmetry_group_IT_number 46
_symmetry_cell_setting 'orthorhombic'
loop_
_space_group_symop_operation_xyz
x,y,z
-x,-y,z
1/2-x,y,z
1/2+x,-y,z
1/2+x,1/2+y,1/2+z
1/2-x,1/2-y,1/2+z
-x,1/2+y,1/2+z
x,1/2-y,1/2+z
loop_
_atom_site_type_symbol
_atom_site_label
_atom_site_fract_x
_atom_site_fract_y
_atom_site_fract_z
Si Si1 0.165063 0.485401 0.402880
Si Si2 0.335897 0.165806 0.898049
Si Si3 0.079672 0.333106 0.899395
Si Si4 0.585208 0.982195 0.403996
Si Si5 0.095952 0.681945 0.813238
Si Si6 0.839808 0.322780 0.312722
O O1 0.250000 0.507937 0.364755
O O2 0.166233 0.409759 0.398185
O O3 0.135377 0.503239 0.672705
O O4 0.114158 0.504305 0.170821
O O5 0.250000 0.187524 0.867877
O O6 0.387420 0.185293 0.666350
O O7 0.370206 0.184446 0.162069
O O8 0.084523 0.407648 0.905124
O O9 0.993306 0.313423 0.856051
O O10 0.500000 0.000000 0.358510
O O11 0.117459 0.651058 0.552540
O O12 0.133203 0.750575 0.798138
O O13 0.133010 0.649992 0.051866
O O14 0.750000 0.325236 0.341497
#
# Coordination Sequence:
#
# PCOD9378116 Si02
#       6
#     8   8   8   8   8   8
#     4   9  17  30  49  67  87 118 160 202 234 266
#     4   9  17  30  47  70  94 119 155 199 235 271
#     4  10  19  30  48  74  97 122 157 198 243 282
#     4  10  19  31  48  69  97 128 156 193 240 289
#     4  10  18  30  49  74  98 119 152 202 240 275
#     4  10  19  33  53  74  94 126 164 198 235 279
#
# _framework density 23.234971999999999
#
# number of rings (size 3 to 8) (size 9 to 14) (size 15 to 20)
#    0.000    2.333    0.000    5.000    0.000    4.000 
#    0.000    0.000    0.000    8.000    0.000   46.667 
#    0.000    0.000    0.000    0.000    0.000    0.000 
#
# Total GULP energy -134221.479849 kJ/mol
# GULP energy per Si atom -5592.561660 kJ/mol
# Density = 2.318209 g / cm^3
# Si number density = 23.234972 Si / 1000 Ang^3
#
#
#
# Elastic Constant Matrix: (Units=GPa)
#
#
# Indices 1 2 3 4 5 6 
#
# 1 102.3864 -45.6073 12.2197 0.0000 0.0000 0.0000
# 2 -45.6073 53.2761 -23.4923 0.0000 0.0000 0.0000
# 3 12.2197 -23.4923 153.8583 0.0000 0.0000 0.0000
# 4 0.0000 0.0000 0.0000 -15.5855 0.0000 0.0000
# 5 0.0000 0.0000 0.0000 0.0000 54.6342 0.0000
# 6 0.0000 0.0000 0.0000 0.0000 0.0000 27.3268
#
#
#
# Elastic Compliance Matrix: (Units=1/GPa)
#
#
# Indices 1 2 3 4 5 6 
#
# 1 0.015896 0.013993 0.000874 0.000000 0.000000 0.000000
# 2 0.013993 0.032443 0.003842 0.000000 0.000000 0.000000
# 3 0.000874 0.003842 0.007017 0.000000 0.000000 0.000000
# 4 0.000000 0.000000 0.000000 -0.064162 0.000000 0.000000
# 5 0.000000 0.000000 0.000000 0.000000 0.018304 0.000000
# 6 0.000000 0.000000 0.000000 0.000000 0.000000 0.036594
#
#
# Mechanical properties :
#
#
# Convention : Reuss Voigt Hill
#
# Bulk Modulus (GPa) = 10.77881 21.75121 16.26501
# Shear Modulus (GPa) = 126.27147 37.70181 81.98664
#
# Velocity S-wave (km/s) = 7.37993 4.03256 5.94664
# Velocity P-wave (km/s) = 8.79017 5.57349 7.35971
#
# Compressibility (1/GPa) = 0.09277465
#
# Stress axis : x y z
#
# Youngs Moduli (GPa) = 62.91010 30.82306 142.51623
#
# Poissons Ratio (x) = -0.43131 -0.12457
# Poissons Ratio (y) = -0.88030 -0.54760
# Poissons Ratio (z) = -0.05499 -0.11843
#
# Static dielectric constant tensor:
#      x y z
#    x 1.773830 0.000000 0.000000 
#    y 0.000000 2.174790 0.000000 
#    z 0.000000 0.000000 1.885050 
# 
# From -- ./inp_files/1313.got.cif
#   From: 2010.05.17/outbox.cif.g08.bks.cpg/sg46_1_cif.got.tgz:1313.got - 2010.06.03 19:58:25.
