data_PCOD9378267
_publ_section_title
;
Structure prediction by ZEFSAII (Michael W. Deem and Ramdas Pophale) SiO2 
 PCOD9378267
Probable space group: I M A 2
;
_chemical_formula_sum "Si O2"
_cell_formula_units_Z 64
_cell_length_a 16.918953
_cell_length_b 8.632617
_cell_length_c 21.245215
_cell_angle_alpha 90.000000
_cell_angle_beta 90.000000
_cell_angle_gamma 90.000000
_cell_volume 3102.966505
_symmetry_space_group_name_H-M "I M A 2"
_symmetry_group_IT_number 46
_symmetry_cell_setting 'orthorhombic'
loop_
_space_group_symop_operation_xyz
x,y,z
-x,-y,z
1/2-x,y,z
1/2+x,-y,z
1/2+x,1/2+y,1/2+z
1/2-x,1/2-y,1/2+z
-x,1/2+y,1/2+z
x,1/2-y,1/2+z
loop_
_atom_site_type_symbol
_atom_site_label
_atom_site_fract_x
_atom_site_fract_y
_atom_site_fract_z
Si Si1 0.654031 0.295674 0.500000
Si Si2 0.842341 0.088721 0.861538
Si Si3 0.911121 0.666605 0.284801
Si Si4 0.346228 0.115415 0.068404
Si Si5 0.916532 0.459346 0.160263
Si Si6 0.161305 0.080639 0.213898
Si Si7 0.580511 0.286828 0.756423
Si Si8 0.340845 0.044787 0.540661
O O1 0.750000 0.289378 0.508260
O O2 0.636262 0.336105 0.427803
O O3 0.627653 0.448147 0.540264
O O4 0.624791 0.119714 0.514704
O O5 0.750000 0.048281 0.863403
O O6 0.858502 0.206992 0.804419
O O7 0.891901 0.935325 0.845081
O O8 0.917619 0.551891 0.225352
O O9 0.841744 0.777358 0.262012
O O10 0.994892 0.751940 0.285451
O O11 0.250000 0.118217 0.063734
O O12 0.365194 0.123739 0.143057
O O13 0.373524 0.277742 0.035224
O O14 0.913500 0.286293 0.186138
O O15 0.846778 0.510541 0.115397
O O16 0.000000 0.500000 0.127664
O O17 0.250000 0.016490 0.208841
O O18 0.102180 0.961392 0.245207
O O19 0.250000 0.052141 0.518866
#
# Coordination Sequence:
#
# PCOD9378267 Si02
#       8
#     8   8   8   8   8   8   8   8
#     4   9  19  35  55  82 113 148 192 242 292 340
#     4  10  20  37  58  80 107 148 204 249 284 345
#     4  10  20  36  56  79 116 155 187 232 303 358
#     4   9  18  32  54  87 118 144 183 237 293 351
#     4   9  18  32  53  77 110 148 182 225 285 356
#     4  11  20  33  56  90 119 143 191 245 291 356
#     4  10  21  35  55  80 114 154 186 237 301 356
#     4  10  18  32  57  81 111 150 185 233 293 347
#
# _framework density 20.625423999999999
#
# number of rings (size 3 to 8) (size 9 to 14) (size 15 to 20)
#    0.000    2.250    1.250    3.000    0.000    3.500 
#    2.250    0.000    5.500    0.000    0.000    0.000 
#    0.000    0.000    0.000    0.000    0.000    0.000 
#
# Total GULP energy -178150.574679 kJ/mol
# GULP energy per Si atom -5567.205459 kJ/mol
# Density = 2.057848 g / cm^3
# Si number density = 20.625424 Si / 1000 Ang^3
#
#
#
# Elastic Constant Matrix: (Units=GPa)
#
#
# Indices 1 2 3 4 5 6 
#
# 1 34.1018 18.3252 6.3141 0.0000 0.0000 0.0000
# 2 18.3252 145.2020 40.1707 0.0000 0.0000 0.0000
# 3 6.3141 40.1707 56.5108 0.0000 0.0000 0.0000
# 4 0.0000 0.0000 0.0000 19.5336 0.0000 0.0000
# 5 0.0000 0.0000 0.0000 0.0000 6.3966 0.0000
# 6 0.0000 0.0000 0.0000 0.0000 0.0000 19.7040
#
#
#
# Elastic Compliance Matrix: (Units=1/GPa)
#
#
# Indices 1 2 3 4 5 6 
#
# 1 0.031491 -0.003736 -0.000863 0.000000 0.000000 0.000000
# 2 -0.003736 0.009016 -0.005992 0.000000 0.000000 0.000000
# 3 -0.000863 -0.005992 0.022051 0.000000 0.000000 0.000000
# 4 0.000000 0.000000 0.000000 0.051194 0.000000 0.000000
# 5 0.000000 0.000000 0.000000 0.000000 0.156333 0.000000
# 6 0.000000 0.000000 0.000000 0.000000 0.000000 0.050751
#
#
# Mechanical properties :
#
#
# Convention : Reuss Voigt Hill
#
# Bulk Modulus (GPa) = 24.16760 40.60385 32.38572
# Shear Modulus (GPa) = 14.05243 20.52714 17.28979
#
# Velocity S-wave (km/s) = 2.61304 3.15816 2.89844
# Velocity P-wave (km/s) = 4.56582 5.74697 5.19011
#
# Compressibility (1/GPa) = 0.04137772
#
# Stress axis : x y z
#
# Youngs Moduli (GPa) = 31.75497 110.91376 45.34867
#
# Poissons Ratio (x) = 0.41432 0.03915
# Poissons Ratio (y) = 0.11862 0.27171
# Poissons Ratio (z) = 0.02741 0.66456
#
# Static dielectric constant tensor:
#      x y z
#    x 1.814740 0.000000 0.000000 
#    y 0.000000 1.845740 0.000000 
#    z 0.000000 0.000000 1.701180 
# 
# From -- ./inp_files/23783.got.cif
#   From: 2010.05.17/outbox.cif.g08.bks.cpg/sg46_12_cif.got.tgz:23783.got - 2010.06.03 19:58:25.
