data_PCOD9378862
_publ_section_title
;
Structure prediction by ZEFSAII (Michael W. Deem and Ramdas Pophale) SiO2 
 PCOD9378862
Probable space group: I M A 2
;
_chemical_formula_sum "Si O2"
_cell_formula_units_Z 60
_cell_length_a 14.681292
_cell_length_b 19.919562
_cell_length_c 11.386923
_cell_angle_alpha 90.000000
_cell_angle_beta 90.000000
_cell_angle_gamma 90.000000
_cell_volume 3330.047629
_symmetry_space_group_name_H-M "I M A 2"
_symmetry_group_IT_number 46
_symmetry_cell_setting 'orthorhombic'
loop_
_space_group_symop_operation_xyz
x,y,z
-x,-y,z
1/2-x,y,z
1/2+x,-y,z
1/2+x,1/2+y,1/2+z
1/2-x,1/2-y,1/2+z
-x,1/2+y,1/2+z
x,1/2-y,1/2+z
loop_
_atom_site_type_symbol
_atom_site_label
_atom_site_fract_x
_atom_site_fract_y
_atom_site_fract_z
Si Si1 0.852907 0.466094 0.625000
Si Si2 0.647109 0.625882 0.584866
Si Si3 0.000000 0.000000 0.294856
Si Si4 0.350707 0.594311 0.365098
Si Si5 0.958518 0.655671 0.355700
Si Si6 0.645100 0.790025 0.322987
Si Si7 0.900149 0.970331 0.703150
Si Si8 0.352751 0.420996 0.948630
O O1 0.750000 0.449549 0.667332
O O2 0.857286 0.546398 0.606549
O O3 0.936147 0.452729 0.713178
O O4 0.864611 0.432887 0.497668
O O5 0.750000 0.640733 0.540362
O O6 0.573133 0.646546 0.489804
O O7 0.635860 0.664853 0.706572
O O8 0.929055 0.959461 0.374646
O O9 0.250000 0.624472 0.356439
O O10 0.434197 0.643515 0.339270
O O11 0.355019 0.529938 0.278427
O O12 0.922226 0.727842 0.318170
O O13 0.910942 0.595121 0.284338
O O14 0.750000 0.766040 0.328804
O O15 0.630277 0.841403 0.431499
O O16 0.856208 0.947229 0.581466
O O17 0.000000 0.000000 0.675145
O O18 0.250000 0.432640 0.900888
#
# Coordination Sequence:
#
# PCOD9378862 Si02
#       8
#     8   8   4   8   8   8   8   8
#     4  10  19  33  57  86 113 145 186 238 291 332
#     4  10  19  34  55  83 114 146 186 235 284 338
#     4  12  20  34  56  80 118 152 188 234 278 342
#     4  10  21  37  60  88 116 146 194 250 292 329
#     4  11  22  36  59  83 115 154 196 229 288 342
#     4  10  23  38  54  84 118 153 191 230 284 349
#     4  10  21  37  58  88 113 146 191 238 289 346
#     4  11  23  38  56  83 120 154 187 230 285 347
#
# _framework density 18.017759999999999
#
# number of rings (size 3 to 8) (size 9 to 14) (size 15 to 20)
#    0.000    1.600    3.333    2.000    2.800    1.600 
#    0.000    0.000    0.000    2.400    0.000    0.000 
#    0.000    0.000    0.000    0.000    0.000    0.000 
#
# Total GULP energy -167443.061577 kJ/mol
# GULP energy per Si atom -5581.435386 kJ/mol
# Density = 1.797675 g / cm^3
# Si number density = 18.017760 Si / 1000 Ang^3
#
#
#
# Elastic Constant Matrix: (Units=GPa)
#
#
# Indices 1 2 3 4 5 6 
#
# 1 127.0983 46.4851 33.8923 0.0000 0.0000 0.0000
# 2 46.4851 78.5776 13.7389 0.0000 0.0000 0.0000
# 3 33.8923 13.7389 69.8957 0.0000 0.0000 0.0000
# 4 0.0000 0.0000 0.0000 9.2271 0.0000 0.0000
# 5 0.0000 0.0000 0.0000 0.0000 25.7622 0.0000
# 6 0.0000 0.0000 0.0000 0.0000 0.0000 23.2862
#
#
#
# Elastic Compliance Matrix: (Units=1/GPa)
#
#
# Indices 1 2 3 4 5 6 
#
# 1 0.011140 -0.005847 -0.004253 0.000000 0.000000 0.000000
# 2 -0.005847 0.016248 -0.000359 0.000000 0.000000 0.000000
# 3 -0.004253 -0.000359 0.016440 0.000000 0.000000 0.000000
# 4 0.000000 0.000000 0.000000 0.108377 0.000000 0.000000
# 5 0.000000 0.000000 0.000000 0.000000 0.038817 0.000000
# 6 0.000000 0.000000 0.000000 0.000000 0.000000 0.042944
#
#
# Mechanical properties :
#
#
# Convention : Reuss Voigt Hill
#
# Bulk Modulus (GPa) = 43.64600 51.53381 47.58991
# Shear Modulus (GPa) = 19.04626 23.75210 21.39918
#
# Velocity S-wave (km/s) = 3.25481 3.63472 3.45000
# Velocity P-wave (km/s) = 6.19689 6.80285 6.50693
#
# Compressibility (1/GPa) = 0.02291161
#
# Stress axis : x y z
#
# Youngs Moduli (GPa) = 89.76323 61.54639 60.82863
#
# Poissons Ratio (x) = 0.35986 0.25869
# Poissons Ratio (y) = 0.52484 0.02181
# Poissons Ratio (z) = 0.38173 0.02207
#
# Static dielectric constant tensor:
#      x y z
#    x 1.645500 0.000000 0.000000 
#    y 0.000000 1.587000 0.000000 
#    z 0.000000 0.000000 1.636880 
# 
# From -- ./inp_files/11277.got.cif
#   From: 2010.05.17/outbox.cif.g08.bks.cpg/sg46_6_cif.got.tgz:11277.got - 2010.06.03 19:58:25.
