data_PCOD9378074
_publ_section_title
;
Structure prediction by ZEFSAII (Michael W. Deem and Ramdas Pophale) SiO2 
 PCOD9378074
Probable space group: I M A 2
;
_chemical_formula_sum "Si O2"
_cell_formula_units_Z 48
_cell_length_a 8.804642
_cell_length_b 14.062893
_cell_length_c 19.067033
_cell_angle_alpha 90.000000
_cell_angle_beta 90.000000
_cell_angle_gamma 90.000000
_cell_volume 2360.855970
_symmetry_space_group_name_H-M "I M A 2"
_symmetry_group_IT_number 46
_symmetry_cell_setting 'orthorhombic'
loop_
_space_group_symop_operation_xyz
x,y,z
-x,-y,z
1/2-x,y,z
1/2+x,-y,z
1/2+x,1/2+y,1/2+z
1/2-x,1/2-y,1/2+z
-x,1/2+y,1/2+z
x,1/2-y,1/2+z
loop_
_atom_site_type_symbol
_atom_site_label
_atom_site_fract_x
_atom_site_fract_y
_atom_site_fract_z
Si Si1 0.075943 0.756365 0.058860
Si Si2 0.066059 0.189751 0.316121
Si Si3 0.429475 0.402135 0.320236
Si Si4 0.932343 0.101018 0.448735
Si Si5 0.923550 0.411769 0.169524
Si Si6 0.568632 0.605129 0.664693
O O1 0.250000 0.785322 0.043221
O O2 0.078441 0.679326 0.121391
O O3 0.986424 0.843324 0.093420
O O4 0.015043 0.692794 0.994388
O O5 0.250000 0.183460 0.321297
O O6 0.019111 0.296209 0.340968
O O7 0.025175 0.164330 0.235509
O O8 0.986204 0.118565 0.369425
O O9 0.500000 0.500000 0.349791
O O10 0.250000 0.407376 0.329428
O O11 0.474334 0.400368 0.238128
O O12 0.750000 0.097483 0.454843
O O13 0.000000 0.000000 0.471585
O O14 0.750000 0.432834 0.190353
O O15 0.000000 0.500000 0.130194
O O16 0.500000 0.500000 0.669959
O O17 0.750000 0.599928 0.664104
#
# Coordination Sequence:
#
# PCOD9378074 Si02
#       6
#     8   8   8   8   8   8
#     4  10  22  39  58  86 119 155 200 246 297 359
#     4  10  22  40  61  89 124 162 206 251 301 361
#     4  10  19  33  53  83 118 150 193 240 291 350
#     4  11  24  41  63  91 124 162 203 247 302 364
#     4  10  18  29  50  79 113 148 185 232 285 341
#     4  11  23  40  63  90 120 157 203 254 306 363
#
# _framework density 20.331609
#
# number of rings (size 3 to 8) (size 9 to 14) (size 15 to 20)
#    0.000    1.667    1.667    4.000    0.000    6.000 
#    0.000    0.833    0.000    2.000    0.000    0.000 
#    0.000    0.000    0.000    0.000    0.000    0.000 
#
# Total GULP energy -133838.230335 kJ/mol
# GULP energy per Si atom -5576.592931 kJ/mol
# Density = 2.028533 g / cm^3
# Si number density = 20.331609 Si / 1000 Ang^3
#
#
#
# Elastic Constant Matrix: (Units=GPa)
#
#
# Indices 1 2 3 4 5 6 
#
# 1 27.6191 41.0987 14.6272 0.0000 0.0000 0.0000
# 2 41.0987 132.6917 29.9306 0.0000 0.0000 0.0000
# 3 14.6272 29.9306 71.3937 0.0000 0.0000 0.0000
# 4 0.0000 0.0000 0.0000 14.7962 0.0000 0.0000
# 5 0.0000 0.0000 0.0000 0.0000 13.5701 0.0000
# 6 0.0000 0.0000 0.0000 0.0000 0.0000 33.2812
#
#
#
# Elastic Compliance Matrix: (Units=1/GPa)
#
#
# Indices 1 2 3 4 5 6 
#
# 1 0.069225 -0.020147 -0.005737 0.000000 0.000000 0.000000
# 2 -0.020147 0.014187 -0.001820 0.000000 0.000000 0.000000
# 3 -0.005737 -0.001820 0.015945 0.000000 0.000000 0.000000
# 4 0.000000 0.000000 0.000000 0.067585 0.000000 0.000000
# 5 0.000000 0.000000 0.000000 0.000000 0.073691 0.000000
# 6 0.000000 0.000000 0.000000 0.000000 0.000000 0.030047
#
#
# Mechanical properties :
#
#
# Convention : Reuss Voigt Hill
#
# Bulk Modulus (GPa) = 22.75314 44.77973 33.76644
# Shear Modulus (GPa) = 14.67405 22.06603 18.37004
#
# Velocity S-wave (km/s) = 2.68943 3.29797 3.00912
# Velocity P-wave (km/s) = 4.56720 6.04770 5.35883
#
# Compressibility (1/GPa) = 0.04394997
#
# Stress axis : x y z
#
# Youngs Moduli (GPa) = 14.44562 70.48723 62.71521
#
# Poissons Ratio (x) = 1.42012 0.35977
# Poissons Ratio (y) = 0.29104 0.11413
# Poissons Ratio (z) = 0.08287 0.12828
#
# Static dielectric constant tensor:
#      x y z
#    x 1.697290 0.000000 0.000000 
#    y 0.000000 1.789850 0.000000 
#    z 0.000000 0.000000 1.715180 
# 
# From -- ./inp_files/18172.got.cif
#   From: 2010.05.17/outbox.cif.g08.bks.cpg/sg46_10_cif.got.tgz:18172.got - 2010.06.03 19:58:25.
