data_PCOD9378670
_publ_section_title
;
Structure prediction by ZEFSAII (Michael W. Deem and Ramdas Pophale) SiO2 
 PCOD9378670
Probable space group: I M A 2
;
_chemical_formula_sum "Si O2"
_cell_formula_units_Z 40
_cell_length_a 9.167918
_cell_length_b 26.069935
_cell_length_c 9.848608
_cell_angle_alpha 90.000000
_cell_angle_beta 90.000000
_cell_angle_gamma 90.000000
_cell_volume 2353.886512
_symmetry_space_group_name_H-M "I M A 2"
_symmetry_group_IT_number 46
_symmetry_cell_setting 'orthorhombic'
loop_
_space_group_symop_operation_xyz
x,y,z
-x,-y,z
1/2-x,y,z
1/2+x,-y,z
1/2+x,1/2+y,1/2+z
1/2-x,1/2-y,1/2+z
-x,1/2+y,1/2+z
x,1/2-y,1/2+z
loop_
_atom_site_type_symbol
_atom_site_label
_atom_site_fract_x
_atom_site_fract_y
_atom_site_fract_z
Si Si1 0.423545 0.359475 0.107760
Si Si2 0.576633 0.216558 0.810353
Si Si3 0.923411 0.369345 0.532241
Si Si4 0.423851 0.445283 0.330548
Si Si5 0.925197 0.335916 0.834185
O O1 0.250000 0.353803 0.097985
O O2 0.491463 0.311523 0.189778
O O3 0.455408 0.409378 0.199885
O O4 0.495375 0.361691 0.960502
O O5 0.750000 0.214885 0.779607
O O6 0.535358 0.275555 0.829843
O O7 0.551868 0.182855 0.945843
O O8 0.750000 0.380312 0.523070
O O9 0.961659 0.360335 0.688657
O O10 0.012542 0.413870 0.458346
O O11 0.500000 0.500000 0.319055
O O12 0.250000 0.450857 0.342476
O O13 0.750000 0.338899 0.852159
#
# Coordination Sequence:
#
# PCOD9378670 Si02
#       5
#     8   8   8   8   8
#     4  10  21  34  50  77 108 136 169 210 256 303
#     4   9  17  32  53  75 103 141 180 210 239 288
#     4   9  18  32  52  78 105 135 172 211 251 294
#     4  10  21  38  58  76  96 127 169 214 260 310
#     4  10  19  32  52  78 108 141 174 207 245 295
#
# _framework density 16.993172999999999
#
# number of rings (size 3 to 8) (size 9 to 14) (size 15 to 20)
#    0.000    2.400    0.000    2.400    0.000    7.200 
#    0.000    5.000    0.000    2.400    0.000    0.000 
#    0.000    0.000    0.000    0.000    0.000    0.000 
#
# Total GULP energy -111630.103215 kJ/mol
# GULP energy per Si atom -5581.505161 kJ/mol
# Density = 1.695450 g / cm^3
# Si number density = 16.993173 Si / 1000 Ang^3
#
#
#
# Elastic Constant Matrix: (Units=GPa)
#
#
# Indices 1 2 3 4 5 6 
#
# 1 54.9440 62.9544 73.0688 0.0001 0.0000 -0.0001
# 2 62.9544 120.4202 68.3991 -0.0001 -0.0001 0.0000
# 3 73.0688 68.3991 162.4324 -0.0005 -0.0005 -0.0020
# 4 0.0001 -0.0001 -0.0005 4.1876 -0.0001 -0.0002
# 5 0.0000 -0.0001 -0.0005 -0.0001 26.6718 -0.0005
# 6 -0.0001 0.0000 -0.0020 -0.0002 -0.0005 20.9651
#
#
#
# Elastic Compliance Matrix: (Units=1/GPa)
#
#
# Indices 1 2 3 4 5 6 
#
# 1 0.092870 -0.032625 -0.028038 -0.000007 -0.000001 -0.000002
# 2 -0.032625 0.022376 0.005254 0.000002 0.000000 0.000000
# 3 -0.028038 0.005254 0.016557 0.000003 0.000000 0.000001
# 4 -0.000007 0.000002 0.000003 0.238798 0.000001 0.000002
# 5 -0.000001 0.000000 0.000000 0.000001 0.037493 0.000001
# 6 -0.000002 0.000000 0.000001 0.000002 0.000001 0.047698
#
#
# Mechanical properties :
#
#
# Convention : Reuss Voigt Hill
#
# Bulk Modulus (GPa) = 47.65768 82.96012 65.30890
# Shear Modulus (GPa) = 8.71678 19.25654 13.98666
#
# Velocity S-wave (km/s) = 2.26731 3.36994 2.87204
# Velocity P-wave (km/s) = 5.91273 8.00423 7.03662
#
# Compressibility (1/GPa) = 0.02098298
#
# Stress axis : x y z
#
# Youngs Moduli (GPa) = 10.76777 44.69009 60.39788
#
# Poissons Ratio (x) = 1.45803 1.69345
# Poissons Ratio (y) = 0.35130 -0.31732
# Poissons Ratio (z) = 0.30191 -0.23479
#
# Static dielectric constant tensor:
#      x y z
#    x 1.562710 0.000000 0.000000 
#    y 0.000000 1.550030 0.000000 
#    z 0.000000 0.000000 1.564350 
# 
# From -- ./inp_files/3510.got.cif
#   From: 2010.05.17/outbox.cif.g08.bks.cpg/sg46_2_cif.got.tgz:3510.got - 2010.06.03 19:58:25.
