data_PCOD9378772
_publ_section_title
;
Structure prediction by ZEFSAII (Michael W. Deem and Ramdas Pophale) SiO2 
 PCOD9378772
Probable space group: I M A 2
;
_chemical_formula_sum "Si O2"
_cell_formula_units_Z 64
_cell_length_a 26.999676
_cell_length_b 5.531984
_cell_length_c 21.336301
_cell_angle_alpha 90.000000
_cell_angle_beta 90.000000
_cell_angle_gamma 90.000000
_cell_volume 3186.827803
_symmetry_space_group_name_H-M "I M A 2"
_symmetry_group_IT_number 46
_symmetry_cell_setting 'orthorhombic'
loop_
_space_group_symop_operation_xyz
x,y,z
-x,-y,z
1/2-x,y,z
1/2+x,-y,z
1/2+x,1/2+y,1/2+z
1/2-x,1/2-y,1/2+z
-x,1/2+y,1/2+z
x,1/2-y,1/2+z
loop_
_atom_site_type_symbol
_atom_site_label
_atom_site_fract_x
_atom_site_fract_y
_atom_site_fract_z
Si Si1 0.622312 0.270876 0.805750
Si Si2 0.509248 0.255226 0.338551
Si Si3 0.689512 0.224786 0.086436
Si Si4 0.303586 0.117557 0.761038
Si Si5 0.135024 0.422596 0.685287
Si Si6 0.972051 0.749656 0.196391
Si Si7 0.690753 0.724533 0.017513
Si Si8 0.305374 0.042793 0.383557
O O1 0.566166 0.226885 0.820362
O O2 0.623028 0.480090 0.754361
O O3 0.654795 0.343198 0.865498
O O4 0.650767 0.053101 0.773951
O O5 0.500000 0.500000 0.375675
O O6 0.477268 0.254884 0.273313
O O7 0.500000 0.000000 0.370603
O O8 0.750000 0.226139 0.098437
O O9 0.675161 0.485018 0.056852
O O10 0.654828 0.147240 0.144715
O O11 0.678097 0.991876 0.041831
O O12 0.250000 0.992624 0.755822
O O13 0.316727 0.256370 0.697074
O O14 0.300997 0.289844 0.821995
O O15 0.084091 0.280287 0.670236
O O16 0.000000 0.500000 0.176929
O O17 0.000000 0.000000 0.178523
O O18 0.750000 0.716697 0.020323
O O19 0.677728 0.685722 0.944779
O O20 0.250000 0.940422 0.395382
#
# Coordination Sequence:
#
# PCOD9378772 Si02
#       8
#     8   8   8   8   8   8   8   8
#     4  11  21  33  56  84 116 151 184 234 290 350
#     4  10  19  34  52  76 111 142 186 227 272 336
#     4  10  22  37  57  82 112 154 193 235 282 332
#     4  10  21  33  51  81 121 156 184 223 289 359
#     4  11  22  35  53  83 120 151 189 234 293 355
#     4  10  19  33  53  77 109 144 189 230 274 334
#     4   9  20  39  58  78 109 151 202 242 269 320
#     4   9  20  36  55  82 113 152 197 237 280 334
#
# _framework density 20.082667000000001
#
# number of rings (size 3 to 8) (size 9 to 14) (size 15 to 20)
#    0.000    2.000    2.500    2.250    5.250    1.500 
#    0.000    0.000    0.000    0.000    0.000    5.250 
#    0.000    0.000    0.000    0.000    0.000    0.000 
#
# Total GULP energy -178211.568412 kJ/mol
# GULP energy per Si atom -5569.111513 kJ/mol
# Density = 2.003696 g / cm^3
# Si number density = 20.082667 Si / 1000 Ang^3
#
#
#
# Elastic Constant Matrix: (Units=GPa)
#
#
# Indices 1 2 3 4 5 6 
#
# 1 71.3507 15.7049 10.9905 0.0000 0.0000 0.0000
# 2 15.7049 97.6360 4.0938 0.0000 0.0000 0.0000
# 3 10.9905 4.0938 42.3033 0.0000 0.0000 0.0000
# 4 0.0000 0.0000 0.0000 14.0621 0.0000 0.0000
# 5 0.0000 0.0000 0.0000 0.0000 -212.2175 0.0000
# 6 0.0000 0.0000 0.0000 0.0000 0.0000 21.5279
#
#
#
# Elastic Compliance Matrix: (Units=1/GPa)
#
#
# Indices 1 2 3 4 5 6 
#
# 1 0.015085 -0.002271 -0.003699 0.000000 0.000000 0.000000
# 2 -0.002271 0.010626 -0.000438 0.000000 0.000000 0.000000
# 3 -0.003699 -0.000438 0.024642 0.000000 0.000000 0.000000
# 4 0.000000 0.000000 0.000000 0.071113 0.000000 0.000000
# 5 0.000000 0.000000 0.000000 0.000000 -0.004712 0.000000
# 6 0.000000 0.000000 0.000000 0.000000 0.000000 0.046451
#
#
# Mechanical properties :
#
#
# Convention : Reuss Voigt Hill
#
# Bulk Modulus (GPa) = 26.64145 30.31871 28.48008
# Shear Modulus (GPa) = 26.52028 -23.29210 1.61409
#
# Velocity S-wave (km/s) = 3.63789 -3.40929 0.89748
# Velocity P-wave (km/s) = 5.56240 0.60662 3.90975
#
# Compressibility (1/GPa) = 0.03753550
#
# Stress axis : x y z
#
# Youngs Moduli (GPa) = 66.29084 94.11017 40.58056
#
# Poissons Ratio (x) = 0.21376 0.15012
# Poissons Ratio (y) = 0.15057 0.01778
# Poissons Ratio (z) = 0.24523 0.04124
#
# Static dielectric constant tensor:
#      x y z
#    x 2.722050 0.000000 0.000000 
#    y 0.000000 1.833010 0.000000 
#    z 0.000000 0.000000 1.725010 
# 
# From -- ./inp_files/22621.got.cif
#   From: 2010.05.17/outbox.cif.g08.bks.cpg/sg46_12_cif.got.tgz:22621.got - 2010.06.03 19:58:25.
