data_PCOD9378433
_publ_section_title
;
Structure prediction by ZEFSAII (Michael W. Deem and Ramdas Pophale) SiO2 
 PCOD9378433
Probable space group: I M A 2
;
_chemical_formula_sum "Si O2"
_cell_formula_units_Z 48
_cell_length_a 15.662716
_cell_length_b 7.277334
_cell_length_c 17.157586
_cell_angle_alpha 90.000000
_cell_angle_beta 90.000000
_cell_angle_gamma 90.000000
_cell_volume 1955.669963
_symmetry_space_group_name_H-M "I M A 2"
_symmetry_group_IT_number 46
_symmetry_cell_setting 'orthorhombic'
loop_
_space_group_symop_operation_xyz
x,y,z
-x,-y,z
1/2-x,y,z
1/2+x,-y,z
1/2+x,1/2+y,1/2+z
1/2-x,1/2-y,1/2+z
-x,1/2+y,1/2+z
x,1/2-y,1/2+z
loop_
_atom_site_type_symbol
_atom_site_label
_atom_site_fract_x
_atom_site_fract_y
_atom_site_fract_z
Si Si1 0.102915 0.535503 0.653700
Si Si2 0.101556 0.973617 0.654043
Si Si3 0.397085 0.964498 0.486313
Si Si4 0.599888 0.456395 0.820006
Si Si5 0.601556 0.473617 0.485970
Si Si6 0.651694 0.459603 0.320006
O O1 0.118467 0.754817 0.653721
O O2 0.137156 0.474714 0.737958
O O3 0.134383 0.460297 0.570504
O O4 0.000000 0.500000 0.654219
O O5 0.134383 0.039704 0.569509
O O6 0.132106 0.051544 0.736818
O O7 0.000000 0.000000 0.653573
O O8 0.362844 0.025286 0.402054
O O9 0.381534 0.745184 0.486292
O O10 0.500000 0.000000 0.485794
O O11 0.500000 0.500000 0.820007
O O12 0.602181 0.234174 0.820006
O O13 0.500000 0.500000 0.486439
O O14 0.632107 0.551542 0.403195
O O15 0.750000 0.409469 0.320006
#
# Coordination Sequence:
#
# PCOD9378433 Si02
#       6
#     8   8   8   8   8   8
#     4   8  14  25  43  67  88 110 145 186 220 256
#     4   9  16  27  43  65  88 116 150 181 217 264
#     4   8  14  25  43  67  88 110 145 186 220 256
#     4   8  14  27  44  61  84 116 146 176 214 261
#     4   9  16  27  43  65  88 116 150 181 217 264
#     4  10  19  29  42  67  95 118 146 188 229 261
#
# _framework density 24.54402
#
# number of rings (size 3 to 8) (size 9 to 14) (size 15 to 20)
#    0.000    3.333    0.000    0.500    0.000    0.000 
#    0.000   13.333    0.000    0.000    0.000   93.333 
#    0.000    0.000    0.000    0.000    0.000    0.000 
#
# Total GULP energy -133695.659633 kJ/mol
# GULP energy per Si atom -5570.652485 kJ/mol
# Density = 2.448816 g / cm^3
# Si number density = 24.544020 Si / 1000 Ang^3
#
#
#
# Elastic Constant Matrix: (Units=GPa)
#
#
# Indices 1 2 3 4 5 6 
#
# 1 34.1184 -7.3601 17.7668 0.0000 0.0000 0.0000
# 2 -7.3601 104.6577 20.1682 0.0000 0.0000 0.0000
# 3 17.7668 20.1682 379.1163 0.0000 0.0000 0.0000
# 4 0.0000 0.0000 0.0000 -0.4089 0.0000 0.0000
# 5 0.0000 0.0000 0.0000 0.0000 -73.3932 0.0000
# 6 0.0000 0.0000 0.0000 0.0000 0.0000 -6.4330
#
#
#
# Elastic Compliance Matrix: (Units=1/GPa)
#
#
# Indices 1 2 3 4 5 6 
#
# 1 0.030656 0.002458 -0.001567 0.000000 0.000000 0.000000
# 2 0.002458 0.009851 -0.000639 0.000000 0.000000 0.000000
# 3 -0.001567 -0.000639 0.002745 0.000000 0.000000 0.000000
# 4 0.000000 0.000000 0.000000 -2.445741 0.000000 0.000000
# 5 0.000000 0.000000 0.000000 0.000000 -0.013625 0.000000
# 6 0.000000 0.000000 0.000000 0.000000 0.000000 -0.155448
#
#
# Mechanical properties :
#
#
# Convention : Reuss Voigt Hill
#
# Bulk Modulus (GPa) = 22.85458 64.33804 43.59631
# Shear Modulus (GPa) = -1.95505 16.44080 7.24287
#
# Velocity S-wave (km/s) = -0.89346 2.59095 1.71970
# Velocity P-wave (km/s) = 2.87533 5.93472 4.66307
#
# Compressibility (1/GPa) = 0.04375491
#
# Stress axis : x y z
#
# Youngs Moduli (GPa) = 32.61987 101.51248 364.27556
#
# Poissons Ratio (x) = -0.24951 0.57097
# Poissons Ratio (y) = -0.08018 0.23286
# Poissons Ratio (z) = 0.05113 0.06489
#
# Static dielectric constant tensor:
#      x y z
#    x 1.861870 0.000000 0.000000 
#    y 0.000000 1.874680 0.000000 
#    z 0.000000 0.000000 2.104120 
# 
# From -- ./inp_files/19389.got.cif
#   From: 2010.05.17/outbox.cif.g08.bks.cpg/sg46_10_cif.got.tgz:19389.got - 2010.06.03 19:58:25.
