data_PCOD9378979
_publ_section_title
;
Structure prediction by ZEFSAII (Michael W. Deem and Ramdas Pophale) SiO2 
 PCOD9378979
Probable space group: I M A 2
;
_chemical_formula_sum "Si O2"
_cell_formula_units_Z 56
_cell_length_a 11.254640
_cell_length_b 18.769198
_cell_length_c 12.758990
_cell_angle_alpha 90.000000
_cell_angle_beta 90.000000
_cell_angle_gamma 90.000000
_cell_volume 2695.216277
_symmetry_space_group_name_H-M "I M A 2"
_symmetry_group_IT_number 46
_symmetry_cell_setting 'orthorhombic'
loop_
_space_group_symop_operation_xyz
x,y,z
-x,-y,z
1/2-x,y,z
1/2+x,-y,z
1/2+x,1/2+y,1/2+z
1/2-x,1/2-y,1/2+z
-x,1/2+y,1/2+z
x,1/2-y,1/2+z
loop_
_atom_site_type_symbol
_atom_site_label
_atom_site_fract_x
_atom_site_fract_y
_atom_site_fract_z
Si Si1 0.615738 0.857200 0.812310
Si Si2 0.488500 0.661487 0.673297
Si Si3 0.877643 0.458372 0.026305
Si Si4 0.025573 0.821080 0.605550
Si Si5 0.114370 0.198465 0.391607
Si Si6 0.123539 0.539115 0.776395
Si Si7 0.892029 0.944178 0.015083
O O1 0.750000 0.864238 0.773749
O O2 0.535610 0.848947 0.711218
O O3 0.609224 0.783688 0.877919
O O4 0.591299 0.918595 0.895314
O O5 0.447865 0.737964 0.628841
O O6 0.552993 0.670727 0.785799
O O7 0.382388 0.608668 0.704018
O O8 0.576701 0.621734 0.592649
O O9 0.750000 0.494603 0.050599
O O10 0.000000 0.500000 0.053973
O O11 0.878713 0.380916 0.079073
O O12 0.880392 0.446721 0.900685
O O13 0.944415 0.822315 0.501097
O O14 0.250000 0.174394 0.391923
O O15 0.250000 0.501085 0.757194
O O16 0.000000 0.500000 0.754584
O O17 0.750000 0.963765 0.025890
O O18 0.000000 0.000000 0.033287
#
# Coordination Sequence:
#
# PCOD9378979 Si02
#       7
#     8   8   8   8   8   8   8
#     4   9  20  37  58  89 129 169 214 262 317 384
#     4  11  22  37  64  97 131 164 214 270 330 387
#     4  10  23  44  66  94 130 169 212 262 323 392
#     4  11  21  38  66  96 129 166 213 269 330 384
#     4  10  19  34  59  93 128 164 207 267 330 384
#     4  10  22  41  63  92 129 169 211 261 321 384
#     4  11  24  43  64  91 131 177 221 267 316 383
#
# _framework density 20.777553999999999
#
# number of rings (size 3 to 8) (size 9 to 14) (size 15 to 20)
#    0.000    1.714    2.857    1.286    0.000    6.286 
#    0.000    2.143    0.000    0.857    0.000    0.000 
#    0.000    0.000    0.000    0.000    0.000    0.000 
#
# Total GULP energy -156084.157396 kJ/mol
# GULP energy per Si atom -5574.434193 kJ/mol
# Density = 2.073026 g / cm^3
# Si number density = 20.777554 Si / 1000 Ang^3
#
#
#
# Elastic Constant Matrix: (Units=GPa)
#
#
# Indices 1 2 3 4 5 6 
#
# 1 155.0175 64.4233 37.4461 0.0000 0.0001 0.0000
# 2 64.4233 88.3321 34.5670 0.0003 0.0007 -0.0001
# 3 37.4461 34.5670 96.1450 0.0008 0.0018 -0.0001
# 4 0.0000 0.0003 0.0008 35.9511 0.0018 -0.0001
# 5 0.0001 0.0007 0.0018 0.0018 -103.3085 -0.0003
# 6 0.0000 -0.0001 -0.0001 -0.0001 -0.0003 21.7775
#
#
#
# Elastic Compliance Matrix: (Units=1/GPa)
#
#
# Indices 1 2 3 4 5 6 
#
# 1 0.009414 -0.006321 -0.001394 0.000000 0.000000 0.000000
# 2 -0.006321 0.017418 -0.003801 0.000000 0.000000 0.000000
# 3 -0.001394 -0.003801 0.012310 0.000000 0.000000 0.000000
# 4 0.000000 0.000000 0.000000 0.027816 0.000000 0.000000
# 5 0.000000 0.000000 0.000000 0.000000 -0.009680 0.000000
# 6 0.000000 0.000000 0.000000 0.000000 0.000000 0.045919
#
#
# Mechanical properties :
#
#
# Convention : Reuss Voigt Hill
#
# Bulk Modulus (GPa) = 62.06558 68.04081 65.05320
# Shear Modulus (GPa) = 37.99413 4.42123 21.20768
#
# Velocity S-wave (km/s) = 4.28087 1.46031 3.19831
# Velocity P-wave (km/s) = 7.37365 5.97174 6.70941
#
# Compressibility (1/GPa) = 0.01611199
#
# Stress axis : x y z
#
# Youngs Moduli (GPa) = 106.21964 57.41178 81.23217
#
# Poissons Ratio (x) = 0.36288 0.11326
# Poissons Ratio (y) = 0.67138 0.30873
# Poissons Ratio (z) = 0.14810 0.21820
#
# Static dielectric constant tensor:
#      x y z
#    x 1.776250 0.000000 0.000000 
#    y 0.000000 1.825670 0.000000 
#    z 0.000000 0.000000 1.723440 
# 
# From -- ./inp_files/10388.got.cif
#   From: 2010.05.17/outbox.cif.g08.bks.cpg/sg46_6_cif.got.tgz:10388.got - 2010.06.03 19:58:25.
