data_PCOD9378475
_publ_section_title
;
Structure prediction by ZEFSAII (Michael W. Deem and Ramdas Pophale) SiO2 
 PCOD9378475
Probable space group: I M A 2
;
_chemical_formula_sum "Si O2"
_cell_formula_units_Z 56
_cell_length_a 14.121917
_cell_length_b 24.429909
_cell_length_c 9.864864
_cell_angle_alpha 90.000000
_cell_angle_beta 90.000000
_cell_angle_gamma 90.000000
_cell_volume 3403.349938
_symmetry_space_group_name_H-M "I M A 2"
_symmetry_group_IT_number 46
_symmetry_cell_setting 'orthorhombic'
loop_
_space_group_symop_operation_xyz
x,y,z
-x,-y,z
1/2-x,y,z
1/2+x,-y,z
1/2+x,1/2+y,1/2+z
1/2-x,1/2-y,1/2+z
-x,1/2+y,1/2+z
x,1/2-y,1/2+z
loop_
_atom_site_type_symbol
_atom_site_label
_atom_site_fract_x
_atom_site_fract_y
_atom_site_fract_z
Si Si1 0.450077 0.385849 0.880210
Si Si2 0.864885 0.815010 0.819179
Si Si3 0.364573 0.280375 0.016700
Si Si4 0.635032 0.939960 0.864978
Si Si5 0.359382 0.934491 0.356907
Si Si6 0.135681 0.464422 0.664232
Si Si7 0.360625 0.025992 0.576858
O O1 0.407395 0.328519 0.924693
O O2 0.562840 0.387502 0.861526
O O3 0.403640 0.412747 0.747130
O O4 0.421300 0.429100 0.997694
O O5 0.750000 0.816231 0.816890
O O6 0.892049 0.776658 0.945588
O O7 0.893857 0.790059 0.673155
O O8 0.896923 0.877570 0.837760
O O9 0.250000 0.284322 0.012765
O O10 0.750000 0.938640 0.872425
O O11 0.611548 0.975596 0.733259
O O12 0.602804 0.962025 0.009676
O O13 0.250000 0.918460 0.336471
O O14 0.388067 0.979333 0.242468
O O15 0.365868 0.969493 0.495879
O O16 0.250000 0.461113 0.669948
O O17 0.250000 0.044146 0.568348
#
# Coordination Sequence:
#
# PCOD9378475 Si02
#       7
#     8   8   8   8   8   8   8
#     4  11  18  29  46  65  89 124 157 192 224 267
#     4   9  18  29  42  66  98 127 149 173 211 270
#     4  10  19  30  46  68  97 125 150 179 220 272
#     4   9  16  27  43  66  99 128 146 173 217 276
#     4   9  19  33  46  63  87 119 160 200 230 267
#     4   9  17  27  44  68  96 124 150 179 222 274
#     4   9  15  27  46  67  93 121 148 178 222 276
#
# _framework density 16.454376
#
# number of rings (size 3 to 8) (size 9 to 14) (size 15 to 20)
#    0.000    2.571    1.429    3.857    2.000    0.000 
#    0.000    2.857    0.000    0.000    0.000    1.000 
#    0.000    0.000    0.000    0.000    0.000    0.000 
#
# Total GULP energy -156047.591425 kJ/mol
# GULP energy per Si atom -5573.128265 kJ/mol
# Density = 1.641693 g / cm^3
# Si number density = 16.454376 Si / 1000 Ang^3
#
#
#
# Elastic Constant Matrix: (Units=GPa)
#
#
# Indices 1 2 3 4 5 6 
#
# 1 47.1990 10.0515 8.2197 0.0001 0.0000 0.0000
# 2 10.0515 20.1564 13.6281 0.0002 0.0000 0.0001
# 3 8.2197 13.6281 126.6048 -0.0005 0.0000 0.0003
# 4 0.0001 0.0002 -0.0005 7.5440 0.0000 0.0001
# 5 0.0000 0.0000 0.0000 0.0000 -0.8985 0.0000
# 6 0.0000 0.0001 0.0003 0.0001 0.0000 15.3170
#
#
#
# Elastic Compliance Matrix: (Units=1/GPa)
#
#
# Indices 1 2 3 4 5 6 
#
# 1 0.023714 -0.011631 -0.000288 0.000000 0.000000 0.000000
# 2 -0.011631 0.059211 -0.005618 -0.000002 0.000002 0.000000
# 3 -0.000288 -0.005618 0.008522 0.000001 0.000000 0.000000
# 4 0.000000 -0.000002 0.000001 0.132556 0.000000 -0.000001
# 5 0.000000 0.000002 0.000000 0.000000 -1.112987 0.000003
# 6 0.000000 0.000000 0.000000 -0.000001 0.000003 0.065287
#
#
# Mechanical properties :
#
#
# Convention : Reuss Voigt Hill
#
# Bulk Modulus (GPa) = 17.73915 28.63987 23.18951
# Shear Modulus (GPa) = -6.49493 15.19656 4.35082
#
# Velocity S-wave (km/s) = -1.98892 3.04231 1.62785
# Velocity P-wave (km/s) = 2.35155 5.45749 4.20203
#
# Compressibility (1/GPa) = 0.05637249
#
# Stress axis : x y z
#
# Youngs Moduli (GPa) = 42.16935 16.88881 117.34256
#
# Poissons Ratio (x) = 0.19643 0.03375
# Poissons Ratio (y) = 0.49047 0.65929
# Poissons Ratio (z) = 0.01213 0.09489
#
# Static dielectric constant tensor:
#      x y z
#    x 1.562910 0.000000 0.000000 
#    y 0.000000 1.534640 0.000000 
#    z 0.000000 0.000000 1.587410 
# 
# From -- ./inp_files/6187.got.cif
#   From: 2010.05.17/outbox.cif.g08.bks.cpg/sg46_4_cif.got.tgz:6187.got - 2010.06.03 19:58:25.
