data_PCOD9378903
_publ_section_title
;
Structure prediction by ZEFSAII (Michael W. Deem and Ramdas Pophale) SiO2 
 PCOD9378903
Probable space group: I M A 2
;
_chemical_formula_sum "Si O2"
_cell_formula_units_Z 64
_cell_length_a 8.709433
_cell_length_b 20.122891
_cell_length_c 21.060790
_cell_angle_alpha 90.000000
_cell_angle_beta 90.000000
_cell_angle_gamma 90.000000
_cell_volume 3691.092382
_symmetry_space_group_name_H-M "I M A 2"
_symmetry_group_IT_number 46
_symmetry_cell_setting 'orthorhombic'
loop_
_space_group_symop_operation_xyz
x,y,z
-x,-y,z
1/2-x,y,z
1/2+x,-y,z
1/2+x,1/2+y,1/2+z
1/2-x,1/2-y,1/2+z
-x,1/2+y,1/2+z
x,1/2-y,1/2+z
loop_
_atom_site_type_symbol
_atom_site_label
_atom_site_fract_x
_atom_site_fract_y
_atom_site_fract_z
Si Si1 0.433480 0.571639 0.630020
Si Si2 0.933998 0.570087 0.012358
Si Si3 0.567102 0.209041 0.315958
Si Si4 0.566066 0.928952 0.362106
Si Si5 0.434532 0.207030 0.932322
Si Si6 0.433334 0.571675 0.479434
Si Si7 0.934437 0.793054 0.181478
Si Si8 0.936887 0.711275 0.057992
O O1 0.500000 0.500000 0.649016
O O2 0.250000 0.572349 0.637984
O O3 0.468729 0.580731 0.554733
O O4 0.509058 0.632324 0.667122
O O5 0.750000 0.567439 0.016540
O O6 0.989082 0.635434 0.049139
O O7 0.000000 0.500000 0.034601
O O8 0.971457 0.577799 0.937414
O O9 0.750000 0.209355 0.317119
O O10 0.506249 0.134262 0.327961
O O11 0.502236 0.255636 0.371611
O O12 0.504663 0.230634 0.247535
O O13 0.750000 0.927980 0.355173
O O14 0.500000 0.000000 0.340676
O O15 0.250000 0.208563 0.928968
O O16 0.492837 0.132146 0.941115
O O17 0.483142 0.247009 0.995887
O O18 0.500000 0.500000 0.460926
O O19 0.250000 0.572098 0.472489
O O20 0.750000 0.792333 0.184834
O O21 0.985649 0.747586 0.122176
O O22 0.750000 0.710709 0.058089
#
# Coordination Sequence:
#
# PCOD9378903 Si02
#       8
#     8   8   8   8   8   8   8   8
#     4  10  20  34  53  80 114 150 187 228 273 331
#     4   9  17  32  53  82 112 140 175 221 270 324
#     4  12  25  39  54  80 115 151 190 235 284 339
#     4  10  19  34  55  80 112 149 188 228 273 331
#     4  11  20  37  61  85 111 147 189 236 286 335
#     4  10  20  34  55  86 118 149 185 231 282 336
#     4  11  22  38  58  80 108 149 191 232 282 336
#     4   9  18  34  58  83 109 141 183 229 277 331
#
# _framework density 17.339041000000002
#
# number of rings (size 3 to 8) (size 9 to 14) (size 15 to 20)
#    0.000    1.750    2.500    3.000    0.000    2.000 
#    0.000    3.750    0.000    0.750    0.000    3.500 
#    0.000    0.000    0.000    0.000    0.000    0.000 
#
# Total GULP energy -178745.598328 kJ/mol
# GULP energy per Si atom -5585.799948 kJ/mol
# Density = 1.729958 g / cm^3
# Si number density = 17.339041 Si / 1000 Ang^3
#
#
#
# Elastic Constant Matrix: (Units=GPa)
#
#
# Indices 1 2 3 4 5 6 
#
# 1 61.0208 37.1010 44.5483 0.0000 0.0000 0.0000
# 2 37.1010 132.0208 72.2376 0.0000 0.0000 0.0000
# 3 44.5483 72.2376 118.7989 0.0000 0.0000 0.0000
# 4 0.0000 0.0000 0.0000 20.4476 0.0000 0.0000
# 5 0.0000 0.0000 0.0000 0.0000 21.9987 0.0000
# 6 0.0000 0.0000 0.0000 0.0000 0.0000 31.7738
#
#
#
# Elastic Compliance Matrix: (Units=1/GPa)
#
#
# Indices 1 2 3 4 5 6 
#
# 1 0.023160 -0.002632 -0.007084 0.000000 0.000000 0.000000
# 2 -0.002632 0.011650 -0.006097 0.000000 0.000000 0.000000
# 3 -0.007084 -0.006097 0.014782 0.000000 0.000000 0.000000
# 4 0.000000 0.000000 0.000000 0.048906 0.000000 0.000000
# 5 0.000000 0.000000 0.000000 0.000000 0.045457 0.000000
# 6 0.000000 0.000000 0.000000 0.000000 0.000000 0.031472
#
#
# Mechanical properties :
#
#
# Convention : Reuss Voigt Hill
#
# Bulk Modulus (GPa) = 55.66426 68.84602 62.25514
# Shear Modulus (GPa) = 23.46943 25.37425 24.42184
#
# Velocity S-wave (km/s) = 3.68307 3.82961 3.75706
# Velocity P-wave (km/s) = 7.08941 7.70367 7.40292
#
# Compressibility (1/GPa) = 0.01796485
#
# Stress axis : x y z
#
# Youngs Moduli (GPa) = 43.17764 85.83324 67.65176
#
# Poissons Ratio (x) = 0.22594 0.47926
# Poissons Ratio (y) = 0.11366 0.41249
# Poissons Ratio (z) = 0.30588 0.52334
#
# Static dielectric constant tensor:
#      x y z
#    x 1.578270 0.000000 0.000000 
#    y 0.000000 1.577970 0.000000 
#    z 0.000000 0.000000 1.586010 
# 
# From -- ./inp_files/18559.got.cif
#   From: 2010.05.17/outbox.cif.g08.bks.cpg/sg46_10_cif.got.tgz:18559.got - 2010.06.03 19:58:25.
