data_PCOD9378015
_publ_section_title
;
Structure prediction by ZEFSAII (Michael W. Deem and Ramdas Pophale) SiO2 
 PCOD9378015
Probable space group: I M A 2
;
_chemical_formula_sum "Si O2"
_cell_formula_units_Z 64
_cell_length_a 15.928599
_cell_length_b 9.431818
_cell_length_c 22.171035
_cell_angle_alpha 90.000000
_cell_angle_beta 90.000000
_cell_angle_gamma 90.000000
_cell_volume 3330.879783
_symmetry_space_group_name_H-M "I M A 2"
_symmetry_group_IT_number 46
_symmetry_cell_setting 'orthorhombic'
loop_
_space_group_symop_operation_xyz
x,y,z
-x,-y,z
1/2-x,y,z
1/2+x,-y,z
1/2+x,1/2+y,1/2+z
1/2-x,1/2-y,1/2+z
-x,1/2+y,1/2+z
x,1/2-y,1/2+z
loop_
_atom_site_type_symbol
_atom_site_label
_atom_site_fract_x
_atom_site_fract_y
_atom_site_fract_z
Si Si1 0.848480 0.137832 0.837330
Si Si2 0.841649 0.792844 0.279774
Si Si3 0.344771 0.404811 0.102553
Si Si4 0.978612 0.669642 0.190481
Si Si5 0.850894 0.601065 0.965414
Si Si6 0.841762 0.342907 0.199869
Si Si7 0.593544 0.047365 0.345049
Si Si8 0.346602 0.375034 0.406273
O O1 0.750000 0.160571 0.851688
O O2 0.849227 0.089517 0.767220
O O3 0.894457 0.286505 0.839347
O O4 0.884299 0.023888 0.884513
O O5 0.750000 0.764632 0.251342
O O6 0.918746 0.734505 0.241305
O O7 0.843430 0.712800 0.343836
O O8 0.850317 0.957143 0.298516
O O9 0.250000 0.340737 0.101936
O O10 0.421817 0.317271 0.130617
O O11 0.339551 0.539169 0.147473
O O12 0.365830 0.444323 0.033864
O O13 0.000000 0.500000 0.199080
O O14 0.070962 0.739248 0.190069
O O15 0.750000 0.604329 0.956314
O O16 0.886192 0.500990 0.913333
O O17 0.883160 0.762171 0.953325
O O18 0.750000 0.269751 0.199244
O O19 0.500000 0.000000 0.331545
O O20 0.250000 0.404263 0.424919
#
# Coordination Sequence:
#
# PCOD9378015 Si02
#       8
#     8   8   8   8   8   8   8   8
#     4  10  18  32  53  76 105 139 179 223 273 329
#     4  10  19  33  51  75 108 141 178 223 277 334
#     4   9  17  30  50  75 103 137 179 225 272 324
#     4  10  18  28  48  77 104 135 178 226 271 321
#     4   9  18  34  52  73 103 138 178 224 276 331
#     4   9  18  30  46  72 103 136 174 221 273 323
#     4  11  22  33  49  77 111 147 182 224 276 333
#     4   8  15  28  50  75  99 133 174 218 264 317
#
# _framework density 19.214143
#
# number of rings (size 3 to 8) (size 9 to 14) (size 15 to 20)
#    0.000    2.500    0.000    4.500    0.000    5.000 
#    0.000    1.875    0.000    1.500    0.000    7.000 
#    0.000    0.000    0.000    0.250    0.000    0.125 
#
# Total GULP energy -178157.302139 kJ/mol
# GULP energy per Si atom -5567.415692 kJ/mol
# Density = 1.917041 g / cm^3
# Si number density = 19.214143 Si / 1000 Ang^3
#
#
#
# Elastic Constant Matrix: (Units=GPa)
#
#
# Indices 1 2 3 4 5 6 
#
# 1 121.4497 0.7700 25.0647 0.0000 0.0000 0.0000
# 2 0.7700 87.0284 26.2434 0.0000 0.0000 0.0000
# 3 25.0647 26.2434 85.5064 0.0000 0.0000 0.0000
# 4 0.0000 0.0000 0.0000 13.0390 0.0000 0.0000
# 5 0.0000 0.0000 0.0000 0.0000 9.9567 0.0000
# 6 0.0000 0.0000 0.0000 0.0000 0.0000 14.9032
#
#
#
# Elastic Compliance Matrix: (Units=1/GPa)
#
#
# Indices 1 2 3 4 5 6 
#
# 1 0.008811 0.000772 -0.002820 0.000000 0.000000 0.000000
# 2 0.000772 0.012730 -0.004133 0.000000 0.000000 0.000000
# 3 -0.002820 -0.004133 0.013790 0.000000 0.000000 0.000000
# 4 0.000000 0.000000 0.000000 0.076693 0.000000 0.000000
# 5 0.000000 0.000000 0.000000 0.000000 0.100435 0.000000
# 6 0.000000 0.000000 0.000000 0.000000 0.000000 0.067100
#
#
# Mechanical properties :
#
#
# Convention : Reuss Voigt Hill
#
# Bulk Modulus (GPa) = 43.53622 44.23786 43.88704
# Shear Modulus (GPa) = 16.69018 23.70687 20.19853
#
# Velocity S-wave (km/s) = 2.95047 3.51639 3.24579
# Velocity P-wave (km/s) = 5.85787 6.28970 6.07762
#
# Compressibility (1/GPa) = 0.02296938
#
# Stress axis : x y z
#
# Youngs Moduli (GPa) = 113.49557 78.55387 72.51496
#
# Poissons Ratio (x) = -0.06067 0.20448
# Poissons Ratio (y) = -0.08766 0.29974
# Poissons Ratio (z) = 0.32004 0.32470
#
# Static dielectric constant tensor:
#      x y z
#    x 1.800960 0.000000 0.000000 
#    y 0.000000 1.710030 0.000000 
#    z 0.000000 0.000000 1.661800 
# 
# From -- ./inp_files/22255.got.cif
#   From: 2010.05.17/outbox.cif.g08.bks.cpg/sg46_12_cif.got.tgz:22255.got - 2010.06.03 19:58:25.
