data_PCOD9378628
_publ_section_title
;
Structure prediction by ZEFSAII (Michael W. Deem and Ramdas Pophale) SiO2 
 PCOD9378628
Probable space group: I M A 2
;
_chemical_formula_sum "Si O2"
_cell_formula_units_Z 56
_cell_length_a 8.397115
_cell_length_b 16.196304
_cell_length_c 20.655098
_cell_angle_alpha 90.000000
_cell_angle_beta 90.000000
_cell_angle_gamma 90.000000
_cell_volume 2809.139332
_symmetry_space_group_name_H-M "I M A 2"
_symmetry_group_IT_number 46
_symmetry_cell_setting 'orthorhombic'
loop_
_space_group_symop_operation_xyz
x,y,z
-x,-y,z
1/2-x,y,z
1/2+x,-y,z
1/2+x,1/2+y,1/2+z
1/2-x,1/2-y,1/2+z
-x,1/2+y,1/2+z
x,1/2-y,1/2+z
loop_
_atom_site_type_symbol
_atom_site_label
_atom_site_fract_x
_atom_site_fract_y
_atom_site_fract_z
Si Si1 0.559388 0.093466 0.002840
Si Si2 0.565967 0.735865 0.766103
Si Si3 0.445266 0.257634 0.411097
Si Si4 0.942940 0.694689 0.624280
Si Si5 0.430028 0.415186 0.962661
Si Si6 0.068606 0.625063 0.088960
Si Si7 0.433039 0.076876 0.720376
O O1 0.750000 0.093775 0.005619
O O2 0.492375 0.124974 0.072781
O O3 0.500000 0.000000 0.989830
O O4 0.505227 0.160602 0.948307
O O5 0.750000 0.708381 0.772375
O O6 0.496876 0.736552 0.838205
O O7 0.505511 0.690299 0.700540
O O8 0.562723 0.833310 0.751185
O O9 0.250000 0.264143 0.411125
O O10 0.500212 0.174605 0.447578
O O11 0.750000 0.703228 0.623963
O O12 0.019505 0.779532 0.598270
O O13 0.500000 0.500000 0.936067
O O14 0.250000 0.412018 0.940663
O O15 0.446800 0.416552 0.039810
O O16 0.250000 0.616874 0.065933
O O17 0.045990 0.584590 0.158546
O O18 0.250000 0.063400 0.702377
O O19 0.500000 0.000000 0.760968
#
# Coordination Sequence:
#
# PCOD9378628 Si02
#       7
#     8   8   8   8   8   8   8
#     4  12  25  41  64  94 127 168 216 266 318 375
#     4   8  18  36  60  84 113 157 201 247 310 373
#     4  10  21  41  64  88 121 161 204 255 314 375
#     4  10  19  37  62  89 120 155 199 249 305 364
#     4  11  22  35  56  82 115 152 192 238 297 356
#     4  11  20  32  53  81 115 147 186 232 287 348
#     4  10  19  32  50  76 111 146 189 236 290 354
#
# _framework density 19.934932
#
# number of rings (size 3 to 8) (size 9 to 14) (size 15 to 20)
#    0.000    1.714    1.429    5.143    0.000    1.143 
#    0.000    6.429    0.000    1.714    0.000    0.000 
#    0.000    0.000    0.000    0.000    0.000    0.000 
#
# Total GULP energy -155949.220467 kJ/mol
# GULP energy per Si atom -5569.615017 kJ/mol
# Density = 1.988956 g / cm^3
# Si number density = 19.934932 Si / 1000 Ang^3
#
#
#
# Elastic Constant Matrix: (Units=GPa)
#
#
# Indices 1 2 3 4 5 6 
#
# 1 63.3967 17.1135 5.8971 0.0000 0.0000 0.0000
# 2 17.1135 107.8643 26.8243 0.0000 0.0000 0.0000
# 3 5.8971 26.8243 103.2226 0.0000 0.0000 0.0000
# 4 0.0000 0.0000 0.0000 3.5455 0.0000 0.0000
# 5 0.0000 0.0000 0.0000 0.0000 12.2433 0.0000
# 6 0.0000 0.0000 0.0000 0.0000 0.0000 30.5985
#
#
#
# Elastic Compliance Matrix: (Units=1/GPa)
#
#
# Indices 1 2 3 4 5 6 
#
# 1 0.016487 -0.002546 -0.000280 0.000000 0.000000 0.000000
# 2 -0.002546 0.010305 -0.002532 0.000000 0.000000 0.000000
# 3 -0.000280 -0.002532 0.010362 0.000000 0.000000 0.000000
# 4 0.000000 0.000000 0.000000 0.282047 0.000000 0.000000
# 5 0.000000 0.000000 0.000000 0.000000 0.081677 0.000000
# 6 0.000000 0.000000 0.000000 0.000000 0.000000 0.032681
#
#
# Mechanical properties :
#
#
# Convention : Reuss Voigt Hill
#
# Bulk Modulus (GPa) = 37.82706 41.57261 39.69983
# Shear Modulus (GPa) = 11.03538 24.25405 17.64471
#
# Velocity S-wave (km/s) = 2.35536 3.49185 2.97832
# Velocity P-wave (km/s) = 5.13940 6.09564 5.63783
#
# Compressibility (1/GPa) = 0.02643610
#
# Stress axis : x y z
#
# Youngs Moduli (GPa) = 60.65362 97.04370 96.50739
#
# Poissons Ratio (x) = 0.24708 0.02705
# Poissons Ratio (y) = 0.15443 0.24439
# Poissons Ratio (z) = 0.01700 0.24575
#
# Static dielectric constant tensor:
#      x y z
#    x 1.712490 0.000000 0.000000 
#    y 0.000000 1.755970 0.000000 
#    z 0.000000 0.000000 1.751410 
# 
# From -- ./inp_files/21089.got.cif
#   From: 2010.05.17/outbox.cif.g08.bks.cpg/sg46_11_cif.got.tgz:21089.got - 2010.06.03 19:58:25.
