data_PCOD9378375
_publ_section_title
;
Structure prediction by ZEFSAII (Michael W. Deem and Ramdas Pophale) SiO2 
 PCOD9378375
Probable space group: I M A 2
;
_chemical_formula_sum "Si O2"
_cell_formula_units_Z 64
_cell_length_a 16.646879
_cell_length_b 14.019597
_cell_length_c 14.259960
_cell_angle_alpha 90.000000
_cell_angle_beta 90.000000
_cell_angle_gamma 90.000000
_cell_volume 3328.025612
_symmetry_space_group_name_H-M "I M A 2"
_symmetry_group_IT_number 46
_symmetry_cell_setting 'orthorhombic'
loop_
_space_group_symop_operation_xyz
x,y,z
-x,-y,z
1/2-x,y,z
1/2+x,-y,z
1/2+x,1/2+y,1/2+z
1/2-x,1/2-y,1/2+z
-x,1/2+y,1/2+z
x,1/2-y,1/2+z
loop_
_atom_site_type_symbol
_atom_site_label
_atom_site_fract_x
_atom_site_fract_y
_atom_site_fract_z
Si Si1 0.343832 0.216088 0.756440
Si Si2 0.880280 0.780109 0.965428
Si Si3 0.652439 0.113242 0.148518
Si Si4 0.658521 0.942965 0.480229
Si Si5 0.842796 0.896850 0.151644
Si Si6 0.442404 0.738260 0.020901
Si Si7 0.844640 0.376050 0.863977
Si Si8 0.039328 0.413423 0.138412
O O1 0.250000 0.212902 0.730243
O O2 0.353389 0.186484 0.863770
O O3 0.374431 0.323288 0.730550
O O4 0.395701 0.145852 0.694539
O O5 0.850384 0.670218 0.966462
O O6 0.847757 0.839049 0.053830
O O7 0.976302 0.780576 0.976146
O O8 0.750000 0.118045 0.136289
O O9 0.609146 0.182621 0.075304
O O10 0.633299 0.141544 0.256103
O O11 0.623684 0.003016 0.139547
O O12 0.750000 0.961994 0.513033
O O13 0.589178 0.964055 0.554776
O O14 0.645462 0.011880 0.391385
O O15 0.750000 0.913469 0.177676
O O16 0.475976 0.660826 0.095450
O O17 0.393212 0.685266 0.939399
O O18 0.750000 0.355016 0.873839
O O19 0.000000 0.500000 0.194474
#
# Coordination Sequence:
#
# PCOD9378375 Si02
#       8
#     8   8   8   8   8   8   8   8
#     4  11  22  40  64  90 121 164 207 250 305 370
#     4  11  23  36  60  92 122 157 202 254 312 367
#     4  10  23  42  63  90 123 162 211 254 299 369
#     4  10  18  35  62  90 120 153 197 254 307 361
#     4  10  20  39  63  90 123 158 203 255 303 359
#     4  11  23  39  60  86 128 161 196 254 315 355
#     4  10  21  38  65  92 116 162 212 251 303 368
#     4  11  22  39  56  89 125 159 198 258 304 361
#
# _framework density 19.230620999999999
#
# number of rings (size 3 to 8) (size 9 to 14) (size 15 to 20)
#    0.000    1.500    3.750    2.625    1.750    2.500 
#    2.250    2.500    0.000    0.000    0.000    0.000 
#    0.000    0.000    0.000    0.000    0.000    0.000 
#
# Total GULP energy -178536.824614 kJ/mol
# GULP energy per Si atom -5579.275769 kJ/mol
# Density = 1.918685 g / cm^3
# Si number density = 19.230621 Si / 1000 Ang^3
#
#
#
# Elastic Constant Matrix: (Units=GPa)
#
#
# Indices 1 2 3 4 5 6 
#
# 1 69.2637 48.1333 21.7467 0.0000 0.0000 0.0000
# 2 48.1333 86.1953 34.7075 0.0000 0.0000 0.0000
# 3 21.7467 34.7075 68.9686 0.0000 0.0000 0.0000
# 4 0.0000 0.0000 0.0000 24.4395 0.0000 0.0000
# 5 0.0000 0.0000 0.0000 0.0000 90.9152 0.0000
# 6 0.0000 0.0000 0.0000 0.0000 0.0000 21.8224
#
#
#
# Elastic Compliance Matrix: (Units=1/GPa)
#
#
# Indices 1 2 3 4 5 6 
#
# 1 0.023650 -0.012797 -0.001017 0.000000 0.000000 0.000000
# 2 -0.012797 0.021474 -0.006772 0.000000 0.000000 0.000000
# 3 -0.001017 -0.006772 0.018228 0.000000 0.000000 0.000000
# 4 0.000000 0.000000 0.000000 0.040917 0.000000 0.000000
# 5 0.000000 0.000000 0.000000 0.000000 0.010999 0.000000
# 6 0.000000 0.000000 0.000000 0.000000 0.000000 0.045825
#
#
# Mechanical properties :
#
#
# Convention : Reuss Voigt Hill
#
# Bulk Modulus (GPa) = 45.08479 48.17805 46.63142
# Shear Modulus (GPa) = 23.84831 35.42477 29.63654
#
# Velocity S-wave (km/s) = 3.52536 4.29663 3.92996
# Velocity P-wave (km/s) = 6.32977 7.05137 6.70029
#
# Compressibility (1/GPa) = 0.02218043
#
# Stress axis : x y z
#
# Youngs Moduli (GPa) = 42.28330 46.56720 54.86123
#
# Poissons Ratio (x) = 0.59592 0.05581
# Poissons Ratio (y) = 0.54110 0.37150
# Poissons Ratio (z) = 0.04301 0.31533
#
# Static dielectric constant tensor:
#      x y z
#    x 1.475110 0.000000 0.000000 
#    y 0.000000 1.694150 0.000000 
#    z 0.000000 0.000000 1.677510 
# 
# From -- ./inp_files/16780.got.cif
#   From: 2010.05.17/outbox.cif.g08.bks.cpg/sg46_9_cif.got.tgz:16780.got - 2010.06.03 19:58:25.
