data_PCOD9378495
_publ_section_title
;
Structure prediction by ZEFSAII (Michael W. Deem and Ramdas Pophale) SiO2 
 PCOD9378495
Probable space group: I M A 2
;
_chemical_formula_sum "Si O2"
_cell_formula_units_Z 64
_cell_length_a 8.657163
_cell_length_b 23.972510
_cell_length_c 19.761868
_cell_angle_alpha 90.000000
_cell_angle_beta 90.000000
_cell_angle_gamma 90.000000
_cell_volume 4101.258063
_symmetry_space_group_name_H-M "I M A 2"
_symmetry_group_IT_number 46
_symmetry_cell_setting 'orthorhombic'
loop_
_space_group_symop_operation_xyz
x,y,z
-x,-y,z
1/2-x,y,z
1/2+x,-y,z
1/2+x,1/2+y,1/2+z
1/2-x,1/2-y,1/2+z
-x,1/2+y,1/2+z
x,1/2-y,1/2+z
loop_
_atom_site_type_symbol
_atom_site_label
_atom_site_fract_x
_atom_site_fract_y
_atom_site_fract_z
Si Si1 0.435243 0.246459 0.004190
Si Si2 0.935419 0.938441 0.869305
Si Si3 0.936125 0.769470 0.653329
Si Si4 0.936514 0.163477 0.232955
Si Si5 0.936035 0.061855 0.144477
Si Si6 0.065115 0.772224 0.363444
Si Si7 0.563611 0.833712 0.783147
Si Si8 0.435838 0.879405 0.003156
O O1 0.250000 0.243929 0.001817
O O2 0.484412 0.273982 0.075395
O O3 0.495800 0.277456 0.937763
O O4 0.499465 0.183321 0.002708
O O5 0.750000 0.940553 0.873192
O O6 0.980131 0.894299 0.810797
O O7 0.999681 0.913312 0.939372
O O8 0.000000 0.000000 0.858027
O O9 0.750000 0.766417 0.654273
O O10 0.982179 0.817576 0.706558
O O11 0.000848 0.711991 0.684056
O O12 0.750000 0.165367 0.230008
O O13 0.987108 0.104031 0.203844
O O14 0.982654 0.180721 0.308921
O O15 0.750000 0.059333 0.145410
O O16 0.980929 0.089746 0.072796
O O17 0.000000 0.000000 0.150767
O O18 0.250000 0.771151 0.367568
O O19 0.007909 0.713705 0.331426
O O20 0.750000 0.829150 0.788116
O O21 0.250000 0.877183 0.999591
#
# Coordination Sequence:
#
# PCOD9378495 Si02
#       8
#     8   8   8   8   8   8   8   8
#     4  11  20  30  47  72 100 128 158 194 238 286
#     4  11  22  34  49  68  96 129 164 201 236 279
#     4   9  18  31  49  70  93 123 156 193 237 284
#     4   9  18  33  48  68  94 123 157 198 239 278
#     4  10  21  34  48  67  94 127 163 200 234 275
#     4  10  19  30  49  70  94 125 157 193 238 287
#     4   9  18  33  49  68  93 122 158 198 237 277
#     4  11  21  33  48  67  96 131 167 199 230 274
#
# _framework density 15.604967
#
# number of rings (size 3 to 8) (size 9 to 14) (size 15 to 20)
#    0.000    2.000    2.500    1.875    0.000    4.000 
#    0.000    0.000    0.000    0.000    0.000    0.875 
#    0.000    6.000    0.000    0.000    0.000    0.000 
#
# Total GULP energy -178504.908679 kJ/mol
# GULP energy per Si atom -5578.278396 kJ/mol
# Density = 1.556945 g / cm^3
# Si number density = 15.604967 Si / 1000 Ang^3
#
#
#
# Elastic Constant Matrix: (Units=GPa)
#
#
# Indices 1 2 3 4 5 6 
#
# 1 22.4501 25.1811 33.6472 0.0000 0.0000 0.0000
# 2 25.1811 97.4340 75.7817 0.0000 0.0000 0.0000
# 3 33.6472 75.7817 159.3914 0.0000 0.0000 0.0000
# 4 0.0000 0.0000 0.0000 20.4388 0.0000 0.0000
# 5 0.0000 0.0000 0.0000 0.0000 19.0108 0.0000
# 6 0.0000 0.0000 0.0000 0.0000 0.0000 19.7114
#
#
#
# Elastic Compliance Matrix: (Units=1/GPa)
#
#
# Indices 1 2 3 4 5 6 
#
# 1 0.071563 -0.010703 -0.010018 0.000000 0.000000 0.000000
# 2 -0.010703 0.017886 -0.006245 0.000000 0.000000 0.000000
# 3 -0.010018 -0.006245 0.011358 0.000000 0.000000 0.000000
# 4 0.000000 0.000000 0.000000 0.048926 0.000000 0.000000
# 5 0.000000 0.000000 0.000000 0.000000 0.052602 0.000000
# 6 0.000000 0.000000 0.000000 0.000000 0.000000 0.050732
#
#
# Mechanical properties :
#
#
# Convention : Reuss Voigt Hill
#
# Bulk Modulus (GPa) = 21.33313 60.94394 41.13853
# Shear Modulus (GPa) = 15.49793 21.47658 18.48725
#
# Velocity S-wave (km/s) = 3.15483 3.71383 3.44569
# Velocity P-wave (km/s) = 5.19336 7.58479 6.50000
#
# Compressibility (1/GPa) = 0.04687545
#
# Stress axis : x y z
#
# Youngs Moduli (GPa) = 13.97369 55.90849 88.04694
#
# Poissons Ratio (x) = 0.59840 0.88206
# Poissons Ratio (y) = 0.14956 0.54981
# Poissons Ratio (z) = 0.13999 0.34912
#
# Static dielectric constant tensor:
#      x y z
#    x 1.531360 0.000000 0.000000 
#    y 0.000000 1.493330 0.000000 
#    z 0.000000 0.000000 1.541410 
# 
# From -- ./inp_files/18625.got.cif
#   From: 2010.05.17/outbox.cif.g08.bks.cpg/sg46_10_cif.got.tgz:18625.got - 2010.06.03 19:58:25.
