data_PCOD9378870
_publ_section_title
;
Structure prediction by ZEFSAII (Michael W. Deem and Ramdas Pophale) SiO2 
 PCOD9378870
Probable space group: I M A 2
;
_chemical_formula_sum "Si O2"
_cell_formula_units_Z 64
_cell_length_a 21.217350
_cell_length_b 15.556596
_cell_length_c 9.846034
_cell_angle_alpha 90.000000
_cell_angle_beta 90.000000
_cell_angle_gamma 90.000000
_cell_volume 3249.877903
_symmetry_space_group_name_H-M "I M A 2"
_symmetry_group_IT_number 46
_symmetry_cell_setting 'orthorhombic'
loop_
_space_group_symop_operation_xyz
x,y,z
-x,-y,z
1/2-x,y,z
1/2+x,-y,z
1/2+x,1/2+y,1/2+z
1/2-x,1/2-y,1/2+z
-x,1/2+y,1/2+z
x,1/2-y,1/2+z
loop_
_atom_site_type_symbol
_atom_site_label
_atom_site_fract_x
_atom_site_fract_y
_atom_site_fract_z
Si Si1 0.055064 0.932999 0.962120
Si Si2 0.818339 0.641316 0.683684
Si Si3 0.178983 0.528578 0.869654
Si Si4 0.042738 0.916277 0.286120
Si Si5 0.581592 0.735422 0.089817
Si Si6 0.320975 0.094884 0.601838
Si Si7 0.820363 0.960624 0.907572
Si Si8 0.502765 0.725085 0.339493
O O1 0.122750 0.975740 0.939545
O O2 0.049468 0.843647 0.882473
O O3 0.043746 0.916557 0.122059
O O4 0.000000 0.000000 0.917876
O O5 0.750000 0.681874 0.713541
O O6 0.824007 0.557941 0.777718
O O7 0.876814 0.704228 0.688442
O O8 0.818868 0.608016 0.528869
O O9 0.250000 0.565395 0.847195
O O10 0.115384 0.577846 0.833583
O O11 0.174680 0.495202 0.023838
O O12 0.015513 0.825582 0.336832
O O13 0.000000 0.000000 0.326839
O O14 0.627682 0.659763 0.044935
O O15 0.527238 0.702433 0.189485
O O16 0.554222 0.783905 0.959927
O O17 0.250000 0.127394 0.576412
O O18 0.330464 0.082703 0.761657
O O19 0.750000 0.000891 0.905038
#
# Coordination Sequence:
#
# PCOD9378870 Si02
#       8
#     8   8   8   8   8   8   8   8
#     4  11  22  41  65  88 122 164 203 253 307 357
#     4  10  19  33  58  88 113 158 210 240 289 373
#     4  10  21  38  62  87 115 156 208 250 298 362
#     4  11  22  41  65  88 122 164 203 253 307 357
#     4  12  21  36  54  82 129 160 190 248 306 362
#     4  10  21  35  54  88 125 156 190 244 311 369
#     4  10  21  38  62  87 115 156 208 250 298 362
#     4  12  26  38  58  94 120 158 212 252 296 364
#
# _framework density 19.693048000000001
#
# number of rings (size 3 to 8) (size 9 to 14) (size 15 to 20)
#    0.000    1.250    2.500    4.875    0.000    1.000 
#    0.000    8.125    0.000    0.000    0.000    0.000 
#    0.000    0.000    0.000    0.000    0.000    0.000 
#
# Total GULP energy -178679.218719 kJ/mol
# GULP energy per Si atom -5583.725585 kJ/mol
# Density = 1.964823 g / cm^3
# Si number density = 19.693048 Si / 1000 Ang^3
#
#
#
# Elastic Constant Matrix: (Units=GPa)
#
#
# Indices 1 2 3 4 5 6 
#
# 1 97.2505 33.1867 -7.9193 0.0000 0.0000 0.0000
# 2 33.1867 48.8927 -19.3072 0.0000 0.0000 0.0000
# 3 -7.9193 -19.3072 55.2815 0.0000 0.0000 0.0000
# 4 0.0000 0.0000 0.0000 26.5237 0.0000 0.0000
# 5 0.0000 0.0000 0.0000 0.0000 19.0592 0.0000
# 6 0.0000 0.0000 0.0000 0.0000 0.0000 14.7144
#
#
#
# Elastic Compliance Matrix: (Units=1/GPa)
#
#
# Indices 1 2 3 4 5 6 
#
# 1 0.013484 -0.009732 -0.001467 0.000000 0.000000 0.000000
# 2 -0.009732 0.030749 0.009345 0.000000 0.000000 0.000000
# 3 -0.001467 0.009345 0.021143 0.000000 0.000000 0.000000
# 4 0.000000 0.000000 0.000000 0.037702 0.000000 0.000000
# 5 0.000000 0.000000 0.000000 0.000000 0.052468 0.000000
# 6 0.000000 0.000000 0.000000 0.000000 0.000000 0.067961
#
#
# Mechanical properties :
#
#
# Convention : Reuss Voigt Hill
#
# Bulk Modulus (GPa) = 16.21604 23.70502 19.96053
# Shear Modulus (GPa) = 20.17988 25.09043 22.63515
#
# Velocity S-wave (km/s) = 3.20460 3.57329 3.39396
# Velocity P-wave (km/s) = 4.68454 5.39332 5.05138
#
# Compressibility (1/GPa) = 0.06166734
#
# Stress axis : x y z
#
# Youngs Moduli (GPa) = 74.16024 32.52139 47.29740
#
# Poissons Ratio (x) = 0.31650 0.06940
# Poissons Ratio (y) = 0.72174 -0.44199
# Poissons Ratio (z) = 0.10881 -0.30391
#
# Static dielectric constant tensor:
#      x y z
#    x 1.747330 0.000000 0.000000 
#    y 0.000000 1.680130 0.000000 
#    z 0.000000 0.000000 1.701080 
# 
# From -- ./inp_files/7985.got.cif
#   From: 2010.05.17/outbox.cif.g08.bks.cpg/sg46_4_cif.got.tgz:7985.got - 2010.06.03 19:58:25.
