data_PCOD9378476
_publ_section_title
;
Structure prediction by ZEFSAII (Michael W. Deem and Ramdas Pophale) SiO2 
 PCOD9378476
Probable space group: I M A 2
;
_chemical_formula_sum "Si O2"
_cell_formula_units_Z 56
_cell_length_a 8.795611
_cell_length_b 18.971469
_cell_length_c 21.186210
_cell_angle_alpha 90.000000
_cell_angle_beta 90.000000
_cell_angle_gamma 90.000000
_cell_volume 3535.250945
_symmetry_space_group_name_H-M "I M A 2"
_symmetry_group_IT_number 46
_symmetry_cell_setting 'orthorhombic'
loop_
_space_group_symop_operation_xyz
x,y,z
-x,-y,z
1/2-x,y,z
1/2+x,-y,z
1/2+x,1/2+y,1/2+z
1/2-x,1/2-y,1/2+z
-x,1/2+y,1/2+z
x,1/2-y,1/2+z
loop_
_atom_site_type_symbol
_atom_site_label
_atom_site_fract_x
_atom_site_fract_y
_atom_site_fract_z
Si Si1 0.068753 0.218999 0.890490
Si Si2 0.931213 0.421759 0.085260
Si Si3 0.433014 0.576669 0.831948
Si Si4 0.570755 0.215244 0.265924
Si Si5 0.431624 0.154333 0.706365
Si Si6 0.568875 0.576415 0.337450
Si Si7 0.068994 0.355513 0.959668
O O1 0.250000 0.224881 0.873977
O O2 0.032829 0.136068 0.890075
O O3 0.044448 0.271532 0.948706
O O4 0.970444 0.251091 0.833816
O O5 0.750000 0.425843 0.085347
O O6 0.000000 0.500000 0.087659
O O7 0.989433 0.379067 0.145913
O O8 0.989289 0.384415 0.021703
O O9 0.500000 0.500000 0.819010
O O10 0.250000 0.574464 0.838369
O O11 0.470242 0.633497 0.777032
O O12 0.504044 0.605185 0.897643
O O13 0.750000 0.220715 0.253627
O O14 0.481053 0.264763 0.217608
O O15 0.250000 0.150051 0.700289
O O16 0.476445 0.110119 0.769521
O O17 0.500000 0.500000 0.347395
O O18 0.750000 0.568707 0.335709
O O19 0.250000 0.368068 0.963237
#
# Coordination Sequence:
#
# PCOD9378476 Si02
#       7
#     8   8   8   8   8   8   8
#     4   8  16  30  46  64  89 121 155 190 229 277
#     4  12  24  36  49  68  95 125 159 194 229 272
#     4  10  19  30  46  70  98 125 155 192 235 280
#     4   9  17  29  46  68  92 119 153 193 234 275
#     4  10  20  34  49  66  92 126 161 192 228 275
#     4   9  17  28  44  68  94 119 148 184 225 269
#     4  10  19  33  50  66  90 125 161 195 233 276
#
# _framework density 15.84046
#
# number of rings (size 3 to 8) (size 9 to 14) (size 15 to 20)
#    0.000    2.286    0.000    4.714    0.000    6.286 
#    0.000    0.000    0.000    0.000    0.000    1.000 
#    0.000    4.571    0.000    0.000    0.000    0.000 
#
# Total GULP energy -156031.589064 kJ/mol
# GULP energy per Si atom -5572.556752 kJ/mol
# Density = 1.580441 g / cm^3
# Si number density = 15.840460 Si / 1000 Ang^3
#
#
#
# Elastic Constant Matrix: (Units=GPa)
#
#
# Indices 1 2 3 4 5 6 
#
# 1 76.6776 58.7460 42.1496 0.0000 0.0000 0.0000
# 2 58.7460 162.1333 59.2278 0.0000 0.0000 0.0000
# 3 42.1496 59.2278 68.3063 0.0000 0.0000 0.0000
# 4 0.0000 0.0000 0.0000 20.0463 0.0000 0.0000
# 5 0.0000 0.0000 0.0000 0.0000 21.4552 0.0000
# 6 0.0000 0.0000 0.0000 0.0000 0.0000 26.1409
#
#
#
# Elastic Compliance Matrix: (Units=1/GPa)
#
#
# Indices 1 2 3 4 5 6 
#
# 1 0.021636 -0.004336 -0.009591 0.000000 0.000000 0.000000
# 2 -0.004336 0.009896 -0.005905 0.000000 0.000000 0.000000
# 3 -0.009591 -0.005905 0.025679 0.000000 0.000000 0.000000
# 4 0.000000 0.000000 0.000000 0.049884 0.000000 0.000000
# 5 0.000000 0.000000 0.000000 0.000000 0.046609 0.000000
# 6 0.000000 0.000000 0.000000 0.000000 0.000000 0.038254
#
#
# Mechanical properties :
#
#
# Convention : Reuss Voigt Hill
#
# Bulk Modulus (GPa) = 56.99299 69.70709 63.35004
# Shear Modulus (GPa) = 21.05521 23.32807 22.19164
#
# Velocity S-wave (km/s) = 3.64978 3.84173 3.74698
# Velocity P-wave (km/s) = 7.33612 7.98622 7.66806
#
# Compressibility (1/GPa) = 0.01754602
#
# Stress axis : x y z
#
# Youngs Moduli (GPa) = 46.22011 101.05201 38.94246
#
# Poissons Ratio (x) = 0.43811 0.37351
# Poissons Ratio (y) = 0.20039 0.22997
# Poissons Ratio (z) = 0.44331 0.59675
#
# Static dielectric constant tensor:
#      x y z
#    x 1.532160 0.000000 0.000000 
#    y 0.000000 1.561380 0.000000 
#    z 0.000000 0.000000 1.507310 
# 
# From -- ./inp_files/21210.got.cif
#   From: 2010.05.17/outbox.cif.g08.bks.cpg/sg46_11_cif.got.tgz:21210.got - 2010.06.03 19:58:25.
