data_PCOD9378230
_publ_section_title
;
Structure prediction by ZEFSAII (Michael W. Deem and Ramdas Pophale) SiO2 
 PCOD9378230
Probable space group: I M A 2
;
_chemical_formula_sum "Si O2"
_cell_formula_units_Z 64
_cell_length_a 8.656704
_cell_length_b 14.393068
_cell_length_c 30.248991
_cell_angle_alpha 90.000000
_cell_angle_beta 90.000000
_cell_angle_gamma 90.000000
_cell_volume 3768.919294
_symmetry_space_group_name_H-M "I M A 2"
_symmetry_group_IT_number 46
_symmetry_cell_setting 'orthorhombic'
loop_
_space_group_symop_operation_xyz
x,y,z
-x,-y,z
1/2-x,y,z
1/2+x,-y,z
1/2+x,1/2+y,1/2+z
1/2-x,1/2-y,1/2+z
-x,1/2+y,1/2+z
x,1/2-y,1/2+z
loop_
_atom_site_type_symbol
_atom_site_label
_atom_site_fract_x
_atom_site_fract_y
_atom_site_fract_z
Si Si1 0.566470 0.603904 0.021410
Si Si2 0.575711 0.907072 0.833603
Si Si3 0.930383 0.259399 0.280005
Si Si4 0.437194 0.895374 0.344372
Si Si5 0.065363 0.605123 0.111874
Si Si6 0.066130 0.704748 0.936348
Si Si7 0.575891 0.594613 0.438767
Si Si8 0.934326 0.894264 0.705284
O O1 0.500000 0.500000 0.018173
O O2 0.750000 0.600522 0.026135
O O3 0.494454 0.648336 0.066012
O O4 0.517280 0.653827 0.976671
O O5 0.750000 0.891096 0.816402
O O6 0.458944 0.825460 0.822261
O O7 0.588932 0.917997 0.885856
O O8 0.500000 0.000000 0.814698
O O9 0.750000 0.252955 0.268825
O O10 0.985942 0.160625 0.299776
O O11 0.014851 0.318573 0.241902
O O12 0.250000 0.896775 0.344122
O O13 0.484851 0.839459 0.389096
O O14 0.500000 0.000000 0.345663
O O15 0.250000 0.604014 0.112808
O O16 0.000000 0.500000 0.110732
O O17 0.999113 0.641460 0.158109
O O18 0.250000 0.691526 0.939418
O O19 0.024503 0.812773 0.942416
O O20 0.500000 0.500000 0.456611
O O21 0.750000 0.608395 0.456138
O O22 0.750000 0.902102 0.703618
O O23 0.000000 0.000000 0.712380
#
# Coordination Sequence:
#
# PCOD9378230 Si02
#       8
#     8   8   8   8   8   8   8   8
#     4  11  21  34  52  78 108 142 179 220 262 313
#     4  10  19  30  46  68  95 129 165 205 248 296
#     4  11  21  35  50  71  99 134 173 213 255 305
#     4  10  23  38  54  72  99 135 175 221 266 306
#     4  10  18  32  52  76 106 140 171 211 259 313
#     4  11  21  36  54  77 104 139 180 222 264 313
#     4  10  20  33  50  72  99 134 171 213 259 309
#     4  11  21  34  52  78 108 141 172 211 257 313
#
# _framework density 16.980995
#
# number of rings (size 3 to 8) (size 9 to 14) (size 15 to 20)
#    0.000    1.500    1.250    7.125    0.000    4.000 
#    0.000    0.000    0.000    0.000    0.000    0.875 
#    0.000    2.000    0.000    0.000    0.000    0.000 
#
# Total GULP energy -178375.070888 kJ/mol
# GULP energy per Si atom -5574.220965 kJ/mol
# Density = 1.694235 g / cm^3
# Si number density = 16.980995 Si / 1000 Ang^3
#
#
#
# Elastic Constant Matrix: (Units=GPa)
#
#
# Indices 1 2 3 4 5 6 
#
# 1 108.2087 22.0981 44.6345 0.0000 0.0000 0.0000
# 2 22.0981 90.1320 38.4941 0.0000 0.0000 0.0000
# 3 44.6345 38.4941 105.4725 0.0000 0.0000 0.0000
# 4 0.0000 0.0000 0.0000 42.3755 0.0000 0.0000
# 5 0.0000 0.0000 0.0000 0.0000 24.4395 0.0000
# 6 0.0000 0.0000 0.0000 0.0000 0.0000 22.6903
#
#
#
# Elastic Compliance Matrix: (Units=1/GPa)
#
#
# Indices 1 2 3 4 5 6 
#
# 1 0.011252 -0.000859 -0.004448 0.000000 0.000000 0.000000
# 2 -0.000859 0.013209 -0.004457 0.000000 0.000000 0.000000
# 3 -0.004448 -0.004457 0.012990 0.000000 0.000000 0.000000
# 4 0.000000 0.000000 0.000000 0.023599 0.000000 0.000000
# 5 0.000000 0.000000 0.000000 0.000000 0.040917 0.000000
# 6 0.000000 0.000000 0.000000 0.000000 0.000000 0.044072
#
#
# Mechanical properties :
#
#
# Convention : Reuss Voigt Hill
#
# Bulk Modulus (GPa) = 55.79657 57.14074 56.46865
# Shear Modulus (GPa) = 29.14749 31.14017 30.14383
#
# Velocity S-wave (km/s) = 4.14753 4.28696 4.21782
# Velocity P-wave (km/s) = 7.47433 7.63066 7.55290
#
# Compressibility (1/GPa) = 0.01792225
#
# Stress axis : x y z
#
# Youngs Moduli (GPa) = 88.87662 75.70524 76.98044
#
# Poissons Ratio (x) = 0.06502 0.34241
# Poissons Ratio (y) = 0.07634 0.34313
# Poissons Ratio (z) = 0.39533 0.33745
#
# Static dielectric constant tensor:
#      x y z
#    x 1.590540 0.000000 0.000000 
#    y 0.000000 1.560060 0.000000 
#    z 0.000000 0.000000 1.626630 
# 
# From -- ./inp_files/25280.got.cif
#   From: 2010.05.17/outbox.cif.g08.bks.cpg/sg46_13_cif.got.tgz:25280.got - 2010.06.03 19:58:25.
