data_PCOD9378825
_publ_section_title
;
Structure prediction by ZEFSAII (Michael W. Deem and Ramdas Pophale) SiO2 
 PCOD9378825
Probable space group: I M A 2
;
_chemical_formula_sum "Si O2"
_cell_formula_units_Z 64
_cell_length_a 16.332920
_cell_length_b 8.967252
_cell_length_c 24.584812
_cell_angle_alpha 90.000000
_cell_angle_beta 90.000000
_cell_angle_gamma 90.000000
_cell_volume 3600.726219
_symmetry_space_group_name_H-M "I M A 2"
_symmetry_group_IT_number 46
_symmetry_cell_setting 'orthorhombic'
loop_
_space_group_symop_operation_xyz
x,y,z
-x,-y,z
1/2-x,y,z
1/2+x,-y,z
1/2+x,1/2+y,1/2+z
1/2-x,1/2-y,1/2+z
-x,1/2+y,1/2+z
x,1/2-y,1/2+z
loop_
_atom_site_type_symbol
_atom_site_label
_atom_site_fract_x
_atom_site_fract_y
_atom_site_fract_z
Si Si1 0.923467 0.114911 0.233630
Si Si2 0.012254 0.323555 0.629251
Si Si3 0.847805 0.828246 0.818878
Si Si4 0.656950 0.827051 0.209453
Si Si5 0.151821 0.819532 0.825094
Si Si6 0.920122 0.104812 0.936115
Si Si7 0.988440 0.675649 0.013507
Si Si8 0.344838 0.299601 0.441664
O O1 0.897198 0.219439 0.282532
O O2 0.948604 0.202274 0.178769
O O3 0.849337 0.003273 0.220443
O O4 0.000000 0.000000 0.243902
O O5 0.099861 0.299127 0.657886
O O6 0.006447 0.224827 0.576110
O O7 0.000000 0.500000 0.615043
O O8 0.750000 0.803679 0.819911
O O9 0.878108 0.748798 0.764504
O O10 0.875347 0.775027 0.878877
O O11 0.861130 0.004588 0.813443
O O12 0.750000 0.778322 0.201264
O O13 0.250000 0.790684 0.824294
O O14 0.113266 0.804399 0.884803
O O15 0.945955 0.220750 0.982045
O O16 0.853708 0.978238 0.950666
O O17 0.000000 0.000000 0.923971
O O18 0.902665 0.720199 0.984938
O O19 0.000000 0.500000 0.007223
O O20 0.250000 0.256371 0.445497
#
# Coordination Sequence:
#
# PCOD9378825 Si02
#       8
#     8   8   8   8   8   8   8   8
#     4   9  20  33  50  77 108 138 173 212 258 314
#     4   9  20  37  52  70 100 140 185 219 254 316
#     4   8  16  30  50  79 107 131 163 206 255 306
#     4   9  17  32  54  77 103 135 173 216 261 309
#     4  10  19  33  55  82 110 137 171 213 257 309
#     4   9  19  34  55  80 109 145 180 211 255 316
#     4  11  23  37  54  78 108 139 177 227 277 318
#     4   9  18  36  59  79 105 143 184 218 255 314
#
# _framework density 17.774193
#
# number of rings (size 3 to 8) (size 9 to 14) (size 15 to 20)
#    0.000    3.000    0.000    2.625    0.000    9.000 
#    0.000    3.125    0.000    6.000    0.000    0.000 
#    0.000    0.000    0.000    0.000    0.000    0.000 
#
# Total GULP energy -178191.343128 kJ/mol
# GULP energy per Si atom -5568.479473 kJ/mol
# Density = 1.773374 g / cm^3
# Si number density = 17.774193 Si / 1000 Ang^3
#
#
#
# Elastic Constant Matrix: (Units=GPa)
#
#
# Indices 1 2 3 4 5 6 
#
# 1 55.3659 27.0875 54.3005 0.0000 0.0000 0.0000
# 2 27.0875 52.6946 72.1824 0.0000 0.0000 0.0000
# 3 54.3005 72.1824 146.9226 0.0000 0.0000 0.0000
# 4 0.0000 0.0000 0.0000 20.9775 0.0000 0.0000
# 5 0.0000 0.0000 0.0000 0.0000 15.1080 0.0000
# 6 0.0000 0.0000 0.0000 0.0000 0.0000 14.7962
#
#
#
# Elastic Compliance Matrix: (Units=1/GPa)
#
#
# Indices 1 2 3 4 5 6 
#
# 1 0.028339 -0.000674 -0.010142 0.000000 0.000000 0.000000
# 2 -0.000674 0.058049 -0.028270 0.000000 0.000000 0.000000
# 3 -0.010142 -0.028270 0.024444 0.000000 0.000000 0.000000
# 4 0.000000 0.000000 0.000000 0.047670 0.000000 0.000000
# 5 0.000000 0.000000 0.000000 0.000000 0.066190 0.000000
# 6 0.000000 0.000000 0.000000 0.000000 0.000000 0.067585
#
#
# Mechanical properties :
#
#
# Convention : Reuss Voigt Hill
#
# Bulk Modulus (GPa) = 30.62016 62.45821 46.53919
# Shear Modulus (GPa) = 13.11182 16.93717 15.02450
#
# Velocity S-wave (km/s) = 2.71899 3.09027 2.91056
# Velocity P-wave (km/s) = 5.20787 6.92453 6.12662
#
# Compressibility (1/GPa) = 0.03265822
#
# Stress axis : x y z
#
# Youngs Moduli (GPa) = 35.28745 17.22692 40.91037
#
# Poissons Ratio (x) = 0.01161 0.41493
# Poissons Ratio (y) = 0.02379 1.15653
# Poissons Ratio (z) = 0.35790 0.48700
#
# Static dielectric constant tensor:
#      x y z
#    x 1.640960 0.000000 0.000000 
#    y 0.000000 1.605160 0.000000 
#    z 0.000000 0.000000 1.617120 
# 
# From -- ./inp_files/23798.got.cif
#   From: 2010.05.17/outbox.cif.g08.bks.cpg/sg46_12_cif.got.tgz:23798.got - 2010.06.03 19:58:25.
