data_PCOD9378592
_publ_section_title
;
Structure prediction by ZEFSAII (Michael W. Deem and Ramdas Pophale) SiO2 
 PCOD9378592
Probable space group: I M A 2
;
_chemical_formula_sum "Si O2"
_cell_formula_units_Z 48
_cell_length_a 8.543637
_cell_length_b 24.596673
_cell_length_c 14.181889
_cell_angle_alpha 90.000000
_cell_angle_beta 90.000000
_cell_angle_gamma 90.000000
_cell_volume 2980.253709
_symmetry_space_group_name_H-M "I M A 2"
_symmetry_group_IT_number 46
_symmetry_cell_setting 'orthorhombic'
loop_
_space_group_symop_operation_xyz
x,y,z
-x,-y,z
1/2-x,y,z
1/2+x,-y,z
1/2+x,1/2+y,1/2+z
1/2-x,1/2-y,1/2+z
-x,1/2+y,1/2+z
x,1/2-y,1/2+z
loop_
_atom_site_type_symbol
_atom_site_label
_atom_site_fract_x
_atom_site_fract_y
_atom_site_fract_z
Si Si1 0.563983 0.666211 0.001100
Si Si2 0.060740 0.776913 0.682614
Si Si3 0.562400 0.440674 0.903954
Si Si4 0.560445 0.227748 0.896714
Si Si5 0.940164 0.334041 0.579691
Si Si6 0.061043 0.559002 0.684882
O O1 0.750000 0.667200 0.997269
O O2 0.507540 0.681771 0.106117
O O3 0.501912 0.608334 0.966238
O O4 0.497646 0.713850 0.933380
O O5 0.250000 0.780443 0.678438
O O6 0.009992 0.784567 0.790355
O O7 0.016755 0.716242 0.647600
O O8 0.500000 0.500000 0.932399
O O9 0.750000 0.440605 0.907613
O O10 0.514349 0.432036 0.794230
O O11 0.750000 0.229680 0.897311
O O12 0.509818 0.183600 0.974863
O O13 0.750000 0.336113 0.579136
O O14 0.995908 0.391250 0.620523
O O15 0.250000 0.558234 0.682528
O O16 0.000000 0.500000 0.655370
#
# Coordination Sequence:
#
# PCOD9378592 Si02
#       6
#     8   8   8   8   8   8
#     4  11  21  31  46  71 101 128 154 191 240 291
#     4   9  17  31  50  69  90 121 160 199 238 281
#     4  10  19  32  49  69  94 125 160 196 236 282
#     4   9  17  31  51  71  92 124 164 200 234 277
#     4   8  14  26  45  68  91 116 150 190 232 277
#     4   9  17  29  46  68  94 122 152 188 229 276
#
# _framework density 16.106010999999999
#
# number of rings (size 3 to 8) (size 9 to 14) (size 15 to 20)
#    0.000    2.667    0.000    4.000    0.000    4.000 
#    0.000    3.333    0.000    1.000    0.000    2.333 
#    0.000    0.000    0.000    0.000    0.000    0.000 
#
# Total GULP energy -133801.623527 kJ/mol
# GULP energy per Si atom -5575.067647 kJ/mol
# Density = 1.606935 g / cm^3
# Si number density = 16.106011 Si / 1000 Ang^3
#
#
#
# Elastic Constant Matrix: (Units=GPa)
#
#
# Indices 1 2 3 4 5 6 
#
# 1 22.6387 26.3586 27.9620 0.0000 0.0000 0.0000
# 2 26.3586 156.8001 94.4772 0.0000 0.0000 0.0000
# 3 27.9620 94.4772 136.5317 0.0000 0.0000 0.0000
# 4 0.0000 0.0000 0.0000 22.9908 0.0000 0.0000
# 5 0.0000 0.0000 0.0000 0.0000 11.5807 0.0000
# 6 0.0000 0.0000 0.0000 0.0000 0.0000 25.9522
#
#
#
# Elastic Compliance Matrix: (Units=1/GPa)
#
#
# Indices 1 2 3 4 5 6 
#
# 1 0.061070 -0.004682 -0.009267 0.000000 0.000000 0.000000
# 2 -0.004682 0.011297 -0.006858 0.000000 0.000000 0.000000
# 3 -0.009267 -0.006858 0.013968 0.000000 0.000000 0.000000
# 4 0.000000 0.000000 0.000000 0.043496 0.000000 0.000000
# 5 0.000000 0.000000 0.000000 0.000000 0.086350 0.000000
# 6 0.000000 0.000000 0.000000 0.000000 0.000000 0.038532
#
#
# Mechanical properties :
#
#
# Convention : Reuss Voigt Hill
#
# Bulk Modulus (GPa) = 22.36159 68.17401 45.26780
# Shear Modulus (GPa) = 16.06497 23.24960 19.65728
#
# Velocity S-wave (km/s) = 3.16167 3.80351 3.49735
# Velocity P-wave (km/s) = 5.21942 7.85552 6.66901
#
# Compressibility (1/GPa) = 0.04471954
#
# Stress axis : x y z
#
# Youngs Moduli (GPa) = 16.37458 88.51858 71.59150
#
# Poissons Ratio (x) = 0.41447 0.66346
# Poissons Ratio (y) = 0.07667 0.49100
# Poissons Ratio (z) = 0.15175 0.60710
#
# Static dielectric constant tensor:
#      x y z
#    x 1.545840 0.000000 0.000000 
#    y 0.000000 1.517010 0.000000 
#    z 0.000000 0.000000 1.542540 
# 
# From -- ./inp_files/9298.got.cif
#   From: 2010.05.17/outbox.cif.g08.bks.cpg/sg46_5_cif.got.tgz:9298.got - 2010.06.03 19:58:25.
