data_PCOD9378021
_publ_section_title
;
Structure prediction by ZEFSAII (Michael W. Deem and Ramdas Pophale) SiO2 
 PCOD9378021
Probable space group: I M A 2
;
_chemical_formula_sum "Si O2"
_cell_formula_units_Z 64
_cell_length_a 8.610265
_cell_length_b 19.058167
_cell_length_c 27.053576
_cell_angle_alpha 90.000000
_cell_angle_beta 90.000000
_cell_angle_gamma 90.000000
_cell_volume 4439.380044
_symmetry_space_group_name_H-M "I M A 2"
_symmetry_group_IT_number 46
_symmetry_cell_setting 'orthorhombic'
loop_
_space_group_symop_operation_xyz
x,y,z
-x,-y,z
1/2-x,y,z
1/2+x,-y,z
1/2+x,1/2+y,1/2+z
1/2-x,1/2-y,1/2+z
-x,1/2+y,1/2+z
x,1/2-y,1/2+z
loop_
_atom_site_type_symbol
_atom_site_label
_atom_site_fract_x
_atom_site_fract_y
_atom_site_fract_z
Si Si1 0.064504 0.422165 0.648680
Si Si2 0.564491 0.077674 0.040153
Si Si3 0.437690 0.078016 0.847701
Si Si4 0.060971 0.340038 0.447631
Si Si5 0.434143 0.841007 0.240700
Si Si6 0.070290 0.289252 0.290775
Si Si7 0.937882 0.921899 0.336401
Si Si8 0.070534 0.294241 0.895409
O O1 0.250000 0.425228 0.647497
O O2 0.000000 0.500000 0.660920
O O3 0.000573 0.404035 0.594330
O O4 0.007091 0.368161 0.689904
O O5 0.750000 0.075163 0.041764
O O6 0.500000 0.000000 0.028296
O O7 0.506181 0.129772 0.997891
O O8 0.250000 0.077712 0.846652
O O9 0.483217 0.109987 0.901242
O O10 0.488426 0.133373 0.805325
O O11 0.500000 0.000000 0.841489
O O12 0.250000 0.339358 0.449475
O O13 0.004398 0.261204 0.434440
O O14 0.250000 0.849925 0.239579
O O15 0.477028 0.760706 0.254019
O O16 0.503911 0.888586 0.284926
O O17 0.250000 0.305908 0.909663
O O18 0.071064 0.248689 0.343611
O O19 0.750000 0.921028 0.335927
O O20 0.995576 0.869594 0.380079
O O21 0.000000 0.000000 0.341912
O O22 0.250000 0.206819 0.774454
#
# Coordination Sequence:
#
# PCOD9378021 Si02
#       8
#     8   8   8   8   8   8   8   8
#     4  11  21  34  48  62  82 110 141 176 211 248
#     4  11  21  32  44  62  85 110 140 177 212 246
#     4   9  17  27  42  62  87 115 146 178 210 248
#     4   9  16  29  45  61  81 112 146 175 208 248
#     4  11  20  30  44  63  84 110 142 177 212 251
#     4   8  15  29  43  58  81 112 143 174 209 248
#     4  10  18  29  43  62  86 114 144 175 208 248
#     4   7  13  26  43  58  79 109 141 172 205 243
#
# _framework density 14.416427000000001
#
# number of rings (size 3 to 8) (size 9 to 14) (size 15 to 20)
#    0.000    2.500    0.000    7.500    0.000    2.000 
#    0.000    5.625    0.000    0.000    0.000    0.000 
#    0.000    1.000    0.000    6.250    0.000    4.250 
#
# Total GULP energy -178281.994289 kJ/mol
# GULP energy per Si atom -5571.312322 kJ/mol
# Density = 1.438361 g / cm^3
# Si number density = 14.416427 Si / 1000 Ang^3
#
#
#
# Elastic Constant Matrix: (Units=GPa)
#
#
# Indices 1 2 3 4 5 6 
#
# 1 75.1892 33.4955 33.3253 0.0000 0.0000 0.0000
# 2 33.4955 118.6981 56.4749 0.0000 0.0000 0.0000
# 3 33.3253 56.4749 80.7922 0.0000 0.0000 0.0000
# 4 0.0000 0.0000 0.0000 25.2451 0.0000 0.0000
# 5 0.0000 0.0000 0.0000 0.0000 17.0957 0.0000
# 6 0.0000 0.0000 0.0000 0.0000 0.0000 21.2017
#
#
#
# Elastic Compliance Matrix: (Units=1/GPa)
#
#
# Indices 1 2 3 4 5 6 
#
# 1 0.016631 -0.002141 -0.005363 0.000000 0.000000 0.000000
# 2 -0.002141 0.012899 -0.008133 0.000000 0.000000 0.000000
# 3 -0.005363 -0.008133 0.020275 0.000000 0.000000 0.000000
# 4 0.000000 0.000000 0.000000 0.039612 0.000000 0.000000
# 5 0.000000 0.000000 0.000000 0.000000 0.058494 0.000000
# 6 0.000000 0.000000 0.000000 0.000000 0.000000 0.047166
#
#
# Mechanical properties :
#
#
# Convention : Reuss Voigt Hill
#
# Bulk Modulus (GPa) = 53.96897 57.91898 55.94398
# Shear Modulus (GPa) = 21.50287 22.80075 22.15181
#
# Velocity S-wave (km/s) = 3.86625 3.98122 3.92416
# Velocity P-wave (km/s) = 7.57942 7.83559 7.70857
#
# Compressibility (1/GPa) = 0.01852917
#
# Stress axis : x y z
#
# Youngs Moduli (GPa) = 60.12968 77.52785 49.32265
#
# Poissons Ratio (x) = 0.16602 0.26452
# Poissons Ratio (y) = 0.12876 0.40114
# Poissons Ratio (z) = 0.32247 0.63053
#
# Static dielectric constant tensor:
#      x y z
#    x 1.488550 0.000000 0.000000 
#    y 0.000000 1.494630 0.000000 
#    z 0.000000 0.000000 1.458120 
# 
# From -- ./inp_files/23302.got.cif
#   From: 2010.05.17/outbox.cif.g08.bks.cpg/sg46_12_cif.got.tgz:23302.got - 2010.06.03 19:58:25.
