data_PCOD9378584
_publ_section_title
;
Structure prediction by ZEFSAII (Michael W. Deem and Ramdas Pophale) SiO2 
 PCOD9378584
Probable space group: I M A 2
;
_chemical_formula_sum "Si O2"
_cell_formula_units_Z 64
_cell_length_a 14.497636
_cell_length_b 9.550123
_cell_length_c 19.049295
_cell_angle_alpha 90.000000
_cell_angle_beta 90.000000
_cell_angle_gamma 90.000000
_cell_volume 2637.455033
_symmetry_space_group_name_H-M "I M A 2"
_symmetry_group_IT_number 46
_symmetry_cell_setting 'orthorhombic'
loop_
_space_group_symop_operation_xyz
x,y,z
-x,-y,z
1/2-x,y,z
1/2+x,-y,z
1/2+x,1/2+y,1/2+z
1/2-x,1/2-y,1/2+z
-x,1/2+y,1/2+z
x,1/2-y,1/2+z
loop_
_atom_site_type_symbol
_atom_site_label
_atom_site_fract_x
_atom_site_fract_y
_atom_site_fract_z
Si Si1 0.092046 0.086065 0.516310
Si Si2 0.363130 0.081863 0.670133
Si Si3 0.605981 0.504138 0.628491
Si Si4 0.361983 0.595596 0.826194
Si Si5 0.538575 0.637430 0.487199
Si Si6 0.643594 0.271674 0.196947
Si Si7 0.351790 0.703046 0.981647
Si Si8 0.853326 0.679801 0.763011
O O1 0.097973 0.224104 0.467551
O O2 0.097072 0.137835 0.596641
O O3 0.158458 0.952940 0.513256
O O4 0.000000 0.000000 0.499862
O O5 0.250000 0.090144 0.666525
O O6 0.394973 0.921235 0.676234
O O7 0.394179 0.173354 0.737106
O O8 0.500000 0.500000 0.651884
O O9 0.597412 0.568307 0.550926
O O10 0.642964 0.346994 0.637263
O O11 0.653286 0.597994 0.687868
O O12 0.250000 0.582872 0.816862
O O13 0.398274 0.694952 0.764450
O O14 0.374461 0.668693 0.900209
O O15 0.396696 0.436442 0.814498
O O16 0.500000 0.500000 0.445664
O O17 0.558263 0.286321 0.508114
O O18 0.750000 0.301654 0.214614
O O19 0.250000 0.771979 0.986482
O O20 0.750000 0.710787 0.789487
#
# Coordination Sequence:
#
# PCOD9378584 Si02
#       8
#     8   8   8   8   8   8   8   8
#     4  10  21  36  56  79 117 155 193 245 306 364
#     4  10  19  31  53  89 120 143 185 242 305 370
#     4  10  19  32  50  75 111 150 188 230 295 358
#     4   8  16  35  60  82 110 150 200 250 295 352
#     4  10  22  39  57  83 118 161 198 253 310 359
#     4   9  19  34  56  86 116 151 196 250 306 360
#     4  10  21  40  63  86 114 163 218 253 298 369
#     4   9  17  33  56  84 112 143 183 241 301 356
#
# _framework density 24.265816999999998
#
# number of rings (size 3 to 8) (size 9 to 14) (size 15 to 20)
#    0.000    2.500    1.250    1.500    7.000    0.000 
#    0.000   12.500    0.000    3.750    0.000    0.000 
#    0.000    0.000    0.000    0.000    0.000    0.000 
#
# Total GULP energy -178189.069257 kJ/mol
# GULP energy per Si atom -5568.408414 kJ/mol
# Density = 2.421059 g / cm^3
# Si number density = 24.265817 Si / 1000 Ang^3
#
#
#
# Elastic Constant Matrix: (Units=GPa)
#
#
# Indices 1 2 3 4 5 6 
#
# 1 58.4168 -4.9936 -18.4427 0.0000 0.0000 0.0000
# 2 -4.9936 166.9642 1.5954 0.0000 0.0000 0.0000
# 3 -18.4427 1.5954 59.0012 0.0000 0.0000 0.0000
# 4 0.0000 0.0000 0.0000 19.6537 0.0000 0.0000
# 5 0.0000 0.0000 0.0000 0.0000 11.6866 0.0000
# 6 0.0000 0.0000 0.0000 0.0000 0.0000 -1.1623
#
#
#
# Elastic Compliance Matrix: (Units=1/GPa)
#
#
# Indices 1 2 3 4 5 6 
#
# 1 0.019036 0.000513 0.005937 0.000000 0.000000 0.000000
# 2 0.000513 0.006005 -0.000002 0.000000 0.000000 0.000000
# 3 0.005937 -0.000002 0.018805 0.000000 0.000000 0.000000
# 4 0.000000 0.000000 0.000000 0.050881 0.000000 0.000000
# 5 0.000000 0.000000 0.000000 0.000000 0.085568 0.000000
# 6 0.000000 0.000000 0.000000 0.000000 0.000000 -0.860359
#
#
# Mechanical properties :
#
#
# Convention : Reuss Voigt Hill
#
# Bulk Modulus (GPa) = 17.62433 26.74449 22.18441
# Shear Modulus (GPa) = -7.41790 26.45047 9.51628
#
# Velocity S-wave (km/s) = -1.75031 3.30514 1.98247
# Velocity P-wave (km/s) = 1.78719 5.06070 3.79504
#
# Compressibility (1/GPa) = 0.05673975
#
# Stress axis : x y z
#
# Youngs Moduli (GPa) = 52.53089 166.53737 53.17866
#
# Poissons Ratio (x) = -0.08537 -0.31570
# Poissons Ratio (y) = -0.02693 0.00011
# Poissons Ratio (z) = -0.31185 0.00035
#
# Static dielectric constant tensor:
#      x y z
#    x 2.021670 0.000000 0.000000 
#    y 0.000000 2.053320 0.000000 
#    z 0.000000 0.000000 1.960670 
# 
# From -- ./inp_files/22219.got.cif
#   From: 2010.05.17/outbox.cif.g08.bks.cpg/sg46_12_cif.got.tgz:22219.got - 2010.06.03 19:58:25.
