data_PCOD9378464
_publ_section_title
;
Structure prediction by ZEFSAII (Michael W. Deem and Ramdas Pophale) SiO2 
 PCOD9378464
Probable space group: I M A 2
;
_chemical_formula_sum "Si O2"
_cell_formula_units_Z 48
_cell_length_a 19.841090
_cell_length_b 26.574126
_cell_length_c 5.385559
_cell_angle_alpha 90.000000
_cell_angle_beta 90.000000
_cell_angle_gamma 90.000000
_cell_volume 2839.587822
_symmetry_space_group_name_H-M "I M A 2"
_symmetry_group_IT_number 46
_symmetry_cell_setting 'orthorhombic'
loop_
_space_group_symop_operation_xyz
x,y,z
-x,-y,z
1/2-x,y,z
1/2+x,-y,z
1/2+x,1/2+y,1/2+z
1/2-x,1/2-y,1/2+z
-x,1/2+y,1/2+z
x,1/2-y,1/2+z
loop_
_atom_site_type_symbol
_atom_site_label
_atom_site_fract_x
_atom_site_fract_y
_atom_site_fract_z
Si Si1 0.381167 0.187109 0.711350
Si Si2 0.824713 0.018262 0.234535
Si Si3 0.827466 0.701570 0.712306
Si Si4 0.674812 0.951015 0.734387
Si Si5 0.531445 0.896456 0.745957
Si Si6 0.529521 0.057131 0.246176
O O1 0.372126 0.247662 0.700225
O O2 0.349422 0.170371 0.450414
O O3 0.454711 0.163424 0.737692
O O4 0.339180 0.173330 0.956422
O O5 0.750000 0.042154 0.237072
O O6 0.829225 0.983957 0.482071
O O7 0.889720 0.053595 0.237302
O O8 0.828653 0.985058 0.983423
O O9 0.750000 0.717072 0.739562
O O10 0.750000 0.927206 0.733783
O O11 0.607725 0.917957 0.739049
O O12 0.494425 0.916711 0.500962
O O13 0.497737 0.915142 0.999958
O O14 0.500000 0.000000 0.244280
#
# Coordination Sequence:
#
# PCOD9378464 Si02
#       6
#     8   8   8   8   8   8
#     4  10  20  32  48  72  98 125 175 215 241 297
#     4  10  20  34  49  66  88 125 168 203 242 296
#     4  10  19  35  54  70  98 146 174 197 258 314
#     4  10  19  30  44  66  94 122 161 208 247 282
#     4  12  22  33  49  76  96 130 170 218 255 288
#     4  12  21  35  54  67  98 135 168 206 265 313
#
# _framework density 16.903860999999999
#
# number of rings (size 3 to 8) (size 9 to 14) (size 15 to 20)
#    0.000    1.333    3.333    5.000    0.000    2.000 
#    0.000    1.667    0.000    0.000    0.000    0.000 
#    0.000    0.000    0.000   60.000    0.000    0.000 
#
# Total GULP energy -133798.598546 kJ/mol
# GULP energy per Si atom -5574.941606 kJ/mol
# Density = 1.686539 g / cm^3
# Si number density = 16.903861 Si / 1000 Ang^3
#
#
#
# Elastic Constant Matrix: (Units=GPa)
#
#
# Indices 1 2 3 4 5 6 
#
# 1 119.7885 29.5171 9.8320 0.0000 0.0000 0.0000
# 2 29.5171 39.1819 5.4247 0.0000 0.0000 0.0000
# 3 9.8320 5.4247 109.6513 0.0000 0.0000 0.0000
# 4 0.0000 0.0000 0.0000 12.0705 0.0000 0.0000
# 5 0.0000 0.0000 0.0000 0.0000 33.9487 0.0000
# 6 0.0000 0.0000 0.0000 0.0000 0.0000 144.0468
#
#
#
# Elastic Compliance Matrix: (Units=1/GPa)
#
#
# Indices 1 2 3 4 5 6 
#
# 1 0.010283 -0.007671 -0.000543 0.000000 0.000000 0.000000
# 2 -0.007671 0.031421 -0.000867 0.000000 0.000000 0.000000
# 3 -0.000543 -0.000867 0.009211 0.000000 0.000000 0.000000
# 4 0.000000 0.000000 0.000000 0.082846 0.000000 0.000000
# 5 0.000000 0.000000 0.000000 0.000000 0.029456 0.000000
# 6 0.000000 0.000000 0.000000 0.000000 0.000000 0.006942
#
#
# Mechanical properties :
#
#
# Convention : Reuss Voigt Hill
#
# Bulk Modulus (GPa) = 30.53026 39.79657 35.16341
# Shear Modulus (GPa) = 25.09547 52.93640 39.01594
#
# Velocity S-wave (km/s) = 3.85723 5.60216 4.80949
# Velocity P-wave (km/s) = 6.15938 8.08947 7.18949
#
# Compressibility (1/GPa) = 0.03275439
#
# Stress axis : x y z
#
# Youngs Moduli (GPa) = 97.24919 31.82576 108.56185
#
# Poissons Ratio (x) = 0.24415 0.05890
# Poissons Ratio (y) = 0.74603 0.09408
# Poissons Ratio (z) = 0.05276 0.02758
#
# Static dielectric constant tensor:
#      x y z
#    x 1.571580 0.000000 0.000000 
#    y 0.000000 1.623220 0.000000 
#    z 0.000000 0.000000 1.663960 
# 
# From -- ./inp_files/1751.got.cif
#   From: 2010.05.17/outbox.cif.g08.bks.cpg/sg46_1_cif.got.tgz:1751.got - 2010.06.03 19:58:25.
