data_PCOD9378244
_publ_section_title
;
Structure prediction by ZEFSAII (Michael W. Deem and Ramdas Pophale) SiO2 
 PCOD9378244
Probable space group: I M A 2
;
_chemical_formula_sum "Si O2"
_cell_formula_units_Z 56
_cell_length_a 9.075580
_cell_length_b 16.089681
_cell_length_c 20.160869
_cell_angle_alpha 90.000000
_cell_angle_beta 90.000000
_cell_angle_gamma 90.000000
_cell_volume 2943.954346
_symmetry_space_group_name_H-M "I M A 2"
_symmetry_group_IT_number 46
_symmetry_cell_setting 'orthorhombic'
loop_
_space_group_symop_operation_xyz
x,y,z
-x,-y,z
1/2-x,y,z
1/2+x,-y,z
1/2+x,1/2+y,1/2+z
1/2-x,1/2-y,1/2+z
-x,1/2+y,1/2+z
x,1/2-y,1/2+z
loop_
_atom_site_type_symbol
_atom_site_label
_atom_site_fract_x
_atom_site_fract_y
_atom_site_fract_z
Si Si1 0.918266 0.580910 0.578830
Si Si2 0.418252 0.363551 0.433647
Si Si3 0.927062 0.191295 0.416308
Si Si4 0.929379 0.590826 0.034605
Si Si5 0.083482 0.739296 0.767103
Si Si6 0.926827 0.744324 0.129884
Si Si7 0.916093 0.429626 0.309584
O O1 0.750000 0.578436 0.602630
O O2 0.917115 0.581999 0.499361
O O3 0.982217 0.671362 0.595154
O O4 0.000000 0.500000 0.604472
O O5 0.250000 0.336197 0.420761
O O6 0.518082 0.281673 0.440634
O O7 0.483346 0.414869 0.373459
O O8 0.750000 0.183496 0.422627
O O9 0.960109 0.194379 0.336531
O O10 0.008997 0.125566 0.463848
O O11 0.750000 0.585866 0.032807
O O12 0.973757 0.660235 0.090775
O O13 0.000000 0.500000 0.047323
O O14 0.250000 0.710703 0.749953
O O15 0.092420 0.837964 0.780424
O O16 0.975200 0.738779 0.705145
O O17 0.750000 0.742310 0.125264
O O18 0.750000 0.456011 0.324922
O O19 0.000000 0.500000 0.267681
#
# Coordination Sequence:
#
# PCOD9378244 Si02
#       7
#     8   8   8   8   8   8   8
#     4  10  21  36  54  82 114 146 186 233 285 348
#     4  10  18  32  54  80 115 149 182 230 286 341
#     4  10  20  37  60  88 119 154 200 248 299 360
#     4  11  23  41  64  93 126 163 211 263 315 374
#     4   9  21  38  57  82 114 153 201 250 301 364
#     4  10  22  41  60  84 121 159 200 250 307 371
#     4  10  20  33  49  77 113 146 189 236 285 352
#
# _framework density 19.022034000000001
#
# number of rings (size 3 to 8) (size 9 to 14) (size 15 to 20)
#    0.000    2.000    1.429    3.000    0.000    8.000 
#    0.000    3.571    0.000    1.714    0.000    0.000 
#    0.000    0.000    0.000    0.000    0.000    0.000 
#
# Total GULP energy -155891.987691 kJ/mol
# GULP energy per Si atom -5567.570989 kJ/mol
# Density = 1.897874 g / cm^3
# Si number density = 19.022034 Si / 1000 Ang^3
#
#
#
# Elastic Constant Matrix: (Units=GPa)
#
#
# Indices 1 2 3 4 5 6 
#
# 1 60.5201 34.3559 24.8053 0.0000 0.0000 0.0000
# 2 34.3559 104.1074 26.4220 0.0000 0.0000 0.0000
# 3 24.8053 26.4220 64.8922 0.0000 0.0000 0.0000
# 4 0.0000 0.0000 0.0000 3.1141 0.0000 0.0000
# 5 0.0000 0.0000 0.0000 0.0000 21.7392 0.0000
# 6 0.0000 0.0000 0.0000 0.0000 0.0000 31.9775
#
#
#
# Elastic Compliance Matrix: (Units=1/GPa)
#
#
# Indices 1 2 3 4 5 6 
#
# 1 0.022354 -0.005808 -0.006180 0.000000 0.000000 0.000000
# 2 -0.005808 0.012222 -0.002756 0.000000 0.000000 0.000000
# 3 -0.006180 -0.002756 0.018895 0.000000 0.000000 0.000000
# 4 0.000000 0.000000 0.000000 0.321119 0.000000 0.000000
# 5 0.000000 0.000000 0.000000 0.000000 0.046000 0.000000
# 6 0.000000 0.000000 0.000000 0.000000 0.000000 0.031272
#
#
# Mechanical properties :
#
#
# Convention : Reuss Voigt Hill
#
# Bulk Modulus (GPa) = 41.69867 44.52067 43.10967
# Shear Modulus (GPa) = 10.21779 20.96194 15.58986
#
# Velocity S-wave (km/s) = 2.32018 3.32321 2.86592
# Velocity P-wave (km/s) = 5.39875 6.17904 5.80203
#
# Compressibility (1/GPa) = 0.02398158
#
# Stress axis : x y z
#
# Youngs Moduli (GPa) = 44.73543 81.82144 52.92530
#
# Poissons Ratio (x) = 0.47525 0.32707
# Poissons Ratio (y) = 0.25984 0.14586
# Poissons Ratio (z) = 0.27645 0.22550
#
# Static dielectric constant tensor:
#      x y z
#    x 1.688180 0.000000 0.000000 
#    y 0.000000 1.714610 0.000000 
#    z 0.000000 0.000000 1.692970 
# 
# From -- ./inp_files/21108.got.cif
#   From: 2010.05.17/outbox.cif.g08.bks.cpg/sg46_11_cif.got.tgz:21108.got - 2010.06.03 19:58:25.
