data_PCOD9378942
_publ_section_title
;
Structure prediction by ZEFSAII (Michael W. Deem and Ramdas Pophale) SiO2 
 PCOD9378942
Probable space group: I M A 2
;
_chemical_formula_sum "Si O2"
_cell_formula_units_Z 64
_cell_length_a 8.605548
_cell_length_b 18.664217
_cell_length_c 21.657592
_cell_angle_alpha 90.000000
_cell_angle_beta 90.000000
_cell_angle_gamma 90.000000
_cell_volume 3478.551796
_symmetry_space_group_name_H-M "I M A 2"
_symmetry_group_IT_number 46
_symmetry_cell_setting 'orthorhombic'
loop_
_space_group_symop_operation_xyz
x,y,z
-x,-y,z
1/2-x,y,z
1/2+x,-y,z
1/2+x,1/2+y,1/2+z
1/2-x,1/2-y,1/2+z
-x,1/2+y,1/2+z
x,1/2-y,1/2+z
loop_
_atom_site_type_symbol
_atom_site_label
_atom_site_fract_x
_atom_site_fract_y
_atom_site_fract_z
Si Si1 0.564885 0.081228 0.712070
Si Si2 0.564018 0.918855 0.583904
Si Si3 0.563297 0.581298 0.946723
Si Si4 0.562253 0.419085 0.714695
Si Si5 0.562655 0.081333 0.945271
Si Si6 0.436939 0.672543 0.833081
Si Si7 0.564895 0.667267 0.328710
Si Si8 0.562892 0.418933 0.580247
O O1 0.750000 0.077872 0.712682
O O2 0.508527 0.112778 0.646142
O O3 0.504127 0.127534 0.768930
O O4 0.500000 0.000000 0.717537
O O5 0.750000 0.920078 0.590194
O O6 0.524685 0.889803 0.515780
O O7 0.500000 0.000000 0.582457
O O8 0.500000 0.500000 0.941370
O O9 0.750000 0.579129 0.941404
O O10 0.492352 0.629681 0.893301
O O11 0.500000 0.500000 0.720855
O O12 0.750000 0.422356 0.715785
O O13 0.511964 0.371150 0.772105
O O14 0.513996 0.388913 0.647059
O O15 0.750000 0.080196 0.941051
O O16 0.494023 0.126826 0.889782
O O17 0.500000 0.000000 0.940974
O O18 0.516346 0.111322 0.013374
O O19 0.250000 0.676917 0.833066
O O20 0.507091 0.751425 0.831294
O O21 0.750000 0.664231 0.325951
O O22 0.500000 0.500000 0.580408
O O23 0.750000 0.420649 0.580107
#
# Coordination Sequence:
#
# PCOD9378942 Si02
#       8
#     8   8   8   8   8   8   8   8
#     4  11  21  36  59  85 111 140 178 222 270 324
#     4   9  17  31  53  82 112 140 175 220 269 319
#     4  10  20  35  57  84 113 145 182 224 270 323
#     4   9  18  33  55  82 109 138 174 215 260 312
#     4  10  19  34  57  83 109 138 175 218 265 319
#     4  11  23  38  55  77 108 145 186 229 273 323
#     4  12  25  40  55  74 106 145 184 226 273 325
#     4   8  15  29  51  79 108 135 166 210 260 309
#
# _framework density 18.39846
#
# number of rings (size 3 to 8) (size 9 to 14) (size 15 to 20)
#    0.000    2.000    0.000    5.250    0.000    4.000 
#    0.000    1.250    0.000    4.500    0.000    0.000 
#    0.000    0.000    0.000    0.000    0.000    0.000 
#
# Total GULP energy -178511.662178 kJ/mol
# GULP energy per Si atom -5578.489443 kJ/mol
# Density = 1.835658 g / cm^3
# Si number density = 18.398460 Si / 1000 Ang^3
#
#
#
# Elastic Constant Matrix: (Units=GPa)
#
#
# Indices 1 2 3 4 5 6 
#
# 1 93.4620 34.5922 70.4365 0.0000 0.0000 0.0000
# 2 34.5922 79.2202 83.9333 0.0000 0.0000 0.0000
# 3 70.4365 83.9333 234.8434 0.0000 0.0000 0.0000
# 4 0.0000 0.0000 0.0000 -7.4989 0.0000 0.0000
# 5 0.0000 0.0000 0.0000 0.0000 33.9140 0.0000
# 6 0.0000 0.0000 0.0000 0.0000 0.0000 26.2240
#
#
#
# Elastic Compliance Matrix: (Units=1/GPa)
#
#
# Indices 1 2 3 4 5 6 
#
# 1 0.014178 -0.002713 -0.003283 0.000000 0.000000 0.000000
# 2 -0.002713 0.020835 -0.006633 0.000000 0.000000 0.000000
# 3 -0.003283 -0.006633 0.007613 0.000000 0.000000 0.000000
# 4 0.000000 0.000000 0.000000 -0.133352 0.000000 0.000000
# 5 0.000000 0.000000 0.000000 0.000000 0.029486 0.000000
# 6 0.000000 0.000000 0.000000 0.000000 0.000000 0.038133
#
#
# Mechanical properties :
#
#
# Convention : Reuss Voigt Hill
#
# Bulk Modulus (GPa) = 57.57275 87.27218 72.42246
# Shear Modulus (GPa) = 629.75551 25.09871 327.42711
#
# Velocity S-wave (km/s) = 18.52107 3.69748 13.35480
# Velocity P-wave (km/s) = 22.10732 8.10962 16.65082
#
# Compressibility (1/GPa) = 0.01736933
#
# Stress axis : x y z
#
# Youngs Moduli (GPa) = 70.53396 47.99614 131.34850
#
# Poissons Ratio (x) = 0.13020 0.43118
# Poissons Ratio (y) = 0.19134 0.87121
# Poissons Ratio (z) = 0.23155 0.31835
#
# Static dielectric constant tensor:
#      x y z
#    x 1.620380 0.000000 0.000000 
#    y 0.000000 1.580120 0.000000 
#    z 0.000000 0.000000 1.686410 
# 
# From -- ./inp_files/21415.got.cif
#   From: 2010.05.17/outbox.cif.g08.bks.cpg/sg46_11_cif.got.tgz:21415.got - 2010.06.03 19:58:25.
