data_PCOD9378543
_publ_section_title
;
Structure prediction by ZEFSAII (Michael W. Deem and Ramdas Pophale) SiO2 
 PCOD9378543
Probable space group: I M A 2
;
_chemical_formula_sum "Si O2"
_cell_formula_units_Z 48
_cell_length_a 15.777570
_cell_length_b 7.360626
_cell_length_c 19.847656
_cell_angle_alpha 90.000000
_cell_angle_beta 90.000000
_cell_angle_gamma 90.000000
_cell_volume 2304.963705
_symmetry_space_group_name_H-M "I M A 2"
_symmetry_group_IT_number 46
_symmetry_cell_setting 'orthorhombic'
loop_
_space_group_symop_operation_xyz
x,y,z
-x,-y,z
1/2-x,y,z
1/2+x,-y,z
1/2+x,1/2+y,1/2+z
1/2-x,1/2-y,1/2+z
-x,1/2+y,1/2+z
x,1/2-y,1/2+z
loop_
_atom_site_type_symbol
_atom_site_label
_atom_site_fract_x
_atom_site_fract_y
_atom_site_fract_z
Si Si1 0.995435 0.223035 0.776110
Si Si2 0.496835 0.777168 0.930486
Si Si3 0.653746 0.186336 0.027543
Si Si4 0.412519 0.384071 0.157708
Si Si5 0.845283 0.755151 0.016347
Si Si6 0.344518 0.745778 0.682267
O O1 0.996908 0.282395 0.852908
O O2 0.910901 0.297377 0.740473
O O3 0.066766 0.253698 0.718668
O O4 0.000000 0.000000 0.780085
O O5 0.500000 0.000000 0.931350
O O6 0.415155 0.731377 0.976670
O O7 0.581634 0.701490 0.964643
O O8 0.750000 0.260634 0.022458
O O9 0.627070 0.199354 0.106006
O O10 0.658745 0.973139 0.012151
O O11 0.500000 0.500000 0.143783
O O12 0.378201 0.295758 0.090406
O O13 0.346265 0.534725 0.181885
O O14 0.750000 0.685625 0.004863
O O15 0.250000 0.674010 0.692239
#
# Coordination Sequence:
#
# PCOD9378543 Si02
#       6
#     8   8   8   8   8   8
#     4   8  16  28  43  66  92 118 150 189 233 275
#     4   9  16  29  46  66  95 122 150 193 235 274
#     4   9  18  30  48  72  95 122 157 192 230 273
#     4   9  17  30  47  68  91 118 153 191 233 277
#     4  10  19  31  49  72  94 122 157 193 232 275
#     4   9  16  28  46  68  91 118 153 192 229 272
#
# _framework density 20.824624
#
# number of rings (size 3 to 8) (size 9 to 14) (size 15 to 20)
#    0.000    3.333    0.000    2.500    0.000    0.667 
#    0.000    9.167    0.000    6.000    0.000    7.000 
#    0.000    0.000    0.000    0.000    0.000    0.000 
#
# Total GULP energy -133685.211216 kJ/mol
# GULP energy per Si atom -5570.217134 kJ/mol
# Density = 2.077723 g / cm^3
# Si number density = 20.824624 Si / 1000 Ang^3
#
#
#
# Elastic Constant Matrix: (Units=GPa)
#
#
# Indices 1 2 3 4 5 6 
#
# 1 123.6516 3.4520 89.3038 0.0000 0.0000 0.0000
# 2 3.4520 51.9835 -2.9982 0.0000 0.0000 0.0000
# 3 89.3038 -2.9982 194.6505 0.0000 0.0000 0.0000
# 4 0.0000 0.0000 0.0000 15.0074 0.0000 0.0000
# 5 0.0000 0.0000 0.0000 0.0000 7.9674 0.0000
# 6 0.0000 0.0000 0.0000 0.0000 0.0000 -0.5458
#
#
#
# Elastic Compliance Matrix: (Units=1/GPa)
#
#
# Indices 1 2 3 4 5 6 
#
# 1 0.012161 -0.001130 -0.005597 0.000000 0.000000 0.000000
# 2 -0.001130 0.019359 0.000817 0.000000 0.000000 0.000000
# 3 -0.005597 0.000817 0.007718 0.000000 0.000000 0.000000
# 4 0.000000 0.000000 0.000000 0.066634 0.000000 0.000000
# 5 0.000000 0.000000 0.000000 0.000000 0.125512 0.000000
# 6 0.000000 0.000000 0.000000 0.000000 0.000000 -1.832101
#
#
# Mechanical properties :
#
#
# Convention : Reuss Voigt Hill
#
# Bulk Modulus (GPa) = 36.47364 61.08898 48.78131
# Shear Modulus (GPa) = -3.16504 23.18765 10.01130
#
# Velocity S-wave (km/s) = -1.23416 3.34049 2.19497
# Velocity P-wave (km/s) = 3.93977 6.65411 5.46804
#
# Compressibility (1/GPa) = 0.02741706
#
# Stress axis : x y z
#
# Youngs Moduli (GPa) = 82.23114 51.65549 129.57225
#
# Poissons Ratio (x) = 0.05839 0.72518
# Poissons Ratio (y) = 0.09295 -0.10583
# Poissons Ratio (z) = 0.46022 -0.04219
#
# Static dielectric constant tensor:
#      x y z
#    x 1.781570 0.000000 0.000000 
#    y 0.000000 1.839770 0.000000 
#    z 0.000000 0.000000 1.733520 
# 
# From -- ./inp_files/21899.got.cif
#   From: 2010.05.17/outbox.cif.g08.bks.cpg/sg46_11_cif.got.tgz:21899.got - 2010.06.03 19:58:25.
