data_PCOD9378636
_publ_section_title
;
Structure prediction by ZEFSAII (Michael W. Deem and Ramdas Pophale) SiO2 
 PCOD9378636
Probable space group: I M A 2
;
_chemical_formula_sum "Si O2"
_cell_formula_units_Z 48
_cell_length_a 8.681399
_cell_length_b 14.069835
_cell_length_c 24.366321
_cell_angle_alpha 90.000000
_cell_angle_beta 90.000000
_cell_angle_gamma 90.000000
_cell_volume 2976.245026
_symmetry_space_group_name_H-M "I M A 2"
_symmetry_group_IT_number 46
_symmetry_cell_setting 'orthorhombic'
loop_
_space_group_symop_operation_xyz
x,y,z
-x,-y,z
1/2-x,y,z
1/2+x,-y,z
1/2+x,1/2+y,1/2+z
1/2-x,1/2-y,1/2+z
-x,1/2+y,1/2+z
x,1/2-y,1/2+z
loop_
_atom_site_type_symbol
_atom_site_label
_atom_site_fract_x
_atom_site_fract_y
_atom_site_fract_z
Si Si1 0.935875 0.718692 0.714880
Si Si2 0.935164 0.894626 0.323474
Si Si3 0.933781 0.103720 0.654415
Si Si4 0.564589 0.706431 0.047284
Si Si5 0.065921 0.894046 0.441929
Si Si6 0.434528 0.396476 0.607249
O O1 0.750000 0.730173 0.711761
O O2 0.975490 0.675904 0.773927
O O3 0.980918 0.643595 0.667214
O O4 0.013194 0.817906 0.698742
O O5 0.750000 0.900306 0.327576
O O6 0.004129 0.864741 0.382034
O O7 0.000000 0.000000 0.311577
O O8 0.750000 0.100656 0.650721
O O9 0.002918 0.139744 0.596366
O O10 0.000000 0.000000 0.666904
O O11 0.750000 0.699778 0.045905
O O12 0.520829 0.813909 0.064433
O O13 0.494623 0.673074 0.990103
O O14 0.250000 0.897892 0.441648
O O15 0.000000 0.000000 0.452022
O O16 0.500000 0.500000 0.596390
O O17 0.250000 0.402394 0.606967
#
# Coordination Sequence:
#
# PCOD9378636 Si02
#       6
#     8   8   8   8   8   8
#     4   9  19  34  50  72 101 132 164 199 240 286
#     4  10  19  32  51  74 102 133 164 201 244 289
#     4  11  21  33  51  74 100 130 163 201 245 293
#     4  10  20  35  51  71 100 131 164 202 246 291
#     4  11  21  33  50  73 100 130 165 203 245 293
#     4   9  18  31  49  72  99 128 158 196 238 284
#
# _framework density 16.127704000000001
#
# number of rings (size 3 to 8) (size 9 to 14) (size 15 to 20)
#    0.000    2.000    0.000    7.000    0.000    4.667 
#    0.000    0.000    0.000    1.000    0.000    4.667 
#    0.000    0.000    0.000    0.000    0.000    0.000 
#
# Total GULP energy -133974.268096 kJ/mol
# GULP energy per Si atom -5582.261171 kJ/mol
# Density = 1.609100 g / cm^3
# Si number density = 16.127704 Si / 1000 Ang^3
#
#
#
# Elastic Constant Matrix: (Units=GPa)
#
#
# Indices 1 2 3 4 5 6 
#
# 1 89.3598 55.7466 62.4170 0.0000 0.0000 0.0000
# 2 55.7466 132.5872 94.5421 0.0000 0.0000 0.0000
# 3 62.4170 94.5421 143.8772 0.0000 0.0000 0.0000
# 4 0.0000 0.0000 0.0000 20.6462 0.0000 0.0000
# 5 0.0000 0.0000 0.0000 0.0000 25.5702 0.0000
# 6 0.0000 0.0000 0.0000 0.0000 0.0000 30.4883
#
#
#
# Elastic Compliance Matrix: (Units=1/GPa)
#
#
# Indices 1 2 3 4 5 6 
#
# 1 0.016891 -0.003532 -0.005007 0.000000 0.000000 0.000000
# 2 -0.003532 0.014930 -0.008279 0.000000 0.000000 0.000000
# 3 -0.005007 -0.008279 0.014562 0.000000 0.000000 0.000000
# 4 0.000000 0.000000 0.000000 0.048435 0.000000 0.000000
# 5 0.000000 0.000000 0.000000 0.000000 0.039108 0.000000
# 6 0.000000 0.000000 0.000000 0.000000 0.000000 0.032799
#
#
# Mechanical properties :
#
#
# Convention : Reuss Voigt Hill
#
# Bulk Modulus (GPa) = 78.43598 87.91508 83.17553
# Shear Modulus (GPa) = 24.43661 25.54884 24.99273
#
# Velocity S-wave (km/s) = 3.89677 3.98447 3.94086
# Velocity P-wave (km/s) = 8.30580 8.70621 8.50836
#
# Compressibility (1/GPa) = 0.01274925
#
# Stress axis : x y z
#
# Youngs Moduli (GPa) = 59.20180 66.97856 68.66968
#
# Poissons Ratio (x) = 0.23654 0.34384
# Poissons Ratio (y) = 0.20908 0.56849
# Poissons Ratio (z) = 0.29644 0.55449
#
# Static dielectric constant tensor:
#      x y z
#    x 1.541480 0.000000 0.000000 
#    y 0.000000 1.521400 0.000000 
#    z 0.000000 0.000000 1.530250 
# 
# From -- ./inp_files/22908.got.cif
#   From: 2010.05.17/outbox.cif.g08.bks.cpg/sg46_12_cif.got.tgz:22908.got - 2010.06.03 19:58:25.
