data_PCOD9378096
_publ_section_title
;
Structure prediction by ZEFSAII (Michael W. Deem and Ramdas Pophale) SiO2 
 PCOD9378096
Probable space group: I M A 2
;
_chemical_formula_sum "Si O2"
_cell_formula_units_Z 56
_cell_length_a 17.339236
_cell_length_b 26.321625
_cell_length_c 7.828364
_cell_angle_alpha 90.000000
_cell_angle_beta 90.000000
_cell_angle_gamma 90.000000
_cell_volume 3572.840809
_symmetry_space_group_name_H-M "I M A 2"
_symmetry_group_IT_number 46
_symmetry_cell_setting 'orthorhombic'
loop_
_space_group_symop_operation_xyz
x,y,z
-x,-y,z
1/2-x,y,z
1/2+x,-y,z
1/2+x,1/2+y,1/2+z
1/2-x,1/2-y,1/2+z
-x,1/2+y,1/2+z
x,1/2-y,1/2+z
loop_
_atom_site_type_symbol
_atom_site_label
_atom_site_fract_x
_atom_site_fract_y
_atom_site_fract_z
Si Si1 0.663000 0.518604 0.208620
Si Si2 0.161111 0.094031 0.386317
Si Si3 0.049586 0.947215 0.551224
Si Si4 0.011580 0.440683 0.696012
Si Si5 0.340163 0.313434 0.406591
Si Si6 0.450668 0.406817 0.347546
Si Si7 0.161052 0.202941 0.312496
O O1 0.750000 0.513731 0.272340
O O2 0.630334 0.466928 0.125667
O O3 0.603156 0.542362 0.342793
O O4 0.662047 0.560795 0.057201
O O5 0.250000 0.095497 0.321312
O O6 0.134380 0.152483 0.410747
O O7 0.098996 0.069179 0.261170
O O8 0.043045 0.927563 0.357929
O O9 0.006475 0.911242 0.685207
O O10 0.000000 0.000000 0.546555
O O11 0.000000 0.500000 0.659476
O O12 0.002106 0.409066 0.523603
O O13 0.250000 0.320899 0.353099
O O14 0.393501 0.359258 0.346772
O O15 0.371475 0.258894 0.342653
O O16 0.341559 0.310805 0.612748
O O17 0.250000 0.209513 0.367592
#
# Coordination Sequence:
#
# PCOD9378096 Si02
#       7
#     8   8   8   8   8   8   8
#     4  10  19  32  49  67  92 125 164 200 233 280
#     4  10  18  30  47  65  89 123 162 196 225 268
#     4   9  18  33  44  66  91 118 157 192 236 282
#     4  11  18  31  47  64  92 122 157 196 233 277
#     4  10  20  31  44  63  89 123 164 199 228 265
#     4  11  20  30  48  68  91 126 162 192 236 281
#     4   9  19  31  42  63  90 119 161 203 231 259
#
# _framework density 15.673802
#
# number of rings (size 3 to 8) (size 9 to 14) (size 15 to 20)
#    0.000    2.000    5.714    1.714    2.000    0.571 
#    0.000    0.000    0.000    0.000    0.000    0.000 
#    0.000    0.000    0.000    6.429    0.286    0.571 
#
# Total GULP energy -155978.947230 kJ/mol
# GULP energy per Si atom -5570.676687 kJ/mol
# Density = 1.563813 g / cm^3
# Si number density = 15.673802 Si / 1000 Ang^3
#
#
#
# Elastic Constant Matrix: (Units=GPa)
#
#
# Indices 1 2 3 4 5 6 
#
# 1 36.0908 33.0713 13.8256 0.0000 0.0000 0.0000
# 2 33.0713 85.3396 29.8577 0.0000 0.0000 0.0000
# 3 13.8256 29.8577 63.1418 0.0000 0.0000 0.0000
# 4 0.0000 0.0000 0.0000 21.3432 0.0000 0.0000
# 5 0.0000 0.0000 0.0000 0.0000 14.3429 0.0000
# 6 0.0000 0.0000 0.0000 0.0000 0.0000 24.6144
#
#
#
# Elastic Compliance Matrix: (Units=1/GPa)
#
#
# Indices 1 2 3 4 5 6 
#
# 1 0.043144 -0.016073 -0.001846 0.000000 0.000000 0.000000
# 2 -0.016073 0.020029 -0.005952 0.000000 0.000000 0.000000
# 3 -0.001846 -0.005952 0.019056 0.000000 0.000000 0.000000
# 4 0.000000 0.000000 0.000000 0.046853 0.000000 0.000000
# 5 0.000000 0.000000 0.000000 0.000000 0.069721 0.000000
# 6 0.000000 0.000000 0.000000 0.000000 0.000000 0.040627
#
#
# Mechanical properties :
#
#
# Convention : Reuss Voigt Hill
#
# Bulk Modulus (GPa) = 28.99705 37.56460 33.28082
# Shear Modulus (GPa) = 16.74103 19.24794 17.99449
#
# Velocity S-wave (km/s) = 3.27171 3.50813 3.39198
# Velocity P-wave (km/s) = 5.72823 6.35829 6.05146
#
# Compressibility (1/GPa) = 0.03448627
#
# Stress axis : x y z
#
# Youngs Moduli (GPa) = 23.17831 49.92760 52.47707
#
# Poissons Ratio (x) = 0.80250 0.09689
# Poissons Ratio (y) = 0.37255 0.31232
# Poissons Ratio (z) = 0.04279 0.29715
#
# Static dielectric constant tensor:
#      x y z
#    x 1.529940 0.000000 0.000000 
#    y 0.000000 1.543920 0.000000 
#    z 0.000000 0.000000 1.589770 
# 
# From -- ./inp_files/6985.got.cif
#   From: 2010.05.17/outbox.cif.g08.bks.cpg/sg46_4_cif.got.tgz:6985.got - 2010.06.03 19:58:25.
