data_PCOD9378128
_publ_section_title
;
Structure prediction by ZEFSAII (Michael W. Deem and Ramdas Pophale) SiO2 
 PCOD9378128
Probable space group: I M A 2
;
_chemical_formula_sum "Si O2"
_cell_formula_units_Z 52
_cell_length_a 15.780032
_cell_length_b 18.295867
_cell_length_c 7.110165
_cell_angle_alpha 90.000000
_cell_angle_beta 90.000000
_cell_angle_gamma 90.000000
_cell_volume 2052.771234
_symmetry_space_group_name_H-M "I M A 2"
_symmetry_group_IT_number 46
_symmetry_cell_setting 'orthorhombic'
loop_
_space_group_symop_operation_xyz
x,y,z
-x,-y,z
1/2-x,y,z
1/2+x,-y,z
1/2+x,1/2+y,1/2+z
1/2-x,1/2-y,1/2+z
-x,1/2+y,1/2+z
x,1/2-y,1/2+z
loop_
_atom_site_type_symbol
_atom_site_label
_atom_site_fract_x
_atom_site_fract_y
_atom_site_fract_z
Si Si1 0.155180 0.477485 0.253990
Si Si2 0.103024 0.009458 0.184679
Si Si3 0.385821 0.648496 0.694329
Si Si4 0.593401 0.371284 0.237929
Si Si5 0.922187 0.836322 0.233013
Si Si6 0.250000 0.723738 0.172448
Si Si7 0.088602 0.175794 0.788016
O O1 0.250000 0.498158 0.200582
O O2 0.145944 0.481575 0.481431
O O3 0.091480 0.542210 0.193607
O O4 0.139106 0.392847 0.206895
O O5 0.114709 0.085439 0.294368
O O6 0.136200 0.932942 0.263914
O O7 0.000000 0.000000 0.159583
O O8 0.390550 0.639330 0.464629
O O9 0.477901 0.666762 0.777451
O O10 0.322015 0.713880 0.725566
O O11 0.674007 0.335297 0.141986
O O12 0.504785 0.331984 0.198662
O O13 0.920973 0.840057 0.007641
O O14 0.879972 0.759039 0.279447
#
# Coordination Sequence:
#
# PCOD9378128 Si02
#       7
#     8   8   8   8   8   4   8
#     4  10  18  30  50  75  98 128 173 219 250 287
#     4   8  16  31  50  72  98 130 168 210 252 299
#     4   9  18  29  47  73 103 132 165 204 251 305
#     4  10  19  32  48  74 107 133 164 209 257 309
#     4   9  17  33  53  74  99 134 172 209 246 300
#     4  12  18  26  48  80 102 126 152 214 264 300
#     4  10  19  34  54  75 102 136 173 207 256 304
#
# _framework density 25.331610999999999
#
# number of rings (size 3 to 8) (size 9 to 14) (size 15 to 20)
#    0.000    2.462    2.308    3.692    3.231    0.000 
#    0.000    3.077    0.000    9.231    0.000    0.000 
#    0.000    0.000    0.000    0.000    0.000    0.000 
#
# Total GULP energy -144742.061101 kJ/mol
# GULP energy per Si atom -5567.002350 kJ/mol
# Density = 2.527396 g / cm^3
# Si number density = 25.331611 Si / 1000 Ang^3
#
#
#
# Elastic Constant Matrix: (Units=GPa)
#
#
# Indices 1 2 3 4 5 6 
#
# 1 39.8098 26.6859 -6.4669 0.0000 0.0000 0.0000
# 2 26.6859 261.1518 -12.9705 0.0000 0.0000 0.0000
# 3 -6.4669 -12.9705 78.7324 0.0000 0.0000 0.0000
# 4 0.0000 0.0000 0.0000 -794.2132 0.0000 0.0000
# 5 0.0000 0.0000 0.0000 0.0000 53.0051 0.0000
# 6 0.0000 0.0000 0.0000 0.0000 0.0000 49.7674
#
#
#
# Elastic Compliance Matrix: (Units=1/GPa)
#
#
# Indices 1 2 3 4 5 6 
#
# 1 0.027215 -0.002692 0.001792 0.000000 0.000000 0.000000
# 2 -0.002692 0.004127 0.000459 0.000000 0.000000 0.000000
# 3 0.001792 0.000459 0.012924 0.000000 0.000000 0.000000
# 4 0.000000 0.000000 0.000000 -0.001259 0.000000 0.000000
# 5 0.000000 0.000000 0.000000 0.000000 0.018866 0.000000
# 6 0.000000 0.000000 0.000000 0.000000 0.000000 0.020093
#
#
# Mechanical properties :
#
#
# Convention : Reuss Voigt Hill
#
# Bulk Modulus (GPa) = 23.05020 43.79899 33.42459
# Shear Modulus (GPa) = 51.38198 -113.45843 -31.03822
#
# Velocity S-wave (km/s) = 4.50863 -6.69974 -3.50419
# Velocity P-wave (km/s) = 6.01854 6.52080 1.77455
#
# Compressibility (1/GPa) = 0.04338358
#
# Stress axis : x y z
#
# Youngs Moduli (GPa) = 36.74434 242.30335 77.37534
#
# Poissons Ratio (x) = 0.65228 -0.13865
# Poissons Ratio (y) = 0.09892 -0.03550
# Poissons Ratio (z) = -0.06584 -0.11116
#
# Static dielectric constant tensor:
#      x y z
#    x 1.690320 0.000000 0.000000 
#    y 0.000000 2.037060 0.000000 
#    z 0.000000 0.000000 2.107780 
# 
# From -- ./inp_files/11238.got.cif
#   From: 2010.05.17/outbox.cif.g08.bks.cpg/sg46_6_cif.got.tgz:11238.got - 2010.06.03 19:58:25.
