data_PCOD9378115
_publ_section_title
;
Structure prediction by ZEFSAII (Michael W. Deem and Ramdas Pophale) SiO2 
 PCOD9378115
Probable space group: I M A 2
;
_chemical_formula_sum "Si O2"
_cell_formula_units_Z 64
_cell_length_a 8.518620
_cell_length_b 20.378577
_cell_length_c 21.285555
_cell_angle_alpha 90.000000
_cell_angle_beta 90.000000
_cell_angle_gamma 90.000000
_cell_volume 3695.116018
_symmetry_space_group_name_H-M "I M A 2"
_symmetry_group_IT_number 46
_symmetry_cell_setting 'orthorhombic'
loop_
_space_group_symop_operation_xyz
x,y,z
-x,-y,z
1/2-x,y,z
1/2+x,-y,z
1/2+x,1/2+y,1/2+z
1/2-x,1/2-y,1/2+z
-x,1/2+y,1/2+z
x,1/2-y,1/2+z
loop_
_atom_site_type_symbol
_atom_site_label
_atom_site_fract_x
_atom_site_fract_y
_atom_site_fract_z
Si Si1 0.438131 0.069620 0.209860
Si Si2 0.440229 0.710153 0.137181
Si Si3 0.437978 0.290162 0.757557
Si Si4 0.441440 0.709225 0.515849
Si Si5 0.061090 0.569678 0.181362
Si Si6 0.938832 0.069742 0.827789
Si Si7 0.938022 0.069650 0.067255
Si Si8 0.440063 0.711004 0.376258
O O1 0.250000 0.067100 0.206330
O O2 0.485754 0.133793 0.248895
O O3 0.503313 0.076953 0.138988
O O4 0.500000 0.000000 0.234592
O O5 0.250000 0.711315 0.137824
O O6 0.496960 0.750257 0.197802
O O7 0.494407 0.745133 0.073299
O O8 0.491115 0.634624 0.144771
O O9 0.250000 0.287135 0.756001
O O10 0.497939 0.257084 0.821160
O O11 0.250000 0.709904 0.516572
O O12 0.489075 0.634113 0.529603
O O13 0.491095 0.730167 0.446355
O O14 0.250000 0.568331 0.180918
O O15 0.011078 0.575971 0.254567
O O16 0.000000 0.500000 0.157330
O O17 0.750000 0.067796 0.829193
O O18 0.989545 0.135644 0.862945
O O19 0.000000 0.000000 0.852171
O O20 0.750000 0.067521 0.067824
O O21 0.000000 0.000000 0.042811
O O22 0.250000 0.712147 0.373658
#
# Coordination Sequence:
#
# PCOD9378115 Si02
#       8
#     8   8   8   8   8   8   8   8
#     4  10  20  33  51  77 105 132 169 212 258 309
#     4  10  18  34  56  77 100 134 173 211 254 304
#     4  11  22  34  52  80 106 132 169 217 263 304
#     4   9  19  33  53  76 100 135 178 214 248 301
#     4   9  17  29  48  74 100 128 163 206 251 298
#     4   9  17  29  46  69  99 133 170 205 243 293
#     4  10  18  30  49  74 105 139 174 210 251 300
#     4  10  20  36  53  73 102 139 179 212 251 308
#
# _framework density 17.320159
#
# number of rings (size 3 to 8) (size 9 to 14) (size 15 to 20)
#    0.000    2.250    2.500    1.875    0.000    3.000 
#    0.000    1.875    0.000    0.750    0.000    3.500 
#    0.000    0.000    0.000    0.000    0.000    0.000 
#
# Total GULP energy -178499.644946 kJ/mol
# GULP energy per Si atom -5578.113905 kJ/mol
# Density = 1.728074 g / cm^3
# Si number density = 17.320159 Si / 1000 Ang^3
#
#
#
# Elastic Constant Matrix: (Units=GPa)
#
#
# Indices 1 2 3 4 5 6 
#
# 1 17.2731 24.9365 16.8086 0.0000 0.0000 0.0000
# 2 24.9365 148.7250 78.3220 0.0000 0.0000 0.0000
# 3 16.8086 78.3220 119.7296 0.0000 0.0000 0.0000
# 4 0.0000 0.0000 0.0000 22.3962 0.0000 0.0000
# 5 0.0000 0.0000 0.0000 0.0000 -9.1731 0.0000
# 6 0.0000 0.0000 0.0000 0.0000 0.0000 26.3798
#
#
#
# Elastic Compliance Matrix: (Units=1/GPa)
#
#
# Indices 1 2 3 4 5 6 
#
# 1 0.077401 -0.011068 -0.003626 0.000000 0.000000 0.000000
# 2 -0.011068 0.011840 -0.006192 0.000000 0.000000 0.000000
# 3 -0.003626 -0.006192 0.012911 0.000000 0.000000 0.000000
# 4 0.000000 0.000000 0.000000 0.044650 0.000000 0.000000
# 5 0.000000 0.000000 0.000000 0.000000 -0.109014 0.000000
# 6 0.000000 0.000000 0.000000 0.000000 0.000000 0.037908
#
#
# Mechanical properties :
#
#
# Convention : Reuss Voigt Hill
#
# Bulk Modulus (GPa) = 16.56141 58.42909 37.49525
# Shear Modulus (GPa) = 36.33864 18.96461 27.65163
#
# Velocity S-wave (km/s) = 4.58542 3.31258 3.99996
# Velocity P-wave (km/s) = 6.13331 6.95981 6.55959
#
# Compressibility (1/GPa) = 0.06038133
#
# Stress axis : x y z
#
# Youngs Moduli (GPa) = 12.91976 84.45788 77.45101
#
# Poissons Ratio (x) = 0.93481 0.28082
# Poissons Ratio (y) = 0.14300 0.47954
# Poissons Ratio (z) = 0.04684 0.52292
#
# Static dielectric constant tensor:
#      x y z
#    x 1.594860 0.000000 0.000000 
#    y 0.000000 1.601560 0.000000 
#    z 0.000000 0.000000 1.574720 
# 
# From -- ./inp_files/21273.got.cif
#   From: 2010.05.17/outbox.cif.g08.bks.cpg/sg46_11_cif.got.tgz:21273.got - 2010.06.03 19:58:25.
