data_PCOD9378904
_publ_section_title
;
Structure prediction by ZEFSAII (Michael W. Deem and Ramdas Pophale) SiO2 
 PCOD9378904
Probable space group: I M A 2
;
_chemical_formula_sum "Si O2"
_cell_formula_units_Z 48
_cell_length_a 14.896079
_cell_length_b 15.585621
_cell_length_c 9.319014
_cell_angle_alpha 90.000000
_cell_angle_beta 90.000000
_cell_angle_gamma 90.000000
_cell_volume 2163.545546
_symmetry_space_group_name_H-M "I M A 2"
_symmetry_group_IT_number 46
_symmetry_cell_setting 'orthorhombic'
loop_
_space_group_symop_operation_xyz
x,y,z
-x,-y,z
1/2-x,y,z
1/2+x,-y,z
1/2+x,1/2+y,1/2+z
1/2-x,1/2-y,1/2+z
-x,1/2+y,1/2+z
x,1/2-y,1/2+z
loop_
_atom_site_type_symbol
_atom_site_label
_atom_site_fract_x
_atom_site_fract_y
_atom_site_fract_z
Si Si1 0.104904 0.489072 0.855210
Si Si2 0.354497 0.850907 0.183282
Si Si3 0.860691 0.854332 0.755100
Si Si4 0.143266 0.961540 0.683707
Si Si5 0.139334 0.697306 0.368739
Si Si6 0.142783 0.301754 0.939729
O O1 0.142624 0.550872 0.732717
O O2 0.128604 0.388736 0.848717
O O3 0.000000 0.500000 0.844642
O O4 0.131012 0.523935 0.013779
O O5 0.250000 0.827517 0.172587
O O6 0.391073 0.789826 0.310072
O O7 0.393016 0.828580 0.027259
O O8 0.750000 0.855211 0.756349
O O9 0.892244 0.785486 0.870571
O O10 0.890658 0.821070 0.599044
O O11 0.890858 0.952886 0.763775
O O12 0.250000 0.959516 0.705740
O O13 0.109463 0.873844 0.752611
O O14 0.250000 0.697014 0.374191
O O15 0.250000 0.291532 0.951581
#
# Coordination Sequence:
#
# PCOD9378904 Si02
#       6
#     8   8   8   8   8   8
#     4  11  22  35  50  73 106 145 182 214 254 309
#     4  10  19  34  55  81 108 137 173 220 268 317
#     4   8  15  27  48  74  99 124 158 201 250 300
#     4   9  17  34  57  81 104 131 169 218 268 319
#     4   9  18  32  58  87 106 130 172 219 270 322
#     4   9  17  32  52  74  97 127 164 210 258 301
#
# _framework density 22.185805999999999
#
# number of rings (size 3 to 8) (size 9 to 14) (size 15 to 20)
#    0.000    2.667    0.000    3.500    0.000    4.000 
#    0.000   12.500    0.000    0.000    0.000    0.000 
#    0.000    0.000    0.000    0.000    0.000    0.000 
#
# Total GULP energy -133933.024720 kJ/mol
# GULP energy per Si atom -5580.542697 kJ/mol
# Density = 2.213531 g / cm^3
# Si number density = 22.185806 Si / 1000 Ang^3
#
#
#
# Elastic Constant Matrix: (Units=GPa)
#
#
# Indices 1 2 3 4 5 6 
#
# 1 22.0460 -1.9001 11.1059 0.0000 0.0000 0.0000
# 2 -1.9001 68.4335 -11.5225 0.0000 0.0000 0.0000
# 3 11.1059 -11.5225 44.3744 0.0000 0.0000 0.0000
# 4 0.0000 0.0000 0.0000 40.9284 0.0000 0.0000
# 5 0.0000 0.0000 0.0000 0.0000 -8.7383 0.0000
# 6 0.0000 0.0000 0.0000 0.0000 0.0000 4.9655
#
#
#
# Elastic Compliance Matrix: (Units=1/GPa)
#
#
# Indices 1 2 3 4 5 6 
#
# 1 0.051943 -0.000781 -0.013203 0.000000 0.000000 0.000000
# 2 -0.000781 0.015293 0.004166 0.000000 0.000000 0.000000
# 3 -0.013203 0.004166 0.026922 0.000000 0.000000 0.000000
# 4 0.000000 0.000000 0.000000 0.024433 0.000000 0.000000
# 5 0.000000 0.000000 0.000000 0.000000 -0.114439 0.000000
# 6 0.000000 0.000000 0.000000 0.000000 0.000000 0.201389
#
#
# Mechanical properties :
#
#
# Convention : Reuss Voigt Hill
#
# Bulk Modulus (GPa) = 13.41871 14.46897 13.94384
# Shear Modulus (GPa) = 19.99867 16.57584 18.28725
#
# Velocity S-wave (km/s) = 3.00562 2.73635 2.87414
# Velocity P-wave (km/s) = 4.25517 4.06440 4.16088
#
# Compressibility (1/GPa) = 0.07452283
#
# Stress axis : x y z
#
# Youngs Moduli (GPa) = 19.25169 65.39131 37.14465
#
# Poissons Ratio (x) = 0.05106 0.49042
# Poissons Ratio (y) = 0.01503 -0.15476
# Poissons Ratio (z) = 0.25418 -0.27244
#
# Static dielectric constant tensor:
#      x y z
#    x 1.730090 0.000000 0.000000 
#    y 0.000000 1.777610 0.000000 
#    z 0.000000 0.000000 1.720070 
# 
# From -- ./inp_files/6593.got.cif
#   From: 2010.05.17/outbox.cif.g08.bks.cpg/sg46_4_cif.got.tgz:6593.got - 2010.06.03 19:58:25.
