data_PCOD9378240
_publ_section_title
;
Structure prediction by ZEFSAII (Michael W. Deem and Ramdas Pophale) SiO2 
 PCOD9378240
Probable space group: I M A 2
;
_chemical_formula_sum "Si O2"
_cell_formula_units_Z 56
_cell_length_a 16.026585
_cell_length_b 21.535837
_cell_length_c 9.050709
_cell_angle_alpha 90.000000
_cell_angle_beta 90.000000
_cell_angle_gamma 90.000000
_cell_volume 3123.815305
_symmetry_space_group_name_H-M "I M A 2"
_symmetry_group_IT_number 46
_symmetry_cell_setting 'orthorhombic'
loop_
_space_group_symop_operation_xyz
x,y,z
-x,-y,z
1/2-x,y,z
1/2+x,-y,z
1/2+x,1/2+y,1/2+z
1/2-x,1/2-y,1/2+z
-x,1/2+y,1/2+z
x,1/2-y,1/2+z
loop_
_atom_site_type_symbol
_atom_site_label
_atom_site_fract_x
_atom_site_fract_y
_atom_site_fract_z
Si Si1 0.750000 0.324838 0.326890
Si Si2 0.483253 0.068244 0.096067
Si Si3 0.408830 0.913099 0.805892
Si Si4 0.567523 0.839831 0.723976
Si Si5 0.250000 0.689263 0.677775
Si Si6 0.568014 0.170821 0.243211
Si Si7 0.512244 0.750452 0.487099
Si Si8 0.846715 0.548919 0.351132
O O1 0.830555 0.367507 0.294883
O O2 0.750000 0.310126 0.500914
O O3 0.750000 0.259919 0.239270
O O4 0.500424 0.116404 0.224710
O O5 0.500000 0.000000 0.153137
O O6 0.553417 0.084712 0.972326
O O7 0.398461 0.065168 0.000848
O O8 0.483381 0.881969 0.713086
O O9 0.385101 0.985405 0.781811
O O10 0.572640 0.794078 0.584605
O O11 0.555754 0.796983 0.871731
O O12 0.638717 0.890766 0.749393
O O13 0.165370 0.655834 0.731443
O O14 0.548852 0.207933 0.390246
O O15 0.544034 0.214917 0.105886
O O16 0.750000 0.537831 0.381101
#
# Coordination Sequence:
#
# PCOD9378240 Si02
#       8
#     4   8   8   8   4   8   8   8
#     4  12  20  32  48  84 114 150 178 212 262 316
#     4   9  18  33  52  76 105 142 183 225 266 316
#     4  10  18  32  54  78 109 140 182 221 261 325
#     4  10  19  36  55  82 107 142 178 222 277 327
#     4  12  22  28  50  80 124 144 176 212 260 322
#     4  11  19  35  50  81 109 149 178 216 264 325
#     4  10  20  33  56  75 111 144 180 215 265 331
#     4  10  19  34  58  82 103 136 189 239 267 307
#
# _framework density 17.926797000000001
#
# number of rings (size 3 to 8) (size 9 to 14) (size 15 to 20)
#    0.000    1.714    5.000    3.857    0.000    0.000 
#    0.000    2.143    0.000    0.857    0.000    0.000 
#    0.000    0.000    0.000    0.000    0.000    0.000 
#
# Total GULP energy -156027.176383 kJ/mol
# GULP energy per Si atom -5572.399157 kJ/mol
# Density = 1.788599 g / cm^3
# Si number density = 17.926797 Si / 1000 Ang^3
#
#
#
# Elastic Constant Matrix: (Units=GPa)
#
#
# Indices 1 2 3 4 5 6 
#
# 1 56.9647 32.6105 1.5657 0.0000 0.0000 0.0000
# 2 32.6105 95.3362 28.6778 0.0000 0.0000 0.0000
# 3 1.5657 28.6778 50.8648 0.0000 0.0000 0.0000
# 4 0.0000 0.0000 0.0000 4.3954 0.0000 0.0000
# 5 0.0000 0.0000 0.0000 0.0000 7.9192 0.0000
# 6 0.0000 0.0000 0.0000 0.0000 0.0000 24.3905
#
#
#
# Elastic Compliance Matrix: (Units=1/GPa)
#
#
# Indices 1 2 3 4 5 6 
#
# 1 0.022624 -0.009067 0.004416 0.000000 0.000000 0.000000
# 2 -0.009067 0.016265 -0.008891 0.000000 0.000000 0.000000
# 3 0.004416 -0.008891 0.024537 0.000000 0.000000 0.000000
# 4 0.000000 0.000000 0.000000 0.227509 0.000000 0.000000
# 5 0.000000 0.000000 0.000000 0.000000 0.126275 0.000000
# 6 0.000000 0.000000 0.000000 0.000000 0.000000 0.041000
#
#
# Mechanical properties :
#
#
# Convention : Reuss Voigt Hill
#
# Bulk Modulus (GPa) = 27.51732 36.54156 32.02944
# Shear Modulus (GPa) = 10.05211 16.69515 13.37363
#
# Velocity S-wave (km/s) = 2.37055 3.05502 2.73429
# Velocity P-wave (km/s) = 4.78286 5.73343 5.27959
#
# Compressibility (1/GPa) = 0.03634075
#
# Stress axis : x y z
#
# Youngs Moduli (GPa) = 44.20107 61.48110 40.75482
#
# Poissons Ratio (x) = 0.55744 -0.17995
# Poissons Ratio (y) = 0.40077 0.36236
# Poissons Ratio (z) = -0.19517 0.54665
#
# Static dielectric constant tensor:
#      x y z
#    x 1.624470 0.000000 0.000000 
#    y 0.000000 1.672150 0.000000 
#    z 0.000000 0.000000 1.611120 
# 
# From -- ./inp_files/6990.got.cif
#   From: 2010.05.17/outbox.cif.g08.bks.cpg/sg46_4_cif.got.tgz:6990.got - 2010.06.03 19:58:25.
