data_PCOD9378771
_publ_section_title
;
Structure prediction by ZEFSAII (Michael W. Deem and Ramdas Pophale) SiO2 
 PCOD9378771
Probable space group: I M A 2
;
_chemical_formula_sum "Si O2"
_cell_formula_units_Z 64
_cell_length_a 8.893799
_cell_length_b 24.142137
_cell_length_c 17.945466
_cell_angle_alpha 90.000000
_cell_angle_beta 90.000000
_cell_angle_gamma 90.000000
_cell_volume 3853.166365
_symmetry_space_group_name_H-M "I M A 2"
_symmetry_group_IT_number 46
_symmetry_cell_setting 'orthorhombic'
loop_
_space_group_symop_operation_xyz
x,y,z
-x,-y,z
1/2-x,y,z
1/2+x,-y,z
1/2+x,1/2+y,1/2+z
1/2-x,1/2-y,1/2+z
-x,1/2+y,1/2+z
x,1/2-y,1/2+z
loop_
_atom_site_type_symbol
_atom_site_label
_atom_site_fract_x
_atom_site_fract_y
_atom_site_fract_z
Si Si1 0.072784 0.130724 0.229880
Si Si2 0.569589 0.060052 0.101409
Si Si3 0.071243 0.059674 0.679467
Si Si4 0.928764 0.940327 0.503206
Si Si5 0.072732 0.238266 0.311039
Si Si6 0.570620 0.138091 0.382331
Si Si7 0.069716 0.940654 0.929382
Si Si8 0.930596 0.358536 0.297685
O O1 0.250000 0.117918 0.231502
O O2 0.056328 0.197387 0.239242
O O3 0.996380 0.104692 0.158216
O O4 0.993470 0.110093 0.306205
O O5 0.750000 0.057877 0.107166
O O6 0.500000 0.000000 0.119581
O O7 0.528542 0.072055 0.015148
O O8 0.250000 0.058072 0.692849
O O9 0.045997 0.069207 0.591326
O O10 0.995260 0.107005 0.728453
O O11 0.000000 0.000000 0.698532
O O12 0.750000 0.941425 0.489983
O O13 0.005278 0.893885 0.452709
O O14 0.000000 0.000000 0.484875
O O15 0.250000 0.243639 0.326149
O O16 0.993391 0.200665 0.374454
O O17 0.997354 0.297149 0.300736
O O18 0.750000 0.138072 0.382009
O O19 0.250000 0.946011 0.926368
O O20 0.025165 0.893203 0.871598
O O21 0.000000 0.000000 0.909074
O O22 0.750000 0.356274 0.293880
#
# Coordination Sequence:
#
# PCOD9378771 Si02
#       8
#     8   8   8   8   8   8   8   8
#     4   9  19  35  54  76 106 138 175 217 260 310
#     4  10  19  33  53  77 108 139 173 214 262 312
#     4  10  21  36  55  80 111 141 175 219 267 318
#     4  10  20  35  54  79 110 142 175 217 265 316
#     4   9  20  37  55  76 105 139 178 222 262 309
#     4  10  19  34  56  79 106 139 175 218 264 311
#     4   9  20  35  52  79 109 138 171 214 260 312
#     4  11  21  35  57  80 105 140 181 219 265 318
#
# _framework density 16.609715999999999
#
# number of rings (size 3 to 8) (size 9 to 14) (size 15 to 20)
#    0.750    1.500    0.000    3.375    0.000    4.500 
#    0.000    3.750    0.000    3.000    0.000    0.000 
#    0.000    0.000    0.000    0.000    0.000    0.000 
#
# Total GULP energy -178344.067848 kJ/mol
# GULP energy per Si atom -5573.252120 kJ/mol
# Density = 1.657191 g / cm^3
# Si number density = 16.609716 Si / 1000 Ang^3
#
#
#
# Elastic Constant Matrix: (Units=GPa)
#
#
# Indices 1 2 3 4 5 6 
#
# 1 111.6500 79.8593 64.1288 0.0000 0.0000 0.0000
# 2 79.8593 141.4483 79.7967 0.0000 0.0000 0.0000
# 3 64.1288 79.7967 78.5050 0.0001 0.0000 0.0000
# 4 0.0000 0.0000 0.0001 -7.3262 0.0000 0.0000
# 5 0.0000 0.0000 0.0000 0.0000 25.1595 0.0000
# 6 0.0000 0.0000 0.0000 0.0000 0.0000 34.2517
#
#
#
# Elastic Compliance Matrix: (Units=1/GPa)
#
#
# Indices 1 2 3 4 5 6 
#
# 1 0.017955 -0.004367 -0.010228 0.000000 0.000000 0.000000
# 2 -0.004367 0.017635 -0.014358 0.000000 0.000000 0.000000
# 3 -0.010228 -0.014358 0.035688 0.000000 0.000000 0.000000
# 4 0.000000 0.000000 0.000000 -0.136496 0.000000 0.000000
# 5 0.000000 0.000000 0.000000 0.000000 0.039746 0.000000
# 6 0.000000 0.000000 0.000000 0.000000 0.000000 0.029196
#
#
# Mechanical properties :
#
#
# Convention : Reuss Voigt Hill
#
# Bulk Modulus (GPa) = 74.78738 86.57477 80.68108
# Shear Modulus (GPa) = 75.65771 17.60487 46.63129
#
# Velocity S-wave (km/s) = 6.75642 3.25916 5.30431
# Velocity P-wave (km/s) = 10.29512 8.14856 9.28409
#
# Compressibility (1/GPa) = 0.01337124
#
# Stress axis : x y z
#
# Youngs Moduli (GPa) = 55.69541 56.70467 28.02100
#
# Poissons Ratio (x) = 0.24762 0.28660
# Poissons Ratio (y) = 0.24322 0.40233
# Poissons Ratio (z) = 0.56966 0.81418
#
# Static dielectric constant tensor:
#      x y z
#    x 1.550970 0.000000 0.000000 
#    y 0.000000 1.532780 0.000000 
#    z 0.000000 0.000000 1.555750 
# 
# From -- ./inp_files/18683.got.cif
#   From: 2010.05.17/outbox.cif.g08.bks.cpg/sg46_10_cif.got.tgz:18683.got - 2010.06.03 19:58:25.
