data_PCOD9378840
_publ_section_title
;
Structure prediction by ZEFSAII (Michael W. Deem and Ramdas Pophale) SiO2 
 PCOD9378840
Probable space group: I M A 2
;
_chemical_formula_sum "Si O2"
_cell_formula_units_Z 64
_cell_length_a 8.547355
_cell_length_b 25.592484
_cell_length_c 15.392011
_cell_angle_alpha 90.000000
_cell_angle_beta 90.000000
_cell_angle_gamma 90.000000
_cell_volume 3366.972331
_symmetry_space_group_name_H-M "I M A 2"
_symmetry_group_IT_number 46
_symmetry_cell_setting 'orthorhombic'
loop_
_space_group_symop_operation_xyz
x,y,z
-x,-y,z
1/2-x,y,z
1/2+x,-y,z
1/2+x,1/2+y,1/2+z
1/2-x,1/2-y,1/2+z
-x,1/2+y,1/2+z
x,1/2-y,1/2+z
loop_
_atom_site_type_symbol
_atom_site_label
_atom_site_fract_x
_atom_site_fract_y
_atom_site_fract_z
Si Si1 0.438727 0.349036 0.037350
Si Si2 0.061737 0.834912 0.345339
Si Si3 0.563304 0.396258 0.332488
Si Si4 0.935877 0.941481 0.013193
Si Si5 0.563947 0.133152 0.161400
Si Si6 0.063646 0.267900 0.567881
Si Si7 0.063361 0.443419 0.158315
Si Si8 0.938597 0.282187 0.375695
O O1 0.250000 0.348915 0.036854
O O2 0.487125 0.292565 0.075720
O O3 0.494946 0.397248 0.095153
O O4 0.495322 0.351891 0.938078
O O5 0.250000 0.837589 0.349305
O O6 0.010564 0.867807 0.261668
O O7 0.020499 0.773428 0.333424
O O8 0.750000 0.401109 0.326568
O O9 0.509717 0.415971 0.426810
O O10 0.487256 0.429292 0.255904
O O11 0.520504 0.334840 0.324694
O O12 0.750000 0.942464 0.003084
O O13 0.981448 0.906866 0.096514
O O14 0.000000 0.000000 0.022738
O O15 0.750000 0.124191 0.157347
O O16 0.526672 0.191394 0.127513
O O17 0.250000 0.272104 0.582475
O O18 0.023792 0.283209 0.468553
O O19 0.250000 0.444343 0.154105
O O20 0.000000 0.500000 0.133534
O O21 0.750000 0.282998 0.390289
#
# Coordination Sequence:
#
# PCOD9378840 Si02
#       8
#     8   8   8   8   8   8   8   8
#     4   9  21  40  60  85 118 154 196 248 302 353
#     4   9  20  37  59  87 120 157 196 242 292 348
#     4  11  22  37  60  89 122 158 197 240 293 352
#     4  12  25  42  63  86 118 158 201 245 296 351
#     4  11  22  37  58  88 123 157 197 243 291 348
#     4  10  19  33  55  85 117 154 193 234 291 350
#     4  11  24  42  61  85 117 154 202 252 299 352
#     4   9  18  34  55  83 119 156 193 233 283 344
#
# _framework density 19.008174
#
# number of rings (size 3 to 8) (size 9 to 14) (size 15 to 20)
#    0.000    1.750    1.250    3.000    1.750    3.000 
#    0.000    0.625    0.000    1.500    0.000    0.000 
#    0.000    0.000    0.000    0.000    0.000    0.000 
#
# Total GULP energy -178762.735420 kJ/mol
# GULP energy per Si atom -5586.335482 kJ/mol
# Density = 1.896491 g / cm^3
# Si number density = 19.008174 Si / 1000 Ang^3
#
#
#
# Elastic Constant Matrix: (Units=GPa)
#
#
# Indices 1 2 3 4 5 6 
#
# 1 27.3278 15.6186 -3.2370 0.0000 0.0000 0.0000
# 2 15.6186 113.1621 43.6746 0.0000 0.0000 0.0000
# 3 -3.2370 43.6746 67.1697 0.0001 0.0000 0.0000
# 4 0.0000 0.0000 0.0001 26.1588 0.0000 0.0000
# 5 0.0000 0.0000 0.0000 0.0000 13.5145 0.0000
# 6 0.0000 0.0000 0.0000 0.0000 0.0000 27.5118
#
#
#
# Elastic Compliance Matrix: (Units=1/GPa)
#
#
# Indices 1 2 3 4 5 6 
#
# 1 0.042615 -0.008910 0.007847 0.000000 0.000000 0.000000
# 2 -0.008910 0.013660 -0.009312 0.000000 0.000000 0.000000
# 3 0.007847 -0.009312 0.021320 0.000000 0.000000 0.000000
# 4 0.000000 0.000000 0.000000 0.038228 0.000000 0.000000
# 5 0.000000 0.000000 0.000000 0.000000 0.073995 0.000000
# 6 0.000000 0.000000 0.000000 0.000000 0.000000 0.036348
#
#
# Mechanical properties :
#
#
# Convention : Reuss Voigt Hill
#
# Bulk Modulus (GPa) = 17.59127 35.53022 26.56075
# Shear Modulus (GPa) = 18.80656 23.54391 21.17524
#
# Velocity S-wave (km/s) = 3.14887 3.52322 3.34130
# Velocity P-wave (km/s) = 4.74291 5.93999 5.37488
#
# Compressibility (1/GPa) = 0.05684637
#
# Stress axis : x y z
#
# Youngs Moduli (GPa) = 23.46600 73.20390 46.90350
#
# Poissons Ratio (x) = 0.65227 -0.36807
# Poissons Ratio (y) = 0.20909 0.43675
# Poissons Ratio (z) = -0.18414 0.68165
#
# Static dielectric constant tensor:
#      x y z
#    x 1.656890 0.000000 0.000000 
#    y 0.000000 1.664320 0.000000 
#    z 0.000000 0.000000 1.644670 
# 
# From -- ./inp_files/14488.got.cif
#   From: 2010.05.17/outbox.cif.g08.bks.cpg/sg46_8_cif.got.tgz:14488.got - 2010.06.03 19:58:25.
