data_PCOD9378274
_publ_section_title
;
Structure prediction by ZEFSAII (Michael W. Deem and Ramdas Pophale) SiO2 
 PCOD9378274
Probable space group: I M A 2
;
_chemical_formula_sum "Si O2"
_cell_formula_units_Z 60
_cell_length_a 13.857793
_cell_length_b 24.062281
_cell_length_c 11.449187
_cell_angle_alpha 90.000000
_cell_angle_beta 90.000000
_cell_angle_gamma 90.000000
_cell_volume 3817.732655
_symmetry_space_group_name_H-M "I M A 2"
_symmetry_group_IT_number 46
_symmetry_cell_setting 'orthorhombic'
loop_
_space_group_symop_operation_xyz
x,y,z
-x,-y,z
1/2-x,y,z
1/2+x,-y,z
1/2+x,1/2+y,1/2+z
1/2-x,1/2-y,1/2+z
-x,1/2+y,1/2+z
x,1/2-y,1/2+z
loop_
_atom_site_type_symbol
_atom_site_label
_atom_site_fract_x
_atom_site_fract_y
_atom_site_fract_z
Si Si1 0.965570 0.364840 0.562830
Si Si2 0.139153 0.824188 0.835876
Si Si3 0.000000 0.500000 0.339833
Si Si4 0.640616 0.096030 0.420973
Si Si5 0.398160 0.973423 0.196855
Si Si6 0.641120 0.566490 0.516582
Si Si7 0.866399 0.197295 0.265850
Si Si8 0.636463 0.426729 0.174662
O O1 0.929430 0.348000 0.435619
O O2 0.913829 0.421257 0.609715
O O3 0.928098 0.318144 0.652019
O O4 0.078592 0.380643 0.559727
O O5 0.250000 0.827999 0.879295
O O6 0.119858 0.760346 0.805204
O O7 0.132413 0.863848 0.723512
O O8 0.929040 0.536911 0.421537
O O9 0.930204 0.463171 0.258950
O O10 0.750000 0.110358 0.454960
O O11 0.643025 0.051690 0.315826
O O12 0.601076 0.152633 0.364064
O O13 0.598606 0.073144 0.541416
O O14 0.500000 0.000000 0.230041
O O15 0.350846 0.022273 0.122479
O O16 0.750000 0.578576 0.475432
O O17 0.750000 0.188898 0.244683
O O18 0.750000 0.444606 0.181110
#
# Coordination Sequence:
#
# PCOD9378274 Si02
#       8
#     8   8   4   8   8   8   8   8
#     4  10  18  33  48  76 104 130 169 207 258 299
#     4  10  19  31  50  74 102 134 165 202 251 305
#     4  12  20  36  48  76 100 136 170 204 256 300
#     4   9  18  31  45  70 102 131 163 199 247 301
#     4   9  17  31  50  75  98 130 167 206 256 301
#     4  11  20  33  54  76 101 129 172 218 256 306
#     4   9  19  31  51  76 102 134 165 204 250 305
#     4  10  21  33  48  72 105 136 165 202 249 308
#
# _framework density 15.716135
#
# number of rings (size 3 to 8) (size 9 to 14) (size 15 to 20)
#    0.000    2.133    3.333    1.200    2.800    2.667 
#    0.000    0.000    0.000    0.800    0.000    0.000 
#    0.000    0.000    0.000    0.000    0.000    0.000 
#
# Total GULP energy -167001.879154 kJ/mol
# GULP energy per Si atom -5566.729305 kJ/mol
# Density = 1.568036 g / cm^3
# Si number density = 15.716135 Si / 1000 Ang^3
#
#
#
# Elastic Constant Matrix: (Units=GPa)
#
#
# Indices 1 2 3 4 5 6 
#
# 1 88.9800 33.3790 39.4145 0.0000 0.0000 0.0000
# 2 33.3790 71.1745 35.1006 0.0000 0.0000 0.0000
# 3 39.4145 35.1006 98.8828 0.0001 0.0001 0.0000
# 4 0.0000 0.0000 0.0001 15.8650 0.0000 0.0000
# 5 0.0000 0.0000 0.0001 0.0000 10.7412 0.0000
# 6 0.0000 0.0000 0.0000 0.0000 0.0000 11.0941
#
#
#
# Elastic Compliance Matrix: (Units=1/GPa)
#
#
# Indices 1 2 3 4 5 6 
#
# 1 0.014955 -0.004938 -0.004208 0.000000 0.000000 0.000000
# 2 -0.004938 0.018662 -0.004656 0.000000 0.000000 0.000000
# 3 -0.004208 -0.004656 0.013443 0.000000 0.000000 0.000000
# 4 0.000000 0.000000 0.000000 0.063032 0.000000 0.000000
# 5 0.000000 0.000000 0.000000 0.000000 0.093100 0.000000
# 6 0.000000 0.000000 0.000000 0.000000 0.000000 0.090138
#
#
# Mechanical properties :
#
#
# Convention : Reuss Voigt Hill
#
# Bulk Modulus (GPa) = 51.39997 52.75839 52.07918
# Shear Modulus (GPa) = 15.27090 17.61626 16.44358
#
# Velocity S-wave (km/s) = 3.12054 3.35162 3.23814
# Velocity P-wave (km/s) = 6.76461 6.97282 6.86951
#
# Compressibility (1/GPa) = 0.01945526
#
# Stress axis : x y z
#
# Youngs Moduli (GPa) = 66.86744 53.58452 74.38748
#
# Poissons Ratio (x) = 0.26461 0.31303
# Poissons Ratio (y) = 0.33021 0.34636
# Poissons Ratio (z) = 0.28138 0.24950
#
# Static dielectric constant tensor:
#      x y z
#    x 1.550950 0.000000 0.000000 
#    y 0.000000 1.520430 0.000000 
#    z 0.000000 0.000000 1.553860 
# 
# From -- ./inp_files/11432.got.cif
#   From: 2010.05.17/outbox.cif.g08.bks.cpg/sg46_6_cif.got.tgz:11432.got - 2010.06.03 19:58:25.
