data_PCOD9378276
_publ_section_title
;
Structure prediction by ZEFSAII (Michael W. Deem and Ramdas Pophale) SiO2 
 PCOD9378276
Probable space group: I M A 2
;
_chemical_formula_sum "Si O2"
_cell_formula_units_Z 32
_cell_length_a 5.544101
_cell_length_b 17.377313
_cell_length_c 12.908910
_cell_angle_alpha 90.000000
_cell_angle_beta 90.000000
_cell_angle_gamma 90.000000
_cell_volume 1243.664765
_symmetry_space_group_name_H-M "I M A 2"
_symmetry_group_IT_number 46
_symmetry_cell_setting 'orthorhombic'
loop_
_space_group_symop_operation_xyz
x,y,z
-x,-y,z
1/2-x,y,z
1/2+x,-y,z
1/2+x,1/2+y,1/2+z
1/2-x,1/2-y,1/2+z
-x,1/2+y,1/2+z
x,1/2-y,1/2+z
loop_
_atom_site_type_symbol
_atom_site_label
_atom_site_fract_x
_atom_site_fract_y
_atom_site_fract_z
Si Si1 0.250000 0.633403 0.473341
Si Si2 0.750000 0.091437 0.551457
Si Si3 0.750000 0.963294 0.242356
Si Si4 0.250000 0.281208 0.767500
Si Si5 0.750000 0.570846 0.975309
Si Si6 0.250000 0.016914 0.846504
Si Si7 0.250000 0.798781 0.740547
Si Si8 0.250000 0.178324 0.961371
O O1 0.250000 0.542125 0.446207
O O2 0.250000 0.671079 0.358431
O O3 0.499536 0.663596 0.521037
O O4 0.502853 0.113530 0.491860
O O5 0.750000 0.132338 0.660279
O O6 0.750000 0.999070 0.557107
O O7 0.750000 0.871232 0.243701
O O8 0.750000 0.975047 0.366980
O O9 0.500000 0.000000 0.200700
O O10 0.500045 0.246295 0.726616
O O11 0.250000 0.253528 0.889099
O O12 0.250000 0.104856 0.882238
O O13 0.500000 0.000000 0.791388
#
# Coordination Sequence:
#
# PCOD9378276 Si02
#       8
#     4   4   4   4   4   4   4   4
#     4   8  14  23  35  53  82 125 164 191 225 307
#     4  10  18  33  51  73 113 140 189 244 262 340
#     4  12  21  38  60  77 106 145 210 257 272 332
#     4  10  21  33  49  73 102 145 182 225 304 343
#     4  10  19  35  50  81 103 147 211 231 266 308
#     4   8  12  20  31  46  70 109 149 187 207 272
#     4  10  19  33  45  73 110 144 176 222 296 353
#     4   8  14  25  35  52  84 113 159 201 240 309
#
# _framework density 25.730408000000001
#
# number of rings (size 3 to 8) (size 9 to 14) (size 15 to 20)
#    0.000    2.500    2.500    1.500    0.000    0.000 
#   22.500    0.000    0.000    0.000    0.000    0.000 
#    0.000    0.000    0.000  112.500    9.000    0.000 
#
# Total GULP energy -89422.698640 kJ/mol
# GULP energy per Si atom -5588.918665 kJ/mol
# Density = 2.567184 g / cm^3
# Si number density = 25.730408 Si / 1000 Ang^3
#
#
#
# Elastic Constant Matrix: (Units=GPa)
#
#
# Indices 1 2 3 4 5 6 
#
# 1 306.0756 60.9744 21.4535 0.0000 0.0000 0.0000
# 2 60.9744 141.6523 39.0067 -0.0001 0.0000 0.0000
# 3 21.4535 39.0067 34.5149 0.0000 0.0000 0.0000
# 4 0.0000 -0.0001 0.0000 21.0066 0.0000 0.0000
# 5 0.0000 0.0000 0.0000 0.0000 47.4110 0.0000
# 6 0.0000 0.0000 0.0000 0.0000 0.0000 220.8333
#
#
#
# Elastic Compliance Matrix: (Units=1/GPa)
#
#
# Indices 1 2 3 4 5 6 
#
# 1 0.003585 -0.001350 -0.000703 0.000000 0.000000 0.000000
# 2 -0.001350 0.010757 -0.011318 0.000000 0.000000 0.000000
# 3 -0.000703 -0.011318 0.042201 0.000000 0.000000 0.000000
# 4 0.000000 0.000000 0.000000 0.047604 0.000000 0.000000
# 5 0.000000 0.000000 0.000000 0.000000 0.021092 0.000000
# 6 0.000000 0.000000 0.000000 0.000000 0.000000 0.004528
#
#
# Mechanical properties :
#
#
# Convention : Reuss Voigt Hill
#
# Bulk Modulus (GPa) = 33.55529 80.56801 57.06165
# Shear Modulus (GPa) = 30.04006 81.90406 55.97206
#
# Velocity S-wave (km/s) = 3.42057 5.64807 4.66910
# Velocity P-wave (km/s) = 5.35442 8.59736 7.16186
#
# Compressibility (1/GPa) = 0.02980156
#
# Stress axis : x y z
#
# Youngs Moduli (GPa) = 278.91443 92.96108 23.69596
#
# Poissons Ratio (x) = 0.12547 0.01666
# Poissons Ratio (y) = 0.37644 0.26820
# Poissons Ratio (z) = 0.19614 1.05215
#
# Static dielectric constant tensor:
#      x y z
#    x 2.110250 0.000000 0.000000 
#    y 0.000000 2.000190 0.000000 
#    z 0.000000 0.000000 1.973150 
# 
# From -- ./inp_files/13312.got.cif
#   From: 2010.05.17/outbox.cif.g08.bks.cpg/sg46_7_cif.got.tgz:13312.got - 2010.06.03 19:58:25.
