data_PCOD9378857
_publ_section_title
;
Structure prediction by ZEFSAII (Michael W. Deem and Ramdas Pophale) SiO2 
 PCOD9378857
Probable space group: I M A 2
;
_chemical_formula_sum "Si O2"
_cell_formula_units_Z 64
_cell_length_a 15.033267
_cell_length_b 11.033476
_cell_length_c 15.010532
_cell_angle_alpha 90.000000
_cell_angle_beta 90.000000
_cell_angle_gamma 90.000000
_cell_volume 2489.784794
_symmetry_space_group_name_H-M "I M A 2"
_symmetry_group_IT_number 46
_symmetry_cell_setting 'orthorhombic'
loop_
_space_group_symop_operation_xyz
x,y,z
-x,-y,z
1/2-x,y,z
1/2+x,-y,z
1/2+x,1/2+y,1/2+z
1/2-x,1/2-y,1/2+z
-x,1/2+y,1/2+z
x,1/2-y,1/2+z
loop_
_atom_site_type_symbol
_atom_site_label
_atom_site_fract_x
_atom_site_fract_y
_atom_site_fract_z
Si Si1 0.919946 0.248978 0.090570
Si Si2 0.356270 0.899793 0.239393
Si Si3 0.355019 0.103994 0.870221
Si Si4 0.898247 0.606867 0.037829
Si Si5 0.145520 0.631505 0.928687
Si Si6 0.644203 0.822704 0.248218
Si Si7 0.348034 0.354455 0.549099
Si Si8 0.395682 0.967329 0.707108
O O1 0.910439 0.126039 0.147908
O O2 0.879153 0.336992 0.166556
O O3 0.007600 0.325983 0.058835
O O4 0.865336 0.259908 0.999759
O O5 0.250000 0.882246 0.222437
O O6 0.387498 0.833082 0.330050
O O7 0.368065 0.038388 0.273813
O O8 0.250000 0.122922 0.885794
O O9 0.392971 0.218323 0.812723
O O10 0.361051 0.991917 0.803974
O O11 0.396081 0.079752 0.967612
O O12 0.842013 0.719931 0.005727
O O13 0.859531 0.558447 0.131516
O O14 0.896162 0.491707 0.972576
O O15 0.250000 0.603952 0.919955
O O16 0.750000 0.797355 0.244108
O O17 0.611599 0.828750 0.145824
O O18 0.250000 0.407149 0.567187
O O19 0.500000 0.000000 0.709482
#
# Coordination Sequence:
#
# PCOD9378857 Si02
#       8
#     8   8   8   8   8   8   8   8
#     4  10  22  40  58  88 129 164 203 258 321 388
#     4  10  21  40  62  89 127 167 210 260 319 390
#     4  10  19  33  57  89 115 148 201 258 318 372
#     4  10  19  37  60  87 122 158 201 262 314 372
#     4  10  20  37  65  94 117 164 226 268 312 375
#     4   9  18  34  56  83 117 150 189 253 311 360
#     4  10  19  33  56  87 116 148 195 253 319 373
#     4   9  19  36  57  76 116 155 198 250 309 369
#
# _framework density 25.705033
#
# number of rings (size 3 to 8) (size 9 to 14) (size 15 to 20)
#    0.000    2.250    1.250    2.625    0.000    4.500 
#    6.750    1.875    0.000    0.000    0.000    0.000 
#    0.000    0.000    0.000    0.000    0.000    0.000 
#
# Total GULP energy -178335.486078 kJ/mol
# GULP energy per Si atom -5572.983940 kJ/mol
# Density = 2.564653 g / cm^3
# Si number density = 25.705033 Si / 1000 Ang^3
#
#
#
# Elastic Constant Matrix: (Units=GPa)
#
#
# Indices 1 2 3 4 5 6 
#
# 1 69.9897 6.8344 14.9624 0.0000 0.0000 0.0000
# 2 6.8344 29.0902 -1.7042 0.0000 0.0000 0.0000
# 3 14.9624 -1.7042 170.9175 0.0000 0.0000 0.0000
# 4 0.0000 0.0000 0.0000 33.7815 0.0000 0.0000
# 5 0.0000 0.0000 0.0000 0.0000 100.5206 0.0000
# 6 0.0000 0.0000 0.0000 0.0000 0.0000 21.8597
#
#
#
# Elastic Compliance Matrix: (Units=1/GPa)
#
#
# Indices 1 2 3 4 5 6 
#
# 1 0.014925 -0.003585 -0.001342 0.000000 0.000000 0.000000
# 2 -0.003585 0.035257 0.000665 0.000000 0.000000 0.000000
# 3 -0.001342 0.000665 0.005975 0.000000 0.000000 0.000000
# 4 0.000000 0.000000 0.000000 0.029602 0.000000 0.000000
# 5 0.000000 0.000000 0.000000 0.000000 0.009948 0.000000
# 6 0.000000 0.000000 0.000000 0.000000 0.000000 0.045746
#
#
# Mechanical properties :
#
#
# Convention : Reuss Voigt Hill
#
# Bulk Modulus (GPa) = 20.99385 34.46473 27.72929
# Shear Modulus (GPa) = 30.14683 47.89268 39.01975
#
# Velocity S-wave (km/s) = 3.42833 4.32112 3.90035
# Velocity P-wave (km/s) = 4.88428 6.19136 5.57625
#
# Compressibility (1/GPa) = 0.04763300
#
# Stress axis : x y z
#
# Youngs Moduli (GPa) = 67.00240 28.36305 167.36633
#
# Poissons Ratio (x) = 0.10168 0.22466
# Poissons Ratio (y) = 0.24021 -0.11136
# Poissons Ratio (z) = 0.08994 -0.01887
#
# Static dielectric constant tensor:
#      x y z
#    x 2.097710 0.000000 0.000000 
#    y 0.000000 2.131730 0.000000 
#    z 0.000000 0.000000 2.122910 
# 
# From -- ./inp_files/16791.got.cif
#   From: 2010.05.17/outbox.cif.g08.bks.cpg/sg46_9_cif.got.tgz:16791.got - 2010.06.03 19:58:25.
