data_PCOD9378501
_publ_section_title
;
Structure prediction by ZEFSAII (Michael W. Deem and Ramdas Pophale) SiO2 
 PCOD9378501
Probable space group: I M A 2
;
_chemical_formula_sum "Si O2"
_cell_formula_units_Z 48
_cell_length_a 20.696567
_cell_length_b 23.992588
_cell_length_c 5.266519
_cell_angle_alpha 90.000000
_cell_angle_beta 90.000000
_cell_angle_gamma 90.000000
_cell_volume 2615.164821
_symmetry_space_group_name_H-M "I M A 2"
_symmetry_group_IT_number 46
_symmetry_cell_setting 'orthorhombic'
loop_
_space_group_symop_operation_xyz
x,y,z
-x,-y,z
1/2-x,y,z
1/2+x,-y,z
1/2+x,1/2+y,1/2+z
1/2-x,1/2-y,1/2+z
-x,1/2+y,1/2+z
x,1/2-y,1/2+z
loop_
_atom_site_type_symbol
_atom_site_label
_atom_site_fract_x
_atom_site_fract_y
_atom_site_fract_z
Si Si1 0.322713 0.462244 0.534060
Si Si2 0.363927 0.100401 0.538479
Si Si3 0.485510 0.603507 0.020495
Si Si4 0.641479 0.728403 0.202656
Si Si5 0.557698 0.455788 0.509783
Si Si6 0.505840 0.271284 0.815360
O O1 0.250000 0.482562 0.574263
O O2 0.328101 0.430784 0.265764
O O3 0.375319 0.511176 0.523346
O O4 0.340346 0.419937 0.763711
O O5 0.439871 0.085839 0.555587
O O6 0.357872 0.166182 0.593743
O O7 0.455725 0.571938 0.780997
O O8 0.489555 0.668142 0.939645
O O9 0.448383 0.587959 0.278271
O O10 0.671182 0.733345 0.482311
O O11 0.568105 0.750943 0.259025
O O12 0.500000 0.500000 0.466061
O O13 0.534814 0.268642 0.532879
#
# Coordination Sequence:
#
# PCOD9378501 Si02
#       6
#     8   8   8   8   8   8
#     4  12  27  43  59  80 116 161 203 247 294 349
#     4  12  21  37  63  84 112 157 199 236 290 353
#     4  12  21  34  58  93 116 146 191 240 296 349
#     4  10  19  30  53  86 112 154 185 232 294 333
#     4  12  23  37  59  86 116 145 195 252 297 348
#     4  10  19  30  50  84 122 153 169 225 297 344
#
# _framework density 18.354482000000001
#
# number of rings (size 3 to 8) (size 9 to 14) (size 15 to 20)
#    0.000    0.667    6.667    4.000    4.667    0.000 
#    0.000    0.000    0.000   10.000    0.000    0.000 
#    0.000   13.333    0.000    0.000    0.000    0.000 
#
# Total GULP energy -133946.559252 kJ/mol
# GULP energy per Si atom -5581.106636 kJ/mol
# Density = 1.831271 g / cm^3
# Si number density = 18.354482 Si / 1000 Ang^3
#
#
#
# Elastic Constant Matrix: (Units=GPa)
#
#
# Indices 1 2 3 4 5 6 
#
# 1 93.3527 45.8178 24.0993 0.0000 0.0000 0.0000
# 2 45.8178 70.1702 23.7530 0.0000 0.0000 0.0000
# 3 24.0993 23.7530 150.1347 0.0000 0.0000 0.0000
# 4 0.0000 0.0000 0.0000 42.9921 0.0000 0.0000
# 5 0.0000 0.0000 0.0000 0.0000 -7.4809 0.0000
# 6 0.0000 0.0000 0.0000 0.0000 0.0000 -2.5843
#
#
#
# Elastic Compliance Matrix: (Units=1/GPa)
#
#
# Indices 1 2 3 4 5 6 
#
# 1 0.015894 -0.010053 -0.000961 0.000000 0.000000 0.000000
# 2 -0.010053 0.021416 -0.001775 0.000000 0.000000 0.000000
# 3 -0.000961 -0.001775 0.007096 0.000000 0.000000 0.000000
# 4 0.000000 0.000000 0.000000 0.023260 0.000000 0.000000
# 5 0.000000 0.000000 0.000000 0.000000 -0.133674 0.000000
# 6 0.000000 0.000000 0.000000 0.000000 0.000000 -0.386945
#
#
# Mechanical properties :
#
#
# Convention : Reuss Voigt Hill
#
# Bulk Modulus (GPa) = 53.10926 55.66644 54.38785
# Shear Modulus (GPa) = -11.87366 21.25119 4.68876
#
# Velocity S-wave (km/s) = -2.54620 3.40637 1.60003
# Velocity P-wave (km/s) = 4.51154 6.77241 5.75410
#
# Compressibility (1/GPa) = 0.01882911
#
# Stress axis : x y z
#
# Youngs Moduli (GPa) = 62.91655 46.69454 140.93100
#
# Poissons Ratio (x) = 0.46941 0.13541
# Poissons Ratio (y) = 0.63249 0.25009
# Poissons Ratio (z) = 0.06045 0.08286
#
# Static dielectric constant tensor:
#      x y z
#    x 1.677180 0.000000 0.000000 
#    y 0.000000 1.668040 0.000000 
#    z 0.000000 0.000000 1.719120 
# 
# From -- ./inp_files/2055.got.cif
#   From: 2010.05.17/outbox.cif.g08.bks.cpg/sg46_2_cif.got.tgz:2055.got - 2010.06.03 19:58:25.
