data_PCOD9378140
_publ_section_title
;
Structure prediction by ZEFSAII (Michael W. Deem and Ramdas Pophale) SiO2 
 PCOD9378140
Probable space group: I M A 2
;
_chemical_formula_sum "Si O2"
_cell_formula_units_Z 64
_cell_length_a 11.522161
_cell_length_b 30.927576
_cell_length_c 10.133159
_cell_angle_alpha 90.000000
_cell_angle_beta 90.000000
_cell_angle_gamma 90.000000
_cell_volume 3610.976644
_symmetry_space_group_name_H-M "I M A 2"
_symmetry_group_IT_number 46
_symmetry_cell_setting 'orthorhombic'
loop_
_space_group_symop_operation_xyz
x,y,z
-x,-y,z
1/2-x,y,z
1/2+x,-y,z
1/2+x,1/2+y,1/2+z
1/2-x,1/2-y,1/2+z
-x,1/2+y,1/2+z
x,1/2-y,1/2+z
loop_
_atom_site_type_symbol
_atom_site_label
_atom_site_fract_x
_atom_site_fract_y
_atom_site_fract_z
Si Si1 0.388274 0.161911 0.675590
Si Si2 0.387166 0.161685 0.975214
Si Si3 0.118183 0.786337 0.279091
Si Si4 0.985551 0.745869 0.039455
Si Si5 0.880975 0.473661 0.741025
Si Si6 0.119398 0.101333 0.449393
Si Si7 0.875826 0.502191 0.036013
Si Si8 0.038232 0.880445 0.199858
O O1 0.250000 0.156678 0.684872
O O2 0.430303 0.157103 0.824763
O O3 0.416391 0.207909 0.611966
O O4 0.434181 0.126179 0.574026
O O5 0.250000 0.151688 0.985861
O O6 0.407915 0.211873 0.012705
O O7 0.464172 0.132618 0.071832
O O8 0.250000 0.776332 0.314359
O O9 0.081145 0.761346 0.145909
O O10 0.037595 0.771986 0.401961
O O11 0.105329 0.837261 0.245512
O O12 0.750000 0.491225 0.707575
O O13 0.883261 0.473616 0.902068
O O14 0.891142 0.424954 0.686447
O O15 0.000000 0.500000 0.703211
O O16 0.250000 0.118376 0.429379
O O17 0.127995 0.051181 0.483485
O O18 0.049813 0.109303 0.318089
O O19 0.750000 0.493192 0.100937
O O20 0.000000 0.500000 0.109296
#
# Coordination Sequence:
#
# PCOD9378140 Si02
#       8
#     8   8   8   8   8   8   8   8
#     4  10  20  35  54  79 112 145 179 226 283 339
#     4  10  22  36  53  79 112 149 185 230 288 343
#     4  11  23  36  53  75 105 145 189 235 280 336
#     4  11  20  37  55  75 105 140 189 234 284 333
#     4  10  19  32  54  85 119 148 180 234 290 341
#     4  10  18  30  52  82 109 138 177 223 276 331
#     4   9  16  28  48  79 110 138 170 219 275 323
#     4  11  20  34  54  82 111 143 186 233 277 340
#
# _framework density 17.723738000000001
#
# number of rings (size 3 to 8) (size 9 to 14) (size 15 to 20)
#    0.000    1.750    5.000    1.500    0.000    0.500 
#    0.000    0.000    0.000    0.750    0.000    1.750 
#    0.000    0.000    0.000    0.000    0.000    0.000 
#
# Total GULP energy -178202.934824 kJ/mol
# GULP energy per Si atom -5568.841713 kJ/mol
# Density = 1.768340 g / cm^3
# Si number density = 17.723738 Si / 1000 Ang^3
#
#
#
# Elastic Constant Matrix: (Units=GPa)
#
#
# Indices 1 2 3 4 5 6 
#
# 1 88.4132 4.1026 21.2330 0.0001 0.0004 0.0000
# 2 4.1026 59.1648 18.9772 -0.0006 0.0004 0.0003
# 3 21.2330 18.9772 78.3387 0.0001 0.0025 -0.0007
# 4 0.0001 -0.0006 0.0001 8.4542 0.0001 0.0000
# 5 0.0004 0.0004 0.0025 0.0001 7.2866 0.0004
# 6 0.0000 0.0003 -0.0007 0.0000 0.0004 13.8637
#
#
#
# Elastic Compliance Matrix: (Units=1/GPa)
#
#
# Indices 1 2 3 4 5 6 
#
# 1 0.012101 0.000231 -0.003336 0.000000 0.000001 0.000000
# 2 0.000231 0.018330 -0.004503 0.000001 0.000001 -0.000001
# 3 -0.003336 -0.004503 0.014760 0.000000 -0.000005 0.000001
# 4 0.000000 0.000001 0.000000 0.118284 -0.000001 0.000000
# 5 0.000001 0.000001 -0.000005 -0.000001 0.137238 -0.000004
# 6 0.000000 -0.000001 0.000001 0.000000 -0.000004 0.072131
#
#
# Mechanical properties :
#
#
# Convention : Reuss Voigt Hill
#
# Bulk Modulus (GPa) = 33.36068 34.94914 34.15491
# Shear Modulus (GPa) = 12.56118 18.02783 15.29450
#
# Velocity S-wave (km/s) = 2.66507 3.19275 2.94077
# Velocity P-wave (km/s) = 5.32293 5.77522 5.55368
#
# Compressibility (1/GPa) = 0.02997541
#
# Stress axis : x y z
#
# Youngs Moduli (GPa) = 82.63834 54.55451 67.75045
#
# Poissons Ratio (x) = -0.01259 0.22600
# Poissons Ratio (y) = -0.01908 0.30508
# Poissons Ratio (z) = 0.27566 0.24566
#
# Static dielectric constant tensor:
#      x y z
#    x 1.656260 0.000000 0.000000 
#    y 0.000000 1.616150 0.000000 
#    z 0.000000 0.000000 1.578580 
# 
# From -- ./inp_files/4999.got.cif
#   From: 2010.05.17/outbox.cif.g08.bks.cpg/sg46_3_cif.got.tgz:4999.got - 2010.06.03 19:58:25.
