data_PCOD9378355
_publ_section_title
;
Structure prediction by ZEFSAII (Michael W. Deem and Ramdas Pophale) SiO2 
 PCOD9378355
Probable space group: I M A 2
;
_chemical_formula_sum "Si O2"
_cell_formula_units_Z 48
_cell_length_a 22.323497
_cell_length_b 15.137896
_cell_length_c 7.924990
_cell_angle_alpha 90.000000
_cell_angle_beta 90.000000
_cell_angle_gamma 90.000000
_cell_volume 2678.098020
_symmetry_space_group_name_H-M "I M A 2"
_symmetry_group_IT_number 46
_symmetry_cell_setting 'orthorhombic'
loop_
_space_group_symop_operation_xyz
x,y,z
-x,-y,z
1/2-x,y,z
1/2+x,-y,z
1/2+x,1/2+y,1/2+z
1/2-x,1/2-y,1/2+z
-x,1/2+y,1/2+z
x,1/2-y,1/2+z
loop_
_atom_site_type_symbol
_atom_site_label
_atom_site_fract_x
_atom_site_fract_y
_atom_site_fract_z
Si Si1 0.750000 0.217233 0.266621
Si Si2 0.877191 0.038729 0.539307
Si Si3 0.534865 0.342325 0.206326
Si Si4 0.008233 0.602755 0.546660
Si Si5 0.118301 0.829296 0.219856
Si Si6 0.537943 0.907234 0.403219
Si Si7 0.750000 0.105387 0.614938
O O1 0.812483 0.188379 0.180926
O O2 0.750000 0.169533 0.448681
O O3 0.750000 0.323652 0.266245
O O4 0.924199 0.070009 0.681300
O O5 0.883717 0.114268 0.392733
O O6 0.809948 0.047816 0.605205
O O7 0.897966 0.945381 0.461263
O O8 0.495573 0.348185 0.373655
O O9 0.581889 0.262605 0.226488
O O10 0.492531 0.344579 0.041994
O O11 0.078491 0.617864 0.587152
O O12 0.000000 0.500000 0.520269
O O13 0.971248 0.629293 0.714498
O O14 0.500000 0.000000 0.399648
#
# Coordination Sequence:
#
# PCOD9378355 Si02
#       7
#     4   8   8   8   8   8   4
#     4  10  22  30  44  72 104 141 173 201 239 298
#     4  10  18  35  49  69 104 137 174 212 249 304
#     4  11  20  30  50  73  94 136 172 207 254 302
#     4  11  20  32  51  67  95 137 170 211 260 291
#     4  11  20  34  48  72 106 138 173 209 246 302
#     4   9  18  35  47  66  97 129 168 217 251 295
#     4  10  20  32  50  70 104 147 173 211 249 304
#
# _framework density 17.923168
#
# number of rings (size 3 to 8) (size 9 to 14) (size 15 to 20)
#    0.000    1.667    6.667    2.500    2.333    0.000 
#    0.000    0.000    0.000    0.000    0.000    0.000 
#    0.000    2.667    0.000    0.167    0.000    0.667 
#
# Total GULP energy -133762.273603 kJ/mol
# GULP energy per Si atom -5573.428067 kJ/mol
# Density = 1.788237 g / cm^3
# Si number density = 17.923168 Si / 1000 Ang^3
#
#
#
# Elastic Constant Matrix: (Units=GPa)
#
#
# Indices 1 2 3 4 5 6 
#
# 1 96.1048 36.7857 30.1460 0.0000 0.0000 0.0000
# 2 36.7857 43.3829 30.0619 0.0000 0.0000 0.0000
# 3 30.1460 30.0619 97.1786 0.0000 0.0000 0.0000
# 4 0.0000 0.0000 0.0000 8.9019 0.0000 0.0000
# 5 0.0000 0.0000 0.0000 0.0000 13.9560 0.0000
# 6 0.0000 0.0000 0.0000 0.0000 0.0000 33.4758
#
#
#
# Elastic Compliance Matrix: (Units=1/GPa)
#
#
# Indices 1 2 3 4 5 6 
#
# 1 0.015473 -0.012466 -0.000944 0.000000 0.000000 0.000000
# 2 -0.012466 0.039383 -0.008316 0.000000 0.000000 0.000000
# 3 -0.000944 -0.008316 0.013156 0.000000 0.000000 0.000000
# 4 0.000000 0.000000 0.000000 0.112335 0.000000 0.000000
# 5 0.000000 0.000000 0.000000 0.000000 0.071654 0.000000
# 6 0.000000 0.000000 0.000000 0.000000 0.000000 0.029872
#
#
# Mechanical properties :
#
#
# Convention : Reuss Voigt Hill
#
# Bulk Modulus (GPa) = 40.71561 47.85037 44.28299
# Shear Modulus (GPa) = 14.99201 20.57827 17.78514
#
# Velocity S-wave (km/s) = 2.89530 3.39209 3.15350
# Velocity P-wave (km/s) = 5.82607 6.48824 6.16605
#
# Compressibility (1/GPa) = 0.02456061
#
# Stress axis : x y z
#
# Youngs Moduli (GPa) = 64.62927 25.39141 76.01360
#
# Poissons Ratio (x) = 0.31653 0.07172
# Poissons Ratio (y) = 0.80567 0.63213
# Poissons Ratio (z) = 0.06098 0.21115
#
# Static dielectric constant tensor:
#      x y z
#    x 1.623810 0.000000 0.000000 
#    y 0.000000 1.639470 0.000000 
#    z 0.000000 0.000000 1.705880 
# 
# From -- ./inp_files/7889.got.cif
#   From: 2010.05.17/outbox.cif.g08.bks.cpg/sg46_4_cif.got.tgz:7889.got - 2010.06.03 19:58:25.
