data_PCOD9378227
_publ_section_title
;
Structure prediction by ZEFSAII (Michael W. Deem and Ramdas Pophale) SiO2 
 PCOD9378227
Probable space group: I M A 2
;
_chemical_formula_sum "Si O2"
_cell_formula_units_Z 48
_cell_length_a 8.344817
_cell_length_b 13.656051
_cell_length_c 18.083850
_cell_angle_alpha 90.000000
_cell_angle_beta 90.000000
_cell_angle_gamma 90.000000
_cell_volume 2060.785753
_symmetry_space_group_name_H-M "I M A 2"
_symmetry_group_IT_number 46
_symmetry_cell_setting 'orthorhombic'
loop_
_space_group_symop_operation_xyz
x,y,z
-x,-y,z
1/2-x,y,z
1/2+x,-y,z
1/2+x,1/2+y,1/2+z
1/2-x,1/2-y,1/2+z
-x,1/2+y,1/2+z
x,1/2-y,1/2+z
loop_
_atom_site_type_symbol
_atom_site_label
_atom_site_fract_x
_atom_site_fract_y
_atom_site_fract_z
Si Si1 0.940503 0.186378 0.453070
Si Si2 0.061223 0.319831 0.794711
Si Si3 0.932094 0.866194 0.606842
Si Si4 0.934148 0.103524 0.761591
Si Si5 0.434571 0.662776 0.641832
Si Si6 0.941378 0.598203 0.493888
O O1 0.750000 0.190886 0.460080
O O2 0.991583 0.147625 0.373204
O O3 0.009026 0.125654 0.522786
O O4 0.008723 0.297740 0.458627
O O5 0.250000 0.335415 0.792230
O O6 0.025471 0.202487 0.785511
O O7 0.977606 0.370170 0.724057
O O8 0.750000 0.900379 0.615896
O O9 0.046180 0.902620 0.672204
O O10 0.942672 0.750059 0.622921
O O11 0.750000 0.116087 0.782218
O O12 0.000000 0.000000 0.789162
O O13 0.250000 0.697235 0.641818
O O14 0.461678 0.595701 0.571522
O O15 0.750000 0.597013 0.502699
O O16 0.000000 0.500000 0.453298
#
# Coordination Sequence:
#
# PCOD9378227 Si02
#       6
#     8   8   8   8   8   8
#     4  11  21  35  53  77 105 137 172 212 256 305
#     4  11  21  35  53  77 105 137 172 212 256 305
#     4  10  18  32  52  75 100 133 172 212 251 298
#     4  11  21  35  53  77 105 137 172 212 256 305
#     4  10  18  32  52  75 100 133 172 212 251 298
#     4  11  21  35  53  77 105 137 172 212 256 305
#
# _framework density 23.292086999999999
#
# number of rings (size 3 to 8) (size 9 to 14) (size 15 to 20)
#    0.000    1.333    0.000   13.000    0.000    0.667 
#    0.000    3.333    0.000    1.000    0.000    7.000 
#    0.000    0.000    0.000    0.000    0.000    0.000 
#
# Total GULP energy -134116.409031 kJ/mol
# GULP energy per Si atom -5588.183710 kJ/mol
# Density = 2.323907 g / cm^3
# Si number density = 23.292087 Si / 1000 Ang^3
#
#
#
# Elastic Constant Matrix: (Units=GPa)
#
#
# Indices 1 2 3 4 5 6 
#
# 1 166.1065 -10.3734 21.4570 0.0000 0.0000 0.0000
# 2 -10.3734 30.6837 -14.1745 0.0000 0.0000 0.0000
# 3 21.4570 -14.1745 172.7166 0.0000 0.0000 0.0000
# 4 0.0000 0.0000 0.0000 -4.1240 0.0000 0.0000
# 5 0.0000 0.0000 0.0000 0.0000 29.5426 0.0000
# 6 0.0000 0.0000 0.0000 0.0000 0.0000 19.8160
#
#
#
# Elastic Compliance Matrix: (Units=1/GPa)
#
#
# Indices 1 2 3 4 5 6 
#
# 1 0.006214 0.001813 -0.000623 0.000000 0.000000 0.000000
# 2 0.001813 0.034404 0.002598 0.000000 0.000000 0.000000
# 3 -0.000623 0.002598 0.006080 0.000000 0.000000 0.000000
# 4 0.000000 0.000000 0.000000 -0.242486 0.000000 0.000000
# 5 0.000000 0.000000 0.000000 0.000000 0.033849 0.000000
# 6 0.000000 0.000000 0.000000 0.000000 0.000000 0.050464
#
#
# Mechanical properties :
#
#
# Convention : Reuss Voigt Hill
#
# Bulk Modulus (GPa) = 18.42500 40.36943 29.39721
# Shear Modulus (GPa) = -49.52533 33.88677 -7.81928
#
# Velocity S-wave (km/s) = -4.61615 3.81840 -1.83421
# Velocity P-wave (km/s) = 4.52595 6.06710 2.85705
#
# Compressibility (1/GPa) = 0.05427408
#
# Stress axis : x y z
#
# Youngs Moduli (GPa) = 160.92819 29.06658 164.46060
#
# Poissons Ratio (x) = -0.05269 0.10249
# Poissons Ratio (y) = -0.29175 -0.42731
# Poissons Ratio (z) = 0.10029 -0.07552
#
# Static dielectric constant tensor:
#      x y z
#    x 1.848130 0.000000 0.000000 
#    y 0.000000 1.970910 0.000000 
#    z 0.000000 0.000000 1.930150 
# 
# From -- ./inp_files/18181.got.cif
#   From: 2010.05.17/outbox.cif.g08.bks.cpg/sg46_10_cif.got.tgz:18181.got - 2010.06.03 19:58:25.
