data_PCOD9378967
_publ_section_title
;
Structure prediction by ZEFSAII (Michael W. Deem and Ramdas Pophale) SiO2 
 PCOD9378967
Probable space group: I M A 2
;
_chemical_formula_sum "Si O2"
_cell_formula_units_Z 64
_cell_length_a 13.380310
_cell_length_b 17.808756
_cell_length_c 13.930311
_cell_angle_alpha 90.000000
_cell_angle_beta 90.000000
_cell_angle_gamma 90.000000
_cell_volume 3319.407504
_symmetry_space_group_name_H-M "I M A 2"
_symmetry_group_IT_number 46
_symmetry_cell_setting 'orthorhombic'
loop_
_space_group_symop_operation_xyz
x,y,z
-x,-y,z
1/2-x,y,z
1/2+x,-y,z
1/2+x,1/2+y,1/2+z
1/2-x,1/2-y,1/2+z
-x,1/2+y,1/2+z
x,1/2-y,1/2+z
loop_
_atom_site_type_symbol
_atom_site_label
_atom_site_fract_x
_atom_site_fract_y
_atom_site_fract_z
Si Si1 0.366915 0.658465 0.336870
Si Si2 0.368885 0.225664 0.358904
Si Si3 0.632102 0.193858 0.205360
Si Si4 0.365741 0.353846 0.198712
Si Si5 0.366323 0.974589 0.711591
Si Si6 0.996338 0.414167 0.826156
Si Si7 0.465910 0.888730 0.545740
Si Si8 0.034129 0.731798 0.513394
O O1 0.250000 0.648670 0.353701
O O2 0.378712 0.727633 0.262919
O O3 0.408257 0.583266 0.288904
O O4 0.415767 0.678520 0.436226
O O5 0.250000 0.220855 0.376242
O O6 0.386572 0.290948 0.278952
O O7 0.412936 0.146912 0.317581
O O8 0.430801 0.247221 0.456037
O O9 0.750000 0.186570 0.177849
O O10 0.596975 0.128390 0.277422
O O11 0.553047 0.195231 0.117217
O O12 0.250000 0.343566 0.167613
O O13 0.374410 0.438821 0.238081
O O14 0.441291 0.357048 0.109215
O O15 0.250000 0.957686 0.701640
O O16 0.413156 0.950685 0.610489
O O17 0.000000 0.500000 0.789347
O O18 0.988069 0.418938 0.941187
O O19 0.407096 0.811220 0.525100
#
# Coordination Sequence:
#
# PCOD9378967 Si02
#       8
#     8   8   8   8   8   8   8   8
#     4  10  19  34  58  88 121 158 195 249 312 375
#     4  10  22  41  64  89 123 168 214 256 311 376
#     4  11  22  39  62  89 122 162 205 257 315 375
#     4  10  21  38  60  88 120 156 200 254 306 363
#     4  10  20  33  56  91 123 150 191 245 312 373
#     4  11  24  42  60  85 123 164 209 260 310 375
#     4  11  20  34  56  87 120 156 195 242 310 367
#     4  11  21  37  61  85 124 158 208 252 307 369
#
# _framework density 19.280550000000002
#
# number of rings (size 3 to 8) (size 9 to 14) (size 15 to 20)
#    0.000    1.500    3.750    3.000    0.000    3.500 
#    0.000    1.875    0.000    1.500    0.000    0.000 
#    0.000    0.000    0.000    0.000    0.000    0.000 
#
# Total GULP energy -178289.035236 kJ/mol
# GULP energy per Si atom -5571.532351 kJ/mol
# Density = 1.923667 g / cm^3
# Si number density = 19.280550 Si / 1000 Ang^3
#
#
#
# Elastic Constant Matrix: (Units=GPa)
#
#
# Indices 1 2 3 4 5 6 
#
# 1 96.0941 17.2544 24.3409 0.0000 0.0000 0.0000
# 2 17.2544 124.8608 36.2388 0.0001 0.0000 0.0000
# 3 24.3409 36.2388 85.0995 0.0002 0.0000 0.0000
# 4 0.0000 0.0001 0.0002 24.9542 0.0000 0.0000
# 5 0.0000 0.0000 0.0000 0.0000 -19.1028 0.0000
# 6 0.0000 0.0000 0.0000 0.0000 0.0000 24.3214
#
#
#
# Elastic Compliance Matrix: (Units=1/GPa)
#
#
# Indices 1 2 3 4 5 6 
#
# 1 0.011274 -0.000710 -0.002922 0.000000 0.000000 0.000000
# 2 -0.000710 0.009183 -0.003707 0.000000 0.000000 0.000000
# 3 -0.002922 -0.003707 0.014166 0.000000 0.000000 0.000000
# 4 0.000000 0.000000 0.000000 0.040073 0.000000 0.000000
# 5 0.000000 0.000000 0.000000 0.000000 -0.052348 0.000000
# 6 0.000000 0.000000 0.000000 0.000000 0.000000 0.041116
#
#
# Mechanical properties :
#
#
# Convention : Reuss Voigt Hill
#
# Bulk Modulus (GPa) = 50.14192 51.30249 50.72221
# Shear Modulus (GPa) = 58.96844 21.24927 40.10886
#
# Velocity S-wave (km/s) = 5.53632 3.32340 4.56595
# Velocity P-wave (km/s) = 8.18112 6.43373 7.35947
#
# Compressibility (1/GPa) = 0.01994339
#
# Stress axis : x y z
#
# Youngs Moduli (GPa) = 88.69824 108.89644 70.59325
#
# Poissons Ratio (x) = 0.07729 0.20631
# Poissons Ratio (y) = 0.06295 0.26172
# Poissons Ratio (z) = 0.25922 0.40373
#
# Static dielectric constant tensor:
#      x y z
#    x 1.763710 0.000000 0.000000 
#    y 0.000000 1.711480 0.000000 
#    z 0.000000 0.000000 1.676870 
# 
# From -- ./inp_files/11354.got.cif
#   From: 2010.05.17/outbox.cif.g08.bks.cpg/sg46_6_cif.got.tgz:11354.got - 2010.06.03 19:58:25.
