data_PCOD9378374
_publ_section_title
;
Structure prediction by ZEFSAII (Michael W. Deem and Ramdas Pophale) SiO2 
 PCOD9378374
Probable space group: I M A 2
;
_chemical_formula_sum "Si O2"
_cell_formula_units_Z 64
_cell_length_a 8.622741
_cell_length_b 24.376436
_cell_length_c 15.929694
_cell_angle_alpha 90.000000
_cell_angle_beta 90.000000
_cell_angle_gamma 90.000000
_cell_volume 3348.289369
_symmetry_space_group_name_H-M "I M A 2"
_symmetry_group_IT_number 46
_symmetry_cell_setting 'orthorhombic'
loop_
_space_group_symop_operation_xyz
x,y,z
-x,-y,z
1/2-x,y,z
1/2+x,-y,z
1/2+x,1/2+y,1/2+z
1/2-x,1/2-y,1/2+z
-x,1/2+y,1/2+z
x,1/2-y,1/2+z
loop_
_atom_site_type_symbol
_atom_site_label
_atom_site_fract_x
_atom_site_fract_y
_atom_site_fract_z
Si Si1 0.562511 0.438699 0.785630
Si Si2 0.935743 0.369248 0.133145
Si Si3 0.933943 0.561185 0.287820
Si Si4 0.563897 0.130694 0.941675
Si Si5 0.061407 0.868637 0.446039
Si Si6 0.562953 0.250909 0.876029
Si Si7 0.937598 0.137728 0.129682
Si Si8 0.434052 0.246705 0.687989
O O1 0.500000 0.500000 0.781395
O O2 0.750000 0.439985 0.786495
O O3 0.509643 0.407861 0.870506
O O4 0.515406 0.402827 0.704704
O O5 0.750000 0.373369 0.137413
O O6 0.005720 0.406163 0.206500
O O7 0.983920 0.306426 0.149054
O O8 0.988996 0.385078 0.039299
O O9 0.750000 0.559182 0.285153
O O10 0.000000 0.500000 0.288803
O O11 0.987013 0.593795 0.370722
O O12 0.750000 0.124804 0.933750
O O13 0.526982 0.194637 0.924077
O O14 0.519301 0.116872 0.037056
O O15 0.250000 0.869565 0.446126
O O16 0.016517 0.805984 0.424921
O O17 0.750000 0.252999 0.863589
O O18 0.483654 0.249747 0.785448
O O19 0.750000 0.143274 0.132130
O O20 0.009041 0.197349 0.145429
O O21 0.250000 0.240818 0.680920
#
# Coordination Sequence:
#
# PCOD9378374 Si02
#       8
#     8   8   8   8   8   8   8   8
#     4  10  21  39  61  86 118 155 199 248 296 351
#     4  11  22  40  65  91 121 159 202 251 304 366
#     4  12  26  44  64  88 121 161 205 256 306 361
#     4  10  21  38  65  95 118 155 202 250 306 363
#     4   9  19  37  63  91 117 155 203 245 295 357
#     4  10  18  35  62  88 120 157 197 244 301 367
#     4  10  21  40  65  89 120 162 205 245 297 363
#     4  12  23  35  57  92 128 161 198 246 305 359
#
# _framework density 19.114238
#
# number of rings (size 3 to 8) (size 9 to 14) (size 15 to 20)
#    0.000    1.500    2.500    3.375    0.000    4.000 
#    0.000    6.250    0.000    0.000    0.000    0.000 
#    0.000    0.000    0.000    0.000    0.000    0.000 
#
# Total GULP energy -178855.132989 kJ/mol
# GULP energy per Si atom -5589.222906 kJ/mol
# Density = 1.907073 g / cm^3
# Si number density = 19.114238 Si / 1000 Ang^3
#
#
#
# Elastic Constant Matrix: (Units=GPa)
#
#
# Indices 1 2 3 4 5 6 
#
# 1 45.5619 45.3685 54.8643 0.0000 0.0000 0.0000
# 2 45.3685 148.8539 84.2244 0.0001 0.0000 0.0000
# 3 54.8643 84.2244 194.5202 0.0001 0.0001 0.0000
# 4 0.0000 0.0001 0.0001 -2.2357 0.0000 0.0000
# 5 0.0000 0.0000 0.0001 0.0000 8.0120 0.0000
# 6 0.0000 0.0000 0.0000 0.0000 0.0000 31.6338
#
#
#
# Elastic Compliance Matrix: (Units=1/GPa)
#
#
# Indices 1 2 3 4 5 6 
#
# 1 0.038564 -0.007416 -0.007666 0.000000 0.000000 0.000000
# 2 -0.007416 0.010324 -0.002378 0.000000 0.000000 0.000000
# 3 -0.007666 -0.002378 0.008333 0.000000 0.000000 0.000000
# 4 0.000000 0.000000 0.000000 -0.447292 -0.000001 0.000000
# 5 0.000000 0.000000 0.000000 -0.000001 0.124812 0.000000
# 6 0.000000 0.000000 0.000000 0.000000 0.000000 0.031612
#
#
# Mechanical properties :
#
#
# Convention : Reuss Voigt Hill
#
# Bulk Modulus (GPa) = 44.84344 84.20558 64.52451
# Shear Modulus (GPa) = -26.13793 21.11396 -2.51199
#
# Velocity S-wave (km/s) = -3.70193 3.32719 -1.14763
# Velocity P-wave (km/s) = 2.28896 7.67527 5.66344
#
# Compressibility (1/GPa) = 0.02229981
#
# Stress axis : x y z
#
# Youngs Moduli (GPa) = 25.93108 96.86041 120.00752
#
# Poissons Ratio (x) = 0.71834 0.91995
# Poissons Ratio (y) = 0.19231 0.28543
# Poissons Ratio (z) = 0.19878 0.23038
#
# Static dielectric constant tensor:
#      x y z
#    x 1.643730 0.000000 0.000000 
#    y 0.000000 1.632320 0.000000 
#    z 0.000000 0.000000 1.668280 
# 
# From -- ./inp_files/14516.got.cif
#   From: 2010.05.17/outbox.cif.g08.bks.cpg/sg46_8_cif.got.tgz:14516.got - 2010.06.03 19:58:25.
