data_PCOD9378299
_publ_section_title
;
Structure prediction by ZEFSAII (Michael W. Deem and Ramdas Pophale) SiO2 
 PCOD9378299
Probable space group: I M A 2
;
_chemical_formula_sum "Si O2"
_cell_formula_units_Z 40
_cell_length_a 21.363275
_cell_length_b 18.578930
_cell_length_c 5.013909
_cell_angle_alpha 90.000000
_cell_angle_beta 90.000000
_cell_angle_gamma 90.000000
_cell_volume 1990.054531
_symmetry_space_group_name_H-M "I M A 2"
_symmetry_group_IT_number 46
_symmetry_cell_setting 'orthorhombic'
loop_
_space_group_symop_operation_xyz
x,y,z
-x,-y,z
1/2-x,y,z
1/2+x,-y,z
1/2+x,1/2+y,1/2+z
1/2-x,1/2-y,1/2+z
-x,1/2+y,1/2+z
x,1/2-y,1/2+z
loop_
_atom_site_type_symbol
_atom_site_label
_atom_site_fract_x
_atom_site_fract_y
_atom_site_fract_z
Si Si1 0.462521 0.209215 0.552630
Si Si2 0.113155 0.526474 0.387717
Si Si3 0.436680 0.454492 0.906652
Si Si4 0.400959 0.671472 0.170836
Si Si5 0.321479 0.851263 0.139492
O O1 0.439535 0.268648 0.343453
O O2 0.447234 0.129723 0.451065
O O3 0.538231 0.213172 0.577193
O O4 0.115271 0.482645 0.115727
O O5 0.072906 0.598547 0.316324
O O6 0.172787 0.568793 0.507499
O O7 0.083422 0.476725 0.611141
O O8 0.500000 0.500000 0.961094
O O9 0.354385 0.697741 0.408041
O O10 0.361188 0.648183 0.911557
O O11 0.250000 0.831248 0.184082
#
# Coordination Sequence:
#
# PCOD9378299 Si02
#       5
#     8   8   8   8   8
#     4  12  25  38  54  81 117 155 190 227 272 330
#     4  10  19  32  53  83 103 139 181 226 277 321
#     4  12  20  34  57  78 108 144 189 222 276 337
#     4  10  20  36  51  81 104 154 178 226 280 318
#     4  10  18  33  57  83 109 138 182 241 290 314
#
# _framework density 20.099952999999999
#
# number of rings (size 3 to 8) (size 9 to 14) (size 15 to 20)
#    1.200    0.000    4.000    3.600    2.800    0.000 
#    0.000    0.000    0.000   12.000    0.000    0.000 
#    0.000   16.000    0.000    0.000    0.000    0.000 
#
# Total GULP energy -111490.159818 kJ/mol
# GULP energy per Si atom -5574.507991 kJ/mol
# Density = 2.005420 g / cm^3
# Si number density = 20.099953 Si / 1000 Ang^3
#
#
#
# Elastic Constant Matrix: (Units=GPa)
#
#
# Indices 1 2 3 4 5 6 
#
# 1 20.1130 5.3560 8.7903 0.0000 0.0000 0.0000
# 2 5.3560 93.8758 24.1531 0.0000 0.0000 0.0000
# 3 8.7903 24.1531 136.9036 0.0000 0.0000 0.0000
# 4 0.0000 0.0000 0.0000 30.8834 0.0000 0.0000
# 5 0.0000 0.0000 0.0000 0.0000 15.0976 0.0000
# 6 0.0000 0.0000 0.0000 0.0000 0.0000 13.4812
#
#
#
# Elastic Compliance Matrix: (Units=1/GPa)
#
#
# Indices 1 2 3 4 5 6 
#
# 1 0.051581 -0.002190 -0.002925 0.000000 0.000000 0.000000
# 2 -0.002190 0.011252 -0.001844 0.000000 0.000000 0.000000
# 3 -0.002925 -0.001844 0.007818 0.000000 0.000000 0.000000
# 4 0.000000 0.000000 0.000000 0.032380 0.000000 0.000000
# 5 0.000000 0.000000 0.000000 0.000000 0.066236 0.000000
# 6 0.000000 0.000000 0.000000 0.000000 0.000000 0.074177
#
#
# Mechanical properties :
#
#
# Convention : Reuss Voigt Hill
#
# Bulk Modulus (GPa) = 17.62730 36.38790 27.00760
# Shear Modulus (GPa) = 18.09799 26.06532 22.08165
#
# Velocity S-wave (km/s) = 3.00392 3.60500 3.31810
# Velocity P-wave (km/s) = 4.56292 5.95573 5.30523
#
# Compressibility (1/GPa) = 0.05673019
#
# Stress axis : x y z
#
# Youngs Moduli (GPa) = 19.38699 88.87389 127.91556
#
# Poissons Ratio (x) = 0.19465 0.37422
# Poissons Ratio (y) = 0.04246 0.23594
# Poissons Ratio (z) = 0.05672 0.16393
#
# Static dielectric constant tensor:
#      x y z
#    x 1.711630 0.000000 0.000000 
#    y 0.000000 1.796110 0.000000 
#    z 0.000000 0.000000 1.767180 
# 
# From -- ./inp_files/2303.got.cif
#   From: 2010.05.17/outbox.cif.g08.bks.cpg/sg46_2_cif.got.tgz:2303.got - 2010.06.03 19:58:25.
