data_PCOD9378816
_publ_section_title
;
Structure prediction by ZEFSAII (Michael W. Deem and Ramdas Pophale) SiO2 
 PCOD9378816
Probable space group: I M A 2
;
_chemical_formula_sum "Si O2"
_cell_formula_units_Z 64
_cell_length_a 8.575787
_cell_length_b 21.227567
_cell_length_c 20.076385
_cell_angle_alpha 90.000000
_cell_angle_beta 90.000000
_cell_angle_gamma 90.000000
_cell_volume 3654.767224
_symmetry_space_group_name_H-M "I M A 2"
_symmetry_group_IT_number 46
_symmetry_cell_setting 'orthorhombic'
loop_
_space_group_symop_operation_xyz
x,y,z
-x,-y,z
1/2-x,y,z
1/2+x,-y,z
1/2+x,1/2+y,1/2+z
1/2-x,1/2-y,1/2+z
-x,1/2+y,1/2+z
x,1/2-y,1/2+z
loop_
_atom_site_type_symbol
_atom_site_label
_atom_site_fract_x
_atom_site_fract_y
_atom_site_fract_z
Si Si1 0.562527 0.191244 0.851180
Si Si2 0.064281 0.741806 0.631596
Si Si3 0.437442 0.308865 0.765852
Si Si4 0.561849 0.566729 0.846552
Si Si5 0.562811 0.764390 0.988723
Si Si6 0.061059 0.116213 0.486943
Si Si7 0.937159 0.615982 0.134452
Si Si8 0.936091 0.433303 0.271378
O O1 0.750000 0.194701 0.849236
O O2 0.494207 0.249988 0.810025
O O3 0.503541 0.197484 0.926566
O O4 0.512687 0.126339 0.815725
O O5 0.250000 0.748737 0.632433
O O6 0.008492 0.699412 0.692789
O O7 0.007072 0.717208 0.560060
O O8 0.987894 0.810975 0.640968
O O9 0.250000 0.306955 0.762261
O O10 0.484731 0.373705 0.801736
O O11 0.500000 0.500000 0.822302
O O12 0.750000 0.565505 0.847766
O O13 0.504556 0.579108 0.922353
O O14 0.750000 0.768532 0.990546
O O15 0.521408 0.690221 0.978942
O O16 0.250000 0.113098 0.487066
O O17 0.008883 0.095057 0.560459
O O18 0.750000 0.612519 0.137119
O O19 0.007216 0.578517 0.195975
O O20 0.750000 0.434787 0.271706
O O21 0.000000 0.500000 0.295621
#
# Coordination Sequence:
#
# PCOD9378816 Si02
#       8
#     8   8   8   8   8   8   8   8
#     4  11  22  36  57  86 115 143 185 240 287 330
#     4  11  21  34  54  85 118 144 183 235 285 332
#     4  11  21  36  59  82 110 151 193 231 279 340
#     4  10  21  37  54  78 111 148 190 232 278 332
#     4  10  19  35  58  83 112 147 187 227 279 340
#     4   8  16  32  51  76 108 145 186 225 263 323
#     4  10  19  33  55  79 111 152 192 229 275 332
#     4  11  24  39  55  79 114 151 192 236 285 339
#
# _framework density 17.511375000000001
#
# number of rings (size 3 to 8) (size 9 to 14) (size 15 to 20)
#    0.000    1.750    2.500    3.750    0.000    3.000 
#    0.000    2.500    0.000    0.750    0.000    5.250 
#    0.000    0.000    0.000    0.000    0.000    0.000 
#
# Total GULP energy -178697.776526 kJ/mol
# GULP energy per Si atom -5584.305516 kJ/mol
# Density = 1.747152 g / cm^3
# Si number density = 17.511375 Si / 1000 Ang^3
#
#
#
# Elastic Constant Matrix: (Units=GPa)
#
#
# Indices 1 2 3 4 5 6 
#
# 1 36.9067 21.6813 21.3642 0.0000 0.0000 0.0000
# 2 21.6813 111.9210 60.8877 0.0000 0.0000 0.0000
# 3 21.3642 60.8877 120.1108 0.0000 0.0000 0.0000
# 4 0.0000 0.0000 0.0000 20.8522 0.0000 0.0000
# 5 0.0000 0.0000 0.0000 0.0000 12.1146 0.0000
# 6 0.0000 0.0000 0.0000 0.0000 0.0000 23.5665
#
#
#
# Elastic Compliance Matrix: (Units=1/GPa)
#
#
# Indices 1 2 3 4 5 6 
#
# 1 0.031592 -0.004229 -0.003475 0.000000 0.000000 0.000000
# 2 -0.004229 0.012903 -0.005789 0.000000 0.000000 0.000000
# 3 -0.003475 -0.005789 0.011878 0.000000 0.000000 0.000000
# 4 0.000000 0.000000 0.000000 0.047957 0.000000 0.000000
# 5 0.000000 0.000000 0.000000 0.000000 0.082545 0.000000
# 6 0.000000 0.000000 0.000000 0.000000 0.000000 0.042433
#
#
# Mechanical properties :
#
#
# Convention : Reuss Voigt Hill
#
# Bulk Modulus (GPa) = 34.02917 52.97831 43.50374
# Shear Modulus (GPa) = 18.79058 22.30700 20.54879
#
# Velocity S-wave (km/s) = 3.27930 3.57299 3.42929
# Velocity P-wave (km/s) = 5.81491 6.88048 6.37001
#
# Compressibility (1/GPa) = 0.02938656
#
# Stress axis : x y z
#
# Youngs Moduli (GPa) = 31.65398 77.49856 84.18680
#
# Poissons Ratio (x) = 0.32776 0.29257
# Poissons Ratio (y) = 0.13387 0.48735
# Poissons Ratio (z) = 0.11001 0.44863
#
# Static dielectric constant tensor:
#      x y z
#    x 1.588200 0.000000 0.000000 
#    y 0.000000 1.583290 0.000000 
#    z 0.000000 0.000000 1.609380 
# 
# From -- ./inp_files/18585.got.cif
#   From: 2010.05.17/outbox.cif.g08.bks.cpg/sg46_10_cif.got.tgz:18585.got - 2010.06.03 19:58:25.
