data_PCOD9378123
_publ_section_title
;
Structure prediction by ZEFSAII (Michael W. Deem and Ramdas Pophale) SiO2 
 PCOD9378123
Probable space group: I M A 2
;
_chemical_formula_sum "Si O2"
_cell_formula_units_Z 64
_cell_length_a 8.982627
_cell_length_b 19.028093
_cell_length_c 22.008119
_cell_angle_alpha 90.000000
_cell_angle_beta 90.000000
_cell_angle_gamma 90.000000
_cell_volume 3761.677481
_symmetry_space_group_name_H-M "I M A 2"
_symmetry_group_IT_number 46
_symmetry_cell_setting 'orthorhombic'
loop_
_space_group_symop_operation_xyz
x,y,z
-x,-y,z
1/2-x,y,z
1/2+x,-y,z
1/2+x,1/2+y,1/2+z
1/2-x,1/2-y,1/2+z
-x,1/2+y,1/2+z
x,1/2-y,1/2+z
loop_
_atom_site_type_symbol
_atom_site_label
_atom_site_fract_x
_atom_site_fract_y
_atom_site_fract_z
Si Si1 0.427732 0.781363 0.211860
Si Si2 0.926254 0.182917 0.422140
Si Si3 0.072301 0.630257 0.160986
Si Si4 0.574327 0.571124 0.281721
Si Si5 0.579346 0.572379 0.697869
Si Si6 0.920552 0.570277 0.844347
Si Si7 0.929683 0.424023 0.027535
Si Si8 0.926554 0.778809 0.835359
O O1 0.250000 0.788837 0.219617
O O2 0.457339 0.713657 0.169021
O O3 0.494659 0.854151 0.186574
O O4 0.500009 0.759817 0.276757
O O5 0.750000 0.193907 0.424909
O O6 0.973791 0.138889 0.481570
O O7 0.974254 0.131137 0.367937
O O8 0.007444 0.253062 0.399429
O O9 0.250000 0.620935 0.168267
O O10 0.029502 0.599635 0.095717
O O11 0.991470 0.590608 0.215728
O O12 0.500000 0.500000 0.304248
O O13 0.750000 0.561296 0.276059
O O14 0.546864 0.638887 0.323685
O O15 0.500000 0.500000 0.677265
O O16 0.750000 0.575116 0.676391
O O17 0.583541 0.568564 0.771558
O O18 0.750000 0.577254 0.866050
O O19 0.000000 0.500000 0.866372
O O20 0.750000 0.430307 0.023516
O O21 0.000000 0.500000 0.013751
O O22 0.750000 0.764149 0.833386
#
# Coordination Sequence:
#
# PCOD9378123 Si02
#       8
#     8   8   8   8   8   8   8   8
#     4  10  18  30  50  72  96 128 164 204 251 300
#     4  11  21  32  48  68  95 131 168 205 242 288
#     4   9  19  35  53  73 100 133 169 208 249 294
#     4  10  20  33  52  77 103 129 161 202 251 301
#     4  10  19  29  43  65  96 128 159 198 240 290
#     4  10  19  29  42  61  90 126 161 198 235 279
#     4  10  22  37  51  72 101 134 174 211 244 284
#     4  10  20  33  48  70  99 129 161 202 247 298
#
# _framework density 17.013686
#
# number of rings (size 3 to 8) (size 9 to 14) (size 15 to 20)
#    0.000    2.000    1.250    3.000    0.000    6.500 
#    0.000    0.000    0.000    0.000    0.000    0.875 
#    0.000    2.000    0.000    0.000    0.000    0.125 
#
# Total GULP energy -178423.621478 kJ/mol
# GULP energy per Si atom -5575.738171 kJ/mol
# Density = 1.697496 g / cm^3
# Si number density = 17.013686 Si / 1000 Ang^3
#
#
#
# Elastic Constant Matrix: (Units=GPa)
#
#
# Indices 1 2 3 4 5 6 
#
# 1 59.1892 56.0631 26.0421 0.0000 0.0000 0.0000
# 2 56.0631 116.8641 32.8011 0.0000 0.0000 0.0000
# 3 26.0421 32.8011 61.5483 0.0000 0.0000 0.0000
# 4 0.0000 0.0000 0.0000 26.6136 0.0000 0.0000
# 5 0.0000 0.0000 0.0000 0.0000 13.3443 0.0000
# 6 0.0000 0.0000 0.0000 0.0000 0.0000 30.5926
#
#
#
# Elastic Compliance Matrix: (Units=1/GPa)
#
#
# Indices 1 2 3 4 5 6 
#
# 1 0.033042 -0.014025 -0.006506 0.000000 0.000000 0.000000
# 2 -0.014025 0.016015 -0.002601 0.000000 0.000000 0.000000
# 3 -0.006506 -0.002601 0.020386 0.000000 0.000000 0.000000
# 4 0.000000 0.000000 0.000000 0.037575 0.000000 0.000000
# 5 0.000000 0.000000 0.000000 0.000000 0.074938 0.000000
# 6 0.000000 0.000000 0.000000 0.000000 0.000000 0.032688
#
#
# Mechanical properties :
#
#
# Convention : Reuss Voigt Hill
#
# Bulk Modulus (GPa) = 43.14180 51.93490 47.53835
# Shear Modulus (GPa) = 18.61268 22.28979 20.45123
#
# Velocity S-wave (km/s) = 3.31113 3.62347 3.47081
# Velocity P-wave (km/s) = 6.32695 6.93525 6.63807
#
# Compressibility (1/GPa) = 0.02317938
#
# Stress axis : x y z
#
# Youngs Moduli (GPa) = 30.26470 62.44101 49.05252
#
# Poissons Ratio (x) = 0.87573 0.31914
# Poissons Ratio (y) = 0.42446 0.12757
# Poissons Ratio (z) = 0.19691 0.16239
#
# Static dielectric constant tensor:
#      x y z
#    x 1.581350 0.000000 0.000000 
#    y 0.000000 1.567940 0.000000 
#    z 0.000000 0.000000 1.566180 
# 
# From -- ./inp_files/21289.got.cif
#   From: 2010.05.17/outbox.cif.g08.bks.cpg/sg46_11_cif.got.tgz:21289.got - 2010.06.03 19:58:25.
