data_PCOD9378132
_publ_section_title
;
Structure prediction by ZEFSAII (Michael W. Deem and Ramdas Pophale) SiO2 
 PCOD9378132
Probable space group: I M A 2
;
_chemical_formula_sum "Si O2"
_cell_formula_units_Z 48
_cell_length_a 14.212015
_cell_length_b 9.773903
_cell_length_c 13.688752
_cell_angle_alpha 90.000000
_cell_angle_beta 90.000000
_cell_angle_gamma 90.000000
_cell_volume 1901.461503
_symmetry_space_group_name_H-M "I M A 2"
_symmetry_group_IT_number 46
_symmetry_cell_setting 'orthorhombic'
loop_
_space_group_symop_operation_xyz
x,y,z
-x,-y,z
1/2-x,y,z
1/2+x,-y,z
1/2+x,1/2+y,1/2+z
1/2-x,1/2-y,1/2+z
-x,1/2+y,1/2+z
x,1/2-y,1/2+z
loop_
_atom_site_type_symbol
_atom_site_label
_atom_site_fract_x
_atom_site_fract_y
_atom_site_fract_z
Si Si1 0.383004 0.375527 0.207280
Si Si2 0.638850 0.537630 0.588134
Si Si3 0.146942 0.405433 0.801473
Si Si4 0.357881 0.739208 0.989575
Si Si5 0.062721 0.177902 0.507288
Si Si6 0.431123 0.612146 0.312743
O O1 0.340237 0.247077 0.259284
O O2 0.374608 0.386483 0.092715
O O3 0.357481 0.514326 0.260766
O O4 0.494266 0.344335 0.230694
O O5 0.750000 0.575747 0.589081
O O6 0.608613 0.523995 0.702381
O O7 0.634415 0.389573 0.538958
O O8 0.586515 0.660195 0.529554
O O9 0.250000 0.464752 0.825112
O O10 0.090248 0.379656 0.901138
O O11 0.250000 0.692035 0.002207
O O12 0.450865 0.657378 0.021473
O O13 0.384087 0.773144 0.876526
O O14 0.500000 0.500000 0.367598
#
# Coordination Sequence:
#
# PCOD9378132 Si02
#       6
#     8   8   8   8   8   8
#     4   8  18  31  52  73 105 129 173 219 265 309
#     4   9  19  31  49  80 111 135 169 220 273 316
#     4  10  18  30  51  80 109 133 167 221 273 317
#     4  11  20  32  55  81 107 142 178 216 258 313
#     4  11  18  32  54  77 106 139 175 219 266 315
#     4   8  16  34  52  74  94 133 172 221 257 301
#
# _framework density 25.243739999999999
#
# number of rings (size 3 to 8) (size 9 to 14) (size 15 to 20)
#    1.000    1.333    1.667    3.000    0.000    2.667 
#    0.000    0.833   14.667    0.000    0.000    0.000 
#    0.000    0.000    0.000    0.000    0.000    0.000 
#
# Total GULP energy -133708.514550 kJ/mol
# GULP energy per Si atom -5571.188106 kJ/mol
# Density = 2.518628 g / cm^3
# Si number density = 25.243740 Si / 1000 Ang^3
#
#
#
# Elastic Constant Matrix: (Units=GPa)
#
#
# Indices 1 2 3 4 5 6 
#
# 1 153.9609 5.7533 25.7303 0.0000 0.0000 0.0000
# 2 5.7533 29.2496 9.2273 0.0000 0.0000 0.0000
# 3 25.7303 9.2273 134.3067 0.0000 0.0000 0.0000
# 4 0.0000 0.0000 0.0000 22.7402 0.0000 0.0000
# 5 0.0000 0.0000 0.0000 0.0000 -116.6998 0.0000
# 6 0.0000 0.0000 0.0000 0.0000 0.0000 29.9026
#
#
#
# Elastic Compliance Matrix: (Units=1/GPa)
#
#
# Indices 1 2 3 4 5 6 
#
# 1 0.006735 -0.000938 -0.001226 0.000000 0.000000 0.000000
# 2 -0.000938 0.035077 -0.002230 0.000000 0.000000 0.000000
# 3 -0.001226 -0.002230 0.007834 0.000000 0.000000 0.000000
# 4 0.000000 0.000000 0.000000 0.043975 0.000000 0.000000
# 5 0.000000 0.000000 0.000000 0.000000 -0.008569 0.000000
# 6 0.000000 0.000000 0.000000 0.000000 0.000000 0.033442
#
#
# Mechanical properties :
#
#
# Convention : Reuss Voigt Hill
#
# Bulk Modulus (GPa) = 24.47546 44.32656 34.40101
# Shear Modulus (GPa) = 35.48603 5.64236 20.56419
#
# Velocity S-wave (km/s) = 3.75338 1.49666 2.85726
# Velocity P-wave (km/s) = 5.33859 4.53698 4.95403
#
# Compressibility (1/GPa) = 0.04085725
#
# Stress axis : x y z
#
# Youngs Moduli (GPa) = 148.47641 28.50904 127.65345
#
# Poissons Ratio (x) = 0.02674 0.15648
# Poissons Ratio (y) = 0.13928 0.28469
# Poissons Ratio (z) = 0.18201 0.06358
#
# Static dielectric constant tensor:
#      x y z
#    x 2.114280 0.000000 0.000000 
#    y 0.000000 2.041240 0.000000 
#    z 0.000000 0.000000 1.985370 
# 
# From -- ./inp_files/11076.got.cif
#   From: 2010.05.17/outbox.cif.g08.bks.cpg/sg46_6_cif.got.tgz:11076.got - 2010.06.03 19:58:25.
