data_PCOD9378652
_publ_section_title
;
Structure prediction by ZEFSAII (Michael W. Deem and Ramdas Pophale) SiO2 
 PCOD9378652
Probable space group: I M A 2
;
_chemical_formula_sum "Si O2"
_cell_formula_units_Z 64
_cell_length_a 9.833033
_cell_length_b 14.250836
_cell_length_c 24.315801
_cell_angle_alpha 90.000000
_cell_angle_beta 90.000000
_cell_angle_gamma 90.000000
_cell_volume 3407.347436
_symmetry_space_group_name_H-M "I M A 2"
_symmetry_group_IT_number 46
_symmetry_cell_setting 'orthorhombic'
loop_
_space_group_symop_operation_xyz
x,y,z
-x,-y,z
1/2-x,y,z
1/2+x,-y,z
1/2+x,1/2+y,1/2+z
1/2-x,1/2-y,1/2+z
-x,1/2+y,1/2+z
x,1/2-y,1/2+z
loop_
_atom_site_type_symbol
_atom_site_label
_atom_site_fract_x
_atom_site_fract_y
_atom_site_fract_z
Si Si1 0.104336 0.125835 0.531910
Si Si2 0.588010 0.223118 0.907864
Si Si3 0.099282 0.077017 0.650881
Si Si4 0.905822 0.280328 0.197122
Si Si5 0.909538 0.587437 0.906712
Si Si6 0.091111 0.592631 0.303997
Si Si7 0.408968 0.911298 0.140824
Si Si8 0.089008 0.797455 0.032585
O O1 0.250000 0.179225 0.532287
O O2 0.109344 0.061902 0.585571
O O3 0.097333 0.076999 0.473204
O O4 0.982769 0.197651 0.538420
O O5 0.750000 0.249884 0.905987
O O6 0.492057 0.314512 0.898879
O O7 0.563268 0.146471 0.861034
O O8 0.562074 0.179121 0.968499
O O9 0.250000 0.074257 0.674510
O O10 0.022951 0.173856 0.660481
O O11 0.000000 0.000000 0.675465
O O12 0.750000 0.305131 0.179387
O O13 0.926283 0.328285 0.256361
O O14 0.917847 0.169601 0.187356
O O15 0.750000 0.589751 0.888018
O O16 0.000000 0.500000 0.885206
O O17 0.250000 0.565090 0.302642
O O18 0.000000 0.500000 0.298335
O O19 0.250000 0.937124 0.135810
O O20 0.453479 0.866605 0.081798
O O21 0.500000 0.000000 0.153895
O O22 0.250000 0.786524 0.039264
#
# Coordination Sequence:
#
# PCOD9378652 Si02
#       8
#     8   8   8   8   8   8   8   8
#     4   9  18  30  46  73 108 144 182 223 269 323
#     4   9  19  36  57  82 112 148 188 232 283 333
#     4  11  21  31  48  76 108 143 182 225 273 327
#     4  10  21  39  58  78 109 146 184 228 277 330
#     4  10  19  32  51  78 112 151 190 229 276 330
#     4  10  22  40  62  85 112 145 185 234 283 334
#     4  10  21  36  56  82 111 145 182 225 277 334
#     4   9  17  32  54  78 108 146 183 222 274 331
#
# _framework density 18.78294
#
# number of rings (size 3 to 8) (size 9 to 14) (size 15 to 20)
#    0.000    2.250    1.250    1.500    0.000    4.500 
#    0.000    0.625    0.000    1.500    0.000    0.000 
#    0.000    0.000    0.000    0.000    0.000    0.000 
#
# Total GULP energy -178209.634487 kJ/mol
# GULP energy per Si atom -5569.051078 kJ/mol
# Density = 1.874019 g / cm^3
# Si number density = 18.782940 Si / 1000 Ang^3
#
#
#
# Elastic Constant Matrix: (Units=GPa)
#
#
# Indices 1 2 3 4 5 6 
#
# 1 101.1791 71.7055 34.6197 0.0000 0.0000 0.0000
# 2 71.7055 99.2195 35.1055 0.0000 0.0000 0.0000
# 3 34.6197 35.1055 85.5243 0.0000 0.0000 0.0000
# 4 0.0000 0.0000 0.0000 16.1509 0.0000 0.0000
# 5 0.0000 0.0000 0.0000 0.0000 561.5214 0.0000
# 6 0.0000 0.0000 0.0000 0.0000 0.0000 32.6173
#
#
#
# Elastic Compliance Matrix: (Units=1/GPa)
#
#
# Indices 1 2 3 4 5 6 
#
# 1 0.020752 -0.014069 -0.002626 0.000000 0.000000 0.000000
# 2 -0.014069 0.021329 -0.003060 0.000000 0.000000 0.000000
# 3 -0.002626 -0.003060 0.014011 0.000000 0.000000 0.000000
# 4 0.000000 0.000000 0.000000 0.061916 0.000000 0.000000
# 5 0.000000 0.000000 0.000000 0.000000 0.001781 0.000000
# 6 0.000000 0.000000 0.000000 0.000000 0.000000 0.030659
#
#
# Mechanical properties :
#
#
# Convention : Reuss Voigt Hill
#
# Bulk Modulus (GPa) = 60.29899 63.19827 61.74863
# Shear Modulus (GPa) = 25.57754 131.69073 78.63413
#
# Velocity S-wave (km/s) = 3.69418 8.38237 6.47731
# Velocity P-wave (km/s) = 7.09709 11.28739 9.42799
#
# Compressibility (1/GPa) = 0.01658402
#
# Stress axis : x y z
#
# Youngs Moduli (GPa) = 48.18760 46.88535 71.37022
#
# Poissons Ratio (x) = 0.65961 0.18739
# Poissons Ratio (y) = 0.67793 0.21839
# Poissons Ratio (z) = 0.12652 0.14347
#
# Static dielectric constant tensor:
#      x y z
#    x 1.671790 0.000000 0.000000 
#    y 0.000000 1.631590 0.000000 
#    z 0.000000 0.000000 1.701920 
# 
# From -- ./inp_files/23206.got.cif
#   From: 2010.05.17/outbox.cif.g08.bks.cpg/sg46_12_cif.got.tgz:23206.got - 2010.06.03 19:58:25.
