data_PCOD9378914
_publ_section_title
;
Structure prediction by ZEFSAII (Michael W. Deem and Ramdas Pophale) SiO2 
 PCOD9378914
Probable space group: I M A 2
;
_chemical_formula_sum "Si O2"
_cell_formula_units_Z 64
_cell_length_a 13.244869
_cell_length_b 31.079762
_cell_length_c 8.366893
_cell_angle_alpha 90.000000
_cell_angle_beta 90.000000
_cell_angle_gamma 90.000000
_cell_volume 3444.209551
_symmetry_space_group_name_H-M "I M A 2"
_symmetry_group_IT_number 46
_symmetry_cell_setting 'orthorhombic'
loop_
_space_group_symop_operation_xyz
x,y,z
-x,-y,z
1/2-x,y,z
1/2+x,-y,z
1/2+x,1/2+y,1/2+z
1/2-x,1/2-y,1/2+z
-x,1/2+y,1/2+z
x,1/2-y,1/2+z
loop_
_atom_site_type_symbol
_atom_site_label
_atom_site_fract_x
_atom_site_fract_y
_atom_site_fract_z
Si Si1 0.367205 0.991165 0.975570
Si Si2 0.483859 0.433793 0.328167
Si Si3 0.135565 0.022068 0.338461
Si Si4 0.526533 0.890765 0.355315
Si Si5 0.628771 0.723289 0.361713
Si Si6 0.372368 0.135936 0.023362
Si Si7 0.631907 0.067859 0.523832
Si Si8 0.372538 0.310755 0.015105
O O1 0.250000 0.982918 0.951466
O O2 0.433616 0.948485 0.960478
O O3 0.406822 0.025494 0.843210
O O4 0.381864 0.010633 0.152202
O O5 0.418595 0.392709 0.379778
O O6 0.553942 0.429236 0.172535
O O7 0.250000 0.037414 0.350517
O O8 0.068676 0.061674 0.389927
O O9 0.125497 0.979419 0.443763
O O10 0.408604 0.897418 0.393922
O O11 0.575028 0.854747 0.467645
O O12 0.568806 0.879048 0.180816
O O13 0.750000 0.726588 0.356793
O O14 0.607570 0.686251 0.491062
O O15 0.594439 0.771217 0.401586
O O16 0.598248 0.704912 0.191205
O O17 0.250000 0.129501 0.036213
O O18 0.750000 0.074562 0.566947
O O19 0.250000 0.315782 0.006811
#
# Coordination Sequence:
#
# PCOD9378914 Si02
#       8
#     8   8   8   8   8   8   8   8
#     4  10  21  37  56  79 111 153 197 242 292 342
#     4  11  22  36  57  81 114 153 199 243 292 342
#     4  10  21  38  57  81 114 150 193 244 295 349
#     4  12  22  35  60  85 113 153 199 243 290 353
#     4   9  19  34  54  82 124 159 185 230 288 359
#     4  11  21  37  60  91 122 154 195 239 292 357
#     4  11  26  43  57  80 115 158 206 252 297 345
#     4  10  19  34  55  87 123 157 191 231 292 360
#
# _framework density 18.581913
#
# number of rings (size 3 to 8) (size 9 to 14) (size 15 to 20)
#    0.000    1.500    1.250    4.500    5.250    2.000 
#    0.000    3.125    0.000    0.000    0.000    8.750 
#    0.000    0.000    0.000    0.000    0.000    0.000 
#
# Total GULP energy -178559.440726 kJ/mol
# GULP energy per Si atom -5579.982523 kJ/mol
# Density = 1.853962 g / cm^3
# Si number density = 18.581913 Si / 1000 Ang^3
#
#
#
# Elastic Constant Matrix: (Units=GPa)
#
#
# Indices 1 2 3 4 5 6 
#
# 1 79.0558 17.7577 30.5168 0.0005 0.0012 0.0000
# 2 17.7577 42.3328 14.6202 -0.0012 0.0023 0.0001
# 3 30.5168 14.6202 68.1847 -0.0070 0.0068 0.0020
# 4 0.0005 -0.0012 -0.0070 24.7050 0.0020 0.0001
# 5 0.0012 0.0023 0.0068 0.0020 30.1064 -0.0006
# 6 0.0000 0.0001 0.0020 0.0001 -0.0006 23.8453
#
#
#
# Elastic Compliance Matrix: (Units=1/GPa)
#
#
# Indices 1 2 3 4 5 6 
#
# 1 0.016080 -0.004600 -0.006210 -0.000002 0.000001 0.000001
# 2 -0.004600 0.026828 -0.003693 0.000000 -0.000001 0.000000
# 3 -0.006210 -0.003693 0.018238 0.000005 -0.000004 -0.000001
# 4 -0.000002 0.000000 0.000005 0.040478 -0.000003 0.000000
# 5 0.000001 -0.000001 -0.000004 -0.000003 0.033215 0.000001
# 6 0.000001 0.000000 -0.000001 0.000000 0.000001 0.041937
#
#
# Mechanical properties :
#
#
# Convention : Reuss Voigt Hill
#
# Bulk Modulus (GPa) = 31.11700 35.04031 33.07865
# Shear Modulus (GPa) = 23.09514 24.17659 23.63586
#
# Velocity S-wave (km/s) = 3.52928 3.61096 3.57036
# Velocity P-wave (km/s) = 5.77840 6.02358 5.90227
#
# Compressibility (1/GPa) = 0.03213678
#
# Stress axis : x y z
#
# Youngs Moduli (GPa) = 62.18938 37.27494 54.83208
#
# Poissons Ratio (x) = 0.17148 0.34052
# Poissons Ratio (y) = 0.28609 0.20252
# Poissons Ratio (z) = 0.38622 0.13767
#
# Static dielectric constant tensor:
#      x y z
#    x 1.646530 0.000000 0.000000 
#    y 0.000000 1.638420 0.000000 
#    z 0.000000 0.000000 1.729970 
# 
# From -- ./inp_files/6200.got.cif
#   From: 2010.05.17/outbox.cif.g08.bks.cpg/sg46_4_cif.got.tgz:6200.got - 2010.06.03 19:58:25.
