data_PCOD9378743
_publ_section_title
;
Structure prediction by ZEFSAII (Michael W. Deem and Ramdas Pophale) SiO2 
 PCOD9378743
Probable space group: I M A 2
;
_chemical_formula_sum "Si O2"
_cell_formula_units_Z 64
_cell_length_a 9.095551
_cell_length_b 20.210273
_cell_length_c 20.941864
_cell_angle_alpha 90.000000
_cell_angle_beta 90.000000
_cell_angle_gamma 90.000000
_cell_volume 3849.608178
_symmetry_space_group_name_H-M "I M A 2"
_symmetry_group_IT_number 46
_symmetry_cell_setting 'orthorhombic'
loop_
_space_group_symop_operation_xyz
x,y,z
-x,-y,z
1/2-x,y,z
1/2+x,-y,z
1/2+x,1/2+y,1/2+z
1/2-x,1/2-y,1/2+z
-x,1/2+y,1/2+z
x,1/2-y,1/2+z
loop_
_atom_site_type_symbol
_atom_site_label
_atom_site_fract_x
_atom_site_fract_y
_atom_site_fract_z
Si Si1 0.074630 0.931546 0.977210
Si Si2 0.425505 0.067424 0.210448
Si Si3 0.572806 0.787636 0.398121
Si Si4 0.425272 0.932337 0.825908
Si Si5 0.573791 0.787507 0.165005
Si Si6 0.925590 0.701095 0.521528
Si Si7 0.426799 0.711068 0.280032
Si Si8 0.574424 0.567353 0.861230
O O1 0.250000 0.935295 0.984514
O O2 0.040291 0.923498 0.901367
O O3 0.000000 0.000000 0.998473
O O4 0.009195 0.867729 0.011582
O O5 0.250000 0.060079 0.205233
O O6 0.467820 0.135454 0.176175
O O7 0.462515 0.075386 0.285814
O O8 0.500000 0.000000 0.186979
O O9 0.750000 0.783947 0.388377
O O10 0.537074 0.750819 0.464063
O O11 0.493796 0.751016 0.339758
O O12 0.531687 0.865018 0.396368
O O13 0.250000 0.939489 0.820977
O O14 0.469486 0.865806 0.789356
O O15 0.500000 0.000000 0.803885
O O16 0.750000 0.782773 0.176446
O O17 0.542908 0.770497 0.091593
O O18 0.490452 0.742627 0.215813
O O19 0.750000 0.688147 0.518568
O O20 0.250000 0.715470 0.281533
O O21 0.500000 0.500000 0.884301
O O22 0.750000 0.560177 0.865414
#
# Coordination Sequence:
#
# PCOD9378743 Si02
#       8
#     8   8   8   8   8   8   8   8
#     4  10  19  33  51  74 108 143 178 218 261 312
#     4   9  17  30  47  68  99 133 169 207 245 296
#     4  10  19  34  55  78 103 135 172 215 263 310
#     4   9  19  33  51  78 106 133 170 216 261 312
#     4  10  21  37  52  74 106 141 178 214 258 315
#     4  10  21  35  54  77 104 140 180 218 262 316
#     4  11  21  34  54  81 106 134 175 220 262 308
#     4   9  17  30  49  74 101 129 164 208 254 301
#
# _framework density 16.625069
#
# number of rings (size 3 to 8) (size 9 to 14) (size 15 to 20)
#    0.000    2.250    2.500    0.750    0.000    3.500 
#    0.000    1.250    0.000    0.750    0.000    3.500 
#    0.000    0.000    0.000    0.000    0.000    0.000 
#
# Total GULP energy -178526.686024 kJ/mol
# GULP energy per Si atom -5578.958938 kJ/mol
# Density = 1.658723 g / cm^3
# Si number density = 16.625069 Si / 1000 Ang^3
#
#
#
# Elastic Constant Matrix: (Units=GPa)
#
#
# Indices 1 2 3 4 5 6 
#
# 1 27.6662 46.7349 43.5746 0.0000 0.0000 0.0000
# 2 46.7349 139.2222 66.5638 0.0000 0.0000 0.0000
# 3 43.5746 66.5638 97.6016 0.0000 0.0000 0.0000
# 4 0.0000 0.0000 0.0000 20.4738 0.0000 0.0000
# 5 0.0000 0.0000 0.0000 0.0000 -13.9685 0.0000
# 6 0.0000 0.0000 0.0000 0.0000 0.0000 31.2555
#
#
#
# Elastic Compliance Matrix: (Units=1/GPa)
#
#
# Indices 1 2 3 4 5 6 
#
# 1 0.195095 -0.035384 -0.062969 0.000000 0.000000 0.000000
# 2 -0.035384 0.017076 0.004152 0.000000 0.000000 0.000000
# 3 -0.062969 0.004152 0.035527 0.000000 0.000000 0.000000
# 4 0.000000 0.000000 0.000000 0.048843 0.000000 0.000000
# 5 0.000000 0.000000 0.000000 0.000000 -0.071590 0.000000
# 6 0.000000 0.000000 0.000000 0.000000 0.000000 0.031994
#
#
# Mechanical properties :
#
#
# Convention : Reuss Voigt Hill
#
# Bulk Modulus (GPa) = 16.86486 64.24852 40.55669
# Shear Modulus (GPa) = 10.75005 14.72660 12.73832
#
# Velocity S-wave (km/s) = 2.54563 2.97948 2.77106
# Velocity P-wave (km/s) = 4.33665 7.11097 5.88950
#
# Compressibility (1/GPa) = 0.05929487
#
# Stress axis : x y z
#
# Youngs Moduli (GPa) = 5.12570 58.56279 28.14765
#
# Poissons Ratio (x) = 2.07221 1.77243
# Poissons Ratio (y) = 0.18137 -0.11687
# Poissons Ratio (z) = 0.32276 -0.24315
#
# Static dielectric constant tensor:
#      x y z
#    x 1.557850 0.000000 0.000000 
#    y 0.000000 1.551650 0.000000 
#    z 0.000000 0.000000 1.555470 
# 
# From -- ./inp_files/18558.got.cif
#   From: 2010.05.17/outbox.cif.g08.bks.cpg/sg46_10_cif.got.tgz:18558.got - 2010.06.03 19:58:25.
