data_PCOD9378583
_publ_section_title
;
Structure prediction by ZEFSAII (Michael W. Deem and Ramdas Pophale) SiO2 
 PCOD9378583
Probable space group: I M A 2
;
_chemical_formula_sum "Si O2"
_cell_formula_units_Z 64
_cell_length_a 14.447711
_cell_length_b 16.918949
_cell_length_c 13.254950
_cell_angle_alpha 90.000000
_cell_angle_beta 90.000000
_cell_angle_gamma 90.000000
_cell_volume 3240.041112
_symmetry_space_group_name_H-M "I M A 2"
_symmetry_group_IT_number 46
_symmetry_cell_setting 'orthorhombic'
loop_
_space_group_symop_operation_xyz
x,y,z
-x,-y,z
1/2-x,y,z
1/2+x,-y,z
1/2+x,1/2+y,1/2+z
1/2-x,1/2-y,1/2+z
-x,1/2+y,1/2+z
x,1/2-y,1/2+z
loop_
_atom_site_type_symbol
_atom_site_label
_atom_site_fract_x
_atom_site_fract_y
_atom_site_fract_z
Si Si1 0.638746 0.460847 0.785060
Si Si2 0.642836 0.689891 0.088033
Si Si3 0.946185 0.841501 0.011222
Si Si4 0.637454 0.628617 0.869046
Si Si5 0.352870 0.675525 0.519379
Si Si6 0.854893 0.285159 0.826159
Si Si7 0.143334 0.994627 0.053511
Si Si8 0.039316 0.218325 0.783275
O O1 0.750000 0.463586 0.796891
O O2 0.604701 0.542419 0.833347
O O3 0.611975 0.376102 0.830223
O O4 0.619975 0.463627 0.665752
O O5 0.750000 0.673536 0.107663
O O6 0.584755 0.675237 0.188718
O O7 0.628517 0.781826 0.057668
O O8 0.613817 0.643840 0.986447
O O9 0.952251 0.825570 0.891200
O O10 0.043744 0.817081 0.063026
O O11 0.920259 0.931848 0.028383
O O12 0.750000 0.634077 0.859898
O O13 0.592546 0.698462 0.803113
O O14 0.250000 0.678422 0.569421
O O15 0.351457 0.742261 0.434109
O O16 0.359230 0.583399 0.483577
O O17 0.750000 0.283193 0.786658
O O18 0.931410 0.236398 0.766139
O O19 0.250000 0.022654 0.055379
#
# Coordination Sequence:
#
# PCOD9378583 Si02
#       8
#     8   8   8   8   8   8   8   8
#     4   9  18  33  55  83 112 142 180 223 273 323
#     4  10  20  33  52  78 111 148 186 224 272 336
#     4  10  20  34  52  79 113 147 178 228 282 330
#     4   9  18  33  51  77 115 148 179 226 277 327
#     4   9  19  35  53  77 109 144 183 226 272 325
#     4   9  19  36  55  78 108 145 185 228 273 323
#     4  10  19  31  53  85 113 141 180 227 277 329
#     4  10  20  33  53  81 109 147 187 221 274 333
#
# _framework density 19.752835999999999
#
# number of rings (size 3 to 8) (size 9 to 14) (size 15 to 20)
#    0.000    2.500    0.000    1.875    1.750    3.000 
#    2.250    0.000    0.000    1.500   19.500    7.000 
#    0.000    0.000    0.000    0.000    0.000    0.000 
#
# Total GULP energy -178346.533468 kJ/mol
# GULP energy per Si atom -5573.329171 kJ/mol
# Density = 1.970788 g / cm^3
# Si number density = 19.752836 Si / 1000 Ang^3
#
#
#
# Elastic Constant Matrix: (Units=GPa)
#
#
# Indices 1 2 3 4 5 6 
#
# 1 77.5538 18.5117 25.8702 0.0000 0.0000 0.0000
# 2 18.5117 110.7672 38.3691 0.0000 0.0000 0.0000
# 3 25.8702 38.3691 68.3540 0.0000 0.0000 0.0000
# 4 0.0000 0.0000 0.0000 17.1137 0.0000 0.0000
# 5 0.0000 0.0000 0.0000 0.0000 -3.0102 0.0000
# 6 0.0000 0.0000 0.0000 0.0000 0.0000 26.0472
#
#
#
# Elastic Compliance Matrix: (Units=1/GPa)
#
#
# Indices 1 2 3 4 5 6 
#
# 1 0.014796 -0.000662 -0.005229 0.000000 0.000000 0.000000
# 2 -0.000662 0.011237 -0.006057 0.000000 0.000000 0.000000
# 3 -0.005229 -0.006057 0.020009 0.000000 0.000000 0.000000
# 4 0.000000 0.000000 0.000000 0.058433 0.000000 0.000000
# 5 0.000000 0.000000 0.000000 0.000000 -0.332202 0.000000
# 6 0.000000 0.000000 0.000000 0.000000 0.000000 0.038392
#
#
# Mechanical properties :
#
#
# Convention : Reuss Voigt Hill
#
# Bulk Modulus (GPa) = 45.15287 46.90855 46.03071
# Shear Modulus (GPa) = -31.63387 19.62508 -6.00440
#
# Velocity S-wave (km/s) = -4.00620 3.15545 -1.74538
# Velocity P-wave (km/s) = 1.22844 6.08894 4.39228
#
# Compressibility (1/GPa) = 0.02214699
#
# Stress axis : x y z
#
# Youngs Moduli (GPa) = 67.58425 88.99453 49.97849
#
# Poissons Ratio (x) = 0.05888 0.26132
# Poissons Ratio (y) = 0.04472 0.30272
# Poissons Ratio (z) = 0.35337 0.53904
#
# Static dielectric constant tensor:
#      x y z
#    x 1.774900 0.000000 0.000000 
#    y 0.000000 1.685930 0.000000 
#    z 0.000000 0.000000 1.703980 
# 
# From -- ./inp_files/11325.got.cif
#   From: 2010.05.17/outbox.cif.g08.bks.cpg/sg46_6_cif.got.tgz:11325.got - 2010.06.03 19:58:25.
