data_PCOD9378570
_publ_section_title
;
Structure prediction by ZEFSAII (Michael W. Deem and Ramdas Pophale) SiO2 
 PCOD9378570
Probable space group: I M A 2
;
_chemical_formula_sum "Si O2"
_cell_formula_units_Z 48
_cell_length_a 11.191779
_cell_length_b 24.107931
_cell_length_c 9.708430
_cell_angle_alpha 90.000000
_cell_angle_beta 90.000000
_cell_angle_gamma 90.000000
_cell_volume 2619.437672
_symmetry_space_group_name_H-M "I M A 2"
_symmetry_group_IT_number 46
_symmetry_cell_setting 'orthorhombic'
loop_
_space_group_symop_operation_xyz
x,y,z
-x,-y,z
1/2-x,y,z
1/2+x,-y,z
1/2+x,1/2+y,1/2+z
1/2-x,1/2-y,1/2+z
-x,1/2+y,1/2+z
x,1/2-y,1/2+z
loop_
_atom_site_type_symbol
_atom_site_label
_atom_site_fract_x
_atom_site_fract_y
_atom_site_fract_z
Si Si1 0.110280 0.718531 0.909050
Si Si2 0.997553 0.663971 0.403143
Si Si3 0.610418 0.366647 0.676303
Si Si4 0.750000 0.777666 0.847769
Si Si5 0.111867 0.541877 0.906928
Si Si6 0.995758 0.366713 0.099628
Si Si7 0.250000 0.174364 0.541917
O O1 0.250000 0.707798 0.918309
O O2 0.067112 0.683190 0.776888
O O3 0.083710 0.782696 0.895536
O O4 0.051750 0.692695 0.045149
O O5 0.866551 0.690913 0.403227
O O6 0.031866 0.631726 0.540239
O O7 0.009814 0.629716 0.263154
O O8 0.750000 0.355992 0.640968
O O9 0.606067 0.422117 0.766815
O O10 0.750000 0.786834 0.681316
O O11 0.750000 0.715512 0.910300
O O12 0.250000 0.521129 0.920980
O O13 0.000000 0.500000 0.908865
O O14 0.082628 0.586645 0.026279
O O15 0.133108 0.364144 0.050375
#
# Coordination Sequence:
#
# PCOD9378570 Si02
#       7
#     8   8   8   4   8   8   4
#     4  10  19  31  50  79 113 151 188 219 262 326
#     4  11  20  33  51  82 116 153 184 223 272 325
#     4   9  20  36  55  81 112 144 185 229 274 330
#     4  10  22  32  48  80 122 158 192 226 258 319
#     4  10  23  44  65  86 107 137 185 240 292 344
#     4  10  21  35  56  81 113 147 188 230 276 329
#     4  10  20  34  52  80 118 156 192 226 268 321
#
# _framework density 18.324543999999999
#
# number of rings (size 3 to 8) (size 9 to 14) (size 15 to 20)
#    0.000    2.000    1.667    3.000    3.500    4.000 
#    1.500    0.833    0.000    0.000    0.000    0.000 
#    0.000    0.000    0.000    0.000    0.000    0.000 
#
# Total GULP energy -133884.263254 kJ/mol
# GULP energy per Si atom -5578.510969 kJ/mol
# Density = 1.828284 g / cm^3
# Si number density = 18.324544 Si / 1000 Ang^3
#
#
#
# Elastic Constant Matrix: (Units=GPa)
#
#
# Indices 1 2 3 4 5 6 
#
# 1 85.7576 15.0163 30.6012 0.0000 0.0000 0.0000
# 2 15.0163 40.0574 5.8335 0.0000 0.0000 0.0000
# 3 30.6012 5.8335 73.0495 0.0002 0.0000 -0.0001
# 4 0.0000 0.0000 0.0002 5.3133 -0.0001 -0.0001
# 5 0.0000 0.0000 0.0000 -0.0001 20.5643 0.0000
# 6 0.0000 0.0000 -0.0001 -0.0001 0.0000 22.5797
#
#
#
# Elastic Compliance Matrix: (Units=1/GPa)
#
#
# Indices 1 2 3 4 5 6 
#
# 1 0.014504 -0.004606 -0.005708 0.000000 0.000000 0.000000
# 2 -0.004606 0.026721 -0.000204 0.000000 0.000000 0.000000
# 3 -0.005708 -0.000204 0.016097 -0.000001 0.000000 0.000000
# 4 0.000000 0.000000 -0.000001 0.188208 0.000000 0.000000
# 5 0.000000 0.000000 0.000000 0.000000 0.048628 0.000000
# 6 0.000000 0.000000 0.000000 0.000000 0.000000 0.044288
#
#
# Mechanical properties :
#
#
# Convention : Reuss Voigt Hill
#
# Bulk Modulus (GPa) = 27.55974 33.52961 30.54468
# Shear Modulus (GPa) = 13.45619 19.51903 16.48761
#
# Velocity S-wave (km/s) = 2.71278 3.26726 3.00285
# Velocity P-wave (km/s) = 4.98846 5.70707 5.35982
#
# Compressibility (1/GPa) = 0.03628481
#
# Stress axis : x y z
#
# Youngs Moduli (GPa) = 68.94591 37.42433 62.12393
#
# Poissons Ratio (x) = 0.17237 0.35461
# Poissons Ratio (y) = 0.31756 0.01269
# Poissons Ratio (z) = 0.39355 0.00765
#
# Static dielectric constant tensor:
#      x y z
#    x 1.691810 0.000000 0.000000 
#    y 0.000000 1.614030 0.000000 
#    z 0.000000 0.000000 1.642670 
# 
# From -- ./inp_files/4741.got.cif
#   From: 2010.05.17/outbox.cif.g08.bks.cpg/sg46_3_cif.got.tgz:4741.got - 2010.06.03 19:58:25.
