data_PCOD9378462
_publ_section_title
;
Structure prediction by ZEFSAII (Michael W. Deem and Ramdas Pophale) SiO2 
 PCOD9378462
Probable space group: I M A 2
;
_chemical_formula_sum "Si O2"
_cell_formula_units_Z 64
_cell_length_a 8.787534
_cell_length_b 27.187738
_cell_length_c 19.003499
_cell_angle_alpha 90.000000
_cell_angle_beta 90.000000
_cell_angle_gamma 90.000000
_cell_volume 4540.186226
_symmetry_space_group_name_H-M "I M A 2"
_symmetry_group_IT_number 46
_symmetry_cell_setting 'orthorhombic'
loop_
_space_group_symop_operation_xyz
x,y,z
-x,-y,z
1/2-x,y,z
1/2+x,-y,z
1/2+x,1/2+y,1/2+z
1/2-x,1/2-y,1/2+z
-x,1/2+y,1/2+z
x,1/2-y,1/2+z
loop_
_atom_site_type_symbol
_atom_site_label
_atom_site_fract_x
_atom_site_fract_y
_atom_site_fract_z
Si Si1 0.567312 0.053327 0.232380
Si Si2 0.067010 0.552827 0.568895
Si Si3 0.432458 0.295543 0.362412
Si Si4 0.432104 0.243591 0.225552
Si Si5 0.067576 0.145576 0.312928
Si Si6 0.932128 0.199364 0.437854
Si Si7 0.934037 0.351547 0.482656
Si Si8 0.067148 0.745525 0.571324
O O1 0.750000 0.052329 0.237005
O O2 0.524380 0.062857 0.150416
O O3 0.501276 0.096440 0.280275
O O4 0.500000 0.000000 0.251046
O O5 0.250000 0.550066 0.566627
O O6 0.019198 0.597639 0.519136
O O7 0.000000 0.500000 0.548893
O O8 0.250000 0.291017 0.370193
O O9 0.468836 0.287681 0.280181
O O10 0.514307 0.249375 0.399534
O O11 0.492600 0.341691 0.406515
O O12 0.250000 0.241874 0.218476
O O13 0.478476 0.192287 0.263640
O O14 0.503395 0.248943 0.149273
O O15 0.250000 0.143601 0.313388
O O16 0.008317 0.156948 0.391566
O O17 0.750000 0.194948 0.434166
O O18 0.977200 0.209884 0.518759
O O19 0.750000 0.350411 0.476416
O O20 0.978819 0.305974 0.533830
O O21 0.250000 0.744931 0.574466
#
# Coordination Sequence:
#
# PCOD9378462 Si02
#       8
#     8   8   8   8   8   8   8   8
#     4  10  19  31  45  61  83 111 140 175 211 243
#     4   9  18  30  43  60  83 109 141 176 210 245
#     4   9  17  28  40  58  81 106 137 171 204 243
#     4   9  18  28  39  58  84 109 136 169 203 240
#     4  10  19  30  43  61  83 110 143 174 205 246
#     4   9  17  29  42  58  80 107 137 170 205 242
#     4   9  17  29  42  58  80 108 140 172 204 243
#     4   9  17  27  41  60  81 106 139 171 202 242
#
# _framework density 14.096339
#
# number of rings (size 3 to 8) (size 9 to 14) (size 15 to 20)
#    0.000    2.750    0.000    3.750    0.000    7.500 
#    0.000    0.000    0.000    0.000    0.000    0.000 
#    0.000    1.000    0.000    9.000    0.000    6.750 
#
# Total GULP energy -178189.637901 kJ/mol
# GULP energy per Si atom -5568.426184 kJ/mol
# Density = 1.406425 g / cm^3
# Si number density = 14.096339 Si / 1000 Ang^3
#
#
#
# Elastic Constant Matrix: (Units=GPa)
#
#
# Indices 1 2 3 4 5 6 
#
# 1 30.1071 29.8227 33.2504 0.0000 0.0000 0.0000
# 2 29.8227 95.5756 64.1051 0.0000 0.0000 0.0000
# 3 33.2504 64.1051 116.9643 -0.0001 0.0000 0.0000
# 4 0.0000 0.0000 -0.0001 27.2526 0.0000 0.0000
# 5 0.0000 0.0000 0.0000 0.0000 27.9337 0.0000
# 6 0.0000 0.0000 0.0000 0.0000 0.0000 21.7260
#
#
#
# Elastic Compliance Matrix: (Units=1/GPa)
#
#
# Indices 1 2 3 4 5 6 
#
# 1 0.054263 -0.010413 -0.009718 0.000000 0.000000 0.000000
# 2 -0.010413 0.018543 -0.007203 0.000000 0.000000 0.000000
# 3 -0.009718 -0.007203 0.015260 0.000000 0.000000 0.000000
# 4 0.000000 0.000000 0.000000 0.036694 0.000000 0.000000
# 5 0.000000 0.000000 0.000000 0.000000 0.035799 0.000000
# 6 0.000000 0.000000 0.000000 0.000000 0.000000 0.046028
#
#
# Mechanical properties :
#
#
# Convention : Reuss Voigt Hill
#
# Bulk Modulus (GPa) = 29.94282 55.22258 42.58270
# Shear Modulus (GPa) = 18.35614 23.08040 20.71827
#
# Velocity S-wave (km/s) = 3.61250 4.05079 3.83791
# Velocity P-wave (km/s) = 6.21996 7.81912 7.06493
#
# Compressibility (1/GPa) = 0.03339699
#
# Stress axis : x y z
#
# Youngs Moduli (GPa) = 18.42881 53.92767 65.53060
#
# Poissons Ratio (x) = 0.56157 0.63686
# Poissons Ratio (y) = 0.19191 0.47201
# Poissons Ratio (z) = 0.17910 0.38843
#
# Static dielectric constant tensor:
#      x y z
#    x 1.472530 0.000000 0.000000 
#    y 0.000000 1.456950 0.000000 
#    z 0.000000 0.000000 1.475360 
# 
# From -- ./inp_files/18654.got.cif
#   From: 2010.05.17/outbox.cif.g08.bks.cpg/sg46_10_cif.got.tgz:18654.got - 2010.06.03 19:58:25.
