data_PCOD9378598
_publ_section_title
;
Structure prediction by ZEFSAII (Michael W. Deem and Ramdas Pophale) SiO2 
 PCOD9378598
Probable space group: I M A 2
;
_chemical_formula_sum "Si O2"
_cell_formula_units_Z 64
_cell_length_a 8.603118
_cell_length_b 15.255510
_cell_length_c 28.026571
_cell_angle_alpha 90.000000
_cell_angle_beta 90.000000
_cell_angle_gamma 90.000000
_cell_volume 3678.345985
_symmetry_space_group_name_H-M "I M A 2"
_symmetry_group_IT_number 46
_symmetry_cell_setting 'orthorhombic'
loop_
_space_group_symop_operation_xyz
x,y,z
-x,-y,z
1/2-x,y,z
1/2+x,-y,z
1/2+x,1/2+y,1/2+z
1/2-x,1/2-y,1/2+z
-x,1/2+y,1/2+z
x,1/2-y,1/2+z
loop_
_atom_site_type_symbol
_atom_site_label
_atom_site_fract_x
_atom_site_fract_y
_atom_site_fract_z
Si Si1 0.436565 0.095662 0.970520
Si Si2 0.560103 0.723073 0.665029
Si Si3 0.565013 0.224531 0.437895
Si Si4 0.063345 0.095958 0.358555
Si Si5 0.563067 0.905935 0.628664
Si Si6 0.062715 0.094978 0.080858
Si Si7 0.937377 0.904781 0.248071
Si Si8 0.063318 0.404291 0.017342
O O1 0.250000 0.094946 0.968721
O O2 0.500656 0.176900 0.940637
O O3 0.500000 0.000000 0.956500
O O4 0.485377 0.110551 0.026047
O O5 0.750000 0.723819 0.665353
O O6 0.508461 0.823106 0.659312
O O7 0.512010 0.668631 0.618098
O O8 0.509123 0.670344 0.711793
O O9 0.750000 0.225701 0.437883
O O10 0.503317 0.170414 0.392620
O O11 0.504469 0.170847 0.483941
O O12 0.250000 0.095077 0.361891
O O13 0.017531 0.110278 0.303174
O O14 0.000000 0.000000 0.372703
O O15 0.750000 0.908814 0.630061
O O16 0.519859 0.891602 0.572944
O O17 0.500000 0.000000 0.643880
O O18 0.250000 0.092640 0.081498
O O19 0.000000 0.000000 0.095533
O O20 0.750000 0.907926 0.246423
O O21 0.000000 0.000000 0.233326
O O22 0.250000 0.403510 0.013599
O O23 0.000000 0.500000 0.002766
#
# Coordination Sequence:
#
# PCOD9378598 Si02
#       8
#     8   8   8   8   8   8   8   8
#     4  10  20  35  52  73 102 136 170 206 245 288
#     4   9  16  29  49  72  97 129 164 196 236 289
#     4  12  23  34  51  74  98 130 169 209 249 295
#     4  10  20  35  53  75 101 129 160 200 249 302
#     4   9  18  32  49  68  96 131 166 202 241 284
#     4   9  17  29  47  71 101 132 161 193 234 283
#     4   9  18  32  52  75 100 128 158 194 241 292
#     4  10  19  32  49  72 102 135 167 204 247 295
#
# _framework density 17.399124
#
# number of rings (size 3 to 8) (size 9 to 14) (size 15 to 20)
#    0.000    2.250    0.000    3.750    0.000    3.500 
#    0.000    1.250    0.000    0.750    0.000    1.750 
#    0.000    0.000    0.000    0.000    0.000    0.000 
#
# Total GULP energy -178621.983205 kJ/mol
# GULP energy per Si atom -5581.936975 kJ/mol
# Density = 1.735952 g / cm^3
# Si number density = 17.399124 Si / 1000 Ang^3
#
#
#
# Elastic Constant Matrix: (Units=GPa)
#
#
# Indices 1 2 3 4 5 6 
#
# 1 41.6921 38.7362 24.4490 0.0000 0.0000 0.0000
# 2 38.7362 181.7348 86.4120 0.0000 0.0000 0.0000
# 3 24.4490 86.4120 73.9614 0.0000 0.0000 0.0000
# 4 0.0000 0.0000 0.0000 29.0725 0.0000 0.0000
# 5 0.0000 0.0000 0.0000 0.0000 12.2806 0.0000
# 6 0.0000 0.0000 0.0000 0.0000 0.0000 30.8001
#
#
#
# Elastic Compliance Matrix: (Units=1/GPa)
#
#
# Indices 1 2 3 4 5 6 
#
# 1 0.030932 -0.003895 -0.005674 0.000000 0.000000 0.000000
# 2 -0.003895 0.012870 -0.013749 0.000000 0.000000 0.000000
# 3 -0.005674 -0.013749 0.031460 0.000000 0.000000 0.000000
# 4 0.000000 0.000000 0.000000 0.034397 0.000000 0.000000
# 5 0.000000 0.000000 0.000000 0.000000 0.081429 0.000000
# 6 0.000000 0.000000 0.000000 0.000000 0.000000 0.032467
#
#
# Mechanical properties :
#
#
# Convention : Reuss Voigt Hill
#
# Bulk Modulus (GPa) = 34.93446 66.28697 50.61071
# Shear Modulus (GPa) = 17.87410 24.28339 21.07875
#
# Velocity S-wave (km/s) = 3.20863 3.73992 3.48441
# Velocity P-wave (km/s) = 5.81798 7.53856 6.73345
#
# Compressibility (1/GPa) = 0.02862503
#
# Stress axis : x y z
#
# Youngs Moduli (GPa) = 32.32932 77.69803 31.78621
#
# Poissons Ratio (x) = 0.30263 0.18036
# Poissons Ratio (y) = 0.12592 0.43704
# Poissons Ratio (z) = 0.18344 1.06830
#
# Static dielectric constant tensor:
#      x y z
#    x 1.592970 0.000000 0.000000 
#    y 0.000000 1.578880 0.000000 
#    z 0.000000 0.000000 1.593340 
# 
# From -- ./inp_files/25301.got.cif
#   From: 2010.05.17/outbox.cif.g08.bks.cpg/sg46_13_cif.got.tgz:25301.got - 2010.06.03 19:58:25.
