data_PCOD9378880
_publ_section_title
;
Structure prediction by ZEFSAII (Michael W. Deem and Ramdas Pophale) SiO2 
 PCOD9378880
Probable space group: I M A 2
;
_chemical_formula_sum "Si O2"
_cell_formula_units_Z 64
_cell_length_a 8.644106
_cell_length_b 23.743668
_cell_length_c 19.680120
_cell_angle_alpha 90.000000
_cell_angle_beta 90.000000
_cell_angle_gamma 90.000000
_cell_volume 4039.202599
_symmetry_space_group_name_H-M "I M A 2"
_symmetry_group_IT_number 46
_symmetry_cell_setting 'orthorhombic'
loop_
_space_group_symop_operation_xyz
x,y,z
-x,-y,z
1/2-x,y,z
1/2+x,-y,z
1/2+x,1/2+y,1/2+z
1/2-x,1/2-y,1/2+z
-x,1/2+y,1/2+z
x,1/2-y,1/2+z
loop_
_atom_site_type_symbol
_atom_site_label
_atom_site_fract_x
_atom_site_fract_y
_atom_site_fract_z
Si Si1 0.934258 0.773550 0.059780
Si Si2 0.064925 0.062482 0.566562
Si Si3 0.562499 0.228692 0.352787
Si Si4 0.435475 0.750931 0.202776
Si Si5 0.564674 0.562849 0.347214
Si Si6 0.936550 0.624609 0.206541
Si Si7 0.935809 0.160456 0.936429
Si Si8 0.436022 0.664051 0.983682
O O1 0.750000 0.771503 0.056130
O O2 0.989379 0.779158 0.137033
O O3 0.001741 0.714369 0.031514
O O4 0.998854 0.821267 0.009397
O O5 0.250000 0.061326 0.562929
O O6 0.021384 0.088347 0.640200
O O7 0.000248 0.105422 0.510550
O O8 0.000000 0.000000 0.559255
O O9 0.750000 0.228942 0.351623
O O10 0.510961 0.224008 0.275227
O O11 0.515675 0.288908 0.384973
O O12 0.515564 0.181442 0.407204
O O13 0.250000 0.755015 0.197921
O O14 0.483329 0.685230 0.203567
O O15 0.500000 0.500000 0.350702
O O16 0.750000 0.561614 0.350733
O O17 0.520738 0.591638 0.275198
O O18 0.499001 0.602632 0.406379
O O19 0.750000 0.632834 0.206002
O O20 0.750000 0.159701 0.938968
O O21 0.250000 0.664295 0.987181
#
# Coordination Sequence:
#
# PCOD9378880 Si02
#       8
#     8   8   8   8   8   8   8   8
#     4  11  21  33  49  74 104 133 166 210 257 309
#     4  11  22  35  50  71 100 137 177 214 250 296
#     4   8  17  31  50  74  99 126 164 207 252 302
#     4  11  19  31  52  76 101 137 171 205 254 306
#     4  11  22  35  51  73 102 140 178 216 256 300
#     4  10  21  34  47  70 104 138 176 213 249 294
#     4  10  19  35  53  73  98 132 173 215 256 303
#     4  10  19  34  52  73  98 131 170 212 254 300
#
# _framework density 15.844711
#
# number of rings (size 3 to 8) (size 9 to 14) (size 15 to 20)
#    0.000    1.750    2.500    4.125    0.000    1.000 
#    0.000    1.875    0.000    0.000    0.000    0.875 
#    0.000    2.000    0.000    0.000    0.000    0.000 
#
# Total GULP energy -178647.987784 kJ/mol
# GULP energy per Si atom -5582.749618 kJ/mol
# Density = 1.580865 g / cm^3
# Si number density = 15.844711 Si / 1000 Ang^3
#
#
#
# Elastic Constant Matrix: (Units=GPa)
#
#
# Indices 1 2 3 4 5 6 
#
# 1 60.2518 36.1920 43.0738 0.0000 0.0000 0.0000
# 2 36.1920 86.9547 66.7916 0.0000 0.0000 0.0000
# 3 43.0738 66.7916 150.7503 0.0000 0.0000 0.0000
# 4 0.0000 0.0000 0.0000 20.8975 0.0000 0.0000
# 5 0.0000 0.0000 0.0000 0.0000 20.5903 0.0000
# 6 0.0000 0.0000 0.0000 0.0000 0.0000 25.9961
#
#
#
# Elastic Compliance Matrix: (Units=1/GPa)
#
#
# Indices 1 2 3 4 5 6 
#
# 1 0.023342 -0.006961 -0.003585 0.000000 0.000000 0.000000
# 2 -0.006961 0.019509 -0.006655 0.000000 0.000000 0.000000
# 3 -0.003585 -0.006655 0.010606 0.000000 0.000000 0.000000
# 4 0.000000 0.000000 0.000000 0.047853 0.000000 0.000000
# 5 0.000000 0.000000 0.000000 0.000000 0.048567 0.000000
# 6 0.000000 0.000000 0.000000 0.000000 0.000000 0.038467
#
#
# Mechanical properties :
#
#
# Convention : Reuss Voigt Hill
#
# Bulk Modulus (GPa) = 52.48029 65.56352 59.02191
# Shear Modulus (GPa) = 21.82474 23.62339 22.72407
#
# Velocity S-wave (km/s) = 3.71538 3.86545 3.79116
# Velocity P-wave (km/s) = 7.18324 7.83523 7.51631
#
# Compressibility (1/GPa) = 0.01905477
#
# Stress axis : x y z
#
# Youngs Moduli (GPa) = 42.84212 51.25754 94.28368
#
# Poissons Ratio (x) = 0.35682 0.33801
# Poissons Ratio (y) = 0.29824 0.62743
# Poissons Ratio (z) = 0.15359 0.34111
#
# Static dielectric constant tensor:
#      x y z
#    x 1.530250 0.000000 0.000000 
#    y 0.000000 1.493210 0.000000 
#    z 0.000000 0.000000 1.544700 
# 
# From -- ./inp_files/18575.got.cif
#   From: 2010.05.17/outbox.cif.g08.bks.cpg/sg46_10_cif.got.tgz:18575.got - 2010.06.03 19:58:25.
