data_PCOD9378842
_publ_section_title
;
Structure prediction by ZEFSAII (Michael W. Deem and Ramdas Pophale) SiO2 
 PCOD9378842
Probable space group: I M A 2
;
_chemical_formula_sum "Si O2"
_cell_formula_units_Z 64
_cell_length_a 15.078197
_cell_length_b 25.790191
_cell_length_c 8.162509
_cell_angle_alpha 90.000000
_cell_angle_beta 90.000000
_cell_angle_gamma 90.000000
_cell_volume 3174.151451
_symmetry_space_group_name_H-M "I M A 2"
_symmetry_group_IT_number 46
_symmetry_cell_setting 'orthorhombic'
loop_
_space_group_symop_operation_xyz
x,y,z
-x,-y,z
1/2-x,y,z
1/2+x,-y,z
1/2+x,1/2+y,1/2+z
1/2-x,1/2-y,1/2+z
-x,1/2+y,1/2+z
x,1/2-y,1/2+z
loop_
_atom_site_type_symbol
_atom_site_label
_atom_site_fract_x
_atom_site_fract_y
_atom_site_fract_z
Si Si1 0.144421 0.576205 0.761390
Si Si2 0.350152 0.903845 0.888251
Si Si3 0.542526 0.237243 0.672653
Si Si4 0.485449 0.171931 0.933488
Si Si5 0.357754 0.030393 0.400039
Si Si6 0.853462 0.914806 0.061894
Si Si7 0.144601 0.686639 0.895055
Si Si8 0.396586 0.009627 0.763056
O O1 0.250000 0.576230 0.792761
O O2 0.134618 0.570423 0.567169
O O3 0.106842 0.527247 0.856560
O O4 0.113268 0.632890 0.814182
O O5 0.250000 0.881865 0.885136
O O6 0.426467 0.860910 0.884421
O O7 0.355841 0.951434 0.761234
O O8 0.467815 0.207265 0.774608
O O9 0.505373 0.285342 0.570776
O O10 0.616211 0.264128 0.787152
O O11 0.592325 0.196110 0.560453
O O12 0.412845 0.132168 0.996641
O O13 0.250000 0.030330 0.395249
O O14 0.382775 0.039214 0.589999
O O15 0.384400 0.065482 0.242777
O O16 0.750000 0.900927 0.076313
O O17 0.861109 0.958613 0.919606
O O18 0.250000 0.685367 0.916456
O O19 0.500000 0.000000 0.788923
#
# Coordination Sequence:
#
# PCOD9378842 Si02
#       8
#     8   8   8   8   8   8   8   8
#     4   9  18  32  54  84 122 170 210 248 309 382
#     4  11  21  37  61  91 136 180 212 257 322 402
#     4  10  23  39  57  83 125 164 217 296 327 387
#     4  11  24  44  64  92 123 167 224 274 348 396
#     4  10  22  40  63  94 131 172 217 269 324 389
#     4  11  24  47  72  95 132 175 220 276 334 392
#     4  10  19  33  55  86 123 174 221 259 324 398
#     4  12  24  39  64 103 140 176 215 262 324 399
#
# _framework density 20.162869000000001
#
# number of rings (size 3 to 8) (size 9 to 14) (size 15 to 20)
#    0.000    1.500    3.750    1.500    1.750    4.000 
#    4.500    0.625    0.000    0.000    0.000    0.000 
#    0.000    0.000    0.000    0.000    0.000    0.000 
#
# Total GULP energy -178569.854788 kJ/mol
# GULP energy per Si atom -5580.307962 kJ/mol
# Density = 2.011698 g / cm^3
# Si number density = 20.162869 Si / 1000 Ang^3
#
#
#
# Elastic Constant Matrix: (Units=GPa)
#
#
# Indices 1 2 3 4 5 6 
#
# 1 63.4221 32.8257 24.9635 -0.0019 -0.0002 0.0001
# 2 32.8257 99.7478 47.5815 -0.0023 -0.0001 0.0002
# 3 24.9635 47.5815 115.1419 0.0041 0.0005 0.0006
# 4 -0.0019 -0.0023 0.0041 -44.2352 0.0009 0.0006
# 5 -0.0002 -0.0001 0.0005 0.0009 14.1556 0.0000
# 6 0.0001 0.0002 0.0006 0.0006 0.0000 20.6820
#
#
#
# Elastic Compliance Matrix: (Units=1/GPa)
#
#
# Indices 1 2 3 4 5 6 
#
# 1 0.019349 -0.005438 -0.001948 -0.000001 0.000000 0.000000
# 2 -0.005438 0.014015 -0.004613 -0.000001 0.000000 0.000000
# 3 -0.001948 -0.004613 0.011013 0.000001 0.000000 0.000000
# 4 -0.000001 -0.000001 0.000001 -0.022606 0.000001 0.000001
# 5 0.000000 0.000000 0.000000 0.000001 0.070643 0.000000
# 6 0.000000 0.000000 0.000000 0.000001 0.000000 0.048351
#
#
# Mechanical properties :
#
#
# Convention : Reuss Voigt Hill
#
# Bulk Modulus (GPa) = 49.06729 54.33926 51.70328
# Shear Modulus (GPa) = 29.14501 9.64990 19.39745
#
# Velocity S-wave (km/s) = 3.80607 2.19006 3.10504
# Velocity P-wave (km/s) = 6.61084 5.77960 6.20915
#
# Compressibility (1/GPa) = 0.02038017
#
# Stress axis : x y z
#
# Youngs Moduli (GPa) = 51.68293 71.35056 90.79919
#
# Poissons Ratio (x) = 0.38803 0.17684
# Poissons Ratio (y) = 0.28107 0.41882
# Poissons Ratio (z) = 0.10065 0.32911
#
# Static dielectric constant tensor:
#      x y z
#    x 1.703820 0.000000 0.000000 
#    y 0.000000 1.733210 0.000000 
#    z 0.000000 0.000000 1.786480 
# 
# From -- ./inp_files/6115.got.cif
#   From: 2010.05.17/outbox.cif.g08.bks.cpg/sg46_4_cif.got.tgz:6115.got - 2010.06.03 19:58:25.
