data_PCOD9378038
_publ_section_title
;
Structure prediction by ZEFSAII (Michael W. Deem and Ramdas Pophale) SiO2 
 PCOD9378038
Probable space group: I M A 2
;
_chemical_formula_sum "Si O2"
_cell_formula_units_Z 56
_cell_length_a 8.743231
_cell_length_b 13.930493
_cell_length_c 29.895479
_cell_angle_alpha 90.000000
_cell_angle_beta 90.000000
_cell_angle_gamma 90.000000
_cell_volume 3641.195149
_symmetry_space_group_name_H-M "I M A 2"
_symmetry_group_IT_number 46
_symmetry_cell_setting 'orthorhombic'
loop_
_space_group_symop_operation_xyz
x,y,z
-x,-y,z
1/2-x,y,z
1/2+x,-y,z
1/2+x,1/2+y,1/2+z
1/2-x,1/2-y,1/2+z
-x,1/2+y,1/2+z
x,1/2-y,1/2+z
loop_
_atom_site_type_symbol
_atom_site_label
_atom_site_fract_x
_atom_site_fract_y
_atom_site_fract_z
Si Si1 0.432933 0.602989 0.517180
Si Si2 0.567054 0.108362 0.287718
Si Si3 0.067004 0.208161 0.102544
Si Si4 0.433536 0.107470 0.195512
Si Si5 0.567039 0.104498 0.560121
Si Si6 0.433131 0.704122 0.966381
Si Si7 0.567992 0.607427 0.879951
O O1 0.500000 0.500000 0.505032
O O2 0.250000 0.597998 0.520798
O O3 0.499287 0.637562 0.564798
O O4 0.470128 0.687742 0.482119
O O5 0.750000 0.106111 0.287992
O O6 0.504558 0.149891 0.241155
O O7 0.503368 0.149663 0.334159
O O8 0.500000 0.000000 0.287584
O O9 0.250000 0.209874 0.098011
O O10 0.029055 0.169222 0.151728
O O11 0.000659 0.313007 0.091844
O O12 0.250000 0.100906 0.200191
O O13 0.500000 0.000000 0.189454
O O14 0.750000 0.104059 0.564012
O O15 0.529464 0.137384 0.509237
O O16 0.500000 0.000000 0.569061
O O17 0.250000 0.697617 0.958843
O O18 0.520482 0.669011 0.922806
O O19 0.500000 0.500000 0.886041
O O20 0.750000 0.600274 0.875471
#
# Coordination Sequence:
#
# PCOD9378038 Si02
#       7
#     8   8   8   8   8   8   8
#     4  10  20  33  49  68  94 124 156 194 231 271
#     4  10  18  29  45  64  90 121 151 186 226 272
#     4  10  20  32  48  69  94 124 158 192 229 274
#     4  10  19  30  45  67  94 123 154 189 227 271
#     4  10  20  33  49  68  94 124 156 194 232 272
#     4   9  19  33  47  67  92 121 155 189 226 270
#     4  11  20  30  46  67  93 123 153 188 227 272
#
# _framework density 15.379566000000001
#
# number of rings (size 3 to 8) (size 9 to 14) (size 15 to 20)
#    0.000    2.000    0.000    7.714    0.000    8.000 
#    0.000    0.000    0.000    0.000    0.000    1.000 
#    0.000    2.286    0.000    0.000    0.000    0.000 
#
# Total GULP energy -156231.640628 kJ/mol
# GULP energy per Si atom -5579.701451 kJ/mol
# Density = 1.534456 g / cm^3
# Si number density = 15.379566 Si / 1000 Ang^3
#
#
#
# Elastic Constant Matrix: (Units=GPa)
#
#
# Indices 1 2 3 4 5 6 
#
# 1 95.8870 41.0957 72.7958 0.0000 0.0000 0.0000
# 2 41.0957 85.6222 55.6402 0.0000 0.0000 0.0000
# 3 72.7958 55.6402 142.7738 0.0000 0.0000 0.0000
# 4 0.0000 0.0000 0.0000 18.5076 0.0000 0.0000
# 5 0.0000 0.0000 0.0000 0.0000 25.0823 0.0000
# 6 0.0000 0.0000 0.0000 0.0000 0.0000 24.6369
#
#
#
# Elastic Compliance Matrix: (Units=1/GPa)
#
#
# Indices 1 2 3 4 5 6 
#
# 1 0.017782 -0.003539 -0.007687 0.000000 0.000000 0.000000
# 2 -0.003539 0.016344 -0.004565 0.000000 0.000000 0.000000
# 3 -0.007687 -0.004565 0.012702 0.000000 0.000000 0.000000
# 4 0.000000 0.000000 0.000000 0.054032 0.000000 0.000000
# 5 0.000000 0.000000 0.000000 0.000000 0.039869 0.000000
# 6 0.000000 0.000000 0.000000 0.000000 0.000000 0.040590
#
#
# Mechanical properties :
#
#
# Convention : Reuss Voigt Hill
#
# Bulk Modulus (GPa) = 65.59114 73.70517 69.64816
# Shear Modulus (GPa) = 22.93751 23.96210 23.44980
#
# Velocity S-wave (km/s) = 3.86609 3.95149 3.90903
# Velocity P-wave (km/s) = 7.91642 8.29742 8.10916
#
# Compressibility (1/GPa) = 0.01524596
#
# Stress axis : x y z
#
# Youngs Moduli (GPa) = 56.23757 61.18277 78.72479
#
# Poissons Ratio (x) = 0.21655 0.60516
# Poissons Ratio (y) = 0.19904 0.35938
# Poissons Ratio (z) = 0.43230 0.27930
#
# Static dielectric constant tensor:
#      x y z
#    x 1.513090 0.000000 0.000000 
#    y 0.000000 1.491490 0.000000 
#    z 0.000000 0.000000 1.528780 
# 
# From -- ./inp_files/25235.got.cif
#   From: 2010.05.17/outbox.cif.g08.bks.cpg/sg46_13_cif.got.tgz:25235.got - 2010.06.03 19:58:25.
