data_PCOD9378297
_publ_section_title
;
Structure prediction by ZEFSAII (Michael W. Deem and Ramdas Pophale) SiO2 
 PCOD9378297
Probable space group: I M A 2
;
_chemical_formula_sum "Si O2"
_cell_formula_units_Z 64
_cell_length_a 7.799490
_cell_length_b 21.431036
_cell_length_c 20.192816
_cell_angle_alpha 90.000000
_cell_angle_beta 90.000000
_cell_angle_gamma 90.000000
_cell_volume 3375.252436
_symmetry_space_group_name_H-M "I M A 2"
_symmetry_group_IT_number 46
_symmetry_cell_setting 'orthorhombic'
loop_
_space_group_symop_operation_xyz
x,y,z
-x,-y,z
1/2-x,y,z
1/2+x,-y,z
1/2+x,1/2+y,1/2+z
1/2-x,1/2-y,1/2+z
-x,1/2+y,1/2+z
x,1/2-y,1/2+z
loop_
_atom_site_type_symbol
_atom_site_label
_atom_site_fract_x
_atom_site_fract_y
_atom_site_fract_z
Si Si1 0.543555 0.431767 0.283380
Si Si2 0.048692 0.816760 0.698217
Si Si3 0.543009 0.113870 0.069147
Si Si4 0.040390 0.740790 0.065077
Si Si5 0.951697 0.694639 0.777338
Si Si6 0.543054 0.240696 0.417705
Si Si7 0.550245 0.569191 0.711518
Si Si8 0.458679 0.887016 0.922977
O O1 0.500000 0.500000 0.257739
O O2 0.750000 0.425681 0.286452
O O3 0.475844 0.375460 0.238105
O O4 0.478970 0.423945 0.358923
O O5 0.250000 0.830018 0.688332
O O6 0.976167 0.800286 0.626031
O O7 0.035283 0.754516 0.742403
O O8 0.750000 0.111855 0.069667
O O9 0.491077 0.186742 0.075709
O O10 0.481633 0.077155 0.133108
O O11 0.482869 0.092578 0.996173
O O12 0.250000 0.740652 0.065836
O O13 0.987852 0.720702 0.991393
O O14 0.750000 0.698639 0.761461
O O15 0.026036 0.629820 0.748602
O O16 0.973968 0.702346 0.855909
O O17 0.750000 0.238058 0.414731
O O18 0.496083 0.314082 0.412333
O O19 0.500000 0.500000 0.733046
O O20 0.750000 0.573387 0.723917
O O21 0.250000 0.889449 0.924448
#
# Coordination Sequence:
#
# PCOD9378297 Si02
#       8
#     8   8   8   8   8   8   8   8
#     4  10  20  33  49  71 103 138 172 207 245 293
#     4  10  18  33  57  78  99 134 175 213 254 302
#     4   9  16  30  53  76 102 133 168 209 252 301
#     4   8  15  28  53  83 102 126 169 213 251 302
#     4  11  22  34  51  79 108 132 167 216 263 306
#     4   9  16  31  54  78 103 131 169 210 253 307
#     4  11  24  38  51  72 104 138 175 215 258 310
#     4   8  15  29  49  75 103 133 171 209 243 294
#
# _framework density 18.961542999999999
#
# number of rings (size 3 to 8) (size 9 to 14) (size 15 to 20)
#    0.000    2.500    2.500    2.250    0.000    2.500 
#    0.000    5.000    0.000    0.750    0.000    3.500 
#    0.000    0.000    0.000    0.000    0.000    0.000 
#
# Total GULP energy -178474.880432 kJ/mol
# GULP energy per Si atom -5577.340013 kJ/mol
# Density = 1.891839 g / cm^3
# Si number density = 18.961543 Si / 1000 Ang^3
#
#
#
# Elastic Constant Matrix: (Units=GPa)
#
#
# Indices 1 2 3 4 5 6 
#
# 1 15.8021 -2.4029 -11.2229 0.0000 0.0000 0.0000
# 2 -2.4029 111.1646 56.3041 0.0000 0.0000 0.0000
# 3 -11.2229 56.3041 105.3658 0.0000 0.0000 0.0000
# 4 0.0000 0.0000 0.0000 20.5783 0.0000 0.0000
# 5 0.0000 0.0000 0.0000 0.0000 -84.3096 0.0000
# 6 0.0000 0.0000 0.0000 0.0000 0.0000 11.5571
#
#
#
# Elastic Compliance Matrix: (Units=1/GPa)
#
#
# Indices 1 2 3 4 5 6 
#
# 1 0.069217 -0.003068 0.009012 0.000000 0.000000 0.000000
# 2 -0.003068 0.012470 -0.006990 0.000000 0.000000 0.000000
# 3 0.009012 -0.006990 0.014186 0.000000 0.000000 0.000000
# 4 0.000000 0.000000 0.000000 0.048595 0.000000 0.000000
# 5 0.000000 0.000000 0.000000 0.000000 -0.011861 0.000000
# 6 0.000000 0.000000 0.000000 0.000000 0.000000 0.086527
#
#
# Mechanical properties :
#
#
# Convention : Reuss Voigt Hill
#
# Bulk Modulus (GPa) = 10.66334 35.29879 22.98106
# Shear Modulus (GPa) = 19.80306 2.20877 11.00592
#
# Velocity S-wave (km/s) = 3.23519 1.08046 2.41183
# Velocity P-wave (km/s) = 4.42619 4.49588 4.46117
#
# Compressibility (1/GPa) = 0.09377928
#
# Stress axis : x y z
#
# Youngs Moduli (GPa) = 14.44742 80.19307 70.49170
#
# Poissons Ratio (x) = 0.24606 -0.63528
# Poissons Ratio (y) = 0.04433 0.49276
# Poissons Ratio (z) = -0.13020 0.56058
#
# Static dielectric constant tensor:
#      x y z
#    x 1.702370 0.000000 0.000000 
#    y 0.000000 1.664440 0.000000 
#    z 0.000000 0.000000 1.685380 
# 
# From -- ./inp_files/21466.got.cif
#   From: 2010.05.17/outbox.cif.g08.bks.cpg/sg46_11_cif.got.tgz:21466.got - 2010.06.03 19:58:25.
