data_PCOD9378685
_publ_section_title
;
Structure prediction by ZEFSAII (Michael W. Deem and Ramdas Pophale) SiO2 
 PCOD9378685
Probable space group: I M A 2
;
_chemical_formula_sum "Si O2"
_cell_formula_units_Z 48
_cell_length_a 8.635892
_cell_length_b 9.675539
_cell_length_c 32.087103
_cell_angle_alpha 90.000000
_cell_angle_beta 90.000000
_cell_angle_gamma 90.000000
_cell_volume 2681.099173
_symmetry_space_group_name_H-M "I M A 2"
_symmetry_group_IT_number 46
_symmetry_cell_setting 'orthorhombic'
loop_
_space_group_symop_operation_xyz
x,y,z
-x,-y,z
1/2-x,y,z
1/2+x,-y,z
1/2+x,1/2+y,1/2+z
1/2-x,1/2-y,1/2+z
-x,1/2+y,1/2+z
x,1/2-y,1/2+z
loop_
_atom_site_type_symbol
_atom_site_label
_atom_site_fract_x
_atom_site_fract_y
_atom_site_fract_z
Si Si1 0.563496 0.344005 0.576000
Si Si2 0.064114 0.346297 0.817279
Si Si3 0.063905 0.845139 0.744860
Si Si4 0.564831 0.652514 0.913051
Si Si5 0.064048 0.844288 0.985201
Si Si6 0.562787 0.343839 0.667359
O O1 0.500000 0.500000 0.575811
O O2 0.750000 0.347165 0.576003
O O3 0.516399 0.284373 0.530961
O O4 0.515136 0.288211 0.621347
O O5 0.250000 0.348932 0.813978
O O6 0.021602 0.312007 0.865232
O O7 0.000000 0.500000 0.808153
O O8 0.995514 0.236609 0.785294
O O9 0.250000 0.849107 0.745326
O O10 0.012671 0.756437 0.704456
O O11 0.000000 0.000000 0.743555
O O12 0.500000 0.500000 0.921337
O O13 0.750000 0.650407 0.915390
O O14 0.499324 0.756378 0.947084
O O15 0.250000 0.847987 0.983477
O O16 0.000000 0.000000 0.982679
O O17 0.500000 0.500000 0.672620
O O18 0.750000 0.351766 0.668331
#
# Coordination Sequence:
#
# PCOD9378685 Si02
#       6
#     8   8   8   8   8   8
#     4   8  15  29  49  74 103 134 171 213 254 299
#     4  10  21  38  59  80 103 134 173 215 258 309
#     4  11  23  37  54  77 107 140 173 214 262 310
#     4  10  21  37  56  78 105 137 173 214 260 310
#     4  10  19  32  53  79 108 141 176 216 259 305
#     4   9  18  33  54  78 103 134 173 214 256 305
#
# _framework density 17.903106000000001
#
# number of rings (size 3 to 8) (size 9 to 14) (size 15 to 20)
#    0.000    2.333    0.000    2.500    0.000    6.000 
#    0.000    0.833    0.000    2.000    0.000    0.000 
#    0.000    0.000    0.000    0.000    0.000    0.000 
#
# Total GULP energy -133817.659309 kJ/mol
# GULP energy per Si atom -5575.735805 kJ/mol
# Density = 1.786236 g / cm^3
# Si number density = 17.903106 Si / 1000 Ang^3
#
#
#
# Elastic Constant Matrix: (Units=GPa)
#
#
# Indices 1 2 3 4 5 6 
#
# 1 38.9342 32.8742 47.7714 0.0000 0.0000 0.0000
# 2 32.8742 103.6118 111.6109 0.0000 0.0000 0.0000
# 3 47.7714 111.6109 183.8245 0.0000 0.0000 0.0000
# 4 0.0000 0.0000 0.0000 29.0807 0.0000 0.0000
# 5 0.0000 0.0000 0.0000 0.0000 31.9907 0.0000
# 6 0.0000 0.0000 0.0000 0.0000 0.0000 30.8100
#
#
#
# Elastic Compliance Matrix: (Units=1/GPa)
#
#
# Indices 1 2 3 4 5 6 
#
# 1 0.038311 -0.004135 -0.007445 0.000000 0.000000 0.000000
# 2 -0.004135 0.028343 -0.016134 0.000000 0.000000 0.000000
# 3 -0.007445 -0.016134 0.017171 0.000000 0.000000 0.000000
# 4 0.000000 0.000000 0.000000 0.034387 0.000000 0.000000
# 5 0.000000 0.000000 0.000000 0.000000 0.031259 0.000000
# 6 0.000000 0.000000 0.000000 0.000000 0.000000 0.032457
#
#
# Mechanical properties :
#
#
# Convention : Reuss Voigt Hill
#
# Bulk Modulus (GPa) = 35.21667 78.98707 57.10187
# Shear Modulus (GPa) = 20.25735 27.31721 23.78728
#
# Velocity S-wave (km/s) = 3.36743 3.91043 3.64904
# Velocity P-wave (km/s) = 5.90193 8.03764 7.05111
#
# Compressibility (1/GPa) = 0.02839565
#
# Stress axis : x y z
#
# Youngs Moduli (GPa) = 26.10190 35.28164 58.23812
#
# Poissons Ratio (x) = 0.14591 0.43360
# Poissons Ratio (y) = 0.10794 0.93963
# Poissons Ratio (z) = 0.19434 0.56924
#
# Static dielectric constant tensor:
#      x y z
#    x 1.603420 0.000000 0.000000 
#    y 0.000000 1.553520 0.000000 
#    z 0.000000 0.000000 1.658120 
# 
# From -- ./inp_files/24980.got.cif
#   From: 2010.05.17/outbox.cif.g08.bks.cpg/sg46_13_cif.got.tgz:24980.got - 2010.06.03 19:58:25.
