data_PCOD9378956
_publ_section_title
;
Structure prediction by ZEFSAII (Michael W. Deem and Ramdas Pophale) SiO2 
 PCOD9378956
Probable space group: I M A 2
;
_chemical_formula_sum "Si O2"
_cell_formula_units_Z 48
_cell_length_a 8.692812
_cell_length_b 14.101871
_cell_length_c 19.074343
_cell_angle_alpha 90.000000
_cell_angle_beta 90.000000
_cell_angle_gamma 90.000000
_cell_volume 2338.226686
_symmetry_space_group_name_H-M "I M A 2"
_symmetry_group_IT_number 46
_symmetry_cell_setting 'orthorhombic'
loop_
_space_group_symop_operation_xyz
x,y,z
-x,-y,z
1/2-x,y,z
1/2+x,-y,z
1/2+x,1/2+y,1/2+z
1/2-x,1/2-y,1/2+z
-x,1/2+y,1/2+z
x,1/2-y,1/2+z
loop_
_atom_site_type_symbol
_atom_site_label
_atom_site_fract_x
_atom_site_fract_y
_atom_site_fract_z
Si Si1 0.436618 0.245537 0.604850
Si Si2 0.935750 0.894985 0.716037
Si Si3 0.935426 0.897998 0.989530
Si Si4 0.933508 0.303240 0.356354
Si Si5 0.925564 0.904903 0.204517
Si Si6 0.927752 0.899630 0.372918
O O1 0.250000 0.239672 0.599672
O O2 0.483321 0.144905 0.638573
O O3 0.483859 0.306588 0.536975
O O4 0.492339 0.314114 0.667677
O O5 0.750000 0.893976 0.719525
O O6 0.995139 0.830150 0.780762
O O7 0.000000 0.000000 0.726022
O O8 0.750000 0.901848 0.989049
O O9 0.000623 0.877395 0.912459
O O10 0.000000 0.000000 0.013807
O O11 0.750000 0.307462 0.351876
O O12 0.983648 0.198768 0.384652
O O13 0.750000 0.906577 0.182417
O O14 0.930163 0.904048 0.288064
O O15 0.000000 0.000000 0.178889
O O16 0.750000 0.892072 0.396141
O O17 0.000000 0.000000 0.397763
#
# Coordination Sequence:
#
# PCOD9378956 Si02
#       6
#     8   8   8   8   8   8
#     4   9  19  37  60  85 118 156 196 245 307 367
#     4  11  22  41  64  91 122 158 205 259 313 372
#     4  11  23  41  64  91 123 164 204 252 312 372
#     4  12  24  40  61  90 125 167 212 256 305 366
#     4   9  16  29  50  80 113 147 182 229 286 345
#     4  10  19  34  57  87 122 157 197 248 302 357
#
# _framework density 20.528378
#
# number of rings (size 3 to 8) (size 9 to 14) (size 15 to 20)
#    0.000    1.667    1.667    4.000    0.000    0.667 
#    0.000    5.000    0.000    2.000    0.000    0.000 
#    0.000    0.000    0.000    0.000    0.000    0.000 
#
# Total GULP energy -133717.684436 kJ/mol
# GULP energy per Si atom -5571.570185 kJ/mol
# Density = 2.048165 g / cm^3
# Si number density = 20.528378 Si / 1000 Ang^3
#
#
#
# Elastic Constant Matrix: (Units=GPa)
#
#
# Indices 1 2 3 4 5 6 
#
# 1 82.8665 31.4193 24.7572 0.0000 0.0000 0.0000
# 2 31.4193 113.6662 30.4938 0.0000 0.0000 0.0000
# 3 24.7572 30.4938 77.5714 0.0000 0.0000 0.0000
# 4 0.0000 0.0000 0.0000 28.8041 0.0000 0.0000
# 5 0.0000 0.0000 0.0000 0.0000 2.3128 0.0000
# 6 0.0000 0.0000 0.0000 0.0000 0.0000 31.1987
#
#
#
# Elastic Compliance Matrix: (Units=1/GPa)
#
#
# Indices 1 2 3 4 5 6 
#
# 1 0.014217 -0.003032 -0.003345 0.000000 0.000000 0.000000
# 2 -0.003032 0.010482 -0.003153 0.000000 0.000000 0.000000
# 3 -0.003345 -0.003153 0.015198 0.000000 0.000000 0.000000
# 4 0.000000 0.000000 0.000000 0.034717 0.000000 0.000000
# 5 0.000000 0.000000 0.000000 0.000000 0.432378 0.000000
# 6 0.000000 0.000000 0.000000 0.000000 0.000000 0.032053
#
#
# Mechanical properties :
#
#
# Convention : Reuss Voigt Hill
#
# Bulk Modulus (GPa) = 47.99325 49.71606 48.85465
# Shear Modulus (GPa) = 8.84877 24.95870 16.90373
#
# Velocity S-wave (km/s) = 2.07843 3.49064 2.87266
# Velocity P-wave (km/s) = 5.40274 6.36528 5.90366
#
# Compressibility (1/GPa) = 0.02083627
#
# Stress axis : x y z
#
# Youngs Moduli (GPa) = 70.33949 95.40491 65.79666
#
# Poissons Ratio (x) = 0.28930 0.22011
# Poissons Ratio (y) = 0.21329 0.20743
# Poissons Ratio (z) = 0.23531 0.30078
#
# Static dielectric constant tensor:
#      x y z
#    x 1.701520 0.000000 0.000000 
#    y 0.000000 1.762370 0.000000 
#    z 0.000000 0.000000 1.758700 
# 
# From -- ./inp_files/18186.got.cif
#   From: 2010.05.17/outbox.cif.g08.bks.cpg/sg46_10_cif.got.tgz:18186.got - 2010.06.03 19:58:25.
