data_PCOD9378815
_publ_section_title
;
Structure prediction by ZEFSAII (Michael W. Deem and Ramdas Pophale) SiO2 
 PCOD9378815
Probable space group: I M A 2
;
_chemical_formula_sum "Si O2"
_cell_formula_units_Z 64
_cell_length_a 16.606469
_cell_length_b 9.084385
_cell_length_c 23.041030
_cell_angle_alpha 90.000000
_cell_angle_beta 90.000000
_cell_angle_gamma 90.000000
_cell_volume 3475.959599
_symmetry_space_group_name_H-M "I M A 2"
_symmetry_group_IT_number 46
_symmetry_cell_setting 'orthorhombic'
loop_
_space_group_symop_operation_xyz
x,y,z
-x,-y,z
1/2-x,y,z
1/2+x,-y,z
1/2+x,1/2+y,1/2+z
1/2-x,1/2-y,1/2+z
-x,1/2+y,1/2+z
x,1/2-y,1/2+z
loop_
_atom_site_type_symbol
_atom_site_label
_atom_site_fract_x
_atom_site_fract_y
_atom_site_fract_z
Si Si1 0.917443 0.093890 0.077170
Si Si2 0.656130 0.512489 0.354439
Si Si3 0.942111 0.795031 0.370657
Si Si4 0.941711 0.356040 0.447476
Si Si5 0.570317 0.189360 0.776257
Si Si6 0.502639 0.666521 0.149401
Si Si7 0.155301 0.506447 0.791137
Si Si8 0.156663 0.134699 0.163574
O O1 0.941543 0.237849 0.111852
O O2 0.857391 0.994563 0.115614
O O3 0.902039 0.139811 0.010809
O O4 0.000000 0.000000 0.074805
O O5 0.750000 0.511147 0.345888
O O6 0.627227 0.671726 0.376005
O O7 0.626883 0.389507 0.400364
O O8 0.611087 0.462207 0.296121
O O9 0.000152 0.779658 0.427574
O O10 0.000815 0.733253 0.321023
O O11 0.900448 0.939330 0.342845
O O12 0.000000 0.500000 0.443344
O O13 0.531309 0.175362 0.714123
O O14 0.633350 0.323637 0.780308
O O15 0.500000 0.500000 0.129047
O O16 0.591162 0.740171 0.149147
O O17 0.250000 0.488239 0.804478
O O18 0.139158 0.425096 0.729120
O O19 0.250000 0.181364 0.162064
#
# Coordination Sequence:
#
# PCOD9378815 Si02
#       8
#     8   8   8   8   8   8   8   8
#     4   9  18  36  60  81 109 148 200 242 285 347
#     4  10  20  34  52  78 110 145 185 232 285 341
#     4  10  19  33  55  78 110 142 185 232 285 342
#     4   8  17  34  56  82 106 145 194 237 279 344
#     4  11  20  34  51  75 108 151 188 224 283 358
#     4  11  21  36  56  81 114 157 192 244 302 358
#     4  11  21  33  51  81 114 145 186 237 294 352
#     4  10  21  36  56  84 114 149 197 246 297 354
#
# _framework density 18.412182000000001
#
# number of rings (size 3 to 8) (size 9 to 14) (size 15 to 20)
#    0.000    2.000    2.500    3.000    0.000    0.500 
#    0.000    3.750    0.000    0.750    0.000    0.000 
#    0.000    0.000    0.000    0.000    0.000    0.000 
#
# Total GULP energy -178330.527944 kJ/mol
# GULP energy per Si atom -5572.828998 kJ/mol
# Density = 1.837027 g / cm^3
# Si number density = 18.412182 Si / 1000 Ang^3
#
#
#
# Elastic Constant Matrix: (Units=GPa)
#
#
# Indices 1 2 3 4 5 6 
#
# 1 60.2599 14.0025 15.7815 0.0000 0.0000 0.0000
# 2 14.0025 72.7014 11.8265 0.0000 0.0000 0.0000
# 3 15.7815 11.8265 81.8775 0.0000 0.0000 0.0000
# 4 0.0000 0.0000 0.0000 20.9757 0.0000 0.0000
# 5 0.0000 0.0000 0.0000 0.0000 16.3819 0.0000
# 6 0.0000 0.0000 0.0000 0.0000 0.0000 20.7405
#
#
#
# Elastic Compliance Matrix: (Units=1/GPa)
#
#
# Indices 1 2 3 4 5 6 
#
# 1 0.018089 -0.002987 -0.003055 0.000000 0.000000 0.000000
# 2 -0.002987 0.014579 -0.001530 0.000000 0.000000 0.000000
# 3 -0.003055 -0.001530 0.013023 0.000000 0.000000 0.000000
# 4 0.000000 0.000000 0.000000 0.047674 0.000000 0.000000
# 5 0.000000 0.000000 0.000000 0.000000 0.061043 0.000000
# 6 0.000000 0.000000 0.000000 0.000000 0.000000 0.048215
#
#
# Mechanical properties :
#
#
# Convention : Reuss Voigt Hill
#
# Bulk Modulus (GPa) = 32.73657 33.11776 32.92716
# Shear Modulus (GPa) = 21.93462 23.16817 22.55140
#
# Velocity S-wave (km/s) = 3.45528 3.55111 3.50352
# Velocity P-wave (km/s) = 5.80836 5.90252 5.85563
#
# Compressibility (1/GPa) = 0.03054688
#
# Stress axis : x y z
#
# Youngs Moduli (GPa) = 55.28229 68.59138 76.78581
#
# Poissons Ratio (x) = 0.20488 0.23459
# Poissons Ratio (y) = 0.16513 0.11749
# Poissons Ratio (z) = 0.16889 0.10495
#
# Static dielectric constant tensor:
#      x y z
#    x 1.622680 0.000000 0.000000 
#    y 0.000000 1.681030 0.000000 
#    z 0.000000 0.000000 1.671410 
# 
# From -- ./inp_files/22204.got.cif
#   From: 2010.05.17/outbox.cif.g08.bks.cpg/sg46_12_cif.got.tgz:22204.got - 2010.06.03 19:58:25.
