data_PCOD9378553
_publ_section_title
;
Structure prediction by ZEFSAII (Michael W. Deem and Ramdas Pophale) SiO2 
 PCOD9378553
Probable space group: I M A 2
;
_chemical_formula_sum "Si O2"
_cell_formula_units_Z 64
_cell_length_a 7.739476
_cell_length_b 33.191445
_cell_length_c 10.619655
_cell_angle_alpha 90.000000
_cell_angle_beta 90.000000
_cell_angle_gamma 90.000000
_cell_volume 2728.023618
_symmetry_space_group_name_H-M "I M A 2"
_symmetry_group_IT_number 46
_symmetry_cell_setting 'orthorhombic'
loop_
_space_group_symop_operation_xyz
x,y,z
-x,-y,z
1/2-x,y,z
1/2+x,-y,z
1/2+x,1/2+y,1/2+z
1/2-x,1/2-y,1/2+z
-x,1/2+y,1/2+z
x,1/2-y,1/2+z
loop_
_atom_site_type_symbol
_atom_site_label
_atom_site_fract_x
_atom_site_fract_y
_atom_site_fract_z
Si Si1 0.548356 0.570276 0.670090
Si Si2 0.447012 0.757662 0.176907
Si Si3 0.038437 0.869490 0.523609
Si Si4 0.963103 0.213294 0.433372
Si Si5 0.455046 0.543008 0.398771
Si Si6 0.555811 0.454983 0.938146
Si Si7 0.452705 0.157946 0.076745
Si Si8 0.958635 0.129356 0.805397
O O1 0.750000 0.571837 0.704008
O O2 0.530941 0.546510 0.539227
O O3 0.452541 0.550396 0.786932
O O4 0.486708 0.615664 0.638045
O O5 0.250000 0.742757 0.191934
O O6 0.525980 0.760853 0.315178
O O7 0.447777 0.803619 0.127684
O O8 0.524662 0.731798 0.064716
O O9 0.250000 0.870208 0.519102
O O10 0.985645 0.833584 0.430459
O O11 0.970751 0.913914 0.489983
O O12 0.989071 0.857923 0.665999
O O13 0.750000 0.214964 0.430446
O O14 0.500000 0.500000 0.340898
O O15 0.250000 0.545550 0.411164
O O16 0.512663 0.582617 0.324154
O O17 0.500000 0.500000 0.970267
O O18 0.750000 0.452673 0.985314
O O19 0.250000 0.162835 0.105123
O O20 0.473656 0.153086 0.926275
O O21 0.750000 0.131394 0.811246
#
# Coordination Sequence:
#
# PCOD9378553 Si02
#       8
#     8   8   8   8   8   8   8   8
#     4  10  20  35  54  77 107 145 187 234 287 344
#     4  10  20  35  59  90 117 150 192 239 286 340
#     4   9  19  36  57  81 113 149 191 240 287 338
#     4   9  19  34  58  91 119 147 192 243 290 333
#     4  10  19  31  49  76 106 139 181 230 286 342
#     4  11  22  36  56  82 112 147 190 239 291 348
#     4  10  21  36  56  83 116 149 185 232 292 351
#     4   9  19  35  57  80 104 146 194 237 282 336
#
# _framework density 23.460208000000002
#
# number of rings (size 3 to 8) (size 9 to 14) (size 15 to 20)
#    0.000    2.250    0.000    2.625    1.750    3.500 
#    0.000    1.875    0.000    2.250    0.000    0.000 
#    0.000    0.000    0.000    0.000    0.000    0.000 
#
# Total GULP energy -178797.372705 kJ/mol
# GULP energy per Si atom -5587.417897 kJ/mol
# Density = 2.340681 g / cm^3
# Si number density = 23.460208 Si / 1000 Ang^3
#
#
#
# Elastic Constant Matrix: (Units=GPa)
#
#
# Indices 1 2 3 4 5 6 
#
# 1 38.9736 -0.2289 -3.2002 0.0001 0.0000 0.0000
# 2 -0.2289 100.3598 34.8165 0.0002 -0.0001 0.0000
# 3 -3.2002 34.8165 102.5805 0.0007 -0.0001 -0.0001
# 4 0.0001 0.0002 0.0007 17.5998 -0.0001 0.0000
# 5 0.0000 -0.0001 -0.0001 -0.0001 -3.8558 0.0001
# 6 0.0000 0.0000 -0.0001 0.0000 0.0001 14.1870
#
#
#
# Elastic Compliance Matrix: (Units=1/GPa)
#
#
# Indices 1 2 3 4 5 6 
#
# 1 0.025730 -0.000249 0.000887 0.000000 0.000000 0.000000
# 2 -0.000249 0.011296 -0.003842 0.000000 0.000000 0.000000
# 3 0.000887 -0.003842 0.011080 0.000000 0.000000 0.000000
# 4 0.000000 0.000000 0.000000 0.056819 -0.000001 0.000000
# 5 0.000000 0.000000 0.000000 -0.000001 -0.259347 0.000001
# 6 0.000000 0.000000 0.000000 0.000000 0.000001 0.070487
#
#
# Mechanical properties :
#
#
# Convention : Reuss Voigt Hill
#
# Bulk Modulus (GPa) = 23.98151 33.85429 28.91790
# Shear Modulus (GPa) = -78.58153 19.62130 -29.48012
#
# Velocity S-wave (km/s) = -5.79382 2.89514 -3.54870
# Velocity P-wave (km/s) = 5.87481 5.06336 2.10664
#
# Compressibility (1/GPa) = 0.04169879
#
# Stress axis : x y z
#
# Youngs Moduli (GPa) = 38.86550 88.52399 90.25216
#
# Poissons Ratio (x) = 0.02205 -0.08008
# Poissons Ratio (y) = 0.00968 0.34673
# Poissons Ratio (z) = -0.03448 0.34009
#
# Static dielectric constant tensor:
#      x y z
#    x 1.883490 0.000000 0.000000 
#    y 0.000000 1.905210 0.000000 
#    z 0.000000 0.000000 1.868090 
# 
# From -- ./inp_files/9757.got.cif
#   From: 2010.05.17/outbox.cif.g08.bks.cpg/sg46_5_cif.got.tgz:9757.got - 2010.06.03 19:58:25.
