data_PCOD9378373
_publ_section_title
;
Structure prediction by ZEFSAII (Michael W. Deem and Ramdas Pophale) SiO2 
 PCOD9378373
Probable space group: I M A 2
;
_chemical_formula_sum "Si O2"
_cell_formula_units_Z 64
_cell_length_a 16.676440
_cell_length_b 12.241700
_cell_length_c 16.425293
_cell_angle_alpha 90.000000
_cell_angle_beta 90.000000
_cell_angle_gamma 90.000000
_cell_volume 3353.190314
_symmetry_space_group_name_H-M "I M A 2"
_symmetry_group_IT_number 46
_symmetry_cell_setting 'orthorhombic'
loop_
_space_group_symop_operation_xyz
x,y,z
-x,-y,z
1/2-x,y,z
1/2+x,-y,z
1/2+x,1/2+y,1/2+z
1/2-x,1/2-y,1/2+z
-x,1/2+y,1/2+z
x,1/2-y,1/2+z
loop_
_atom_site_type_symbol
_atom_site_label
_atom_site_fract_x
_atom_site_fract_y
_atom_site_fract_z
Si Si1 0.347098 0.518449 0.236410
Si Si2 0.654317 0.229266 0.206789
Si Si3 0.111256 0.674705 0.523652
Si Si4 0.342742 0.407530 0.080665
Si Si5 0.464754 0.609238 0.830652
Si Si6 0.558713 0.747585 0.960331
Si Si7 0.335725 0.900960 0.459436
Si Si8 0.846140 0.535181 0.419165
O O1 0.250000 0.509667 0.234940
O O2 0.365154 0.641752 0.209635
O O3 0.375873 0.428450 0.171265
O O4 0.373830 0.499238 0.328533
O O5 0.750000 0.216738 0.224759
O O6 0.635812 0.181399 0.117654
O O7 0.595614 0.173090 0.271791
O O8 0.158258 0.772996 0.478419
O O9 0.129531 0.559423 0.482192
O O10 0.019283 0.706673 0.507097
O O11 0.250000 0.367750 0.083209
O O12 0.395243 0.333881 0.021206
O O13 0.339910 0.528363 0.040999
O O14 0.500000 0.500000 0.790297
O O15 0.528110 0.687119 0.877660
O O16 0.409036 0.565791 0.903892
O O17 0.614905 0.849410 0.939941
O O18 0.250000 0.925513 0.419926
O O19 0.750000 0.543388 0.419020
#
# Coordination Sequence:
#
# PCOD9378373 Si02
#       8
#     8   8   8   8   8   8   8   8
#     4   9  19  37  64  95 120 149 210 267 305 356
#     4  11  22  40  63  92 120 159 213 267 314 373
#     4  11  23  38  62  89 124 159 210 267 320 371
#     4  10  19  36  64  93 123 162 209 257 307 375
#     4  11  23  38  56  87 127 159 203 255 315 376
#     4  11  24  40  60  90 129 168 205 253 326 384
#     4  10  18  35  62  86 113 157 205 256 307 362
#     4  11  23  42  64  90 127 173 214 256 310 382
#
# _framework density 19.086300999999999
#
# number of rings (size 3 to 8) (size 9 to 14) (size 15 to 20)
#    0.000    1.500    2.500    3.750    0.000    3.000 
#    0.000    1.250    0.000    1.500    0.000    0.000 
#    0.000    0.000    0.000    0.000    0.000    0.000 
#
# Total GULP energy -178610.345359 kJ/mol
# GULP energy per Si atom -5581.573292 kJ/mol
# Density = 1.904286 g / cm^3
# Si number density = 19.086301 Si / 1000 Ang^3
#
#
#
# Elastic Constant Matrix: (Units=GPa)
#
#
# Indices 1 2 3 4 5 6 
#
# 1 80.3604 54.7060 35.7219 0.0000 0.0000 0.0000
# 2 54.7060 128.0658 63.1431 0.0000 0.0000 0.0000
# 3 35.7219 63.1431 114.0410 0.0000 0.0000 0.0000
# 4 0.0000 0.0000 0.0000 32.5212 0.0000 0.0000
# 5 0.0000 0.0000 0.0000 0.0000 16.8191 0.0000
# 6 0.0000 0.0000 0.0000 0.0000 0.0000 10.2945
#
#
#
# Elastic Compliance Matrix: (Units=1/GPa)
#
#
# Indices 1 2 3 4 5 6 
#
# 1 0.017835 -0.006691 -0.001882 0.000000 0.000000 0.000000
# 2 -0.006691 0.013251 -0.005241 0.000000 0.000000 0.000000
# 3 -0.001882 -0.005241 0.012260 0.000000 0.000000 0.000000
# 4 0.000000 0.000000 0.000000 0.030749 0.000000 0.000000
# 5 0.000000 0.000000 0.000000 0.000000 0.059456 0.000000
# 6 0.000000 0.000000 0.000000 0.000000 0.000000 0.097139
#
#
# Mechanical properties :
#
#
# Convention : Reuss Voigt Hill
#
# Bulk Modulus (GPa) = 63.61900 69.95656 66.78778
# Shear Modulus (GPa) = 18.97118 23.18671 21.07894
#
# Velocity S-wave (km/s) = 3.15615 3.48923 3.32686
# Velocity P-wave (km/s) = 6.83274 7.27773 7.05874
#
# Compressibility (1/GPa) = 0.01571858
#
# Stress axis : x y z
#
# Youngs Moduli (GPa) = 56.06830 75.46803 81.56505
#
# Poissons Ratio (x) = 0.50494 0.15351
# Poissons Ratio (y) = 0.37514 0.42748
# Poissons Ratio (z) = 0.10553 0.39552
#
# Static dielectric constant tensor:
#      x y z
#    x 1.689880 0.000000 0.000000 
#    y 0.000000 1.640420 0.000000 
#    z 0.000000 0.000000 1.670350 
# 
# From -- ./inp_files/16814.got.cif
#   From: 2010.05.17/outbox.cif.g08.bks.cpg/sg46_9_cif.got.tgz:16814.got - 2010.06.03 19:58:25.
