data_PCOD9378092
_publ_section_title
;
Structure prediction by ZEFSAII (Michael W. Deem and Ramdas Pophale) SiO2 
 PCOD9378092
Probable space group: I M A 2
;
_chemical_formula_sum "Si O2"
_cell_formula_units_Z 56
_cell_length_a 24.761026
_cell_length_b 29.006617
_cell_length_c 5.142177
_cell_angle_alpha 90.000000
_cell_angle_beta 90.000000
_cell_angle_gamma 90.000000
_cell_volume 3693.284287
_symmetry_space_group_name_H-M "I M A 2"
_symmetry_group_IT_number 46
_symmetry_cell_setting 'orthorhombic'
loop_
_space_group_symop_operation_xyz
x,y,z
-x,-y,z
1/2-x,y,z
1/2+x,-y,z
1/2+x,1/2+y,1/2+z
1/2-x,1/2-y,1/2+z
-x,1/2+y,1/2+z
x,1/2-y,1/2+z
loop_
_atom_site_type_symbol
_atom_site_label
_atom_site_fract_x
_atom_site_fract_y
_atom_site_fract_z
Si Si1 0.411204 0.995680 0.274080
Si Si2 0.033221 0.879478 0.730042
Si Si3 0.456360 0.723885 0.443239
Si Si4 0.250000 0.647012 0.614818
Si Si5 0.866602 0.049762 0.769533
Si Si6 0.250000 0.912034 0.620893
Si Si7 0.010805 0.075026 0.227205
Si Si8 0.827557 0.274811 0.514979
O O1 0.387208 0.986136 0.555302
O O2 0.463793 0.963110 0.253800
O O3 0.433027 0.047680 0.251594
O O4 0.373045 0.974802 0.048791
O O5 0.006331 0.888393 0.449071
O O6 0.092115 0.905752 0.748706
O O7 0.035287 0.826570 0.820129
O O8 0.995993 0.904567 0.942125
O O9 0.476481 0.760954 0.228636
O O10 0.391829 0.725132 0.493619
O O11 0.250000 0.630084 0.320715
O O12 0.197168 0.678935 0.633486
O O13 0.250000 0.606745 0.826449
O O14 0.805728 0.062558 0.692935
O O15 0.809991 0.264057 0.221582
#
# Coordination Sequence:
#
# PCOD9378092 Si02
#       8
#     8   8   8   4   8   4   8   8
#     4   9  17  31  47  66  86 106 130 174 225 264
#     4  10  18  30  46  65  86 110 142 184 221 256
#     4  10  20  31  43  59  83 113 143 176 217 264
#     4  12  22  33  46  58  78 100 144 198 232 263
#     4  10  20  32  46  62  87 112 141 179 219 263
#     4  12  24  33  44  64  84 116 146 174 220 273
#     4   9  17  28  48  69  84 103 134 174 225 267
#     4  10  20  33  46  58  73 102 143 188 236 272
#
# _framework density 15.162656999999999
#
# number of rings (size 3 to 8) (size 9 to 14) (size 15 to 20)
#    0.000    2.000    0.000    4.714    0.000    8.000 
#    0.000    0.000    0.000    0.000    0.000    0.000 
#    0.000    0.000    0.000    0.000    0.000    0.000 
#
# Total GULP energy -155904.412744 kJ/mol
# GULP energy per Si atom -5568.014741 kJ/mol
# Density = 1.512815 g / cm^3
# Si number density = 15.162657 Si / 1000 Ang^3
#
#
#
# Elastic Constant Matrix: (Units=GPa)
#
#
# Indices 1 2 3 4 5 6 
#
# 1 25.2495 24.7735 -2.5832 0.0000 0.0000 0.0000
# 2 24.7735 41.7799 0.6786 0.0000 0.0000 0.0000
# 3 -2.5832 0.6786 46.9855 0.0000 0.0000 0.0000
# 4 0.0000 0.0000 0.0000 2.0147 0.0000 0.0000
# 5 0.0000 0.0000 0.0000 0.0000 2.9620 0.0000
# 6 0.0000 0.0000 0.0000 0.0000 0.0000 20.3487
#
#
#
# Elastic Compliance Matrix: (Units=1/GPa)
#
#
# Indices 1 2 3 4 5 6 
#
# 1 0.096430 -0.057278 0.006129 0.000000 0.000000 0.000000
# 2 -0.057278 0.057963 -0.003986 0.000000 0.000000 0.000000
# 3 0.006129 -0.003986 0.021678 0.000000 0.000000 0.000000
# 4 0.000000 0.000000 0.000000 0.496343 0.000000 0.000000
# 5 0.000000 0.000000 0.000000 0.000000 0.337607 0.000000
# 6 0.000000 0.000000 0.000000 0.000000 0.000000 0.049143
#
#
# Mechanical properties :
#
#
# Convention : Reuss Voigt Hill
#
# Bulk Modulus (GPa) = 15.19759 17.75027 16.47393
# Shear Modulus (GPa) = 4.19686 11.14149 7.66918
#
# Velocity S-wave (km/s) = 1.66550 2.71366 2.25143
# Velocity P-wave (km/s) = 3.70720 4.64226 4.20083
#
# Compressibility (1/GPa) = 0.06579991
#
# Stress axis : x y z
#
# Youngs Moduli (GPa) = 10.37023 17.25245 46.13034
#
# Poissons Ratio (x) = 0.98818 -0.28273
# Poissons Ratio (y) = 0.59398 0.18389
# Poissons Ratio (z) = -0.06356 0.06877
#
# Static dielectric constant tensor:
#      x y z
#    x 1.489660 0.000000 0.000000 
#    y 0.000000 1.530240 0.000000 
#    z 0.000000 0.000000 1.534510 
# 
# From -- ./inp_files/2154.got.cif
#   From: 2010.05.17/outbox.cif.g08.bks.cpg/sg46_2_cif.got.tgz:2154.got - 2010.06.03 19:58:25.
