data_PCOD9378178
_publ_section_title
;
Structure prediction by ZEFSAII (Michael W. Deem and Ramdas Pophale) SiO2 
 PCOD9378178
Probable space group: I M A 2
;
_chemical_formula_sum "Si O2"
_cell_formula_units_Z 56
_cell_length_a 14.278037
_cell_length_b 7.670552
_cell_length_c 19.407785
_cell_angle_alpha 90.000000
_cell_angle_beta 90.000000
_cell_angle_gamma 90.000000
_cell_volume 2125.548867
_symmetry_space_group_name_H-M "I M A 2"
_symmetry_group_IT_number 46
_symmetry_cell_setting 'orthorhombic'
loop_
_space_group_symop_operation_xyz
x,y,z
-x,-y,z
1/2-x,y,z
1/2+x,-y,z
1/2+x,1/2+y,1/2+z
1/2-x,1/2-y,1/2+z
-x,1/2+y,1/2+z
x,1/2-y,1/2+z
loop_
_atom_site_type_symbol
_atom_site_label
_atom_site_fract_x
_atom_site_fract_y
_atom_site_fract_z
Si Si1 0.356447 0.577816 0.847900
Si Si2 0.352885 0.158847 0.858743
Si Si3 0.993783 0.249210 0.458083
Si Si4 0.852919 0.666646 0.058709
Si Si5 0.644435 0.085414 0.068220
Si Si6 0.358519 0.128351 0.709498
Si Si7 0.555117 0.321524 0.706450
O O1 0.250000 0.620462 0.866334
O O2 0.361893 0.366335 0.839937
O O3 0.428218 0.650411 0.903876
O O4 0.384969 0.661043 0.775258
O O5 0.250000 0.129483 0.889482
O O6 0.434048 0.134109 0.913070
O O7 0.357348 0.053217 0.787221
O O8 0.928590 0.346125 0.512707
O O9 0.066826 0.136283 0.503931
O O10 0.750000 0.636554 0.028199
O O11 0.861659 0.874266 0.077309
O O12 0.858191 0.563387 0.130546
O O13 0.750000 0.124912 0.046774
O O14 0.620621 0.179247 0.139994
O O15 0.250000 0.214551 0.710176
O O16 0.466218 0.195927 0.710536
O O17 0.500000 0.500000 0.698780
#
# Coordination Sequence:
#
# PCOD9378178 Si02
#       7
#     8   8   8   8   8   8   8
#     4  11  22  34  50  75 108 138 169 207 253 303
#     4  10  20  34  52  76 104 133 166 209 254 304
#     4  12  20  32  48  74 106 140 170 200 246 310
#     4  10  20  34  52  76 104 133 166 209 254 304
#     4  11  22  34  50  75 108 138 169 207 253 303
#     4  10  18  31  52  77 100 126 163 210 259 306
#     4  12  17  31  52  77  99 134 164 206 254 312
#
# _framework density 26.346136000000001
#
# number of rings (size 3 to 8) (size 9 to 14) (size 15 to 20)
#    0.000    1.143    5.714    2.143    0.000    0.000 
#    0.000    0.000    0.000    0.000    0.000   16.000 
#    0.000   36.571    0.000    0.000    0.000    0.000 
#
# Total GULP energy -156538.171654 kJ/mol
# GULP energy per Si atom -5590.648988 kJ/mol
# Density = 2.628617 g / cm^3
# Si number density = 26.346136 Si / 1000 Ang^3
#
#
#
# Elastic Constant Matrix: (Units=GPa)
#
#
# Indices 1 2 3 4 5 6 
#
# 1 228.5533 40.2989 92.6692 0.0000 0.0000 0.0000
# 2 40.2989 11.5552 -30.5505 0.0000 0.0000 0.0000
# 3 92.6692 -30.5505 166.1174 0.0000 0.0000 0.0000
# 4 0.0000 0.0000 0.0000 3.9098 0.0000 0.0000
# 5 0.0000 0.0000 0.0000 0.0000-1904.2705 0.0000
# 6 0.0000 0.0000 0.0000 0.0000 0.0000 17.9156
#
#
#
# Elastic Compliance Matrix: (Units=1/GPa)
#
#
# Indices 1 2 3 4 5 6 
#
# 1 -0.002653 0.025621 0.006192 0.000000 0.000000 0.000000
# 2 0.025621 -0.079021 -0.028825 0.000000 0.000000 0.000000
# 3 0.006192 -0.028825 -0.002735 0.000000 0.000000 0.000000
# 4 0.000000 0.000000 0.000000 0.255768 0.000000 0.000000
# 5 0.000000 0.000000 0.000000 0.000000 -0.000525 0.000000
# 6 0.000000 0.000000 0.000000 0.000000 0.000000 0.055817
#
#
# Mechanical properties :
#
#
# Convention : Reuss Voigt Hill
#
# Bulk Modulus (GPa) = -12.74938 67.89568 27.57315
# Shear Modulus (GPa) = 25.70267 -356.23513 -165.26623
#
# Velocity S-wave (km/s) = 3.12681 -11.64075 -7.92875
# Velocity P-wave (km/s) = 2.86116 12.44385 8.56339
#
# Compressibility (1/GPa) = -0.07843517
#
# Stress axis : x y z
#
# Youngs Moduli (GPa) = -376.99227 -12.65484 -365.57751
#
# Poissons Ratio (x) = 0.32422 2.26351
# Poissons Ratio (y) = 9.65878 -10.53787
# Poissons Ratio (z) = 2.33419 -0.36478
#
# Static dielectric constant tensor:
#      x y z
#    x 1.971410 0.000000 0.000000 
#    y 0.000000 2.192100 0.000000 
#    z 0.000000 0.000000 2.233300 
# 
# From -- ./inp_files/16053.got.cif
#   From: 2010.05.17/outbox.cif.g08.bks.cpg/sg46_9_cif.got.tgz:16053.got - 2010.06.03 19:58:25.
