data_PCOD9378506
_publ_section_title
;
Structure prediction by ZEFSAII (Michael W. Deem and Ramdas Pophale) SiO2 
 PCOD9378506
Probable space group: I M A 2
;
_chemical_formula_sum "Si O2"
_cell_formula_units_Z 64
_cell_length_a 8.434993
_cell_length_b 13.908024
_cell_length_c 23.844503
_cell_angle_alpha 90.000000
_cell_angle_beta 90.000000
_cell_angle_gamma 90.000000
_cell_volume 2797.296054
_symmetry_space_group_name_H-M "I M A 2"
_symmetry_group_IT_number 46
_symmetry_cell_setting 'orthorhombic'
loop_
_space_group_symop_operation_xyz
x,y,z
-x,-y,z
1/2-x,y,z
1/2+x,-y,z
1/2+x,1/2+y,1/2+z
1/2-x,1/2-y,1/2+z
-x,1/2+y,1/2+z
x,1/2-y,1/2+z
loop_
_atom_site_type_symbol
_atom_site_label
_atom_site_fract_x
_atom_site_fract_y
_atom_site_fract_z
Si Si1 0.562693 0.311119 0.869110
Si Si2 0.432024 0.898329 0.011148
Si Si3 0.934231 0.871839 0.128820
Si Si4 0.060551 0.313662 0.987136
Si Si5 0.934480 0.871021 0.725171
Si Si6 0.567360 0.857684 0.606493
Si Si7 0.059081 0.098276 0.845392
Si Si8 0.568667 0.857096 0.251123
O O1 0.750000 0.305235 0.869801
O O2 0.503028 0.352710 0.928265
O O3 0.494121 0.202017 0.867500
O O4 0.511698 0.365251 0.811759
O O5 0.250000 0.889300 0.994990
O O6 0.453578 0.903020 0.078566
O O7 0.500000 0.000000 0.991195
O O8 0.518635 0.800259 0.992539
O O9 0.750000 0.904620 0.122870
O O10 0.925112 0.756639 0.119031
O O11 0.995237 0.894935 0.191426
O O12 0.250000 0.321032 0.988055
O O13 0.996868 0.364917 0.044152
O O14 0.750000 0.902461 0.723062
O O15 0.009025 0.893768 0.664678
O O16 0.012553 0.905568 0.782187
O O17 0.928158 0.756889 0.737563
O O18 0.750000 0.892598 0.603903
O O19 0.250000 0.098996 0.844332
O O20 0.000000 0.000000 0.873017
O O21 0.750000 0.890698 0.256559
#
# Coordination Sequence:
#
# PCOD9378506 Si02
#       8
#     8   8   8   8   8   8   8   8
#     4  11  21  31  43  62  88 116 148 182 218 257
#     4  11  21  32  45  63  88 117 150 184 219 257
#     4   8  14  27  46  65  84 108 139 175 217 261
#     4  10  19  32  47  62  83 113 149 183 217 257
#     4   7  11  22  41  62  80 100 129 167 209 250
#     4   7  11  22  42  63  79  99 130 168 209 253
#     4  10  19  31  45  61  84 114 147 179 212 251
#     4   8  14  27  46  64  83 109 140 174 215 260
#
# _framework density 22.879237
#
# number of rings (size 3 to 8) (size 9 to 14) (size 15 to 20)
#    0.000    3.000    0.000    6.000    0.000    1.000 
#    0.000    2.500    0.000    2.250    0.000    0.000 
#    0.000    1.000    0.000    6.000    0.000    3.000 
#
# Total GULP energy -178255.991815 kJ/mol
# GULP energy per Si atom -5570.499744 kJ/mol
# Density = 2.282716 g / cm^3
# Si number density = 22.879237 Si / 1000 Ang^3
#
#
#
# Elastic Constant Matrix: (Units=GPa)
#
#
# Indices 1 2 3 4 5 6 
#
# 1 61.1919 -8.0137 28.9687 0.0000 0.0000 0.0000
# 2 -8.0137 28.1898 -5.9861 0.0000 0.0000 0.0000
# 3 28.9687 -5.9861 228.8802 0.0000 0.0000 0.0000
# 4 0.0000 0.0000 0.0000 -18.3405 0.0000 0.0000
# 5 0.0000 0.0000 0.0000 0.0000 5.3522 0.0000
# 6 0.0000 0.0000 0.0000 0.0000 0.0000 6.5086
#
#
#
# Elastic Compliance Matrix: (Units=1/GPa)
#
#
# Indices 1 2 3 4 5 6 
#
# 1 0.017970 0.004651 -0.002153 0.000000 0.000000 0.000000
# 2 0.004651 0.036876 0.000376 0.000000 0.000000 0.000000
# 3 -0.002153 0.000376 0.004651 0.000000 0.000000 0.000000
# 4 0.000000 0.000000 0.000000 -0.054524 0.000000 0.000000
# 5 0.000000 0.000000 0.000000 0.000000 0.186838 0.000000
# 6 0.000000 0.000000 0.000000 0.000000 0.000000 0.153643
#
#
# Mechanical properties :
#
#
# Convention : Reuss Voigt Hill
#
# Bulk Modulus (GPa) = 15.32655 38.68886 27.00770
# Shear Modulus (GPa) = 13.83299 18.92359 16.37829
#
# Velocity S-wave (km/s) = 2.46155 2.87907 2.67846
# Velocity P-wave (km/s) = 3.84609 5.29139 4.62554
#
# Compressibility (1/GPa) = 0.06524626
#
# Stress axis : x y z
#
# Youngs Moduli (GPa) = 55.64727 27.11800 214.98913
#
# Poissons Ratio (x) = -0.12614 0.46283
# Poissons Ratio (y) = -0.25884 -0.08078
# Poissons Ratio (z) = 0.11980 -0.01019
#
# Static dielectric constant tensor:
#      x y z
#    x 1.776840 0.000000 0.000000 
#    y 0.000000 1.930650 0.000000 
#    z 0.000000 0.000000 1.959960 
# 
# From -- ./inp_files/23312.got.cif
#   From: 2010.05.17/outbox.cif.g08.bks.cpg/sg46_12_cif.got.tgz:23312.got - 2010.06.03 19:58:25.
