data_PCOD9378978
_publ_section_title
;
Structure prediction by ZEFSAII (Michael W. Deem and Ramdas Pophale) SiO2 
 PCOD9378978
Probable space group: I M A 2
;
_chemical_formula_sum "Si O2"
_cell_formula_units_Z 64
_cell_length_a 16.241721
_cell_length_b 8.117408
_cell_length_c 23.166731
_cell_angle_alpha 90.000000
_cell_angle_beta 90.000000
_cell_angle_gamma 90.000000
_cell_volume 3054.317475
_symmetry_space_group_name_H-M "I M A 2"
_symmetry_group_IT_number 46
_symmetry_cell_setting 'orthorhombic'
loop_
_space_group_symop_operation_xyz
x,y,z
-x,-y,z
1/2-x,y,z
1/2+x,-y,z
1/2+x,1/2+y,1/2+z
1/2-x,1/2-y,1/2+z
-x,1/2+y,1/2+z
x,1/2-y,1/2+z
loop_
_atom_site_type_symbol
_atom_site_label
_atom_site_fract_x
_atom_site_fract_y
_atom_site_fract_z
Si Si1 0.392836 0.161732 0.570700
Si Si2 0.345470 0.524496 0.577637
Si Si3 0.059524 0.337729 0.258608
Si Si4 0.151766 0.178837 0.876354
Si Si5 0.528638 0.303156 0.655727
Si Si6 0.349274 0.861586 0.952236
Si Si7 0.836465 0.032754 0.675899
Si Si8 0.847748 0.504012 0.957484
O O1 0.348524 0.334668 0.558568
O O2 0.473932 0.214003 0.606410
O O3 0.399911 0.056558 0.513205
O O4 0.339054 0.057640 0.615012
O O5 0.250000 0.566359 0.593340
O O6 0.415506 0.552452 0.626920
O O7 0.371938 0.621630 0.519937
O O8 0.092982 0.297336 0.321434
O O9 0.138282 0.400270 0.222934
O O10 0.000000 0.500000 0.262024
O O11 0.021348 0.196360 0.216565
O O12 0.250000 0.157131 0.861797
O O13 0.145836 0.344528 0.913810
O O14 0.123939 0.016451 0.913080
O O15 0.597317 0.172013 0.671897
O O16 0.250000 0.872881 0.951478
O O17 0.372418 0.676202 0.933754
O O18 0.750000 0.108702 0.689864
O O19 0.750000 0.492250 0.974094
#
# Coordination Sequence:
#
# PCOD9378978 Si02
#       8
#     8   8   8   8   8   8   8   8
#     4  11  20  34  56  91 130 165 201 256 328 396
#     4  11  20  35  59  91 128 167 209 258 320 395
#     4   9  20  38  60  82 116 159 212 264 310 373
#     4  10  19  37  64  88 117 163 214 264 318 378
#     4  10  22  37  57  86 127 167 202 263 324 379
#     4   9  19  34  57  92 125 155 201 259 313 377
#     4  10  19  35  61  88 113 159 212 257 309 370
#     4  10  19  34  59  91 126 161 205 261 315 384
#
# _framework density 20.953944
#
# number of rings (size 3 to 8) (size 9 to 14) (size 15 to 20)
#    0.000    2.000    1.250    4.125    0.000    1.000 
#    2.250    0.000   22.000    0.000    0.000    0.000 
#    0.000    0.000    0.000    0.000    0.000    0.000 
#
# Total GULP energy -178387.149485 kJ/mol
# GULP energy per Si atom -5574.598421 kJ/mol
# Density = 2.090625 g / cm^3
# Si number density = 20.953944 Si / 1000 Ang^3
#
#
#
# Elastic Constant Matrix: (Units=GPa)
#
#
# Indices 1 2 3 4 5 6 
#
# 1 78.9301 3.7318 38.5155 0.0000 0.0000 0.0000
# 2 3.7318 100.6008 41.7747 0.0000 0.0000 0.0000
# 3 38.5155 41.7747 112.5751 0.0000 0.0000 0.0000
# 4 0.0000 0.0000 0.0000 20.7815 0.0000 0.0000
# 5 0.0000 0.0000 0.0000 0.0000 9.1430 0.0000
# 6 0.0000 0.0000 0.0000 0.0000 0.0000 18.6577
#
#
#
# Elastic Compliance Matrix: (Units=1/GPa)
#
#
# Indices 1 2 3 4 5 6 
#
# 1 0.015518 0.001926 -0.006024 0.000000 0.000000 0.000000
# 2 0.001926 0.011990 -0.005108 0.000000 0.000000 0.000000
# 3 -0.006024 -0.005108 0.012839 0.000000 0.000000 0.000000
# 4 0.000000 0.000000 0.000000 0.048120 0.000000 0.000000
# 5 0.000000 0.000000 0.000000 0.000000 0.109373 0.000000
# 6 0.000000 0.000000 0.000000 0.000000 0.000000 0.053597
#
#
# Mechanical properties :
#
#
# Convention : Reuss Voigt Hill
#
# Bulk Modulus (GPa) = 45.58937 51.12776 48.35856
# Shear Modulus (GPa) = 18.04003 23.58870 20.81436
#
# Velocity S-wave (km/s) = 2.93736 3.35885 3.15515
# Velocity P-wave (km/s) = 5.77133 6.28454 6.03340
#
# Compressibility (1/GPa) = 0.02193494
#
# Stress axis : x y z
#
# Youngs Moduli (GPa) = 64.44215 83.40274 77.88518
#
# Poissons Ratio (x) = -0.16061 0.46916
# Poissons Ratio (y) = -0.12410 0.39785
# Poissons Ratio (z) = 0.38818 0.42603
#
# Static dielectric constant tensor:
#      x y z
#    x 1.784150 0.000000 0.000000 
#    y 0.000000 1.786500 0.000000 
#    z 0.000000 0.000000 1.754880 
# 
# From -- ./inp_files/22222.got.cif
#   From: 2010.05.17/outbox.cif.g08.bks.cpg/sg46_12_cif.got.tgz:22222.got - 2010.06.03 19:58:25.
