data_PCOD9378172
_publ_section_title
;
Structure prediction by ZEFSAII (Michael W. Deem and Ramdas Pophale) SiO2 
 PCOD9378172
Probable space group: I M A 2
;
_chemical_formula_sum "Si O2"
_cell_formula_units_Z 56
_cell_length_a 17.416901
_cell_length_b 12.333797
_cell_length_c 15.190683
_cell_angle_alpha 90.000000
_cell_angle_beta 90.000000
_cell_angle_gamma 90.000000
_cell_volume 3263.209678
_symmetry_space_group_name_H-M "I M A 2"
_symmetry_group_IT_number 46
_symmetry_cell_setting 'orthorhombic'
loop_
_space_group_symop_operation_xyz
x,y,z
-x,-y,z
1/2-x,y,z
1/2+x,-y,z
1/2+x,1/2+y,1/2+z
1/2-x,1/2-y,1/2+z
-x,1/2+y,1/2+z
x,1/2-y,1/2+z
loop_
_atom_site_type_symbol
_atom_site_label
_atom_site_fract_x
_atom_site_fract_y
_atom_site_fract_z
Si Si1 0.339973 0.868521 0.179710
Si Si2 0.114257 0.880879 0.655710
Si Si3 0.160027 0.868520 0.848582
Si Si4 0.614258 0.119120 0.372582
Si Si5 0.507480 0.826867 0.514146
Si Si6 0.935149 0.087378 0.014146
Si Si7 0.165958 0.449103 0.014147
O O1 0.250000 0.892017 0.190995
O O2 0.348012 0.739702 0.156416
O O3 0.384897 0.901595 0.268573
O O4 0.380619 0.923597 0.098079
O O5 0.115103 0.901594 0.759719
O O6 0.158425 0.970719 0.598628
O O7 0.034304 0.872699 0.602236
O O8 0.250000 0.892016 0.837296
O O9 0.151988 0.739701 0.871876
O O10 0.119383 0.923596 0.930214
O O11 0.534304 0.127301 0.426056
O O12 0.658425 0.029281 0.429666
O O13 0.480872 0.702080 0.514146
O O14 0.595272 0.864844 0.514146
O O15 0.000000 0.000000 0.014145
O O16 0.250000 0.397618 0.014147
#
# Coordination Sequence:
#
# PCOD9378172 Si02
#       7
#     8   8   8   8   8   8   8
#     4  10  18  31  51  77  99 123 160 207 248 288
#     4   9  17  30  51  77 103 124 152 198 254 302
#     4  10  18  31  51  77  99 123 160 207 248 288
#     4   9  17  30  51  77 103 124 152 198 254 302
#     4   9  20  34  49  73 100 128 163 202 247 298
#     4  10  22  36  49  67  95 133 172 205 243 290
#     4  11  19  30  49  76 105 135 163 195 240 298
#
# _framework density 17.161019
#
# number of rings (size 3 to 8) (size 9 to 14) (size 15 to 20)
#    0.000    2.286    0.000    6.429    0.000    2.286 
#    0.000    1.429    0.000    0.000    0.000   20.000 
#    0.000    0.000    0.000    0.000    0.000    0.000 
#
# Total GULP energy -155887.648790 kJ/mol
# GULP energy per Si atom -5567.416028 kJ/mol
# Density = 1.712196 g / cm^3
# Si number density = 17.161019 Si / 1000 Ang^3
#
#
#
# Elastic Constant Matrix: (Units=GPa)
#
#
# Indices 1 2 3 4 5 6 
#
# 1 134.7884 21.4150 62.4158 0.0000 0.0000 0.0000
# 2 21.4150 24.0734 23.2478 0.0000 0.0000 0.0000
# 3 62.4158 23.2478 160.8465 0.0000 0.0000 0.0000
# 4 0.0000 0.0000 0.0000 2.5090 0.0000 0.0000
# 5 0.0000 0.0000 0.0000 0.0000 -1.8085 0.0000
# 6 0.0000 0.0000 0.0000 0.0000 0.0000 27.4897
#
#
#
# Elastic Compliance Matrix: (Units=1/GPa)
#
#
# Indices 1 2 3 4 5 6 
#
# 1 0.009694 -0.005801 -0.002923 0.000000 0.000000 0.000000
# 2 -0.005801 0.051749 -0.005229 0.000000 0.000000 0.000000
# 3 -0.002923 -0.005229 0.008107 0.000000 0.000000 0.000000
# 4 0.000000 0.000000 0.000000 0.398569 0.000000 0.000000
# 5 0.000000 0.000000 0.000000 0.000000 -0.552934 0.000000
# 6 0.000000 0.000000 0.000000 0.000000 0.000000 0.036377
#
#
# Mechanical properties :
#
#
# Convention : Reuss Voigt Hill
#
# Bulk Modulus (GPa) = 24.01231 59.31840 41.66535
# Shear Modulus (GPa) = -751.92319 19.81333 -366.05493
#
# Velocity S-wave (km/s) = -20.95492 3.40156 -14.62085
# Velocity P-wave (km/s) = 23.90514 7.07590 16.14601
#
# Compressibility (1/GPa) = 0.04164531
#
# Stress axis : x y z
#
# Youngs Moduli (GPa) = 103.15238 19.32401 123.34616
#
# Poissons Ratio (x) = 0.11209 0.36060
# Poissons Ratio (y) = 0.59835 0.64493
# Poissons Ratio (z) = 0.30156 0.10104
#
# Static dielectric constant tensor:
#      x y z
#    x 1.574840 0.000000 0.000000 
#    y 0.000000 1.590640 0.000000 
#    z 0.000000 0.000000 1.604200 
# 
# From -- ./inp_files/16073.got.cif
#   From: 2010.05.17/outbox.cif.g08.bks.cpg/sg46_9_cif.got.tgz:16073.got - 2010.06.03 19:58:25.
