data_PCOD9378147
_publ_section_title
;
Structure prediction by ZEFSAII (Michael W. Deem and Ramdas Pophale) SiO2 
 PCOD9378147
Probable space group: I M A 2
;
_chemical_formula_sum "Si O2"
_cell_formula_units_Z 56
_cell_length_a 14.582153
_cell_length_b 14.030961
_cell_length_c 14.969085
_cell_angle_alpha 90.000000
_cell_angle_beta 90.000000
_cell_angle_gamma 90.000000
_cell_volume 3062.699042
_symmetry_space_group_name_H-M "I M A 2"
_symmetry_group_IT_number 46
_symmetry_cell_setting 'orthorhombic'
loop_
_space_group_symop_operation_xyz
x,y,z
-x,-y,z
1/2-x,y,z
1/2+x,-y,z
1/2+x,1/2+y,1/2+z
1/2-x,1/2-y,1/2+z
-x,1/2+y,1/2+z
x,1/2-y,1/2+z
loop_
_atom_site_type_symbol
_atom_site_label
_atom_site_fract_x
_atom_site_fract_y
_atom_site_fract_z
Si Si1 0.355155 0.253858 0.455020
Si Si2 0.541319 0.261600 0.753816
Si Si3 0.852175 0.740996 0.157247
Si Si4 0.139660 0.832723 0.588167
Si Si5 0.980707 0.113779 0.417337
Si Si6 0.968248 0.908826 0.855946
Si Si7 0.145795 0.025444 0.690135
O O1 0.250000 0.231220 0.434939
O O2 0.361679 0.282146 0.558966
O O3 0.422437 0.167053 0.432400
O O4 0.392870 0.343521 0.401665
O O5 0.435987 0.268846 0.719687
O O6 0.600661 0.240507 0.664090
O O7 0.557885 0.349977 0.820700
O O8 0.542256 0.166309 0.816570
O O9 0.750000 0.760249 0.193870
O O10 0.858079 0.626848 0.140994
O O11 0.250000 0.821152 0.577219
O O12 0.085506 0.840892 0.494361
O O13 0.119770 0.936759 0.630335
O O14 0.000000 0.000000 0.422657
O O15 0.917456 0.959426 0.774067
O O16 0.000000 0.000000 0.912992
O O17 0.250000 0.009515 0.719570
#
# Coordination Sequence:
#
# PCOD9378147 Si02
#       7
#     8   8   8   8   8   8   8
#     4  10  20  35  58  89 121 156 201 252 305 367
#     4  10  21  37  58  86 121 160 197 250 313 368
#     4   9  17  32  57  85 118 152 191 244 305 366
#     4  11  22  37  60  86 119 160 204 253 307 371
#     4  11  24  39  63  92 123 162 211 265 317 375
#     4  10  18  30  53  85 120 151 183 241 299 369
#     4   9  17  29  51  82 110 144 188 241 299 347
#
# _framework density 18.284526
#
# number of rings (size 3 to 8) (size 9 to 14) (size 15 to 20)
#    0.000    2.000    2.857    1.286    2.000    5.714 
#    0.000    0.714    0.000    0.000    0.000    0.000 
#    0.000    0.000    0.000    0.000    0.000    0.000 
#
# Total GULP energy -155934.080717 kJ/mol
# GULP energy per Si atom -5569.074311 kJ/mol
# Density = 1.824291 g / cm^3
# Si number density = 18.284526 Si / 1000 Ang^3
#
#
#
# Elastic Constant Matrix: (Units=GPa)
#
#
# Indices 1 2 3 4 5 6 
#
# 1 94.1467 45.6480 59.2529 0.0000 0.0000 0.0000
# 2 45.6480 62.1612 41.9987 0.0000 0.0000 0.0000
# 3 59.2529 41.9987 95.5100 0.0000 0.0000 0.0000
# 4 0.0000 0.0000 0.0000 -38.0162 0.0000 0.0000
# 5 0.0000 0.0000 0.0000 0.0000 8.0773 0.0000
# 6 0.0000 0.0000 0.0000 0.0000 0.0000 18.8703
#
#
#
# Elastic Compliance Matrix: (Units=1/GPa)
#
#
# Indices 1 2 3 4 5 6 
#
# 1 0.020576 -0.009226 -0.008708 0.000000 0.000000 0.000000
# 2 -0.009226 0.027024 -0.006159 0.000000 0.000000 0.000000
# 3 -0.008708 -0.006159 0.018581 0.000000 0.000000 0.000000
# 4 0.000000 0.000000 0.000000 -0.026305 0.000000 0.000000
# 5 0.000000 0.000000 0.000000 0.000000 0.123803 0.000000
# 6 0.000000 0.000000 0.000000 0.000000 0.000000 0.052993
#
#
# Mechanical properties :
#
#
# Convention : Reuss Voigt Hill
#
# Bulk Modulus (GPa) = 55.57571 60.62414 58.09992
# Shear Modulus (GPa) = 18.45991 4.78085 11.62038
#
# Velocity S-wave (km/s) = 3.18085 1.61876 2.52371
# Velocity P-wave (km/s) = 6.62958 6.05985 6.35111
#
# Compressibility (1/GPa) = 0.01799347
#
# Stress axis : x y z
#
# Youngs Moduli (GPa) = 48.60142 37.00389 53.81936
#
# Poissons Ratio (x) = 0.34141 0.46864
# Poissons Ratio (y) = 0.44842 0.33150
# Poissons Ratio (z) = 0.42320 0.22792
#
# Static dielectric constant tensor:
#      x y z
#    x 1.677150 0.000000 0.000000 
#    y 0.000000 1.758560 0.000000 
#    z 0.000000 0.000000 1.685180 
# 
# From -- ./inp_files/15958.got.cif
#   From: 2010.05.17/outbox.cif.g08.bks.cpg/sg46_8_cif.got.tgz:15958.got - 2010.06.03 19:58:25.
