data_PCOD9378064
_publ_section_title
;
Structure prediction by ZEFSAII (Michael W. Deem and Ramdas Pophale) SiO2 
 PCOD9378064
Probable space group: I M A 2
;
_chemical_formula_sum "Si O2"
_cell_formula_units_Z 52
_cell_length_a 22.223875
_cell_length_b 16.789271
_cell_length_c 8.754678
_cell_angle_alpha 90.000000
_cell_angle_beta 90.000000
_cell_angle_gamma 90.000000
_cell_volume 3266.568743
_symmetry_space_group_name_H-M "I M A 2"
_symmetry_group_IT_number 46
_symmetry_cell_setting 'orthorhombic'
loop_
_space_group_symop_operation_xyz
x,y,z
-x,-y,z
1/2-x,y,z
1/2+x,-y,z
1/2+x,1/2+y,1/2+z
1/2-x,1/2-y,1/2+z
-x,1/2+y,1/2+z
x,1/2-y,1/2+z
loop_
_atom_site_type_symbol
_atom_site_label
_atom_site_fract_x
_atom_site_fract_y
_atom_site_fract_z
Si Si1 0.679337 0.174481 0.082920
Si Si2 0.497059 0.746264 0.195616
Si Si3 0.500000 0.000000 0.806717
Si Si4 0.580684 0.473912 0.019038
Si Si5 0.938146 0.144935 0.940737
Si Si6 0.179861 0.650176 0.945239
Si Si7 0.035003 0.131781 0.443083
O O1 0.750000 0.156492 0.052239
O O2 0.630344 0.125415 0.984554
O O3 0.668433 0.162382 0.263620
O O4 0.669144 0.266130 0.031279
O O5 0.463251 0.801640 0.076783
O O6 0.446853 0.698127 0.290155
O O7 0.533645 0.803351 0.309529
O O8 0.535869 0.682239 0.100489
O O9 0.556190 0.002636 0.687888
O O10 0.515554 0.073465 0.914023
O O11 0.582091 0.559315 0.934492
O O12 0.528733 0.416203 0.948760
O O13 0.639433 0.420708 0.010368
O O14 0.250000 0.631284 0.963157
#
# Coordination Sequence:
#
# PCOD9378064 Si02
#       7
#     8   8   4   8   8   8   8
#     4  10  21  33  49  76 104 139 182 211 243 302
#     4  10  18  29  48  70  92 129 167 199 256 307
#     4  10  22  32  46  72 102 132 172 208 266 298
#     4  10  18  33  46  69 100 132 160 217 251 306
#     4  11  19  32  47  69 100 136 162 212 249 303
#     4  10  21  35  52  74 104 141 179 210 250 305
#     4   9  18  30  48  68  98 124 163 205 256 306
#
# _framework density 15.918846
#
# number of rings (size 3 to 8) (size 9 to 14) (size 15 to 20)
#    0.000    2.154    3.077    3.692    2.154    2.462 
#    0.000    0.000    0.000    0.000    0.000    1.077 
#    0.000    0.000    0.000    0.000    0.000    0.000 
#
# Total GULP energy -144817.054812 kJ/mol
# GULP energy per Si atom -5569.886724 kJ/mol
# Density = 1.588261 g / cm^3
# Si number density = 15.918846 Si / 1000 Ang^3
#
#
#
# Elastic Constant Matrix: (Units=GPa)
#
#
# Indices 1 2 3 4 5 6 
#
# 1 66.6151 40.0395 31.3146 0.0000 0.0000 0.0000
# 2 40.0395 93.2016 39.9232 0.0000 0.0000 0.0000
# 3 31.3146 39.9232 73.4870 0.0000 0.0000 0.0000
# 4 0.0000 0.0000 0.0000 7.4661 0.0000 0.0000
# 5 0.0000 0.0000 0.0000 0.0000 17.1115 0.0000
# 6 0.0000 0.0000 0.0000 0.0000 0.0000 29.3056
#
#
#
# Elastic Compliance Matrix: (Units=1/GPa)
#
#
# Indices 1 2 3 4 5 6 
#
# 1 0.021807 -0.007022 -0.005478 0.000000 0.000000 0.000000
# 2 -0.007022 0.016245 -0.005833 0.000000 0.000000 0.000000
# 3 -0.005478 -0.005833 0.019111 0.000000 0.000000 0.000000
# 4 0.000000 0.000000 0.000000 0.133938 0.000000 0.000000
# 5 0.000000 0.000000 0.000000 0.000000 0.058440 0.000000
# 6 0.000000 0.000000 0.000000 0.000000 0.000000 0.034123
#
#
# Mechanical properties :
#
#
# Convention : Reuss Voigt Hill
#
# Bulk Modulus (GPa) = 48.78677 50.65092 49.71885
# Shear Modulus (GPa) = 15.28293 18.91174 17.09734
#
# Velocity S-wave (km/s) = 3.10183 3.45049 3.28080
# Velocity P-wave (km/s) = 6.59865 6.91099 6.75663
#
# Compressibility (1/GPa) = 0.02049736
#
# Stress axis : x y z
#
# Youngs Moduli (GPa) = 45.85637 61.55864 52.32612
#
# Poissons Ratio (x) = 0.43226 0.28663
# Poissons Ratio (y) = 0.32200 0.30522
# Poissons Ratio (z) = 0.25119 0.35907
#
# Static dielectric constant tensor:
#      x y z
#    x 1.545330 0.000000 0.000000 
#    y 0.000000 1.568110 0.000000 
#    z 0.000000 0.000000 1.590590 
# 
# From -- ./inp_files/8240.got.cif
#   From: 2010.05.17/outbox.cif.g08.bks.cpg/sg46_5_cif.got.tgz:8240.got - 2010.06.03 19:58:25.
