data_PCOD9378166
_publ_section_title
;
Structure prediction by ZEFSAII (Michael W. Deem and Ramdas Pophale) SiO2 
 PCOD9378166
Probable space group: I M A 2
;
_chemical_formula_sum "Si O2"
_cell_formula_units_Z 64
_cell_length_a 8.693110
_cell_length_b 19.181521
_cell_length_c 22.050249
_cell_angle_alpha 90.000000
_cell_angle_beta 90.000000
_cell_angle_gamma 90.000000
_cell_volume 3676.814458
_symmetry_space_group_name_H-M "I M A 2"
_symmetry_group_IT_number 46
_symmetry_cell_setting 'orthorhombic'
loop_
_space_group_symop_operation_xyz
x,y,z
-x,-y,z
1/2-x,y,z
1/2+x,-y,z
1/2+x,1/2+y,1/2+z
1/2-x,1/2-y,1/2+z
-x,1/2+y,1/2+z
x,1/2-y,1/2+z
loop_
_atom_site_type_symbol
_atom_site_label
_atom_site_fract_x
_atom_site_fract_y
_atom_site_fract_z
Si Si1 0.436628 0.923375 0.187760
Si Si2 0.070390 0.683599 0.583892
Si Si3 0.432715 0.214965 0.495364
Si Si4 0.065635 0.778835 0.871397
Si Si5 0.936263 0.367339 0.817661
Si Si6 0.073321 0.428220 0.504529
Si Si7 0.074295 0.073355 0.858344
Si Si8 0.065353 0.925582 0.447423
O O1 0.250000 0.926611 0.185687
O O2 0.483626 0.861293 0.141846
O O3 0.489256 0.901623 0.255280
O O4 0.500000 0.000000 0.172519
O O5 0.250000 0.699144 0.591233
O O6 0.983462 0.751192 0.559074
O O7 0.039372 0.630123 0.529102
O O8 0.250000 0.214291 0.491287
O O9 0.494529 0.259283 0.437167
O O10 0.501974 0.138300 0.486668
O O11 0.250000 0.779134 0.878164
O O12 0.021167 0.713623 0.828268
O O13 0.011576 0.853646 0.846557
O O14 0.750000 0.369098 0.816241
O O15 0.984906 0.408768 0.877944
O O16 0.250000 0.417817 0.525217
O O17 0.076176 0.429770 0.431888
O O18 0.000000 0.500000 0.526327
O O19 0.250000 0.077359 0.837177
O O20 0.000000 0.000000 0.837726
O O21 0.250000 0.925368 0.449157
O O22 0.000000 0.000000 0.465870
#
# Coordination Sequence:
#
# PCOD9378166 Si02
#       8
#     8   8   8   8   8   8   8   8
#     4  10  21  36  52  73 102 136 176 213 248 291
#     4  11  21  32  48  68  96 133 170 209 248 293
#     4  11  21  33  49  71 100 132 167 208 252 304
#     4  10  18  31  51  72  98 130 166 209 257 306
#     4   8  17  33  52  74 101 134 170 209 252 298
#     4  10  19  29  42  61  90 127 163 201 238 285
#     4  10  19  29  43  66  96 129 162 200 244 296
#     4  10  19  33  54  79 105 133 165 205 255 307
#
# _framework density 17.406372000000001
#
# number of rings (size 3 to 8) (size 9 to 14) (size 15 to 20)
#    0.000    2.000    1.250    4.500    0.000    3.000 
#    0.000    3.125    0.000    0.000    0.000    0.875 
#    0.000    4.000    0.000    0.000    0.000    0.000 
#
# Total GULP energy -178409.100035 kJ/mol
# GULP energy per Si atom -5575.284376 kJ/mol
# Density = 1.736675 g / cm^3
# Si number density = 17.406372 Si / 1000 Ang^3
#
#
#
# Elastic Constant Matrix: (Units=GPa)
#
#
# Indices 1 2 3 4 5 6 
#
# 1 68.3349 36.0524 16.6982 0.0000 0.0000 0.0000
# 2 36.0524 140.5613 36.8532 0.0000 0.0000 0.0000
# 3 16.6982 36.8532 58.8063 0.0000 0.0000 0.0000
# 4 0.0000 0.0000 0.0000 22.0159 0.0000 0.0000
# 5 0.0000 0.0000 0.0000 0.0000 8.6922 0.0000
# 6 0.0000 0.0000 0.0000 0.0000 0.0000 29.7167
#
#
#
# Elastic Compliance Matrix: (Units=1/GPa)
#
#
# Indices 1 2 3 4 5 6 
#
# 1 0.017236 -0.003754 -0.002541 0.000000 0.000000 0.000000
# 2 -0.003754 0.009331 -0.004782 0.000000 0.000000 0.000000
# 3 -0.002541 -0.004782 0.020723 0.000000 0.000000 0.000000
# 4 0.000000 0.000000 0.000000 0.045422 0.000000 0.000000
# 5 0.000000 0.000000 0.000000 0.000000 0.115046 0.000000
# 6 0.000000 0.000000 0.000000 0.000000 0.000000 0.033651
#
#
# Mechanical properties :
#
#
# Convention : Reuss Voigt Hill
#
# Bulk Modulus (GPa) = 39.78475 49.65667 44.72071
# Shear Modulus (GPa) = 18.38632 23.95819 21.17225
#
# Velocity S-wave (km/s) = 3.25360 3.71402 3.49141
# Velocity P-wave (km/s) = 6.08446 6.85432 6.48083
#
# Compressibility (1/GPa) = 0.02513526
#
# Stress axis : x y z
#
# Youngs Moduli (GPa) = 58.01950 107.17010 48.25542
#
# Poissons Ratio (x) = 0.40237 0.12263
# Poissons Ratio (y) = 0.21783 0.23073
# Poissons Ratio (z) = 0.14744 0.51243
#
# Static dielectric constant tensor:
#      x y z
#    x 1.620460 0.000000 0.000000 
#    y 0.000000 1.515410 0.000000 
#    z 0.000000 0.000000 1.596500 
# 
# From -- ./inp_files/23279.got.cif
#   From: 2010.05.17/outbox.cif.g08.bks.cpg/sg46_12_cif.got.tgz:23279.got - 2010.06.03 19:58:25.
