data_PCOD9378902
_publ_section_title
;
Structure prediction by ZEFSAII (Michael W. Deem and Ramdas Pophale) SiO2 
 PCOD9378902
Probable space group: I M A 2
;
_chemical_formula_sum "Si O2"
_cell_formula_units_Z 56
_cell_length_a 8.522921
_cell_length_b 14.997746
_cell_length_c 22.461576
_cell_angle_alpha 90.000000
_cell_angle_beta 90.000000
_cell_angle_gamma 90.000000
_cell_volume 2871.142065
_symmetry_space_group_name_H-M "I M A 2"
_symmetry_group_IT_number 46
_symmetry_cell_setting 'orthorhombic'
loop_
_space_group_symop_operation_xyz
x,y,z
-x,-y,z
1/2-x,y,z
1/2+x,-y,z
1/2+x,1/2+y,1/2+z
1/2-x,1/2-y,1/2+z
-x,1/2+y,1/2+z
x,1/2-y,1/2+z
loop_
_atom_site_type_symbol
_atom_site_label
_atom_site_fract_x
_atom_site_fract_y
_atom_site_fract_z
Si Si1 0.437898 0.282449 0.929790
Si Si2 0.560755 0.096493 0.761447
Si Si3 0.937684 0.404531 0.686435
Si Si4 0.438468 0.600607 0.038655
Si Si5 0.937881 0.096525 0.898737
Si Si6 0.941265 0.214822 0.652401
Si Si7 0.561510 0.596253 0.820641
O O1 0.250000 0.281764 0.931728
O O2 0.500828 0.182058 0.933826
O O3 0.486549 0.327223 0.866823
O O4 0.502304 0.344912 0.981777
O O5 0.750000 0.095494 0.761656
O O6 0.508196 0.108980 0.829660
O O7 0.507753 0.170937 0.714844
O O8 0.500000 0.000000 0.741292
O O9 0.750000 0.407809 0.686380
O O10 0.991218 0.317728 0.650095
O O11 0.000000 0.500000 0.665521
O O12 0.993053 0.391461 0.754692
O O13 0.500000 0.500000 0.038457
O O14 0.250000 0.598692 0.038323
O O15 0.492352 0.653780 0.097654
O O16 0.750000 0.095328 0.899837
O O17 0.000000 0.000000 0.918654
O O18 0.750000 0.214464 0.652327
O O19 0.500000 0.500000 0.842567
O O20 0.750000 0.593334 0.817012
#
# Coordination Sequence:
#
# PCOD9378902 Si02
#       7
#     8   8   8   8   8   8   8
#     4  11  23  38  56  80 110 146 189 231 273 324
#     4   9  17  31  52  80 111 142 176 216 267 324
#     4  10  19  34  55  80 110 141 177 220 269 325
#     4  11  23  40  60  82 109 142 182 226 274 325
#     4  10  20  35  57  84 114 147 182 224 274 327
#     4   9  19  35  55  78 107 144 181 219 267 323
#     4  10  20  33  52  80 112 144 180 224 274 328
#
# _framework density 19.504434
#
# number of rings (size 3 to 8) (size 9 to 14) (size 15 to 20)
#    0.000    2.000    0.000    4.714    0.000    5.143 
#    0.000    5.714    0.000    1.714    0.000    0.000 
#    0.000    0.000    0.000    0.000    0.000    0.000 
#
# Total GULP energy -156389.070202 kJ/mol
# GULP energy per Si atom -5585.323936 kJ/mol
# Density = 1.946004 g / cm^3
# Si number density = 19.504434 Si / 1000 Ang^3
#
#
#
# Elastic Constant Matrix: (Units=GPa)
#
#
# Indices 1 2 3 4 5 6 
#
# 1 43.3313 36.0661 14.6870 0.0000 0.0000 0.0000
# 2 36.0661 204.0053 63.2670 0.0000 0.0000 0.0000
# 3 14.6870 63.2670 44.0364 0.0000 0.0000 0.0000
# 4 0.0000 0.0000 0.0000 39.0140 0.0000 0.0000
# 5 0.0000 0.0000 0.0000 0.0000 13.6825 0.0000
# 6 0.0000 0.0000 0.0000 0.0000 0.0000 29.0166
#
#
#
# Elastic Compliance Matrix: (Units=1/GPa)
#
#
# Indices 1 2 3 4 5 6 
#
# 1 0.027433 -0.003630 -0.003935 0.000000 0.000000 0.000000
# 2 -0.003630 0.009321 -0.012181 0.000000 0.000000 0.000000
# 3 -0.003935 -0.012181 0.041522 0.000000 0.000000 0.000000
# 4 0.000000 0.000000 0.000000 0.025632 0.000000 0.000000
# 5 0.000000 0.000000 0.000000 0.000000 0.073086 0.000000
# 6 0.000000 0.000000 0.000000 0.000000 0.000000 0.034463
#
#
# Mechanical properties :
#
#
# Convention : Reuss Voigt Hill
#
# Bulk Modulus (GPa) = 25.78357 57.71257 41.74807
# Shear Modulus (GPa) = 18.94833 28.16615 23.55724
#
# Velocity S-wave (km/s) = 3.12025 3.80424 3.47910
# Velocity P-wave (km/s) = 5.12146 6.99643 6.13104
#
# Compressibility (1/GPa) = 0.03878439
#
# Stress axis : x y z
#
# Youngs Moduli (GPa) = 36.45292 107.28230 24.08390
#
# Poissons Ratio (x) = 0.38939 0.09476
# Poissons Ratio (y) = 0.13231 0.29337
# Poissons Ratio (z) = 0.14343 1.30683
#
# Static dielectric constant tensor:
#      x y z
#    x 1.662110 0.000000 0.000000 
#    y 0.000000 1.676280 0.000000 
#    z 0.000000 0.000000 1.675390 
# 
# From -- ./inp_files/21074.got.cif
#   From: 2010.05.17/outbox.cif.g08.bks.cpg/sg46_11_cif.got.tgz:21074.got - 2010.06.03 19:58:25.
