data_PCOD9378073
_publ_section_title
;
Structure prediction by ZEFSAII (Michael W. Deem and Ramdas Pophale) SiO2 
 PCOD9378073
Probable space group: I M A 2
;
_chemical_formula_sum "Si O2"
_cell_formula_units_Z 64
_cell_length_a 8.772333
_cell_length_b 30.898950
_cell_length_c 14.806754
_cell_angle_alpha 90.000000
_cell_angle_beta 90.000000
_cell_angle_gamma 90.000000
_cell_volume 4013.457717
_symmetry_space_group_name_H-M "I M A 2"
_symmetry_group_IT_number 46
_symmetry_cell_setting 'orthorhombic'
loop_
_space_group_symop_operation_xyz
x,y,z
-x,-y,z
1/2-x,y,z
1/2+x,-y,z
1/2+x,1/2+y,1/2+z
1/2-x,1/2-y,1/2+z
-x,1/2+y,1/2+z
x,1/2-y,1/2+z
loop_
_atom_site_type_symbol
_atom_site_label
_atom_site_fract_x
_atom_site_fract_y
_atom_site_fract_z
Si Si1 0.077006 0.827039 0.635700
Si Si2 0.928785 0.869974 0.469999
Si Si3 0.928655 0.276007 0.655427
Si Si4 0.571184 0.372616 0.329206
Si Si5 0.568754 0.546465 0.244595
Si Si6 0.432299 0.210186 0.349006
Si Si7 0.068480 0.953289 0.545424
Si Si8 0.565077 0.293717 0.453766
O O1 0.250000 0.836868 0.602847
O O2 0.061983 0.775822 0.645075
O O3 0.060626 0.847673 0.733790
O O4 0.958614 0.846013 0.565189
O O5 0.750000 0.878639 0.457750
O O6 0.980928 0.834865 0.396051
O O7 0.016944 0.915139 0.478822
O O8 0.750000 0.287069 0.667914
O O9 0.981318 0.294056 0.558685
O O10 0.018308 0.289002 0.744832
O O11 0.750000 0.382770 0.344620
O O12 0.478426 0.416445 0.314743
O O13 0.519451 0.337918 0.403542
O O14 0.500000 0.500000 0.270621
O O15 0.750000 0.543689 0.234823
O O16 0.496692 0.556870 0.145936
O O17 0.250000 0.213190 0.356857
O O18 0.502751 0.251452 0.401688
O O19 0.250000 0.955842 0.551270
O O20 0.000000 0.000000 0.520321
O O21 0.750000 0.290852 0.450187
#
# Coordination Sequence:
#
# PCOD9378073 Si02
#       8
#     8   8   8   8   8   8   8   8
#     4  10  18  29  50  73  99 134 172 213 250 291
#     4  11  22  34  48  72 103 138 174 208 249 301
#     4  10  20  35  53  72  98 136 178 217 254 298
#     4  10  19  32  49  74 103 134 172 211 252 299
#     4  11  21  33  50  73 102 135 168 206 251 304
#     4  11  23  34  49  74 105 137 171 214 258 300
#     4  11  21  34  52  74 101 133 166 207 253 302
#     4  10  20  35  54  74  99 135 178 216 252 301
#
# _framework density 15.946351
#
# number of rings (size 3 to 8) (size 9 to 14) (size 15 to 20)
#    0.000    1.500    3.750    3.750    0.000    3.000 
#    0.000    0.000    0.000    0.000    0.000    0.875 
#    0.000    6.000    0.000    0.000    0.000    0.000 
#
# Total GULP energy -178616.982348 kJ/mol
# GULP energy per Si atom -5581.780698 kJ/mol
# Density = 1.591006 g / cm^3
# Si number density = 15.946351 Si / 1000 Ang^3
#
#
#
# Elastic Constant Matrix: (Units=GPa)
#
#
# Indices 1 2 3 4 5 6 
#
# 1 67.8688 43.0784 28.6176 0.0000 0.0000 0.0000
# 2 43.0784 111.1595 53.3378 0.0000 0.0001 0.0000
# 3 28.6176 53.3378 84.7675 0.0000 -0.0001 0.0000
# 4 0.0000 0.0000 0.0000 23.1214 0.0000 0.0000
# 5 0.0000 0.0001 -0.0001 0.0000 14.1782 0.0000
# 6 0.0000 0.0000 0.0000 0.0000 0.0000 24.5684
#
#
#
# Elastic Compliance Matrix: (Units=1/GPa)
#
#
# Indices 1 2 3 4 5 6 
#
# 1 0.019957 -0.006448 -0.002680 0.000000 0.000000 0.000000
# 2 -0.006448 0.014970 -0.007243 0.000000 0.000000 0.000000
# 3 -0.002680 -0.007243 0.017259 0.000000 0.000000 0.000000
# 4 0.000000 0.000000 0.000000 0.043250 0.000000 0.000000
# 5 0.000000 0.000000 0.000000 0.000000 0.070531 0.000000
# 6 0.000000 0.000000 0.000000 0.000000 0.000000 0.040703
#
#
# Mechanical properties :
#
#
# Convention : Reuss Voigt Hill
#
# Bulk Modulus (GPa) = 51.42874 57.09594 54.26234
# Shear Modulus (GPa) = 20.33395 21.62439 20.97917
#
# Velocity S-wave (km/s) = 3.57479 3.68648 3.63107
# Velocity P-wave (km/s) = 7.02567 7.34867 7.18898
#
# Compressibility (1/GPa) = 0.01944438
#
# Stress axis : x y z
#
# Youngs Moduli (GPa) = 50.10705 66.79908 57.94010
#
# Poissons Ratio (x) = 0.43073 0.15530
# Poissons Ratio (y) = 0.32309 0.41965
# Poissons Ratio (z) = 0.13430 0.48381
#
# Static dielectric constant tensor:
#      x y z
#    x 1.552640 0.000000 0.000000 
#    y 0.000000 1.542140 0.000000 
#    z 0.000000 0.000000 1.519780 
# 
# From -- ./inp_files/14765.got.cif
#   From: 2010.05.17/outbox.cif.g08.bks.cpg/sg46_8_cif.got.tgz:14765.got - 2010.06.03 19:58:25.
