data_PCOD9378618
_publ_section_title
;
Structure prediction by ZEFSAII (Michael W. Deem and Ramdas Pophale) SiO2 
 PCOD9378618
Probable space group: I M A 2
;
_chemical_formula_sum "Si O2"
_cell_formula_units_Z 64
_cell_length_a 8.627561
_cell_length_b 28.209297
_cell_length_c 15.132014
_cell_angle_alpha 90.000000
_cell_angle_beta 90.000000
_cell_angle_gamma 90.000000
_cell_volume 3682.790688
_symmetry_space_group_name_H-M "I M A 2"
_symmetry_group_IT_number 46
_symmetry_cell_setting 'orthorhombic'
loop_
_space_group_symop_operation_xyz
x,y,z
-x,-y,z
1/2-x,y,z
1/2+x,-y,z
1/2+x,1/2+y,1/2+z
1/2-x,1/2-y,1/2+z
-x,1/2+y,1/2+z
x,1/2-y,1/2+z
loop_
_atom_site_type_symbol
_atom_site_label
_atom_site_fract_x
_atom_site_fract_y
_atom_site_fract_z
Si Si1 0.063186 0.279717 0.527010
Si Si2 0.936720 0.219791 0.218696
Si Si3 0.064104 0.635988 0.847296
Si Si4 0.435645 0.329661 0.026348
Si Si5 0.437509 0.362778 0.397047
Si Si6 0.063774 0.447400 0.726550
Si Si7 0.436766 0.052198 0.023976
Si Si8 0.564463 0.329148 0.217975
O O1 0.250000 0.280736 0.530574
O O2 0.014027 0.225356 0.511411
O O3 0.012538 0.315911 0.451367
O O4 0.000197 0.294641 0.622745
O O5 0.750000 0.219197 0.215815
O O6 0.988233 0.183029 0.293348
O O7 0.986424 0.274230 0.234245
O O8 0.250000 0.635434 0.848986
O O9 0.003231 0.590869 0.793744
O O10 0.000507 0.639650 0.946212
O O11 0.250000 0.331046 0.026544
O O12 0.497917 0.343444 0.122775
O O13 0.250000 0.362701 0.392784
O O14 0.487388 0.408219 0.454215
O O15 0.504058 0.360029 0.299082
O O16 0.250000 0.447580 0.731270
O O17 0.017577 0.435415 0.624984
O O18 0.000000 0.500000 0.744708
O O19 0.250000 0.050660 0.022457
O O20 0.500000 0.000000 0.004042
O O21 0.750000 0.330056 0.214684
#
# Coordination Sequence:
#
# PCOD9378618 Si02
#       8
#     8   8   8   8   8   8   8   8
#     4   9  18  31  49  73 102 134 171 210 250 298
#     4   9  19  32  47  71 105 138 169 206 250 297
#     4  11  21  33  51  76 104 136 172 210 251 302
#     4  10  20  34  51  72  99 135 173 212 254 297
#     4  10  19  32  50  74 101 131 167 208 250 296
#     4  10  20  36  56  79 106 135 166 205 252 303
#     4   9  19  34  53  76 104 133 163 202 249 298
#     4  10  20  34  50  71 100 136 173 211 252 297
#
# _framework density 17.378126999999999
#
# number of rings (size 3 to 8) (size 9 to 14) (size 15 to 20)
#    0.000    2.250    0.000    3.000    0.000    4.500 
#    0.000    0.000    0.000    0.750    0.000    3.500 
#    0.000    0.000    0.000    0.000    0.000    0.000 
#
# Total GULP energy -178643.368083 kJ/mol
# GULP energy per Si atom -5582.605253 kJ/mol
# Density = 1.733857 g / cm^3
# Si number density = 17.378127 Si / 1000 Ang^3
#
#
#
# Elastic Constant Matrix: (Units=GPa)
#
#
# Indices 1 2 3 4 5 6 
#
# 1 31.7285 28.7468 39.9983 0.0000 0.0000 0.0000
# 2 28.7468 81.6532 90.2019 0.0000 0.0000 0.0000
# 3 39.9983 90.2019 166.9838 0.0002 0.0001 0.0000
# 4 0.0000 0.0000 0.0002 29.7882 0.0000 0.0000
# 5 0.0000 0.0000 0.0001 0.0000 28.0746 0.0000
# 6 0.0000 0.0000 0.0000 0.0000 0.0000 23.8775
#
#
#
# Elastic Compliance Matrix: (Units=1/GPa)
#
#
# Indices 1 2 3 4 5 6 
#
# 1 0.048546 -0.010527 -0.005942 0.000000 0.000000 0.000000
# 2 -0.010527 0.032652 -0.015117 0.000000 0.000000 0.000000
# 3 -0.005942 -0.015117 0.015578 0.000000 0.000000 0.000000
# 4 0.000000 0.000000 0.000000 0.033570 0.000000 0.000000
# 5 0.000000 0.000000 0.000000 0.000000 0.035619 0.000000
# 6 0.000000 0.000000 0.000000 0.000000 0.000000 0.041880
#
#
# Mechanical properties :
#
#
# Convention : Reuss Voigt Hill
#
# Bulk Modulus (GPa) = 29.75786 66.47329 48.11558
# Shear Modulus (GPa) = 17.71675 24.44261 21.07968
#
# Velocity S-wave (km/s) = 3.19640 3.75442 3.48659
# Velocity P-wave (km/s) = 5.54829 7.55833 6.62993
#
# Compressibility (1/GPa) = 0.03360457
#
# Stress axis : x y z
#
# Youngs Moduli (GPa) = 20.59918 30.62558 64.19449
#
# Poissons Ratio (x) = 0.32240 0.38143
# Poissons Ratio (y) = 0.21685 0.97041
# Poissons Ratio (z) = 0.12240 0.46296
#
# Static dielectric constant tensor:
#      x y z
#    x 1.585580 0.000000 0.000000 
#    y 0.000000 1.580930 0.000000 
#    z 0.000000 0.000000 1.574040 
# 
# From -- ./inp_files/14448.got.cif
#   From: 2010.05.17/outbox.cif.g08.bks.cpg/sg46_8_cif.got.tgz:14448.got - 2010.06.03 19:58:25.
