data_PCOD9378562
_publ_section_title
;
Structure prediction by ZEFSAII (Michael W. Deem and Ramdas Pophale) SiO2 
 PCOD9378562
Probable space group: I M A 2
;
_chemical_formula_sum "Si O2"
_cell_formula_units_Z 56
_cell_length_a 8.052258
_cell_length_b 24.593483
_cell_length_c 14.257588
_cell_angle_alpha 90.000000
_cell_angle_beta 90.000000
_cell_angle_gamma 90.000000
_cell_volume 2823.473926
_symmetry_space_group_name_H-M "I M A 2"
_symmetry_group_IT_number 46
_symmetry_cell_setting 'orthorhombic'
loop_
_space_group_symop_operation_xyz
x,y,z
-x,-y,z
1/2-x,y,z
1/2+x,-y,z
1/2+x,1/2+y,1/2+z
1/2-x,1/2-y,1/2+z
-x,1/2+y,1/2+z
x,1/2-y,1/2+z
loop_
_atom_site_type_symbol
_atom_site_label
_atom_site_fract_x
_atom_site_fract_y
_atom_site_fract_z
Si Si1 0.551323 0.332795 0.507540
Si Si2 0.549029 0.875435 0.299337
Si Si3 0.551001 0.229257 0.188956
Si Si4 0.551834 0.938366 0.113884
Si Si5 0.449678 0.832629 0.797680
Si Si6 0.950360 0.938572 0.479228
Si Si7 0.551625 0.561010 0.192258
O O1 0.750000 0.325311 0.504635
O O2 0.484036 0.293454 0.589799
O O3 0.518261 0.394291 0.541356
O O4 0.485347 0.323628 0.403118
O O5 0.750000 0.873508 0.300389
O O6 0.485028 0.817073 0.266115
O O7 0.498094 0.917809 0.217459
O O8 0.490239 0.896788 0.400069
O O9 0.750000 0.233509 0.179027
O O10 0.485940 0.286729 0.226078
O O11 0.750000 0.934917 0.110223
O O12 0.500000 0.000000 0.096628
O O13 0.250000 0.827112 0.801171
O O14 0.488603 0.892442 0.760605
O O15 0.750000 0.936109 0.480711
O O16 0.010928 0.928781 0.585409
O O17 0.000000 0.000000 0.453012
O O18 0.500000 0.500000 0.219000
O O19 0.750000 0.563170 0.190513
#
# Coordination Sequence:
#
# PCOD9378562 Si02
#       7
#     8   8   8   8   8   8   8
#     4   9  19  36  54  74 104 137 169 209 255 304
#     4   9  18  32  50  75 107 139 172 211 255 304
#     4   9  19  35  54  77 104 134 171 212 253 301
#     4  10  19  31  50  76 105 138 175 214 256 302
#     4  10  21  37  57  79 103 134 170 209 255 305
#     4   9  18  32  50  75 106 138 172 211 256 305
#     4  10  21  37  56  78 105 136 171 212 256 303
#
# _framework density 19.833724
#
# number of rings (size 3 to 8) (size 9 to 14) (size 15 to 20)
#    0.000    2.571    0.000    1.286    0.000    4.571 
#    0.000    1.429    0.000    0.000    0.000    0.000 
#    0.000    0.000    0.000    0.000    0.000    0.000 
#
# Total GULP energy -156236.440974 kJ/mol
# GULP energy per Si atom -5579.872892 kJ/mol
# Density = 1.978858 g / cm^3
# Si number density = 19.833724 Si / 1000 Ang^3
#
#
#
# Elastic Constant Matrix: (Units=GPa)
#
#
# Indices 1 2 3 4 5 6 
#
# 1 10.6953 0.1918 9.7908 0.0000 0.0000 0.0000
# 2 0.1918 123.0072 84.8475 0.0000 0.0000 0.0000
# 3 9.7908 84.8475 117.0744 0.0001 0.0000 0.0000
# 4 0.0000 0.0000 0.0001 10.9118 0.0000 0.0000
# 5 0.0000 0.0000 0.0000 0.0000 15.3868 0.0000
# 6 0.0000 0.0000 0.0000 0.0000 0.0000 21.5722
#
#
#
# Elastic Compliance Matrix: (Units=1/GPa)
#
#
# Indices 1 2 3 4 5 6 
#
# 1 0.109870 0.012331 -0.018125 0.000000 0.000000 0.000000
# 2 0.012331 0.017640 -0.013815 0.000000 0.000000 0.000000
# 3 -0.018125 -0.013815 0.020070 0.000000 0.000000 0.000000
# 4 0.000000 0.000000 0.000000 0.091644 0.000000 0.000000
# 5 0.000000 0.000000 0.000000 0.000000 0.064991 0.000000
# 6 0.000000 0.000000 0.000000 0.000000 0.000000 0.046356
#
#
# Mechanical properties :
#
#
# Convention : Reuss Voigt Hill
#
# Bulk Modulus (GPa) = 9.22842 48.93744 29.08293
# Shear Modulus (GPa) = 11.73958 19.97062 15.85510
#
# Velocity S-wave (km/s) = 2.43554 3.17661 2.83044
# Velocity P-wave (km/s) = 3.54572 6.17915 5.03756
#
# Compressibility (1/GPa) = 0.10836086
#
# Stress axis : x y z
#
# Youngs Moduli (GPa) = 9.10166 56.68955 49.82609
#
# Poissons Ratio (x) = -0.69903 0.90309
# Poissons Ratio (y) = -0.11223 0.68837
# Poissons Ratio (z) = 0.16497 0.78319
#
# Static dielectric constant tensor:
#      x y z
#    x 1.706490 0.000000 0.000000 
#    y 0.000000 1.674310 0.000000 
#    z 0.000000 0.000000 1.722710 
# 
# From -- ./inp_files/14146.got.cif
#   From: 2010.05.17/outbox.cif.g08.bks.cpg/sg46_8_cif.got.tgz:14146.got - 2010.06.03 19:58:25.
