data_PCOD9378875
_publ_section_title
;
Structure prediction by ZEFSAII (Michael W. Deem and Ramdas Pophale) SiO2 
 PCOD9378875
Probable space group: I M A 2
;
_chemical_formula_sum "Si O2"
_cell_formula_units_Z 64
_cell_length_a 13.495843
_cell_length_b 18.513391
_cell_length_c 12.329831
_cell_angle_alpha 90.000000
_cell_angle_beta 90.000000
_cell_angle_gamma 90.000000
_cell_volume 3080.655355
_symmetry_space_group_name_H-M "I M A 2"
_symmetry_group_IT_number 46
_symmetry_cell_setting 'orthorhombic'
loop_
_space_group_symop_operation_xyz
x,y,z
-x,-y,z
1/2-x,y,z
1/2+x,-y,z
1/2+x,1/2+y,1/2+z
1/2-x,1/2-y,1/2+z
-x,1/2+y,1/2+z
x,1/2-y,1/2+z
loop_
_atom_site_type_symbol
_atom_site_label
_atom_site_fract_x
_atom_site_fract_y
_atom_site_fract_z
Si Si1 0.003208 0.755908 0.673090
Si Si2 0.365139 0.870149 0.551287
Si Si3 0.632890 0.866723 0.063183
Si Si4 0.631334 0.526333 0.127719
Si Si5 0.138793 0.502334 0.716424
Si Si6 0.562669 0.358057 0.816085
Si Si7 0.640065 0.610748 0.909682
Si Si8 0.131871 0.365632 0.306358
O O1 0.935645 0.695888 0.613141
O O2 0.932316 0.804207 0.748481
O O3 0.064605 0.806965 0.593548
O O4 0.082246 0.712048 0.745749
O O5 0.250000 0.860299 0.582875
O O6 0.405214 0.946761 0.597519
O O7 0.371604 0.872144 0.421086
O O8 0.750000 0.849804 0.082168
O O9 0.616021 0.943690 0.123095
O O10 0.615454 0.871024 0.934622
O O11 0.750000 0.517768 0.129011
O O12 0.604070 0.561132 0.241932
O O13 0.615514 0.582323 0.029069
O O14 0.250000 0.530117 0.693900
O O15 0.070549 0.570869 0.741049
O O16 0.143394 0.457576 0.828898
O O17 0.451279 0.345676 0.862012
O O18 0.750000 0.644935 0.908582
O O19 0.250000 0.352865 0.289031
#
# Coordination Sequence:
#
# PCOD9378875 Si02
#       8
#     8   8   8   8   8   8   8   8
#     4  12  25  39  61  92 127 172 211 248 309 380
#     4  11  25  44  63  88 123 164 214 268 313 368
#     4  10  22  42  64  94 133 163 202 261 321 379
#     4   9  19  38  64  90 116 152 207 260 311 367
#     4  10  20  37  63  93 122 160 207 266 317 359
#     4  12  23  38  65  93 125 165 212 260 316 379
#     4  10  19  33  61  99 126 152 200 267 324 365
#     4  10  22  41  64  93 128 166 203 254 323 385
#
# _framework density 20.774799999999999
#
# number of rings (size 3 to 8) (size 9 to 14) (size 15 to 20)
#    0.000    1.500    2.500    2.625    0.000    3.000 
#    0.000    6.875    0.000    1.500    0.000    0.000 
#    0.000    0.000    0.000    0.000    0.000    0.000 
#
# Total GULP energy -178773.605639 kJ/mol
# GULP energy per Si atom -5586.675176 kJ/mol
# Density = 2.072752 g / cm^3
# Si number density = 20.774800 Si / 1000 Ang^3
#
#
#
# Elastic Constant Matrix: (Units=GPa)
#
#
# Indices 1 2 3 4 5 6 
#
# 1 86.4928 29.3915 36.4118 0.0000 0.0000 0.0000
# 2 29.3915 110.8013 65.4219 0.0000 0.0000 0.0000
# 3 36.4118 65.4219 127.7400 0.0000 0.0000 0.0000
# 4 0.0000 0.0000 0.0000 25.5537 0.0000 0.0000
# 5 0.0000 0.0000 0.0000 0.0000 26.9441 0.0000
# 6 0.0000 0.0000 0.0000 0.0000 0.0000 29.2689
#
#
#
# Elastic Compliance Matrix: (Units=1/GPa)
#
#
# Indices 1 2 3 4 5 6 
#
# 1 0.013401 -0.001863 -0.002866 0.000000 0.000000 0.000000
# 2 -0.001863 0.013196 -0.006228 0.000000 0.000000 0.000000
# 3 -0.002866 -0.006228 0.011835 0.000000 0.000000 0.000000
# 4 0.000000 0.000000 0.000000 0.039133 0.000000 0.000000
# 5 0.000000 0.000000 0.000000 0.000000 0.037114 0.000000
# 6 0.000000 0.000000 0.000000 0.000000 0.000000 0.034166
#
#
# Mechanical properties :
#
#
# Convention : Reuss Voigt Hill
#
# Bulk Modulus (GPa) = 60.53313 65.27603 62.90458
# Shear Modulus (GPa) = 28.36651 29.27392 28.82022
#
# Velocity S-wave (km/s) = 3.69918 3.75788 3.72865
# Velocity P-wave (km/s) = 6.88813 7.09351 6.99157
#
# Compressibility (1/GPa) = 0.01651988
#
# Stress axis : x y z
#
# Youngs Moduli (GPa) = 74.62055 75.77915 84.49690
#
# Poissons Ratio (x) = 0.14115 0.24217
# Poissons Ratio (y) = 0.13899 0.52621
# Poissons Ratio (z) = 0.21386 0.47192
#
# Static dielectric constant tensor:
#      x y z
#    x 1.810740 0.000000 0.000000 
#    y 0.000000 1.725390 0.000000 
#    z 0.000000 0.000000 1.726110 
# 
# From -- ./inp_files/11334.got.cif
#   From: 2010.05.17/outbox.cif.g08.bks.cpg/sg46_6_cif.got.tgz:11334.got - 2010.06.03 19:58:25.
