data_PCOD9378508
_publ_section_title
;
Structure prediction by ZEFSAII (Michael W. Deem and Ramdas Pophale) SiO2 
 PCOD9378508
Probable space group: I M A 2
;
_chemical_formula_sum "Si O2"
_cell_formula_units_Z 52
_cell_length_a 26.553324
_cell_length_b 22.951333
_cell_length_c 5.120324
_cell_angle_alpha 90.000000
_cell_angle_beta 90.000000
_cell_angle_gamma 90.000000
_cell_volume 3120.500465
_symmetry_space_group_name_H-M "I M A 2"
_symmetry_group_IT_number 46
_symmetry_cell_setting 'orthorhombic'
loop_
_space_group_symop_operation_xyz
x,y,z
-x,-y,z
1/2-x,y,z
1/2+x,-y,z
1/2+x,1/2+y,1/2+z
1/2-x,1/2-y,1/2+z
-x,1/2+y,1/2+z
x,1/2-y,1/2+z
loop_
_atom_site_type_symbol
_atom_site_label
_atom_site_fract_x
_atom_site_fract_y
_atom_site_fract_z
Si Si1 0.657101 0.790642 0.698880
Si Si2 0.155962 0.875358 0.688602
Si Si3 0.548202 0.711569 0.304941
Si Si4 0.562431 0.208225 0.718574
Si Si5 0.250000 0.124503 0.799374
Si Si6 0.750000 0.210990 0.656647
Si Si7 0.750000 0.951940 0.300007
Si Si8 0.692237 0.062623 0.186839
O O1 0.660996 0.760550 0.416102
O O2 0.601386 0.817983 0.739995
O O3 0.701178 0.836152 0.746117
O O4 0.104174 0.841459 0.732254
O O5 0.200547 0.827732 0.699451
O O6 0.168497 0.922564 0.910078
O O7 0.160338 0.906362 0.409900
O O8 0.548570 0.733121 0.604378
O O9 0.494418 0.683230 0.244119
O O10 0.568066 0.244862 0.451883
O O11 0.250000 0.071605 0.592721
O O12 0.250000 0.099917 0.092252
O O13 0.750000 0.237513 0.367791
O O14 0.702622 0.994728 0.244671
O O15 0.750000 0.087175 0.194618
#
# Coordination Sequence:
#
# PCOD9378508 Si02
#       8
#     8   8   8   8   4   4   4   8
#     4  10  19  32  50  79 111 138 152 173 222 285
#     4  12  19  32  47  65  86 126 159 207 243 290
#     4   8  16  30  47  65  99 136 161 186 218 269
#     4  10  19  31  45  70  98 126 166 203 233 283
#     4  12  20  32  54  80 104 126 156 194 230 282
#     4  12  20  26  36  58  90 116 140 182 244 296
#     4  10  22  36  50  72  96 126 164 204 244 280
#     4  10  20  36  49  61  89 117 167 205 245 294
#
# _framework density 16.663993999999999
#
# number of rings (size 3 to 8) (size 9 to 14) (size 15 to 20)
#    0.462    1.231    1.538    5.077    0.000    0.000 
#    0.000    0.000    0.000    0.000    0.000    6.462 
#    0.000    0.000    0.000    0.000    0.000    0.000 
#
# Total GULP energy -144957.631542 kJ/mol
# GULP energy per Si atom -5575.293521 kJ/mol
# Density = 1.662607 g / cm^3
# Si number density = 16.663994 Si / 1000 Ang^3
#
#
#
# Elastic Constant Matrix: (Units=GPa)
#
#
# Indices 1 2 3 4 5 6 
#
# 1 115.5763 21.6698 -14.6462 0.0000 0.0000 0.0000
# 2 21.6698 24.3109 -13.0602 0.0000 0.0000 0.0000
# 3 -14.6462 -13.0602 58.9977 0.0000 0.0000 0.0000
# 4 0.0000 0.0000 0.0000 28.3460 0.0000 0.0000
# 5 0.0000 0.0000 0.0000 0.0000 15.8238 0.0000
# 6 0.0000 0.0000 0.0000 0.0000 0.0000 7.7128
#
#
#
# Elastic Compliance Matrix: (Units=1/GPa)
#
#
# Indices 1 2 3 4 5 6 
#
# 1 0.010407 -0.008953 0.000602 0.000000 0.000000 0.000000
# 2 -0.008953 0.054389 0.009817 0.000000 0.000000 0.000000
# 3 0.000602 0.009817 0.019272 0.000000 0.000000 0.000000
# 4 0.000000 0.000000 0.000000 0.035278 0.000000 0.000000
# 5 0.000000 0.000000 0.000000 0.000000 0.063196 0.000000
# 6 0.000000 0.000000 0.000000 0.000000 0.000000 0.129654
#
#
# Mechanical properties :
#
#
# Convention : Reuss Voigt Hill
#
# Bulk Modulus (GPa) = 11.49438 20.75684 16.12561
# Shear Modulus (GPa) = 14.78129 24.03796 19.40962
#
# Velocity S-wave (km/s) = 2.98152 3.80216 3.41657
# Velocity P-wave (km/s) = 4.33189 5.63545 5.02611
#
# Compressibility (1/GPa) = 0.08699907
#
# Stress axis : x y z
#
# Youngs Moduli (GPa) = 96.08694 18.38619 51.88768
#
# Poissons Ratio (x) = 0.16462 -0.03122
# Poissons Ratio (y) = 0.86031 -0.50939
# Poissons Ratio (z) = -0.05781 -0.18050
#
# Static dielectric constant tensor:
#      x y z
#    x 1.582830 0.000000 0.000000 
#    y 0.000000 1.529620 0.000000 
#    z 0.000000 0.000000 1.563100 
# 
# From -- ./inp_files/2576.got.cif
#   From: 2010.05.17/outbox.cif.g08.bks.cpg/sg46_2_cif.got.tgz:2576.got - 2010.06.03 19:58:25.
