data_PCOD9378040
_publ_section_title
;
Structure prediction by ZEFSAII (Michael W. Deem and Ramdas Pophale) SiO2 
 PCOD9378040
Probable space group: I M A 2
;
_chemical_formula_sum "Si O2"
_cell_formula_units_Z 56
_cell_length_a 8.652100
_cell_length_b 13.987605
_cell_length_c 30.307420
_cell_angle_alpha 90.000000
_cell_angle_beta 90.000000
_cell_angle_gamma 90.000000
_cell_volume 3667.869348
_symmetry_space_group_name_H-M "I M A 2"
_symmetry_group_IT_number 46
_symmetry_cell_setting 'orthorhombic'
loop_
_space_group_symop_operation_xyz
x,y,z
-x,-y,z
1/2-x,y,z
1/2+x,-y,z
1/2+x,1/2+y,1/2+z
1/2-x,1/2-y,1/2+z
-x,1/2+y,1/2+z
x,1/2-y,1/2+z
loop_
_atom_site_type_symbol
_atom_site_label
_atom_site_fract_x
_atom_site_fract_y
_atom_site_fract_z
Si Si1 0.065378 0.604322 0.393880
Si Si2 0.564766 0.896230 0.434960
Si Si3 0.064194 0.212443 0.346528
Si Si4 0.436109 0.891617 0.067945
Si Si5 0.935851 0.797519 0.980856
Si Si6 0.935760 0.392535 0.664588
Si Si7 0.563840 0.108445 0.261514
O O1 0.250000 0.603164 0.394050
O O2 0.000000 0.500000 0.383265
O O3 0.003891 0.685240 0.360463
O O4 0.004266 0.635890 0.442197
O O5 0.750000 0.901317 0.435367
O O6 0.517775 0.860317 0.386052
O O7 0.518668 0.810940 0.468035
O O8 0.500000 0.000000 0.445102
O O9 0.250000 0.218172 0.346264
O O10 0.002932 0.172324 0.300582
O O11 0.250000 0.894588 0.064977
O O12 0.481497 0.852070 0.116702
O O13 0.500000 0.000000 0.064409
O O14 0.503433 0.830758 0.027970
O O15 0.750000 0.804401 0.979140
O O16 0.750000 0.396115 0.664567
O O17 0.981492 0.352886 0.712579
O O18 0.000000 0.500000 0.664474
O O19 0.750000 0.105226 0.264449
O O20 0.500000 0.000000 0.265614
#
# Coordination Sequence:
#
# PCOD9378040 Si02
#       7
#     8   8   8   8   8   8   8
#     4  11  21  34  50  68  91 121 153 188 226 268
#     4   9  19  32  46  63  88 117 147 183 221 259
#     4  10  20  33  47  68  94 121 153 188 224 269
#     4  10  18  29  45  66  91 122 154 188 227 270
#     4  10  20  33  46  66  93 121 152 187 225 270
#     4   8  16  28  42  62  90 119 151 186 225 270
#     4  10  18  29  45  67  94 125 155 188 228 272
#
# _framework density 15.267719
#
# number of rings (size 3 to 8) (size 9 to 14) (size 15 to 20)
#    0.000    2.286    0.000    4.714    0.000    5.714 
#    0.000    0.000    0.000    0.000    0.000    1.000 
#    0.000    2.286    0.000    0.000    0.000    0.000 
#
# Total GULP energy -156073.737723 kJ/mol
# GULP energy per Si atom -5574.062062 kJ/mol
# Density = 1.523297 g / cm^3
# Si number density = 15.267719 Si / 1000 Ang^3
#
#
#
# Elastic Constant Matrix: (Units=GPa)
#
#
# Indices 1 2 3 4 5 6 
#
# 1 64.4816 33.2279 45.9437 0.0000 0.0000 0.0000
# 2 33.2279 91.9980 65.9127 0.0000 0.0000 0.0000
# 3 45.9437 65.9127 162.9701 0.0000 0.0000 0.0000
# 4 0.0000 0.0000 0.0000 22.1459 0.0000 0.0000
# 5 0.0000 0.0000 0.0000 0.0000 32.4131 0.0000
# 6 0.0000 0.0000 0.0000 0.0000 0.0000 25.5672
#
#
#
# Elastic Compliance Matrix: (Units=1/GPa)
#
#
# Indices 1 2 3 4 5 6 
#
# 1 0.020727 -0.004646 -0.003964 0.000000 0.000000 0.000000
# 2 -0.004646 0.016346 -0.005301 0.000000 0.000000 0.000000
# 3 -0.003964 -0.005301 0.009398 0.000000 0.000000 0.000000
# 4 0.000000 0.000000 0.000000 0.045155 0.000000 0.000000
# 5 0.000000 0.000000 0.000000 0.000000 0.030852 0.000000
# 6 0.000000 0.000000 0.000000 0.000000 0.000000 0.039113
#
#
# Mechanical properties :
#
#
# Convention : Reuss Voigt Hill
#
# Bulk Modulus (GPa) = 53.62587 67.73537 60.68062
# Shear Modulus (GPa) = 25.55860 27.64962 26.60411
#
# Velocity S-wave (km/s) = 4.09593 4.26018 4.17886
# Velocity P-wave (km/s) = 7.58741 8.28615 7.94447
#
# Compressibility (1/GPa) = 0.01864772
#
# Stress axis : x y z
#
# Youngs Moduli (GPa) = 48.24642 61.17698 106.40848
#
# Poissons Ratio (x) = 0.28423 0.42182
# Poissons Ratio (y) = 0.22415 0.56410
# Poissons Ratio (z) = 0.19126 0.32432
#
# Static dielectric constant tensor:
#      x y z
#    x 1.512470 0.000000 0.000000 
#    y 0.000000 1.478040 0.000000 
#    z 0.000000 0.000000 1.531570 
# 
# From -- ./inp_files/25249.got.cif
#   From: 2010.05.17/outbox.cif.g08.bks.cpg/sg46_13_cif.got.tgz:25249.got - 2010.06.03 19:58:25.
