data_PCOD9378162
_publ_section_title
;
Structure prediction by ZEFSAII (Michael W. Deem and Ramdas Pophale) SiO2 
 PCOD9378162
Probable space group: I M A 2
;
_chemical_formula_sum "Si O2"
_cell_formula_units_Z 56
_cell_length_a 17.126178
_cell_length_b 19.075686
_cell_length_c 10.004294
_cell_angle_alpha 90.000000
_cell_angle_beta 90.000000
_cell_angle_gamma 90.000000
_cell_volume 3268.338761
_symmetry_space_group_name_H-M "I M A 2"
_symmetry_group_IT_number 46
_symmetry_cell_setting 'orthorhombic'
loop_
_space_group_symop_operation_xyz
x,y,z
-x,-y,z
1/2-x,y,z
1/2+x,-y,z
1/2+x,1/2+y,1/2+z
1/2-x,1/2-y,1/2+z
-x,1/2+y,1/2+z
x,1/2-y,1/2+z
loop_
_atom_site_type_symbol
_atom_site_label
_atom_site_fract_x
_atom_site_fract_y
_atom_site_fract_z
Si Si1 0.007670 0.867618 0.713570
Si Si2 0.440711 0.064606 0.231221
Si Si3 0.661732 0.769350 0.488856
Si Si4 0.922132 0.547933 0.434463
Si Si5 0.337782 0.542993 0.225797
Si Si6 0.942189 0.780371 0.223535
Si Si7 0.381768 0.424266 0.021041
O O1 0.953450 0.888894 0.841177
O O2 0.001037 0.784133 0.701546
O O3 0.966075 0.906612 0.588301
O O4 0.094135 0.898786 0.724996
O O5 0.479004 0.142354 0.231588
O O6 0.388348 0.061817 0.363666
O O7 0.500000 0.000000 0.239892
O O8 0.399494 0.061486 0.086818
O O9 0.750000 0.746410 0.461546
O O10 0.607941 0.769345 0.357832
O O11 0.619272 0.724586 0.602317
O O12 0.662267 0.850371 0.539279
O O13 0.856875 0.506316 0.352927
O O14 0.000000 0.500000 0.439987
O O15 0.250000 0.570557 0.229543
O O16 0.348180 0.490206 0.100379
#
# Coordination Sequence:
#
# PCOD9378162 Si02
#       7
#     8   8   8   8   8   8   8
#     4   9  17  32  49  70  98 129 169 206 235 287
#     4  10  18  31  50  74  96 123 160 199 239 288
#     4  10  19  32  48  73 103 128 154 191 238 293
#     4   8  16  30  48  69  96 124 158 199 238 284
#     4  10  18  31  51  74  98 130 165 204 244 280
#     4  10  20  31  48  72  98 131 161 192 240 286
#     4   9  18  31  50  74 101 129 158 195 243 296
#
# _framework density 17.134087999999998
#
# number of rings (size 3 to 8) (size 9 to 14) (size 15 to 20)
#    0.000    2.571    0.000    3.857    0.000    0.000 
#    0.000    9.286    0.000    0.000    0.000   54.000 
#    0.000    0.000    0.000    0.000    0.000    0.000 
#
# Total GULP energy -155952.022243 kJ/mol
# GULP energy per Si atom -5569.715080 kJ/mol
# Density = 1.709509 g / cm^3
# Si number density = 17.134088 Si / 1000 Ang^3
#
#
#
# Elastic Constant Matrix: (Units=GPa)
#
#
# Indices 1 2 3 4 5 6 
#
# 1 89.9845 35.4546 11.7702 0.0000 0.0000 0.0000
# 2 35.4546 99.5106 12.5407 0.0000 0.0000 0.0000
# 3 11.7702 12.5407 101.3781 0.0000 0.0000 0.0000
# 4 0.0000 0.0000 0.0000 19.3042 0.0000 0.0000
# 5 0.0000 0.0000 0.0000 0.0000 13.7224 0.0000
# 6 0.0000 0.0000 0.0000 0.0000 0.0000 8.2232
#
#
#
# Elastic Compliance Matrix: (Units=1/GPa)
#
#
# Indices 1 2 3 4 5 6 
#
# 1 0.013018 -0.004518 -0.000952 0.000000 0.000000 0.000000
# 2 -0.004518 0.011776 -0.000932 0.000000 0.000000 0.000000
# 3 -0.000952 -0.000932 0.010090 0.000000 0.000000 0.000000
# 4 0.000000 0.000000 0.000000 0.051802 0.000000 0.000000
# 5 0.000000 0.000000 0.000000 0.000000 0.072874 0.000000
# 6 0.000000 0.000000 0.000000 0.000000 0.000000 0.121607
#
#
# Mechanical properties :
#
#
# Convention : Reuss Voigt Hill
#
# Bulk Modulus (GPa) = 45.29270 45.60045 45.44658
# Shear Modulus (GPa) = 16.59300 23.65715 20.12507
#
# Velocity S-wave (km/s) = 3.11532 3.71982 3.43091
# Velocity P-wave (km/s) = 6.27949 6.71722 6.50204
#
# Compressibility (1/GPa) = 0.02207861
#
# Stress axis : x y z
#
# Youngs Moduli (GPa) = 76.81814 84.91566 99.10835
#
# Poissons Ratio (x) = 0.38365 0.09440
# Poissons Ratio (y) = 0.34707 0.09239
# Poissons Ratio (z) = 0.07317 0.07916
#
# Static dielectric constant tensor:
#      x y z
#    x 1.547120 0.000000 0.000000 
#    y 0.000000 1.610180 0.000000 
#    z 0.000000 0.000000 1.618560 
# 
# From -- ./inp_files/6864.got.cif
#   From: 2010.05.17/outbox.cif.g08.bks.cpg/sg46_4_cif.got.tgz:6864.got - 2010.06.03 19:58:25.
