data_PCOD9378344
_publ_section_title
;
Structure prediction by ZEFSAII (Michael W. Deem and Ramdas Pophale) SiO2 
 PCOD9378344
Probable space group: I M A 2
;
_chemical_formula_sum "Si O2"
_cell_formula_units_Z 40
_cell_length_a 18.147893
_cell_length_b 11.494523
_cell_length_c 8.811887
_cell_angle_alpha 90.000000
_cell_angle_beta 90.000000
_cell_angle_gamma 90.000000
_cell_volume 1838.171731
_symmetry_space_group_name_H-M "I M A 2"
_symmetry_group_IT_number 46
_symmetry_cell_setting 'orthorhombic'
loop_
_space_group_symop_operation_xyz
x,y,z
-x,-y,z
1/2-x,y,z
1/2+x,-y,z
1/2+x,1/2+y,1/2+z
1/2-x,1/2-y,1/2+z
-x,1/2+y,1/2+z
x,1/2-y,1/2+z
loop_
_atom_site_type_symbol
_atom_site_label
_atom_site_fract_x
_atom_site_fract_y
_atom_site_fract_z
Si Si1 0.630151 0.642225 0.797340
Si Si2 0.169852 0.123757 0.942987
Si Si3 0.079866 0.751979 0.095777
Si Si4 0.980744 0.666072 0.329667
Si Si5 0.163427 0.888562 0.356476
O O1 0.674110 0.742999 0.884870
O O2 0.655698 0.625404 0.623422
O O3 0.550161 0.701739 0.802581
O O4 0.637614 0.520535 0.878824
O O5 0.250000 0.067430 0.911148
O O6 0.092634 0.088790 0.859579
O O7 0.117991 0.834554 0.217620
O O8 0.030783 0.654075 0.181969
O O9 0.142587 0.688856 0.999735
O O10 0.029445 0.825540 0.980004
O O11 0.250000 0.888351 0.325021
#
# Coordination Sequence:
#
# PCOD9378344 Si02
#       5
#     8   8   8   8   8
#     4  10  21  37  65  87 125 150 207 245 307 366
#     4  10  18  34  60  91 127 158 192 252 301 374
#     4  10  21  37  63  83 126 161 202 259 290 357
#     4   9  18  38  55  89 119 154 199 239 310 356
#     4  11  23  41  64  91 117 167 212 250 304 354
#
# _framework density 21.760752
#
# number of rings (size 3 to 8) (size 9 to 14) (size 15 to 20)
#    1.200    0.800    2.000    2.400    0.000    3.200 
#    0.000    4.000   13.200    0.000    0.000    0.000 
#    0.000    0.000    0.000    0.000    0.000    0.000 
#
# Total GULP energy -111451.899425 kJ/mol
# GULP energy per Si atom -5572.594971 kJ/mol
# Density = 2.171122 g / cm^3
# Si number density = 21.760752 Si / 1000 Ang^3
#
#
#
# Elastic Constant Matrix: (Units=GPa)
#
#
# Indices 1 2 3 4 5 6 
#
# 1 89.2891 18.1129 11.0420 0.0000 0.0000 0.0000
# 2 18.1129 21.0535 -4.6495 0.0000 0.0000 0.0000
# 3 11.0420 -4.6495 39.1227 0.0000 0.0000 0.0000
# 4 0.0000 0.0000 0.0000 10.2162 0.0000 0.0000
# 5 0.0000 0.0000 0.0000 0.0000 36.8188 0.0000
# 6 0.0000 0.0000 0.0000 0.0000 0.0000 22.4282
#
#
#
# Elastic Compliance Matrix: (Units=1/GPa)
#
#
# Indices 1 2 3 4 5 6 
#
# 1 0.014756 -0.013982 -0.005827 0.000000 0.000000 0.000000
# 2 -0.013982 0.062027 0.011318 0.000000 0.000000 0.000000
# 3 -0.005827 0.011318 0.028550 0.000000 0.000000 0.000000
# 4 0.000000 0.000000 0.000000 0.097884 0.000000 0.000000
# 5 0.000000 0.000000 0.000000 0.000000 0.027160 0.000000
# 6 0.000000 0.000000 0.000000 0.000000 0.000000 0.044587
#
#
# Mechanical properties :
#
#
# Convention : Reuss Voigt Hill
#
# Bulk Modulus (GPa) = 11.31842 22.05288 16.68565
# Shear Modulus (GPa) = 15.55713 22.22331 18.89022
#
# Velocity S-wave (km/s) = 2.67669 3.19918 2.94953
# Velocity P-wave (km/s) = 3.84259 4.87879 4.39136
#
# Compressibility (1/GPa) = 0.08835158
#
# Stress axis : x y z
#
# Youngs Moduli (GPa) = 67.76679 16.12210 35.02608
#
# Poissons Ratio (x) = 0.22542 0.20408
# Poissons Ratio (y) = 0.94752 -0.39642
# Poissons Ratio (z) = 0.39485 -0.18247
#
# Static dielectric constant tensor:
#      x y z
#    x 1.857090 0.000000 0.000000 
#    y 0.000000 1.759080 0.000000 
#    z 0.000000 0.000000 1.764680 
# 
# From -- ./inp_files/7251.got.cif
#   From: 2010.05.17/outbox.cif.g08.bks.cpg/sg46_4_cif.got.tgz:7251.got - 2010.06.03 19:58:25.
