data_PCOD9378697
_publ_section_title
;
Structure prediction by ZEFSAII (Michael W. Deem and Ramdas Pophale) SiO2 
 PCOD9378697
Probable space group: I M A 2
;
_chemical_formula_sum "Si O2"
_cell_formula_units_Z 56
_cell_length_a 8.636046
_cell_length_b 24.362081
_cell_length_c 14.089927
_cell_angle_alpha 90.000000
_cell_angle_beta 90.000000
_cell_angle_gamma 90.000000
_cell_volume 2964.408656
_symmetry_space_group_name_H-M "I M A 2"
_symmetry_group_IT_number 46
_symmetry_cell_setting 'orthorhombic'
loop_
_space_group_symop_operation_xyz
x,y,z
-x,-y,z
1/2-x,y,z
1/2+x,-y,z
1/2+x,1/2+y,1/2+z
1/2-x,1/2-y,1/2+z
-x,1/2+y,1/2+z
x,1/2-y,1/2+z
loop_
_atom_site_type_symbol
_atom_site_label
_atom_site_fract_x
_atom_site_fract_y
_atom_site_fract_z
Si Si1 0.564820 0.833337 0.313040
Si Si2 0.064132 0.939743 0.627743
Si Si3 0.435683 0.332352 0.029349
Si Si4 0.562975 0.060464 0.999857
Si Si5 0.435741 0.939676 0.217833
Si Si6 0.562289 0.377015 0.317250
Si Si7 0.564149 0.230295 0.706561
O O1 0.750000 0.832858 0.307653
O O2 0.518465 0.820178 0.421301
O O3 0.503240 0.892993 0.284614
O O4 0.497028 0.788218 0.241990
O O5 0.250000 0.939656 0.621337
O O6 0.020160 0.920414 0.734725
O O7 0.997894 0.892253 0.560097
O O8 0.000000 0.000000 0.607500
O O9 0.250000 0.332473 0.036034
O O10 0.503340 0.289130 0.104445
O O11 0.750000 0.058740 0.997105
O O12 0.507819 0.102971 0.919881
O O13 0.500000 0.000000 0.976852
O O14 0.518034 0.073175 0.108262
O O15 0.250000 0.940224 0.223153
O O16 0.500000 0.000000 0.240348
O O17 0.750000 0.375515 0.320065
O O18 0.511501 0.317453 0.280310
O O19 0.750000 0.230717 0.704183
#
# Coordination Sequence:
#
# PCOD9378697 Si02
#       7
#     8   8   8   8   8   8   8
#     4  11  24  41  61  84 111 146 187 231 280 335
#     4  10  19  32  53  81 113 150 190 234 284 336
#     4  10  22  40  59  81 112 148 187 233 281 333
#     4   9  17  31  51  78 111 145 182 223 270 324
#     4  10  21  37  58  83 112 147 186 232 282 333
#     4   8  16  31  51  78 111 145 182 223 269 325
#     4  10  21  38  60  85 114 147 184 230 280 334
#
# _framework density 18.890784
#
# number of rings (size 3 to 8) (size 9 to 14) (size 15 to 20)
#    0.000    2.286    0.000    3.429    0.000    4.571 
#    0.000    5.000    0.000    0.000    0.000    0.000 
#    0.000    0.000    0.000    0.000    0.000    0.000 
#
# Total GULP energy -156318.521264 kJ/mol
# GULP energy per Si atom -5582.804331 kJ/mol
# Density = 1.884779 g / cm^3
# Si number density = 18.890784 Si / 1000 Ang^3
#
#
#
# Elastic Constant Matrix: (Units=GPa)
#
#
# Indices 1 2 3 4 5 6 
#
# 1 48.5188 35.8778 38.2458 0.0000 0.0000 0.0000
# 2 35.8778 108.3685 71.8910 0.0000 0.0000 0.0000
# 3 38.2458 71.8910 106.7480 0.0000 0.0000 0.0000
# 4 0.0000 0.0000 0.0000 18.3577 0.0000 0.0000
# 5 0.0000 0.0000 0.0000 0.0000 22.8768 0.0000
# 6 0.0000 0.0000 0.0000 0.0000 0.0000 32.2312
#
#
#
# Elastic Compliance Matrix: (Units=1/GPa)
#
#
# Indices 1 2 3 4 5 6 
#
# 1 0.030205 -0.005099 -0.007388 0.000000 0.000000 0.000000
# 2 -0.005099 0.017541 -0.009986 0.000000 0.000000 0.000000
# 3 -0.007388 -0.009986 0.018740 0.000000 0.000000 0.000000
# 4 0.000000 0.000000 0.000000 0.054473 0.000000 0.000000
# 5 0.000000 0.000000 0.000000 0.000000 0.043712 0.000000
# 6 0.000000 0.000000 0.000000 0.000000 0.000000 0.031026
#
#
# Mechanical properties :
#
#
# Convention : Reuss Voigt Hill
#
# Bulk Modulus (GPa) = 46.42615 61.74050 54.08333
# Shear Modulus (GPa) = 20.17575 22.53451 21.35513
#
# Velocity S-wave (km/s) = 3.27160 3.45756 3.36587
# Velocity P-wave (km/s) = 6.23704 6.97807 6.61793
#
# Compressibility (1/GPa) = 0.02153958
#
# Stress axis : x y z
#
# Youngs Moduli (GPa) = 33.10758 57.01049 53.36148
#
# Poissons Ratio (x) = 0.29069 0.39423
# Poissons Ratio (y) = 0.16881 0.53288
# Poissons Ratio (z) = 0.24459 0.56932
#
# Static dielectric constant tensor:
#      x y z
#    x 1.635230 0.000000 0.000000 
#    y 0.000000 1.623170 0.000000 
#    z 0.000000 0.000000 1.664610 
# 
# From -- ./inp_files/14209.got.cif
#   From: 2010.05.17/outbox.cif.g08.bks.cpg/sg46_8_cif.got.tgz:14209.got - 2010.06.03 19:58:25.
