data_PCOD9378397
_publ_section_title
;
Structure prediction by ZEFSAII (Michael W. Deem and Ramdas Pophale) SiO2 
 PCOD9378397
Probable space group: I M A 2
;
_chemical_formula_sum "Si O2"
_cell_formula_units_Z 52
_cell_length_a 16.729335
_cell_length_b 10.545020
_cell_length_c 13.903834
_cell_angle_alpha 90.000000
_cell_angle_beta 90.000000
_cell_angle_gamma 90.000000
_cell_volume 2452.791653
_symmetry_space_group_name_H-M "I M A 2"
_symmetry_group_IT_number 46
_symmetry_cell_setting 'orthorhombic'
loop_
_space_group_symop_operation_xyz
x,y,z
-x,-y,z
1/2-x,y,z
1/2+x,-y,z
1/2+x,1/2+y,1/2+z
1/2-x,1/2-y,1/2+z
-x,1/2+y,1/2+z
x,1/2-y,1/2+z
loop_
_atom_site_type_symbol
_atom_site_label
_atom_site_fract_x
_atom_site_fract_y
_atom_site_fract_z
Si Si1 0.250000 0.174994 0.704000
Si Si2 0.658305 0.047099 0.288097
Si Si3 0.473104 0.862191 0.755447
Si Si4 0.155668 0.691960 0.398492
Si Si5 0.885336 0.781111 0.338980
Si Si6 0.886809 0.214188 0.108452
Si Si7 0.750000 0.678765 0.990684
Si Si8 0.750000 0.074381 0.599450
O O1 0.328025 0.218323 0.759591
O O2 0.250000 0.234159 0.597515
O O3 0.250000 0.024208 0.687093
O O4 0.750000 0.999972 0.291591
O O5 0.649406 0.160858 0.364711
O O6 0.644292 0.109490 0.183809
O O7 0.602853 0.928355 0.311322
O O8 0.389437 0.876645 0.811752
O O9 0.533038 0.796049 0.831229
O O10 0.463355 0.772270 0.662598
O O11 0.500000 0.000000 0.724748
O O12 0.250000 0.662411 0.406928
O O13 0.111930 0.666800 0.499446
O O14 0.830111 0.782541 0.434103
O O15 0.824911 0.332085 0.101755
O O16 0.750000 0.525951 0.010975
#
# Coordination Sequence:
#
# PCOD9378397 Si02
#       8
#     4   8   8   8   8   8   4   4
#     4   9  21  35  64  99 122 175 218 263 327 390
#     4  10  19  37  67  96 127 167 218 276 327 391
#     4  11  27  46  61  98 142 179 217 279 351 404
#     4  10  22  43  68  97 125 175 229 274 328 398
#     4  11  21  43  62  93 141 170 220 276 342 396
#     4  11  21  39  68  94 128 173 222 276 323 394
#     4   9  21  37  66  97 123 177 222 277 315 402
#     4  10  18  36  66 100 125 164 232 264 314 392
#
# _framework density 21.200332
#
# number of rings (size 3 to 8) (size 9 to 14) (size 15 to 20)
#    0.462    1.231    3.077    1.846    1.077    3.692 
#   11.077    0.000    0.000    0.000    0.000    0.000 
#    0.000    0.000    0.000    0.000    0.000    0.000 
#
# Total GULP energy -145124.784044 kJ/mol
# GULP energy per Si atom -5581.722463 kJ/mol
# Density = 2.115208 g / cm^3
# Si number density = 21.200332 Si / 1000 Ang^3
#
#
#
# Elastic Constant Matrix: (Units=GPa)
#
#
# Indices 1 2 3 4 5 6 
#
# 1 59.7627 12.0493 16.7476 0.0000 0.0000 0.0000
# 2 12.0493 17.2342 -9.7316 0.0000 0.0000 0.0000
# 3 16.7476 -9.7316 111.4760 0.0000 0.0000 0.0000
# 4 0.0000 0.0000 0.0000 29.4438 0.0000 0.0000
# 5 0.0000 0.0000 0.0000 0.0000 11.7324 0.0000
# 6 0.0000 0.0000 0.0000 0.0000 0.0000 26.6074
#
#
#
# Elastic Compliance Matrix: (Units=1/GPa)
#
#
# Indices 1 2 3 4 5 6 
#
# 1 0.021690 -0.017886 -0.004820 0.000000 0.000000 0.000000
# 2 -0.017886 0.075782 0.009303 0.000000 0.000000 0.000000
# 3 -0.004820 0.009303 0.010507 0.000000 0.000000 0.000000
# 4 0.000000 0.000000 0.000000 0.033963 0.000000 0.000000
# 5 0.000000 0.000000 0.000000 0.000000 0.085234 0.000000
# 6 0.000000 0.000000 0.000000 0.000000 0.000000 0.037583
#
#
# Mechanical properties :
#
#
# Convention : Reuss Voigt Hill
#
# Bulk Modulus (GPa) = 12.31951 25.17815 18.74883
# Shear Modulus (GPa) = 15.69252 24.85058 20.27155
#
# Velocity S-wave (km/s) = 2.72362 3.42742 3.09559
# Velocity P-wave (km/s) = 3.96414 5.25024 4.65185
#
# Compressibility (1/GPa) = 0.08117204
#
# Stress axis : x y z
#
# Youngs Moduli (GPa) = 46.10478 13.19573 95.17672
#
# Poissons Ratio (x) = 0.23602 0.45875
# Poissons Ratio (y) = 0.82463 -0.88540
# Poissons Ratio (z) = 0.22222 -0.12276
#
# Static dielectric constant tensor:
#      x y z
#    x 1.791540 0.000000 0.000000 
#    y 0.000000 1.777470 0.000000 
#    z 0.000000 0.000000 1.787770 
# 
# From -- ./inp_files/16694.got.cif
#   From: 2010.05.17/outbox.cif.g08.bks.cpg/sg46_9_cif.got.tgz:16694.got - 2010.06.03 19:58:25.
