data_PCOD9378885
_publ_section_title
;
Structure prediction by ZEFSAII (Michael W. Deem and Ramdas Pophale) SiO2 
 PCOD9378885
Probable space group: I M A 2
;
_chemical_formula_sum "Si O2"
_cell_formula_units_Z 64
_cell_length_a 8.783033
_cell_length_b 21.205736
_cell_length_c 20.102530
_cell_angle_alpha 90.000000
_cell_angle_beta 90.000000
_cell_angle_gamma 90.000000
_cell_volume 3744.109864
_symmetry_space_group_name_H-M "I M A 2"
_symmetry_group_IT_number 46
_symmetry_cell_setting 'orthorhombic'
loop_
_space_group_symop_operation_xyz
x,y,z
-x,-y,z
1/2-x,y,z
1/2+x,-y,z
1/2+x,1/2+y,1/2+z
1/2-x,1/2-y,1/2+z
-x,1/2+y,1/2+z
x,1/2-y,1/2+z
loop_
_atom_site_type_symbol
_atom_site_label
_atom_site_fract_x
_atom_site_fract_y
_atom_site_fract_z
Si Si1 0.067218 0.120683 0.775460
Si Si2 0.567875 0.116257 0.634175
Si Si3 0.933211 0.810797 0.997787
Si Si4 0.566563 0.566456 0.416668
Si Si5 0.932367 0.933911 0.498832
Si Si6 0.433899 0.188205 0.412573
Si Si7 0.568286 0.234599 0.131574
Si Si8 0.067274 0.738956 0.781008
O O1 0.250000 0.122086 0.770373
O O2 0.023113 0.080549 0.840095
O O3 0.996749 0.097349 0.706155
O O4 0.007265 0.191795 0.787636
O O5 0.750000 0.109634 0.633826
O O6 0.495609 0.079892 0.572569
O O7 0.530154 0.190821 0.625628
O O8 0.750000 0.810698 0.997346
O O9 0.985086 0.874421 0.961324
O O10 0.982318 0.749097 0.956026
O O11 0.989808 0.803098 0.072719
O O12 0.500000 0.500000 0.438605
O O13 0.750000 0.564404 0.419281
O O14 0.750000 0.937002 0.501357
O O15 0.976074 0.875281 0.451651
O O16 0.000000 0.000000 0.474948
O O17 0.250000 0.190021 0.406491
O O18 0.507369 0.195815 0.340345
O O19 0.750000 0.229215 0.124463
O O20 0.527032 0.215392 0.206796
O O21 0.250000 0.745759 0.783898
#
# Coordination Sequence:
#
# PCOD9378885 Si02
#       8
#     8   8   8   8   8   8   8   8
#     4  10  19  34  53  75 109 149 185 223 265 317
#     4  10  20  34  52  79 112 144 184 225 264 322
#     4  10  19  35  56  80 106 137 179 224 266 317
#     4  10  22  37  53  76 107 141 179 221 265 317
#     4  11  23  38  56  79 109 147 184 224 275 329
#     4  10  20  36  57  81 108 140 182 225 273 325
#     4   9  19  33  51  81 112 138 173 219 268 318
#     4  10  20  33  53  83 113 140 177 225 275 321
#
# _framework density 17.093515
#
# number of rings (size 3 to 8) (size 9 to 14) (size 15 to 20)
#    0.000    2.000    2.500    2.250    0.000    6.000 
#    0.000    1.250    0.000    0.750    0.000    0.000 
#    0.000    0.000    0.000    0.000    0.000    0.000 
#
# Total GULP energy -178636.019286 kJ/mol
# GULP energy per Si atom -5582.375603 kJ/mol
# Density = 1.705461 g / cm^3
# Si number density = 17.093515 Si / 1000 Ang^3
#
#
#
# Elastic Constant Matrix: (Units=GPa)
#
#
# Indices 1 2 3 4 5 6 
#
# 1 27.5051 33.0676 29.7265 0.0000 0.0000 0.0000
# 2 33.0676 116.9447 68.5698 0.0000 0.0000 0.0000
# 3 29.7265 68.5698 117.9344 0.0000 0.0000 0.0000
# 4 0.0000 0.0000 0.0000 21.8276 0.0000 0.0000
# 5 0.0000 0.0000 0.0000 0.0000 22.1980 0.0000
# 6 0.0000 0.0000 0.0000 0.0000 0.0000 25.9404
#
#
#
# Elastic Compliance Matrix: (Units=1/GPa)
#
#
# Indices 1 2 3 4 5 6 
#
# 1 0.059595 -0.012204 -0.007926 0.000000 0.000000 0.000000
# 2 -0.012204 0.015473 -0.005920 0.000000 0.000000 0.000000
# 3 -0.007926 -0.005920 0.013919 0.000000 0.000000 0.000000
# 4 0.000000 0.000000 0.000000 0.045814 0.000000 0.000000
# 5 0.000000 0.000000 0.000000 0.000000 0.045049 0.000000
# 6 0.000000 0.000000 0.000000 0.000000 0.000000 0.038550
#
#
# Mechanical properties :
#
#
# Convention : Reuss Voigt Hill
#
# Bulk Modulus (GPa) = 27.10969 58.34578 42.72774
# Shear Modulus (GPa) = 17.68058 22.72788 20.20423
#
# Velocity S-wave (km/s) = 3.21961 3.65035 3.44173
# Velocity P-wave (km/s) = 5.45117 7.20931 6.39099
#
# Compressibility (1/GPa) = 0.03688717
#
# Stress axis : x y z
#
# Youngs Moduli (GPa) = 16.77995 64.62763 71.84258
#
# Poissons Ratio (x) = 0.78871 0.56941
# Poissons Ratio (y) = 0.20478 0.42534
# Poissons Ratio (z) = 0.13300 0.38262
#
# Static dielectric constant tensor:
#      x y z
#    x 1.574190 0.000000 0.000000 
#    y 0.000000 1.571980 0.000000 
#    z 0.000000 0.000000 1.574870 
# 
# From -- ./inp_files/18573.got.cif
#   From: 2010.05.17/outbox.cif.g08.bks.cpg/sg46_10_cif.got.tgz:18573.got - 2010.06.03 19:58:25.
