data_PCOD9378054
_publ_section_title
;
Structure prediction by ZEFSAII (Michael W. Deem and Ramdas Pophale) SiO2 
 PCOD9378054
Probable space group: I M A 2
;
_chemical_formula_sum "Si O2"
_cell_formula_units_Z 64
_cell_length_a 8.946905
_cell_length_b 34.798802
_cell_length_c 12.138335
_cell_angle_alpha 90.000000
_cell_angle_beta 90.000000
_cell_angle_gamma 90.000000
_cell_volume 3779.168344
_symmetry_space_group_name_H-M "I M A 2"
_symmetry_group_IT_number 46
_symmetry_cell_setting 'orthorhombic'
loop_
_space_group_symop_operation_xyz
x,y,z
-x,-y,z
1/2-x,y,z
1/2+x,-y,z
1/2+x,1/2+y,1/2+z
1/2-x,1/2-y,1/2+z
-x,1/2+y,1/2+z
x,1/2-y,1/2+z
loop_
_atom_site_type_symbol
_atom_site_label
_atom_site_fract_x
_atom_site_fract_y
_atom_site_fract_z
Si Si1 0.422610 0.111532 0.452360
Si Si2 0.568967 0.818757 0.860642
Si Si3 0.926580 0.038997 0.359043
Si Si4 0.567859 0.767360 0.409972
Si Si5 0.929422 0.373840 0.536684
Si Si6 0.923532 0.668872 0.743114
Si Si7 0.430225 0.959479 0.101920
Si Si8 0.431831 0.178439 0.607201
O O1 0.250000 0.100138 0.469124
O O2 0.521400 0.074994 0.428774
O O3 0.425826 0.138884 0.344677
O O4 0.473689 0.137832 0.553350
O O5 0.750000 0.821935 0.865523
O O6 0.525711 0.777015 0.908261
O O7 0.521766 0.818362 0.732897
O O8 0.497074 0.852730 0.930774
O O9 0.750000 0.035312 0.359464
O O10 0.973956 0.044543 0.231118
O O11 0.000000 0.000000 0.399894
O O12 0.750000 0.769207 0.408004
O O13 0.521736 0.791566 0.300914
O O14 0.517332 0.788930 0.521024
O O15 0.750000 0.372822 0.535027
O O16 0.974940 0.418911 0.546763
O O17 0.986779 0.349671 0.642777
O O18 0.750000 0.674223 0.708175
O O19 0.250000 0.962551 0.095711
O O20 0.500000 0.000000 0.062202
O O21 0.250000 0.180103 0.605890
#
# Coordination Sequence:
#
# PCOD9378054 Si02
#       8
#     8   8   8   8   8   8   8   8
#     4   9  16  29  49  72 101 132 163 206 254 301
#     4  10  20  33  54  77  99 135 178 218 256 301
#     4  10  18  29  46  73 104 133 165 200 252 307
#     4   8  16  30  52  79 102 127 168 220 259 291
#     4  11  22  35  49  74 111 141 168 212 263 313
#     4   9  17  30  51  77 100 131 172 209 250 301
#     4   9  19  33  50  72 102 136 166 207 259 310
#     4   8  16  31  49  74 103 129 166 214 258 296
#
# _framework density 16.934943000000001
#
# number of rings (size 3 to 8) (size 9 to 14) (size 15 to 20)
#    0.000    2.750    1.250    2.250    1.750    1.500 
#    0.000    1.250    0.000    2.250    0.000    1.750 
#    0.000    0.000    0.000    0.000    0.000    0.000 
#
# Total GULP energy -178307.555588 kJ/mol
# GULP energy per Si atom -5572.111112 kJ/mol
# Density = 1.689640 g / cm^3
# Si number density = 16.934943 Si / 1000 Ang^3
#
#
#
# Elastic Constant Matrix: (Units=GPa)
#
#
# Indices 1 2 3 4 5 6 
#
# 1 24.6545 35.1496 21.8041 -0.0001 0.0000 0.0000
# 2 35.1496 141.8573 63.0487 -0.0002 -0.0001 0.0000
# 3 21.8041 63.0487 92.2464 -0.0006 -0.0001 -0.0001
# 4 -0.0001 -0.0002 -0.0006 18.9277 -0.0001 -0.0001
# 5 0.0000 -0.0001 -0.0001 -0.0001 14.5720 -0.0001
# 6 0.0000 0.0000 -0.0001 -0.0001 -0.0001 23.5923
#
#
#
# Elastic Compliance Matrix: (Units=1/GPa)
#
#
# Indices 1 2 3 4 5 6 
#
# 1 0.065146 -0.013355 -0.006271 0.000000 0.000000 0.000000
# 2 -0.013355 0.012863 -0.005635 0.000000 0.000000 0.000000
# 3 -0.006271 -0.005635 0.016174 0.000000 0.000000 0.000000
# 4 0.000000 0.000000 0.000000 0.052833 0.000000 0.000000
# 5 0.000000 0.000000 0.000000 0.000000 0.068625 0.000000
# 6 0.000000 0.000000 0.000000 0.000000 0.000000 0.042387
#
#
# Mechanical properties :
#
#
# Convention : Reuss Voigt Hill
#
# Bulk Modulus (GPa) = 22.90304 55.41810 39.16057
# Shear Modulus (GPa) = 15.47495 20.66877 18.07186
#
# Velocity S-wave (km/s) = 3.02617 3.49733 3.27025
# Velocity P-wave (km/s) = 5.07580 7.00739 6.11831
#
# Compressibility (1/GPa) = 0.04366233
#
# Stress axis : x y z
#
# Youngs Moduli (GPa) = 15.35002 77.74296 61.82765
#
# Poissons Ratio (x) = 1.03827 0.38769
# Poissons Ratio (y) = 0.20500 0.34839
# Poissons Ratio (z) = 0.09625 0.43807
#
# Static dielectric constant tensor:
#      x y z
#    x 1.572850 0.000000 0.000000 
#    y 0.000000 1.581870 0.000000 
#    z 0.000000 0.000000 1.564630 
# 
# From -- ./inp_files/9803.got.cif
#   From: 2010.05.17/outbox.cif.g08.bks.cpg/sg46_5_cif.got.tgz:9803.got - 2010.06.03 19:58:25.
