data_PCOD9378431
_publ_section_title
;
Structure prediction by ZEFSAII (Michael W. Deem and Ramdas Pophale) SiO2 
 PCOD9378431
Probable space group: I M A 2
;
_chemical_formula_sum "Si O2"
_cell_formula_units_Z 64
_cell_length_a 8.483802
_cell_length_b 23.623079
_cell_length_c 14.144983
_cell_angle_alpha 90.000000
_cell_angle_beta 90.000000
_cell_angle_gamma 90.000000
_cell_volume 2834.845902
_symmetry_space_group_name_H-M "I M A 2"
_symmetry_group_IT_number 46
_symmetry_cell_setting 'orthorhombic'
loop_
_space_group_symop_operation_xyz
x,y,z
-x,-y,z
1/2-x,y,z
1/2+x,-y,z
1/2+x,1/2+y,1/2+z
1/2-x,1/2-y,1/2+z
-x,1/2+y,1/2+z
x,1/2-y,1/2+z
loop_
_atom_site_type_symbol
_atom_site_label
_atom_site_fract_x
_atom_site_fract_y
_atom_site_fract_z
Si Si1 0.433481 0.791586 0.531720
Si Si2 0.560315 0.439130 0.213334
Si Si3 0.562813 0.058000 0.087645
Si Si4 0.074936 0.325233 0.545424
Si Si5 0.943626 0.413643 0.996906
Si Si6 0.061719 0.181325 0.735685
Si Si7 0.567110 0.079419 0.297123
Si Si8 0.927281 0.804368 0.272214
O O1 0.250000 0.789391 0.510905
O O2 0.505658 0.732084 0.504284
O O3 0.503090 0.848979 0.490463
O O4 0.460170 0.804118 0.642667
O O5 0.500000 0.500000 0.249081
O O6 0.750000 0.436832 0.218004
O O7 0.490717 0.382313 0.262466
O O8 0.511519 0.435532 0.100979
O O9 0.750000 0.055641 0.092975
O O10 0.516796 0.116133 0.036721
O O11 0.495279 0.061739 0.196150
O O12 0.500000 0.000000 0.044240
O O13 0.250000 0.334231 0.508916
O O14 0.080365 0.310671 0.657717
O O15 0.750000 0.414155 0.995783
O O16 0.000687 0.439994 0.898033
O O17 0.250000 0.180364 0.714872
O O18 0.036837 0.238933 0.795443
O O19 0.750000 0.062906 0.294851
O O20 0.552198 0.147741 0.298060
O O21 0.750000 0.818127 0.306573
#
# Coordination Sequence:
#
# PCOD9378431 Si02
#       8
#     8   8   8   8   8   8   8   8
#     4   9  15  25  42  61  81 104 133 169 210 251
#     4  10  19  30  43  59  82 111 144 177 209 245
#     4  10  19  29  42  59  81 111 145 177 209 245
#     4   9  16  27  42  59  80 103 132 171 213 253
#     4   8  16  29  42  58  82 112 143 174 204 239
#     4   9  16  27  42  59  80 104 133 170 212 252
#     4   9  17  29  43  58  80 112 146 174 202 240
#     4   8  15  26  40  59  80 101 128 168 213 249
#
# _framework density 22.576181999999999
#
# number of rings (size 3 to 8) (size 9 to 14) (size 15 to 20)
#    0.000    3.000    0.000    3.375    0.000    4.500 
#    0.000    3.750    0.000    0.000    0.000    0.000 
#    0.000    1.000    0.000    5.250    0.000    4.750 
#
# Total GULP energy -178229.361629 kJ/mol
# GULP energy per Si atom -5569.667551 kJ/mol
# Density = 2.252480 g / cm^3
# Si number density = 22.576182 Si / 1000 Ang^3
#
#
#
# Elastic Constant Matrix: (Units=GPa)
#
#
# Indices 1 2 3 4 5 6 
#
# 1 42.8134 36.4220 -0.6970 0.0000 0.0000 0.0000
# 2 36.4220 206.9286 -3.6832 0.0000 0.0000 0.0000
# 3 -0.6970 -3.6832 19.8042 -0.0001 0.0000 0.0000
# 4 0.0000 0.0000 -0.0001 -16.8602 0.0000 0.0000
# 5 0.0000 0.0000 0.0000 0.0000 -11.2595 0.0000
# 6 0.0000 0.0000 0.0000 0.0000 0.0000 31.4305
#
#
#
# Elastic Compliance Matrix: (Units=1/GPa)
#
#
# Indices 1 2 3 4 5 6 
#
# 1 0.027471 -0.004834 0.000068 0.000000 0.000000 0.000000
# 2 -0.004834 0.005699 0.000890 0.000000 0.000000 0.000000
# 3 0.000068 0.000890 0.050662 0.000000 0.000000 0.000000
# 4 0.000000 0.000000 0.000000 -0.059311 0.000000 0.000000
# 5 0.000000 0.000000 0.000000 0.000000 -0.088814 0.000000
# 6 0.000000 0.000000 0.000000 0.000000 0.000000 0.031816
#
#
# Mechanical properties :
#
#
# Convention : Reuss Voigt Hill
#
# Bulk Modulus (GPa) = 13.14419 37.06997 25.10708
# Shear Modulus (GPa) = 7866.23888 16.49578 3941.36733
#
# Velocity S-wave (km/s) = 59.09207 2.70603 41.82819
# Velocity P-wave (km/s) = 68.27639 5.12045 48.41428
#
# Compressibility (1/GPa) = 0.07607922
#
# Stress axis : x y z
#
# Youngs Moduli (GPa) = 36.40261 175.46138 19.73860
#
# Poissons Ratio (x) = 0.84817 -0.00134
# Poissons Ratio (y) = 0.17597 -0.01756
# Poissons Ratio (z) = -0.00247 -0.15613
#
# Static dielectric constant tensor:
#      x y z
#    x 1.787610 0.000000 0.000000 
#    y 0.000000 1.876630 0.000000 
#    z 0.000000 0.000000 1.939930 
# 
# From -- ./inp_files/21422.got.cif
#   From: 2010.05.17/outbox.cif.g08.bks.cpg/sg46_11_cif.got.tgz:21422.got - 2010.06.03 19:58:25.
