data_PCOD9378339
_publ_section_title
;
Structure prediction by ZEFSAII (Michael W. Deem and Ramdas Pophale) SiO2 
 PCOD9378339
Probable space group: I M A 2
;
_chemical_formula_sum "Si O2"
_cell_formula_units_Z 64
_cell_length_a 21.438235
_cell_length_b 9.705040
_cell_length_c 16.896478
_cell_angle_alpha 90.000000
_cell_angle_beta 90.000000
_cell_angle_gamma 90.000000
_cell_volume 3515.463103
_symmetry_space_group_name_H-M "I M A 2"
_symmetry_group_IT_number 46
_symmetry_cell_setting 'orthorhombic'
loop_
_space_group_symop_operation_xyz
x,y,z
-x,-y,z
1/2-x,y,z
1/2+x,-y,z
1/2+x,1/2+y,1/2+z
1/2-x,1/2-y,1/2+z
-x,1/2+y,1/2+z
x,1/2-y,1/2+z
loop_
_atom_site_type_symbol
_atom_site_label
_atom_site_fract_x
_atom_site_fract_y
_atom_site_fract_z
Si Si1 0.571168 0.514438 0.339120
Si Si2 0.822888 0.539729 0.750151
Si Si3 0.525726 0.650530 0.500335
Si Si4 0.178104 0.132223 0.726117
Si Si5 0.674784 0.011459 0.425063
Si Si6 0.178899 0.517270 0.578661
Si Si7 0.143419 0.289099 0.055180
Si Si8 0.105989 0.711035 0.458843
O O1 0.500000 0.500000 0.306579
O O2 0.560126 0.613641 0.416523
O O3 0.624012 0.565109 0.279143
O O4 0.595741 0.371079 0.376610
O O5 0.750000 0.498976 0.750547
O O6 0.824180 0.704606 0.743887
O O7 0.849390 0.500621 0.834861
O O8 0.848183 0.479076 0.668013
O O9 0.500000 0.500000 0.527825
O O10 0.573043 0.730947 0.555778
O O11 0.464357 0.740065 0.486298
O O12 0.250000 0.085362 0.741228
O O13 0.162694 0.125210 0.632730
O O14 0.750000 0.013419 0.424888
O O15 0.654476 0.882931 0.478840
O O16 0.647184 0.153765 0.456289
O O17 0.250000 0.568440 0.577942
O O18 0.180363 0.355743 0.554927
O O19 0.138054 0.603346 0.518387
#
# Coordination Sequence:
#
# PCOD9378339 Si02
#       8
#     8   8   8   8   8   8   8   8
#     4   9  19  39  60  80 118 159 202 250 297 363
#     4   8  18  33  53  80 116 146 182 243 300 350
#     4   9  18  38  62  83 111 154 202 248 285 359
#     4  10  20  36  59  91 116 148 207 258 298 358
#     4  11  22  37  54  87 124 151 190 249 308 358
#     4  10  18  34  59  85 109 152 200 239 297 360
#     4  11  20  37  61  83 118 153 194 255 304 350
#     4  10  21  37  58  83 116 157 198 247 296 367
#
# _framework density 18.205282
#
# number of rings (size 3 to 8) (size 9 to 14) (size 15 to 20)
#    0.000    2.500    2.500    3.000    0.000    1.500 
#    4.500    1.250    0.000    0.000    0.000    0.000 
#    0.000    0.000    0.000    0.000    0.000    0.000 
#
# Total GULP energy -178192.515762 kJ/mol
# GULP energy per Si atom -5568.516118 kJ/mol
# Density = 1.816385 g / cm^3
# Si number density = 18.205282 Si / 1000 Ang^3
#
#
#
# Elastic Constant Matrix: (Units=GPa)
#
#
# Indices 1 2 3 4 5 6 
#
# 1 108.9638 25.8701 47.0524 0.0000 0.0000 0.0000
# 2 25.8701 52.6888 39.6364 0.0000 0.0000 0.0000
# 3 47.0524 39.6364 75.4936 0.0000 0.0000 0.0000
# 4 0.0000 0.0000 0.0000 23.2982 0.0000 0.0000
# 5 0.0000 0.0000 0.0000 0.0000 27.0856 0.0000
# 6 0.0000 0.0000 0.0000 0.0000 0.0000 29.9314
#
#
#
# Elastic Compliance Matrix: (Units=1/GPa)
#
#
# Indices 1 2 3 4 5 6 
#
# 1 0.012564 -0.000460 -0.007589 0.000000 0.000000 0.000000
# 2 -0.000460 0.031386 -0.016192 0.000000 0.000000 0.000000
# 3 -0.007589 -0.016192 0.026478 0.000000 0.000000 0.000000
# 4 0.000000 0.000000 0.000000 0.042922 0.000000 0.000000
# 5 0.000000 0.000000 0.000000 0.000000 0.036920 0.000000
# 6 0.000000 0.000000 0.000000 0.000000 0.000000 0.033410
#
#
# Mechanical properties :
#
#
# Convention : Reuss Voigt Hill
#
# Bulk Modulus (GPa) = 45.56769 51.36266 48.46518
# Shear Modulus (GPa) = 20.87899 24.36887 22.62393
#
# Velocity S-wave (km/s) = 3.39021 3.66260 3.52904
# Velocity P-wave (km/s) = 6.35681 6.79415 6.57911
#
# Compressibility (1/GPa) = 0.02194538
#
# Stress axis : x y z
#
# Youngs Moduli (GPa) = 79.59515 31.86145 37.76791
#
# Poissons Ratio (x) = 0.01464 0.28662
# Poissons Ratio (y) = 0.03658 0.61154
# Poissons Ratio (z) = 0.60406 0.51590
#
# Static dielectric constant tensor:
#      x y z
#    x 1.656880 0.000000 0.000000 
#    y 0.000000 1.610860 0.000000 
#    z 0.000000 0.000000 1.664000 
# 
# From -- ./inp_files/20235.got.cif
#   From: 2010.05.17/outbox.cif.g08.bks.cpg/sg46_11_cif.got.tgz:20235.got - 2010.06.03 19:58:25.
