data_PCOD9378078
_publ_section_title
;
Structure prediction by ZEFSAII (Michael W. Deem and Ramdas Pophale) SiO2 
 PCOD9378078
Probable space group: I M A 2
;
_chemical_formula_sum "Si O2"
_cell_formula_units_Z 64
_cell_length_a 16.252615
_cell_length_b 16.142889
_cell_length_c 13.543631
_cell_angle_alpha 90.000000
_cell_angle_beta 90.000000
_cell_angle_gamma 90.000000
_cell_volume 3553.363369
_symmetry_space_group_name_H-M "I M A 2"
_symmetry_group_IT_number 46
_symmetry_cell_setting 'orthorhombic'
loop_
_space_group_symop_operation_xyz
x,y,z
-x,-y,z
1/2-x,y,z
1/2+x,-y,z
1/2+x,1/2+y,1/2+z
1/2-x,1/2-y,1/2+z
-x,1/2+y,1/2+z
x,1/2-y,1/2+z
loop_
_atom_site_type_symbol
_atom_site_label
_atom_site_fract_x
_atom_site_fract_y
_atom_site_fract_z
Si Si1 0.494771 0.900218 0.918090
Si Si2 0.155885 0.175625 0.400801
Si Si3 0.846082 0.334338 0.770230
Si Si4 0.660661 0.558259 0.656745
Si Si5 0.158328 0.602858 0.544285
Si Si6 0.406968 0.004797 0.349213
Si Si7 0.486453 0.263865 0.269458
Si Si8 0.095408 0.286576 0.571867
O O1 0.513662 0.856322 0.814091
O O2 0.500000 0.000000 0.916095
O O3 0.405227 0.876645 0.959974
O O4 0.550831 0.852310 0.998842
O O5 0.250000 0.193269 0.369225
O O6 0.142018 0.076954 0.404315
O O7 0.138678 0.218093 0.505655
O O8 0.084697 0.213756 0.329778
O O9 0.750000 0.308762 0.783824
O O10 0.855476 0.359514 0.653853
O O11 0.864536 0.415808 0.836800
O O12 0.922626 0.273363 0.789446
O O13 0.750000 0.537654 0.702575
O O14 0.652865 0.495722 0.565969
O O15 0.591028 0.538610 0.735890
O O16 0.657525 0.652964 0.628152
O O17 0.250000 0.625065 0.514187
O O18 0.500000 0.000000 0.386704
O O19 0.464034 0.252714 0.154414
#
# Coordination Sequence:
#
# PCOD9378078 Si02
#       8
#     8   8   8   8   8   8   8   8
#     4  11  22  37  59  85 114 156 197 243 296 356
#     4  11  23  36  55  85 116 155 200 243 300 360
#     4  10  19  34  58  90 122 156 194 241 301 353
#     4  10  18  29  52  82 110 144 184 238 297 340
#     4   9  18  31  54  86 113 145 192 239 291 351
#     4  11  19  32  54  84 121 150 188 242 294 351
#     4  11  23  38  59  89 121 154 197 247 300 355
#     4  11  21  36  57  79 116 154 196 246 298 350
#
# _framework density 18.011105000000001
#
# number of rings (size 3 to 8) (size 9 to 14) (size 15 to 20)
#    0.000    1.500    5.000    2.250    1.750    1.000 
#    0.000    0.625    0.000    0.000    0.000    0.000 
#    0.000    0.000    0.000    0.000    0.000    0.000 
#
# Total GULP energy -178220.780711 kJ/mol
# GULP energy per Si atom -5569.399397 kJ/mol
# Density = 1.797011 g / cm^3
# Si number density = 18.011105 Si / 1000 Ang^3
#
#
#
# Elastic Constant Matrix: (Units=GPa)
#
#
# Indices 1 2 3 4 5 6 
#
# 1 116.8626 33.5427 20.2371 0.0000 0.0000 0.0000
# 2 33.5427 70.9986 33.6697 0.0000 0.0000 0.0000
# 3 20.2371 33.6697 42.9588 0.0000 0.0000 0.0000
# 4 0.0000 0.0000 0.0000 27.1346 0.0000 0.0000
# 5 0.0000 0.0000 0.0000 0.0000 18.4787 0.0000
# 6 0.0000 0.0000 0.0000 0.0000 0.0000 20.0244
#
#
#
# Elastic Compliance Matrix: (Units=1/GPa)
#
#
# Indices 1 2 3 4 5 6 
#
# 1 0.009968 -0.003951 -0.001599 0.000000 0.000000 0.000000
# 2 -0.003951 0.023983 -0.016936 0.000000 0.000000 0.000000
# 3 -0.001599 -0.016936 0.037305 0.000000 0.000000 0.000000
# 4 0.000000 0.000000 0.000000 0.036853 0.000000 0.000000
# 5 0.000000 0.000000 0.000000 0.000000 0.054116 0.000000
# 6 0.000000 0.000000 0.000000 0.000000 0.000000 0.049939
#
#
# Mechanical properties :
#
#
# Convention : Reuss Voigt Hill
#
# Bulk Modulus (GPa) = 38.04547 45.07988 41.56267
# Shear Modulus (GPa) = 18.80424 22.68559 20.74492
#
# Velocity S-wave (km/s) = 3.23466 3.55284 3.39748
# Velocity P-wave (km/s) = 5.92620 6.47406 6.20618
#
# Compressibility (1/GPa) = 0.02628434
#
# Stress axis : x y z
#
# Youngs Moduli (GPa) = 100.32101 41.69656 26.80602
#
# Poissons Ratio (x) = 0.16474 0.04287
# Poissons Ratio (y) = 0.39636 0.45398
# Poissons Ratio (z) = 0.16042 0.70616
#
# Static dielectric constant tensor:
#      x y z
#    x 1.670130 0.000000 0.000000 
#    y 0.000000 1.632180 0.000000 
#    z 0.000000 0.000000 1.630050 
# 
# From -- ./inp_files/16200.got.cif
#   From: 2010.05.17/outbox.cif.g08.bks.cpg/sg46_9_cif.got.tgz:16200.got - 2010.06.03 19:58:25.
