data_PCOD9378819
_publ_section_title
;
Structure prediction by ZEFSAII (Michael W. Deem and Ramdas Pophale) SiO2 
 PCOD9378819
Probable space group: I M A 2
;
_chemical_formula_sum "Si O2"
_cell_formula_units_Z 64
_cell_length_a 8.685671
_cell_length_b 16.908425
_cell_length_c 22.431227
_cell_angle_alpha 90.000000
_cell_angle_beta 90.000000
_cell_angle_gamma 90.000000
_cell_volume 3294.272803
_symmetry_space_group_name_H-M "I M A 2"
_symmetry_group_IT_number 46
_symmetry_cell_setting 'orthorhombic'
loop_
_space_group_symop_operation_xyz
x,y,z
-x,-y,z
1/2-x,y,z
1/2+x,-y,z
1/2+x,1/2+y,1/2+z
1/2-x,1/2-y,1/2+z
-x,1/2+y,1/2+z
x,1/2-y,1/2+z
loop_
_atom_site_type_symbol
_atom_site_label
_atom_site_fract_x
_atom_site_fract_y
_atom_site_fract_z
Si Si1 0.435608 0.239130 0.738070
Si Si2 0.427314 0.586000 0.764345
Si Si3 0.566499 0.916370 0.811120
Si Si4 0.569679 0.724917 0.974358
Si Si5 0.069158 0.884952 0.938722
Si Si6 0.933751 0.743760 0.607407
Si Si7 0.432909 0.579073 0.572326
Si Si8 0.927737 0.082765 0.408190
O O1 0.250000 0.243315 0.744302
O O2 0.496527 0.329023 0.747848
O O3 0.488555 0.166410 0.780503
O O4 0.476828 0.216822 0.669762
O O5 0.500000 0.500000 0.746805
O O6 0.250000 0.586800 0.743567
O O7 0.430256 0.586600 0.836504
O O8 0.750000 0.918836 0.805003
O O9 0.521104 0.912421 0.880777
O O10 0.500000 0.000000 0.787338
O O11 0.750000 0.748297 0.970132
O O12 0.461995 0.792123 0.946662
O O13 0.535309 0.648239 0.936760
O O14 0.529983 0.715101 0.044382
O O15 0.250000 0.902388 0.931532
O O16 0.013720 0.916382 0.003034
O O17 0.750000 0.733242 0.608599
O O18 0.009166 0.657572 0.603829
O O19 0.500000 0.500000 0.599915
O O20 0.250000 0.577200 0.572112
O O21 0.750000 0.091762 0.427195
O O22 0.000000 0.000000 0.426454
#
# Coordination Sequence:
#
# PCOD9378819 Si02
#       8
#     8   8   8   8   8   8   8   8
#     4  10  22  40  59  79 108 147 189 232 275 321
#     4  10  21  36  57  85 115 147 182 222 271 329
#     4  11  23  38  58  83 111 145 186 231 280 332
#     4  10  19  33  55  80 107 140 177 218 269 325
#     4  10  20  34  54  81 112 142 175 217 267 325
#     4   9  20  38  56  74 101 139 181 222 264 315
#     4  10  20  33  52  79 109 140 173 212 261 318
#     4  10  20  34  53  79 110 140 174 218 269 325
#
# _framework density 19.427657
#
# number of rings (size 3 to 8) (size 9 to 14) (size 15 to 20)
#    0.000    2.000    0.000    3.375    0.000    8.500 
#    0.000    0.625    0.000    1.500    0.000    0.000 
#    0.000    0.000    0.000    0.000    0.000    0.000 
#
# Total GULP energy -178487.789996 kJ/mol
# GULP energy per Si atom -5577.743437 kJ/mol
# Density = 1.938344 g / cm^3
# Si number density = 19.427657 Si / 1000 Ang^3
#
#
#
# Elastic Constant Matrix: (Units=GPa)
#
#
# Indices 1 2 3 4 5 6 
#
# 1 30.2396 14.3661 23.1350 0.0000 0.0000 0.0000
# 2 14.3661 97.6139 30.8532 0.0000 0.0000 0.0000
# 3 23.1350 30.8532 65.4754 0.0000 0.0000 0.0000
# 4 0.0000 0.0000 0.0000 -11.1059 0.0000 0.0000
# 5 0.0000 0.0000 0.0000 0.0000 14.7834 0.0000
# 6 0.0000 0.0000 0.0000 0.0000 0.0000 32.5528
#
#
#
# Elastic Compliance Matrix: (Units=1/GPa)
#
#
# Indices 1 2 3 4 5 6 
#
# 1 0.045619 -0.001902 -0.015223 0.000000 0.000000 0.000000
# 2 -0.001902 0.012117 -0.005037 0.000000 0.000000 0.000000
# 3 -0.015223 -0.005037 0.023025 0.000000 0.000000 0.000000
# 4 0.000000 0.000000 0.000000 -0.090042 0.000000 0.000000
# 5 0.000000 0.000000 0.000000 0.000000 0.067643 0.000000
# 6 0.000000 0.000000 0.000000 0.000000 0.000000 0.030719
#
#
# Mechanical properties :
#
#
# Convention : Reuss Voigt Hill
#
# Bulk Modulus (GPa) = 27.44512 36.67082 32.05797
# Shear Modulus (GPa) = 34.35216 15.57771 24.96494
#
# Velocity S-wave (km/s) = 4.20957 2.83474 3.58861
# Velocity P-wave (km/s) = 6.14693 5.44342 5.80584
#
# Compressibility (1/GPa) = 0.03643635
#
# Stress axis : x y z
#
# Youngs Moduli (GPa) = 21.92069 82.53132 43.43043
#
# Poissons Ratio (x) = 0.15701 0.66112
# Poissons Ratio (y) = 0.04170 0.21878
# Poissons Ratio (z) = 0.33369 0.41574
#
# Static dielectric constant tensor:
#      x y z
#    x 1.672290 0.000000 0.000000 
#    y 0.000000 1.714660 0.000000 
#    z 0.000000 0.000000 1.697440 
# 
# From -- ./inp_files/23218.got.cif
#   From: 2010.05.17/outbox.cif.g08.bks.cpg/sg46_12_cif.got.tgz:23218.got - 2010.06.03 19:58:25.
