data_PCOD9378818
_publ_section_title
;
Structure prediction by ZEFSAII (Michael W. Deem and Ramdas Pophale) SiO2 
 PCOD9378818
Probable space group: I M A 2
;
_chemical_formula_sum "Si O2"
_cell_formula_units_Z 64
_cell_length_a 9.543157
_cell_length_b 17.503266
_cell_length_c 22.163038
_cell_angle_alpha 90.000000
_cell_angle_beta 90.000000
_cell_angle_gamma 90.000000
_cell_volume 3702.034423
_symmetry_space_group_name_H-M "I M A 2"
_symmetry_group_IT_number 46
_symmetry_cell_setting 'orthorhombic'
loop_
_space_group_symop_operation_xyz
x,y,z
-x,-y,z
1/2-x,y,z
1/2+x,-y,z
1/2+x,1/2+y,1/2+z
1/2-x,1/2-y,1/2+z
-x,1/2+y,1/2+z
x,1/2-y,1/2+z
loop_
_atom_site_type_symbol
_atom_site_label
_atom_site_fract_x
_atom_site_fract_y
_atom_site_fract_z
Si Si1 0.098770 0.792561 0.642650
Si Si2 0.081136 0.727353 0.923406
Si Si3 0.587979 0.076952 0.349592
Si Si4 0.996445 0.829016 0.233209
Si Si5 0.585965 0.423031 0.238226
Si Si6 0.589323 0.694663 0.316675
Si Si7 0.917254 0.726068 0.543345
Si Si8 0.089276 0.076517 0.117948
O O1 0.250000 0.788554 0.610734
O O2 0.095500 0.725411 0.692927
O O3 0.087337 0.871543 0.678046
O O4 0.970114 0.778747 0.598370
O O5 0.250000 0.739158 0.923839
O O6 0.055944 0.640066 0.901052
O O7 0.002153 0.777646 0.873123
O O8 0.007249 0.749096 0.985855
O O9 0.750000 0.056634 0.354442
O O10 0.563999 0.118888 0.285124
O O11 0.500000 0.000000 0.353670
O O12 0.907202 0.766123 0.269810
O O13 0.924331 0.882605 0.183391
O O14 0.500000 0.500000 0.228937
O O15 0.750000 0.434699 0.255415
O O16 0.497984 0.373195 0.286069
O O17 0.750000 0.674401 0.331676
O O18 0.750000 0.731778 0.533493
O O19 0.949624 0.640423 0.567919
O O20 0.250000 0.056096 0.108122
O O21 0.000000 0.000000 0.115866
#
# Coordination Sequence:
#
# PCOD9378818 Si02
#       8
#     8   8   8   8   8   8   8   8
#     4   9  18  33  54  78 104 137 175 213 257 310
#     4  10  21  38  57  76 101 136 179 221 261 309
#     4  10  21  34  51  78 109 138 170 210 254 304
#     4   9  18  31  52  79 109 141 173 205 245 304
#     4  10  20  34  53  79 110 140 173 217 268 318
#     4  10  19  33  55  80 106 138 176 216 261 313
#     4  10  21  37  56  77 101 133 177 222 261 307
#     4  10  21  34  50  77 109 137 168 206 250 301
#
# _framework density 17.287790999999999
#
# number of rings (size 3 to 8) (size 9 to 14) (size 15 to 20)
#    0.000    2.250    0.000    2.625    0.000   13.500 
#    0.000    1.250    0.000    1.500    0.000    0.000 
#    0.000    0.000    0.000    0.000    0.000    0.000 
#
# Total GULP energy -178309.427574 kJ/mol
# GULP energy per Si atom -5572.169612 kJ/mol
# Density = 1.724844 g / cm^3
# Si number density = 17.287791 Si / 1000 Ang^3
#
#
#
# Elastic Constant Matrix: (Units=GPa)
#
#
# Indices 1 2 3 4 5 6 
#
# 1 126.9217 75.8074 55.1225 0.0000 0.0000 0.0000
# 2 75.8074 122.2532 51.5441 0.0000 0.0000 0.0000
# 3 55.1225 51.5441 101.1040 0.0000 0.0000 0.0000
# 4 0.0000 0.0000 0.0000 6.3231 0.0000 0.0000
# 5 0.0000 0.0000 0.0000 0.0000 19.6196 0.0000
# 6 0.0000 0.0000 0.0000 0.0000 0.0000 -4.1387
#
#
#
# Elastic Compliance Matrix: (Units=1/GPa)
#
#
# Indices 1 2 3 4 5 6 
#
# 1 0.013669 -0.006794 -0.003989 0.000000 0.000000 0.000000
# 2 -0.006794 0.013797 -0.003329 0.000000 0.000000 0.000000
# 3 -0.003989 -0.003329 0.013763 0.000000 0.000000 0.000000
# 4 0.000000 0.000000 0.000000 0.158151 0.000000 0.000000
# 5 0.000000 0.000000 0.000000 0.000000 0.050969 0.000000
# 6 0.000000 0.000000 0.000000 0.000000 0.000000 -0.241622
#
#
# Mechanical properties :
#
#
# Convention : Reuss Voigt Hill
#
# Bulk Modulus (GPa) = 76.90058 79.46965 78.18511
# Shear Modulus (GPa) = 121.10494 15.54779 68.32636
#
# Velocity S-wave (km/s) = 8.37880 3.00217 6.29354
# Velocity P-wave (km/s) = 11.75521 7.62141 9.90633
#
# Compressibility (1/GPa) = 0.01300380
#
# Stress axis : x y z
#
# Youngs Moduli (GPa) = 73.15631 72.48173 72.65969
#
# Poissons Ratio (x) = 0.49247 0.28982
# Poissons Ratio (y) = 0.49706 0.24190
# Poissons Ratio (z) = 0.29180 0.24131
#
# Static dielectric constant tensor:
#      x y z
#    x 1.599890 0.000000 0.000000 
#    y 0.000000 1.578950 0.000000 
#    z 0.000000 0.000000 1.589800 
# 
# From -- ./inp_files/21301.got.cif
#   From: 2010.05.17/outbox.cif.g08.bks.cpg/sg46_11_cif.got.tgz:21301.got - 2010.06.03 19:58:25.
