data_PCOD9378605
_publ_section_title
;
Structure prediction by ZEFSAII (Michael W. Deem and Ramdas Pophale) SiO2 
 PCOD9378605
Probable space group: I M A 2
;
_chemical_formula_sum "Si O2"
_cell_formula_units_Z 56
_cell_length_a 26.237414
_cell_length_b 21.902805
_cell_length_c 5.312101
_cell_angle_alpha 90.000000
_cell_angle_beta 90.000000
_cell_angle_gamma 90.000000
_cell_volume 3052.720819
_symmetry_space_group_name_H-M "I M A 2"
_symmetry_group_IT_number 46
_symmetry_cell_setting 'orthorhombic'
loop_
_space_group_symop_operation_xyz
x,y,z
-x,-y,z
1/2-x,y,z
1/2+x,-y,z
1/2+x,1/2+y,1/2+z
1/2-x,1/2-y,1/2+z
-x,1/2+y,1/2+z
x,1/2-y,1/2+z
loop_
_atom_site_type_symbol
_atom_site_label
_atom_site_fract_x
_atom_site_fract_y
_atom_site_fract_z
Si Si1 0.635285 0.043058 0.825960
Si Si2 0.568976 0.153828 0.699609
Si Si3 0.914843 0.996732 0.307461
Si Si4 0.999919 0.402956 0.839833
Si Si5 0.993740 0.732704 0.708801
Si Si6 0.250000 0.841700 0.275701
Si Si7 0.859597 0.285610 0.819107
Si Si8 0.250000 0.916275 0.771603
O O1 0.606727 0.109548 0.853692
O O2 0.613177 0.015139 0.566453
O O3 0.695895 0.051268 0.813352
O O4 0.620982 0.002633 0.066424
O O5 0.519737 0.114286 0.619818
O O6 0.542763 0.220886 0.751226
O O7 0.602882 0.165098 0.444291
O O8 0.959363 0.046609 0.256754
O O9 0.944789 0.932971 0.331995
O O10 0.995580 0.339077 0.691179
O O11 0.965290 0.757672 0.469260
O O12 0.301266 0.805573 0.336484
O O13 0.250000 0.895449 0.481120
O O14 0.250000 0.862881 0.985312
O O15 0.866252 0.231497 0.026617
#
# Coordination Sequence:
#
# PCOD9378605 Si02
#       8
#     8   8   8   8   8   4   8   4
#     4  11  23  39  59  81 105 145 190 241 286 334
#     4  10  21  36  57  79 112 146 190 220 283 332
#     4  10  22  37  57  80 107 141 185 234 288 330
#     4   9  20  36  54  80 110 144 186 231 272 336
#     4  10  19  32  49  75 106 144 180 215 262 320
#     4  12  24  41  54  74 100 148 184 253 288 319
#     4  12  24  37  53  74 106 144 193 236 279 328
#     4  12  24  41  62  78 106 142 194 247 298 321
#
# _framework density 18.344290999999998
#
# number of rings (size 3 to 8) (size 9 to 14) (size 15 to 20)
#    0.000    1.429    1.429    4.714    2.000    6.857 
#    0.000    0.000    0.000    0.000    0.000    0.000 
#    0.000    0.000    0.000   51.429    0.000    0.286 
#
# Total GULP energy -156053.259414 kJ/mol
# GULP energy per Si atom -5573.330693 kJ/mol
# Density = 1.830254 g / cm^3
# Si number density = 18.344291 Si / 1000 Ang^3
#
#
#
# Elastic Constant Matrix: (Units=GPa)
#
#
# Indices 1 2 3 4 5 6 
#
# 1 81.7868 45.7439 21.4658 0.0000 0.0000 0.0000
# 2 45.7439 79.7937 17.1454 0.0000 0.0000 0.0000
# 3 21.4658 17.1454 83.7184 0.0000 0.0000 0.0000
# 4 0.0000 0.0000 0.0000 18.7043 0.0000 0.0000
# 5 0.0000 0.0000 0.0000 0.0000 15.1554 0.0000
# 6 0.0000 0.0000 0.0000 0.0000 0.0000 28.9931
#
#
#
# Elastic Compliance Matrix: (Units=1/GPa)
#
#
# Indices 1 2 3 4 5 6 
#
# 1 0.018563 -0.010062 -0.002699 0.000000 0.000000 0.000000
# 2 -0.010062 0.018563 -0.001222 0.000000 0.000000 0.000000
# 3 -0.002699 -0.001222 0.012887 0.000000 0.000000 0.000000
# 4 0.000000 0.000000 0.000000 0.053464 0.000000 0.000000
# 5 0.000000 0.000000 0.000000 0.000000 0.065983 0.000000
# 6 0.000000 0.000000 0.000000 0.000000 0.000000 0.034491
#
#
# Mechanical properties :
#
#
# Convention : Reuss Voigt Hill
#
# Bulk Modulus (GPa) = 45.35576 46.00100 45.67838
# Shear Modulus (GPa) = 20.89732 23.30014 22.09873
#
# Velocity S-wave (km/s) = 3.37883 3.56779 3.47459
# Velocity P-wave (km/s) = 6.32458 6.48869 6.40716
#
# Compressibility (1/GPa) = 0.02204792
#
# Stress axis : x y z
#
# Youngs Moduli (GPa) = 53.87092 53.87059 77.59723
#
# Poissons Ratio (x) = 0.54203 0.20943
# Poissons Ratio (y) = 0.54204 0.09481
# Poissons Ratio (z) = 0.14540 0.06582
#
# Static dielectric constant tensor:
#      x y z
#    x 1.618810 0.000000 0.000000 
#    y 0.000000 1.698590 0.000000 
#    z 0.000000 0.000000 1.754860 
# 
# From -- ./inp_files/2383.got.cif
#   From: 2010.05.17/outbox.cif.g08.bks.cpg/sg46_2_cif.got.tgz:2383.got - 2010.06.03 19:58:25.
