data_PCOD9378790
_publ_section_title
;
Structure prediction by ZEFSAII (Michael W. Deem and Ramdas Pophale) SiO2 
 PCOD9378790
Probable space group: I M A 2
;
_chemical_formula_sum "Si O2"
_cell_formula_units_Z 64
_cell_length_a 25.522850
_cell_length_b 9.149996
_cell_length_c 14.495207
_cell_angle_alpha 90.000000
_cell_angle_beta 90.000000
_cell_angle_gamma 90.000000
_cell_volume 3385.123315
_symmetry_space_group_name_H-M "I M A 2"
_symmetry_group_IT_number 46
_symmetry_cell_setting 'orthorhombic'
loop_
_space_group_symop_operation_xyz
x,y,z
-x,-y,z
1/2-x,y,z
1/2+x,-y,z
1/2+x,1/2+y,1/2+z
1/2-x,1/2-y,1/2+z
-x,1/2+y,1/2+z
x,1/2-y,1/2+z
loop_
_atom_site_type_symbol
_atom_site_label
_atom_site_fract_x
_atom_site_fract_y
_atom_site_fract_z
Si Si1 0.541336 0.166881 0.245410
Si Si2 0.555405 0.472116 0.551396
Si Si3 0.364258 0.759533 0.469972
Si Si4 0.311333 0.981710 0.604564
Si Si5 0.545829 0.617171 0.253040
Si Si6 0.130674 0.901729 0.789863
Si Si7 0.559024 0.519686 0.911632
Si Si8 0.099124 0.291887 0.063233
O O1 0.535698 0.115695 0.141464
O O2 0.487722 0.240784 0.283107
O O3 0.587519 0.285527 0.252916
O O4 0.557960 0.026707 0.304795
O O5 0.500000 0.500000 0.498156
O O6 0.597692 0.365149 0.508097
O O7 0.587169 0.620427 0.572410
O O8 0.324923 0.840396 0.539960
O O9 0.343398 0.680940 0.376868
O O10 0.403816 0.891591 0.448798
O O11 0.250000 0.011558 0.600276
O O12 0.330090 0.940787 0.707767
O O13 0.344868 0.126239 0.575272
O O14 0.500000 0.500000 0.251387
O O15 0.595002 0.547696 0.308464
O O16 0.565997 0.639516 0.148253
O O17 0.500000 0.500000 0.946153
O O18 0.580064 0.663469 0.960913
#
# Coordination Sequence:
#
# PCOD9378790 Si02
#       8
#     8   8   8   8   8   8   8   8
#     4  10  19  33  53  82 121 162 196 228 278 359
#     4  12  21  33  55  88 127 157 185 228 289 358
#     4  10  22  37  57  88 117 150 200 246 291 351
#     4  10  21  42  66  81 106 154 205 254 309 351
#     4   9  17  30  53  77 116 158 189 226 281 351
#     4   9  19  36  58  87 118 147 197 249 295 348
#     4  10  20  32  50  79 117 159 194 225 271 351
#     4  10  21  34  52  82 114 153 189 242 293 346
#
# _framework density 18.906254000000001
#
# number of rings (size 3 to 8) (size 9 to 14) (size 15 to 20)
#    0.000    2.000    2.500    1.500    1.750    4.000 
#    2.250    0.625    0.000    0.000    0.000    0.000 
#    0.000    0.000    0.000    0.000    0.000    0.000 
#
# Total GULP energy -178135.514626 kJ/mol
# GULP energy per Si atom -5566.734832 kJ/mol
# Density = 1.886322 g / cm^3
# Si number density = 18.906254 Si / 1000 Ang^3
#
#
#
# Elastic Constant Matrix: (Units=GPa)
#
#
# Indices 1 2 3 4 5 6 
#
# 1 90.2750 5.1575 8.1548 0.0000 0.0000 0.0000
# 2 5.1575 68.4153 -5.3807 0.0000 0.0000 0.0000
# 3 8.1548 -5.3807 22.9530 0.0000 0.0000 0.0000
# 4 0.0000 0.0000 0.0000 3002.8453 0.0000 0.0000
# 5 0.0000 0.0000 0.0000 0.0000 21.3645 0.0000
# 6 0.0000 0.0000 0.0000 0.0000 0.0000 16.1834
#
#
#
# Elastic Compliance Matrix: (Units=1/GPa)
#
#
# Indices 1 2 3 4 5 6 
#
# 1 0.011543 -0.001215 -0.004386 0.000000 0.000000 0.000000
# 2 -0.001215 0.015019 0.003953 0.000000 0.000000 0.000000
# 3 -0.004386 0.003953 0.046052 0.000000 0.000000 0.000000
# 4 0.000000 0.000000 0.000000 0.000333 0.000000 0.000000
# 5 0.000000 0.000000 0.000000 0.000000 0.046807 0.000000
# 6 0.000000 0.000000 0.000000 0.000000 0.000000 0.061792
#
#
# Mechanical properties :
#
#
# Convention : Reuss Voigt Hill
#
# Bulk Modulus (GPa) = 14.42646 21.94518 18.18582
# Shear Modulus (GPa) = 24.04452 619.65944 321.85198
#
# Velocity S-wave (km/s) = 3.57007 18.12361 13.06160
# Velocity P-wave (km/s) = 4.96396 21.20345 15.39849
#
# Compressibility (1/GPa) = 0.06931709
#
# Stress axis : x y z
#
# Youngs Moduli (GPa) = 86.63355 66.58205 21.71459
#
# Poissons Ratio (x) = 0.08090 0.09524
# Poissons Ratio (y) = 0.10527 -0.08583
# Poissons Ratio (z) = 0.37996 -0.26317
#
# Static dielectric constant tensor:
#      x y z
#    x 1.609150 0.000000 0.000000 
#    y 0.000000 -0.313860 0.000000 
#    z 0.000000 0.000000 1.726800 
# 
# From -- ./inp_files/17386.got.cif
#   From: 2010.05.17/outbox.cif.g08.bks.cpg/sg46_9_cif.got.tgz:17386.got - 2010.06.03 19:58:25.
