data_PCOD9378836
_publ_section_title
;
Structure prediction by ZEFSAII (Michael W. Deem and Ramdas Pophale) SiO2 
 PCOD9378836
Probable space group: I M A 2
;
_chemical_formula_sum "Si O2"
_cell_formula_units_Z 56
_cell_length_a 16.162559
_cell_length_b 4.984209
_cell_length_c 31.570382
_cell_angle_alpha 90.000000
_cell_angle_beta 90.000000
_cell_angle_gamma 90.000000
_cell_volume 2543.233322
_symmetry_space_group_name_H-M "I M A 2"
_symmetry_group_IT_number 46
_symmetry_cell_setting 'orthorhombic'
loop_
_space_group_symop_operation_xyz
x,y,z
-x,-y,z
1/2-x,y,z
1/2+x,-y,z
1/2+x,1/2+y,1/2+z
1/2-x,1/2-y,1/2+z
-x,1/2+y,1/2+z
x,1/2-y,1/2+z
loop_
_atom_site_type_symbol
_atom_site_label
_atom_site_fract_x
_atom_site_fract_y
_atom_site_fract_z
Si Si1 0.654556 0.952941 0.398030
Si Si2 0.444520 0.242722 0.121047
Si Si3 0.906022 0.432793 0.990819
Si Si4 0.654858 0.028562 0.841018
Si Si5 0.153714 0.330223 0.205867
Si Si6 0.843916 0.579085 0.538441
Si Si7 0.152776 0.845242 0.260722
O O1 0.750000 0.868256 0.407568
O O2 0.607015 0.997340 0.441622
O O3 0.619795 0.735117 0.364322
O O4 0.658022 0.240493 0.375970
O O5 0.500000 0.500000 0.108641
O O6 0.387596 0.319630 0.160391
O O7 0.394996 0.120986 0.081380
O O8 0.500000 0.000000 0.137288
O O9 0.000000 0.500000 0.002337
O O10 0.847106 0.633450 0.016109
O O11 0.884497 0.134341 0.006197
O O12 0.750000 0.952554 0.828343
O O13 0.616116 0.182715 0.800766
O O14 0.250000 0.255088 0.201247
O O15 0.149131 0.630194 0.223264
O O16 0.119193 0.123463 0.241673
O O17 0.750000 0.496838 0.547423
O O18 0.250000 0.894867 0.272494
#
# Coordination Sequence:
#
# PCOD9378836 Si02
#       7
#     8   8   8   8   8   8   8
#     4  10  19  33  55  84 118 157 203 249 297 358
#     4  12  25  42  63  89 124 161 200 249 314 378
#     4  12  25  42  64  92 128 165 202 252 318 383
#     4   9  17  30  53  85 117 151 198 254 301 346
#     4  10  20  36  59  87 118 155 202 250 299 359
#     4  12  25  44  68  93 121 158 209 260 310 373
#     4   9  17  31  55  86 118 153 199 254 302 347
#
# _framework density 22.019213000000001
#
# number of rings (size 3 to 8) (size 9 to 14) (size 15 to 20)
#    0.000    1.429    0.000    6.857    0.000    4.571 
#    0.000    4.286    0.000    8.571    0.000    0.000 
#    0.000    0.000    0.000    0.000    0.000    0.000 
#
# Total GULP energy -156420.692262 kJ/mol
# GULP energy per Si atom -5586.453295 kJ/mol
# Density = 2.196910 g / cm^3
# Si number density = 22.019213 Si / 1000 Ang^3
#
#
#
# Elastic Constant Matrix: (Units=GPa)
#
#
# Indices 1 2 3 4 5 6 
#
# 1 50.4796 3.0057 7.6826 0.0000 0.0000 0.0000
# 2 3.0057 96.4324 -5.4470 0.0000 0.0000 0.0000
# 3 7.6826 -5.4470 65.2994 0.0000 0.0000 0.0000
# 4 0.0000 0.0000 0.0000 38.8026 0.0000 0.0000
# 5 0.0000 0.0000 0.0000 0.0000 -25.5056 0.0000
# 6 0.0000 0.0000 0.0000 0.0000 0.0000 16.9267
#
#
#
# Elastic Compliance Matrix: (Units=1/GPa)
#
#
# Indices 1 2 3 4 5 6 
#
# 1 0.020228 -0.000769 -0.002444 0.000000 0.000000 0.000000
# 2 -0.000769 0.010448 0.000962 0.000000 0.000000 0.000000
# 3 -0.002444 0.000962 0.015682 0.000000 0.000000 0.000000
# 4 0.000000 0.000000 0.000000 0.025771 0.000000 0.000000
# 5 0.000000 0.000000 0.000000 0.000000 -0.039207 0.000000
# 6 0.000000 0.000000 0.000000 0.000000 0.000000 0.059078
#
#
# Mechanical properties :
#
#
# Convention : Reuss Voigt Hill
#
# Bulk Modulus (GPa) = 23.89099 24.74379 24.31739
# Shear Modulus (GPa) = 45.26787 19.84276 32.55532
#
# Velocity S-wave (km/s) = 4.53905 3.00518 3.84929
# Velocity P-wave (km/s) = 6.19227 4.82735 5.55192
#
# Compressibility (1/GPa) = 0.04185679
#
# Stress axis : x y z
#
# Youngs Moduli (GPa) = 49.43722 95.70985 63.76796
#
# Poissons Ratio (x) = 0.07355 0.15585
# Poissons Ratio (y) = 0.03799 -0.06134
# Poissons Ratio (z) = 0.12082 -0.09207
#
# Static dielectric constant tensor:
#      x y z
#    x 1.837690 0.000000 0.000000 
#    y 0.000000 1.767220 0.000000 
#    z 0.000000 0.000000 1.809400 
# 
# From -- ./inp_files/25393.got.cif
#   From: 2010.05.17/outbox.cif.g08.bks.cpg/sg46_13_cif.got.tgz:25393.got - 2010.06.03 19:58:25.
