data_PCOD9378294
_publ_section_title
;
Structure prediction by ZEFSAII (Michael W. Deem and Ramdas Pophale) SiO2 
 PCOD9378294
Probable space group: I M A 2
;
_chemical_formula_sum "Si O2"
_cell_formula_units_Z 56
_cell_length_a 8.612818
_cell_length_b 15.740504
_cell_length_c 20.603716
_cell_angle_alpha 90.000000
_cell_angle_beta 90.000000
_cell_angle_gamma 90.000000
_cell_volume 2793.247760
_symmetry_space_group_name_H-M "I M A 2"
_symmetry_group_IT_number 46
_symmetry_cell_setting 'orthorhombic'
loop_
_space_group_symop_operation_xyz
x,y,z
-x,-y,z
1/2-x,y,z
1/2+x,-y,z
1/2+x,1/2+y,1/2+z
1/2-x,1/2-y,1/2+z
-x,1/2+y,1/2+z
x,1/2-y,1/2+z
loop_
_atom_site_type_symbol
_atom_site_label
_atom_site_fract_x
_atom_site_fract_y
_atom_site_fract_z
Si Si1 0.568605 0.420611 0.694640
Si Si2 0.569961 0.245407 0.619466
Si Si3 0.432320 0.178731 0.842145
Si Si4 0.427993 0.586559 0.954786
Si Si5 0.073952 0.380461 0.827434
Si Si6 0.065914 0.268667 0.480577
Si Si7 0.062798 0.094893 0.707900
O O1 0.500000 0.500000 0.654344
O O2 0.750000 0.434079 0.708979
O O3 0.556715 0.327733 0.664374
O O4 0.460053 0.415990 0.757401
O O5 0.750000 0.222028 0.611414
O O6 0.506672 0.280000 0.550912
O O7 0.488215 0.164847 0.654111
O O8 0.250000 0.155959 0.847320
O O9 0.440739 0.278324 0.823867
O O10 0.494208 0.125944 0.780279
O O11 0.495385 0.179761 0.916817
O O12 0.500000 0.500000 0.981750
O O13 0.250000 0.597070 0.974065
O O14 0.446104 0.585020 0.876965
O O15 0.529274 0.668952 0.970132
O O16 0.250000 0.399443 0.849888
O O17 0.250000 0.281538 0.482834
O O18 0.250000 0.093434 0.708884
O O19 0.000000 0.000000 0.694878
#
# Coordination Sequence:
#
# PCOD9378294 Si02
#       7
#     8   8   8   8   8   8   8
#     4  11  23  37  57  85 118 153 196 244 302 362
#     4  11  24  42  61  90 125 162 208 261 315 377
#     4   8  17  35  60  87 116 152 199 246 300 363
#     4  11  21  34  52  80 116 152 192 240 293 355
#     4  10  18  33  56  83 115 151 191 235 291 353
#     4  10  21  39  62  86 114 159 205 252 313 377
#     4  11  22  40  65  95 127 168 213 265 320 379
#
# _framework density 20.048348000000001
#
# number of rings (size 3 to 8) (size 9 to 14) (size 15 to 20)
#    0.000    1.714    1.429    4.714    0.000    2.286 
#    0.000    5.714    0.000    3.429    0.000    0.000 
#    0.000    0.000    0.000    0.000    0.000    0.000 
#
# Total GULP energy -156060.415224 kJ/mol
# GULP energy per Si atom -5573.586258 kJ/mol
# Density = 2.000272 g / cm^3
# Si number density = 20.048348 Si / 1000 Ang^3
#
#
#
# Elastic Constant Matrix: (Units=GPa)
#
#
# Indices 1 2 3 4 5 6 
#
# 1 66.9703 32.0652 25.6348 0.0000 0.0000 0.0000
# 2 32.0652 62.3022 3.2346 0.0000 0.0000 0.0000
# 3 25.6348 3.2346 73.5163 0.0000 0.0000 0.0000
# 4 0.0000 0.0000 0.0000 2.2133 0.0000 0.0000
# 5 0.0000 0.0000 0.0000 0.0000 16.0371 0.0000
# 6 0.0000 0.0000 0.0000 0.0000 0.0000 25.0946
#
#
#
# Elastic Compliance Matrix: (Units=1/GPa)
#
#
# Indices 1 2 3 4 5 6 
#
# 1 0.023456 -0.011674 -0.007665 0.000000 0.000000 0.000000
# 2 -0.011674 0.021898 0.003107 0.000000 0.000000 0.000000
# 3 -0.007665 0.003107 0.016139 0.000000 0.000000 0.000000
# 4 0.000000 0.000000 0.000000 0.451810 0.000000 0.000000
# 5 0.000000 0.000000 0.000000 0.000000 0.062355 0.000000
# 6 0.000000 0.000000 0.000000 0.000000 0.000000 0.039849
#
#
# Mechanical properties :
#
#
# Convention : Reuss Voigt Hill
#
# Bulk Modulus (GPa) = 34.44964 36.07311 35.26137
# Shear Modulus (GPa) = 7.60288 18.12594 12.86441
#
# Velocity S-wave (km/s) = 1.94949 3.01011 2.53587
# Velocity P-wave (km/s) = 4.72101 5.48754 5.11864
#
# Compressibility (1/GPa) = 0.02902788
#
# Stress axis : x y z
#
# Youngs Moduli (GPa) = 42.63390 45.66691 61.96344
#
# Poissons Ratio (x) = 0.53311 0.47496
# Poissons Ratio (y) = 0.49770 -0.19253
# Poissons Ratio (z) = 0.32680 -0.14190
#
# Static dielectric constant tensor:
#      x y z
#    x 1.698250 0.000000 0.000000 
#    y 0.000000 1.781930 0.000000 
#    z 0.000000 0.000000 1.818790 
# 
# From -- ./inp_files/21120.got.cif
#   From: 2010.05.17/outbox.cif.g08.bks.cpg/sg46_11_cif.got.tgz:21120.got - 2010.06.03 19:58:25.
