data_PCOD9378748
_publ_section_title
;
Structure prediction by ZEFSAII (Michael W. Deem and Ramdas Pophale) SiO2 
 PCOD9378748
Probable space group: I M A 2
;
_chemical_formula_sum "Si O2"
_cell_formula_units_Z 40
_cell_length_a 7.903817
_cell_length_b 29.013898
_cell_length_c 10.101481
_cell_angle_alpha 90.000000
_cell_angle_beta 90.000000
_cell_angle_gamma 90.000000
_cell_volume 2316.477080
_symmetry_space_group_name_H-M "I M A 2"
_symmetry_group_IT_number 46
_symmetry_cell_setting 'orthorhombic'
loop_
_space_group_symop_operation_xyz
x,y,z
-x,-y,z
1/2-x,y,z
1/2+x,-y,z
1/2+x,1/2+y,1/2+z
1/2-x,1/2-y,1/2+z
-x,1/2+y,1/2+z
x,1/2-y,1/2+z
loop_
_atom_site_type_symbol
_atom_site_label
_atom_site_fract_x
_atom_site_fract_y
_atom_site_fract_z
Si Si1 0.750000 0.295844 0.464190
Si Si2 0.555095 0.378836 0.171783
Si Si3 0.546478 0.448034 0.949105
Si Si4 0.437630 0.135278 0.961795
Si Si5 0.750000 0.208077 0.651382
Si Si6 0.953211 0.052311 0.146152
O O1 0.585286 0.327663 0.486806
O O2 0.750000 0.252259 0.560091
O O3 0.750000 0.281807 0.308676
O O4 0.750000 0.394546 0.204265
O O5 0.455139 0.378926 0.307838
O O6 0.590122 0.326136 0.126338
O O7 0.485899 0.410877 0.055857
O O8 0.500000 0.500000 0.988456
O O9 0.750000 0.444200 0.945133
O O10 0.486822 0.440818 0.798305
O O11 0.250000 0.153864 0.986543
O O12 0.468803 0.090523 0.051465
O O13 0.750000 0.056829 0.142340
O O14 0.000000 0.000000 0.108441
#
# Coordination Sequence:
#
# PCOD9378748 Si02
#       6
#     4   8   8   8   4   8
#     4  10  20  40  58  86 108 142 188 234 283 336
#     4   8  17  36  54  79 104 144 187 221 274 335
#     4   9  18  31  52  77 111 146 183 228 271 323
#     4  11  21  36  57  81 112 148 184 231 278 329
#     4   8  18  34  62  76 106 144 182 228 283 332
#     4  10  19  33  51  79 113 149 189 230 275 330
#
# _framework density 17.267600000000002
#
# number of rings (size 3 to 8) (size 9 to 14) (size 15 to 20)
#    0.600    2.000    2.000    0.600    0.000    4.000 
#    0.000    6.000    0.000    0.000    0.000    0.000 
#    0.000    0.000    0.000    0.000    0.000    0.000 
#
# Total GULP energy -111395.274830 kJ/mol
# GULP energy per Si atom -5569.763741 kJ/mol
# Density = 1.722830 g / cm^3
# Si number density = 17.267600 Si / 1000 Ang^3
#
#
#
# Elastic Constant Matrix: (Units=GPa)
#
#
# Indices 1 2 3 4 5 6 
#
# 1 78.0596 35.2990 31.0484 0.0000 0.0000 0.0000
# 2 35.2990 140.9880 107.7120 -0.0001 0.0001 0.0000
# 3 31.0484 107.7120 96.1958 -0.0001 0.0003 0.0001
# 4 0.0000 -0.0001 -0.0001 41.5310 0.0001 0.0000
# 5 0.0000 0.0001 0.0003 0.0001 1.4113 0.0000
# 6 0.0000 0.0000 0.0001 0.0000 0.0000 15.1383
#
#
#
# Elastic Compliance Matrix: (Units=1/GPa)
#
#
# Indices 1 2 3 4 5 6 
#
# 1 0.014701 -0.000385 -0.004314 0.000000 0.000001 0.000000
# 2 -0.000385 0.049075 -0.054826 0.000000 0.000011 0.000000
# 3 -0.004314 -0.054826 0.073177 0.000000 -0.000015 0.000000
# 4 0.000000 0.000000 0.000000 0.024078 -0.000002 0.000000
# 5 0.000001 0.000011 -0.000015 -0.000002 0.708572 0.000002
# 6 0.000000 0.000000 0.000000 0.000000 0.000002 0.066057
#
#
# Mechanical properties :
#
#
# Convention : Reuss Voigt Hill
#
# Bulk Modulus (GPa) = 55.85456 73.70691 64.78073
# Shear Modulus (GPa) = 4.71397 21.02841 12.87119
#
# Velocity S-wave (km/s) = 1.65405 3.49348 2.73315
# Velocity P-wave (km/s) = 6.00537 7.68442 6.89619
#
# Compressibility (1/GPa) = 0.01790364
#
# Stress axis : x y z
#
# Youngs Moduli (GPa) = 68.02439 20.37703 13.66549
#
# Poissons Ratio (x) = 0.00784 0.05895
# Poissons Ratio (y) = 0.02618 0.74922
# Poissons Ratio (z) = 0.29345 1.11718
#
# Static dielectric constant tensor:
#      x y z
#    x 1.609380 0.000000 0.000000 
#    y 0.000000 1.561330 0.000000 
#    z 0.000000 0.000000 1.581680 
# 
# From -- ./inp_files/3770.got.cif
#   From: 2010.05.17/outbox.cif.g08.bks.cpg/sg46_2_cif.got.tgz:3770.got - 2010.06.03 19:58:25.
