data_PCOD9378535
_publ_section_title
;
Structure prediction by ZEFSAII (Michael W. Deem and Ramdas Pophale) SiO2 
 PCOD9378535
Probable space group: I M A 2
;
_chemical_formula_sum "Si O2"
_cell_formula_units_Z 56
_cell_length_a 9.864558
_cell_length_b 15.050630
_cell_length_c 19.844602
_cell_angle_alpha 90.000000
_cell_angle_beta 90.000000
_cell_angle_gamma 90.000000
_cell_volume 2946.284650
_symmetry_space_group_name_H-M "I M A 2"
_symmetry_group_IT_number 46
_symmetry_cell_setting 'orthorhombic'
loop_
_space_group_symop_operation_xyz
x,y,z
-x,-y,z
1/2-x,y,z
1/2+x,-y,z
1/2+x,1/2+y,1/2+z
1/2-x,1/2-y,1/2+z
-x,1/2+y,1/2+z
x,1/2-y,1/2+z
loop_
_atom_site_type_symbol
_atom_site_label
_atom_site_fract_x
_atom_site_fract_y
_atom_site_fract_z
Si Si1 0.903477 0.246169 0.402410
Si Si2 0.094499 0.078314 0.394547
Si Si3 0.089600 0.586355 0.130762
Si Si4 0.403974 0.076984 0.096953
Si Si5 0.902650 0.230083 0.056324
Si Si6 0.090141 0.705380 0.256730
Si Si7 0.602791 0.871476 0.244255
O O1 0.750000 0.207866 0.391945
O O2 0.902421 0.286790 0.476418
O O3 0.929355 0.308149 0.337286
O O4 0.017429 0.170716 0.405763
O O5 0.250000 0.075889 0.418803
O O6 0.097812 0.073477 0.312999
O O7 0.000000 0.000000 0.421894
O O8 0.250000 0.563679 0.132758
O O9 0.074749 0.667104 0.077006
O O10 0.049091 0.629842 0.203367
O O11 0.000000 0.500000 0.116252
O O12 0.250000 0.074268 0.071314
O O13 0.478739 0.169967 0.085185
O O14 0.398425 0.069468 0.177909
O O15 0.500000 0.000000 0.068896
O O16 0.750000 0.207219 0.081888
O O17 0.250000 0.717887 0.245266
O O18 0.012455 0.797112 0.242529
O O19 0.750000 0.823919 0.244889
#
# Coordination Sequence:
#
# PCOD9378535 Si02
#       7
#     8   8   8   8   8   8   8
#     4   9  19  35  56  77 104 144 183 228 286 342
#     4  10  19  31  48  74 108 141 178 221 268 328
#     4  10  21  36  57  84 113 149 191 235 285 337
#     4  11  22  35  55  82 111 144 182 225 279 335
#     4  10  21  39  58  81 114 148 186 235 288 343
#     4   9  17  33  56  80 106 140 182 226 277 331
#     4   9  18  31  50  78 108 138 173 218 269 322
#
# _framework density 19.006988
#
# number of rings (size 3 to 8) (size 9 to 14) (size 15 to 20)
#    0.000    2.286    1.429    1.286    0.000    3.429 
#    0.000    2.143    0.000    1.714    0.000    0.000 
#    0.000    0.000    0.000    0.000    0.000    0.000 
#
# Total GULP energy -155967.171670 kJ/mol
# GULP energy per Si atom -5570.256131 kJ/mol
# Density = 1.896373 g / cm^3
# Si number density = 19.006988 Si / 1000 Ang^3
#
#
#
# Elastic Constant Matrix: (Units=GPa)
#
#
# Indices 1 2 3 4 5 6 
#
# 1 110.3988 43.8240 5.4883 0.0000 0.0000 0.0000
# 2 43.8240 51.3886 -6.2846 0.0000 0.0000 0.0000
# 3 5.4883 -6.2846 65.5586 0.0000 0.0000 0.0000
# 4 0.0000 0.0000 0.0000 4.9952 0.0000 0.0000
# 5 0.0000 0.0000 0.0000 0.0000 12.0870 0.0000
# 6 0.0000 0.0000 0.0000 0.0000 0.0000 27.2939
#
#
#
# Elastic Compliance Matrix: (Units=1/GPa)
#
#
# Indices 1 2 3 4 5 6 
#
# 1 0.014043 -0.012263 -0.002351 0.000000 0.000000 0.000000
# 2 -0.012263 0.030400 0.003941 0.000000 0.000000 0.000000
# 3 -0.002351 0.003941 0.015828 0.000000 0.000000 0.000000
# 4 0.000000 0.000000 0.000000 0.200193 0.000000 0.000000
# 5 0.000000 0.000000 0.000000 0.000000 0.082733 0.000000
# 6 0.000000 0.000000 0.000000 0.000000 0.000000 0.036638
#
#
# Mechanical properties :
#
#
# Convention : Reuss Voigt Hill
#
# Bulk Modulus (GPa) = 25.69158 34.82238 30.25698
# Shear Modulus (GPa) = 12.07270 21.16311 16.61791
#
# Velocity S-wave (km/s) = 2.52300 3.34044 2.96007
# Velocity P-wave (km/s) = 4.69400 5.76530 5.25701
#
# Compressibility (1/GPa) = 0.03892325
#
# Stress axis : x y z
#
# Youngs Moduli (GPa) = 71.20967 32.89511 63.17866
#
# Poissons Ratio (x) = 0.40341 0.14855
# Poissons Ratio (y) = 0.87327 -0.24898
# Poissons Ratio (z) = 0.16743 -0.12963
#
# Static dielectric constant tensor:
#      x y z
#    x 1.682130 0.000000 0.000000 
#    y 0.000000 1.630180 0.000000 
#    z 0.000000 0.000000 1.714910 
# 
# From -- ./inp_files/21034.got.cif
#   From: 2010.05.17/outbox.cif.g08.bks.cpg/sg46_11_cif.got.tgz:21034.got - 2010.06.03 19:58:25.
