data_PCOD9378443
_publ_section_title
;
Structure prediction by ZEFSAII (Michael W. Deem and Ramdas Pophale) SiO2 
 PCOD9378443
Probable space group: I M A 2
;
_chemical_formula_sum "Si O2"
_cell_formula_units_Z 64
_cell_length_a 8.731640
_cell_length_b 14.486072
_cell_length_c 30.499211
_cell_angle_alpha 90.000000
_cell_angle_beta 90.000000
_cell_angle_gamma 90.000000
_cell_volume 3857.758756
_symmetry_space_group_name_H-M "I M A 2"
_symmetry_group_IT_number 46
_symmetry_cell_setting 'orthorhombic'
loop_
_space_group_symop_operation_xyz
x,y,z
-x,-y,z
1/2-x,y,z
1/2+x,-y,z
1/2+x,1/2+y,1/2+z
1/2-x,1/2-y,1/2+z
-x,1/2+y,1/2+z
x,1/2-y,1/2+z
loop_
_atom_site_type_symbol
_atom_site_label
_atom_site_fract_x
_atom_site_fract_y
_atom_site_fract_z
Si Si1 0.435950 0.396612 0.563020
Si Si2 0.565276 0.604484 0.924198
Si Si3 0.567713 0.103202 0.236775
Si Si4 0.067126 0.396564 0.825612
Si Si5 0.077533 0.908193 0.549924
Si Si6 0.432860 0.207016 0.153399
Si Si7 0.930444 0.755961 0.499281
Si Si8 0.577413 0.406510 0.154377
O O1 0.500000 0.500000 0.564828
O O2 0.250000 0.399289 0.562559
O O3 0.481683 0.339399 0.606962
O O4 0.488377 0.341119 0.519072
O O5 0.500000 0.500000 0.929593
O O6 0.750000 0.596444 0.928931
O O7 0.532536 0.638706 0.874539
O O8 0.508984 0.682797 0.958417
O O9 0.750000 0.099024 0.238146
O O10 0.506027 0.147494 0.282244
O O11 0.510256 0.154331 0.193668
O O12 0.500000 0.000000 0.234699
O O13 0.250000 0.399557 0.820284
O O14 0.000000 0.500000 0.826525
O O15 0.250000 0.893353 0.532773
O O16 0.089947 0.919038 0.601862
O O17 0.964616 0.825318 0.539210
O O18 0.000000 0.000000 0.531265
O O19 0.250000 0.198351 0.155924
O O20 0.480792 0.313474 0.158634
O O21 0.750000 0.744606 0.491604
O O22 0.500000 0.500000 0.171940
O O23 0.750000 0.394447 0.171697
#
# Coordination Sequence:
#
# PCOD9378443 Si02
#       8
#     8   8   8   8   8   8   8   8
#     4  10  22  36  51  68  94 129 167 209 251 289
#     4   9  18  30  48  72 102 131 161 197 242 296
#     4  11  21  33  50  74 102 134 168 209 251 300
#     4   9  16  29  47  70  98 130 161 198 245 299
#     4  10  19  29  44  66  93 126 160 197 235 279
#     4  11  21  35  53  74  98 132 171 211 252 298
#     4  10  19  33  48  68  95 128 165 203 244 291
#     4  10  20  33  49  70  97 130 165 204 245 292
#
# _framework density 16.589943999999999
#
# number of rings (size 3 to 8) (size 9 to 14) (size 15 to 20)
#    0.000    2.000    1.250    4.125    0.000    5.500 
#    0.000    0.000    0.000    0.000    0.000    0.875 
#    0.000    4.000    0.000    0.000    0.000    0.000 
#
# Total GULP energy -178196.764926 kJ/mol
# GULP energy per Si atom -5568.648904 kJ/mol
# Density = 1.655218 g / cm^3
# Si number density = 16.589944 Si / 1000 Ang^3
#
#
#
# Elastic Constant Matrix: (Units=GPa)
#
#
# Indices 1 2 3 4 5 6 
#
# 1 51.3537 18.7332 37.6525 0.0000 0.0000 0.0000
# 2 18.7332 97.4214 47.0669 0.0000 0.0000 0.0000
# 3 37.6525 47.0669 108.2754 0.0000 0.0000 0.0000
# 4 0.0000 0.0000 0.0000 105.9832 0.0000 0.0000
# 5 0.0000 0.0000 0.0000 0.0000 16.8542 0.0000
# 6 0.0000 0.0000 0.0000 0.0000 0.0000 21.5761
#
#
#
# Elastic Compliance Matrix: (Units=1/GPa)
#
#
# Indices 1 2 3 4 5 6 
#
# 1 0.026187 -0.000805 -0.008756 0.000000 0.000000 0.000000
# 2 -0.000805 0.013018 -0.005379 0.000000 0.000000 0.000000
# 3 -0.008756 -0.005379 0.014619 0.000000 0.000000 0.000000
# 4 0.000000 0.000000 0.000000 0.009435 0.000000 0.000000
# 5 0.000000 0.000000 0.000000 0.000000 0.059333 0.000000
# 6 0.000000 0.000000 0.000000 0.000000 0.000000 0.046348
#
#
# Mechanical properties :
#
#
# Convention : Reuss Voigt Hill
#
# Bulk Modulus (GPa) = 41.76590 51.55062 46.65826
# Shear Modulus (GPa) = 24.17780 39.12255 31.65017
#
# Velocity S-wave (km/s) = 3.82170 4.86141 4.37257
# Velocity P-wave (km/s) = 6.68610 7.91530 7.32652
#
# Compressibility (1/GPa) = 0.02394298
#
# Stress axis : x y z
#
# Youngs Moduli (GPa) = 38.18744 76.81533 68.40430
#
# Poissons Ratio (x) = 0.06183 0.59898
# Poissons Ratio (y) = 0.03074 0.36795
# Poissons Ratio (z) = 0.33438 0.41319
#
# Static dielectric constant tensor:
#      x y z
#    x 1.576040 0.000000 0.000000 
#    y 0.000000 1.479290 0.000000 
#    z 0.000000 0.000000 1.610140 
# 
# From -- ./inp_files/25221.got.cif
#   From: 2010.05.17/outbox.cif.g08.bks.cpg/sg46_13_cif.got.tgz:25221.got - 2010.06.03 19:58:25.
