data_PCOD9378219
_publ_section_title
;
Structure prediction by ZEFSAII (Michael W. Deem and Ramdas Pophale) SiO2 
 PCOD9378219
Probable space group: I M A 2
;
_chemical_formula_sum "Si O2"
_cell_formula_units_Z 56
_cell_length_a 23.862068
_cell_length_b 5.028808
_cell_length_c 25.099382
_cell_angle_alpha 90.000000
_cell_angle_beta 90.000000
_cell_angle_gamma 90.000000
_cell_volume 3011.869579
_symmetry_space_group_name_H-M "I M A 2"
_symmetry_group_IT_number 46
_symmetry_cell_setting 'orthorhombic'
loop_
_space_group_symop_operation_xyz
x,y,z
-x,-y,z
1/2-x,y,z
1/2+x,-y,z
1/2+x,1/2+y,1/2+z
1/2-x,1/2-y,1/2+z
-x,1/2+y,1/2+z
x,1/2-y,1/2+z
loop_
_atom_site_type_symbol
_atom_site_label
_atom_site_fract_x
_atom_site_fract_y
_atom_site_fract_z
Si Si1 0.687370 0.385700 0.602760
Si Si2 0.183276 0.419119 0.823610
Si Si3 0.461445 0.244202 0.568243
Si Si4 0.148273 0.152155 0.998060
Si Si5 0.816924 0.336210 0.934754
Si Si6 0.629630 0.609402 0.146979
Si Si7 0.817483 0.427214 0.255380
O O1 0.750000 0.313863 0.618159
O O2 0.684663 0.516076 0.544704
O O3 0.663865 0.617351 0.640422
O O4 0.651127 0.120460 0.606837
O O5 0.250000 0.399674 0.832125
O O6 0.162009 0.540263 0.878903
O O7 0.166326 0.130723 0.802726
O O8 0.173928 0.630752 0.776619
O O9 0.500000 0.500000 0.573939
O O10 0.411916 0.302162 0.525858
O O11 0.431786 0.175652 0.624790
O O12 0.500000 0.000000 0.551119
O O13 0.172727 0.430165 0.977611
O O14 0.151314 0.932435 0.951472
O O15 0.750000 0.276950 0.931361
O O16 0.644757 0.494548 0.204518
O O17 0.750000 0.462074 0.244213
#
# Coordination Sequence:
#
# PCOD9378219 Si02
#       7
#     8   8   8   8   8   8   8
#     4  11  20  32  48  78 115 142 166 208 258 325
#     4   9  19  31  49  75 111 148 177 205 245 299
#     4  11  23  41  57  76 103 134 181 237 274 317
#     4  11  22  34  54  79 104 143 183 214 266 320
#     4  11  20  34  53  82 117 148 176 210 252 316
#     4  11  22  34  54  79 104 143 182 213 267 321
#     4  10  18  32  50  77 111 144 175 209 249 310
#
# _framework density 18.593101999999998
#
# number of rings (size 3 to 8) (size 9 to 14) (size 15 to 20)
#    0.000    1.429    0.000    8.571    0.000    3.429 
#    0.000    0.000    0.000    0.000    0.000   20.000 
#    0.000    0.000    0.000    0.000    0.000    0.000 
#
# Total GULP energy -156323.335519 kJ/mol
# GULP energy per Si atom -5582.976269 kJ/mol
# Density = 1.855078 g / cm^3
# Si number density = 18.593102 Si / 1000 Ang^3
#
#
#
# Elastic Constant Matrix: (Units=GPa)
#
#
# Indices 1 2 3 4 5 6 
#
# 1 67.0225 19.4528 12.8947 0.0000 0.0000 0.0000
# 2 19.4528 86.4480 -7.3484 0.0000 0.0000 0.0000
# 3 12.8947 -7.3484 59.6816 0.0000 0.0000 0.0000
# 4 0.0000 0.0000 0.0000 14.3190 0.0000 0.0000
# 5 0.0000 0.0000 0.0000 0.0000 26.7065 0.0000
# 6 0.0000 0.0000 0.0000 0.0000 0.0000 35.2928
#
#
#
# Elastic Compliance Matrix: (Units=1/GPa)
#
#
# Indices 1 2 3 4 5 6 
#
# 1 0.016932 -0.004165 -0.004171 0.000000 0.000000 0.000000
# 2 -0.004165 0.012714 0.002465 0.000000 0.000000 0.000000
# 3 -0.004171 0.002465 0.017960 0.000000 0.000000 0.000000
# 4 0.000000 0.000000 0.000000 0.069837 0.000000 0.000000
# 5 0.000000 0.000000 0.000000 0.000000 0.037444 0.000000
# 6 0.000000 0.000000 0.000000 0.000000 0.000000 0.028334
#
#
# Mechanical properties :
#
#
# Convention : Reuss Voigt Hill
#
# Bulk Modulus (GPa) = 27.88182 29.23892 28.56037
# Shear Modulus (GPa) = 24.16422 27.80719 25.98571
#
# Velocity S-wave (km/s) = 3.60895 3.87145 3.74250
# Velocity P-wave (km/s) = 5.69161 5.97863 5.83688
#
# Compressibility (1/GPa) = 0.03586566
#
# Stress axis : x y z
#
# Youngs Moduli (GPa) = 59.06133 78.65147 55.67836
#
# Poissons Ratio (x) = 0.32755 0.23223
# Poissons Ratio (y) = 0.24596 -0.13726
# Poissons Ratio (z) = 0.24634 -0.19390
#
# Static dielectric constant tensor:
#      x y z
#    x 1.605320 0.000000 0.000000 
#    y 0.000000 1.641810 0.000000 
#    z 0.000000 0.000000 1.706470 
# 
# From -- ./inp_files/22537.got.cif
#   From: 2010.05.17/outbox.cif.g08.bks.cpg/sg46_12_cif.got.tgz:22537.got - 2010.06.03 19:58:25.
