data_PCOD9378865
_publ_section_title
;
Structure prediction by ZEFSAII (Michael W. Deem and Ramdas Pophale) SiO2 
 PCOD9378865
Probable space group: I M A 2
;
_chemical_formula_sum "Si O2"
_cell_formula_units_Z 60
_cell_length_a 9.668457
_cell_length_b 16.015568
_cell_length_c 19.815511
_cell_angle_alpha 90.000000
_cell_angle_beta 90.000000
_cell_angle_gamma 90.000000
_cell_volume 3068.349258
_symmetry_space_group_name_H-M "I M A 2"
_symmetry_group_IT_number 46
_symmetry_cell_setting 'orthorhombic'
loop_
_space_group_symop_operation_xyz
x,y,z
-x,-y,z
1/2-x,y,z
1/2+x,-y,z
1/2+x,1/2+y,1/2+z
1/2-x,1/2-y,1/2+z
-x,1/2+y,1/2+z
x,1/2-y,1/2+z
loop_
_atom_site_type_symbol
_atom_site_label
_atom_site_fract_x
_atom_site_fract_y
_atom_site_fract_z
Si Si1 0.917697 0.725192 0.488220
Si Si2 0.910517 0.421385 0.552480
Si Si3 0.407396 0.751761 0.723976
Si Si4 0.000000 0.000000 0.788139
Si Si5 0.093395 0.572205 0.713683
Si Si6 0.601422 0.885738 0.670245
Si Si7 0.904512 0.159306 0.866634
Si Si8 0.591132 0.578618 0.014736
O O1 0.750000 0.715360 0.494711
O O2 0.949142 0.824675 0.497281
O O3 0.003863 0.663869 0.538388
O O4 0.977425 0.690706 0.417127
O O5 0.750000 0.420009 0.528329
O O6 0.900384 0.435122 0.632678
O O7 0.000000 0.500000 0.524189
O O8 0.250000 0.741507 0.699753
O O9 0.473966 0.661656 0.725400
O O10 0.482131 0.818899 0.678511
O O11 0.407388 0.785559 0.799456
O O12 0.091713 0.051733 0.733933
O O13 0.927134 0.066437 0.836964
O O14 0.250000 0.569535 0.740399
O O15 0.000000 0.500000 0.742644
O O16 0.750000 0.842157 0.673343
O O17 0.591414 0.925976 0.596750
O O18 0.750000 0.167008 0.896260
O O19 0.500000 0.500000 0.990149
O O20 0.750000 0.568351 0.992081
#
# Coordination Sequence:
#
# PCOD9378865 Si02
#       8
#     8   8   8   4   8   8   8   8
#     4  11  24  40  57  81 116 156 201 244 286 344
#     4  10  20  35  57  84 115 150 189 232 286 343
#     4   9  19  35  54  79 111 146 183 228 281 341
#     4  10  20  36  60  88 120 148 186 236 294 354
#     4   9  18  33  54  81 110 141 181 229 281 335
#     4  10  19  33  57  88 117 143 179 231 295 356
#     4  10  22  38  57  80 112 153 194 232 282 343
#     4  10  22  39  60  87 116 151 194 244 299 353
#
# _framework density 19.554489
#
# number of rings (size 3 to 8) (size 9 to 14) (size 15 to 20)
#    0.000    2.133    0.667    2.000    0.933    5.867 
#    0.000    0.667    0.000    3.200    0.000    0.000 
#    0.000    0.000    0.000    0.000    0.000    0.000 
#
# Total GULP energy -167089.278507 kJ/mol
# GULP energy per Si atom -5569.642617 kJ/mol
# Density = 1.950998 g / cm^3
# Si number density = 19.554489 Si / 1000 Ang^3
#
#
#
# Elastic Constant Matrix: (Units=GPa)
#
#
# Indices 1 2 3 4 5 6 
#
# 1 98.6399 64.8652 5.0910 0.0000 0.0000 0.0000
# 2 64.8652 141.1258 7.0034 0.0000 0.0000 0.0000
# 3 5.0910 7.0034 15.6403 0.0000 0.0000 0.0000
# 4 0.0000 0.0000 0.0000 10.0507 0.0000 0.0000
# 5 0.0000 0.0000 0.0000 0.0000 26.2809 0.0000
# 6 0.0000 0.0000 0.0000 0.0000 0.0000 -21.8380
#
#
#
# Elastic Compliance Matrix: (Units=1/GPa)
#
#
# Indices 1 2 3 4 5 6 
#
# 1 0.014578 -0.006612 -0.001785 0.000000 0.000000 0.000000
# 2 -0.006612 0.010246 -0.002436 0.000000 0.000000 0.000000
# 3 -0.001785 -0.002436 0.065609 0.000000 0.000000 0.000000
# 4 0.000000 0.000000 0.000000 0.099495 0.000000 0.000000
# 5 0.000000 0.000000 0.000000 0.000000 0.038050 0.000000
# 6 0.000000 0.000000 0.000000 0.000000 0.000000 -0.045792
#
#
# Mechanical properties :
#
#
# Convention : Reuss Voigt Hill
#
# Bulk Modulus (GPa) = 14.54157 45.48056 30.01107
# Shear Modulus (GPa) = 22.04849 14.79517 18.42183
#
# Velocity S-wave (km/s) = 3.36153 2.75364 3.07266
# Velocity P-wave (km/s) = 4.74543 5.78091 5.28857
#
# Compressibility (1/GPa) = 0.06876836
#
# Stress axis : x y z
#
# Youngs Moduli (GPa) = 68.59692 97.60173 15.24189
#
# Poissons Ratio (x) = 0.64533 0.02720
# Poissons Ratio (y) = 0.45355 0.03712
# Poissons Ratio (z) = 0.12241 0.23772
#
# Static dielectric constant tensor:
#      x y z
#    x 1.744070 0.000000 0.000000 
#    y 0.000000 1.696070 0.000000 
#    z 0.000000 0.000000 1.701220 
# 
# From -- ./inp_files/23118.got.cif
#   From: 2010.05.17/outbox.cif.g08.bks.cpg/sg46_12_cif.got.tgz:23118.got - 2010.06.03 19:58:25.
