data_PCOD9378854
_publ_section_title
;
Structure prediction by ZEFSAII (Michael W. Deem and Ramdas Pophale) SiO2 
 PCOD9378854
Probable space group: I M A 2
;
_chemical_formula_sum "Si O2"
_cell_formula_units_Z 56
_cell_length_a 8.740215
_cell_length_b 15.620643
_cell_length_c 19.878588
_cell_angle_alpha 90.000000
_cell_angle_beta 90.000000
_cell_angle_gamma 90.000000
_cell_volume 2713.979455
_symmetry_space_group_name_H-M "I M A 2"
_symmetry_group_IT_number 46
_symmetry_cell_setting 'orthorhombic'
loop_
_space_group_symop_operation_xyz
x,y,z
-x,-y,z
1/2-x,y,z
1/2+x,-y,z
1/2+x,1/2+y,1/2+z
1/2-x,1/2-y,1/2+z
-x,1/2+y,1/2+z
x,1/2-y,1/2+z
loop_
_atom_site_type_symbol
_atom_site_label
_atom_site_fract_x
_atom_site_fract_y
_atom_site_fract_z
Si Si1 0.573585 0.423073 0.345080
Si Si2 0.433176 0.905376 0.588119
Si Si3 0.574172 0.276549 0.812617
Si Si4 0.422461 0.118374 0.981889
Si Si5 0.427951 0.179354 0.454507
Si Si6 0.925259 0.086630 0.110318
Si Si7 0.570898 0.750023 0.672284
O O1 0.500000 0.500000 0.301766
O O2 0.750000 0.441720 0.361137
O O3 0.574185 0.326783 0.318399
O O4 0.459935 0.415509 0.408249
O O5 0.250000 0.908282 0.587873
O O6 0.492130 0.873867 0.514225
O O7 0.486547 0.834265 0.643052
O O8 0.500000 0.000000 0.601526
O O9 0.750000 0.304630 0.803412
O O10 0.507209 0.318620 0.880769
O O11 0.475848 0.285699 0.745560
O O12 0.250000 0.095297 0.004102
O O13 0.431110 0.221237 0.977106
O O14 0.555212 0.084517 0.029986
O O15 0.250000 0.153351 0.448542
O O16 0.750000 0.096033 0.130641
O O17 0.023151 0.169965 0.126868
O O18 0.000000 0.000000 0.138093
O O19 0.750000 0.767493 0.669232
#
# Coordination Sequence:
#
# PCOD9378854 Si02
#       7
#     8   8   8   8   8   8   8
#     4  10  20  33  52  80 117 155 200 248 302 368
#     4  12  25  43  69 100 135 178 227 282 340 402
#     4  10  22  40  62  88 122 169 217 265 329 395
#     4  10  19  33  56  85 121 157 196 244 302 363
#     4  10  20  38  64  94 127 165 213 267 323 383
#     4  12  24  39  61  89 123 161 204 253 314 378
#     4  12  25  44  66  94 131 171 218 273 334 399
#
# _framework density 20.633906
#
# number of rings (size 3 to 8) (size 9 to 14) (size 15 to 20)
#    0.000    1.143    1.429    6.000    0.000    3.429 
#    0.000    2.143    0.000    0.000    0.000    0.000 
#    0.000    0.000    0.000    0.000    0.000    0.000 
#
# Total GULP energy -156289.634664 kJ/mol
# GULP energy per Si atom -5581.772667 kJ/mol
# Density = 2.058694 g / cm^3
# Si number density = 20.633906 Si / 1000 Ang^3
#
#
#
# Elastic Constant Matrix: (Units=GPa)
#
#
# Indices 1 2 3 4 5 6 
#
# 1 148.8529 17.1143 24.8233 0.0000 0.0000 0.0000
# 2 17.1143 58.0853 0.7498 0.0000 0.0000 0.0000
# 3 24.8233 0.7498 70.6838 0.0000 0.0000 0.0000
# 4 0.0000 0.0000 0.0000 5.8009 0.0000 0.0000
# 5 0.0000 0.0000 0.0000 0.0000 25.1363 0.0000
# 6 0.0000 0.0000 0.0000 0.0000 0.0000 31.8341
#
#
#
# Elastic Compliance Matrix: (Units=1/GPa)
#
#
# Indices 1 2 3 4 5 6 
#
# 1 0.007394 -0.002145 -0.002574 0.000000 0.000000 0.000000
# 2 -0.002145 0.017841 0.000564 0.000000 0.000000 0.000000
# 3 -0.002574 0.000564 0.015045 0.000000 0.000000 0.000000
# 4 0.000000 0.000000 0.000000 0.172387 0.000000 0.000000
# 5 0.000000 0.000000 0.000000 0.000000 0.039783 0.000000
# 6 0.000000 0.000000 0.000000 0.000000 0.000000 0.031413
#
#
# Mechanical properties :
#
#
# Convention : Reuss Voigt Hill
#
# Bulk Modulus (GPa) = 31.27920 40.33298 35.80609
# Shear Modulus (GPa) = 16.51092 28.21659 22.36375
#
# Velocity S-wave (km/s) = 2.83182 3.70197 3.29574
# Velocity P-wave (km/s) = 5.08766 6.15322 5.64564
#
# Compressibility (1/GPa) = 0.03197012
#
# Stress axis : x y z
#
# Youngs Moduli (GPa) = 135.24603 56.05108 66.46528
#
# Poissons Ratio (x) = 0.12025 0.17108
# Poissons Ratio (y) = 0.29015 -0.03750
# Poissons Ratio (z) = 0.34811 -0.03162
#
# Static dielectric constant tensor:
#      x y z
#    x 1.719030 0.000000 0.000000 
#    y 0.000000 1.872040 0.000000 
#    z 0.000000 0.000000 1.782170 
# 
# From -- ./inp_files/21105.got.cif
#   From: 2010.05.17/outbox.cif.g08.bks.cpg/sg46_11_cif.got.tgz:21105.got - 2010.06.03 19:58:25.
