data_PCOD9378415
_publ_section_title
;
Structure prediction by ZEFSAII (Michael W. Deem and Ramdas Pophale) SiO2 
 PCOD9378415
Probable space group: I M A 2
;
_chemical_formula_sum "Si O2"
_cell_formula_units_Z 32
_cell_length_a 11.986005
_cell_length_b 11.929386
_cell_length_c 8.699222
_cell_angle_alpha 90.000000
_cell_angle_beta 90.000000
_cell_angle_gamma 90.000000
_cell_volume 1243.864175
_symmetry_space_group_name_H-M "I M A 2"
_symmetry_group_IT_number 46
_symmetry_cell_setting 'orthorhombic'
loop_
_space_group_symop_operation_xyz
x,y,z
-x,-y,z
1/2-x,y,z
1/2+x,-y,z
1/2+x,1/2+y,1/2+z
1/2-x,1/2-y,1/2+z
-x,1/2+y,1/2+z
x,1/2-y,1/2+z
loop_
_atom_site_type_symbol
_atom_site_label
_atom_site_fract_x
_atom_site_fract_y
_atom_site_fract_z
Si Si1 0.250000 0.686213 0.656320
Si Si2 0.250000 0.021458 0.389451
Si Si3 0.500000 0.000000 0.709613
Si Si4 0.455886 0.175139 0.445409
Si Si5 0.979573 0.131529 0.115579
Si Si6 0.250000 0.559566 0.240645
O O1 0.250000 0.576739 0.766469
O O2 0.359907 0.670649 0.553828
O O3 0.250000 0.806054 0.736947
O O4 0.353740 0.103989 0.379834
O O5 0.250000 0.971633 0.559127
O O6 0.497618 0.105799 0.592921
O O7 0.624676 0.010367 0.788539
O O8 0.529127 0.173318 0.292439
O O9 0.433963 0.297817 0.513269
O O10 0.000000 0.000000 0.111837
#
# Coordination Sequence:
#
# PCOD9378415 Si02
#       6
#     4   4   4   8   8   4
#     4  12  22  39  76  97 143 199 259 308 383 475
#     4  10  22  43  74 103 147 207 245 324 399 455
#     4  10  18  40  64 100 142 188 244 312 388 440
#     4  11  23  43  70 103 151 193 254 315 391 458
#     4  12  25  44  70 107 145 199 257 319 385 466
#     4  10  20  36  68 106 134 186 252 308 372 466
#
# _framework density 25.726282999999999
#
# number of rings (size 3 to 8) (size 9 to 14) (size 15 to 20)
#    0.000    1.000    6.250    1.500    0.000    2.000 
#    2.250    0.000    0.000    0.000    0.000    0.000 
#    0.000    0.000    0.000    0.000    0.000    0.000 
#
# Total GULP energy -89399.202921 kJ/mol
# GULP energy per Si atom -5587.450183 kJ/mol
# Density = 2.566773 g / cm^3
# Si number density = 25.726283 Si / 1000 Ang^3
#
#
#
# Elastic Constant Matrix: (Units=GPa)
#
#
# Indices 1 2 3 4 5 6 
#
# 1 141.1992 34.1523 21.8221 0.0000 0.0000 0.0000
# 2 34.1523 213.6315 66.6048 0.0000 0.0000 0.0000
# 3 21.8221 66.6048 98.2363 0.0000 0.0000 0.0000
# 4 0.0000 0.0000 0.0000 42.4202 0.0000 0.0000
# 5 0.0000 0.0000 0.0000 0.0000 -29.9274 0.0000
# 6 0.0000 0.0000 0.0000 0.0000 0.0000 33.5760
#
#
#
# Elastic Compliance Matrix: (Units=1/GPa)
#
#
# Indices 1 2 3 4 5 6 
#
# 1 0.007456 -0.000857 -0.001075 0.000000 0.000000 0.000000
# 2 -0.000857 0.006034 -0.003901 0.000000 0.000000 0.000000
# 3 -0.001075 -0.003901 0.013063 0.000000 0.000000 0.000000
# 4 0.000000 0.000000 0.000000 0.023574 0.000000 0.000000
# 5 0.000000 0.000000 0.000000 0.000000 -0.033414 0.000000
# 6 0.000000 0.000000 0.000000 0.000000 0.000000 0.029783
#
#
# Mechanical properties :
#
#
# Convention : Reuss Voigt Hill
#
# Bulk Modulus (GPa) = 67.17187 77.58058 72.37622
# Shear Modulus (GPa) = 79.20967 31.24629 55.22798
#
# Velocity S-wave (km/s) = 5.55484 3.48884 4.63833
# Velocity P-wave (km/s) = 8.20418 6.81550 7.54187
#
# Compressibility (1/GPa) = 0.01488719
#
# Stress axis : x y z
#
# Youngs Moduli (GPa) = 134.12764 165.72505 76.55075
#
# Poissons Ratio (x) = 0.14196 0.08232
# Poissons Ratio (y) = 0.11490 0.29861
# Poissons Ratio (z) = 0.14424 0.64647
#
# Static dielectric constant tensor:
#      x y z
#    x 2.279870 0.000000 0.000000 
#    y 0.000000 2.005220 0.000000 
#    z 0.000000 0.000000 1.992350 
# 
# From -- ./inp_files/5241.got.cif
#   From: 2010.05.17/outbox.cif.g08.bks.cpg/sg46_3_cif.got.tgz:5241.got - 2010.06.03 19:58:25.
