data_PCOD9378581
_publ_section_title
;
Structure prediction by ZEFSAII (Michael W. Deem and Ramdas Pophale) SiO2 
 PCOD9378581
Probable space group: I M A 2
;
_chemical_formula_sum "Si O2"
_cell_formula_units_Z 56
_cell_length_a 18.738454
_cell_length_b 14.573989
_cell_length_c 7.436479
_cell_angle_alpha 90.000000
_cell_angle_beta 90.000000
_cell_angle_gamma 90.000000
_cell_volume 2030.857963
_symmetry_space_group_name_H-M "I M A 2"
_symmetry_group_IT_number 46
_symmetry_cell_setting 'orthorhombic'
loop_
_space_group_symop_operation_xyz
x,y,z
-x,-y,z
1/2-x,y,z
1/2+x,-y,z
1/2+x,1/2+y,1/2+z
1/2-x,1/2-y,1/2+z
-x,1/2+y,1/2+z
x,1/2-y,1/2+z
loop_
_atom_site_type_symbol
_atom_site_label
_atom_site_fract_x
_atom_site_fract_y
_atom_site_fract_z
Si Si1 0.829708 0.947933 0.733230
Si Si2 0.973063 0.894425 0.798954
Si Si3 0.927797 0.046089 0.187229
Si Si4 0.670347 0.327905 0.627715
Si Si5 0.833618 0.622748 0.838646
Si Si6 0.831424 0.365883 0.051843
Si Si7 0.479836 0.197625 0.404804
O O1 0.750000 0.956512 0.810637
O O2 0.890230 0.907603 0.858744
O O3 0.823903 0.885944 0.553687
O O4 0.857866 0.042638 0.642632
O O5 0.000233 0.805154 0.910423
O O6 0.975262 0.851037 0.598374
O O7 0.000000 0.000000 0.779625
O O8 0.877915 0.094984 0.040929
O O9 0.963659 0.129084 0.305964
O O10 0.875413 0.970087 0.274566
O O11 0.000000 0.000000 0.121796
O O12 0.750000 0.325352 0.551763
O O13 0.635881 0.228580 0.616938
O O14 0.674543 0.358369 0.836309
O O15 0.750000 0.632020 0.769858
O O16 0.899893 0.693262 0.815021
O O17 0.750000 0.362710 0.117770
#
# Coordination Sequence:
#
# PCOD9378581 Si02
#       7
#     8   8   8   8   8   8   8
#     4   9  17  33  59  84 112 152 202 250 299 362
#     4  11  24  43  66  92 128 170 211 258 318 376
#     4  10  19  32  54  85 121 156 203 255 302 361
#     4  10  19  31  53  83 114 149 195 246 301 363
#     4   9  16  33  61  90 118 158 208 256 306 368
#     4   9  18  31  52  84 115 148 193 246 303 361
#     4  10  23  39  62  95 126 164 213 262 312 376
#
# _framework density 27.574551
#
# number of rings (size 3 to 8) (size 9 to 14) (size 15 to 20)
#    0.000    2.286    1.429    2.571    2.000    0.571 
#    0.000    2.857    6.286    0.000    0.000    0.000 
#    0.000    0.000    0.000    0.000    0.000    0.000 
#
# Total GULP energy -156233.220488 kJ/mol
# GULP energy per Si atom -5579.757875 kJ/mol
# Density = 2.751179 g / cm^3
# Si number density = 27.574551 Si / 1000 Ang^3
#
#
#
# Elastic Constant Matrix: (Units=GPa)
#
#
# Indices 1 2 3 4 5 6 
#
# 1 216.9954 52.9670 9.9610 0.0000 0.0000 0.0000
# 2 52.9670 179.0357 23.4271 0.0000 0.0000 0.0000
# 3 9.9610 23.4271 84.4091 0.0000 0.0000 0.0000
# 4 0.0000 0.0000 0.0000 27.7006 0.0000 0.0000
# 5 0.0000 0.0000 0.0000 0.0000 16.6750 0.0000
# 6 0.0000 0.0000 0.0000 0.0000 0.0000 47.5194
#
#
#
# Elastic Compliance Matrix: (Units=1/GPa)
#
#
# Indices 1 2 3 4 5 6 
#
# 1 0.004970 -0.001446 -0.000185 0.000000 0.000000 0.000000
# 2 -0.001446 0.006217 -0.001555 0.000000 0.000000 0.000000
# 3 -0.000185 -0.001555 0.012300 0.000000 0.000000 0.000000
# 4 0.000000 0.000000 0.000000 0.036100 0.000000 0.000000
# 5 0.000000 0.000000 0.000000 0.000000 0.059970 0.000000
# 6 0.000000 0.000000 0.000000 0.000000 0.000000 0.021044
#
#
# Mechanical properties :
#
#
# Convention : Reuss Voigt Hill
#
# Bulk Modulus (GPa) = 58.42805 72.57225 65.50015
# Shear Modulus (GPa) = 32.74855 44.65132 38.69993
#
# Velocity S-wave (km/s) = 3.44995 4.02841 3.75035
# Velocity P-wave (km/s) = 6.09136 6.92915 6.52372
#
# Compressibility (1/GPa) = 0.01711507
#
# Stress axis : x y z
#
# Youngs Moduli (GPa) = 201.21239 160.85593 81.29800
#
# Poissons Ratio (x) = 0.23261 0.01505
# Poissons Ratio (y) = 0.29097 0.12640
# Poissons Ratio (z) = 0.03725 0.25009
#
# Static dielectric constant tensor:
#      x y z
#    x 2.318940 0.000000 0.000000 
#    y 0.000000 2.243340 0.000000 
#    z 0.000000 0.000000 2.200010 
# 
# From -- ./inp_files/16818.got.cif
#   From: 2010.05.17/outbox.cif.g08.bks.cpg/sg46_9_cif.got.tgz:16818.got - 2010.06.03 19:58:25.
