data_PCOD9378704
_publ_section_title
;
Structure prediction by ZEFSAII (Michael W. Deem and Ramdas Pophale) SiO2 
 PCOD9378704
Probable space group: I M A 2
;
_chemical_formula_sum "Si O2"
_cell_formula_units_Z 56
_cell_length_a 9.148060
_cell_length_b 15.542093
_cell_length_c 19.940135
_cell_angle_alpha 90.000000
_cell_angle_beta 90.000000
_cell_angle_gamma 90.000000
_cell_volume 2835.088380
_symmetry_space_group_name_H-M "I M A 2"
_symmetry_group_IT_number 46
_symmetry_cell_setting 'orthorhombic'
loop_
_space_group_symop_operation_xyz
x,y,z
-x,-y,z
1/2-x,y,z
1/2+x,-y,z
1/2+x,1/2+y,1/2+z
1/2-x,1/2-y,1/2+z
-x,1/2+y,1/2+z
x,1/2-y,1/2+z
loop_
_atom_site_type_symbol
_atom_site_label
_atom_site_fract_x
_atom_site_fract_y
_atom_site_fract_z
Si Si1 0.414797 0.581887 0.352450
Si Si2 0.573291 0.907340 0.613408
Si Si3 0.574098 0.278010 0.838370
Si Si4 0.583969 0.137735 0.000368
Si Si5 0.424983 0.184262 0.472629
Si Si6 0.083735 0.072949 0.124293
Si Si7 0.916797 0.745415 0.706663
O O1 0.500000 0.500000 0.326086
O O2 0.250000 0.579296 0.326332
O O3 0.475003 0.677140 0.340570
O O4 0.411533 0.581279 0.433168
O O5 0.750000 0.914593 0.616354
O O6 0.536389 0.874708 0.537296
O O7 0.532810 0.832380 0.667734
O O8 0.500000 0.000000 0.626186
O O9 0.750000 0.280758 0.845643
O O10 0.501677 0.329988 0.899974
O O11 0.518016 0.295921 0.764207
O O12 0.750000 0.168003 0.012379
O O13 0.481186 0.220230 0.990310
O O14 0.519400 0.085300 0.060708
O O15 0.250000 0.182170 0.464983
O O16 0.250000 0.046774 0.109671
O O17 0.091199 0.168162 0.154036
O O18 0.000000 0.000000 0.167110
O O19 0.750000 0.760854 0.731894
#
# Coordination Sequence:
#
# PCOD9378704 Si02
#       7
#     8   8   8   8   8   8   8
#     4   9  19  32  47  74 110 143 182 229 276 341
#     4  10  22  40  63  93 125 163 212 259 313 372
#     4  10  22  38  57  84 115 153 204 254 306 367
#     4  10  19  32  53  83 116 149 187 232 286 344
#     4  10  19  37  61  86 118 157 199 248 304 361
#     4  11  22  37  57  84 117 150 192 240 294 360
#     4  10  22  42  61  84 121 161 202 250 308 375
#
# _framework density 19.752471
#
# number of rings (size 3 to 8) (size 9 to 14) (size 15 to 20)
#    0.000    2.000    1.429    3.000    0.000    8.000 
#    0.000    3.571    0.000    0.000    0.000    0.000 
#    0.000    0.000    0.000    0.000    0.000    0.000 
#
# Total GULP energy -155938.483810 kJ/mol
# GULP energy per Si atom -5569.231565 kJ/mol
# Density = 1.970751 g / cm^3
# Si number density = 19.752471 Si / 1000 Ang^3
#
#
#
# Elastic Constant Matrix: (Units=GPa)
#
#
# Indices 1 2 3 4 5 6 
#
# 1 50.6582 8.2550 17.0442 0.0000 0.0000 0.0000
# 2 8.2550 56.8694 -3.9913 0.0000 0.0000 0.0000
# 3 17.0442 -3.9913 62.2214 0.0000 0.0000 0.0000
# 4 0.0000 0.0000 0.0000 10.0441 0.0000 0.0000
# 5 0.0000 0.0000 0.0000 0.0000 14.8290 0.0000
# 6 0.0000 0.0000 0.0000 0.0000 0.0000 30.6435
#
#
#
# Elastic Compliance Matrix: (Units=1/GPa)
#
#
# Indices 1 2 3 4 5 6 
#
# 1 0.022499 -0.003715 -0.006402 0.000000 0.000000 0.000000
# 2 -0.003715 0.018277 0.002190 0.000000 0.000000 0.000000
# 3 -0.006402 0.002190 0.017966 0.000000 0.000000 0.000000
# 4 0.000000 0.000000 0.000000 0.099561 0.000000 0.000000
# 5 0.000000 0.000000 0.000000 0.000000 0.067435 0.000000
# 6 0.000000 0.000000 0.000000 0.000000 0.000000 0.032633
#
#
# Mechanical properties :
#
#
# Convention : Reuss Voigt Hill
#
# Bulk Modulus (GPa) = 23.31601 23.59607 23.45604
# Shear Modulus (GPa) = 17.32973 20.99939 19.16456
#
# Velocity S-wave (km/s) = 2.96521 3.26410 3.11824
# Velocity P-wave (km/s) = 4.85315 5.11641 4.98652
#
# Compressibility (1/GPa) = 0.04288899
#
# Stress axis : x y z
#
# Youngs Moduli (GPa) = 44.44571 54.71311 55.66163
#
# Poissons Ratio (x) = 0.20327 0.35632
# Poissons Ratio (y) = 0.16513 -0.12191
# Poissons Ratio (z) = 0.28452 -0.11983
#
# Static dielectric constant tensor:
#      x y z
#    x 1.705800 0.000000 0.000000 
#    y 0.000000 1.714810 0.000000 
#    z 0.000000 0.000000 1.776000 
# 
# From -- ./inp_files/21061.got.cif
#   From: 2010.05.17/outbox.cif.g08.bks.cpg/sg46_11_cif.got.tgz:21061.got - 2010.06.03 19:58:25.
