data_PCOD9378416
_publ_section_title
;
Structure prediction by ZEFSAII (Michael W. Deem and Ramdas Pophale) SiO2 
 PCOD9378416
Probable space group: I M A 2
;
_chemical_formula_sum "Si O2"
_cell_formula_units_Z 52
_cell_length_a 15.814511
_cell_length_b 10.623688
_cell_length_c 14.426427
_cell_angle_alpha 90.000000
_cell_angle_beta 90.000000
_cell_angle_gamma 90.000000
_cell_volume 2423.761361
_symmetry_space_group_name_H-M "I M A 2"
_symmetry_group_IT_number 46
_symmetry_cell_setting 'orthorhombic'
loop_
_space_group_symop_operation_xyz
x,y,z
-x,-y,z
1/2-x,y,z
1/2+x,-y,z
1/2+x,1/2+y,1/2+z
1/2-x,1/2-y,1/2+z
-x,1/2+y,1/2+z
x,1/2-y,1/2+z
loop_
_atom_site_type_symbol
_atom_site_label
_atom_site_fract_x
_atom_site_fract_y
_atom_site_fract_z
Si Si1 0.250000 0.630892 0.564060
Si Si2 0.592336 0.653807 0.359338
Si Si3 0.404340 0.876117 0.785765
Si Si4 0.152284 0.265224 0.684770
Si Si5 0.093638 0.448235 0.546413
Si Si6 0.750000 0.311967 0.782905
Si Si7 0.250000 0.590541 0.975673
Si Si8 0.407028 0.493992 0.089918
O O1 0.165933 0.553056 0.538097
O O2 0.250000 0.646044 0.675940
O O3 0.250000 0.764496 0.512265
O O4 0.617676 0.510248 0.332207
O O5 0.494090 0.664036 0.328834
O O6 0.643366 0.746881 0.294343
O O7 0.606600 0.659137 0.468337
O O8 0.332279 0.774487 0.798703
O O9 0.411102 0.907448 0.676300
O O10 0.250000 0.278377 0.658084
O O11 0.102281 0.383636 0.645730
O O12 0.114365 0.139150 0.638130
O O13 0.000000 0.500000 0.530738
O O14 0.750000 0.413667 0.864618
O O15 0.332839 0.528783 0.020470
O O16 0.500000 0.500000 0.046368
#
# Coordination Sequence:
#
# PCOD9378416 Si02
#       8
#     4   8   8   8   8   4   4   8
#     4  12  28  47  68 103 149 187 236 293 354 420
#     4  10  22  41  71  97 130 178 243 282 334 410
#     4  10  18  40  64 104 128 173 227 293 331 401
#     4  11  24  43  68 100 139 184 229 292 347 410
#     4  12  27  48  68 104 143 189 235 285 353 426
#     4  12  26  40  69 101 150 172 229 280 371 417
#     4  12  26  43  71 104 137 191 229 297 351 425
#     4  11  21  41  71  98 137 177 236 290 344 406
#
# _framework density 21.454256999999998
#
# number of rings (size 3 to 8) (size 9 to 14) (size 15 to 20)
#    0.000    0.923    7.692    0.923    8.615    0.000 
#    2.769    0.769    0.000    0.000    0.000    0.000 
#    0.000    0.000    0.000    0.000    0.000    0.000 
#
# Total GULP energy -145412.932216 kJ/mol
# GULP energy per Si atom -5592.805085 kJ/mol
# Density = 2.140543 g / cm^3
# Si number density = 21.454257 Si / 1000 Ang^3
#
#
#
# Elastic Constant Matrix: (Units=GPa)
#
#
# Indices 1 2 3 4 5 6 
#
# 1 108.3366 17.1888 23.6347 0.0000 0.0000 0.0000
# 2 17.1888 23.7182 -4.2586 0.0000 0.0000 0.0000
# 3 23.6347 -4.2586 85.2541 0.0000 0.0000 0.0000
# 4 0.0000 0.0000 0.0000 27.5744 0.0000 0.0000
# 5 0.0000 0.0000 0.0000 0.0000 12.0168 0.0000
# 6 0.0000 0.0000 0.0000 0.0000 0.0000 3.2940
#
#
#
# Elastic Compliance Matrix: (Units=1/GPa)
#
#
# Indices 1 2 3 4 5 6 
#
# 1 0.011438 -0.008939 -0.003617 0.000000 0.000000 0.000000
# 2 -0.008939 0.049529 0.004952 0.000000 0.000000 0.000000
# 3 -0.003617 0.004952 0.012980 0.000000 0.000000 0.000000
# 4 0.000000 0.000000 0.000000 0.036265 0.000000 0.000000
# 5 0.000000 0.000000 0.000000 0.000000 0.083217 0.000000
# 6 0.000000 0.000000 0.000000 0.000000 0.000000 0.303587
#
#
# Mechanical properties :
#
#
# Convention : Reuss Voigt Hill
#
# Bulk Modulus (GPa) = 17.02458 32.27098 24.64778
# Shear Modulus (GPa) = 9.40198 20.62665 15.01431
#
# Velocity S-wave (km/s) = 2.09567 3.10405 2.64830
# Velocity P-wave (km/s) = 3.71596 5.28406 4.56780
#
# Compressibility (1/GPa) = 0.05873860
#
# Stress axis : x y z
#
# Youngs Moduli (GPa) = 87.42883 20.19029 77.04254
#
# Poissons Ratio (x) = 0.18047 0.27869
# Poissons Ratio (y) = 0.78149 -0.38152
# Poissons Ratio (z) = 0.31626 -0.09998
#
# Static dielectric constant tensor:
#      x y z
#    x 1.758110 0.000000 0.000000 
#    y 0.000000 1.761190 0.000000 
#    z 0.000000 0.000000 1.799900 
# 
# From -- ./inp_files/15997.got.cif
#   From: 2010.05.17/outbox.cif.g08.bks.cpg/sg46_8_cif.got.tgz:15997.got - 2010.06.03 19:58:25.
