data_PCOD9378381
_publ_section_title
;
Structure prediction by ZEFSAII (Michael W. Deem and Ramdas Pophale) SiO2 
 PCOD9378381
Probable space group: I M A 2
;
_chemical_formula_sum "Si O2"
_cell_formula_units_Z 48
_cell_length_a 18.862979
_cell_length_b 7.277072
_cell_length_c 15.045200
_cell_angle_alpha 90.000000
_cell_angle_beta 90.000000
_cell_angle_gamma 90.000000
_cell_volume 2065.213325
_symmetry_space_group_name_H-M "I M A 2"
_symmetry_group_IT_number 46
_symmetry_cell_setting 'orthorhombic'
loop_
_space_group_symop_operation_xyz
x,y,z
-x,-y,z
1/2-x,y,z
1/2+x,-y,z
1/2+x,1/2+y,1/2+z
1/2-x,1/2-y,1/2+z
-x,1/2+y,1/2+z
x,1/2-y,1/2+z
loop_
_atom_site_type_symbol
_atom_site_label
_atom_site_fract_x
_atom_site_fract_y
_atom_site_fract_z
Si Si1 0.831262 0.693701 0.447910
Si Si2 0.422364 0.168741 0.106858
Si Si3 0.167989 0.873207 0.706767
Si Si4 0.672751 0.694788 0.759150
Si Si5 0.428480 0.874769 0.868113
Si Si6 0.932647 0.243670 0.555006
O O1 0.750000 0.646577 0.463997
O O2 0.866007 0.756812 0.539010
O O3 0.834362 0.830376 0.364243
O O4 0.871630 0.517417 0.409120
O O5 0.393585 0.129703 0.204112
O O6 0.491581 0.293109 0.100809
O O7 0.429919 0.964178 0.068881
O O8 0.250000 0.805947 0.711845
O O9 0.110825 0.799901 0.779965
O O10 0.132470 0.838066 0.610556
O O11 0.172610 0.089109 0.731711
O O12 0.750000 0.622023 0.731082
O O13 0.500000 0.000000 0.852238
O O14 0.439510 0.727222 0.947901
#
# Coordination Sequence:
#
# PCOD9378381 Si02
#       6
#     8   8   8   8   8   8
#     4   9  17  31  53  78 104 139 186 232 274 332
#     4  10  19  34  54  82 109 145 190 231 284 342
#     4  10  23  37  56  87 115 150 193 240 300 351
#     4   9  19  34  54  80 107 142 189 231 279 342
#     4  10  18  36  57  83 109 155 196 237 276 352
#     4  10  21  35  55  85 115 142 193 241 288 345
#
# _framework density 23.242152999999998
#
# number of rings (size 3 to 8) (size 9 to 14) (size 15 to 20)
#    0.000    2.333    3.333    2.000    4.667    4.000 
#    0.000    1.667    0.000    0.000    0.000    0.000 
#    0.000    0.000    0.000    0.000    0.000    0.000 
#
# Total GULP energy -133685.871979 kJ/mol
# GULP energy per Si atom -5570.244666 kJ/mol
# Density = 2.318925 g / cm^3
# Si number density = 23.242153 Si / 1000 Ang^3
#
#
#
# Elastic Constant Matrix: (Units=GPa)
#
#
# Indices 1 2 3 4 5 6 
#
# 1 162.0181 5.0273 56.1336 0.0000 0.0000 0.0000
# 2 5.0273 50.8867 8.5331 0.0000 0.0000 0.0000
# 3 56.1336 8.5331 75.7854 0.0000 0.0000 0.0000
# 4 0.0000 0.0000 0.0000 19.6081 0.0000 0.0000
# 5 0.0000 0.0000 0.0000 0.0000 44.0806 0.0000
# 6 0.0000 0.0000 0.0000 0.0000 0.0000 0.6979
#
#
#
# Elastic Compliance Matrix: (Units=1/GPa)
#
#
# Indices 1 2 3 4 5 6 
#
# 1 0.008305 0.000215 -0.006176 0.000000 0.000000 0.000000
# 2 0.000215 0.020035 -0.002415 0.000000 0.000000 0.000000
# 3 -0.006176 -0.002415 0.018041 0.000000 0.000000 0.000000
# 4 0.000000 0.000000 0.000000 0.050999 0.000000 0.000000
# 5 0.000000 0.000000 0.000000 0.000000 0.022686 0.000000
# 6 0.000000 0.000000 0.000000 0.000000 0.000000 1.432826
#
#
# Mechanical properties :
#
#
# Convention : Reuss Voigt Hill
#
# Bulk Modulus (GPa) = 33.74947 47.56425 40.65686
# Shear Modulus (GPa) = 3.16552 27.47707 15.32129
#
# Velocity S-wave (km/s) = 1.16830 3.44206 2.57028
# Velocity P-wave (km/s) = 4.04626 6.02545 5.13217
#
# Compressibility (1/GPa) = 0.02963010
#
# Stress axis : x y z
#
# Youngs Moduli (GPa) = 120.40692 49.91200 55.42794
#
# Poissons Ratio (x) = -0.01074 0.34231
# Poissons Ratio (y) = -0.02590 0.13387
# Poissons Ratio (z) = 0.74361 0.12055
#
# Static dielectric constant tensor:
#      x y z
#    x 1.782750 0.000000 0.000000 
#    y 0.000000 1.988660 0.000000 
#    z 0.000000 0.000000 1.992710 
# 
# From -- ./inp_files/19848.got.cif
#   From: 2010.05.17/outbox.cif.g08.bks.cpg/sg46_10_cif.got.tgz:19848.got - 2010.06.03 19:58:25.
