data_PCOD9378034
_publ_section_title
;
Structure prediction by ZEFSAII (Michael W. Deem and Ramdas Pophale) SiO2 
 PCOD9378034
Probable space group: I M A 2
;
_chemical_formula_sum "Si O2"
_cell_formula_units_Z 64
_cell_length_a 8.607327
_cell_length_b 19.023673
_cell_length_c 21.950341
_cell_angle_alpha 90.000000
_cell_angle_beta 90.000000
_cell_angle_gamma 90.000000
_cell_volume 3594.214121
_symmetry_space_group_name_H-M "I M A 2"
_symmetry_group_IT_number 46
_symmetry_cell_setting 'orthorhombic'
loop_
_space_group_symop_operation_xyz
x,y,z
-x,-y,z
1/2-x,y,z
1/2+x,-y,z
1/2+x,1/2+y,1/2+z
1/2-x,1/2-y,1/2+z
-x,1/2+y,1/2+z
x,1/2-y,1/2+z
loop_
_atom_site_type_symbol
_atom_site_label
_atom_site_fract_x
_atom_site_fract_y
_atom_site_fract_z
Si Si1 0.065022 0.572421 0.741180
Si Si2 0.435668 0.070944 0.791651
Si Si3 0.935319 0.870945 0.115976
Si Si4 0.564769 0.277548 0.796383
Si Si5 0.065179 0.576840 0.488691
Si Si6 0.064281 0.317339 0.390242
Si Si7 0.562983 0.574590 0.151434
Si Si8 0.437256 0.775830 0.662048
O O1 0.250000 0.568327 0.731732
O O2 0.033877 0.640853 0.781942
O O3 0.000000 0.500000 0.767052
O O4 0.984057 0.586906 0.676388
O O5 0.250000 0.069433 0.790296
O O6 0.486264 0.133636 0.833665
O O7 0.490843 0.074584 0.722383
O O8 0.500000 0.000000 0.819521
O O9 0.750000 0.868807 0.110194
O O10 0.008396 0.907075 0.056959
O O11 0.001246 0.792129 0.125889
O O12 0.750000 0.266451 0.800110
O O13 0.491175 0.255738 0.861061
O O14 0.511497 0.237521 0.733292
O O15 0.250000 0.573726 0.485596
O O16 0.000000 0.500000 0.469794
O O17 0.006223 0.642558 0.447908
O O18 0.250000 0.317257 0.396783
O O19 0.500000 0.500000 0.125442
O O20 0.750000 0.573928 0.148109
O O21 0.500248 0.651485 0.132988
O O22 0.250000 0.776396 0.661807
#
# Coordination Sequence:
#
# PCOD9378034 Si02
#       8
#     8   8   8   8   8   8   8   8
#     4  10  20  35  55  82 111 141 176 218 271 324
#     4   9  18  28  41  63  93 130 170 208 247 295
#     4  11  22  37  57  79 105 140 181 225 272 321
#     4   9  19  33  50  74 105 139 175 215 263 319
#     4  12  25  41  57  77 107 143 185 227 267 313
#     4  11  21  34  51  74 103 138 179 219 261 310
#     4  10  18  29  44  69 101 137 174 214 261 312
#     4  10  19  33  52  76 105 138 177 222 271 323
#
# _framework density 17.806395999999999
#
# number of rings (size 3 to 8) (size 9 to 14) (size 15 to 20)
#    0.000    1.750    1.250    5.250    0.000    5.000 
#    0.000    0.000    0.000    0.000    0.000    0.875 
#    0.000    2.000    0.000    0.000    0.000    0.000 
#
# Total GULP energy -178392.725083 kJ/mol
# GULP energy per Si atom -5574.772659 kJ/mol
# Density = 1.776587 g / cm^3
# Si number density = 17.806396 Si / 1000 Ang^3
#
#
#
# Elastic Constant Matrix: (Units=GPa)
#
#
# Indices 1 2 3 4 5 6 
#
# 1 77.3350 42.8019 27.0187 0.0000 0.0000 0.0000
# 2 42.8019 108.8263 17.8929 0.0000 0.0000 0.0000
# 3 27.0187 17.8929 53.5005 0.0000 0.0000 0.0000
# 4 0.0000 0.0000 0.0000 19.4557 0.0000 0.0000
# 5 0.0000 0.0000 0.0000 0.0000 24.2426 0.0000
# 6 0.0000 0.0000 0.0000 0.0000 0.0000 33.5918
#
#
#
# Elastic Compliance Matrix: (Units=1/GPa)
#
#
# Indices 1 2 3 4 5 6 
#
# 1 0.019010 -0.006241 -0.007513 0.000000 0.000000 0.000000
# 2 -0.006241 0.011773 -0.000785 0.000000 0.000000 0.000000
# 3 -0.007513 -0.000785 0.022748 0.000000 0.000000 0.000000
# 4 0.000000 0.000000 0.000000 0.051399 0.000000 0.000000
# 5 0.000000 0.000000 0.000000 0.000000 0.041250 0.000000
# 6 0.000000 0.000000 0.000000 0.000000 0.000000 0.029769
#
#
# Mechanical properties :
#
#
# Convention : Reuss Voigt Hill
#
# Bulk Modulus (GPa) = 40.89709 46.12099 43.50904
# Shear Modulus (GPa) = 23.45449 25.58791 24.52120
#
# Velocity S-wave (km/s) = 3.63325 3.79490 3.71496
# Velocity P-wave (km/s) = 6.37324 6.72006 6.54895
#
# Compressibility (1/GPa) = 0.02445162
#
# Stress axis : x y z
#
# Youngs Moduli (GPa) = 52.60400 84.94117 43.95941
#
# Poissons Ratio (x) = 0.53015 0.33027
# Poissons Ratio (y) = 0.32832 0.03452
# Poissons Ratio (z) = 0.39521 0.06671
#
# Static dielectric constant tensor:
#      x y z
#    x 1.562110 0.000000 0.000000 
#    y 0.000000 1.713210 0.000000 
#    z 0.000000 0.000000 1.606080 
# 
# From -- ./inp_files/23287.got.cif
#   From: 2010.05.17/outbox.cif.g08.bks.cpg/sg46_12_cif.got.tgz:23287.got - 2010.06.03 19:58:25.
