data_PCOD9378469
_publ_section_title
;
Structure prediction by ZEFSAII (Michael W. Deem and Ramdas Pophale) SiO2 
 PCOD9378469
Probable space group: I M A 2
;
_chemical_formula_sum "Si O2"
_cell_formula_units_Z 64
_cell_length_a 16.717296
_cell_length_b 7.294011
_cell_length_c 22.643703
_cell_angle_alpha 90.000000
_cell_angle_beta 90.000000
_cell_angle_gamma 90.000000
_cell_volume 2761.085760
_symmetry_space_group_name_H-M "I M A 2"
_symmetry_group_IT_number 46
_symmetry_cell_setting 'orthorhombic'
loop_
_space_group_symop_operation_xyz
x,y,z
-x,-y,z
1/2-x,y,z
1/2+x,-y,z
1/2+x,1/2+y,1/2+z
1/2-x,1/2-y,1/2+z
-x,1/2+y,1/2+z
x,1/2-y,1/2+z
loop_
_atom_site_type_symbol
_atom_site_label
_atom_site_fract_x
_atom_site_fract_y
_atom_site_fract_z
Si Si1 0.404864 0.968228 0.039220
Si Si2 0.656338 0.054476 0.290252
Si Si3 0.156338 0.554476 0.416717
Si Si4 0.094501 0.531657 0.912632
Si Si5 0.096220 0.530775 0.039997
Si Si6 0.594501 0.468343 0.294338
Si Si7 0.903780 0.030775 0.666972
Si Si8 0.404864 0.531772 0.667749
O O1 0.389803 0.749533 0.040271
O O2 0.377447 0.039280 0.103485
O O3 0.500000 0.000000 0.036190
O O4 0.367958 0.038851 0.978253
O O5 0.750000 0.092616 0.289807
O O6 0.633651 0.961794 0.352247
O O7 0.610627 0.249708 0.291688
O O8 0.632042 0.961149 0.228716
O O9 0.250000 0.592616 0.417162
O O10 0.110627 0.749708 0.415281
O O11 0.133651 0.461794 0.354722
O O12 0.000000 0.500000 0.909019
O O13 0.125331 0.460854 0.976330
O O14 0.126435 0.460170 0.103485
O O15 0.000000 0.500000 0.039865
O O16 0.500000 0.500000 0.297950
O O17 0.625331 0.539146 0.230639
O O18 0.889803 0.249533 0.666698
O O19 0.000000 0.000000 0.667104
O O20 0.500000 0.500000 0.670779
#
# Coordination Sequence:
#
# PCOD9378469 Si02
#       8
#     8   8   8   8   8   8   8   8
#     4   9  17  29  46  70  96 122 157 198 235 278
#     4  10  19  30  45  69  98 124 156 201 249 290
#     4  10  19  30  45  69  98 124 156 201 249 290
#     4   9  16  27  44  65  88 121 158 195 238 286
#     4   8  14  25  42  66  91 114 146 190 234 274
#     4   9  16  27  44  65  88 121 158 195 238 286
#     4   8  14  25  42  66  91 114 146 190 234 274
#     4   9  17  29  46  70  96 122 157 198 235 278
#
# _framework density 23.179286999999999
#
# number of rings (size 3 to 8) (size 9 to 14) (size 15 to 20)
#    0.000    3.000    0.000    2.250    0.000    0.500 
#    0.000    0.000    0.000    2.250    0.000  122.500 
#    0.000   86.000    0.000    0.000    0.000    0.000 
#
# Total GULP energy -178372.567790 kJ/mol
# GULP energy per Si atom -5574.142743 kJ/mol
# Density = 2.312653 g / cm^3
# Si number density = 23.179287 Si / 1000 Ang^3
#
#
#
# Elastic Constant Matrix: (Units=GPa)
#
#
# Indices 1 2 3 4 5 6 
#
# 1 70.9166 10.9374 48.4224 0.0000 0.0000 0.0000
# 2 10.9374 101.2236 20.1869 0.0000 0.0000 0.0000
# 3 48.4224 20.1869 330.8268 0.0000 0.0000 0.0000
# 4 0.0000 0.0000 0.0000 -27.0665 0.0000 0.0000
# 5 0.0000 0.0000 0.0000 0.0000 612.1527 0.0000
# 6 0.0000 0.0000 0.0000 0.0000 0.0000 -26.6474
#
#
#
# Elastic Compliance Matrix: (Units=1/GPa)
#
#
# Indices 1 2 3 4 5 6 
#
# 1 0.015825 -0.001263 -0.002239 0.000000 0.000000 0.000000
# 2 -0.001263 0.010102 -0.000431 0.000000 0.000000 0.000000
# 3 -0.002239 -0.000431 0.003377 0.000000 0.000000 0.000000
# 4 0.000000 0.000000 0.000000 -0.036946 0.000000 0.000000
# 5 0.000000 0.000000 0.000000 0.000000 0.001634 0.000000
# 6 0.000000 0.000000 0.000000 0.000000 0.000000 -0.037527
#
#
# Mechanical properties :
#
#
# Convention : Reuss Voigt Hill
#
# Bulk Modulus (GPa) = 46.65198 73.56227 60.10713
# Shear Modulus (GPa) = -175.29640 139.91578 -17.69031
#
# Velocity S-wave (km/s) = -8.70577 7.77775 -2.76560
# Velocity P-wave (km/s) = 8.99354 10.60486 3.97362
#
# Compressibility (1/GPa) = 0.02143532
#
# Stress axis : x y z
#
# Youngs Moduli (GPa) = 63.19184 98.99351 296.13842
#
# Poissons Ratio (x) = 0.12506 0.66310
# Poissons Ratio (y) = 0.07983 0.12778
# Poissons Ratio (z) = 0.14150 0.04271
#
# Static dielectric constant tensor:
#      x y z
#    x 1.806640 0.000000 0.000000 
#    y 0.000000 1.833460 0.000000 
#    z 0.000000 0.000000 2.005160 
# 
# From -- ./inp_files/23711.got.cif
#   From: 2010.05.17/outbox.cif.g08.bks.cpg/sg46_12_cif.got.tgz:23711.got - 2010.06.03 19:58:25.
