data_PCOD9378366
_publ_section_title
;
Structure prediction by ZEFSAII (Michael W. Deem and Ramdas Pophale) SiO2 
 PCOD9378366
Probable space group: I M A 2
;
_chemical_formula_sum "Si O2"
_cell_formula_units_Z 56
_cell_length_a 14.985278
_cell_length_b 9.551246
_cell_length_c 19.892591
_cell_angle_alpha 90.000000
_cell_angle_beta 90.000000
_cell_angle_gamma 90.000000
_cell_volume 2847.188288
_symmetry_space_group_name_H-M "I M A 2"
_symmetry_group_IT_number 46
_symmetry_cell_setting 'orthorhombic'
loop_
_space_group_symop_operation_xyz
x,y,z
-x,-y,z
1/2-x,y,z
1/2+x,-y,z
1/2+x,1/2+y,1/2+z
1/2-x,1/2-y,1/2+z
-x,1/2+y,1/2+z
x,1/2-y,1/2+z
loop_
_atom_site_type_symbol
_atom_site_label
_atom_site_fract_x
_atom_site_fract_y
_atom_site_fract_z
Si Si1 0.646819 0.855592 0.656850
Si Si2 0.980903 0.659169 0.741290
Si Si3 0.958041 0.801509 0.393431
Si Si4 0.148222 0.733474 0.948550
Si Si5 0.354930 0.043480 0.511459
Si Si6 0.349293 0.024132 0.905028
Si Si7 0.594551 0.419805 0.262415
O O1 0.750000 0.811899 0.654289
O O2 0.586162 0.738834 0.691628
O O3 0.615085 0.892667 0.581913
O O4 0.640472 0.996057 0.702181
O O5 0.938676 0.658962 0.816564
O O6 0.000000 0.500000 0.721967
O O7 0.067967 0.760405 0.746603
O O8 0.910339 0.896157 0.449108
O O9 0.921941 0.645037 0.406505
O O10 0.064563 0.805005 0.401969
O O11 0.250000 0.711309 0.922461
O O12 0.139804 0.899823 0.958946
O O13 0.138450 0.625381 0.009892
O O14 0.250000 0.077479 0.502485
O O15 0.250000 0.085820 0.911669
O O16 0.355811 0.947057 0.832550
O O17 0.500000 0.500000 0.271107
#
# Coordination Sequence:
#
# PCOD9378366 Si02
#       7
#     8   8   8   8   8   8   8
#     4  10  22  43  67  90 125 172 221 268 321 394
#     4  11  23  38  61  93 131 165 217 272 322 387
#     4  12  21  37  61  91 125 168 206 260 321 384
#     4  10  21  36  57  88 123 155 203 261 315 375
#     4  10  23  41  62  92 126 166 212 261 325 390
#     4  11  20  34  58  91 124 159 206 260 311 372
#     4  10  18  35  60  85 120 162 211 255 308 375
#
# _framework density 19.668527999999998
#
# number of rings (size 3 to 8) (size 9 to 14) (size 15 to 20)
#    0.000    1.429    4.286    2.571    0.000    4.000 
#    0.000    5.000    0.000    3.429    0.000    0.000 
#    0.000    0.000    0.000    0.000    0.000    0.000 
#
# Total GULP energy -156176.873333 kJ/mol
# GULP energy per Si atom -5577.745476 kJ/mol
# Density = 1.962376 g / cm^3
# Si number density = 19.668528 Si / 1000 Ang^3
#
#
#
# Elastic Constant Matrix: (Units=GPa)
#
#
# Indices 1 2 3 4 5 6 
#
# 1 87.0684 38.4442 36.4303 0.0000 0.0000 0.0000
# 2 38.4442 153.2696 53.1453 0.0000 0.0000 0.0000
# 3 36.4303 53.1453 94.4825 0.0000 0.0000 0.0000
# 4 0.0000 0.0000 0.0000 22.0802 0.0000 0.0000
# 5 0.0000 0.0000 0.0000 0.0000 18.6130 0.0000
# 6 0.0000 0.0000 0.0000 0.0000 0.0000 29.0817
#
#
#
# Elastic Compliance Matrix: (Units=1/GPa)
#
#
# Indices 1 2 3 4 5 6 
#
# 1 0.014203 -0.002067 -0.004314 0.000000 0.000000 0.000000
# 2 -0.002067 0.008406 -0.003931 0.000000 0.000000 0.000000
# 3 -0.004314 -0.003931 0.014459 0.000000 0.000000 0.000000
# 4 0.000000 0.000000 0.000000 0.045289 0.000000 0.000000
# 5 0.000000 0.000000 0.000000 0.000000 0.053726 0.000000
# 6 0.000000 0.000000 0.000000 0.000000 0.000000 0.034386
#
#
# Mechanical properties :
#
#
# Convention : Reuss Voigt Hill
#
# Bulk Modulus (GPa) = 60.81378 65.65112 63.23245
# Shear Modulus (GPa) = 25.43578 27.74169 26.58874
#
# Velocity S-wave (km/s) = 3.60004 3.75968 3.68073
# Velocity P-wave (km/s) = 6.94744 7.23175 7.09102
#
# Compressibility (1/GPa) = 0.01644364
#
# Stress axis : x y z
#
# Youngs Moduli (GPa) = 70.40938 118.96224 69.16270
#
# Poissons Ratio (x) = 0.24585 0.29835
# Poissons Ratio (y) = 0.14551 0.27191
# Poissons Ratio (z) = 0.30373 0.46769
#
# Static dielectric constant tensor:
#      x y z
#    x 1.726330 0.000000 0.000000 
#    y 0.000000 1.729100 0.000000 
#    z 0.000000 0.000000 1.685350 
# 
# From -- ./inp_files/22017.got.cif
#   From: 2010.05.17/outbox.cif.g08.bks.cpg/sg46_12_cif.got.tgz:22017.got - 2010.06.03 19:58:25.
