data_PCOD9378561
_publ_section_title
;
Structure prediction by ZEFSAII (Michael W. Deem and Ramdas Pophale) SiO2 
 PCOD9378561
Probable space group: I M A 2
;
_chemical_formula_sum "Si O2"
_cell_formula_units_Z 48
_cell_length_a 8.650158
_cell_length_b 9.635775
_cell_length_c 32.088396
_cell_angle_alpha 90.000000
_cell_angle_beta 90.000000
_cell_angle_gamma 90.000000
_cell_volume 2674.599131
_symmetry_space_group_name_H-M "I M A 2"
_symmetry_group_IT_number 46
_symmetry_cell_setting 'orthorhombic'
loop_
_space_group_symop_operation_xyz
x,y,z
-x,-y,z
1/2-x,y,z
1/2+x,-y,z
1/2+x,1/2+y,1/2+z
1/2-x,1/2-y,1/2+z
-x,1/2+y,1/2+z
x,1/2-y,1/2+z
loop_
_atom_site_type_symbol
_atom_site_label
_atom_site_fract_x
_atom_site_fract_y
_atom_site_fract_z
Si Si1 0.936538 0.653444 0.713000
Si Si2 0.064389 0.843000 0.967847
Si Si3 0.563499 0.653955 0.618693
Si Si4 0.435404 0.155981 0.789435
Si Si5 0.564251 0.655263 0.041960
Si Si6 0.934835 0.156726 0.875055
O O1 0.750000 0.649409 0.713635
O O2 0.984438 0.693111 0.665859
O O3 0.987200 0.756934 0.749319
O O4 0.000000 0.500000 0.720875
O O5 0.250000 0.848886 0.971432
O O6 0.026271 0.788068 0.921111
O O7 0.000000 0.000000 0.972098
O O8 0.995227 0.744491 0.002933
O O9 0.500000 0.500000 0.609691
O O10 0.750000 0.646759 0.617820
O O11 0.513843 0.763450 0.583872
O O12 0.250000 0.150252 0.790448
O O13 0.494041 0.220324 0.833182
O O14 0.500000 0.000000 0.786381
O O15 0.500000 0.500000 0.040996
O O16 0.750000 0.651187 0.041214
O O17 0.750000 0.153164 0.870945
O O18 0.000000 0.000000 0.875763
#
# Coordination Sequence:
#
# PCOD9378561 Si02
#       6
#     8   8   8   8   8   8
#     4   9  19  35  53  75 103 134 170 210 253 302
#     4  10  20  35  56  80 105 136 175 216 258 307
#     4   9  19  36  56  77 101 132 171 212 253 302
#     4  10  19  31  50  76 105 136 170 210 253 299
#     4  11  23  37  54  77 107 139 171 213 262 311
#     4   9  17  30  50  75 102 133 170 211 252 297
#
# _framework density 17.946615999999999
#
# number of rings (size 3 to 8) (size 9 to 14) (size 15 to 20)
#    0.000    2.333    0.000    3.500    0.000    6.667 
#    0.000    0.833    0.000    2.000    0.000    0.000 
#    0.000    0.000    0.000    0.000    0.000    0.000 
#
# Total GULP energy -133849.695221 kJ/mol
# GULP energy per Si atom -5577.070634 kJ/mol
# Density = 1.790577 g / cm^3
# Si number density = 17.946616 Si / 1000 Ang^3
#
#
#
# Elastic Constant Matrix: (Units=GPa)
#
#
# Indices 1 2 3 4 5 6 
#
# 1 43.5276 29.4106 51.3347 0.0000 0.0000 0.0000
# 2 29.4106 94.0705 106.0961 0.0000 0.0000 0.0000
# 3 51.3347 106.0961 197.0157 0.0000 0.0000 0.0000
# 4 0.0000 0.0000 0.0000 30.0198 0.0000 0.0000
# 5 0.0000 0.0000 0.0000 0.0000 28.2878 0.0000
# 6 0.0000 0.0000 0.0000 0.0000 0.0000 27.2707
#
#
#
# Elastic Compliance Matrix: (Units=1/GPa)
#
#
# Indices 1 2 3 4 5 6 
#
# 1 0.033259 -0.001590 -0.007810 0.000000 0.000000 0.000000
# 2 -0.001590 0.027150 -0.014206 0.000000 0.000000 0.000000
# 3 -0.007810 -0.014206 0.014761 0.000000 0.000000 0.000000
# 4 0.000000 0.000000 0.000000 0.033311 0.000000 0.000000
# 5 0.000000 0.000000 0.000000 0.000000 0.035351 0.000000
# 6 0.000000 0.000000 0.000000 0.000000 0.000000 0.036669
#
#
# Mechanical properties :
#
#
# Convention : Reuss Voigt Hill
#
# Bulk Modulus (GPa) = 35.76884 78.69961 57.23423
# Shear Modulus (GPa) = 21.09417 26.96716 24.03067
#
# Velocity S-wave (km/s) = 3.43211 3.88059 3.66322
# Velocity P-wave (km/s) = 5.97325 8.00162 7.06065
#
# Compressibility (1/GPa) = 0.02795729
#
# Stress axis : x y z
#
# Youngs Moduli (GPa) = 30.06734 36.83264 67.74651
#
# Poissons Ratio (x) = 0.05857 0.52907
# Poissons Ratio (y) = 0.04781 0.96242
# Poissons Ratio (z) = 0.23481 0.52325
#
# Static dielectric constant tensor:
#      x y z
#    x 1.606630 0.000000 0.000000 
#    y 0.000000 1.566830 0.000000 
#    z 0.000000 0.000000 1.659060 
# 
# From -- ./inp_files/24982.got.cif
#   From: 2010.05.17/outbox.cif.g08.bks.cpg/sg46_13_cif.got.tgz:24982.got - 2010.06.03 19:58:25.
