data_PCOD9378593
_publ_section_title
;
Structure prediction by ZEFSAII (Michael W. Deem and Ramdas Pophale) SiO2 
 PCOD9378593
Probable space group: I M A 2
;
_chemical_formula_sum "Si O2"
_cell_formula_units_Z 56
_cell_length_a 9.065450
_cell_length_b 19.694274
_cell_length_c 17.260888
_cell_angle_alpha 90.000000
_cell_angle_beta 90.000000
_cell_angle_gamma 90.000000
_cell_volume 3081.715036
_symmetry_space_group_name_H-M "I M A 2"
_symmetry_group_IT_number 46
_symmetry_cell_setting 'orthorhombic'
loop_
_space_group_symop_operation_xyz
x,y,z
-x,-y,z
1/2-x,y,z
1/2+x,-y,z
1/2+x,1/2+y,1/2+z
1/2-x,1/2-y,1/2+z
-x,1/2+y,1/2+z
x,1/2-y,1/2+z
loop_
_atom_site_type_symbol
_atom_site_label
_atom_site_fract_x
_atom_site_fract_y
_atom_site_fract_z
Si Si1 0.428790 0.790671 0.465100
Si Si2 0.081936 0.933198 0.976377
Si Si3 0.072166 0.572968 0.877104
Si Si4 0.424005 0.711883 0.311276
Si Si5 0.577680 0.150073 0.219209
Si Si6 0.416926 0.566684 0.289613
Si Si7 0.075104 0.184304 0.062612
O O1 0.250000 0.787015 0.470780
O O2 0.467150 0.867489 0.438890
O O3 0.478038 0.743633 0.392058
O O4 0.500787 0.756571 0.540408
O O5 0.250000 0.927390 0.004825
O O6 0.987567 0.868783 0.000231
O O7 0.088904 0.938445 0.883365
O O8 0.000000 0.000000 0.006554
O O9 0.250000 0.567381 0.878593
O O10 0.033415 0.601441 0.790875
O O11 0.000000 0.500000 0.891184
O O12 0.250000 0.696894 0.325212
O O13 0.431347 0.773433 0.251950
O O14 0.487726 0.641361 0.279354
O O15 0.750000 0.135985 0.200727
O O16 0.479044 0.151760 0.143284
O O17 0.500000 0.500000 0.260682
O O18 0.250000 0.565674 0.258809
O O19 0.250000 0.190050 0.060123
#
# Coordination Sequence:
#
# PCOD9378593 Si02
#       7
#     8   8   8   8   8   8   8
#     4   9  17  34  56  76  99 136 178 217 262 316
#     4  10  19  32  49  70 101 135 167 203 244 295
#     4   9  19  35  59  84 107 137 178 224 275 328
#     4   8  14  30  53  72  91 124 172 213 248 301
#     4   9  19  35  54  73  98 138 179 213 259 320
#     4   9  16  27  46  71  96 123 155 197 240 288
#     4  12  23  33  48  76 109 141 177 218 264 311
#
# _framework density 18.171699
#
# number of rings (size 3 to 8) (size 9 to 14) (size 15 to 20)
#    0.000    2.571    1.429    3.429    0.000    2.286 
#    0.000    4.286    0.000    0.857    0.000    2.000 
#    0.000    0.000    0.000    0.000    0.000    0.000 
#
# Total GULP energy -155897.399848 kJ/mol
# GULP energy per Si atom -5567.764280 kJ/mol
# Density = 1.813034 g / cm^3
# Si number density = 18.171699 Si / 1000 Ang^3
#
#
#
# Elastic Constant Matrix: (Units=GPa)
#
#
# Indices 1 2 3 4 5 6 
#
# 1 59.2942 30.6947 15.5766 0.0000 0.0000 0.0000
# 2 30.6947 131.0683 2.8211 0.0000 0.0000 0.0000
# 3 15.5766 2.8211 19.2100 0.0000 0.0000 0.0000
# 4 0.0000 0.0000 0.0000 7.4414 0.0000 0.0000
# 5 0.0000 0.0000 0.0000 0.0000 12.0433 0.0000
# 6 0.0000 0.0000 0.0000 0.0000 0.0000 30.1290
#
#
#
# Elastic Compliance Matrix: (Units=1/GPa)
#
#
# Indices 1 2 3 4 5 6 
#
# 1 0.024699 -0.005370 -0.019239 0.000000 0.000000 0.000000
# 2 -0.005370 0.008821 0.003059 0.000000 0.000000 0.000000
# 3 -0.019239 0.003059 0.067207 0.000000 0.000000 0.000000
# 4 0.000000 0.000000 0.000000 0.134383 0.000000 0.000000
# 5 0.000000 0.000000 0.000000 0.000000 0.083034 0.000000
# 6 0.000000 0.000000 0.000000 0.000000 0.000000 0.033191
#
#
# Mechanical properties :
#
#
# Convention : Reuss Voigt Hill
#
# Bulk Modulus (GPa) = 17.35283 34.19525 25.77404
# Shear Modulus (GPa) = 12.08767 20.62141 16.35454
#
# Velocity S-wave (km/s) = 2.58193 3.37235 3.00326
# Velocity P-wave (km/s) = 4.29634 5.83287 5.12254
#
# Compressibility (1/GPa) = 0.05762750
#
# Stress axis : x y z
#
# Youngs Moduli (GPa) = 40.48735 113.36077 14.87937
#
# Poissons Ratio (x) = 0.60876 0.28626
# Poissons Ratio (y) = 0.21742 -0.04552
# Poissons Ratio (z) = 0.77893 -0.34676
#
# Static dielectric constant tensor:
#      x y z
#    x 1.619410 0.000000 0.000000 
#    y 0.000000 1.688080 0.000000 
#    z 0.000000 0.000000 1.651430 
# 
# From -- ./inp_files/18482.got.cif
#   From: 2010.05.17/outbox.cif.g08.bks.cpg/sg46_10_cif.got.tgz:18482.got - 2010.06.03 19:58:25.
