data_PCOD9378578
_publ_section_title
;
Structure prediction by ZEFSAII (Michael W. Deem and Ramdas Pophale) SiO2 
 PCOD9378578
Probable space group: I M A 2
;
_chemical_formula_sum "Si O2"
_cell_formula_units_Z 44
_cell_length_a 7.259036
_cell_length_b 7.966627
_cell_length_c 31.426823
_cell_angle_alpha 90.000000
_cell_angle_beta 90.000000
_cell_angle_gamma 90.000000
_cell_volume 1817.414186
_symmetry_space_group_name_H-M "I M A 2"
_symmetry_group_IT_number 46
_symmetry_cell_setting 'orthorhombic'
loop_
_space_group_symop_operation_xyz
x,y,z
-x,-y,z
1/2-x,y,z
1/2+x,-y,z
1/2+x,1/2+y,1/2+z
1/2-x,1/2-y,1/2+z
-x,1/2+y,1/2+z
x,1/2-y,1/2+z
loop_
_atom_site_type_symbol
_atom_site_label
_atom_site_fract_x
_atom_site_fract_y
_atom_site_fract_z
Si Si1 0.750000 0.323768 0.239221
Si Si2 0.967409 0.810002 0.585395
Si Si3 0.469404 0.203110 0.310504
Si Si4 0.532220 0.690016 0.673975
Si Si5 0.967887 0.698804 0.905151
Si Si6 0.531839 0.693590 0.496313
O O1 0.589098 0.297354 0.275902
O O2 0.589582 0.311480 0.202113
O O3 0.750000 0.776761 0.581766
O O4 0.031026 0.697632 0.624722
O O5 0.043743 0.787643 0.537812
O O6 0.000000 0.000000 0.598934
O O7 0.250000 0.232521 0.305212
O O8 0.531173 0.253022 0.358377
O O9 0.500000 0.000000 0.306366
O O10 0.500000 0.500000 0.690419
O O11 0.750000 0.727725 0.676636
O O12 0.750000 0.732133 0.904560
O O13 0.000000 0.500000 0.907352
O O14 0.044154 0.770868 0.949227
O O15 0.500000 0.500000 0.505825
O O16 0.750000 0.731598 0.493559
#
# Coordination Sequence:
#
# PCOD9378578 Si02
#       6
#     4   8   8   8   8   8
#     4  12  22  34  58  84 124 156 210 242 322 340
#     4  10  23  40  62  88 120 155 198 242 295 362
#     4  10  19  31  52  85 121 156 199 253 297 350
#     4  11  23  37  57  92 122 158 200 254 299 359
#     4   9  19  34  55  86 121 154 195 242 290 349
#     4  10  21  39  60  90 121 156 193 239 292 357
#
# _framework density 24.210221000000001
#
# number of rings (size 3 to 8) (size 9 to 14) (size 15 to 20)
#    0.000    1.818    1.818    2.182    2.545    1.455 
#    0.000    0.000    0.000    1.091    4.727    0.000 
#    0.000    0.000    0.000    0.000    0.000    0.000 
#
# Total GULP energy -122482.387564 kJ/mol
# GULP energy per Si atom -5567.381253 kJ/mol
# Density = 2.415512 g / cm^3
# Si number density = 24.210221 Si / 1000 Ang^3
#
#
#
# Elastic Constant Matrix: (Units=GPa)
#
#
# Indices 1 2 3 4 5 6 
#
# 1 167.4400 -10.0275 53.0393 0.0000 0.0000 0.0000
# 2 -10.0275 37.4687 9.8396 0.0000 0.0000 0.0000
# 3 53.0393 9.8396 188.3922 0.0000 0.0000 0.0000
# 4 0.0000 0.0000 0.0000 -55.6872 0.0000 0.0000
# 5 0.0000 0.0000 0.0000 0.0000 -1.5041 0.0000
# 6 0.0000 0.0000 0.0000 0.0000 0.0000 9.8321
#
#
#
# Elastic Compliance Matrix: (Units=1/GPa)
#
#
# Indices 1 2 3 4 5 6 
#
# 1 0.006753 0.002339 -0.002023 0.000000 0.000000 0.000000
# 2 0.002339 0.027870 -0.002114 0.000000 0.000000 0.000000
# 3 -0.002023 -0.002114 0.005988 0.000000 0.000000 0.000000
# 4 0.000000 0.000000 0.000000 -0.017957 0.000000 0.000000
# 5 0.000000 0.000000 0.000000 0.000000 -0.664829 0.000000
# 6 0.000000 0.000000 0.000000 0.000000 0.000000 0.101707
#
#
# Mechanical properties :
#
#
# Convention : Reuss Voigt Hill
#
# Bulk Modulus (GPa) = 27.01687 55.44484 41.23086
# Shear Modulus (GPa) = -9.53230 13.22480 1.84625
#
# Velocity S-wave (km/s) = -1.98642 2.33973 0.87421
# Velocity P-wave (km/s) = 2.43359 5.50002 4.25280
#
# Compressibility (1/GPa) = 0.03701391
#
# Stress axis : x y z
#
# Youngs Moduli (GPa) = 148.07553 35.88085 166.99601
#
# Poissons Ratio (x) = -0.08392 0.33791
# Poissons Ratio (y) = -0.34631 0.35304
# Poissons Ratio (z) = 0.29962 0.07585
#
# Static dielectric constant tensor:
#      x y z
#    x 1.873390 0.000000 0.000000 
#    y 0.000000 1.929170 0.000000 
#    z 0.000000 0.000000 1.943370 
# 
# From -- ./inp_files/24896.got.cif
#   From: 2010.05.17/outbox.cif.g08.bks.cpg/sg46_13_cif.got.tgz:24896.got - 2010.06.03 19:58:25.
