data_PCOD9378588
_publ_section_title
;
Structure prediction by ZEFSAII (Michael W. Deem and Ramdas Pophale) SiO2 
 PCOD9378588
Probable space group: I M A 2
;
_chemical_formula_sum "Si O2"
_cell_formula_units_Z 32
_cell_length_a 13.992693
_cell_length_b 21.020139
_cell_length_c 5.199499
_cell_angle_alpha 90.000000
_cell_angle_beta 90.000000
_cell_angle_gamma 90.000000
_cell_volume 1529.320071
_symmetry_space_group_name_H-M "I M A 2"
_symmetry_group_IT_number 46
_symmetry_cell_setting 'orthorhombic'
loop_
_space_group_symop_operation_xyz
x,y,z
-x,-y,z
1/2-x,y,z
1/2+x,-y,z
1/2+x,1/2+y,1/2+z
1/2-x,1/2-y,1/2+z
-x,1/2+y,1/2+z
x,1/2-y,1/2+z
loop_
_atom_site_type_symbol
_atom_site_label
_atom_site_fract_x
_atom_site_fract_y
_atom_site_fract_z
Si Si1 0.134684 0.285278 0.002680
Si Si2 0.025592 0.574536 0.685750
Si Si3 0.361423 0.409733 0.314542
Si Si4 0.861992 0.057989 0.684262
O O1 0.250000 0.278692 0.987350
O O2 0.098064 0.239504 0.230833
O O3 0.118538 0.356621 0.101027
O O4 0.074270 0.588196 0.958568
O O5 0.000000 0.500000 0.700871
O O6 0.929354 0.601954 0.557935
O O7 0.104223 0.582891 0.460813
O O8 0.250000 0.404736 0.391081
O O9 0.376929 0.480869 0.203322
O O10 0.750000 0.068083 0.637683
#
# Coordination Sequence:
#
# PCOD9378588 Si02
#       4
#     8   8   8   8
#     4   9  18  31  47  69  98 132 170 205 236 284
#     4  10  19  32  47  70  97 127 167 203 237 294
#     4   9  19  34  52  74 105 142 168 198 251 301
#     4  10  20  33  49  69  97 131 166 204 246 291
#
# _framework density 20.924332
#
# number of rings (size 3 to 8) (size 9 to 14) (size 15 to 20)
#    0.000    2.500    0.000    3.000    0.000    7.000 
#    0.000   16.250    0.000    0.000    0.000    0.000 
#    0.000   20.000    0.000    0.000    0.000    0.000 
#
# Total GULP energy -89332.781923 kJ/mol
# GULP energy per Si atom -5583.298870 kJ/mol
# Density = 2.087671 g / cm^3
# Si number density = 20.924332 Si / 1000 Ang^3
#
#
#
# Elastic Constant Matrix: (Units=GPa)
#
#
# Indices 1 2 3 4 5 6 
#
# 1 126.8470 17.2063 51.2797 0.0000 0.0000 0.0000
# 2 17.2063 41.6496 11.3056 0.0000 0.0000 0.0000
# 3 51.2797 11.3056 119.0131 0.0000 0.0000 0.0000
# 4 0.0000 0.0000 0.0000 20.1855 0.0000 0.0000
# 5 0.0000 0.0000 0.0000 0.0000 17.6517 0.0000
# 6 0.0000 0.0000 0.0000 0.0000 0.0000 11.3695
#
#
#
# Elastic Compliance Matrix: (Units=1/GPa)
#
#
# Indices 1 2 3 4 5 6 
#
# 1 0.009901 -0.003010 -0.003980 0.000000 0.000000 0.000000
# 2 -0.003010 0.025560 -0.001131 0.000000 0.000000 0.000000
# 3 -0.003980 -0.001131 0.010225 0.000000 0.000000 0.000000
# 4 0.000000 0.000000 0.000000 0.049541 0.000000 0.000000
# 5 0.000000 0.000000 0.000000 0.000000 0.056652 0.000000
# 6 0.000000 0.000000 0.000000 0.000000 0.000000 0.087955
#
#
# Mechanical properties :
#
#
# Convention : Reuss Voigt Hill
#
# Bulk Modulus (GPa) = 33.96320 49.67700 41.82010
# Shear Modulus (GPa) = 18.80476 23.68920 21.24698
#
# Velocity S-wave (km/s) = 3.00109 3.36837 3.19002
# Velocity P-wave (km/s) = 5.31746 6.23865 5.79638
#
# Compressibility (1/GPa) = 0.02944363
#
# Stress axis : x y z
#
# Youngs Moduli (GPa) = 101.00196 39.12312 97.80132
#
# Poissons Ratio (x) = 0.11775 0.38926
# Poissons Ratio (y) = 0.30400 0.11063
# Poissons Ratio (z) = 0.40200 0.04426
#
# Static dielectric constant tensor:
#      x y z
#    x 1.779880 0.000000 0.000000 
#    y 0.000000 1.796990 0.000000 
#    z 0.000000 0.000000 1.794000 
# 
# From -- ./inp_files/1070.got.cif
#   From: 2010.05.17/outbox.cif.g08.bks.cpg/sg46_1_cif.got.tgz:1070.got - 2010.06.03 19:58:25.
