data_PCOD9378689
_publ_section_title
;
Structure prediction by ZEFSAII (Michael W. Deem and Ramdas Pophale) SiO2 
 PCOD9378689
Probable space group: I M A 2
;
_chemical_formula_sum "Si O2"
_cell_formula_units_Z 64
_cell_length_a 9.430127
_cell_length_b 16.547228
_cell_length_c 22.139810
_cell_angle_alpha 90.000000
_cell_angle_beta 90.000000
_cell_angle_gamma 90.000000
_cell_volume 3454.750450
_symmetry_space_group_name_H-M "I M A 2"
_symmetry_group_IT_number 46
_symmetry_cell_setting 'orthorhombic'
loop_
_space_group_symop_operation_xyz
x,y,z
-x,-y,z
1/2-x,y,z
1/2+x,-y,z
1/2+x,1/2+y,1/2+z
1/2-x,1/2-y,1/2+z
-x,1/2+y,1/2+z
x,1/2-y,1/2+z
loop_
_atom_site_type_symbol
_atom_site_label
_atom_site_fract_x
_atom_site_fract_y
_atom_site_fract_z
Si Si1 0.416647 0.579674 0.172150
Si Si2 0.084827 0.918870 0.213637
Si Si3 0.413825 0.577460 0.901004
Si Si4 0.086414 0.216721 0.004862
Si Si5 0.086177 0.578443 0.568236
Si Si6 0.089319 0.629929 0.035729
Si Si7 0.578674 0.235783 0.752056
Si Si8 0.583022 0.760316 0.368641
O O1 0.500000 0.500000 0.193199
O O2 0.250000 0.567837 0.184282
O O3 0.433901 0.587685 0.099680
O O4 0.455999 0.665830 0.203061
O O5 0.250000 0.929220 0.230328
O O6 0.076423 0.914814 0.140776
O O7 0.038978 0.829038 0.235277
O O8 0.000000 0.000000 0.232497
O O9 0.500000 0.500000 0.879857
O O10 0.250000 0.578865 0.881068
O O11 0.497144 0.656571 0.879459
O O12 0.412097 0.578035 0.974415
O O13 0.250000 0.204352 0.021286
O O14 0.986068 0.153883 0.037237
O O15 0.030898 0.303807 0.025744
O O16 0.073316 0.213896 0.932348
O O17 0.250000 0.571673 0.551917
O O18 0.000000 0.500000 0.549242
O O19 0.250000 0.666322 0.038489
O O20 0.750000 0.235249 0.759836
O O21 0.494714 0.217046 0.813371
O O22 0.750000 0.775065 0.356645
#
# Coordination Sequence:
#
# PCOD9378689 Si02
#       8
#     8   8   8   8   8   8   8   8
#     4  10  21  37  57  82 111 143 182 227 275 326
#     4   9  19  35  56  83 113 143 176 216 264 323
#     4  10  19  32  53  80 110 142 174 210 259 318
#     4  10  20  34  53  78 106 137 176 220 266 318
#     4  10  19  33  54  80 110 139 170 212 265 323
#     4   9  18  33  54  80 110 142 172 209 264 325
#     4  10  21  38  57  77 107 147 186 225 272 323
#     4  10  22  38  54  74 102 137 181 227 266 312
#
# _framework density 18.525217999999999
#
# number of rings (size 3 to 8) (size 9 to 14) (size 15 to 20)
#    0.000    2.250    0.000    2.625    0.000    6.500 
#    0.000    3.125    0.000    1.500    0.000    0.000 
#    0.000    0.000    0.000    0.000    0.000    0.000 
#
# Total GULP energy -178479.384892 kJ/mol
# GULP energy per Si atom -5577.480778 kJ/mol
# Density = 1.848305 g / cm^3
# Si number density = 18.525218 Si / 1000 Ang^3
#
#
#
# Elastic Constant Matrix: (Units=GPa)
#
#
# Indices 1 2 3 4 5 6 
#
# 1 99.4415 43.3800 43.1458 0.0000 0.0000 0.0000
# 2 43.3800 77.6165 31.8230 0.0000 0.0000 0.0000
# 3 43.1458 31.8230 65.8742 0.0000 0.0000 0.0000
# 4 0.0000 0.0000 0.0000 1.7782 0.0000 0.0000
# 5 0.0000 0.0000 0.0000 0.0000 19.3189 0.0000
# 6 0.0000 0.0000 0.0000 0.0000 0.0000 35.9948
#
#
#
# Elastic Compliance Matrix: (Units=1/GPa)
#
#
# Indices 1 2 3 4 5 6 
#
# 1 0.015867 -0.005745 -0.007617 0.000000 0.000000 0.000000
# 2 -0.005745 0.018146 -0.005003 0.000000 0.000000 0.000000
# 3 -0.007617 -0.005003 0.022587 0.000000 0.000000 0.000000
# 4 0.000000 0.000000 0.000000 0.562378 0.000000 0.000000
# 5 0.000000 0.000000 0.000000 0.000000 0.051763 0.000000
# 6 0.000000 0.000000 0.000000 0.000000 0.000000 0.027782
#
#
# Mechanical properties :
#
#
# Convention : Reuss Voigt Hill
#
# Bulk Modulus (GPa) = 50.33039 53.29219 51.81129
# Shear Modulus (GPa) = 6.73966 19.72391 13.23179
#
# Velocity S-wave (km/s) = 1.90945 3.26652 2.67546
# Velocity P-wave (km/s) = 5.66471 6.56176 6.12967
#
# Compressibility (1/GPa) = 0.01986871
#
# Stress axis : x y z
#
# Youngs Moduli (GPa) = 63.02210 55.10795 44.27403
#
# Poissons Ratio (x) = 0.31661 0.33725
# Poissons Ratio (y) = 0.36208 0.22151
# Poissons Ratio (z) = 0.48006 0.27572
#
# Static dielectric constant tensor:
#      x y z
#    x 1.622620 0.000000 0.000000 
#    y 0.000000 1.660600 0.000000 
#    z 0.000000 0.000000 1.649890 
# 
# From -- ./inp_files/21324.got.cif
#   From: 2010.05.17/outbox.cif.g08.bks.cpg/sg46_11_cif.got.tgz:21324.got - 2010.06.03 19:58:25.
