data_PCOD9378130
_publ_section_title
;
Structure prediction by ZEFSAII (Michael W. Deem and Ramdas Pophale) SiO2 
 PCOD9378130
Probable space group: I M A 2
;
_chemical_formula_sum "Si O2"
_cell_formula_units_Z 64
_cell_length_a 7.705744
_cell_length_b 20.289545
_cell_length_c 21.471897
_cell_angle_alpha 90.000000
_cell_angle_beta 90.000000
_cell_angle_gamma 90.000000
_cell_volume 3357.046060
_symmetry_space_group_name_H-M "I M A 2"
_symmetry_group_IT_number 46
_symmetry_cell_setting 'orthorhombic'
loop_
_space_group_symop_operation_xyz
x,y,z
-x,-y,z
1/2-x,y,z
1/2+x,-y,z
1/2+x,1/2+y,1/2+z
1/2-x,1/2-y,1/2+z
-x,1/2+y,1/2+z
x,1/2-y,1/2+z
loop_
_atom_site_type_symbol
_atom_site_label
_atom_site_fract_x
_atom_site_fract_y
_atom_site_fract_z
Si Si1 0.949920 0.213934 0.959150
Si Si2 0.537247 0.288176 0.837647
Si Si3 0.458059 0.572338 0.651163
Si Si4 0.052087 0.074453 0.917676
Si Si5 0.957232 0.427072 0.273033
Si Si6 0.536429 0.209999 0.095862
Si Si7 0.538401 0.207409 0.714890
Si Si8 0.042027 0.572306 0.794158
O O1 0.750000 0.235773 0.961922
O O2 0.026704 0.250239 0.898873
O O3 0.951173 0.135394 0.947156
O O4 0.026298 0.227711 0.026969
O O5 0.750000 0.285721 0.838010
O O6 0.484734 0.250901 0.774442
O O7 0.481811 0.364111 0.832164
O O8 0.500000 0.500000 0.625446
O O9 0.250000 0.577123 0.654090
O O10 0.519510 0.635794 0.613552
O O11 0.524438 0.575640 0.722662
O O12 0.250000 0.084319 0.935326
O O13 0.033297 0.079176 0.842621
O O14 0.000000 0.000000 0.934928
O O15 0.750000 0.421875 0.280858
O O16 0.015978 0.367334 0.229356
O O17 0.000000 0.500000 0.249336
O O18 0.750000 0.209875 0.094959
O O19 0.481209 0.259184 0.150787
O O20 0.750000 0.208272 0.713631
O O21 0.250000 0.577257 0.790664
O O22 0.000000 0.500000 0.819431
#
# Coordination Sequence:
#
# PCOD9378130 Si02
#       8
#     8   8   8   8   8   8   8   8
#     4  10  19  32  50  73  97 125 165 207 244 288
#     4   9  15  27  48  70  93 123 159 197 238 282
#     4   9  16  27  43  64  90 119 149 183 222 272
#     4  11  21  33  49  70 100 134 167 200 243 294
#     4  10  18  30  51  75 100 126 161 205 250 291
#     4   9  17  29  47  71  96 124 159 198 237 282
#     4   9  15  27  49  73  95 123 159 199 241 286
#     4   9  16  27  46  68  92 120 151 190 234 276
#
# _framework density 19.064378999999999
#
# number of rings (size 3 to 8) (size 9 to 14) (size 15 to 20)
#    0.000    2.500    2.500    2.250    0.000    0.500 
#    0.000    2.500    0.000    3.750    0.000    0.000 
#    0.000    0.000    0.000    0.000    0.000    0.000 
#
# Total GULP energy -178499.059354 kJ/mol
# GULP energy per Si atom -5578.095605 kJ/mol
# Density = 1.902099 g / cm^3
# Si number density = 19.064379 Si / 1000 Ang^3
#
#
#
# Elastic Constant Matrix: (Units=GPa)
#
#
# Indices 1 2 3 4 5 6 
#
# 1 33.3809 -6.0214 -1.5191 0.0000 0.0000 0.0000
# 2 -6.0214 135.4480 75.8005 0.0000 0.0000 0.0000
# 3 -1.5191 75.8005 128.9470 0.0000 0.0000 0.0000
# 4 0.0000 0.0000 0.0000 17.6055 0.0000 0.0000
# 5 0.0000 0.0000 0.0000 0.0000 3.0555 0.0000
# 6 0.0000 0.0000 0.0000 0.0000 0.0000 19.3226
#
#
#
# Elastic Compliance Matrix: (Units=1/GPa)
#
#
# Indices 1 2 3 4 5 6 
#
# 1 0.030236 0.001706 -0.000647 0.000000 0.000000 0.000000
# 2 0.001706 0.011099 -0.006504 0.000000 0.000000 0.000000
# 3 -0.000647 -0.006504 0.011571 0.000000 0.000000 0.000000
# 4 0.000000 0.000000 0.000000 0.056800 0.000000 0.000000
# 5 0.000000 0.000000 0.000000 0.000000 0.327274 0.000000
# 6 0.000000 0.000000 0.000000 0.000000 0.000000 0.051753
#
#
# Mechanical properties :
#
#
# Convention : Reuss Voigt Hill
#
# Bulk Modulus (GPa) = 23.80072 48.25509 36.02791
# Shear Modulus (GPa) = 9.73469 23.29779 16.51624
#
# Velocity S-wave (km/s) = 2.26215 3.49959 2.94656
# Velocity P-wave (km/s) = 4.39711 6.45725 5.52407
#
# Compressibility (1/GPa) = 0.04201553
#
# Stress axis : x y z
#
# Youngs Moduli (GPa) = 33.07366 90.10095 86.42347
#
# Poissons Ratio (x) = -0.15372 0.05589
# Poissons Ratio (y) = -0.05642 0.56211
# Poissons Ratio (z) = 0.02139 0.58603
#
# Static dielectric constant tensor:
#      x y z
#    x 1.708940 0.000000 0.000000 
#    y 0.000000 1.676860 0.000000 
#    z 0.000000 0.000000 1.654260 
# 
# From -- ./inp_files/21451.got.cif
#   From: 2010.05.17/outbox.cif.g08.bks.cpg/sg46_11_cif.got.tgz:21451.got - 2010.06.03 19:58:25.
