data_PCOD9378142
_publ_section_title
;
Structure prediction by ZEFSAII (Michael W. Deem and Ramdas Pophale) SiO2 
 PCOD9378142
Probable space group: I M A 2
;
_chemical_formula_sum "Si O2"
_cell_formula_units_Z 56
_cell_length_a 8.915560
_cell_length_b 14.383739
_cell_length_c 23.041260
_cell_angle_alpha 90.000000
_cell_angle_beta 90.000000
_cell_angle_gamma 90.000000
_cell_volume 2954.790171
_symmetry_space_group_name_H-M "I M A 2"
_symmetry_group_IT_number 46
_symmetry_cell_setting 'orthorhombic'
loop_
_space_group_symop_operation_xyz
x,y,z
-x,-y,z
1/2-x,y,z
1/2+x,-y,z
1/2+x,1/2+y,1/2+z
1/2-x,1/2-y,1/2+z
-x,1/2+y,1/2+z
x,1/2-y,1/2+z
loop_
_atom_site_type_symbol
_atom_site_label
_atom_site_fract_x
_atom_site_fract_y
_atom_site_fract_z
Si Si1 0.926046 0.299949 0.908550
Si Si2 0.574893 0.852426 0.746640
Si Si3 0.923020 0.406612 0.657050
Si Si4 0.571587 0.602023 0.016145
Si Si5 0.928269 0.091432 0.865167
Si Si6 0.569023 0.195644 0.629182
Si Si7 0.422832 0.668228 0.779864
O O1 0.750000 0.306217 0.925192
O O2 0.959815 0.191249 0.895040
O O3 0.943442 0.354671 0.847223
O O4 0.027523 0.341788 0.958374
O O5 0.750000 0.874773 0.743080
O O6 0.495734 0.902328 0.800394
O O7 0.494017 0.860733 0.684683
O O8 0.545353 0.744954 0.763794
O O9 0.750000 0.411046 0.640258
O O10 0.977315 0.304657 0.636540
O O11 0.930136 0.404096 0.727619
O O12 0.000000 0.500000 0.635457
O O13 0.500000 0.500000 0.012051
O O14 0.750000 0.595687 0.022830
O O15 0.498747 0.653808 0.071060
O O16 0.750000 0.081275 0.862379
O O17 0.000000 0.000000 0.893796
O O18 0.750000 0.191945 0.629513
O O19 0.250000 0.708360 0.776308
#
# Coordination Sequence:
#
# PCOD9378142 Si02
#       7
#     8   8   8   8   8   8   8
#     4   9  19  38  60  82 114 152 189 233 281 328
#     4  10  18  30  52  82 113 146 185 227 275 329
#     4   9  18  32  54  84 117 150 183 224 273 328
#     4  12  26  43  63  85 108 140 186 236 286 341
#     4  10  20  35  57  86 120 155 190 230 279 335
#     4  10  21  40  60  80 112 151 191 237 287 334
#     4   8  16  32  52  77 111 150 186 223 271 321
#
# _framework density 18.952276000000001
#
# number of rings (size 3 to 8) (size 9 to 14) (size 15 to 20)
#    0.000    2.286    0.000    5.143    0.000    6.857 
#    0.000    5.000    0.000    0.000    0.000    0.000 
#    0.000    0.000    0.000    0.000    0.000    0.000 
#
# Total GULP energy -156097.425086 kJ/mol
# GULP energy per Si atom -5574.908039 kJ/mol
# Density = 1.890914 g / cm^3
# Si number density = 18.952276 Si / 1000 Ang^3
#
#
#
# Elastic Constant Matrix: (Units=GPa)
#
#
# Indices 1 2 3 4 5 6 
#
# 1 96.1120 54.8350 55.1822 0.0000 0.0000 0.0000
# 2 54.8350 102.4123 39.6769 0.0000 0.0000 0.0000
# 3 55.1822 39.6769 99.8396 0.0000 0.0000 0.0000
# 4 0.0000 0.0000 0.0000 11.9762 0.0000 0.0000
# 5 0.0000 0.0000 0.0000 0.0000 28.9681 0.0000
# 6 0.0000 0.0000 0.0000 0.0000 0.0000 28.8155
#
#
#
# Elastic Compliance Matrix: (Units=1/GPa)
#
#
# Indices 1 2 3 4 5 6 
#
# 1 0.018827 -0.007150 -0.007564 0.000000 0.000000 0.000000
# 2 -0.007150 0.014257 -0.001714 0.000000 0.000000 0.000000
# 3 -0.007564 -0.001714 0.014878 0.000000 0.000000 0.000000
# 4 0.000000 0.000000 0.000000 0.083499 0.000000 0.000000
# 5 0.000000 0.000000 0.000000 0.000000 0.034521 0.000000
# 6 0.000000 0.000000 0.000000 0.000000 0.000000 0.034704
#
#
# Mechanical properties :
#
#
# Convention : Reuss Voigt Hill
#
# Bulk Modulus (GPa) = 66.20179 66.41692 66.30935
# Shear Modulus (GPa) = 20.95767 23.86329 22.41048
#
# Velocity S-wave (km/s) = 3.32898 3.55227 3.44244
# Velocity P-wave (km/s) = 7.05569 7.20730 7.13190
#
# Compressibility (1/GPa) = 0.01510533
#
# Stress axis : x y z
#
# Youngs Moduli (GPa) = 53.11586 70.14220 67.21310
#
# Poissons Ratio (x) = 0.50151 0.50842
# Poissons Ratio (y) = 0.37977 0.11520
# Poissons Ratio (z) = 0.40178 0.12022
#
# Static dielectric constant tensor:
#      x y z
#    x 1.642250 0.000000 0.000000 
#    y 0.000000 1.695510 0.000000 
#    z 0.000000 0.000000 1.657990 
# 
# From -- ./inp_files/21070.got.cif
#   From: 2010.05.17/outbox.cif.g08.bks.cpg/sg46_11_cif.got.tgz:21070.got - 2010.06.03 19:58:25.
