data_PCOD9378732
_publ_section_title
;
Structure prediction by ZEFSAII (Michael W. Deem and Ramdas Pophale) SiO2 
 PCOD9378732
Probable space group: I M A 2
;
_chemical_formula_sum "Si O2"
_cell_formula_units_Z 64
_cell_length_a 24.221373
_cell_length_b 27.138650
_cell_length_c 5.412940
_cell_angle_alpha 90.000000
_cell_angle_beta 90.000000
_cell_angle_gamma 90.000000
_cell_volume 3558.116887
_symmetry_space_group_name_H-M "I M A 2"
_symmetry_group_IT_number 46
_symmetry_cell_setting 'orthorhombic'
loop_
_space_group_symop_operation_xyz
x,y,z
-x,-y,z
1/2-x,y,z
1/2+x,-y,z
1/2+x,1/2+y,1/2+z
1/2-x,1/2-y,1/2+z
-x,1/2+y,1/2+z
x,1/2-y,1/2+z
loop_
_atom_site_type_symbol
_atom_site_label
_atom_site_fract_x
_atom_site_fract_y
_atom_site_fract_z
Si Si1 0.629347 0.071109 0.809220
Si Si2 0.983160 0.549283 0.694258
Si Si3 0.091992 0.267956 0.326243
Si Si4 0.685038 0.049223 0.316910
Si Si5 0.113409 0.472093 0.060303
Si Si6 0.037425 0.621393 0.015494
Si Si7 0.924219 0.881399 0.807369
Si Si8 0.035505 0.728322 0.800803
O O1 0.671030 0.077256 0.574548
O O2 0.578649 0.106382 0.734957
O O3 0.610981 0.013981 0.770961
O O4 0.656527 0.073806 0.077596
O O5 0.948927 0.587941 0.535039
O O6 0.000000 0.500000 0.551076
O O7 0.943937 0.530440 0.913819
O O8 0.034783 0.577580 0.815401
O O9 0.118309 0.241225 0.559820
O O10 0.091448 0.326171 0.377771
O O11 0.030031 0.243637 0.293178
O O12 0.750000 0.045945 0.276815
O O13 0.658665 0.995054 0.373911
O O14 0.119692 0.417774 0.176398
O O15 0.975950 0.625529 0.123721
O O16 0.046886 0.672737 0.880579
O O17 0.057743 0.739248 0.528587
#
# Coordination Sequence:
#
# PCOD9378732 Si02
#       8
#     8   8   8   8   8   8   8   8
#     4  10  22  36  53  83 103 138 183 219 274 343
#     4  11  20  31  45  71 112 151 180 211 263 315
#     4  10  19  35  46  68  96 144 194 220 252 300
#     4  10  21  40  59  74 106 140 177 237 285 324
#     4   9  22  34  46  81 103 142 178 217 259 336
#     4  11  22  31  50  74 110 151 180 229 260 316
#     4  11  22  29  53  71 111 157 183 219 260 313
#     4  10  19  33  48  68  97 143 187 222 258 303
#
# _framework density 17.987041999999999
#
# number of rings (size 3 to 8) (size 9 to 14) (size 15 to 20)
#    0.750    1.000    3.750    2.625    7.000    0.000 
#    0.000    0.000    0.000    0.000    0.000    0.000 
#    0.000   11.000    0.000    0.000    0.000    0.000 
#
# Total GULP energy -178192.992655 kJ/mol
# GULP energy per Si atom -5568.531020 kJ/mol
# Density = 1.794610 g / cm^3
# Si number density = 17.987042 Si / 1000 Ang^3
#
#
#
# Elastic Constant Matrix: (Units=GPa)
#
#
# Indices 1 2 3 4 5 6 
#
# 1 11.0206 -10.8271 6.1945 0.0000 0.0000 0.0000
# 2 -10.8271 58.6255 -13.3460 0.0000 0.0000 0.0000
# 3 6.1945 -13.3460 82.7891 0.0000 0.0000 0.0000
# 4 0.0000 0.0000 0.0000 25.6629 0.0000 0.0000
# 5 0.0000 0.0000 0.0000 0.0000 14.8638 0.0000
# 6 0.0000 0.0000 0.0000 0.0000 0.0000 2.6052
#
#
#
# Elastic Compliance Matrix: (Units=1/GPa)
#
#
# Indices 1 2 3 4 5 6 
#
# 1 0.113037 0.019672 -0.005286 0.000000 0.000000 0.000000
# 2 0.019672 0.021131 0.001934 0.000000 0.000000 0.000000
# 3 -0.005286 0.001934 0.012786 0.000000 0.000000 0.000000
# 4 0.000000 0.000000 0.000000 0.038967 0.000000 0.000000
# 5 0.000000 0.000000 0.000000 0.000000 0.067277 0.000000
# 6 0.000000 0.000000 0.000000 0.000000 0.000000 0.383846
#
#
# Mechanical properties :
#
#
# Convention : Reuss Voigt Hill
#
# Bulk Modulus (GPa) = 5.56807 12.94201 9.25504
# Shear Modulus (GPa) = 7.52708 19.98730 13.75719
#
# Velocity S-wave (km/s) = 2.04788 3.33709 2.76857
# Velocity P-wave (km/s) = 2.94857 4.69671 3.92130
#
# Compressibility (1/GPa) = 0.17959539
#
# Stress axis : x y z
#
# Youngs Moduli (GPa) = 8.84665 47.32395 78.20891
#
# Poissons Ratio (x) = -0.93098 0.41344
# Poissons Ratio (y) = -0.17404 -0.15129
# Poissons Ratio (z) = 0.04677 -0.09155
#
# Static dielectric constant tensor:
#      x y z
#    x 1.613260 0.000000 0.000000 
#    y 0.000000 1.664130 0.000000 
#    z 0.000000 0.000000 1.711140 
# 
# From -- ./inp_files/2454.got.cif
#   From: 2010.05.17/outbox.cif.g08.bks.cpg/sg46_2_cif.got.tgz:2454.got - 2010.06.03 19:58:25.
