data_PCOD9378949
_publ_section_title
;
Structure prediction by ZEFSAII (Michael W. Deem and Ramdas Pophale) SiO2 
 PCOD9378949
Probable space group: I M A 2
;
_chemical_formula_sum "Si O2"
_cell_formula_units_Z 40
_cell_length_a 8.515938
_cell_length_b 9.283767
_cell_length_c 27.071132
_cell_angle_alpha 90.000000
_cell_angle_beta 90.000000
_cell_angle_gamma 90.000000
_cell_volume 2140.243268
_symmetry_space_group_name_H-M "I M A 2"
_symmetry_group_IT_number 46
_symmetry_cell_setting 'orthorhombic'
loop_
_space_group_symop_operation_xyz
x,y,z
-x,-y,z
1/2-x,y,z
1/2+x,-y,z
1/2+x,1/2+y,1/2+z
1/2-x,1/2-y,1/2+z
-x,1/2+y,1/2+z
x,1/2-y,1/2+z
loop_
_atom_site_type_symbol
_atom_site_label
_atom_site_fract_x
_atom_site_fract_y
_atom_site_fract_z
Si Si1 0.439963 0.336114 0.977350
Si Si2 0.938690 0.662139 0.573777
Si Si3 0.439161 0.336143 0.869683
Si Si4 0.937094 0.337828 0.167712
Si Si5 0.439243 0.164501 0.261484
O O1 0.500000 0.500000 0.982458
O O2 0.250000 0.340634 0.978114
O O3 0.489922 0.276745 0.923167
O O4 0.492654 0.240027 0.023279
O O5 0.750000 0.661193 0.574447
O O6 0.000000 0.500000 0.576000
O O7 0.998550 0.750994 0.620699
O O8 0.500000 0.500000 0.869845
O O9 0.250000 0.336799 0.869586
O O10 0.487842 0.277122 0.816065
O O11 0.750000 0.338787 0.166044
O O12 0.000000 0.500000 0.166451
O O13 0.993547 0.258864 0.217383
O O14 0.250000 0.162883 0.258649
O O15 0.500000 0.000000 0.257146
#
# Coordination Sequence:
#
# PCOD9378949 Si02
#       5
#     8   8   8   8   8
#     4   9  18  33  55  82 111 143 180 222 267 317
#     4  11  23  39  58  81 110 144 183 225 272 324
#     4   8  15  29  51  79 110 143 179 219 262 313
#     4  12  25  41  59  80 108 141 181 226 275 328
#     4  10  19  34  57  84 114 147 184 224 268 318
#
# _framework density 18.689463
#
# number of rings (size 3 to 8) (size 9 to 14) (size 15 to 20)
#    0.000    2.000    0.000    4.200    0.000    4.000 
#    0.000    1.000    0.000    2.400    0.000    0.000 
#    0.000    0.000    0.000    0.000    0.000    0.000 
#
# Total GULP energy -111587.583605 kJ/mol
# GULP energy per Si atom -5579.379180 kJ/mol
# Density = 1.864693 g / cm^3
# Si number density = 18.689463 Si / 1000 Ang^3
#
#
#
# Elastic Constant Matrix: (Units=GPa)
#
#
# Indices 1 2 3 4 5 6 
#
# 1 65.1629 32.1799 50.8951 0.0000 0.0000 0.0000
# 2 32.1799 114.3694 103.0297 0.0000 0.0000 0.0000
# 3 50.8951 103.0297 243.0568 0.0000 0.0000 0.0000
# 4 0.0000 0.0000 0.0000 33.2508 0.0000 0.0000
# 5 0.0000 0.0000 0.0000 0.0000 45.3791 0.0000
# 6 0.0000 0.0000 0.0000 0.0000 0.0000 28.8736
#
#
#
# Elastic Compliance Matrix: (Units=1/GPa)
#
#
# Indices 1 2 3 4 5 6 
#
# 1 0.018898 -0.002835 -0.002755 0.000000 0.000000 0.000000
# 2 -0.002835 0.014570 -0.005583 0.000000 0.000000 0.000000
# 3 -0.002755 -0.005583 0.007058 0.000000 0.000000 0.000000
# 4 0.000000 0.000000 0.000000 0.030074 0.000000 0.000000
# 5 0.000000 0.000000 0.000000 0.000000 0.022037 0.000000
# 6 0.000000 0.000000 0.000000 0.000000 0.000000 0.034634
#
#
# Mechanical properties :
#
#
# Convention : Reuss Voigt Hill
#
# Bulk Modulus (GPa) = 55.00532 88.31095 71.65814
# Shear Modulus (GPa) = 32.11765 37.26632 34.69199
#
# Velocity S-wave (km/s) = 4.14996 4.47024 4.31308
# Velocity P-wave (km/s) = 7.24279 8.60223 7.95162
#
# Compressibility (1/GPa) = 0.01818006
#
# Stress axis : x y z
#
# Youngs Moduli (GPa) = 52.91454 68.63224 141.68996
#
# Poissons Ratio (x) = 0.19458 0.39042
# Poissons Ratio (y) = 0.15002 0.79100
# Poissons Ratio (z) = 0.14580 0.38315
#
# Static dielectric constant tensor:
#      x y z
#    x 1.626230 0.000000 0.000000 
#    y 0.000000 1.590080 0.000000 
#    z 0.000000 0.000000 1.695090 
# 
# From -- ./inp_files/22729.got.cif
#   From: 2010.05.17/outbox.cif.g08.bks.cpg/sg46_12_cif.got.tgz:22729.got - 2010.06.03 19:58:25.
