data_PCOD9378632
_publ_section_title
;
Structure prediction by ZEFSAII (Michael W. Deem and Ramdas Pophale) SiO2 
 PCOD9378632
Probable space group: I M A 2
;
_chemical_formula_sum "Si O2"
_cell_formula_units_Z 64
_cell_length_a 8.470716
_cell_length_b 28.368552
_cell_length_c 15.239308
_cell_angle_alpha 90.000000
_cell_angle_beta 90.000000
_cell_angle_gamma 90.000000
_cell_volume 3662.035388
_symmetry_space_group_name_H-M "I M A 2"
_symmetry_group_IT_number 46
_symmetry_cell_setting 'orthorhombic'
loop_
_space_group_symop_operation_xyz
x,y,z
-x,-y,z
1/2-x,y,z
1/2+x,-y,z
1/2+x,1/2+y,1/2+z
1/2-x,1/2-y,1/2+z
-x,1/2+y,1/2+z
x,1/2-y,1/2+z
loop_
_atom_site_type_symbol
_atom_site_label
_atom_site_fract_x
_atom_site_fract_y
_atom_site_fract_z
Si Si1 0.559501 0.782427 0.240510
Si Si2 0.941149 0.675485 0.431257
Si Si3 0.059686 0.134998 0.554181
Si Si4 0.937309 0.052734 0.235099
Si Si5 0.062704 0.781465 0.434067
Si Si6 0.060650 0.053020 0.426570
Si Si7 0.440684 0.366630 0.610940
Si Si8 0.058037 0.173842 0.734206
O O1 0.750000 0.783239 0.250097
O O2 0.485436 0.794449 0.334464
O O3 0.515377 0.820148 0.167042
O O4 0.514129 0.728626 0.217885
O O5 0.750000 0.676990 0.431144
O O6 0.991186 0.641892 0.510679
O O7 0.993950 0.661655 0.333051
O O8 0.999351 0.728580 0.448718
O O9 0.250000 0.132237 0.556612
O O10 0.002713 0.089529 0.500234
O O11 0.002043 0.141749 0.653943
O O12 0.013683 0.181468 0.500155
O O13 0.750000 0.051150 0.242379
O O14 0.006030 0.068450 0.329484
O O15 0.989160 0.088415 0.159581
O O16 0.000000 0.000000 0.218817
O O17 0.250000 0.782299 0.443281
O O18 0.250000 0.052343 0.426962
O O19 0.000000 0.000000 0.440717
O O20 0.250000 0.370334 0.612951
O O21 0.250000 0.172246 0.734219
#
# Coordination Sequence:
#
# PCOD9378632 Si02
#       8
#     8   8   8   8   8   8   8   8
#     4   9  17  30  48  69  97 131 164 198 238 289
#     4   9  18  34  53  70  95 132 169 203 238 283
#     4  10  19  32  51  72  95 128 168 202 238 291
#     4  11  22  36  54  75 102 130 158 197 244 295
#     4  11  21  30  44  70 103 133 163 202 245 287
#     4  10  20  34  53  75 100 128 159 198 244 296
#     4  10  19  32  53  77  98 127 167 205 244 292
#     4   8  15  30  51  72  93 125 169 205 231 271
#
# _framework density 17.476618999999999
#
# number of rings (size 3 to 8) (size 9 to 14) (size 15 to 20)
#    0.000    2.250    0.000    5.625    0.000    7.000 
#    0.000    5.000    0.000    0.750    0.000    1.750 
#    0.000    0.000    0.000    0.000    0.000    0.000 
#
# Total GULP energy -178585.774188 kJ/mol
# GULP energy per Si atom -5580.805443 kJ/mol
# Density = 1.743684 g / cm^3
# Si number density = 17.476619 Si / 1000 Ang^3
#
#
#
# Elastic Constant Matrix: (Units=GPa)
#
#
# Indices 1 2 3 4 5 6 
#
# 1 23.4148 17.1838 21.2746 0.0000 0.0000 0.0000
# 2 17.1838 77.3755 84.1913 0.0000 0.0000 0.0000
# 3 21.2746 84.1913 141.3490 -0.0001 0.0000 0.0000
# 4 0.0000 0.0000 -0.0001 31.7475 0.0000 0.0000
# 5 0.0000 0.0000 0.0000 0.0000 7.0917 0.0000
# 6 0.0000 0.0000 0.0000 0.0000 0.0000 19.5353
#
#
#
# Elastic Compliance Matrix: (Units=1/GPa)
#
#
# Indices 1 2 3 4 5 6 
#
# 1 0.051374 -0.008513 -0.002662 0.000000 0.000000 0.000000
# 2 -0.008513 0.038137 -0.021434 0.000000 0.000000 0.000000
# 3 -0.002662 -0.021434 0.020242 0.000000 0.000000 0.000000
# 4 0.000000 0.000000 0.000000 0.031499 0.000000 0.000000
# 5 0.000000 0.000000 0.000000 0.000000 0.141010 0.000000
# 6 0.000000 0.000000 0.000000 0.000000 0.000000 0.051189
#
#
# Mechanical properties :
#
#
# Convention : Reuss Voigt Hill
#
# Bulk Modulus (GPa) = 22.45421 54.15987 38.30704
# Shear Modulus (GPa) = 12.09153 19.64087 15.86620
#
# Velocity S-wave (km/s) = 2.63319 3.35600 3.01633
# Velocity P-wave (km/s) = 4.70329 6.78780 5.83931
#
# Compressibility (1/GPa) = 0.04453509
#
# Stress axis : x y z
#
# Youngs Moduli (GPa) = 19.46504 26.22160 49.40261
#
# Poissons Ratio (x) = 0.22323 0.13149
# Poissons Ratio (y) = 0.16571 1.05889
# Poissons Ratio (z) = 0.05181 0.56203
#
# Static dielectric constant tensor:
#      x y z
#    x 1.599490 0.000000 0.000000 
#    y 0.000000 1.572860 0.000000 
#    z 0.000000 0.000000 1.614640 
# 
# From -- ./inp_files/14476.got.cif
#   From: 2010.05.17/outbox.cif.g08.bks.cpg/sg46_8_cif.got.tgz:14476.got - 2010.06.03 19:58:25.
