data_PCOD9378533
_publ_section_title
;
Structure prediction by ZEFSAII (Michael W. Deem and Ramdas Pophale) SiO2 
 PCOD9378533
Probable space group: I M A 2
;
_chemical_formula_sum "Si O2"
_cell_formula_units_Z 64
_cell_length_a 8.683163
_cell_length_b 15.137348
_cell_length_c 28.110746
_cell_angle_alpha 90.000000
_cell_angle_beta 90.000000
_cell_angle_gamma 90.000000
_cell_volume 3694.878143
_symmetry_space_group_name_H-M "I M A 2"
_symmetry_group_IT_number 46
_symmetry_cell_setting 'orthorhombic'
loop_
_space_group_symop_operation_xyz
x,y,z
-x,-y,z
1/2-x,y,z
1/2+x,-y,z
1/2+x,1/2+y,1/2+z
1/2-x,1/2-y,1/2+z
-x,1/2+y,1/2+z
x,1/2-y,1/2+z
loop_
_atom_site_type_symbol
_atom_site_label
_atom_site_fract_x
_atom_site_fract_y
_atom_site_fract_z
Si Si1 0.064832 0.096401 0.733450
Si Si2 0.435231 0.904637 0.295589
Si Si3 0.066479 0.404974 0.344446
Si Si4 0.434983 0.772626 0.655067
Si Si5 0.064587 0.595498 0.072126
Si Si6 0.435967 0.904244 0.462701
Si Si7 0.433736 0.095620 0.190063
Si Si8 0.564484 0.272775 0.880282
O O1 0.250000 0.096945 0.729292
O O2 0.022266 0.110354 0.788883
O O3 0.992945 0.170830 0.700142
O O4 0.000000 0.000000 0.719619
O O5 0.250000 0.909275 0.292070
O O6 0.504472 0.886652 0.243602
O O7 0.477714 0.830561 0.333839
O O8 0.500000 0.000000 0.310990
O O9 0.250000 0.408192 0.346471
O O10 0.000000 0.500000 0.358572
O O11 0.004532 0.324015 0.375090
O O12 0.250000 0.766335 0.656416
O O13 0.482395 0.828161 0.608483
O O14 0.506794 0.675663 0.657982
O O15 0.250000 0.590524 0.073081
O O16 0.000000 0.500000 0.086796
O O17 0.016526 0.611895 0.017451
O O18 0.250000 0.908364 0.461246
O O19 0.485775 0.828117 0.426473
O O20 0.500000 0.000000 0.448291
O O21 0.250000 0.092327 0.190971
O O22 0.500000 0.000000 0.175977
O O23 0.750000 0.266282 0.881235
#
# Coordination Sequence:
#
# PCOD9378533 Si02
#       8
#     8   8   8   8   8   8   8   8
#     4  10  20  33  49  73 103 136 169 205 247 294
#     4  10  19  31  48  73 104 136 167 203 243 289
#     4  10  21  35  51  70  97 131 168 207 247 290
#     4  11  21  33  51  75 101 132 168 207 248 295
#     4   9  19  34  53  76 104 133 162 198 244 293
#     4   9  18  34  53  76 104 133 162 198 243 292
#     4  11  22  36  52  71  98 133 169 208 249 293
#     4  10  20  32  50  74 101 132 167 204 245 290
#
# _framework density 17.321275
#
# number of rings (size 3 to 8) (size 9 to 14) (size 15 to 20)
#    0.000    2.000    0.000    4.875    0.000    7.000 
#    0.000    0.000    0.000    0.750    0.000    0.000 
#    0.000    0.000    0.000    0.000    0.000    0.000 
#
# Total GULP energy -178722.201920 kJ/mol
# GULP energy per Si atom -5585.068810 kJ/mol
# Density = 1.728185 g / cm^3
# Si number density = 17.321275 Si / 1000 Ang^3
#
#
#
# Elastic Constant Matrix: (Units=GPa)
#
#
# Indices 1 2 3 4 5 6 
#
# 1 48.8929 45.2074 30.1294 0.0000 0.0000 0.0000
# 2 45.2074 169.7945 88.1042 0.0000 0.0000 0.0000
# 3 30.1294 88.1042 75.3309 0.0000 0.0000 0.0000
# 4 0.0000 0.0000 0.0000 29.1872 0.0000 0.0000
# 5 0.0000 0.0000 0.0000 0.0000 17.1565 0.0000
# 6 0.0000 0.0000 0.0000 0.0000 0.0000 34.5854
#
#
#
# Elastic Compliance Matrix: (Units=1/GPa)
#
#
# Indices 1 2 3 4 5 6 
#
# 1 0.028286 -0.004224 -0.006372 0.000000 0.000000 0.000000
# 2 -0.004224 0.015612 -0.016569 0.000000 0.000000 0.000000
# 3 -0.006372 -0.016569 0.035202 0.000000 0.000000 0.000000
# 4 0.000000 0.000000 0.000000 0.034262 0.000000 0.000000
# 5 0.000000 0.000000 0.000000 0.000000 0.058287 0.000000
# 6 0.000000 0.000000 0.000000 0.000000 0.000000 0.028914
#
#
# Mechanical properties :
#
#
# Convention : Reuss Voigt Hill
#
# Bulk Modulus (GPa) = 40.37557 68.98894 54.68225
# Shear Modulus (GPa) = 19.00047 24.89096 21.94572
#
# Velocity S-wave (km/s) = 3.31561 3.79491 3.56333
# Velocity P-wave (km/s) = 6.16588 7.68878 6.96905
#
# Compressibility (1/GPa) = 0.02476745
#
# Stress axis : x y z
#
# Youngs Moduli (GPa) = 35.35339 64.05376 28.40709
#
# Poissons Ratio (x) = 0.27059 0.18102
# Poissons Ratio (y) = 0.14935 0.47069
# Poissons Ratio (z) = 0.22529 1.06134
#
# Static dielectric constant tensor:
#      x y z
#    x 1.582040 0.000000 0.000000 
#    y 0.000000 1.574940 0.000000 
#    z 0.000000 0.000000 1.590110 
# 
# From -- ./inp_files/23235.got.cif
#   From: 2010.05.17/outbox.cif.g08.bks.cpg/sg46_12_cif.got.tgz:23235.got - 2010.06.03 19:58:25.
