data_PCOD9378962
_publ_section_title
;
Structure prediction by ZEFSAII (Michael W. Deem and Ramdas Pophale) SiO2 
 PCOD9378962
Probable space group: I M A 2
;
_chemical_formula_sum "Si O2"
_cell_formula_units_Z 64
_cell_length_a 9.116929
_cell_length_b 28.619453
_cell_length_c 12.878487
_cell_angle_alpha 90.000000
_cell_angle_beta 90.000000
_cell_angle_gamma 90.000000
_cell_volume 3360.274416
_symmetry_space_group_name_H-M "I M A 2"
_symmetry_group_IT_number 46
_symmetry_cell_setting 'orthorhombic'
loop_
_space_group_symop_operation_xyz
x,y,z
-x,-y,z
1/2-x,y,z
1/2+x,-y,z
1/2+x,1/2+y,1/2+z
1/2-x,1/2-y,1/2+z
-x,1/2+y,1/2+z
x,1/2-y,1/2+z
loop_
_atom_site_type_symbol
_atom_site_label
_atom_site_fract_x
_atom_site_fract_y
_atom_site_fract_z
Si Si1 0.425650 0.693860 0.187350
Si Si2 0.916292 0.679022 0.978381
Si Si3 0.083308 0.431427 0.026625
Si Si4 0.926506 0.379153 0.643122
Si Si5 0.575827 0.454740 0.815998
Si Si6 0.072871 0.706823 0.768264
Si Si7 0.074214 0.587064 0.235140
Si Si8 0.072510 0.949988 0.964841
O O1 0.250000 0.694130 0.174783
O O2 0.466468 0.738979 0.254280
O O3 0.463869 0.642632 0.232237
O O4 0.499443 0.700402 0.075859
O O5 0.750000 0.696272 0.970168
O O6 0.002085 0.687770 0.872834
O O7 0.911164 0.623995 0.004086
O O8 0.250000 0.449839 0.024738
O O9 0.008919 0.436859 0.138862
O O10 0.987657 0.449933 0.931412
O O11 0.750000 0.376971 0.631745
O O12 0.959189 0.410207 0.745034
O O13 0.974698 0.326656 0.672141
O O14 0.978132 0.408913 0.543826
O O15 0.500000 0.500000 0.767116
O O16 0.750000 0.460245 0.818649
O O17 0.250000 0.703498 0.775721
O O18 0.250000 0.583389 0.218979
O O19 0.038601 0.565117 0.346563
O O20 0.250000 0.954148 0.974192
O O21 0.000000 0.000000 0.987963
#
# Coordination Sequence:
#
# PCOD9378962 Si02
#       8
#     8   8   8   8   8   8   8   8
#     4   9  19  34  56  84 110 146 192 235 283 341
#     4  10  20  34  53  77 111 148 180 227 285 341
#     4  10  20  35  55  79 107 143 184 226 277 338
#     4   9  19  35  56  82 112 145 181 232 285 333
#     4  11  21  34  54  80 111 143 178 226 279 335
#     4  10  19  34  58  85 111 145 191 236 283 344
#     4   9  19  36  57  81 112 147 184 234 287 335
#     4  10  21  38  58  80 111 150 191 234 286 339
#
# _framework density 19.046063
#
# number of rings (size 3 to 8) (size 9 to 14) (size 15 to 20)
#    0.000    2.250    1.250    1.500    0.000    3.500 
#    0.000    6.250    0.000    1.500    0.000    0.000 
#    0.000    0.000    0.000    0.000    0.000    0.000 
#
# Total GULP energy -178485.454175 kJ/mol
# GULP energy per Si atom -5577.670443 kJ/mol
# Density = 1.900271 g / cm^3
# Si number density = 19.046063 Si / 1000 Ang^3
#
#
#
# Elastic Constant Matrix: (Units=GPa)
#
#
# Indices 1 2 3 4 5 6 
#
# 1 21.4247 15.7338 20.7932 0.0001 0.0000 0.0000
# 2 15.7338 44.1060 6.3579 0.0002 0.0000 0.0000
# 3 20.7932 6.3579 88.0602 0.0008 0.0002 0.0001
# 4 0.0001 0.0002 0.0008 19.4395 0.0000 0.0000
# 5 0.0000 0.0000 0.0002 0.0000 10.0690 0.0001
# 6 0.0000 0.0000 0.0001 0.0000 0.0001 20.6349
#
#
#
# Elastic Compliance Matrix: (Units=1/GPa)
#
#
# Indices 1 2 3 4 5 6 
#
# 1 0.084218 -0.027462 -0.017903 0.000001 0.000000 0.000000
# 2 -0.027462 0.031866 0.004184 0.000000 0.000000 0.000000
# 3 -0.017903 0.004184 0.015281 -0.000001 0.000000 0.000000
# 4 0.000001 0.000000 -0.000001 0.051442 0.000000 0.000000
# 5 0.000000 0.000000 0.000000 0.000000 0.099314 0.000000
# 6 0.000000 0.000000 0.000000 0.000000 0.000000 0.048462
#
#
# Mechanical properties :
#
#
# Convention : Reuss Voigt Hill
#
# Bulk Modulus (GPa) = 20.40723 26.59563 23.50143
# Shear Modulus (GPa) = 11.64740 17.40908 14.52824
#
# Velocity S-wave (km/s) = 2.47561 3.02661 2.76487
# Velocity P-wave (km/s) = 4.34850 5.11937 4.74960
#
# Compressibility (1/GPa) = 0.04900224
#
# Stress axis : x y z
#
# Youngs Moduli (GPa) = 11.87392 31.38143 65.43983
#
# Poissons Ratio (x) = 0.86180 1.17159
# Poissons Ratio (y) = 0.32608 -0.27379
# Poissons Ratio (z) = 0.21258 -0.13129
#
# Static dielectric constant tensor:
#      x y z
#    x 1.647080 0.000000 0.000000 
#    y 0.000000 1.723970 0.000000 
#    z 0.000000 0.000000 1.639270 
# 
# From -- ./inp_files/9731.got.cif
#   From: 2010.05.17/outbox.cif.g08.bks.cpg/sg46_5_cif.got.tgz:9731.got - 2010.06.03 19:58:25.
