data_PCOD9378370
_publ_section_title
;
Structure prediction by ZEFSAII (Michael W. Deem and Ramdas Pophale) SiO2 
 PCOD9378370
Probable space group: I M A 2
;
_chemical_formula_sum "Si O2"
_cell_formula_units_Z 56
_cell_length_a 19.349813
_cell_length_b 15.653766
_cell_length_c 8.812292
_cell_angle_alpha 90.000000
_cell_angle_beta 90.000000
_cell_angle_gamma 90.000000
_cell_volume 2669.220730
_symmetry_space_group_name_H-M "I M A 2"
_symmetry_group_IT_number 46
_symmetry_cell_setting 'orthorhombic'
loop_
_space_group_symop_operation_xyz
x,y,z
-x,-y,z
1/2-x,y,z
1/2+x,-y,z
1/2+x,1/2+y,1/2+z
1/2-x,1/2-y,1/2+z
-x,1/2+y,1/2+z
x,1/2-y,1/2+z
loop_
_atom_site_type_symbol
_atom_site_label
_atom_site_fract_x
_atom_site_fract_y
_atom_site_fract_z
Si Si1 0.985661 0.798860 0.742160
Si Si2 0.582665 0.004274 0.014413
Si Si3 0.831631 0.150361 0.493685
Si Si4 0.391660 0.816835 0.162520
Si Si5 0.113787 0.221936 0.483090
Si Si6 0.070328 0.540655 0.188745
Si Si7 0.828581 0.633906 0.690338
O O1 0.935777 0.823934 0.603679
O O2 0.938362 0.780184 0.884961
O O3 0.030122 0.714956 0.699112
O O4 0.041113 0.872250 0.765390
O O5 0.608023 0.097800 0.064043
O O6 0.500000 0.000000 0.033383
O O7 0.620268 0.935904 0.120646
O O8 0.597277 0.988748 0.834779
O O9 0.750000 0.138421 0.507723
O O10 0.854567 0.162592 0.320648
O O11 0.855093 0.237374 0.579040
O O12 0.873553 0.071607 0.568884
O O13 0.162751 0.282398 0.583094
O O14 0.150495 0.162159 0.360343
O O15 0.000000 0.500000 0.123047
O O16 0.750000 0.603508 0.686741
#
# Coordination Sequence:
#
# PCOD9378370 Si02
#       7
#     8   8   8   8   8   8   8
#     4  10  18  35  61  89 114 155 205 257 309 362
#     4  11  23  40  63  92 123 158 206 266 324 375
#     4  11  24  40  61  89 126 175 217 254 315 387
#     4  11  22  38  62  90 124 162 211 265 313 374
#     4  10  20  37  61  86 117 155 204 254 306 375
#     4  10  21  38  60  88 121 157 204 261 312 366
#     4  11  24  40  61  90 125 166 207 255 319 383
#
# _framework density 20.979906
#
# number of rings (size 3 to 8) (size 9 to 14) (size 15 to 20)
#    0.000    1.429    0.000    8.571    0.000    3.429 
#    0.000    0.000    0.000    2.571    0.000    0.000 
#    0.000    0.000    0.000    0.000    0.000    0.000 
#
# Total GULP energy -156521.774774 kJ/mol
# GULP energy per Si atom -5590.063385 kJ/mol
# Density = 2.093215 g / cm^3
# Si number density = 20.979906 Si / 1000 Ang^3
#
#
#
# Elastic Constant Matrix: (Units=GPa)
#
#
# Indices 1 2 3 4 5 6 
#
# 1 124.1239 32.4639 61.3343 0.0000 0.0000 0.0000
# 2 32.4639 69.3347 25.7156 0.0000 0.0000 0.0000
# 3 61.3343 25.7156 132.5090 0.0000 0.0000 0.0000
# 4 0.0000 0.0000 0.0000 32.4854 0.0000 0.0000
# 5 0.0000 0.0000 0.0000 0.0000 20.8353 0.0000
# 6 0.0000 0.0000 0.0000 0.0000 0.0000 22.2773
#
#
#
# Elastic Compliance Matrix: (Units=1/GPa)
#
#
# Indices 1 2 3 4 5 6 
#
# 1 0.011215 -0.003584 -0.004496 0.000000 0.000000 0.000000
# 2 -0.003584 0.016687 -0.001579 0.000000 0.000000 0.000000
# 3 -0.004496 -0.001579 0.009934 0.000000 0.000000 0.000000
# 4 0.000000 0.000000 0.000000 0.030783 0.000000 0.000000
# 5 0.000000 0.000000 0.000000 0.000000 0.047995 0.000000
# 6 0.000000 0.000000 0.000000 0.000000 0.000000 0.044889
#
#
# Mechanical properties :
#
#
# Convention : Reuss Voigt Hill
#
# Bulk Modulus (GPa) = 54.00147 62.77723 58.38935
# Shear Modulus (GPa) = 26.73885 28.88321 27.81103
#
# Velocity S-wave (km/s) = 3.57388 3.71443 3.64483
# Velocity P-wave (km/s) = 6.54413 6.95582 6.75312
#
# Compressibility (1/GPa) = 0.01851801
#
# Stress axis : x y z
#
# Youngs Moduli (GPa) = 89.16403 59.92827 100.66335
#
# Poissons Ratio (x) = 0.21477 0.45255
# Poissons Ratio (y) = 0.31955 0.15900
# Poissons Ratio (z) = 0.40086 0.09466
#
# Static dielectric constant tensor:
#      x y z
#    x 1.720490 0.000000 0.000000 
#    y 0.000000 1.840780 0.000000 
#    z 0.000000 0.000000 1.747490 
# 
# From -- ./inp_files/7398.got.cif
#   From: 2010.05.17/outbox.cif.g08.bks.cpg/sg46_4_cif.got.tgz:7398.got - 2010.06.03 19:58:25.
