data_PCOD9378746
_publ_section_title
;
Structure prediction by ZEFSAII (Michael W. Deem and Ramdas Pophale) SiO2 
 PCOD9378746
Probable space group: I M A 2
;
_chemical_formula_sum "Si O2"
_cell_formula_units_Z 40
_cell_length_a 8.016092
_cell_length_b 29.454835
_cell_length_c 9.928032
_cell_angle_alpha 90.000000
_cell_angle_beta 90.000000
_cell_angle_gamma 90.000000
_cell_volume 2344.134116
_symmetry_space_group_name_H-M "I M A 2"
_symmetry_group_IT_number 46
_symmetry_cell_setting 'orthorhombic'
loop_
_space_group_symop_operation_xyz
x,y,z
-x,-y,z
1/2-x,y,z
1/2+x,-y,z
1/2+x,1/2+y,1/2+z
1/2-x,1/2-y,1/2+z
-x,1/2+y,1/2+z
x,1/2-y,1/2+z
loop_
_atom_site_type_symbol
_atom_site_label
_atom_site_fract_x
_atom_site_fract_y
_atom_site_fract_z
Si Si1 0.449190 0.550592 0.495640
Si Si2 0.443037 0.864739 0.505015
Si Si3 0.937374 0.877506 0.214620
Si Si4 0.550035 0.449703 0.189041
Si Si5 0.250000 0.203986 0.503708
Si Si6 0.750000 0.792237 0.186259
O O1 0.500000 0.500000 0.539800
O O2 0.250000 0.552961 0.492050
O O3 0.511730 0.588595 0.597759
O O4 0.514299 0.556647 0.342328
O O5 0.250000 0.852680 0.539703
O O6 0.449926 0.877124 0.346464
O O7 0.496766 0.908591 0.591816
O O8 0.582618 0.825971 0.526214
O O9 0.750000 0.890290 0.262719
O O10 0.907597 0.826038 0.161712
O O11 0.500000 0.500000 0.142215
O O12 0.750000 0.449246 0.195522
O O13 0.250000 0.217592 0.345836
O O14 0.250000 0.247888 0.597414
#
# Coordination Sequence:
#
# PCOD9378746 Si02
#       6
#     8   8   8   8   4   4
#     4  10  19  33  51  78 112 148 188 230 275 330
#     4  10  20  37  57  81 112 146 182 231 276 330
#     4   9  19  36  54  80 107 143 184 224 280 329
#     4   9  20  33  50  77 110 144 187 227 274 328
#     4  10  20  40  58  84 108 146 186 230 285 332
#     4   8  20  36  58  78 110 136 184 232 275 338
#
# _framework density 17.063869
#
# number of rings (size 3 to 8) (size 9 to 14) (size 15 to 20)
#    0.600    2.000    1.000    1.200    1.400    3.200 
#    0.000    7.000    0.000    0.000    0.000    0.000 
#    0.000    0.000    0.000    0.000    0.000    0.000 
#
# Total GULP energy -111335.797631 kJ/mol
# GULP energy per Si atom -5566.789882 kJ/mol
# Density = 1.702503 g / cm^3
# Si number density = 17.063869 Si / 1000 Ang^3
#
#
#
# Elastic Constant Matrix: (Units=GPa)
#
#
# Indices 1 2 3 4 5 6 
#
# 1 67.1841 43.1600 28.2866 0.0001 0.0000 0.0000
# 2 43.1600 164.4747 105.3886 0.0002 0.0000 0.0000
# 3 28.2866 105.3886 82.7501 0.0003 0.0001 -0.0001
# 4 0.0001 0.0002 0.0003 32.9383 0.0000 0.0000
# 5 0.0000 0.0000 0.0001 0.0000 14.2173 0.0000
# 6 0.0000 0.0000 -0.0001 0.0000 0.0000 22.4783
#
#
#
# Elastic Compliance Matrix: (Units=1/GPa)
#
#
# Indices 1 2 3 4 5 6 
#
# 1 0.017911 -0.004224 -0.000743 0.000000 0.000000 0.000000
# 2 -0.004224 0.034049 -0.041921 0.000000 0.000000 0.000000
# 3 -0.000743 -0.041921 0.065728 0.000000 -0.000001 0.000000
# 4 0.000000 0.000000 0.000000 0.030360 0.000000 0.000000
# 5 0.000000 0.000000 -0.000001 0.000000 0.070337 0.000000
# 6 0.000000 0.000000 0.000000 0.000000 0.000000 0.044487
#
#
# Mechanical properties :
#
#
# Convention : Reuss Voigt Hill
#
# Bulk Modulus (GPa) = 41.81858 74.23103 58.02480
# Shear Modulus (GPa) = 13.71298 23.09835 18.40566
#
# Velocity S-wave (km/s) = 2.83791 3.68318 3.28782
# Velocity P-wave (km/s) = 5.94126 7.85392 6.96357
#
# Compressibility (1/GPa) = 0.02391282
#
# Stress axis : x y z
#
# Youngs Moduli (GPa) = 55.83227 29.36905 15.21426
#
# Poissons Ratio (x) = 0.12405 0.01130
# Poissons Ratio (y) = 0.23583 0.63779
# Poissons Ratio (z) = 0.04148 1.23117
#
# Static dielectric constant tensor:
#      x y z
#    x 1.605480 0.000000 0.000000 
#    y 0.000000 1.565320 0.000000 
#    z 0.000000 0.000000 1.580760 
# 
# From -- ./inp_files/3763.got.cif
#   From: 2010.05.17/outbox.cif.g08.bks.cpg/sg46_2_cif.got.tgz:3763.got - 2010.06.03 19:58:25.
