data_PCOD9378216
_publ_section_title
;
Structure prediction by ZEFSAII (Michael W. Deem and Ramdas Pophale) SiO2 
 PCOD9378216
Probable space group: I M A 2
;
_chemical_formula_sum "Si O2"
_cell_formula_units_Z 64
_cell_length_a 15.151640
_cell_length_b 27.825200
_cell_length_c 9.406198
_cell_angle_alpha 90.000000
_cell_angle_beta 90.000000
_cell_angle_gamma 90.000000
_cell_volume 3965.628746
_symmetry_space_group_name_H-M "I M A 2"
_symmetry_group_IT_number 46
_symmetry_cell_setting 'orthorhombic'
loop_
_space_group_symop_operation_xyz
x,y,z
-x,-y,z
1/2-x,y,z
1/2+x,-y,z
1/2+x,1/2+y,1/2+z
1/2-x,1/2-y,1/2+z
-x,1/2+y,1/2+z
x,1/2-y,1/2+z
loop_
_atom_site_type_symbol
_atom_site_label
_atom_site_fract_x
_atom_site_fract_y
_atom_site_fract_z
Si Si1 0.947713 0.045158 0.394280
Si Si2 0.147565 0.021304 0.955090
Si Si3 0.147387 0.303748 0.461190
Si Si4 0.148314 0.576560 0.620890
Si Si5 0.054049 0.107946 0.612020
Si Si6 0.148943 0.011870 0.642924
Si Si7 0.351515 0.206464 0.623854
Si Si8 0.515671 0.608227 0.440292
O O1 0.885931 0.071597 0.281768
O O2 0.003191 0.085421 0.478425
O O3 0.901234 0.016613 0.522572
O O4 0.000000 0.000000 0.322297
O O5 0.250000 0.039341 0.942322
O O6 0.121841 0.998558 0.802423
O O7 0.076972 0.062667 0.982493
O O8 0.147379 0.978333 0.065157
O O9 0.250000 0.318056 0.493573
O O10 0.124533 0.256902 0.552857
O O11 0.145479 0.290216 0.294526
O O12 0.076287 0.345931 0.479744
O O13 0.250000 0.593810 0.610542
O O14 0.076480 0.604642 0.524522
O O15 0.132206 0.068987 0.634092
O O16 0.089174 0.161034 0.582740
O O17 0.006042 0.108041 0.767222
O O18 0.250000 0.000696 0.625070
O O19 0.250000 0.196303 0.582332
#
# Coordination Sequence:
#
# PCOD9378216 Si02
#       8
#     8   8   8   8   8   8   8   8
#     4  10  19  30  44  65  94 126 160 197 236 277
#     4   9  17  29  48  71  96 126 159 191 229 277
#     4   9  18  31  50  75 102 128 152 183 229 281
#     4  11  22  33  45  65  93 127 162 201 243 277
#     4   9  18  30  48  70  93 125 160 191 229 274
#     4   9  16  28  46  68  94 126 159 191 226 272
#     4   9  17  31  49  74 104 127 150 183 225 283
#     4  10  18  32  50  70  95 125 160 197 229 275
#
# _framework density 16.138677000000001
#
# number of rings (size 3 to 8) (size 9 to 14) (size 15 to 20)
#    0.000    2.500    0.000    3.000    0.000    6.000 
#    0.000    0.625    0.000    6.000    0.000    8.750 
#    0.000    0.000    0.000    0.000    0.000    0.000 
#
# Total GULP energy -178209.069029 kJ/mol
# GULP energy per Si atom -5569.033407 kJ/mol
# Density = 1.610194 g / cm^3
# Si number density = 16.138677 Si / 1000 Ang^3
#
#
#
# Elastic Constant Matrix: (Units=GPa)
#
#
# Indices 1 2 3 4 5 6 
#
# 1 92.0474 49.2997 41.5902 0.0000 0.0003 0.0000
# 2 49.2997 71.8379 32.9691 -0.0005 0.0000 0.0001
# 3 41.5902 32.9691 53.5664 -0.0037 0.0002 0.0001
# 4 0.0000 -0.0005 -0.0037 19.9506 0.0004 0.0004
# 5 0.0003 0.0000 0.0002 0.0004 20.3508 -0.0002
# 6 0.0000 0.0001 0.0001 0.0004 -0.0002 22.1750
#
#
#
# Elastic Compliance Matrix: (Units=1/GPa)
#
#
# Indices 1 2 3 4 5 6 
#
# 1 0.020468 -0.009411 -0.010099 -0.000002 0.000000 0.000000
# 2 -0.009411 0.023728 -0.007297 -0.000001 0.000000 0.000000
# 3 -0.010099 -0.007297 0.031001 0.000006 0.000000 0.000000
# 4 -0.000002 -0.000001 0.000006 0.050124 -0.000001 -0.000001
# 5 0.000000 0.000000 0.000000 -0.000001 0.049138 0.000001
# 6 0.000000 0.000000 0.000000 -0.000001 0.000001 0.045096
#
#
# Mechanical properties :
#
#
# Convention : Reuss Voigt Hill
#
# Bulk Modulus (GPa) = 46.33577 51.68551 49.01064
# Shear Modulus (GPa) = 17.83409 18.73479 18.28444
#
# Velocity S-wave (km/s) = 3.32784 3.41084 3.36960
# Velocity P-wave (km/s) = 6.59844 6.89979 6.75080
#
# Compressibility (1/GPa) = 0.02158160
#
# Stress axis : x y z
#
# Youngs Moduli (GPa) = 48.85733 42.14488 32.25746
#
# Poissons Ratio (x) = 0.39664 0.32577
# Poissons Ratio (y) = 0.45982 0.23537
# Poissons Ratio (z) = 0.49341 0.30752
#
# Static dielectric constant tensor:
#      x y z
#    x 1.570040 0.000000 0.000000 
#    y 0.000000 1.521520 0.000000 
#    z 0.000000 0.000000 1.563350 
# 
# From -- ./inp_files/6080.got.cif
#   From: 2010.05.17/outbox.cif.g08.bks.cpg/sg46_4_cif.got.tgz:6080.got - 2010.06.03 19:58:25.
