data_PCOD9378721
_publ_section_title
;
Structure prediction by ZEFSAII (Michael W. Deem and Ramdas Pophale) SiO2 
 PCOD9378721
Probable space group: I M A 2
;
_chemical_formula_sum "Si O2"
_cell_formula_units_Z 48
_cell_length_a 13.956393
_cell_length_b 5.089714
_cell_length_c 30.208597
_cell_angle_alpha 90.000000
_cell_angle_beta 90.000000
_cell_angle_gamma 90.000000
_cell_volume 2145.838955
_symmetry_space_group_name_H-M "I M A 2"
_symmetry_group_IT_number 46
_symmetry_cell_setting 'orthorhombic'
loop_
_space_group_symop_operation_xyz
x,y,z
-x,-y,z
1/2-x,y,z
1/2+x,-y,z
1/2+x,1/2+y,1/2+z
1/2-x,1/2-y,1/2+z
-x,1/2+y,1/2+z
x,1/2-y,1/2+z
loop_
_atom_site_type_symbol
_atom_site_label
_atom_site_fract_x
_atom_site_fract_y
_atom_site_fract_z
Si Si1 0.500000 0.000000 0.252401
Si Si2 0.865770 0.284328 0.876458
Si Si3 0.000000 0.500000 0.196154
Si Si4 0.365069 0.217428 0.822638
Si Si5 0.562342 0.761303 0.613136
Si Si6 0.138878 0.354944 0.023673
Si Si7 0.132015 0.640668 0.474358
O O1 0.462750 0.751681 0.223287
O O2 0.579902 0.852028 0.281902
O O3 0.750000 0.263757 0.877367
O O4 0.886941 0.581513 0.862645
O O5 0.900352 0.213941 0.925152
O O6 0.894813 0.073751 0.838562
O O7 0.079948 0.375297 0.162504
O O8 0.250000 0.217037 0.814674
O O9 0.500000 0.500000 0.617794
O O10 0.636600 0.741726 0.573701
O O11 0.500000 0.000000 0.593925
O O12 0.250000 0.373623 0.012231
O O13 0.103549 0.643478 0.010897
O O14 0.096784 0.140077 0.990712
O O15 0.250000 0.628448 0.472707
#
# Coordination Sequence:
#
# PCOD9378721 Si02
#       7
#     4   8   4   8   8   8   8
#     4  12  22  40  64  81 112 141 184 244 288 342
#     4   9  17  33  55  81 114 153 185 221 267 328
#     4  10  22  40  62  77 102 151 178 220 300 358
#     4  10  21  36  59  85 112 149 188 227 282 335
#     4  10  20  38  59  74 108 143 186 213 282 350
#     4  10  19  32  55  86 110 143 189 230 262 316
#     4   9  17  29  52  82 114 149 187 221 265 316
#
# _framework density 22.368874000000002
#
# number of rings (size 3 to 8) (size 9 to 14) (size 15 to 20)
#    0.500    1.667    0.833    3.000    0.000    4.000 
#    0.000    1.667   18.333    0.000    0.000    0.000 
#    0.000    0.000    0.000    0.000    0.000    0.000 
#
# Total GULP energy -133754.206896 kJ/mol
# GULP energy per Si atom -5573.091954 kJ/mol
# Density = 2.231796 g / cm^3
# Si number density = 22.368874 Si / 1000 Ang^3
#
#
#
# Elastic Constant Matrix: (Units=GPa)
#
#
# Indices 1 2 3 4 5 6 
#
# 1 37.5030 -4.3930 -4.0526 0.0000 0.0000 0.0000
# 2 -4.3930 123.3807 17.0383 0.0000 0.0000 0.0000
# 3 -4.0526 17.0383 88.0070 0.0000 0.0000 0.0000
# 4 0.0000 0.0000 0.0000 40.4627 0.0000 0.0000
# 5 0.0000 0.0000 0.0000 0.0000 19.5153 0.0000
# 6 0.0000 0.0000 0.0000 0.0000 0.0000 18.8482
#
#
#
# Elastic Compliance Matrix: (Units=1/GPa)
#
#
# Indices 1 2 3 4 5 6 
#
# 1 0.026876 0.000808 0.001081 0.000000 0.000000 0.000000
# 2 0.000808 0.008352 -0.001580 0.000000 0.000000 0.000000
# 3 0.001081 -0.001580 0.011718 0.000000 0.000000 0.000000
# 4 0.000000 0.000000 0.000000 0.024714 0.000000 0.000000
# 5 0.000000 0.000000 0.000000 0.000000 0.051242 0.000000
# 6 0.000000 0.000000 0.000000 0.000000 0.000000 0.053055
#
#
# Mechanical properties :
#
#
# Convention : Reuss Voigt Hill
#
# Bulk Modulus (GPa) = 21.02409 29.56400 25.29404
# Shear Modulus (GPa) = 26.15141 31.78511 28.96826
#
# Velocity S-wave (km/s) = 3.42292 3.77364 3.60255
# Velocity P-wave (km/s) = 5.00410 5.67736 5.35133
#
# Compressibility (1/GPa) = 0.04756449
#
# Stress axis : x y z
#
# Youngs Moduli (GPa) = 37.20794 119.73317 85.33613
#
# Poissons Ratio (x) = -0.09670 -0.09227
# Poissons Ratio (y) = -0.03005 0.13481
# Poissons Ratio (z) = -0.04023 0.18915
#
# Static dielectric constant tensor:
#      x y z
#    x 1.892590 0.000000 0.000000 
#    y 0.000000 1.805200 0.000000 
#    z 0.000000 0.000000 1.856670 
# 
# From -- ./inp_files/25374.got.cif
#   From: 2010.05.17/outbox.cif.g08.bks.cpg/sg46_13_cif.got.tgz:25374.got - 2010.06.03 19:58:25.
