data_PCOD9378239
_publ_section_title
;
Structure prediction by ZEFSAII (Michael W. Deem and Ramdas Pophale) SiO2 
 PCOD9378239
Probable space group: I M A 2
;
_chemical_formula_sum "Si O2"
_cell_formula_units_Z 40
_cell_length_a 8.589059
_cell_length_b 26.434793
_cell_length_c 9.994222
_cell_angle_alpha 90.000000
_cell_angle_beta 90.000000
_cell_angle_gamma 90.000000
_cell_volume 2269.188072
_symmetry_space_group_name_H-M "I M A 2"
_symmetry_group_IT_number 46
_symmetry_cell_setting 'orthorhombic'
loop_
_space_group_symop_operation_xyz
x,y,z
-x,-y,z
1/2-x,y,z
1/2+x,-y,z
1/2+x,1/2+y,1/2+z
1/2-x,1/2-y,1/2+z
-x,1/2+y,1/2+z
x,1/2-y,1/2+z
loop_
_atom_site_type_symbol
_atom_site_label
_atom_site_fract_x
_atom_site_fract_y
_atom_site_fract_z
Si Si1 0.936817 0.443502 0.633150
Si Si2 0.560988 0.136272 0.914903
Si Si3 0.065008 0.137182 0.339130
Si Si4 0.938072 0.282748 0.634627
Si Si5 0.561361 0.165057 0.622610
O O1 0.750000 0.444140 0.634970
O O2 0.988377 0.412486 0.500393
O O3 0.000000 0.500000 0.635575
O O4 0.994973 0.410079 0.757762
O O5 0.750000 0.136221 0.912098
O O6 0.508808 0.140267 0.762336
O O7 0.516055 0.185467 0.002543
O O8 0.250000 0.134899 0.333591
O O9 0.006490 0.187251 0.260708
O O10 0.007096 0.139794 0.490812
O O11 0.750000 0.284929 0.645649
O O12 0.983278 0.224380 0.626481
O O13 0.750000 0.162915 0.615478
#
# Coordination Sequence:
#
# PCOD9378239 Si02
#       5
#     8   8   8   8   8
#     4  10  20  38  60  79  99 130 175 222 269 319
#     4   8  16  30  51  78 103 130 171 219 261 303
#     4  11  22  34  50  78 112 143 175 213 260 312
#     4   9  17  32  54  77 103 142 186 219 250 297
#     4  10  18  32  54  78 107 143 179 215 255 303
#
# _framework density 17.62745
#
# number of rings (size 3 to 8) (size 9 to 14) (size 15 to 20)
#    0.000    2.400    0.000    4.800    0.000    4.000 
#    0.000    6.000    0.000    2.400    0.000    0.000 
#    0.000    0.000    0.000    0.000    0.000    0.000 
#
# Total GULP energy -111610.639594 kJ/mol
# GULP energy per Si atom -5580.531980 kJ/mol
# Density = 1.758733 g / cm^3
# Si number density = 17.627450 Si / 1000 Ang^3
#
#
#
# Elastic Constant Matrix: (Units=GPa)
#
#
# Indices 1 2 3 4 5 6 
#
# 1 42.2058 39.3202 39.6291 -0.0001 -0.0001 0.0000
# 2 39.3202 142.5682 87.2231 0.0000 -0.0001 0.0000
# 3 39.6291 87.2231 190.0836 -0.0004 -0.0006 0.0000
# 4 -0.0001 0.0000 -0.0004 5.0598 -0.0001 0.0000
# 5 -0.0001 -0.0001 -0.0006 -0.0001 7.7243 0.0000
# 6 0.0000 0.0000 0.0000 0.0000 0.0000 20.8368
#
#
#
# Elastic Compliance Matrix: (Units=1/GPa)
#
#
# Indices 1 2 3 4 5 6 
#
# 1 0.033798 -0.006966 -0.003850 0.000000 0.000000 0.000000
# 2 -0.006966 0.011188 -0.003681 0.000000 0.000000 0.000000
# 3 -0.003850 -0.003681 0.007753 0.000000 0.000001 0.000000
# 4 0.000000 0.000000 0.000000 0.197636 0.000003 0.000000
# 5 0.000000 0.000000 0.000001 0.000003 0.129462 0.000000
# 6 0.000000 0.000000 0.000000 0.000000 0.000000 0.047992
#
#
# Mechanical properties :
#
#
# Convention : Reuss Voigt Hill
#
# Bulk Modulus (GPa) = 42.11615 78.57805 60.34710
# Shear Modulus (GPa) = 10.75877 20.63655 15.69766
#
# Velocity S-wave (km/s) = 2.47319 3.42527 2.98740
# Velocity P-wave (km/s) = 5.66567 7.76641 6.79768
#
# Compressibility (1/GPa) = 0.02374386
#
# Stress axis : x y z
#
# Youngs Moduli (GPa) = 29.58755 89.38396 128.98754
#
# Poissons Ratio (x) = 0.62267 0.49657
# Poissons Ratio (y) = 0.20611 0.47485
# Poissons Ratio (z) = 0.11390 0.32905
#
# Static dielectric constant tensor:
#      x y z
#    x 1.594390 0.000000 0.000000 
#    y 0.000000 1.576480 0.000000 
#    z 0.000000 0.000000 1.600190 
# 
# From -- ./inp_files/3530.got.cif
#   From: 2010.05.17/outbox.cif.g08.bks.cpg/sg46_2_cif.got.tgz:3530.got - 2010.06.03 19:58:25.
