data_PCOD9378421
_publ_section_title
;
Structure prediction by ZEFSAII (Michael W. Deem and Ramdas Pophale) SiO2 
 PCOD9378421
Probable space group: I M A 2
;
_chemical_formula_sum "Si O2"
_cell_formula_units_Z 64
_cell_length_a 9.143644
_cell_length_b 18.788955
_cell_length_c 26.937134
_cell_angle_alpha 90.000000
_cell_angle_beta 90.000000
_cell_angle_gamma 90.000000
_cell_volume 4627.786574
_symmetry_space_group_name_H-M "I M A 2"
_symmetry_group_IT_number 46
_symmetry_cell_setting 'orthorhombic'
loop_
_space_group_symop_operation_xyz
x,y,z
-x,-y,z
1/2-x,y,z
1/2+x,-y,z
1/2+x,1/2+y,1/2+z
1/2-x,1/2-y,1/2+z
-x,1/2+y,1/2+z
x,1/2-y,1/2+z
loop_
_atom_site_type_symbol
_atom_site_label
_atom_site_fract_x
_atom_site_fract_y
_atom_site_fract_z
Si Si1 0.581729 0.789186 0.485770
Si Si2 0.574671 0.924678 0.236888
Si Si3 0.923048 0.167062 0.038746
Si Si4 0.076901 0.923924 0.938463
Si Si5 0.424873 0.076047 0.121576
Si Si6 0.572105 0.667381 0.828957
Si Si7 0.926736 0.923676 0.425563
Si Si8 0.918854 0.697323 0.383635
O O1 0.750000 0.790870 0.503370
O O2 0.481969 0.744498 0.522884
O O3 0.534659 0.868143 0.469458
O O4 0.582207 0.745032 0.433930
O O5 0.750000 0.932927 0.241396
O O6 0.543303 0.907208 0.179419
O O7 0.526983 0.865498 0.276527
O O8 0.500000 0.000000 0.248516
O O9 0.750000 0.168371 0.047995
O O10 0.009062 0.134321 0.084929
O O11 0.950006 0.115320 0.991294
O O12 0.250000 0.931981 0.932694
O O13 0.012487 0.871647 0.896459
O O14 0.000000 0.000000 0.937977
O O15 0.250000 0.070227 0.115328
O O16 0.500000 0.000000 0.110506
O O17 0.750000 0.670352 0.830219
O O18 0.529111 0.613881 0.873511
O O19 0.523805 0.747440 0.842281
O O20 0.750000 0.929788 0.425166
O O21 0.000000 0.000000 0.430634
O O22 0.750000 0.677683 0.373306
#
# Coordination Sequence:
#
# PCOD9378421 Si02
#       8
#     8   8   8   8   8   8   8   8
#     4   8  15  27  40  55  77 104 132 161 195 234
#     4   9  17  28  41  58  80 106 136 167 196 227
#     4  10  19  29  42  58  76 102 135 168 201 236
#     4  10  19  28  39  57  79 102 130 162 195 233
#     4  10  19  29  41  57  79 106 135 168 200 230
#     4   8  14  26  42  58  78 106 137 163 192 230
#     4   9  16  25  39  59  82 108 135 163 194 229
#     4   8  14  26  42  56  74 102 131 160 193 229
#
# _framework density 13.829506
#
# number of rings (size 3 to 8) (size 9 to 14) (size 15 to 20)
#    0.000    3.000    0.000    3.375    0.000    3.500 
#    0.000    2.500    0.000    0.000    0.000    0.000 
#    0.000    1.000    0.000    6.250    0.000    3.875 
#
# Total GULP energy -178183.916111 kJ/mol
# GULP energy per Si atom -5568.247378 kJ/mol
# Density = 1.379803 g / cm^3
# Si number density = 13.829506 Si / 1000 Ang^3
#
#
#
# Elastic Constant Matrix: (Units=GPa)
#
#
# Indices 1 2 3 4 5 6 
#
# 1 40.0840 45.0189 33.8262 0.0000 0.0000 0.0000
# 2 45.0189 96.9847 39.8791 0.0000 0.0000 0.0000
# 3 33.8262 39.8791 61.8031 0.0000 0.0000 0.0000
# 4 0.0000 0.0000 0.0000 25.2240 0.0000 0.0000
# 5 0.0000 0.0000 0.0000 0.0000 12.2942 0.0000
# 6 0.0000 0.0000 0.0000 0.0000 0.0000 25.1896
#
#
#
# Elastic Compliance Matrix: (Units=1/GPa)
#
#
# Indices 1 2 3 4 5 6 
#
# 1 0.071320 -0.023214 -0.024056 0.000000 0.000000 0.000000
# 2 -0.023214 0.021591 -0.001226 0.000000 0.000000 0.000000
# 3 -0.024056 -0.001226 0.030138 0.000000 0.000000 0.000000
# 4 0.000000 0.000000 0.000000 0.039645 0.000000 0.000000
# 5 0.000000 0.000000 0.000000 0.000000 0.081339 0.000000
# 6 0.000000 0.000000 0.000000 0.000000 0.000000 0.039699
#
#
# Mechanical properties :
#
#
# Convention : Reuss Voigt Hill
#
# Bulk Modulus (GPa) = 38.37809 48.48002 43.42906
# Shear Modulus (GPa) = 12.83995 17.88473 15.36234
#
# Velocity S-wave (km/s) = 3.05035 3.60005 3.33654
# Velocity P-wave (km/s) = 6.34171 7.23962 6.80549
#
# Compressibility (1/GPa) = 0.02605653
#
# Stress axis : x y z
#
# Youngs Moduli (GPa) = 14.02125 46.31615 33.18089
#
# Poissons Ratio (x) = 1.07520 0.79820
# Poissons Ratio (y) = 0.32549 0.04068
# Poissons Ratio (z) = 0.33729 0.05678
#
# Static dielectric constant tensor:
#      x y z
#    x 1.459500 0.000000 0.000000 
#    y 0.000000 1.447540 0.000000 
#    z 0.000000 0.000000 1.451230 
# 
# From -- ./inp_files/23293.got.cif
#   From: 2010.05.17/outbox.cif.g08.bks.cpg/sg46_12_cif.got.tgz:23293.got - 2010.06.03 19:58:25.
