data_PCOD9378864
_publ_section_title
;
Structure prediction by ZEFSAII (Michael W. Deem and Ramdas Pophale) SiO2 
 PCOD9378864
Probable space group: I M A 2
;
_chemical_formula_sum "Si O2"
_cell_formula_units_Z 64
_cell_length_a 17.195483
_cell_length_b 9.634668
_cell_length_c 19.611388
_cell_angle_alpha 90.000000
_cell_angle_beta 90.000000
_cell_angle_gamma 90.000000
_cell_volume 3249.072970
_symmetry_space_group_name_H-M "I M A 2"
_symmetry_group_IT_number 46
_symmetry_cell_setting 'orthorhombic'
loop_
_space_group_symop_operation_xyz
x,y,z
-x,-y,z
1/2-x,y,z
1/2+x,-y,z
1/2+x,1/2+y,1/2+z
1/2-x,1/2-y,1/2+z
-x,1/2+y,1/2+z
x,1/2-y,1/2+z
loop_
_atom_site_type_symbol
_atom_site_label
_atom_site_fract_x
_atom_site_fract_y
_atom_site_fract_z
Si Si1 0.891717 0.731762 0.985650
Si Si2 0.072656 0.695753 0.480577
Si Si3 0.909162 0.039077 0.557925
Si Si4 0.656838 0.039498 0.697434
Si Si5 0.157813 0.266449 0.842562
Si Si6 0.838519 0.973784 0.066784
Si Si7 0.090055 0.541748 0.338602
Si Si8 0.344357 0.212730 0.193453
O O1 0.880731 0.674480 0.909920
O O2 0.979335 0.791985 0.988456
O O3 0.872643 0.607148 0.036683
O O4 0.838064 0.859234 0.006616
O O5 0.101126 0.850153 0.497821
O O6 0.107758 0.595037 0.538095
O O7 0.095210 0.636323 0.406182
O O8 0.875158 0.101136 0.627329
O O9 0.000000 0.000000 0.566324
O O10 0.750000 0.047214 0.701421
O O11 0.619943 0.100570 0.766371
O O12 0.633490 0.875671 0.690130
O O13 0.250000 0.282405 0.846418
O O14 0.131294 0.327836 0.770146
O O15 0.137537 0.102206 0.845549
O O16 0.750000 0.021211 0.079884
O O17 0.869841 0.889164 0.132909
O O18 0.000000 0.500000 0.332082
O O19 0.250000 0.211585 0.190292
#
# Coordination Sequence:
#
# PCOD9378864 Si02
#       8
#     8   8   8   8   8   8   8   8
#     4  11  20  37  59  83 114 156 197 244 283 351
#     4  11  23  38  55  88 121 152 192 245 298 349
#     4  10  23  40  59  82 119 160 199 237 294 353
#     4  10  20  36  58  85 114 151 201 245 285 349
#     4  10  19  33  57  88 113 148 198 245 288 342
#     4  11  20  34  59  86 114 149 191 243 301 348
#     4  11  19  34  59  85 119 150 189 243 297 347
#     4   8  17  32  53  83 113 139 185 242 287 338
#
# _framework density 19.697927
#
# number of rings (size 3 to 8) (size 9 to 14) (size 15 to 20)
#    0.000    1.750    3.750    2.250    0.000    1.500 
#    0.000    1.250    0.000    4.500    0.000    0.000 
#    0.000    0.000    0.000    0.000    0.000    0.000 
#
# Total GULP energy -178396.780794 kJ/mol
# GULP energy per Si atom -5574.899400 kJ/mol
# Density = 1.965309 g / cm^3
# Si number density = 19.697927 Si / 1000 Ang^3
#
#
#
# Elastic Constant Matrix: (Units=GPa)
#
#
# Indices 1 2 3 4 5 6 
#
# 1 43.8272 28.2832 30.3215 0.0000 0.0000 0.0000
# 2 28.2832 52.7147 34.8359 0.0000 0.0000 0.0000
# 3 30.3215 34.8359 159.4283 0.0000 0.0000 0.0000
# 4 0.0000 0.0000 0.0000 26.0585 0.0000 0.0000
# 5 0.0000 0.0000 0.0000 0.0000 27.6051 0.0000
# 6 0.0000 0.0000 0.0000 0.0000 0.0000 2.3713
#
#
#
# Elastic Compliance Matrix: (Units=1/GPa)
#
#
# Indices 1 2 3 4 5 6 
#
# 1 0.036153 -0.017360 -0.003083 0.000000 0.000000 0.000000
# 2 -0.017360 0.030508 -0.003364 0.000000 0.000000 0.000000
# 3 -0.003083 -0.003364 0.007594 0.000000 0.000000 0.000000
# 4 0.000000 0.000000 0.000000 0.038375 0.000000 0.000000
# 5 0.000000 0.000000 0.000000 0.000000 0.036225 0.000000
# 6 0.000000 0.000000 0.000000 0.000000 0.000000 0.421705
#
#
# Mechanical properties :
#
#
# Convention : Reuss Voigt Hill
#
# Bulk Modulus (GPa) = 37.53744 49.20572 43.37158
# Shear Modulus (GPa) = 7.97380 22.04228 15.00804
#
# Velocity S-wave (km/s) = 2.01416 3.34880 2.76327
# Velocity P-wave (km/s) = 4.95046 6.32353 5.67864
#
# Compressibility (1/GPa) = 0.02664007
#
# Stress axis : x y z
#
# Youngs Moduli (GPa) = 27.66054 32.77877 131.68607
#
# Poissons Ratio (x) = 0.56904 0.40593
# Poissons Ratio (y) = 0.48019 0.44304
# Poissons Ratio (z) = 0.08527 0.11028
#
# Static dielectric constant tensor:
#      x y z
#    x 1.694510 0.000000 0.000000 
#    y 0.000000 1.728340 0.000000 
#    z 0.000000 0.000000 1.774240 
# 
# From -- ./inp_files/22274.got.cif
#   From: 2010.05.17/outbox.cif.g08.bks.cpg/sg46_12_cif.got.tgz:22274.got - 2010.06.03 19:58:25.
