data_PCOD9378841
_publ_section_title
;
Structure prediction by ZEFSAII (Michael W. Deem and Ramdas Pophale) SiO2 
 PCOD9378841
Probable space group: I M A 2
;
_chemical_formula_sum "Si O2"
_cell_formula_units_Z 56
_cell_length_a 8.629074
_cell_length_b 15.805996
_cell_length_c 20.254449
_cell_angle_alpha 90.000000
_cell_angle_beta 90.000000
_cell_angle_gamma 90.000000
_cell_volume 2762.526764
_symmetry_space_group_name_H-M "I M A 2"
_symmetry_group_IT_number 46
_symmetry_cell_setting 'orthorhombic'
loop_
_space_group_symop_operation_xyz
x,y,z
-x,-y,z
1/2-x,y,z
1/2+x,-y,z
1/2+x,1/2+y,1/2+z
1/2-x,1/2-y,1/2+z
-x,1/2+y,1/2+z
x,1/2-y,1/2+z
loop_
_atom_site_type_symbol
_atom_site_label
_atom_site_fract_x
_atom_site_fract_y
_atom_site_fract_z
Si Si1 0.432600 0.758834 0.394080
Si Si2 0.072298 0.913265 0.056926
Si Si3 0.432672 0.233982 0.535428
Si Si4 0.077832 0.860201 0.203161
Si Si5 0.568203 0.816146 0.680332
Si Si6 0.569416 0.579142 0.829969
Si Si7 0.565252 0.406027 0.309406
O O1 0.250000 0.770565 0.379386
O O2 0.463999 0.777707 0.470855
O O3 0.536974 0.829537 0.360135
O O4 0.476489 0.666157 0.364407
O O5 0.250000 0.899465 0.032688
O O6 0.080184 0.913438 0.136375
O O7 0.960376 0.834181 0.045507
O O8 0.000000 0.000000 0.031439
O O9 0.250000 0.217150 0.524180
O O10 0.482383 0.184780 0.602657
O O11 0.250000 0.822596 0.211287
O O12 0.961269 0.781641 0.199579
O O13 0.032978 0.916248 0.264262
O O14 0.750000 0.835468 0.681277
O O15 0.488489 0.872598 0.736843
O O16 0.500000 0.500000 0.870394
O O17 0.750000 0.567631 0.818048
O O18 0.500000 0.500000 0.322459
O O19 0.750000 0.411625 0.309360
#
# Coordination Sequence:
#
# PCOD9378841 Si02
#       7
#     8   8   8   8   8   8   8
#     4  11  24  43  64  91 127 167 212 263 320 385
#     4  10  20  33  52  80 116 155 197 246 299 362
#     4  10  22  39  61  87 119 163 209 256 318 384
#     4  10  19  33  55  85 120 155 194 241 297 359
#     4  10  20  37  62  91 123 161 207 257 312 373
#     4  12  24  38  60  88 121 159 199 249 307 369
#     4  11  24  41  66  96 130 170 219 272 327 388
#
# _framework density 20.271294999999999
#
# number of rings (size 3 to 8) (size 9 to 14) (size 15 to 20)
#    0.000    1.429    1.429    4.286    0.000    6.857 
#    0.000    2.143    0.000    3.429    0.000    0.000 
#    0.000    0.000    0.000    0.000    0.000    0.000 
#
# Total GULP energy -156122.333589 kJ/mol
# GULP energy per Si atom -5575.797628 kJ/mol
# Density = 2.022516 g / cm^3
# Si number density = 20.271295 Si / 1000 Ang^3
#
#
#
# Elastic Constant Matrix: (Units=GPa)
#
#
# Indices 1 2 3 4 5 6 
#
# 1 66.2556 13.9041 6.5008 0.0000 0.0000 0.0000
# 2 13.9041 66.9126 -0.8454 0.0000 0.0000 0.0000
# 3 6.5008 -0.8454 60.5288 0.0000 0.0000 0.0000
# 4 0.0000 0.0000 0.0000 2.5931 0.0000 0.0000
# 5 0.0000 0.0000 0.0000 0.0000 14.7371 0.0000
# 6 0.0000 0.0000 0.0000 0.0000 0.0000 31.9930
#
#
#
# Elastic Compliance Matrix: (Units=1/GPa)
#
#
# Indices 1 2 3 4 5 6 
#
# 1 0.015967 -0.003340 -0.001762 0.000000 0.000000 0.000000
# 2 -0.003340 0.015646 0.000577 0.000000 0.000000 0.000000
# 3 -0.001762 0.000577 0.016718 0.000000 0.000000 0.000000
# 4 0.000000 0.000000 0.000000 0.385645 0.000000 0.000000
# 5 0.000000 0.000000 0.000000 0.000000 0.067856 0.000000
# 6 0.000000 0.000000 0.000000 0.000000 0.000000 0.031257
#
#
# Mechanical properties :
#
#
# Convention : Reuss Voigt Hill
#
# Bulk Modulus (GPa) = 25.45649 25.86845 25.66247
# Shear Modulus (GPa) = 9.00525 21.47380 15.23953
#
# Velocity S-wave (km/s) = 2.10998 3.25825 2.74483
# Velocity P-wave (km/s) = 4.30362 5.19074 4.76786
#
# Compressibility (1/GPa) = 0.03928272
#
# Stress axis : x y z
#
# Youngs Moduli (GPa) = 62.62982 63.91328 59.81464
#
# Poissons Ratio (x) = 0.21348 0.10536
# Poissons Ratio (y) = 0.20919 -0.03453
# Poissons Ratio (z) = 0.11032 -0.03689
#
# Static dielectric constant tensor:
#      x y z
#    x 1.689580 0.000000 0.000000 
#    y 0.000000 1.570860 0.000000 
#    z 0.000000 0.000000 1.790860 
# 
# From -- ./inp_files/21053.got.cif
#   From: 2010.05.17/outbox.cif.g08.bks.cpg/sg46_11_cif.got.tgz:21053.got - 2010.06.03 19:58:25.
