data_PCOD9378467
_publ_section_title
;
Structure prediction by ZEFSAII (Michael W. Deem and Ramdas Pophale) SiO2 
 PCOD9378467
Probable space group: I M A 2
;
_chemical_formula_sum "Si O2"
_cell_formula_units_Z 64
_cell_length_a 14.262870
_cell_length_b 10.082355
_cell_length_c 17.797739
_cell_angle_alpha 90.000000
_cell_angle_beta 90.000000
_cell_angle_gamma 90.000000
_cell_volume 2559.373933
_symmetry_space_group_name_H-M "I M A 2"
_symmetry_group_IT_number 46
_symmetry_cell_setting 'orthorhombic'
loop_
_space_group_symop_operation_xyz
x,y,z
-x,-y,z
1/2-x,y,z
1/2+x,-y,z
1/2+x,1/2+y,1/2+z
1/2-x,1/2-y,1/2+z
-x,1/2+y,1/2+z
x,1/2-y,1/2+z
loop_
_atom_site_type_symbol
_atom_site_label
_atom_site_fract_x
_atom_site_fract_y
_atom_site_fract_z
Si Si1 0.110366 0.521577 0.588860
Si Si2 0.527659 0.194190 0.729172
Si Si3 0.554649 0.183702 0.561034
Si Si4 0.361823 0.593335 0.918153
Si Si5 0.648956 0.735575 0.504600
Si Si6 0.357967 0.550997 0.752108
Si Si7 0.860716 0.382025 0.365010
Si Si8 0.640945 0.666370 0.341982
O O1 0.119107 0.679219 0.567684
O O2 0.153475 0.418924 0.530274
O O3 0.144023 0.475133 0.672458
O O4 0.000000 0.500000 0.586132
O O5 0.540057 0.139737 0.646483
O O6 0.561717 0.345382 0.730273
O O7 0.606962 0.125819 0.779266
O O8 0.429458 0.190346 0.773511
O O9 0.595855 0.078969 0.501172
O O10 0.449224 0.218549 0.536977
O O11 0.250000 0.590559 0.926237
O O12 0.381396 0.515677 0.839146
O O13 0.396943 0.745718 0.900523
O O14 0.750000 0.794336 0.528694
O O15 0.642105 0.759234 0.414948
O O16 0.250000 0.604131 0.758772
O O17 0.750000 0.378113 0.375209
O O18 0.892719 0.529536 0.381872
O O19 0.750000 0.656593 0.316972
#
# Coordination Sequence:
#
# PCOD9378467 Si02
#       8
#     8   8   8   8   8   8   8   8
#     4   9  18  30  46  71 100 127 155 193 242 289
#     4  10  19  30  45  66  97 131 159 192 236 284
#     4  10  20  30  44  69  97 126 159 193 232 281
#     4   9  17  29  48  73  99 125 156 195 238 283
#     4  10  19  31  48  71  97 125 156 194 238 283
#     4   9  17  30  48  70  96 128 161 195 238 286
#     4   9  17  30  49  73  95 118 151 193 242 292
#     4  10  20  32  49  71  95 126 161 195 239 290
#
# _framework density 25.006115000000001
#
# number of rings (size 3 to 8) (size 9 to 14) (size 15 to 20)
#    0.000    2.500    0.000    4.125    0.000    6.500 
#    0.000    0.000    0.000    1.500    0.000    0.000 
#    0.000    0.000    0.000    0.000    0.000    0.000 
#
# Total GULP energy -178273.925628 kJ/mol
# GULP energy per Si atom -5571.060176 kJ/mol
# Density = 2.494920 g / cm^3
# Si number density = 25.006115 Si / 1000 Ang^3
#
#
#
# Elastic Constant Matrix: (Units=GPa)
#
#
# Indices 1 2 3 4 5 6 
#
# 1 81.2881 1.0036 9.6528 0.0000 0.0000 0.0000
# 2 1.0036 52.7463 25.9462 0.0000 0.0000 0.0000
# 3 9.6528 25.9462 192.1130 0.0000 0.0000 0.0000
# 4 0.0000 0.0000 0.0000 17.5979 0.0000 0.0000
# 5 0.0000 0.0000 0.0000 0.0000 -23.9240 0.0000
# 6 0.0000 0.0000 0.0000 0.0000 0.0000 7.1833
#
#
#
# Elastic Compliance Matrix: (Units=1/GPa)
#
#
# Indices 1 2 3 4 5 6 
#
# 1 0.012376 0.000075 -0.000632 0.000000 0.000000 0.000000
# 2 0.000075 0.020308 -0.002747 0.000000 0.000000 0.000000
# 3 -0.000632 -0.002747 0.005608 0.000000 0.000000 0.000000
# 4 0.000000 0.000000 0.000000 0.056825 0.000000 0.000000
# 5 0.000000 0.000000 0.000000 0.000000 -0.041799 0.000000
# 6 0.000000 0.000000 0.000000 0.000000 0.000000 0.139212
#
#
# Mechanical properties :
#
#
# Convention : Reuss Voigt Hill
#
# Bulk Modulus (GPa) = 31.55971 44.37251 37.96611
# Shear Modulus (GPa) = 23.84373 19.47444 21.65908
#
# Velocity S-wave (km/s) = 3.09126 2.79370 2.94624
# Velocity P-wave (km/s) = 5.03878 5.30938 5.17585
#
# Compressibility (1/GPa) = 0.03168597
#
# Stress axis : x y z
#
# Youngs Moduli (GPa) = 80.80123 49.24099 178.31770
#
# Poissons Ratio (x) = -0.00371 0.11270
# Poissons Ratio (y) = -0.00609 0.48976
# Poissons Ratio (z) = 0.05107 0.13524
#
# Static dielectric constant tensor:
#      x y z
#    x 1.933410 0.000000 0.000000 
#    y 0.000000 2.302880 0.000000 
#    z 0.000000 0.000000 2.041890 
# 
# From -- ./inp_files/19738.got.cif
#   From: 2010.05.17/outbox.cif.g08.bks.cpg/sg46_10_cif.got.tgz:19738.got - 2010.06.03 19:58:25.
