data_PCOD9378383
_publ_section_title
;
Structure prediction by ZEFSAII (Michael W. Deem and Ramdas Pophale) SiO2 
 PCOD9378383
Probable space group: I M A 2
;
_chemical_formula_sum "Si O2"
_cell_formula_units_Z 40
_cell_length_a 16.056448
_cell_length_b 13.563519
_cell_length_c 7.821537
_cell_angle_alpha 90.000000
_cell_angle_beta 90.000000
_cell_angle_gamma 90.000000
_cell_volume 1703.389482
_symmetry_space_group_name_H-M "I M A 2"
_symmetry_group_IT_number 46
_symmetry_cell_setting 'orthorhombic'
loop_
_space_group_symop_operation_xyz
x,y,z
-x,-y,z
1/2-x,y,z
1/2+x,-y,z
1/2+x,1/2+y,1/2+z
1/2-x,1/2-y,1/2+z
-x,1/2+y,1/2+z
x,1/2-y,1/2+z
loop_
_atom_site_type_symbol
_atom_site_label
_atom_site_fract_x
_atom_site_fract_y
_atom_site_fract_z
Si Si1 0.589772 0.382992 0.996150
Si Si2 0.250000 0.206487 0.738307
Si Si3 0.906130 0.590271 0.124276
Si Si4 0.346351 0.712058 0.326805
Si Si5 0.910637 0.018834 0.995865
Si Si6 0.750000 0.908572 0.101674
O O1 0.609048 0.317628 0.833055
O O2 0.611502 0.497873 0.999663
O O3 0.494919 0.370367 0.060857
O O4 0.647005 0.332628 0.138969
O O5 0.332717 0.168333 0.641198
O O6 0.250000 0.153396 0.922391
O O7 0.250000 0.324204 0.743839
O O8 0.914576 0.541192 0.313632
O O9 0.250000 0.717862 0.374868
O O10 0.393426 0.631375 0.443339
O O11 0.832315 0.974902 0.095977
O O12 0.000000 0.000000 0.081336
#
# Coordination Sequence:
#
# PCOD9378383 Si02
#       6
#     8   4   8   8   8   4
#     4  10  21  36  58  84 114 146 192 229 281 334
#     4  10  22  34  61  82 112 148 191 230 279 330
#     4   9  19  37  58  81 110 154 192 224 269 344
#     4  11  21  35  58  86 112 148 187 234 282 334
#     4  10  18  36  59  81 109 148 192 230 268 335
#     4  10  22  38  57  88 108 150 193 232 279 334
#
# _framework density 23.482589999999998
#
# number of rings (size 3 to 8) (size 9 to 14) (size 15 to 20)
#    0.000    2.000    5.000    0.600    8.400    0.000 
#    0.000    2.000    4.400    0.000    0.000    0.000 
#    0.000    0.000    0.000    0.000    0.000    0.000 
#
# Total GULP energy -111878.988335 kJ/mol
# GULP energy per Si atom -5593.949417 kJ/mol
# Density = 2.342914 g / cm^3
# Si number density = 23.482590 Si / 1000 Ang^3
#
#
#
# Elastic Constant Matrix: (Units=GPa)
#
#
# Indices 1 2 3 4 5 6 
#
# 1 117.4456 32.7534 12.9902 0.0000 0.0000 0.0000
# 2 32.7534 63.9492 3.7320 0.0000 0.0000 0.0000
# 3 12.9902 3.7320 53.6096 0.0000 0.0000 0.0000
# 4 0.0000 0.0000 0.0000 32.2947 0.0000 0.0000
# 5 0.0000 0.0000 0.0000 0.0000 9.7106 0.0000
# 6 0.0000 0.0000 0.0000 0.0000 0.0000 35.6531
#
#
#
# Elastic Compliance Matrix: (Units=1/GPa)
#
#
# Indices 1 2 3 4 5 6 
#
# 1 0.010166 -0.005083 -0.002109 0.000000 0.000000 0.000000
# 2 -0.005083 0.018243 -0.000038 0.000000 0.000000 0.000000
# 3 -0.002109 -0.000038 0.019167 0.000000 0.000000 0.000000
# 4 0.000000 0.000000 0.000000 0.030965 0.000000 0.000000
# 5 0.000000 0.000000 0.000000 0.000000 0.102980 0.000000
# 6 0.000000 0.000000 0.000000 0.000000 0.000000 0.028048
#
#
# Mechanical properties :
#
#
# Convention : Reuss Voigt Hill
#
# Bulk Modulus (GPa) = 30.19877 37.10617 33.65247
# Shear Modulus (GPa) = 21.27034 27.90027 24.58531
#
# Velocity S-wave (km/s) = 3.01290 3.45066 3.23918
# Velocity P-wave (km/s) = 4.99914 5.63134 5.32463
#
# Compressibility (1/GPa) = 0.03311393
#
# Stress axis : x y z
#
# Youngs Moduli (GPa) = 98.37126 54.81465 52.17264
#
# Poissons Ratio (x) = 0.27865 0.11005
# Poissons Ratio (y) = 0.50007 0.00199
# Poissons Ratio (z) = 0.20750 0.00209
#
# Static dielectric constant tensor:
#      x y z
#    x 1.841430 0.000000 0.000000 
#    y 0.000000 1.886800 0.000000 
#    z 0.000000 0.000000 2.022670 
# 
# From -- ./inp_files/5440.got.cif
#   From: 2010.05.17/outbox.cif.g08.bks.cpg/sg46_3_cif.got.tgz:5440.got - 2010.06.03 19:58:25.
