data_PCOD9378102
_publ_section_title
;
Structure prediction by ZEFSAII (Michael W. Deem and Ramdas Pophale) SiO2 
 PCOD9378102
Probable space group: I M A 2
;
_chemical_formula_sum "Si O2"
_cell_formula_units_Z 56
_cell_length_a 13.843973
_cell_length_b 7.178527
_cell_length_c 21.555777
_cell_angle_alpha 90.000000
_cell_angle_beta 90.000000
_cell_angle_gamma 90.000000
_cell_volume 2142.198761
_symmetry_space_group_name_H-M "I M A 2"
_symmetry_group_IT_number 46
_symmetry_cell_setting 'orthorhombic'
loop_
_space_group_symop_operation_xyz
x,y,z
-x,-y,z
1/2-x,y,z
1/2+x,-y,z
1/2+x,1/2+y,1/2+z
1/2-x,1/2-y,1/2+z
-x,1/2+y,1/2+z
x,1/2-y,1/2+z
loop_
_atom_site_type_symbol
_atom_site_label
_atom_site_fract_x
_atom_site_fract_y
_atom_site_fract_z
Si Si1 0.362404 0.344112 0.013130
Si Si2 0.428495 0.760017 0.980080
Si Si3 0.134167 0.640519 0.606441
Si Si4 0.857523 0.081811 0.239847
Si Si5 0.472637 0.719125 0.851813
Si Si6 0.141940 0.337542 0.283704
Si Si7 0.633791 0.554154 0.147054
O O1 0.250000 0.292918 0.000503
O O2 0.375858 0.565416 0.998729
O O3 0.454819 0.259610 0.978913
O O4 0.383993 0.318268 0.086815
O O5 0.402208 0.894237 0.037081
O O6 0.406311 0.789062 0.908047
O O7 0.250000 0.632649 0.600953
O O8 0.108522 0.535891 0.670034
O O9 0.101377 0.848981 0.626617
O O10 0.750000 0.164032 0.233686
O O11 0.920189 0.208586 0.284912
O O12 0.850155 0.885092 0.273482
O O13 0.500000 0.500000 0.865885
O O14 0.566693 0.843846 0.839264
O O15 0.250000 0.410157 0.295700
O O16 0.103608 0.404141 0.216729
O O17 0.750000 0.553412 0.150545
#
# Coordination Sequence:
#
# PCOD9378102 Si02
#       7
#     8   8   8   8   8   8   8
#     4   9  17  28  45  72 101 128 164 208 252 298
#     4  10  18  30  47  73 103 133 165 210 259 296
#     4   9  18  33  53  80 103 127 167 213 255 301
#     4   9  19  33  50  74 103 133 168 206 251 302
#     4  10  19  32  44  73 104 133 167 204 249 302
#     4   9  18  32  51  75 103 134 167 206 251 302
#     4   8  15  29  49  75  99 123 163 208 252 292
#
# _framework density 26.141365
#
# number of rings (size 3 to 8) (size 9 to 14) (size 15 to 20)
#    0.000    2.857    1.429    1.286    2.000    1.714 
#    0.000    0.000    0.000    0.000    7.429    0.000 
#    0.000    0.000    0.000    0.000    0.000    0.000 
#
# Total GULP energy -156413.744944 kJ/mol
# GULP energy per Si atom -5586.205177 kJ/mol
# Density = 2.608187 g / cm^3
# Si number density = 26.141365 Si / 1000 Ang^3
#
#
#
# Elastic Constant Matrix: (Units=GPa)
#
#
# Indices 1 2 3 4 5 6 
#
# 1 129.3436 5.9134 42.4353 0.0000 0.0000 0.0000
# 2 5.9134 39.4256 26.5464 0.0000 0.0000 0.0000
# 3 42.4353 26.5464 185.6656 0.0000 0.0000 0.0000
# 4 0.0000 0.0000 0.0000 33.8039 0.0000 0.0000
# 5 0.0000 0.0000 0.0000 0.0000 56.6548 0.0000
# 6 0.0000 0.0000 0.0000 0.0000 0.0000 21.9449
#
#
#
# Elastic Compliance Matrix: (Units=1/GPa)
#
#
# Indices 1 2 3 4 5 6 
#
# 1 0.008358 0.000036 -0.001915 0.000000 0.000000 0.000000
# 2 0.000036 0.028066 -0.004021 0.000000 0.000000 0.000000
# 3 -0.001915 -0.004021 0.006399 0.000000 0.000000 0.000000
# 4 0.000000 0.000000 0.000000 0.029582 0.000000 0.000000
# 5 0.000000 0.000000 0.000000 0.000000 0.017651 0.000000
# 6 0.000000 0.000000 0.000000 0.000000 0.000000 0.045569
#
#
# Mechanical properties :
#
#
# Convention : Reuss Voigt Hill
#
# Bulk Modulus (GPa) = 32.23497 56.02499 44.12998
# Shear Modulus (GPa) = 31.69232 41.11669 36.40451
#
# Velocity S-wave (km/s) = 3.48565 3.97023 3.73581
# Velocity P-wave (km/s) = 5.34392 6.51882 5.96039
#
# Compressibility (1/GPa) = 0.03102221
#
# Stress axis : x y z
#
# Youngs Moduli (GPa) = 119.64404 35.62982 156.27997
#
# Poissons Ratio (x) = -0.00129 0.29935
# Poissons Ratio (y) = -0.00432 0.62843
# Poissons Ratio (z) = 0.22918 0.14327
#
# Static dielectric constant tensor:
#      x y z
#    x 2.063590 0.000000 0.000000 
#    y 0.000000 2.155530 0.000000 
#    z 0.000000 0.000000 2.048770 
# 
# From -- ./inp_files/22039.got.cif
#   From: 2010.05.17/outbox.cif.g08.bks.cpg/sg46_12_cif.got.tgz:22039.got - 2010.06.03 19:58:25.
