data_PCOD9378450
_publ_section_title
;
Structure prediction by ZEFSAII (Michael W. Deem and Ramdas Pophale) SiO2 
 PCOD9378450
Probable space group: I M A 2
;
_chemical_formula_sum "Si O2"
_cell_formula_units_Z 64
_cell_length_a 9.292671
_cell_length_b 33.723444
_cell_length_c 11.923695
_cell_angle_alpha 90.000000
_cell_angle_beta 90.000000
_cell_angle_gamma 90.000000
_cell_volume 3736.657914
_symmetry_space_group_name_H-M "I M A 2"
_symmetry_group_IT_number 46
_symmetry_cell_setting 'orthorhombic'
loop_
_space_group_symop_operation_xyz
x,y,z
-x,-y,z
1/2-x,y,z
1/2+x,-y,z
1/2+x,1/2+y,1/2+z
1/2-x,1/2-y,1/2+z
-x,1/2+y,1/2+z
x,1/2-y,1/2+z
loop_
_atom_site_type_symbol
_atom_site_label
_atom_site_fract_x
_atom_site_fract_y
_atom_site_fract_z
Si Si1 0.581812 0.460514 0.447150
Si Si2 0.922320 0.458548 0.180241
Si Si3 0.421300 0.767668 0.991517
Si Si4 0.915912 0.674086 0.333323
Si Si5 0.078019 0.121708 0.617695
Si Si6 0.082146 0.316185 0.680582
Si Si7 0.081052 0.311169 0.945102
Si Si8 0.588207 0.610626 0.535828
O O1 0.500000 0.500000 0.481284
O O2 0.750000 0.465995 0.460443
O O3 0.552760 0.453710 0.314482
O O4 0.524950 0.423399 0.515828
O O5 0.750000 0.460794 0.161514
O O6 0.000000 0.500000 0.147640
O O7 0.992179 0.419421 0.125416
O O8 0.250000 0.769041 0.987388
O O9 0.481587 0.789915 0.101598
O O10 0.488250 0.790557 0.883153
O O11 0.482153 0.723350 0.993555
O O12 0.750000 0.687892 0.319235
O O13 0.961610 0.651754 0.219895
O O14 0.917085 0.640653 0.430255
O O15 0.250000 0.113746 0.629696
O O16 0.053504 0.146868 0.504983
O O17 0.250000 0.306151 0.655044
O O18 0.058310 0.312049 0.811944
O O19 0.062688 0.361654 0.642495
O O20 0.250000 0.301660 0.966342
O O21 0.750000 0.593908 0.539823
#
# Coordination Sequence:
#
# PCOD9378450 Si02
#       8
#     8   8   8   8   8   8   8   8
#     4  10  19  29  46  75 108 139 170 208 259 317
#     4  10  20  33  52  79 114 149 180 221 274 331
#     4  11  23  36  54  80 110 141 179 228 278 321
#     4   9  18  33  53  77 106 141 179 215 265 329
#     4  10  20  35  57  83 109 142 183 229 277 328
#     4   9  20  39  58  76 102 141 185 221 265 324
#     4  10  22  39  59  80 105 143 188 228 270 328
#     4   9  16  30  52  74 100 134 168 212 261 310
#
# _framework density 17.127606
#
# number of rings (size 3 to 8) (size 9 to 14) (size 15 to 20)
#    0.000    2.250    1.250    2.625    1.750    4.500 
#    0.000    0.000    0.000    0.750    0.000    0.000 
#    0.000    0.000    0.000    0.000    0.000    0.000 
#
# Total GULP energy -178528.585788 kJ/mol
# GULP energy per Si atom -5579.018306 kJ/mol
# Density = 1.708862 g / cm^3
# Si number density = 17.127606 Si / 1000 Ang^3
#
#
#
# Elastic Constant Matrix: (Units=GPa)
#
#
# Indices 1 2 3 4 5 6 
#
# 1 88.6947 72.5365 39.3188 0.0000 0.0001 0.0000
# 2 72.5365 99.3183 33.0193 -0.0001 0.0000 0.0000
# 3 39.3188 33.0193 53.2743 -0.0004 0.0001 0.0000
# 4 0.0000 -0.0001 -0.0004 17.1912 0.0000 0.0000
# 5 0.0001 0.0000 0.0001 0.0000 11.9515 -0.0001
# 6 0.0000 0.0000 0.0000 0.0000 -0.0001 33.2321
#
#
#
# Elastic Compliance Matrix: (Units=1/GPa)
#
#
# Indices 1 2 3 4 5 6 
#
# 1 0.033054 -0.020191 -0.011881 0.000000 0.000000 0.000000
# 2 -0.020191 0.025015 -0.000603 0.000000 0.000000 0.000000
# 3 -0.011881 -0.000603 0.027913 0.000001 0.000000 0.000000
# 4 0.000000 0.000000 0.000001 0.058169 0.000000 0.000000
# 5 0.000000 0.000000 0.000000 0.000000 0.083671 0.000000
# 6 0.000000 0.000000 0.000000 0.000000 0.000000 0.030091
#
#
# Mechanical properties :
#
#
# Convention : Reuss Voigt Hill
#
# Bulk Modulus (GPa) = 48.46565 59.00406 53.73486
# Shear Modulus (GPa) = 15.14499 18.90246 17.02372
#
# Velocity S-wave (km/s) = 2.97685 3.32569 3.15609
# Velocity P-wave (km/s) = 6.33828 7.01936 6.68749
#
# Compressibility (1/GPa) = 0.02063317
#
# Stress axis : x y z
#
# Youngs Moduli (GPa) = 30.25333 39.97558 35.82536
#
# Poissons Ratio (x) = 0.80714 0.42565
# Poissons Ratio (y) = 0.61084 0.02159
# Poissons Ratio (z) = 0.35945 0.02409
#
# Static dielectric constant tensor:
#      x y z
#    x 1.575310 0.000000 0.000000 
#    y 0.000000 1.568830 0.000000 
#    z 0.000000 0.000000 1.576240 
# 
# From -- ./inp_files/9693.got.cif
#   From: 2010.05.17/outbox.cif.g08.bks.cpg/sg46_5_cif.got.tgz:9693.got - 2010.06.03 19:58:25.
