data_PCOD9378362
_publ_section_title
;
Structure prediction by ZEFSAII (Michael W. Deem and Ramdas Pophale) SiO2 
 PCOD9378362
Probable space group: I M A 2
;
_chemical_formula_sum "Si O2"
_cell_formula_units_Z 32
_cell_length_a 5.552781
_cell_length_b 15.480064
_cell_length_c 17.174598
_cell_angle_alpha 90.000000
_cell_angle_beta 90.000000
_cell_angle_gamma 90.000000
_cell_volume 1476.283880
_symmetry_space_group_name_H-M "I M A 2"
_symmetry_group_IT_number 46
_symmetry_cell_setting 'orthorhombic'
loop_
_space_group_symop_operation_xyz
x,y,z
-x,-y,z
1/2-x,y,z
1/2+x,-y,z
1/2+x,1/2+y,1/2+z
1/2-x,1/2-y,1/2+z
-x,1/2+y,1/2+z
x,1/2-y,1/2+z
loop_
_atom_site_type_symbol
_atom_site_label
_atom_site_fract_x
_atom_site_fract_y
_atom_site_fract_z
Si Si1 0.250000 0.151722 0.039271
Si Si2 0.250000 0.746332 0.791636
Si Si3 0.750000 0.551571 0.266289
Si Si4 0.250000 0.897302 0.073809
Si Si5 0.750000 0.802799 0.871492
Si Si6 0.250000 0.806097 0.612836
Si Si7 0.750000 0.046264 0.249816
Si Si8 0.750000 0.824604 0.621249
O O1 0.488101 0.094096 0.036692
O O2 0.250000 0.218504 0.114095
O O3 0.250000 0.211485 0.963432
O O4 0.497916 0.769187 0.835880
O O5 0.250000 0.794573 0.707205
O O6 0.250000 0.644382 0.778006
O O7 0.500000 0.500000 0.254728
O O8 0.750000 0.595185 0.350966
O O9 0.750000 0.631726 0.205821
O O10 0.250000 0.792020 0.083717
O O11 0.250000 0.945289 0.155985
O O12 0.494636 0.850695 0.586354
O O13 0.500000 0.000000 0.272915
#
# Coordination Sequence:
#
# PCOD9378362 Si02
#       8
#     4   4   4   4   4   4   4   4
#     4  10  21  37  61  88 115 153 210 256 296 356
#     4  11  20  36  61  85 120 156 206 255 301 361
#     4  12  24  38  59  90 125 160 198 254 320 363
#     4   9  19  34  55  82 117 150 190 241 300 355
#     4  12  23  39  61  90 121 164 214 256 303 382
#     4   9  15  30  55  82 100 141 186 253 280 332
#     4  11  22  37  60  94 126 155 200 258 320 375
#     4  10  18  35  58  81 112 147 200 251 294 344
#
# _framework density 21.676045999999999
#
# number of rings (size 3 to 8) (size 9 to 14) (size 15 to 20)
#    0.000    1.500    2.500    3.750    0.000    2.000 
#    0.000    3.750    0.000    4.500    0.000    0.000 
#    0.000    0.000    0.000    0.000    0.000    0.000 
#
# Total GULP energy -89180.423607 kJ/mol
# GULP energy per Si atom -5573.776475 kJ/mol
# Density = 2.162671 g / cm^3
# Si number density = 21.676046 Si / 1000 Ang^3
#
#
#
# Elastic Constant Matrix: (Units=GPa)
#
#
# Indices 1 2 3 4 5 6 
#
# 1 288.2454 56.5208 33.1541 0.0000 0.0000 0.0000
# 2 56.5208 67.2860 33.5017 0.0000 0.0000 0.0000
# 3 33.1541 33.5017 52.0858 0.0000 0.0000 0.0000
# 4 0.0000 0.0000 0.0000 18.9871 0.0000 0.0000
# 5 0.0000 0.0000 0.0000 0.0000 9.5515 0.0000
# 6 0.0000 0.0000 0.0000 0.0000 0.0000 -53.8244
#
#
#
# Elastic Compliance Matrix: (Units=1/GPa)
#
#
# Indices 1 2 3 4 5 6 
#
# 1 0.004166 -0.003206 -0.000590 0.000000 0.000000 0.000000
# 2 -0.003206 0.024331 -0.013609 0.000000 0.000000 0.000000
# 3 -0.000590 -0.013609 0.028328 0.000000 0.000000 0.000000
# 4 0.000000 0.000000 0.000000 0.052667 0.000000 0.000000
# 5 0.000000 0.000000 0.000000 0.000000 0.104696 0.000000
# 6 0.000000 0.000000 0.000000 0.000000 0.000000 -0.018579
#
#
# Mechanical properties :
#
#
# Convention : Reuss Voigt Hill
#
# Bulk Modulus (GPa) = 45.42275 72.66337 59.04306
# Shear Modulus (GPa) = 21.03001 13.90553 17.46777
#
# Velocity S-wave (km/s) = 3.11818 2.53556 2.84184
# Velocity P-wave (km/s) = 5.82793 6.49364 6.16977
#
# Compressibility (1/GPa) = 0.02201540
#
# Stress axis : x y z
#
# Youngs Moduli (GPa) = 240.05776 41.10053 35.30093
#
# Poissons Ratio (x) = 0.13175 0.02082
# Poissons Ratio (y) = 0.76952 0.48041
# Poissons Ratio (z) = 0.14157 0.55934
#
# Static dielectric constant tensor:
#      x y z
#    x 1.916000 0.000000 0.000000 
#    y 0.000000 1.809440 0.000000 
#    z 0.000000 0.000000 1.778170 
# 
# From -- ./inp_files/17785.got.cif
#   From: 2010.05.17/outbox.cif.g08.bks.cpg/sg46_9_cif.got.tgz:17785.got - 2010.06.03 19:58:25.
