data_PCOD9378523
_publ_section_title
;
Structure prediction by ZEFSAII (Michael W. Deem and Ramdas Pophale) SiO2 
 PCOD9378523
Probable space group: I M A 2
;
_chemical_formula_sum "Si O2"
_cell_formula_units_Z 36
_cell_length_a 15.458141
_cell_length_b 20.447081
_cell_length_c 6.018138
_cell_angle_alpha 90.000000
_cell_angle_beta 90.000000
_cell_angle_gamma 90.000000
_cell_volume 1902.176115
_symmetry_space_group_name_H-M "I M A 2"
_symmetry_group_IT_number 46
_symmetry_cell_setting 'orthorhombic'
loop_
_space_group_symop_operation_xyz
x,y,z
-x,-y,z
1/2-x,y,z
1/2+x,-y,z
1/2+x,1/2+y,1/2+z
1/2-x,1/2-y,1/2+z
-x,1/2+y,1/2+z
x,1/2-y,1/2+z
loop_
_atom_site_type_symbol
_atom_site_label
_atom_site_fract_x
_atom_site_fract_y
_atom_site_fract_z
Si Si1 0.060563 0.396567 0.303300
Si Si2 0.651560 0.956836 0.422291
Si Si3 0.654460 0.820908 0.162705
Si Si4 0.517061 0.233276 0.678845
Si Si5 0.500000 0.500000 0.626379
O O1 0.135345 0.356186 0.428931
O O2 0.003824 0.343861 0.172409
O O3 0.003412 0.434239 0.482828
O O4 0.106965 0.451528 0.159610
O O5 0.750000 0.979719 0.423427
O O6 0.651832 0.881340 0.334994
O O7 0.587002 0.997567 0.269971
O O8 0.750000 0.790679 0.170233
O O9 0.574578 0.772387 0.194059
O O10 0.555039 0.253238 0.432501
#
# Coordination Sequence:
#
# PCOD9378523 Si02
#       5
#     8   8   8   8   4
#     4  10  19  33  49  72 106 151 193 234 281 330
#     4  10  19  34  53  75 106 148 195 238 282 337
#     4   9  18  29  45  73 108 144 181 220 271 339
#     4  10  19  31  47  73 107 142 183 223 277 343
#     4  10  22  36  52  74 108 152 200 246 286 334
#
# _framework density 18.925692000000002
#
# number of rings (size 3 to 8) (size 9 to 14) (size 15 to 20)
#    0.000    2.222    2.222    1.333    0.000    5.333 
#    0.000    0.000    0.000    0.000    0.000    0.000 
#    0.000   16.000    0.000    0.000    0.000    0.000 
#
# Total GULP energy -100227.094295 kJ/mol
# GULP energy per Si atom -5568.171905 kJ/mol
# Density = 1.888262 g / cm^3
# Si number density = 18.925692 Si / 1000 Ang^3
#
#
#
# Elastic Constant Matrix: (Units=GPa)
#
#
# Indices 1 2 3 4 5 6 
#
# 1 56.9864 33.2689 29.7742 0.0000 0.0000 0.0000
# 2 33.2689 35.9608 13.8532 0.0000 0.0000 0.0000
# 3 29.7742 13.8532 103.1908 0.0000 0.0000 0.0000
# 4 0.0000 0.0000 0.0000 29.7122 0.0000 0.0000
# 5 0.0000 0.0000 0.0000 0.0000 2.6958 0.0000
# 6 0.0000 0.0000 0.0000 0.0000 0.0000 17.5325
#
#
#
# Elastic Compliance Matrix: (Units=1/GPa)
#
#
# Indices 1 2 3 4 5 6 
#
# 1 0.042975 -0.036889 -0.007448 0.000000 0.000000 0.000000
# 2 -0.036889 0.060990 0.002456 0.000000 0.000000 0.000000
# 3 -0.007448 0.002456 0.011510 0.000000 0.000000 0.000000
# 4 0.000000 0.000000 0.000000 0.033656 0.000000 0.000000
# 5 0.000000 0.000000 0.000000 0.000000 0.370948 0.000000
# 6 0.000000 0.000000 0.000000 0.000000 0.000000 0.057037
#
#
# Mechanical properties :
#
#
# Convention : Reuss Voigt Hill
#
# Bulk Modulus (GPa) = 31.53234 38.88117 35.20675
# Shear Modulus (GPa) = 7.44658 17.93755 12.69207
#
# Velocity S-wave (km/s) = 1.98575 3.08196 2.59245
# Velocity P-wave (km/s) = 4.68560 5.76657 5.25396
#
# Compressibility (1/GPa) = 0.03171348
#
# Stress axis : x y z
#
# Youngs Moduli (GPa) = 23.26908 16.39617 86.88132
#
# Poissons Ratio (x) = 0.60485 0.64706
# Poissons Ratio (y) = 0.85838 -0.21339
# Poissons Ratio (z) = 0.17330 -0.04027
#
# Static dielectric constant tensor:
#      x y z
#    x 1.620750 0.000000 0.000000 
#    y 0.000000 1.674200 0.000000 
#    z 0.000000 0.000000 1.798140 
# 
# From -- ./inp_files/1629.got.cif
#   From: 2010.05.17/outbox.cif.g08.bks.cpg/sg46_1_cif.got.tgz:1629.got - 2010.06.03 19:58:25.
