data_PCOD9378279
_publ_section_title
;
Structure prediction by ZEFSAII (Michael W. Deem and Ramdas Pophale) SiO2 
 PCOD9378279
Probable space group: I M A 2
;
_chemical_formula_sum "Si O2"
_cell_formula_units_Z 56
_cell_length_a 17.290649
_cell_length_b 17.988344
_cell_length_c 9.423689
_cell_angle_alpha 90.000000
_cell_angle_beta 90.000000
_cell_angle_gamma 90.000000
_cell_volume 2931.051330
_symmetry_space_group_name_H-M "I M A 2"
_symmetry_group_IT_number 46
_symmetry_cell_setting 'orthorhombic'
loop_
_space_group_symop_operation_xyz
x,y,z
-x,-y,z
1/2-x,y,z
1/2+x,-y,z
1/2+x,1/2+y,1/2+z
1/2-x,1/2-y,1/2+z
-x,1/2+y,1/2+z
x,1/2-y,1/2+z
loop_
_atom_site_type_symbol
_atom_site_label
_atom_site_fract_x
_atom_site_fract_y
_atom_site_fract_z
Si Si1 0.919027 0.910384 0.649910
Si Si2 0.157684 0.205415 0.456740
Si Si3 0.029976 0.366698 0.755390
Si Si4 0.575229 0.635647 0.445314
Si Si5 0.572011 0.435011 0.996125
Si Si6 0.162971 0.804991 0.561464
Si Si7 0.932528 0.224408 0.825783
O O1 0.871073 0.838805 0.597234
O O2 0.901021 0.919218 0.816729
O O3 0.009993 0.900066 0.609146
O O4 0.905937 0.983888 0.554069
O O5 0.250000 0.200142 0.438429
O O6 0.106801 0.161253 0.339003
O O7 0.130689 0.291626 0.460034
O O8 0.056420 0.394603 0.601519
O O9 0.978577 0.291586 0.747972
O O10 0.976033 0.421615 0.850153
O O11 0.496103 0.667981 0.381165
O O12 0.648606 0.386587 0.997823
O O13 0.250000 0.780061 0.551513
O O14 0.133255 0.803993 0.721554
O O15 0.107555 0.755955 0.465356
#
# Coordination Sequence:
#
# PCOD9378279 Si02
#       7
#     8   8   8   8   8   8   8
#     4  10  20  37  59  80 110 150 194 237 276 341
#     4  10  21  35  55  87 123 154 186 232 291 345
#     4   9  19  34  57  80 115 153 191 235 280 335
#     4  11  19  33  60  87 108 149 188 244 283 322
#     4   9  20  38  55  79 108 152 196 229 274 354
#     4  11  20  32  54  82 116 148 183 233 284 335
#     4  10  18  33  52  84 114 146 189 228 280 335
#
# _framework density 19.105772000000002
#
# number of rings (size 3 to 8) (size 9 to 14) (size 15 to 20)
#    0.000    2.000    2.857    3.000    0.000    2.857 
#    0.000    5.714    0.000    0.000    0.000    0.000 
#    0.000    0.000    0.000    0.000    0.000    0.000 
#
# Total GULP energy -155885.711487 kJ/mol
# GULP energy per Si atom -5567.346839 kJ/mol
# Density = 1.906229 g / cm^3
# Si number density = 19.105772 Si / 1000 Ang^3
#
#
#
# Elastic Constant Matrix: (Units=GPa)
#
#
# Indices 1 2 3 4 5 6 
#
# 1 53.2586 3.3621 -12.3842 0.0000 0.0000 0.0000
# 2 3.3621 48.8798 17.9078 0.0000 0.0000 0.0000
# 3 -12.3842 17.9078 112.6561 0.0000 0.0000 0.0000
# 4 0.0000 0.0000 0.0000 7.1801 0.0000 0.0000
# 5 0.0000 0.0000 0.0000 0.0000 11.6714 0.0000
# 6 0.0000 0.0000 0.0000 0.0000 0.0000 5.5662
#
#
#
# Elastic Compliance Matrix: (Units=1/GPa)
#
#
# Indices 1 2 3 4 5 6 
#
# 1 0.019501 -0.002258 0.002503 0.000000 0.000000 0.000000
# 2 -0.002258 0.021985 -0.003743 0.000000 0.000000 0.000000
# 3 0.002503 -0.003743 0.009747 0.000000 0.000000 0.000000
# 4 0.000000 0.000000 0.000000 0.139273 0.000000 0.000000
# 5 0.000000 0.000000 0.000000 0.000000 0.085680 0.000000
# 6 0.000000 0.000000 0.000000 0.000000 0.000000 0.179655
#
#
# Mechanical properties :
#
#
# Convention : Reuss Voigt Hill
#
# Bulk Modulus (GPa) = 22.60633 25.84066 24.22349
# Shear Modulus (GPa) = 10.46939 18.61079 14.54009
#
# Velocity S-wave (km/s) = 2.34342 3.12443 2.76167
# Velocity P-wave (km/s) = 4.37950 5.15466 4.78281
#
# Compressibility (1/GPa) = 0.04423540
#
# Stress axis : x y z
#
# Youngs Moduli (GPa) = 51.27994 45.48559 102.59914
#
# Poissons Ratio (x) = 0.10272 -0.25677
# Poissons Ratio (y) = 0.11580 0.38403
# Poissons Ratio (z) = -0.12834 0.17025
#
# Static dielectric constant tensor:
#      x y z
#    x 1.639170 0.000000 0.000000 
#    y 0.000000 1.723580 0.000000 
#    z 0.000000 0.000000 1.718410 
# 
# From -- ./inp_files/6871.got.cif
#   From: 2010.05.17/outbox.cif.g08.bks.cpg/sg46_4_cif.got.tgz:6871.got - 2010.06.03 19:58:25.
