data_PCOD9378765
_publ_section_title
;
Structure prediction by ZEFSAII (Michael W. Deem and Ramdas Pophale) SiO2 
 PCOD9378765
Probable space group: I M A 2
;
_chemical_formula_sum "Si O2"
_cell_formula_units_Z 40
_cell_length_a 17.915161
_cell_length_b 15.220893
_cell_length_c 5.555145
_cell_angle_alpha 90.000000
_cell_angle_beta 90.000000
_cell_angle_gamma 90.000000
_cell_volume 1514.803318
_symmetry_space_group_name_H-M "I M A 2"
_symmetry_group_IT_number 46
_symmetry_cell_setting 'orthorhombic'
loop_
_space_group_symop_operation_xyz
x,y,z
-x,-y,z
1/2-x,y,z
1/2+x,-y,z
1/2+x,1/2+y,1/2+z
1/2-x,1/2-y,1/2+z
-x,1/2+y,1/2+z
x,1/2-y,1/2+z
loop_
_atom_site_type_symbol
_atom_site_label
_atom_site_fract_x
_atom_site_fract_y
_atom_site_fract_z
Si Si1 0.590134 0.015991 0.286870
Si Si2 0.835872 0.301645 0.668058
Si Si3 0.579305 0.949370 0.792418
Si Si4 0.671315 0.804877 0.305220
Si Si5 0.016988 0.254059 0.317567
O O1 0.618232 0.979779 0.545040
O O2 0.581306 0.820570 0.309596
O O3 0.500000 0.000000 0.290638
O O4 0.620647 0.972402 0.040476
O O5 0.750000 0.334939 0.690564
O O6 0.840865 0.271146 0.385374
O O7 0.889100 0.382546 0.749319
O O8 0.557836 0.847850 0.804875
O O9 0.500000 0.000000 0.796036
O O10 0.750000 0.857754 0.307306
O O11 0.676143 0.749793 0.555390
O O12 0.975398 0.248820 0.567526
#
# Coordination Sequence:
#
# PCOD9378765 Si02
#       5
#     8   8   8   8   8
#     4  10  21  40  60  86 127 164 200 257 329 402
#     4  10  21  40  68  99 130 168 219 278 334 393
#     4  10  21  38  55  79 118 157 195 254 318 375
#     4   8  14  25  42  64  89 116 151 201 251 294
#     4  10  19  33  53  74 100 139 188 234 277 338
#
# _framework density 26.406067
#
# number of rings (size 3 to 8) (size 9 to 14) (size 15 to 20)
#    0.000    2.400    0.000    2.400    0.000    0.000 
#    0.000   26.000    0.000    2.400    0.000    0.000 
#    0.000   11.200    0.000    0.000    0.000    0.000 
#
# Total GULP energy -111460.513760 kJ/mol
# GULP energy per Si atom -5573.025688 kJ/mol
# Density = 2.634597 g / cm^3
# Si number density = 26.406067 Si / 1000 Ang^3
#
#
#
# Elastic Constant Matrix: (Units=GPa)
#
#
# Indices 1 2 3 4 5 6 
#
# 1 67.8946 -4.1420 1.3982 0.0000 0.0000 0.0000
# 2 -4.1420 114.4470 55.4468 0.0000 0.0000 0.0000
# 3 1.3982 55.4468 316.6150 0.0000 0.0000 0.0000
# 4 0.0000 0.0000 0.0000 46.2984 0.0000 0.0000
# 5 0.0000 0.0000 0.0000 0.0000 30.7419 0.0000
# 6 0.0000 0.0000 0.0000 0.0000 0.0000 30.9446
#
#
#
# Elastic Compliance Matrix: (Units=1/GPa)
#
#
# Indices 1 2 3 4 5 6 
#
# 1 0.014770 0.000619 -0.000174 0.000000 0.000000 0.000000
# 2 0.000619 0.009574 -0.001679 0.000000 0.000000 0.000000
# 3 -0.000174 -0.001679 0.003453 0.000000 0.000000 0.000000
# 4 0.000000 0.000000 0.000000 0.021599 0.000000 0.000000
# 5 0.000000 0.000000 0.000000 0.000000 0.032529 0.000000
# 6 0.000000 0.000000 0.000000 0.000000 0.000000 0.032316
#
#
# Mechanical properties :
#
#
# Convention : Reuss Voigt Hill
#
# Bulk Modulus (GPa) = 39.48126 67.15140 53.31633
# Shear Modulus (GPa) = 39.95143 51.34721 45.64932
#
# Velocity S-wave (km/s) = 3.89390 4.41446 4.16233
# Velocity P-wave (km/s) = 5.93302 7.17417 6.58291
#
# Compressibility (1/GPa) = 0.02532847
#
# Stress axis : x y z
#
# Youngs Moduli (GPa) = 67.70469 104.45343 289.58120
#
# Poissons Ratio (x) = -0.06462 0.05026
# Poissons Ratio (y) = -0.04188 0.48629
# Poissons Ratio (z) = 0.01175 0.17541
#
# Static dielectric constant tensor:
#      x y z
#    x 2.223330 0.000000 0.000000 
#    y 0.000000 2.160270 0.000000 
#    z 0.000000 0.000000 2.125550 
# 
# From -- ./inp_files/1994.got.cif
#   From: 2010.05.17/outbox.cif.g08.bks.cpg/sg46_1_cif.got.tgz:1994.got - 2010.06.03 19:58:25.
