data_PCOD9378319
_publ_section_title
;
Structure prediction by ZEFSAII (Michael W. Deem and Ramdas Pophale) SiO2 
 PCOD9378319
Probable space group: I M A 2
;
_chemical_formula_sum "Si O2"
_cell_formula_units_Z 56
_cell_length_a 8.851334
_cell_length_b 19.473119
_cell_length_c 18.097510
_cell_angle_alpha 90.000000
_cell_angle_beta 90.000000
_cell_angle_gamma 90.000000
_cell_volume 3119.342569
_symmetry_space_group_name_H-M "I M A 2"
_symmetry_group_IT_number 46
_symmetry_cell_setting 'orthorhombic'
loop_
_space_group_symop_operation_xyz
x,y,z
-x,-y,z
1/2-x,y,z
1/2+x,-y,z
1/2+x,1/2+y,1/2+z
1/2-x,1/2-y,1/2+z
-x,1/2+y,1/2+z
x,1/2-y,1/2+z
loop_
_atom_site_type_symbol
_atom_site_label
_atom_site_fract_x
_atom_site_fract_y
_atom_site_fract_z
Si Si1 0.428675 0.666192 0.534780
Si Si2 0.424111 0.435481 0.274651
Si Si3 0.928032 0.430567 0.114127
Si Si4 0.927796 0.791544 0.615407
Si Si5 0.433083 0.206286 0.258344
Si Si6 0.425417 0.192744 0.882668
Si Si7 0.069372 0.575630 0.674953
O O1 0.250000 0.680780 0.542751
O O2 0.530285 0.728278 0.564223
O O3 0.473579 0.664427 0.449284
O O4 0.461278 0.603090 0.590894
O O5 0.500000 0.500000 0.315389
O O6 0.250000 0.450809 0.255535
O O7 0.517204 0.427437 0.199410
O O8 0.425959 0.367404 0.322127
O O9 0.750000 0.434189 0.108906
O O10 0.000000 0.500000 0.082066
O O11 0.989796 0.358641 0.085111
O O12 0.750000 0.805690 0.619187
O O13 0.976143 0.763395 0.696311
O O14 0.250000 0.200529 0.256510
O O15 0.474593 0.238251 0.338322
O O16 0.503173 0.134402 0.230177
O O17 0.250000 0.202122 0.906701
O O18 0.250000 0.572745 0.684391
O O19 0.000000 0.500000 0.685896
#
# Coordination Sequence:
#
# PCOD9378319 Si02
#       7
#     8   8   8   8   8   8   8
#     4  10  22  36  52  79 109 140 181 223 270 326
#     4  10  19  32  47  71 104 138 176 211 253 306
#     4  11  20  30  48  74 103 134 170 211 256 304
#     4  10  18  34  55  75 102 136 175 220 266 316
#     4   9  18  34  56  79 105 138 180 225 271 322
#     4  10  20  35  53  76 108 146 183 218 269 329
#     4  10  21  37  57  82 110 142 185 230 278 330
#
# _framework density 17.952500000000001
#
# number of rings (size 3 to 8) (size 9 to 14) (size 15 to 20)
#    0.000    2.000    1.429    3.857    0.000    4.571 
#    0.000    2.857    0.000    0.857    0.000    2.000 
#    0.000    0.000    0.000    0.000    0.000    0.000 
#
# Total GULP energy -156008.148807 kJ/mol
# GULP energy per Si atom -5571.719600 kJ/mol
# Density = 1.791164 g / cm^3
# Si number density = 17.952500 Si / 1000 Ang^3
#
#
#
# Elastic Constant Matrix: (Units=GPa)
#
#
# Indices 1 2 3 4 5 6 
#
# 1 69.9690 37.6859 1.3768 0.0000 0.0000 0.0000
# 2 37.6859 122.2708 7.0479 0.0000 0.0000 0.0000
# 3 1.3768 7.0479 26.9320 0.0000 0.0000 0.0000
# 4 0.0000 0.0000 0.0000 11.3732 0.0000 0.0000
# 5 0.0000 0.0000 0.0000 0.0000 22.4023 0.0000
# 6 0.0000 0.0000 0.0000 0.0000 0.0000 22.9561
#
#
#
# Elastic Compliance Matrix: (Units=1/GPa)
#
#
# Indices 1 2 3 4 5 6 
#
# 1 0.017144 -0.005314 0.000514 0.000000 0.000000 0.000000
# 2 -0.005314 0.009951 -0.002332 0.000000 0.000000 0.000000
# 3 0.000514 -0.002332 0.037715 0.000000 0.000000 0.000000
# 4 0.000000 0.000000 0.000000 0.087926 0.000000 0.000000
# 5 0.000000 0.000000 0.000000 0.000000 0.044638 0.000000
# 6 0.000000 0.000000 0.000000 0.000000 0.000000 0.043561
#
#
# Mechanical properties :
#
#
# Convention : Reuss Voigt Hill
#
# Bulk Modulus (GPa) = 19.78417 34.59922 27.19170
# Shear Modulus (GPa) = 18.37914 22.88372 20.63143
#
# Velocity S-wave (km/s) = 3.20310 3.57414 3.39370
# Velocity P-wave (km/s) = 4.97233 6.02886 5.52590
#
# Compressibility (1/GPa) = 0.05054545
#
# Stress axis : x y z
#
# Youngs Moduli (GPa) = 58.32971 100.49466 26.51486
#
# Poissons Ratio (x) = 0.53400 -0.01363
# Poissons Ratio (y) = 0.30995 0.06184
# Poissons Ratio (z) = -0.02999 0.23439
#
# Static dielectric constant tensor:
#      x y z
#    x 1.617940 0.000000 0.000000 
#    y 0.000000 1.669640 0.000000 
#    z 0.000000 0.000000 1.645210 
# 
# From -- ./inp_files/21233.got.cif
#   From: 2010.05.17/outbox.cif.g08.bks.cpg/sg46_11_cif.got.tgz:21233.got - 2010.06.03 19:58:25.
