data_PCOD9378747
_publ_section_title
;
Structure prediction by ZEFSAII (Michael W. Deem and Ramdas Pophale) SiO2 
 PCOD9378747
Probable space group: I M A 2
;
_chemical_formula_sum "Si O2"
_cell_formula_units_Z 64
_cell_length_a 21.176364
_cell_length_b 17.598600
_cell_length_c 9.428268
_cell_angle_alpha 90.000000
_cell_angle_beta 90.000000
_cell_angle_gamma 90.000000
_cell_volume 3513.673738
_symmetry_space_group_name_H-M "I M A 2"
_symmetry_group_IT_number 46
_symmetry_cell_setting 'orthorhombic'
loop_
_space_group_symop_operation_xyz
x,y,z
-x,-y,z
1/2-x,y,z
1/2+x,-y,z
1/2+x,1/2+y,1/2+z
1/2-x,1/2-y,1/2+z
-x,1/2+y,1/2+z
x,1/2-y,1/2+z
loop_
_atom_site_type_symbol
_atom_site_label
_atom_site_fract_x
_atom_site_fract_y
_atom_site_fract_z
Si Si1 0.181374 0.501951 0.233800
Si Si2 0.681106 0.918421 0.429655
Si Si3 0.514920 0.860327 0.002191
Si Si4 0.456931 0.074840 0.311058
Si Si5 0.156434 0.271099 0.106739
Si Si6 0.489067 0.304502 0.053396
Si Si7 0.155446 0.150341 0.895252
Si Si8 0.454680 0.930366 0.752354
O O1 0.250000 0.539302 0.251737
O O2 0.176434 0.433063 0.347693
O O3 0.118427 0.550655 0.240924
O O4 0.179206 0.465475 0.076668
O O5 0.750000 0.930841 0.361391
O O6 0.617794 0.936807 0.342492
O O7 0.677603 0.832659 0.490153
O O8 0.579341 0.852423 0.910430
O O9 0.470563 0.916125 0.915749
O O10 0.532921 0.894598 0.153163
O O11 0.483097 0.777538 0.016128
O O12 0.478604 0.141207 0.418616
O O13 0.500000 0.000000 0.333722
O O14 0.175959 0.295981 0.263544
O O15 0.080480 0.280562 0.108768
O O16 0.175030 0.189561 0.043303
O O17 0.525970 0.355274 0.166153
O O18 0.500000 0.000000 0.701994
#
# Coordination Sequence:
#
# PCOD9378747 Si02
#       8
#     8   8   8   8   8   8   8   8
#     4  10  21  37  58  83 111 149 199 243 283 345
#     4   9  19  36  54  77 110 149 193 232 270 331
#     4  11  22  34  55  85 118 144 180 242 293 341
#     4  11  22  35  56  82 113 145 186 233 284 333
#     4   9  18  30  52  76 107 148 183 225 272 329
#     4  10  20  34  55  84 109 145 188 235 282 338
#     4  10  19  33  51  78 113 147 185 229 276 338
#     4  12  19  36  62  84 112 150 194 240 290 341
#
# _framework density 18.214555000000001
#
# number of rings (size 3 to 8) (size 9 to 14) (size 15 to 20)
#    0.000    1.750    2.500    3.750    8.750    0.500 
#    0.000    0.625    0.000    0.750    0.000    1.750 
#    0.000    0.000    0.000    0.000    0.000    0.000 
#
# Total GULP energy -178541.820176 kJ/mol
# GULP energy per Si atom -5579.431881 kJ/mol
# Density = 1.817310 g / cm^3
# Si number density = 18.214555 Si / 1000 Ang^3
#
#
#
# Elastic Constant Matrix: (Units=GPa)
#
#
# Indices 1 2 3 4 5 6 
#
# 1 135.8623 46.3697 34.8036 0.0000 0.0000 0.0000
# 2 46.3697 67.6661 17.5704 0.0000 0.0000 0.0000
# 3 34.8036 17.5704 68.0910 0.0000 0.0000 0.0000
# 4 0.0000 0.0000 0.0000 32.1300 0.0000 0.0000
# 5 0.0000 0.0000 0.0000 0.0000 12.6741 0.0000
# 6 0.0000 0.0000 0.0000 0.0000 0.0000 8.7464
#
#
#
# Elastic Compliance Matrix: (Units=1/GPa)
#
#
# Indices 1 2 3 4 5 6 
#
# 1 0.010424 -0.006174 -0.003735 0.000000 0.000000 0.000000
# 2 -0.006174 0.019496 -0.001875 0.000000 0.000000 0.000000
# 3 -0.003735 -0.001875 0.017079 0.000000 0.000000 0.000000
# 4 0.000000 0.000000 0.000000 0.031124 0.000000 0.000000
# 5 0.000000 0.000000 0.000000 0.000000 0.078901 0.000000
# 6 0.000000 0.000000 0.000000 0.000000 0.000000 0.114332
#
#
# Mechanical properties :
#
#
# Convention : Reuss Voigt Hill
#
# Bulk Modulus (GPa) = 42.67753 52.12297 47.40025
# Shear Modulus (GPa) = 16.51610 22.23516 19.37563
#
# Velocity S-wave (km/s) = 3.01450 3.49769 3.26505
# Velocity P-wave (km/s) = 5.96637 6.70746 6.34774
#
# Compressibility (1/GPa) = 0.02343153
#
# Stress axis : x y z
#
# Youngs Moduli (GPa) = 95.93016 51.29267 58.55047
#
# Poissons Ratio (x) = 0.31666 0.21869
# Poissons Ratio (y) = 0.59223 0.10980
# Poissons Ratio (z) = 0.35831 0.09619
#
# Static dielectric constant tensor:
#      x y z
#    x 1.662850 0.000000 0.000000 
#    y 0.000000 1.636620 0.000000 
#    z 0.000000 0.000000 1.655600 
# 
# From -- ./inp_files/7554.got.cif
#   From: 2010.05.17/outbox.cif.g08.bks.cpg/sg46_4_cif.got.tgz:7554.got - 2010.06.03 19:58:25.
