data_PCOD9378485
_publ_section_title
;
Structure prediction by ZEFSAII (Michael W. Deem and Ramdas Pophale) SiO2 
 PCOD9378485
Probable space group: I M A 2
;
_chemical_formula_sum "Si O2"
_cell_formula_units_Z 64
_cell_length_a 15.895401
_cell_length_b 24.028084
_cell_length_c 9.007909
_cell_angle_alpha 90.000000
_cell_angle_beta 90.000000
_cell_angle_gamma 90.000000
_cell_volume 3440.445006
_symmetry_space_group_name_H-M "I M A 2"
_symmetry_group_IT_number 46
_symmetry_cell_setting 'orthorhombic'
loop_
_space_group_symop_operation_xyz
x,y,z
-x,-y,z
1/2-x,y,z
1/2+x,-y,z
1/2+x,1/2+y,1/2+z
1/2-x,1/2-y,1/2+z
-x,1/2+y,1/2+z
x,1/2-y,1/2+z
loop_
_atom_site_type_symbol
_atom_site_label
_atom_site_fract_x
_atom_site_fract_y
_atom_site_fract_z
Si Si1 0.501804 0.437194 0.315150
Si Si2 0.848958 0.566608 0.085381
Si Si3 0.472851 0.678456 0.426023
Si Si4 0.349813 0.560395 0.072354
Si Si5 0.563195 0.747920 0.677505
Si Si6 0.849948 0.271025 0.241458
Si Si7 0.151300 0.179768 0.431989
Si Si8 0.850960 0.171598 0.431081
O O1 0.500000 0.500000 0.376070
O O2 0.416822 0.429777 0.217676
O O3 0.507768 0.386529 0.429099
O O4 0.583748 0.432821 0.206833
O O5 0.750000 0.573827 0.130877
O O6 0.856413 0.503799 0.023260
O O7 0.869633 0.616014 0.971847
O O8 0.507084 0.712575 0.563674
O O9 0.517204 0.706679 0.281364
O O10 0.376589 0.689919 0.379903
O O11 0.250000 0.569734 0.112783
O O12 0.374281 0.607192 0.951506
O O13 0.626412 0.782692 0.573734
O O14 0.605078 0.704893 0.790556
O O15 0.750000 0.268194 0.231371
O O16 0.881159 0.209849 0.295350
O O17 0.876369 0.298064 0.085059
O O18 0.250000 0.183436 0.406480
O O19 0.750000 0.172500 0.423024
#
# Coordination Sequence:
#
# PCOD9378485 Si02
#       8
#     8   8   8   8   8   8   8   8
#     4  10  19  32  52  75 103 138 178 219 262 311
#     4   9  18  32  52  78 104 131 174 222 263 308
#     4  11  20  34  51  76 107 141 173 222 266 320
#     4   9  17  30  50  78 104 134 174 220 258 304
#     4  10  22  33  51  78 108 136 172 215 274 322
#     4  10  19  30  47  72 102 138 173 210 254 308
#     4  10  19  36  56  78 105 136 174 218 270 330
#     4   9  17  29  46  71 101 134 173 212 256 305
#
# _framework density 18.602245
#
# number of rings (size 3 to 8) (size 9 to 14) (size 15 to 20)
#    0.000    2.250    2.500    1.125    0.000    0.000 
#    0.000    0.625    0.000    5.250    0.000    1.750 
#    0.000    0.000    0.000    0.000    0.000    0.000 
#
# Total GULP energy -178270.579835 kJ/mol
# GULP energy per Si atom -5570.955620 kJ/mol
# Density = 1.855991 g / cm^3
# Si number density = 18.602245 Si / 1000 Ang^3
#
#
#
# Elastic Constant Matrix: (Units=GPa)
#
#
# Indices 1 2 3 4 5 6 
#
# 1 46.3712 21.6707 9.8696 0.0000 0.0000 0.0000
# 2 21.6707 135.5158 17.6462 0.0000 0.0000 0.0000
# 3 9.8696 17.6462 41.7823 0.0000 0.0000 0.0000
# 4 0.0000 0.0000 0.0000 25.2290 0.0000 0.0000
# 5 0.0000 0.0000 0.0000 0.0000 20.4879 0.0000
# 6 0.0000 0.0000 0.0000 0.0000 0.0000 26.1007
#
#
#
# Elastic Compliance Matrix: (Units=1/GPa)
#
#
# Indices 1 2 3 4 5 6 
#
# 1 0.024011 -0.003282 -0.004286 0.000000 0.000000 0.000000
# 2 -0.003282 0.008257 -0.002712 0.000000 0.000000 0.000000
# 3 -0.004286 -0.002712 0.026091 0.000000 0.000000 0.000000
# 4 0.000000 0.000000 0.000000 0.039637 0.000000 0.000000
# 5 0.000000 0.000000 0.000000 0.000000 0.048809 0.000000
# 6 0.000000 0.000000 0.000000 0.000000 0.000000 0.038313
#
#
# Mechanical properties :
#
#
# Convention : Reuss Voigt Hill
#
# Bulk Modulus (GPa) = 26.45473 35.78246 31.11860
# Shear Modulus (GPa) = 22.90658 25.99570 24.45114
#
# Velocity S-wave (km/s) = 3.51292 3.74230 3.62942
# Velocity P-wave (km/s) = 5.54132 6.16039 5.85904
#
# Compressibility (1/GPa) = 0.03780042
#
# Stress axis : x y z
#
# Youngs Moduli (GPa) = 41.64776 121.10725 38.32685
#
# Poissons Ratio (x) = 0.39742 0.16426
# Poissons Ratio (y) = 0.13667 0.10395
# Poissons Ratio (z) = 0.17849 0.32846
#
# Static dielectric constant tensor:
#      x y z
#    x 1.727180 0.000000 0.000000 
#    y 0.000000 1.671410 0.000000 
#    z 0.000000 0.000000 1.613450 
# 
# From -- ./inp_files/7021.got.cif
#   From: 2010.05.17/outbox.cif.g08.bks.cpg/sg46_4_cif.got.tgz:7021.got - 2010.06.03 19:58:25.
