data_PCOD9378360
_publ_section_title
;
Structure prediction by ZEFSAII (Michael W. Deem and Ramdas Pophale) SiO2 
 PCOD9378360
Probable space group: I M A 2
;
_chemical_formula_sum "Si O2"
_cell_formula_units_Z 48
_cell_length_a 17.532123
_cell_length_b 9.631427
_cell_length_c 14.840013
_cell_angle_alpha 90.000000
_cell_angle_beta 90.000000
_cell_angle_gamma 90.000000
_cell_volume 2505.875140
_symmetry_space_group_name_H-M "I M A 2"
_symmetry_group_IT_number 46
_symmetry_cell_setting 'orthorhombic'
loop_
_space_group_symop_operation_xyz
x,y,z
-x,-y,z
1/2-x,y,z
1/2+x,-y,z
1/2+x,1/2+y,1/2+z
1/2-x,1/2-y,1/2+z
-x,1/2+y,1/2+z
x,1/2-y,1/2+z
loop_
_atom_site_type_symbol
_atom_site_label
_atom_site_fract_x
_atom_site_fract_y
_atom_site_fract_z
Si Si1 0.588092 0.050474 0.267290
Si Si2 0.537570 0.353764 0.600865
Si Si3 0.159375 0.275413 0.850713
Si Si4 0.566008 0.376110 0.954832
Si Si5 0.838423 0.902701 0.537747
Si Si6 0.557407 0.628475 0.211160
O O1 0.607534 0.105378 0.167977
O O2 0.582611 0.156324 0.350766
O O3 0.500000 0.000000 0.260731
O O4 0.639086 0.922189 0.301593
O O5 0.500000 0.500000 0.573700
O O6 0.548673 0.255735 0.515394
O O7 0.488429 0.258432 0.669547
O O8 0.250000 0.247741 0.842347
O O9 0.140190 0.295623 0.956824
O O10 0.104555 0.167653 0.800244
O O11 0.500000 0.500000 0.960814
O O12 0.640499 0.449646 0.994832
O O13 0.750000 0.884615 0.554641
O O14 0.883533 0.897856 0.630242
O O15 0.500000 0.500000 0.222211
#
# Coordination Sequence:
#
# PCOD9378360 Si02
#       6
#     8   8   8   8   8   8
#     4   9  18  33  58  77 114 151 200 243 296 357
#     4  11  19  33  56  82 116 145 197 247 297 356
#     4  10  21  38  61  90 120 164 208 249 308 379
#     4  10  18  35  57  79 109 150 198 248 294 360
#     4  10  20  36  61  87 119 160 203 247 309 376
#     4  12  21  37  62  91 122 154 206 260 308 363
#
# _framework density 19.154983000000001
#
# number of rings (size 3 to 8) (size 9 to 14) (size 15 to 20)
#    0.000    1.667    6.667    0.500    0.000    0.000 
#    0.000    5.000    0.000    0.000    0.000    0.000 
#    0.000    0.000    0.000    0.000    0.000    0.000 
#
# Total GULP energy -133626.660467 kJ/mol
# GULP energy per Si atom -5567.777519 kJ/mol
# Density = 1.911139 g / cm^3
# Si number density = 19.154983 Si / 1000 Ang^3
#
#
#
# Elastic Constant Matrix: (Units=GPa)
#
#
# Indices 1 2 3 4 5 6 
#
# 1 75.6383 33.3406 40.0945 0.0000 0.0000 0.0000
# 2 33.3406 105.3664 64.7072 0.0000 0.0000 0.0000
# 3 40.0945 64.7072 121.8145 0.0000 0.0000 0.0000
# 4 0.0000 0.0000 0.0000 21.3262 0.0000 0.0000
# 5 0.0000 0.0000 0.0000 0.0000 16.0125 0.0000
# 6 0.0000 0.0000 0.0000 0.0000 0.0000 17.5726
#
#
#
# Elastic Compliance Matrix: (Units=1/GPa)
#
#
# Indices 1 2 3 4 5 6 
#
# 1 0.016557 -0.002808 -0.003958 0.000000 0.000000 0.000000
# 2 -0.002808 0.014562 -0.006811 0.000000 0.000000 0.000000
# 3 -0.003958 -0.006811 0.013130 0.000000 0.000000 0.000000
# 4 0.000000 0.000000 0.000000 0.046891 0.000000 0.000000
# 5 0.000000 0.000000 0.000000 0.000000 0.062451 0.000000
# 6 0.000000 0.000000 0.000000 0.000000 0.000000 0.056907
#
#
# Mechanical properties :
#
#
# Convention : Reuss Voigt Hill
#
# Bulk Modulus (GPa) = 58.49877 64.34487 61.42182
# Shear Modulus (GPa) = 20.54659 21.96072 21.25366
#
# Velocity S-wave (km/s) = 3.27869 3.38964 3.33462
# Velocity P-wave (km/s) = 6.70366 6.99887 6.85285
#
# Compressibility (1/GPa) = 0.01709438
#
# Stress axis : x y z
#
# Youngs Moduli (GPa) = 60.39869 68.67177 76.16298
#
# Poissons Ratio (x) = 0.19286 0.30143
# Poissons Ratio (y) = 0.16963 0.51874
# Poissons Ratio (z) = 0.23904 0.46771
#
# Static dielectric constant tensor:
#      x y z
#    x 1.702600 0.000000 0.000000 
#    y 0.000000 1.717470 0.000000 
#    z 0.000000 0.000000 1.790430 
# 
# From -- ./inp_files/16553.got.cif
#   From: 2010.05.17/outbox.cif.g08.bks.cpg/sg46_9_cif.got.tgz:16553.got - 2010.06.03 19:58:25.
