data_PCOD9378164
_publ_section_title
;
Structure prediction by ZEFSAII (Michael W. Deem and Ramdas Pophale) SiO2 
 PCOD9378164
Probable space group: I M A 2
;
_chemical_formula_sum "Si O2"
_cell_formula_units_Z 64
_cell_length_a 19.158400
_cell_length_b 15.738305
_cell_length_c 8.872805
_cell_angle_alpha 90.000000
_cell_angle_beta 90.000000
_cell_angle_gamma 90.000000
_cell_volume 2675.334752
_symmetry_space_group_name_H-M "I M A 2"
_symmetry_group_IT_number 46
_symmetry_cell_setting 'orthorhombic'
loop_
_space_group_symop_operation_xyz
x,y,z
-x,-y,z
1/2-x,y,z
1/2+x,-y,z
1/2+x,1/2+y,1/2+z
1/2-x,1/2-y,1/2+z
-x,1/2+y,1/2+z
x,1/2-y,1/2+z
loop_
_atom_site_type_symbol
_atom_site_label
_atom_site_fract_x
_atom_site_fract_y
_atom_site_fract_z
Si Si1 0.124618 0.585618 0.812260
Si Si2 0.110460 0.238965 0.014326
Si Si3 0.013542 0.303240 0.785622
Si Si4 0.823139 0.288782 0.039483
Si Si5 0.329757 0.135221 0.736410
Si Si6 0.828301 0.412910 0.490980
Si Si7 0.939251 0.520756 0.056945
Si Si8 0.062861 0.867674 0.755385
O O1 0.153102 0.550672 0.654764
O O2 0.052987 0.637420 0.780216
O O3 0.171491 0.661584 0.882395
O O4 0.122150 0.517197 0.945564
O O5 0.067008 0.313772 0.924801
O O6 0.144092 0.174977 0.895001
O O7 0.056474 0.196610 0.131320
O O8 0.166055 0.286703 0.117895
O O9 0.986822 0.206015 0.814922
O O10 0.750000 0.310264 0.115651
O O11 0.827145 0.189271 0.011688
O O12 0.885134 0.319015 0.144122
O O13 0.250000 0.104161 0.744901
O O14 0.388987 0.071636 0.673185
O O15 0.750000 0.439162 0.444404
O O16 0.892050 0.420682 0.374350
O O17 0.976179 0.433186 0.145118
O O18 0.000000 0.500000 0.928082
#
# Coordination Sequence:
#
# PCOD9378164 Si02
#       8
#     8   8   8   8   8   8   8   8
#     4  11  21  34  58  87 128 174 218 260 311 372
#     4  10  22  39  69  97 120 156 210 283 342 394
#     4  11  18  35  61  98 130 168 218 266 312 381
#     4  10  18  31  50  79 122 170 217 257 291 344
#     4  11  24  46  72  99 127 163 217 279 348 415
#     4  11  20  32  50  84 127 168 218 259 289 346
#     4  11  25  44  63  92 128 171 210 262 335 407
#     4  11  21  35  59  88 130 172 215 258 313 379
#
# _framework density 23.922239999999999
#
# number of rings (size 3 to 8) (size 9 to 14) (size 15 to 20)
#    0.000    1.250    2.500    5.625    0.000    5.000 
#    0.000    4.375    0.000    1.500    0.000    0.000 
#    0.000    0.000    0.000    0.000    0.000    0.000 
#
# Total GULP energy -178449.292721 kJ/mol
# GULP energy per Si atom -5576.540398 kJ/mol
# Density = 2.386779 g / cm^3
# Si number density = 23.922240 Si / 1000 Ang^3
#
#
#
# Elastic Constant Matrix: (Units=GPa)
#
#
# Indices 1 2 3 4 5 6 
#
# 1 143.2837 20.6416 32.8490 0.0000 0.0000 0.0000
# 2 20.6416 44.0103 19.8936 0.0000 0.0000 0.0000
# 3 32.8490 19.8936 122.2360 0.0000 0.0000 0.0000
# 4 0.0000 0.0000 0.0000 27.8262 0.0000 0.0000
# 5 0.0000 0.0000 0.0000 0.0000 -1.4023 0.0000
# 6 0.0000 0.0000 0.0000 0.0000 0.0000 9.6437
#
#
#
# Elastic Compliance Matrix: (Units=1/GPa)
#
#
# Indices 1 2 3 4 5 6 
#
# 1 0.007769 -0.002914 -0.001613 0.000000 0.000000 0.000000
# 2 -0.002914 0.025620 -0.003386 0.000000 0.000000 0.000000
# 3 -0.001613 -0.003386 0.009166 0.000000 0.000000 0.000000
# 4 0.000000 0.000000 0.000000 0.035937 0.000000 0.000000
# 5 0.000000 0.000000 0.000000 0.000000 -0.713137 0.000000
# 6 0.000000 0.000000 0.000000 0.000000 0.000000 0.103695
#
#
# Mechanical properties :
#
#
# Convention : Reuss Voigt Hill
#
# Bulk Modulus (GPa) = 37.41719 50.69981 44.05850
# Shear Modulus (GPa) = -9.87726 22.95658 6.53966
#
# Velocity S-wave (km/s) = -2.03417 3.10116 1.65519
# Velocity P-wave (km/s) = 3.18716 5.83631 4.70215
#
# Compressibility (1/GPa) = 0.02672569
#
# Stress axis : x y z
#
# Youngs Moduli (GPa) = 128.71807 39.03264 109.10358
#
# Poissons Ratio (x) = 0.11376 0.17603
# Poissons Ratio (y) = 0.37514 0.36946
# Poissons Ratio (z) = 0.20768 0.13218
#
# Static dielectric constant tensor:
#      x y z
#    x 2.405340 0.000000 0.000000 
#    y 0.000000 2.020740 0.000000 
#    z 0.000000 0.000000 1.937670 
# 
# From -- ./inp_files/7562.got.cif
#   From: 2010.05.17/outbox.cif.g08.bks.cpg/sg46_4_cif.got.tgz:7562.got - 2010.06.03 19:58:25.
