data_PCOD9378084
_publ_section_title
;
Structure prediction by ZEFSAII (Michael W. Deem and Ramdas Pophale) SiO2 
 PCOD9378084
Probable space group: I M A 2
;
_chemical_formula_sum "Si O2"
_cell_formula_units_Z 44
_cell_length_a 30.010496
_cell_length_b 16.116986
_cell_length_c 5.356941
_cell_angle_alpha 90.000000
_cell_angle_beta 90.000000
_cell_angle_gamma 90.000000
_cell_volume 2591.038494
_symmetry_space_group_name_H-M "I M A 2"
_symmetry_group_IT_number 46
_symmetry_cell_setting 'orthorhombic'
loop_
_space_group_symop_operation_xyz
x,y,z
-x,-y,z
1/2-x,y,z
1/2+x,-y,z
1/2+x,1/2+y,1/2+z
1/2-x,1/2-y,1/2+z
-x,1/2+y,1/2+z
x,1/2-y,1/2+z
loop_
_atom_site_type_symbol
_atom_site_label
_atom_site_fract_x
_atom_site_fract_y
_atom_site_fract_z
Si Si1 0.421571 0.225135 0.800980
Si Si2 0.750000 0.198139 0.250391
Si Si3 0.948790 0.533865 0.302601
Si Si4 0.151783 0.806274 0.320751
Si Si5 0.923755 0.446290 0.802447
Si Si6 0.481611 0.705153 0.797693
O O1 0.396408 0.249509 0.550511
O O2 0.442014 0.132870 0.802422
O O3 0.465475 0.284018 0.798908
O O4 0.750000 0.271097 0.462648
O O5 0.797865 0.157414 0.301486
O O6 0.925337 0.498767 0.550590
O O7 0.000000 0.500000 0.303458
O O8 0.925713 0.499300 0.053068
O O9 0.147099 0.755389 0.581185
O O10 0.115746 0.878995 0.306465
O O11 0.968201 0.389563 0.801503
O O12 0.464406 0.748943 0.546042
#
# Coordination Sequence:
#
# PCOD9378084 Si02
#       6
#     8   4   8   8   8   8
#     4  10  19  33  47  59  79 115 156 191 230 282
#     4   8  16  30  50  74 100 130 166 196 234 292
#     4  12  23  34  47  67  93 123 161 209 251 281
#     4  10  19  33  52  75 102 135 168 202 241 291
#     4  12  22  33  48  70  95 123 161 209 246 280
#     4  10  18  30  44  59  80 113 154 191 225 270
#
# _framework density 16.981608000000001
#
# number of rings (size 3 to 8) (size 9 to 14) (size 15 to 20)
#    0.000    1.455    0.000    9.273    0.000    0.000 
#    0.000    0.000    0.000    0.000    0.000    0.000 
#    0.000    0.000    0.000   16.364    0.000    0.000 
#
# Total GULP energy -122757.814418 kJ/mol
# GULP energy per Si atom -5579.900655 kJ/mol
# Density = 1.694296 g / cm^3
# Si number density = 16.981608 Si / 1000 Ang^3
#
#
#
# Elastic Constant Matrix: (Units=GPa)
#
#
# Indices 1 2 3 4 5 6 
#
# 1 61.4543 10.5101 12.3261 0.0000 0.0000 0.0000
# 2 10.5101 71.0582 47.6145 0.0000 0.0000 0.0000
# 3 12.3261 47.6145 178.2012 0.0000 0.0000 0.0000
# 4 0.0000 0.0000 0.0000 34.7378 0.0000 0.0000
# 5 0.0000 0.0000 0.0000 0.0000 1.6639 0.0000
# 6 0.0000 0.0000 0.0000 0.0000 0.0000 5.0259
#
#
#
# Elastic Compliance Matrix: (Units=1/GPa)
#
#
# Indices 1 2 3 4 5 6 
#
# 1 0.016748 -0.002072 -0.000605 0.000000 0.000000 0.000000
# 2 -0.002072 0.017398 -0.004505 0.000000 0.000000 0.000000
# 3 -0.000605 -0.004505 0.006857 0.000000 0.000000 0.000000
# 4 0.000000 0.000000 0.000000 0.028787 0.000000 0.000000
# 5 0.000000 0.000000 0.000000 0.000000 0.600995 0.000000
# 6 0.000000 0.000000 0.000000 0.000000 0.000000 0.198968
#
#
# Mechanical properties :
#
#
# Convention : Reuss Voigt Hill
#
# Bulk Modulus (GPa) = 37.53854 50.17946 43.85900
# Shear Modulus (GPa) = 5.59912 24.30307 14.95109
#
# Velocity S-wave (km/s) = 1.81778 3.78715 2.97042
# Velocity P-wave (km/s) = 5.15356 6.98117 6.13579
#
# Compressibility (1/GPa) = 0.02663929
#
# Stress axis : x y z
#
# Youngs Moduli (GPa) = 59.70893 57.47651 145.82977
#
# Poissons Ratio (x) = 0.11908 0.08821
# Poissons Ratio (y) = 0.12371 0.65703
# Poissons Ratio (z) = 0.03612 0.25896
#
# Static dielectric constant tensor:
#      x y z
#    x 1.575160 0.000000 0.000000 
#    y 0.000000 1.581420 0.000000 
#    z 0.000000 0.000000 1.738220 
# 
# From -- ./inp_files/2703.got.cif
#   From: 2010.05.17/outbox.cif.g08.bks.cpg/sg46_2_cif.got.tgz:2703.got - 2010.06.03 19:58:25.
