data_PCOD9378056
_publ_section_title
;
Structure prediction by ZEFSAII (Michael W. Deem and Ramdas Pophale) SiO2 
 PCOD9378056
Probable space group: I M A 2
;
_chemical_formula_sum "Si O2"
_cell_formula_units_Z 56
_cell_length_a 8.884186
_cell_length_b 18.900269
_cell_length_c 21.007099
_cell_angle_alpha 90.000000
_cell_angle_beta 90.000000
_cell_angle_gamma 90.000000
_cell_volume 3527.375628
_symmetry_space_group_name_H-M "I M A 2"
_symmetry_group_IT_number 46
_symmetry_cell_setting 'orthorhombic'
loop_
_space_group_symop_operation_xyz
x,y,z
-x,-y,z
1/2-x,y,z
1/2+x,-y,z
1/2+x,1/2+y,1/2+z
1/2-x,1/2-y,1/2+z
-x,1/2+y,1/2+z
x,1/2-y,1/2+z
loop_
_atom_site_type_symbol
_atom_site_label
_atom_site_fract_x
_atom_site_fract_y
_atom_site_fract_z
Si Si1 0.571085 0.076186 0.770060
Si Si2 0.570654 0.077231 0.258743
Si Si3 0.072795 0.853722 0.397953
Si Si4 0.428910 0.422038 0.020093
Si Si5 0.570486 0.280631 0.324728
Si Si6 0.428317 0.289453 0.701382
Si Si7 0.430905 0.658447 0.139556
O O1 0.750000 0.067166 0.768369
O O2 0.537401 0.136019 0.823409
O O3 0.527554 0.111263 0.701989
O O4 0.500000 0.000000 0.779635
O O5 0.750000 0.075388 0.250041
O O6 0.543536 0.106934 0.330603
O O7 0.497965 0.132713 0.209472
O O8 0.500000 0.000000 0.252986
O O9 0.250000 0.863889 0.413096
O O10 0.046928 0.770101 0.384865
O O11 0.973618 0.885313 0.453739
O O12 0.500000 0.500000 0.021062
O O13 0.250000 0.426649 0.026920
O O14 0.499350 0.377461 0.077778
O O15 0.750000 0.272778 0.307796
O O16 0.472083 0.247587 0.268357
O O17 0.250000 0.292168 0.692711
O O18 0.505099 0.237196 0.650638
O O19 0.250000 0.660549 0.136010
#
# Coordination Sequence:
#
# PCOD9378056 Si02
#       7
#     8   8   8   8   8   8   8
#     4   9  17  28  45  69  94 120 150 188 231 275
#     4  10  19  31  48  71  98 127 159 196 239 283
#     4   9  18  33  50  66  90 126 163 197 234 278
#     4  12  24  35  48  69  96 126 161 196 233 278
#     4   8  16  31  47  64  90 124 159 193 233 281
#     4  10  18  29  47  70  94 121 155 194 238 285
#     4  10  20  35  50  65  92 128 163 196 232 276
#
# _framework density 15.875826
#
# number of rings (size 3 to 8) (size 9 to 14) (size 15 to 20)
#    0.000    2.286    0.000    6.000    0.000    8.000 
#    0.000    0.000    0.000    0.000    0.000    1.000 
#    0.000    2.286    0.000    0.000    0.000    0.000 
#
# Total GULP energy -156078.898680 kJ/mol
# GULP energy per Si atom -5574.246381 kJ/mol
# Density = 1.583969 g / cm^3
# Si number density = 15.875826 Si / 1000 Ang^3
#
#
#
# Elastic Constant Matrix: (Units=GPa)
#
#
# Indices 1 2 3 4 5 6 
#
# 1 90.1258 69.2483 46.4391 0.0000 0.0000 0.0000
# 2 69.2483 164.1035 53.3282 0.0000 0.0000 0.0000
# 3 46.4391 53.3282 57.2657 0.0000 0.0000 0.0000
# 4 0.0000 0.0000 0.0000 21.6548 0.0000 0.0000
# 5 0.0000 0.0000 0.0000 0.0000 22.1851 0.0000
# 6 0.0000 0.0000 0.0000 0.0000 0.0000 31.5444
#
#
#
# Elastic Compliance Matrix: (Units=1/GPa)
#
#
# Indices 1 2 3 4 5 6 
#
# 1 0.021478 -0.004880 -0.012873 0.000000 0.000000 0.000000
# 2 -0.004880 0.009847 -0.005212 0.000000 0.000000 0.000000
# 3 -0.012873 -0.005212 0.032756 0.000000 0.000000 0.000000
# 4 0.000000 0.000000 0.000000 0.046179 0.000000 0.000000
# 5 0.000000 0.000000 0.000000 0.000000 0.045075 0.000000
# 6 0.000000 0.000000 0.000000 0.000000 0.000000 0.031701
#
#
# Mechanical properties :
#
#
# Convention : Reuss Voigt Hill
#
# Bulk Modulus (GPa) = 55.09690 72.16957 63.63324
# Shear Modulus (GPa) = 20.91896 24.57550 22.74723
#
# Velocity S-wave (km/s) = 3.63390 3.93871 3.78937
# Velocity P-wave (km/s) = 7.23790 8.13892 7.70160
#
# Compressibility (1/GPa) = 0.01814984
#
# Stress axis : x y z
#
# Youngs Moduli (GPa) = 46.55857 101.55538 30.52901
#
# Poissons Ratio (x) = 0.49560 0.39300
# Poissons Ratio (y) = 0.22721 0.15913
# Poissons Ratio (z) = 0.59935 0.52934
#
# Static dielectric constant tensor:
#      x y z
#    x 1.527040 0.000000 0.000000 
#    y 0.000000 1.551560 0.000000 
#    z 0.000000 0.000000 1.518530 
# 
# From -- ./inp_files/21216.got.cif
#   From: 2010.05.17/outbox.cif.g08.bks.cpg/sg46_11_cif.got.tgz:21216.got - 2010.06.03 19:58:25.
