data_PCOD9378305
_publ_section_title
;
Structure prediction by ZEFSAII (Michael W. Deem and Ramdas Pophale) SiO2 
 PCOD9378305
Probable space group: I M A 2
;
_chemical_formula_sum "Si O2"
_cell_formula_units_Z 60
_cell_length_a 13.919767
_cell_length_b 9.707654
_cell_length_c 20.063110
_cell_angle_alpha 90.000000
_cell_angle_beta 90.000000
_cell_angle_gamma 90.000000
_cell_volume 2711.093582
_symmetry_space_group_name_H-M "I M A 2"
_symmetry_group_IT_number 46
_symmetry_cell_setting 'orthorhombic'
loop_
_space_group_symop_operation_xyz
x,y,z
-x,-y,z
1/2-x,y,z
1/2+x,-y,z
1/2+x,1/2+y,1/2+z
1/2-x,1/2-y,1/2+z
-x,1/2+y,1/2+z
x,1/2-y,1/2+z
loop_
_atom_site_type_symbol
_atom_site_label
_atom_site_fract_x
_atom_site_fract_y
_atom_site_fract_z
Si Si1 0.552970 0.675997 0.994460
Si Si2 0.366658 0.201397 0.631441
Si Si3 0.135931 0.202097 0.777859
Si Si4 0.365570 0.423481 0.416002
Si Si5 0.500000 0.500000 0.882582
Si Si6 0.861649 0.462589 0.777635
Si Si7 0.365537 0.519807 0.631528
Si Si8 0.136866 0.812833 0.997284
O O1 0.595818 0.823517 0.973798
O O2 0.571655 0.582521 0.930402
O O3 0.592883 0.630256 0.065431
O O4 0.437978 0.690021 0.995582
O O5 0.250000 0.196006 0.629354
O O6 0.399936 0.155361 0.704925
O O7 0.397875 0.362038 0.625579
O O8 0.250000 0.172042 0.777271
O O9 0.097720 0.127746 0.844089
O O10 0.130635 0.369424 0.780679
O O11 0.250000 0.408933 0.417062
O O12 0.385365 0.579755 0.437725
O O13 0.567182 0.409615 0.834176
O O14 0.750000 0.425967 0.787805
O O15 0.894959 0.421373 0.703475
O O16 0.250000 0.511113 0.636459
O O17 0.385315 0.607900 0.566519
O O18 0.250000 0.778398 0.995700
#
# Coordination Sequence:
#
# PCOD9378305 Si02
#       8
#     8   8   8   8   4   8   8   8
#     4  12  23  35  52  78 111 148 184 220 265 315
#     4   9  17  31  55  85 109 132 176 224 267 321
#     4   8  15  30  55  83 107 134 169 221 278 320
#     4  10  18  33  58  85 110 133 169 224 282 329
#     4  12  26  36  50  76 110 150 196 208 250 326
#     4   9  18  34  53  76 108 139 174 224 269 312
#     4   8  15  30  55  84 106 130 168 219 283 329
#     4  10  21  36  55  83 113 139 175 226 277 327
#
# _framework density 22.131291999999998
#
# number of rings (size 3 to 8) (size 9 to 14) (size 15 to 20)
#    0.000    2.400    2.667    2.400    0.000    3.200 
#    0.000    0.000    2.933    0.000    0.000    0.000 
#    0.000    0.000    0.000    0.000    0.000    0.000 
#
# Total GULP energy -167415.662926 kJ/mol
# GULP energy per Si atom -5580.522098 kJ/mol
# Density = 2.208092 g / cm^3
# Si number density = 22.131292 Si / 1000 Ang^3
#
#
#
# Elastic Constant Matrix: (Units=GPa)
#
#
# Indices 1 2 3 4 5 6 
#
# 1 59.7520 8.8560 26.3307 0.0000 0.0000 0.0000
# 2 8.8560 10.5439 14.0172 0.0000 0.0000 0.0000
# 3 26.3307 14.0172 176.6919 0.0000 0.0000 0.0000
# 4 0.0000 0.0000 0.0000 12.8509 0.0000 0.0000
# 5 0.0000 0.0000 0.0000 0.0000 34.9492 0.0000
# 6 0.0000 0.0000 0.0000 0.0000 0.0000 13.1469
#
#
#
# Elastic Compliance Matrix: (Units=1/GPa)
#
#
# Indices 1 2 3 4 5 6 
#
# 1 0.019618 -0.014075 -0.001807 0.000000 0.000000 0.000000
# 2 -0.014075 0.116121 -0.007115 0.000000 0.000000 0.000000
# 3 -0.001807 -0.007115 0.006493 0.000000 0.000000 0.000000
# 4 0.000000 0.000000 0.000000 0.077816 0.000000 0.000000
# 5 0.000000 0.000000 0.000000 0.000000 0.028613 0.000000
# 6 0.000000 0.000000 0.000000 0.000000 0.000000 0.076064
#
#
# Mechanical properties :
#
#
# Convention : Reuss Voigt Hill
#
# Bulk Modulus (GPa) = 10.39078 38.37726 24.38402
# Shear Modulus (GPa) = 12.41314 25.37498 18.89406
#
# Velocity S-wave (km/s) = 2.37087 3.38977 2.92503
# Velocity P-wave (km/s) = 3.49285 5.71831 4.73809
#
# Compressibility (1/GPa) = 0.09623913
#
# Stress axis : x y z
#
# Youngs Moduli (GPa) = 50.97298 8.61168 154.00641
#
# Poissons Ratio (x) = 0.12121 0.27827
# Poissons Ratio (y) = 0.71747 1.09568
# Poissons Ratio (z) = 0.09210 0.06127
#
# Static dielectric constant tensor:
#      x y z
#    x 1.837490 0.000000 0.000000 
#    y 0.000000 1.809730 0.000000 
#    z 0.000000 0.000000 1.863730 
# 
# From -- ./inp_files/19603.got.cif
#   From: 2010.05.17/outbox.cif.g08.bks.cpg/sg46_10_cif.got.tgz:19603.got - 2010.06.03 19:58:25.
