data_PCOD9378012
_publ_section_title
;
Structure prediction by ZEFSAII (Michael W. Deem and Ramdas Pophale) SiO2 
 PCOD9378012
Probable space group: I M A 2
;
_chemical_formula_sum "Si O2"
_cell_formula_units_Z 64
_cell_length_a 9.309960
_cell_length_b 33.782736
_cell_length_c 11.937431
_cell_angle_alpha 90.000000
_cell_angle_beta 90.000000
_cell_angle_gamma 90.000000
_cell_volume 3754.512104
_symmetry_space_group_name_H-M "I M A 2"
_symmetry_group_IT_number 46
_symmetry_cell_setting 'orthorhombic'
loop_
_space_group_symop_operation_xyz
x,y,z
-x,-y,z
1/2-x,y,z
1/2+x,-y,z
1/2+x,1/2+y,1/2+z
1/2-x,1/2-y,1/2+z
-x,1/2+y,1/2+z
x,1/2-y,1/2+z
loop_
_atom_site_type_symbol
_atom_site_label
_atom_site_fract_x
_atom_site_fract_y
_atom_site_fract_z
Si Si1 0.583079 0.181952 0.250000
Si Si2 0.582183 0.827313 0.841948
Si Si3 0.081527 0.729078 0.177660
Si Si4 0.422746 0.628331 0.542407
Si Si5 0.910837 0.611418 0.135745
Si Si6 0.082311 0.314590 0.980528
Si Si7 0.921530 0.040333 0.972975
Si Si8 0.581189 0.460770 0.207696
O O1 0.750000 0.177637 0.285132
O O2 0.571597 0.223740 0.185663
O O3 0.547761 0.146842 0.163966
O O4 0.483606 0.184647 0.357910
O O5 0.750000 0.817635 0.862583
O O6 0.498156 0.790917 0.784149
O O7 0.578118 0.861371 0.746547
O O8 0.504675 0.845284 0.950231
O O9 0.250000 0.717789 0.178834
O O10 0.005717 0.713214 0.065610
O O11 0.250000 0.631161 0.522259
O O12 0.462818 0.581997 0.530107
O O13 0.750000 0.594149 0.133921
O O14 0.026263 0.577253 0.142187
O O15 0.927852 0.641576 0.033698
O O16 0.250000 0.303136 0.981067
O O17 0.750000 0.035198 0.985554
O O18 0.952627 0.045283 0.840050
O O19 0.000000 0.000000 0.010425
O O20 0.500000 0.500000 0.170341
O O21 0.750000 0.465902 0.197562
#
# Coordination Sequence:
#
# PCOD9378012 Si02
#       8
#     8   8   8   8   8   8   8   8
#     4  10  23  39  57  79 106 144 187 229 270 323
#     4  10  20  33  52  80 109 141 179 221 273 324
#     4  10  21  37  57  79 107 143 183 225 273 326
#     4  10  20  36  55  80 112 146 186 229 272 327
#     4   9  18  33  51  73 104 139 173 216 265 318
#     4  10  22  39  57  79 108 140 180 227 275 325
#     4   9  18  31  50  77 110 144 178 220 274 329
#     4  10  18  28  47  77 109 141 173 213 267 322
#
# _framework density 17.046157000000001
#
# number of rings (size 3 to 8) (size 9 to 14) (size 15 to 20)
#    0.000    2.250    1.250    2.250    1.750    5.000 
#    0.000    0.000    0.000    0.750    0.000    3.500 
#    0.000    0.000    0.000    0.000    0.000    0.000 
#
# Total GULP energy -178527.415581 kJ/mol
# GULP energy per Si atom -5578.981737 kJ/mol
# Density = 1.700736 g / cm^3
# Si number density = 17.046157 Si / 1000 Ang^3
#
#
#
# Elastic Constant Matrix: (Units=GPa)
#
#
# Indices 1 2 3 4 5 6 
#
# 1 83.5485 44.2482 48.3998 0.0000 0.0000 0.0000
# 2 44.2482 63.9870 29.9646 0.0001 0.0000 0.0000
# 3 48.3998 29.9646 76.0263 0.0001 -0.0001 0.0000
# 4 0.0000 0.0001 0.0001 14.6637 0.0000 0.0000
# 5 0.0000 0.0000 -0.0001 0.0000 22.3906 0.0000
# 6 0.0000 0.0000 0.0000 0.0000 0.0000 28.9534
#
#
#
# Elastic Compliance Matrix: (Units=1/GPa)
#
#
# Indices 1 2 3 4 5 6 
#
# 1 0.024635 -0.011885 -0.010999 0.000000 0.000000 0.000000
# 2 -0.011885 0.024899 -0.002247 0.000000 0.000000 0.000000
# 3 -0.010999 -0.002247 0.021041 0.000000 0.000000 0.000000
# 4 0.000000 0.000000 0.000000 0.068196 0.000000 0.000000
# 5 0.000000 0.000000 0.000000 0.000000 0.044662 0.000000
# 6 0.000000 0.000000 0.000000 0.000000 0.000000 0.034538
#
#
# Mechanical properties :
#
#
# Convention : Reuss Voigt Hill
#
# Bulk Modulus (GPa) = 49.22957 52.08744 50.65850
# Shear Modulus (GPa) = 18.18145 19.93147 19.05646
#
# Velocity S-wave (km/s) = 3.26943 3.42316 3.34718
# Velocity P-wave (km/s) = 6.57230 6.80052 6.68738
#
# Compressibility (1/GPa) = 0.02031300
#
# Stress axis : x y z
#
# Youngs Moduli (GPa) = 40.59220 40.16167 47.52555
#
# Poissons Ratio (x) = 0.47732 0.52273
# Poissons Ratio (y) = 0.48244 0.10681
# Poissons Ratio (z) = 0.44647 0.09026
#
# Static dielectric constant tensor:
#      x y z
#    x 1.579570 0.000000 0.000000 
#    y 0.000000 1.571880 0.000000 
#    z 0.000000 0.000000 1.551220 
# 
# From -- ./inp_files/9694.got.cif
#   From: 2010.05.17/outbox.cif.g08.bks.cpg/sg46_5_cif.got.tgz:9694.got - 2010.06.03 19:58:25.
