data_PCOD9378411
_publ_section_title
;
Structure prediction by ZEFSAII (Michael W. Deem and Ramdas Pophale) SiO2 
 PCOD9378411
Probable space group: I M A 2
;
_chemical_formula_sum "Si O2"
_cell_formula_units_Z 60
_cell_length_a 18.951046
_cell_length_b 14.744120
_cell_length_c 8.953829
_cell_angle_alpha 90.000000
_cell_angle_beta 90.000000
_cell_angle_gamma 90.000000
_cell_volume 2501.847528
_symmetry_space_group_name_H-M "I M A 2"
_symmetry_group_IT_number 46
_symmetry_cell_setting 'orthorhombic'
loop_
_space_group_symop_operation_xyz
x,y,z
-x,-y,z
1/2-x,y,z
1/2+x,-y,z
1/2+x,1/2+y,1/2+z
1/2-x,1/2-y,1/2+z
-x,1/2+y,1/2+z
x,1/2-y,1/2+z
loop_
_atom_site_type_symbol
_atom_site_label
_atom_site_fract_x
_atom_site_fract_y
_atom_site_fract_z
Si Si1 0.418983 0.003925 0.464920
Si Si2 0.329598 0.361306 0.790246
Si Si3 0.055193 0.924767 0.138757
Si Si4 0.398953 0.174824 0.801178
Si Si5 0.250000 0.734705 0.759473
Si Si6 0.994254 0.758369 0.561064
Si Si7 0.352421 0.667231 0.020305
Si Si8 0.168422 0.479579 0.484099
O O1 0.423885 0.955612 0.302432
O O2 0.364269 0.939992 0.552550
O O3 0.500000 0.000000 0.519937
O O4 0.383434 0.097514 0.411123
O O5 0.250000 0.375291 0.844060
O O6 0.343989 0.255199 0.764802
O O7 0.335865 0.414884 0.632431
O O8 0.016270 0.830415 0.154379
O O9 0.121855 0.932771 0.027825
O O10 0.000000 0.000000 0.079444
O O11 0.452769 0.171347 0.664359
O O12 0.445017 0.215073 0.936021
O O13 0.363292 0.081772 0.852400
O O14 0.188652 0.782106 0.652833
O O15 0.310491 0.688265 0.868917
O O16 0.067865 0.796873 0.506155
O O17 0.250000 0.504237 0.460063
#
# Coordination Sequence:
#
# PCOD9378411 Si02
#       8
#     8   8   8   8   4   8   8   8
#     4  10  20  37  67  96 131 172 241 288 332 406
#     4  10  21  37  62  99 128 176 220 279 338 412
#     4  10  18  38  61  98 125 173 236 287 326 415
#     4  12  21  40  65 100 131 170 224 292 337 417
#     4  10  24  42  66  96 138 178 226 292 356 420
#     4  12  23  38  71  95 130 173 233 282 343 404
#     4  11  23  43  67 101 133 182 231 290 354 426
#     4  10  21  39  64  96 137 175 223 282 353 410
#
# _framework density 23.982277
#
# number of rings (size 3 to 8) (size 9 to 14) (size 15 to 20)
#    0.000    1.333    2.667    5.200    1.867    0.000 
#    7.200    0.000   14.667    0.000    0.000    0.000 
#    0.000    0.000    0.000    0.000    0.000    0.000 
#
# Total GULP energy -167280.159973 kJ/mol
# GULP energy per Si atom -5576.005332 kJ/mol
# Density = 2.392769 g / cm^3
# Si number density = 23.982277 Si / 1000 Ang^3
#
#
#
# Elastic Constant Matrix: (Units=GPa)
#
#
# Indices 1 2 3 4 5 6 
#
# 1 155.2784 23.4240 46.0523 0.0000 0.0000 0.0000
# 2 23.4240 62.7964 23.3976 0.0000 0.0000 0.0000
# 3 46.0523 23.3976 49.6959 0.0000 0.0000 0.0000
# 4 0.0000 0.0000 0.0000 22.4160 0.0000 0.0000
# 5 0.0000 0.0000 0.0000 0.0000 12.8629 0.0000
# 6 0.0000 0.0000 0.0000 0.0000 0.0000 25.1999
#
#
#
# Elastic Compliance Matrix: (Units=1/GPa)
#
#
# Indices 1 2 3 4 5 6 
#
# 1 0.008885 -0.000299 -0.008093 0.000000 0.000000 0.000000
# 2 -0.000299 0.019322 -0.008820 0.000000 0.000000 0.000000
# 3 -0.008093 -0.008820 0.031775 0.000000 0.000000 0.000000
# 4 0.000000 0.000000 0.000000 0.044611 0.000000 0.000000
# 5 0.000000 0.000000 0.000000 0.000000 0.077743 0.000000
# 6 0.000000 0.000000 0.000000 0.000000 0.000000 0.039683
#
#
# Mechanical properties :
#
#
# Convention : Reuss Voigt Hill
#
# Bulk Modulus (GPa) = 39.12680 50.39096 44.75888
# Shear Modulus (GPa) = 18.87051 23.75553 21.31302
#
# Velocity S-wave (km/s) = 2.80813 3.15071 2.98434
# Velocity P-wave (km/s) = 5.18309 5.85605 5.52982
#
# Compressibility (1/GPa) = 0.02555793
#
# Stress axis : x y z
#
# Youngs Moduli (GPa) = 112.54386 51.75357 31.47131
#
# Poissons Ratio (x) = 0.01547 0.25471
# Poissons Ratio (y) = 0.03364 0.27758
# Poissons Ratio (z) = 0.91084 0.45648
#
# Static dielectric constant tensor:
#      x y z
#    x 1.950970 0.000000 0.000000 
#    y 0.000000 1.988350 0.000000 
#    z 0.000000 0.000000 1.922050 
# 
# From -- ./inp_files/6801.got.cif
#   From: 2010.05.17/outbox.cif.g08.bks.cpg/sg46_4_cif.got.tgz:6801.got - 2010.06.03 19:58:25.
