data_PCOD9378069
_publ_section_title
;
Structure prediction by ZEFSAII (Michael W. Deem and Ramdas Pophale) SiO2 
 PCOD9378069
Probable space group: I M A 2
;
_chemical_formula_sum "Si O2"
_cell_formula_units_Z 48
_cell_length_a 18.562700
_cell_length_b 20.023753
_cell_length_c 5.390000
_cell_angle_alpha 90.000000
_cell_angle_beta 90.000000
_cell_angle_gamma 90.000000
_cell_volume 2003.435618
_symmetry_space_group_name_H-M "I M A 2"
_symmetry_group_IT_number 46
_symmetry_cell_setting 'orthorhombic'
loop_
_space_group_symop_operation_xyz
x,y,z
-x,-y,z
1/2-x,y,z
1/2+x,-y,z
1/2+x,1/2+y,1/2+z
1/2-x,1/2-y,1/2+z
-x,1/2+y,1/2+z
x,1/2-y,1/2+z
loop_
_atom_site_type_symbol
_atom_site_label
_atom_site_fract_x
_atom_site_fract_y
_atom_site_fract_z
Si Si1 0.413411 0.000542 0.888640
Si Si2 0.835393 0.988716 0.388721
Si Si3 0.327517 0.292933 0.947005
Si Si4 0.671318 0.135053 0.888123
Si Si5 0.131080 0.646624 0.888148
Si Si6 0.480901 0.205415 0.355726
O O1 0.376374 0.031451 0.642499
O O2 0.388642 0.922813 0.889478
O O3 0.500000 0.000000 0.886707
O O4 0.377438 0.031172 0.136866
O O5 0.750000 0.973913 0.386255
O O6 0.842450 0.069902 0.389956
O O7 0.250000 0.327263 0.917117
O O8 0.328765 0.263122 0.226254
O O9 0.402816 0.327942 0.893231
O O10 0.750000 0.102387 0.884368
O O11 0.659716 0.176021 0.641514
O O12 0.662036 0.175480 0.137064
O O13 0.045618 0.654082 0.880892
O O14 0.486061 0.241875 0.086892
#
# Coordination Sequence:
#
# PCOD9378069 Si02
#       6
#     8   8   8   8   8   8
#     4  10  18  29  48  77 101 115 146 205 251 276
#     4  10  19  33  51  70  95 132 170 197 232 284
#     4   8  14  25  41  61  83 106 136 176 224 274
#     4  10  19  33  52  70  90 123 164 195 227 277
#     4  10  18  30  49  68  91 125 160 198 234 278
#     4  10  19  30  45  68  96 121 153 201 248 279
#
# _framework density 23.958842000000001
#
# number of rings (size 3 to 8) (size 9 to 14) (size 15 to 20)
#    0.000    2.333    0.000    6.500    0.000    0.000 
#    0.000    0.000    0.000   17.000    0.000   37.333 
#    0.000    0.000    0.000    0.000    0.000    0.000 
#
# Total GULP energy -133937.505282 kJ/mol
# GULP energy per Si atom -5580.729387 kJ/mol
# Density = 2.390431 g / cm^3
# Si number density = 23.958842 Si / 1000 Ang^3
#
#
#
# Elastic Constant Matrix: (Units=GPa)
#
#
# Indices 1 2 3 4 5 6 
#
# 1 259.7543 13.2172 58.0661 0.0000 0.0000 0.0000
# 2 13.2172 74.1530 7.8766 0.0000 0.0000 0.0000
# 3 58.0661 7.8766 256.1206 0.0000 0.0000 0.0000
# 4 0.0000 0.0000 0.0000 -16.8178 0.0000 0.0000
# 5 0.0000 0.0000 0.0000 0.0000 37.3379 0.0000
# 6 0.0000 0.0000 0.0000 0.0000 0.0000 21.0996
#
#
#
# Elastic Compliance Matrix: (Units=1/GPa)
#
#
# Indices 1 2 3 4 5 6 
#
# 1 0.004085 -0.000632 -0.000907 0.000000 0.000000 0.000000
# 2 -0.000632 0.013628 -0.000276 0.000000 0.000000 0.000000
# 3 -0.000907 -0.000276 0.004118 0.000000 0.000000 0.000000
# 4 0.000000 0.000000 0.000000 -0.059461 0.000000 0.000000
# 5 0.000000 0.000000 0.000000 0.000000 0.026782 0.000000
# 6 0.000000 0.000000 0.000000 0.000000 0.000000 0.047394
#
#
# Mechanical properties :
#
#
# Convention : Reuss Voigt Hill
#
# Bulk Modulus (GPa) = 54.93866 83.14975 69.04420
# Shear Modulus (GPa) = 108.12601 42.38181 75.25391
#
# Velocity S-wave (km/s) = 6.72517 4.21044 5.61051
# Velocity P-wave (km/s) = 9.12601 7.64315 8.41730
#
# Compressibility (1/GPa) = 0.01820212
#
# Stress axis : x y z
#
# Youngs Moduli (GPa) = 244.82185 73.38085 242.81064
#
# Poissons Ratio (x) = 0.04636 0.22013
# Poissons Ratio (y) = 0.15467 0.06698
# Poissons Ratio (z) = 0.22196 0.02024
#
# Static dielectric constant tensor:
#      x y z
#    x 1.950270 0.000000 0.000000 
#    y 0.000000 1.904580 0.000000 
#    z 0.000000 0.000000 2.065790 
# 
# From -- ./inp_files/1399.got.cif
#   From: 2010.05.17/outbox.cif.g08.bks.cpg/sg46_1_cif.got.tgz:1399.got - 2010.06.03 19:58:25.
