data_PCOD9378887
_publ_section_title
;
Structure prediction by ZEFSAII (Michael W. Deem and Ramdas Pophale) SiO2 
 PCOD9378887
Probable space group: I M A 2
;
_chemical_formula_sum "Si O2"
_cell_formula_units_Z 56
_cell_length_a 8.313292
_cell_length_b 15.118855
_cell_length_c 22.568463
_cell_angle_alpha 90.000000
_cell_angle_beta 90.000000
_cell_angle_gamma 90.000000
_cell_volume 2836.572708
_symmetry_space_group_name_H-M "I M A 2"
_symmetry_group_IT_number 46
_symmetry_cell_setting 'orthorhombic'
loop_
_space_group_symop_operation_xyz
x,y,z
-x,-y,z
1/2-x,y,z
1/2+x,-y,z
1/2+x,1/2+y,1/2+z
1/2-x,1/2-y,1/2+z
-x,1/2+y,1/2+z
x,1/2-y,1/2+z
loop_
_atom_site_type_symbol
_atom_site_label
_atom_site_fract_x
_atom_site_fract_y
_atom_site_fract_z
Si Si1 0.056037 0.095968 0.620810
Si Si2 0.558056 0.904177 0.910372
Si Si3 0.556099 0.903546 0.484346
Si Si4 0.946655 0.784220 0.376753
Si Si5 0.441381 0.596728 0.545573
Si Si6 0.444713 0.399046 0.764272
Si Si7 0.055834 0.285907 0.651965
O O1 0.250000 0.095111 0.620457
O O2 0.000195 0.106573 0.552198
O O3 0.001973 0.183793 0.655081
O O4 0.000000 0.000000 0.642369
O O5 0.750000 0.905324 0.909420
O O6 0.500752 0.817723 0.875093
O O7 0.500000 0.000000 0.889451
O O8 0.505302 0.892702 0.978803
O O9 0.750000 0.901866 0.485268
O O10 0.501216 0.829147 0.438489
O O11 0.500000 0.000000 0.463214
O O12 0.750000 0.784312 0.376442
O O13 0.998983 0.844526 0.322046
O O14 0.500000 0.500000 0.566848
O O15 0.250000 0.597383 0.544351
O O16 0.504719 0.670904 0.589971
O O17 0.500000 0.500000 0.765304
O O18 0.250000 0.398673 0.763998
O O19 0.501686 0.347245 0.705685
O O20 0.250000 0.285546 0.653675
#
# Coordination Sequence:
#
# PCOD9378887 Si02
#       7
#     8   8   8   8   8   8   8
#     4   9  18  32  50  73 101 133 168 209 256 307
#     4  10  19  34  54  76 105 137 172 213 259 311
#     4   9  16  28  47  71  98 127 160 199 248 300
#     4   9  18  33  53  74 100 136 171 205 251 307
#     4  11  21  33  52  79 109 138 173 216 265 318
#     4  10  21  37  56  78 103 135 175 215 257 307
#     4  10  20  35  54  75 104 142 180 217 262 312
#
# _framework density 19.742135000000001
#
# number of rings (size 3 to 8) (size 9 to 14) (size 15 to 20)
#    0.000    2.286    0.000    4.286    0.000    4.571 
#    0.000    6.429    0.000    0.000    0.000    0.000 
#    0.000    0.000    0.000    0.000    0.000    0.000 
#
# Total GULP energy -156292.590956 kJ/mol
# GULP energy per Si atom -5581.878248 kJ/mol
# Density = 1.969720 g / cm^3
# Si number density = 19.742135 Si / 1000 Ang^3
#
#
#
# Elastic Constant Matrix: (Units=GPa)
#
#
# Indices 1 2 3 4 5 6 
#
# 1 16.6400 20.5977 10.7694 0.0000 0.0000 0.0000
# 2 20.5977 211.2231 65.1160 0.0000 0.0000 0.0000
# 3 10.7694 65.1160 45.4318 0.0000 0.0000 0.0000
# 4 0.0000 0.0000 0.0000 33.2226 0.0000 0.0000
# 5 0.0000 0.0000 0.0000 0.0000 8.3734 0.0000
# 6 0.0000 0.0000 0.0000 0.0000 0.0000 30.5451
#
#
#
# Elastic Compliance Matrix: (Units=1/GPa)
#
#
# Indices 1 2 3 4 5 6 
#
# 1 0.072144 -0.003159 -0.012574 0.000000 0.000000 0.000000
# 2 -0.003159 0.008620 -0.011607 0.000000 0.000000 0.000000
# 3 -0.012574 -0.011607 0.041627 0.000000 0.000000 0.000000
# 4 0.000000 0.000000 0.000000 0.030100 0.000000 0.000000
# 5 0.000000 0.000000 0.000000 0.000000 0.119426 0.000000
# 6 0.000000 0.000000 0.000000 0.000000 0.000000 0.032738
#
#
# Mechanical properties :
#
#
# Convention : Reuss Voigt Hill
#
# Bulk Modulus (GPa) = 14.76827 51.80679 33.28753
# Shear Modulus (GPa) = 13.09224 26.21567 19.65395
#
# Velocity S-wave (km/s) = 2.57799 3.64800 3.15863
# Velocity P-wave (km/s) = 4.04452 6.63645 5.49549
#
# Compressibility (1/GPa) = 0.06771272
#
# Stress axis : x y z
#
# Youngs Moduli (GPa) = 13.86113 116.00265 24.02281
#
# Poissons Ratio (x) = 0.36644 0.30206
# Poissons Ratio (y) = 0.04379 0.27882
# Poissons Ratio (z) = 0.17429 1.34641
#
# Static dielectric constant tensor:
#      x y z
#    x 1.690780 0.000000 0.000000 
#    y 0.000000 1.705980 0.000000 
#    z 0.000000 0.000000 1.682540 
# 
# From -- ./inp_files/21036.got.cif
#   From: 2010.05.17/outbox.cif.g08.bks.cpg/sg46_11_cif.got.tgz:21036.got - 2010.06.03 19:58:25.
