data_PCOD9378832
_publ_section_title
;
Structure prediction by ZEFSAII (Michael W. Deem and Ramdas Pophale) SiO2 
 PCOD9378832
Probable space group: I M A 2
;
_chemical_formula_sum "Si O2"
_cell_formula_units_Z 64
_cell_length_a 13.452564
_cell_length_b 25.922596
_cell_length_c 8.379811
_cell_angle_alpha 90.000000
_cell_angle_beta 90.000000
_cell_angle_gamma 90.000000
_cell_volume 2922.252790
_symmetry_space_group_name_H-M "I M A 2"
_symmetry_group_IT_number 46
_symmetry_cell_setting 'orthorhombic'
loop_
_space_group_symop_operation_xyz
x,y,z
-x,-y,z
1/2-x,y,z
1/2+x,-y,z
1/2+x,1/2+y,1/2+z
1/2-x,1/2-y,1/2+z
-x,1/2+y,1/2+z
x,1/2-y,1/2+z
loop_
_atom_site_type_symbol
_atom_site_label
_atom_site_fract_x
_atom_site_fract_y
_atom_site_fract_z
Si Si1 0.131118 0.577589 0.700190
Si Si2 0.367255 0.906191 0.834528
Si Si3 0.518455 0.233961 0.608719
Si Si4 0.459589 0.174790 0.877137
Si Si5 0.371693 0.030228 0.343175
Si Si6 0.867084 0.925434 0.006536
Si Si7 0.131201 0.687613 0.829452
Si Si8 0.369931 0.013265 0.694665
O O1 0.250000 0.579654 0.723159
O O2 0.117248 0.569811 0.511707
O O3 0.099172 0.528534 0.801111
O O4 0.095577 0.633994 0.751732
O O5 0.250000 0.892377 0.820373
O O6 0.438301 0.856710 0.838535
O O7 0.389378 0.951842 0.709377
O O8 0.437286 0.202922 0.710535
O O9 0.473804 0.279167 0.501257
O O10 0.593933 0.264196 0.725070
O O11 0.580223 0.195286 0.498965
O O12 0.387577 0.132615 0.951524
O O13 0.250000 0.033624 0.345342
O O14 0.404742 0.062732 0.186237
O O15 0.402832 0.038653 0.527204
O O16 0.750000 0.936182 0.014226
O O17 0.906165 0.959255 0.857004
O O18 0.250000 0.687996 0.840168
O O19 0.250000 0.017450 0.697313
#
# Coordination Sequence:
#
# PCOD9378832 Si02
#       8
#     8   8   8   8   8   8   8   8
#     4   9  16  29  51  81 119 161 195 227 282 353
#     4  10  19  34  58  87 126 168 194 227 292 365
#     4  10  23  39  53  78 118 158 202 271 312 344
#     4  11  24  42  61  84 118 158 208 260 315 365
#     4   9  17  33  59  90 121 154 193 242 302 366
#     4  10  21  42  67  90 118 157 200 257 320 370
#     4  10  19  33  55  83 115 163 212 245 292 361
#     4   9  18  34  59  93 127 156 192 240 295 368
#
# _framework density 21.900912000000002
#
# number of rings (size 3 to 8) (size 9 to 14) (size 15 to 20)
#    0.000    2.250    2.500    0.375    1.750    3.000 
#    4.500    0.625    2.750    0.000    0.000    0.000 
#    0.000    0.000    0.000    0.000    0.000    0.000 
#
# Total GULP energy -178669.020849 kJ/mol
# GULP energy per Si atom -5583.406902 kJ/mol
# Density = 2.185106 g / cm^3
# Si number density = 21.900912 Si / 1000 Ang^3
#
#
#
# Elastic Constant Matrix: (Units=GPa)
#
#
# Indices 1 2 3 4 5 6 
#
# 1 40.8744 -6.3923 20.8067 0.0004 0.0001 0.0002
# 2 -6.3923 82.8296 51.0089 0.0005 0.0002 0.0001
# 3 20.8067 51.0089 146.2278 0.0035 -0.0002 0.0004
# 4 0.0004 0.0005 0.0035 28.8401 -0.0011 0.0002
# 5 0.0001 0.0002 -0.0002 -0.0011 21.1961 -0.0001
# 6 0.0002 0.0001 0.0004 0.0002 -0.0001 31.5521
#
#
#
# Elastic Compliance Matrix: (Units=1/GPa)
#
#
# Indices 1 2 3 4 5 6 
#
# 1 0.028532 0.005988 -0.006149 0.000000 0.000000 0.000000
# 2 0.005988 0.016633 -0.006654 0.000000 0.000000 0.000000
# 3 -0.006149 -0.006654 0.010035 -0.000001 0.000000 0.000000
# 4 0.000000 0.000000 -0.000001 0.034674 0.000002 0.000000
# 5 0.000000 0.000000 0.000000 0.000002 0.047178 0.000000
# 6 0.000000 0.000000 0.000000 0.000000 0.000000 0.031694
#
#
# Mechanical properties :
#
#
# Convention : Reuss Voigt Hill
#
# Bulk Modulus (GPa) = 24.05553 44.53095 34.29324
# Shear Modulus (GPa) = 25.48016 29.95157 27.71586
#
# Velocity S-wave (km/s) = 3.41461 3.70211 3.56126
# Velocity P-wave (km/s) = 5.15303 6.21701 5.70986
#
# Compressibility (1/GPa) = 0.04157048
#
# Stress axis : x y z
#
# Youngs Moduli (GPa) = 35.04874 60.12144 99.65367
#
# Poissons Ratio (x) = -0.36004 0.61274
# Poissons Ratio (y) = -0.20989 0.66312
# Poissons Ratio (z) = 0.21551 0.40006
#
# Static dielectric constant tensor:
#      x y z
#    x 1.840380 0.000000 0.000000 
#    y 0.000000 1.790810 0.000000 
#    z 0.000000 0.000000 1.842190 
# 
# From -- ./inp_files/6116.got.cif
#   From: 2010.05.17/outbox.cif.g08.bks.cpg/sg46_4_cif.got.tgz:6116.got - 2010.06.03 19:58:25.
