data_PCOD9378843
_publ_section_title
;
Structure prediction by ZEFSAII (Michael W. Deem and Ramdas Pophale) SiO2 
 PCOD9378843
Probable space group: I M A 2
;
_chemical_formula_sum "Si O2"
_cell_formula_units_Z 64
_cell_length_a 18.787355
_cell_length_b 13.165814
_cell_length_c 14.174457
_cell_angle_alpha 90.000000
_cell_angle_beta 90.000000
_cell_angle_gamma 90.000000
_cell_volume 3506.063583
_symmetry_space_group_name_H-M "I M A 2"
_symmetry_group_IT_number 46
_symmetry_cell_setting 'orthorhombic'
loop_
_space_group_symop_operation_xyz
x,y,z
-x,-y,z
1/2-x,y,z
1/2+x,-y,z
1/2+x,1/2+y,1/2+z
1/2-x,1/2-y,1/2+z
-x,1/2+y,1/2+z
x,1/2-y,1/2+z
loop_
_atom_site_type_symbol
_atom_site_label
_atom_site_fract_x
_atom_site_fract_y
_atom_site_fract_z
Si Si1 0.958636 0.414861 0.396470
Si Si2 0.669710 0.191715 0.796228
Si Si3 0.579309 0.482034 0.603997
Si Si4 0.670680 0.415399 0.888789
Si Si5 0.834165 0.893298 0.247736
Si Si6 0.569253 0.242434 0.157650
Si Si7 0.530080 0.103714 0.502293
Si Si8 0.463042 0.219933 0.335623
O O1 0.885905 0.371557 0.356476
O O2 0.933281 0.472696 0.491878
O O3 0.000000 0.500000 0.336808
O O4 0.015181 0.321357 0.395128
O O5 0.750000 0.155719 0.801663
O O6 0.666874 0.307994 0.833666
O O7 0.636301 0.192750 0.692573
O O8 0.500000 0.500000 0.645555
O O9 0.631140 0.565400 0.649460
O O10 0.598873 0.367240 0.629986
O O11 0.750000 0.423933 0.929122
O O12 0.660649 0.508282 0.816375
O O13 0.609933 0.413785 0.966321
O O14 0.750000 0.867435 0.238688
O O15 0.884915 0.806734 0.294322
O O16 0.515345 0.227259 0.245154
O O17 0.530737 0.302141 0.074051
O O18 0.485667 0.131200 0.407886
O O19 0.500000 0.000000 0.545027
#
# Coordination Sequence:
#
# PCOD9378843 Si02
#       8
#     8   8   8   8   8   8   8   8
#     4  10  22  38  61  88 121 163 212 258 308 378
#     4  10  20  36  57  84 121 159 194 243 313 375
#     4  11  19  33  58  91 121 154 203 264 310 363
#     4  10  19  33  55  88 119 146 188 242 303 364
#     4  11  22  35  61  95 125 161 202 261 322 371
#     4  11  21  33  57  90 118 155 199 250 310 367
#     4  12  22  37  61  88 118 160 199 250 315 362
#     4  11  21  39  62  86 123 157 210 256 304 377
#
# _framework density 18.254090000000001
#
# number of rings (size 3 to 8) (size 9 to 14) (size 15 to 20)
#    0.000    1.250    7.500    0.000    0.000    3.000 
#    0.000    0.625    0.000    5.250    0.000    0.000 
#    0.000    0.000    0.000    0.000    0.000    0.000 
#
# Total GULP energy -178153.629404 kJ/mol
# GULP energy per Si atom -5567.300919 kJ/mol
# Density = 1.821254 g / cm^3
# Si number density = 18.254090 Si / 1000 Ang^3
#
#
#
# Elastic Constant Matrix: (Units=GPa)
#
#
# Indices 1 2 3 4 5 6 
#
# 1 138.8354 35.3322 32.3106 0.0000 0.0000 0.0000
# 2 35.3322 57.6563 16.0395 0.0000 0.0000 0.0000
# 3 32.3106 16.0395 56.7826 0.0000 0.0000 0.0000
# 4 0.0000 0.0000 0.0000 20.5004 0.0000 0.0000
# 5 0.0000 0.0000 0.0000 0.0000 14.9865 0.0000
# 6 0.0000 0.0000 0.0000 0.0000 0.0000 25.3668
#
#
#
# Elastic Compliance Matrix: (Units=1/GPa)
#
#
# Indices 1 2 3 4 5 6 
#
# 1 0.009300 -0.004588 -0.003996 0.000000 0.000000 0.000000
# 2 -0.004588 0.021086 -0.003346 0.000000 0.000000 0.000000
# 3 -0.003996 -0.003346 0.020830 0.000000 0.000000 0.000000
# 4 0.000000 0.000000 0.000000 0.048780 0.000000 0.000000
# 5 0.000000 0.000000 0.000000 0.000000 0.066727 0.000000
# 6 0.000000 0.000000 0.000000 0.000000 0.000000 0.039422
#
#
# Mechanical properties :
#
#
# Convention : Reuss Voigt Hill
#
# Bulk Modulus (GPa) = 36.55325 46.73766 41.64546
# Shear Modulus (GPa) = 20.90975 23.47686 22.19330
#
# Velocity S-wave (km/s) = 3.38817 3.59014 3.49061
# Velocity P-wave (km/s) = 5.94764 6.54561 6.25377
#
# Compressibility (1/GPa) = 0.02735735
#
# Stress axis : x y z
#
# Youngs Moduli (GPa) = 107.52352 47.42429 48.00749
#
# Poissons Ratio (x) = 0.21756 0.19185
# Poissons Ratio (y) = 0.49327 0.16063
# Poissons Ratio (z) = 0.42969 0.15867
#
# Static dielectric constant tensor:
#      x y z
#    x 1.638250 0.000000 0.000000 
#    y 0.000000 1.677180 0.000000 
#    z 0.000000 0.000000 1.679500 
# 
# From -- ./inp_files/16795.got.cif
#   From: 2010.05.17/outbox.cif.g08.bks.cpg/sg46_9_cif.got.tgz:16795.got - 2010.06.03 19:58:25.
