data_PCOD9378086
_publ_section_title
;
Structure prediction by ZEFSAII (Michael W. Deem and Ramdas Pophale) SiO2 
 PCOD9378086
Probable space group: I M A 2
;
_chemical_formula_sum "Si O2"
_cell_formula_units_Z 40
_cell_length_a 19.388418
_cell_length_b 19.134874
_cell_length_c 4.953465
_cell_angle_alpha 90.000000
_cell_angle_beta 90.000000
_cell_angle_gamma 90.000000
_cell_volume 1837.710428
_symmetry_space_group_name_H-M "I M A 2"
_symmetry_group_IT_number 46
_symmetry_cell_setting 'orthorhombic'
loop_
_space_group_symop_operation_xyz
x,y,z
-x,-y,z
1/2-x,y,z
1/2+x,-y,z
1/2+x,1/2+y,1/2+z
1/2-x,1/2-y,1/2+z
-x,1/2+y,1/2+z
x,1/2-y,1/2+z
loop_
_atom_site_type_symbol
_atom_site_label
_atom_site_fract_x
_atom_site_fract_y
_atom_site_fract_z
Si Si1 0.515836 0.083036 0.718590
Si Si2 0.250000 0.459701 0.287896
Si Si3 0.112960 0.088606 0.065210
Si Si4 0.750000 0.055719 0.285512
Si Si5 0.668604 0.703202 0.943118
Si Si6 0.399992 0.926046 0.216114
O O1 0.541310 0.100231 0.420280
O O2 0.500000 0.000000 0.714175
O O3 0.449200 0.111842 0.871600
O O4 0.580176 0.097111 0.916938
O O5 0.318556 0.419762 0.380468
O O6 0.250000 0.528206 0.478322
O O7 0.250000 0.488134 0.984411
O O8 0.126848 0.140352 0.311337
O O9 0.098712 0.011314 0.191910
O O10 0.676429 0.092607 0.317899
O O11 0.750000 0.685146 0.922683
O O12 0.656049 0.768560 0.741459
#
# Coordination Sequence:
#
# PCOD9378086 Si02
#       6
#     8   4   8   4   8   8
#     4  10  19  30  46  68  95 121 159 202 245 300
#     4  10  20  28  44  67  82 126 172 189 240 282
#     4  10  20  35  51  68  99 133 168 214 255 293
#     4  10  18  30  44  63  96 120 154 197 220 294
#     4  10  22  37  51  71  97 131 182 230 256 278
#     4  10  20  31  46  71  93 125 162 195 244 305
#
# _framework density 21.766216
#
# number of rings (size 3 to 8) (size 9 to 14) (size 15 to 20)
#    0.000    2.000    1.000    5.400    0.000    9.600 
#    0.000    0.000    0.000    0.000    0.000    0.000 
#    0.000    0.000    0.000   18.000    0.000   13.800 
#
# Total GULP energy -111803.133141 kJ/mol
# GULP energy per Si atom -5590.156657 kJ/mol
# Density = 2.171668 g / cm^3
# Si number density = 21.766216 Si / 1000 Ang^3
#
#
#
# Elastic Constant Matrix: (Units=GPa)
#
#
# Indices 1 2 3 4 5 6 
#
# 1 122.9833 1.1773 22.4458 0.0000 0.0000 0.0000
# 2 1.1773 18.8897 -1.7067 0.0000 0.0000 0.0000
# 3 22.4458 -1.7067 95.7923 0.0000 0.0000 0.0000
# 4 0.0000 0.0000 0.0000 20.1627 0.0000 0.0000
# 5 0.0000 0.0000 0.0000 0.0000 34.0379 0.0000
# 6 0.0000 0.0000 0.0000 0.0000 0.0000 17.7434
#
#
#
# Elastic Compliance Matrix: (Units=1/GPa)
#
#
# Indices 1 2 3 4 5 6 
#
# 1 0.008504 -0.000711 -0.002005 0.000000 0.000000 0.000000
# 2 -0.000711 0.053084 0.001112 0.000000 0.000000 0.000000
# 3 -0.002005 0.001112 0.010929 0.000000 0.000000 0.000000
# 4 0.000000 0.000000 0.000000 0.049597 0.000000 0.000000
# 5 0.000000 0.000000 0.000000 0.000000 0.029379 0.000000
# 6 0.000000 0.000000 0.000000 0.000000 0.000000 0.056359
#
#
# Mechanical properties :
#
#
# Convention : Reuss Voigt Hill
#
# Bulk Modulus (GPa) = 14.42821 31.27756 22.85289
# Shear Modulus (GPa) = 21.35271 28.77206 25.06239
#
# Velocity S-wave (km/s) = 3.13549 3.63969 3.39696
# Velocity P-wave (km/s) = 4.44427 5.66252 5.08997
#
# Compressibility (1/GPa) = 0.06930866
#
# Stress axis : x y z
#
# Youngs Moduli (GPa) = 117.59198 18.83812 91.50005
#
# Poissons Ratio (x) = 0.01340 0.18349
# Poissons Ratio (y) = 0.08363 -0.10179
# Poissons Ratio (z) = 0.23581 -0.02096
#
# Static dielectric constant tensor:
#      x y z
#    x 1.871920 0.000000 0.000000 
#    y 0.000000 1.807900 0.000000 
#    z 0.000000 0.000000 1.801700 
# 
# From -- ./inp_files/1654.got.cif
#   From: 2010.05.17/outbox.cif.g08.bks.cpg/sg46_1_cif.got.tgz:1654.got - 2010.06.03 19:58:25.
