data_PCOD9378527
_publ_section_title
;
Structure prediction by ZEFSAII (Michael W. Deem and Ramdas Pophale) SiO2 
 PCOD9378527
Probable space group: I M A 2
;
_chemical_formula_sum "Si O2"
_cell_formula_units_Z 56
_cell_length_a 9.135148
_cell_length_b 19.615511
_cell_length_c 17.566933
_cell_angle_alpha 90.000000
_cell_angle_beta 90.000000
_cell_angle_gamma 90.000000
_cell_volume 3147.829196
_symmetry_space_group_name_H-M "I M A 2"
_symmetry_group_IT_number 46
_symmetry_cell_setting 'orthorhombic'
loop_
_space_group_symop_operation_xyz
x,y,z
-x,-y,z
1/2-x,y,z
1/2+x,-y,z
1/2+x,1/2+y,1/2+z
1/2-x,1/2-y,1/2+z
-x,1/2+y,1/2+z
x,1/2-y,1/2+z
loop_
_atom_site_type_symbol
_atom_site_label
_atom_site_fract_x
_atom_site_fract_y
_atom_site_fract_z
Si Si1 0.924188 0.687000 0.018040
Si Si2 0.084073 0.566118 0.938451
Si Si3 0.574672 0.800006 0.906566
Si Si4 0.420278 0.786106 0.277527
Si Si5 0.416731 0.654931 0.172983
Si Si6 0.927117 0.073798 0.825375
Si Si7 0.584620 0.434016 0.754933
O O1 0.750000 0.680701 0.014383
O O2 0.981646 0.664599 0.100411
O O3 0.960670 0.763142 0.987110
O O4 0.998703 0.633255 0.961582
O O5 0.250000 0.568135 0.966428
O O6 0.088425 0.560629 0.846995
O O7 0.000000 0.500000 0.968711
O O8 0.750000 0.809618 0.901300
O O9 0.519644 0.745120 0.843810
O O10 0.492349 0.869776 0.883750
O O11 0.250000 0.796492 0.304567
O O12 0.414620 0.727973 0.214394
O O13 0.475346 0.857745 0.243939
O O14 0.250000 0.638135 0.149375
O O15 0.460892 0.602090 0.239767
O O16 0.750000 0.071573 0.832150
O O17 0.000000 0.000000 0.836245
O O18 0.500000 0.500000 0.725814
O O19 0.750000 0.435902 0.725632
#
# Coordination Sequence:
#
# PCOD9378527 Si02
#       7
#     8   8   8   8   8   8   8
#     4  11  22  34  50  76 109 142 179 218 261 314
#     4  10  19  31  48  70 101 136 168 204 248 296
#     4  10  20  33  53  79 105 137 177 222 267 314
#     4   9  17  33  52  73  99 131 172 216 258 310
#     4   9  20  35  53  75 103 139 177 215 265 321
#     4  10  21  38  60  84 109 140 180 226 275 327
#     4   9  17  28  46  71  98 127 160 201 245 294
#
# _framework density 17.790037999999999
#
# number of rings (size 3 to 8) (size 9 to 14) (size 15 to 20)
#    0.000    2.286    1.429    2.571    0.000    6.286 
#    0.000    1.429    0.000    0.857    0.000    4.000 
#    0.000    0.000    0.000    0.000    0.000    0.000 
#
# Total GULP energy -155969.325040 kJ/mol
# GULP energy per Si atom -5570.333037 kJ/mol
# Density = 1.774955 g / cm^3
# Si number density = 17.790038 Si / 1000 Ang^3
#
#
#
# Elastic Constant Matrix: (Units=GPa)
#
#
# Indices 1 2 3 4 5 6 
#
# 1 74.9924 44.7840 26.1881 0.0000 0.0000 0.0000
# 2 44.7840 143.4521 13.6791 0.0000 0.0000 0.0000
# 3 26.1881 13.6791 27.0880 0.0000 0.0000 0.0000
# 4 0.0000 0.0000 0.0000 6.8877 0.0000 0.0000
# 5 0.0000 0.0000 0.0000 0.0000 19.2144 0.0000
# 6 0.0000 0.0000 0.0000 0.0000 0.0000 30.8620
#
#
#
# Elastic Compliance Matrix: (Units=1/GPa)
#
#
# Indices 1 2 3 4 5 6 
#
# 1 0.023596 -0.005454 -0.020058 0.000000 0.000000 0.000000
# 2 -0.005454 0.008584 0.000938 0.000000 0.000000 0.000000
# 3 -0.020058 0.000938 0.055835 0.000000 0.000000 0.000000
# 4 0.000000 0.000000 0.000000 0.145186 0.000000 0.000000
# 5 0.000000 0.000000 0.000000 0.000000 0.052044 0.000000
# 6 0.000000 0.000000 0.000000 0.000000 0.000000 0.032402
#
#
# Mechanical properties :
#
#
# Convention : Reuss Voigt Hill
#
# Bulk Modulus (GPa) = 25.72890 46.09277 35.91084
# Shear Modulus (GPa) = 13.16652 22.11825 17.64238
#
# Velocity S-wave (km/s) = 2.72344 3.52986 3.15254
# Velocity P-wave (km/s) = 4.93796 6.52524 5.78629
#
# Compressibility (1/GPa) = 0.03886679
#
# Stress axis : x y z
#
# Youngs Moduli (GPa) = 42.38008 116.49388 17.90996
#
# Poissons Ratio (x) = 0.63532 0.35924
# Poissons Ratio (y) = 0.23113 -0.01679
# Poissons Ratio (z) = 0.85006 -0.10923
#
# Static dielectric constant tensor:
#      x y z
#    x 1.612450 0.000000 0.000000 
#    y 0.000000 1.627750 0.000000 
#    z 0.000000 0.000000 1.612520 
# 
# From -- ./inp_files/18451.got.cif
#   From: 2010.05.17/outbox.cif.g08.bks.cpg/sg46_10_cif.got.tgz:18451.got - 2010.06.03 19:58:25.
