data_PCOD9378027
_publ_section_title
;
Structure prediction by ZEFSAII (Michael W. Deem and Ramdas Pophale) SiO2 
 PCOD9378027
Probable space group: I M A 2
;
_chemical_formula_sum "Si O2"
_cell_formula_units_Z 64
_cell_length_a 8.590640
_cell_length_b 27.129171
_cell_length_c 18.833559
_cell_angle_alpha 90.000000
_cell_angle_beta 90.000000
_cell_angle_gamma 90.000000
_cell_volume 4389.291659
_symmetry_space_group_name_H-M "I M A 2"
_symmetry_group_IT_number 46
_symmetry_cell_setting 'orthorhombic'
loop_
_space_group_symop_operation_xyz
x,y,z
-x,-y,z
1/2-x,y,z
1/2+x,-y,z
1/2+x,1/2+y,1/2+z
1/2-x,1/2-y,1/2+z
-x,1/2+y,1/2+z
x,1/2-y,1/2+z
loop_
_atom_site_type_symbol
_atom_site_label
_atom_site_fract_x
_atom_site_fract_y
_atom_site_fract_z
Si Si1 0.935093 0.741282 0.612160
Si Si2 0.435683 0.053728 0.953962
Si Si3 0.063099 0.746404 0.454003
Si Si4 0.935224 0.297563 0.237080
Si Si5 0.564094 0.352095 0.700705
Si Si6 0.435373 0.204679 0.323725
Si Si7 0.062536 0.646408 0.370936
Si Si8 0.437295 0.054301 0.118681
O O1 0.750000 0.736022 0.608604
O O2 0.005923 0.747724 0.534434
O O3 0.979942 0.787002 0.663296
O O4 0.004331 0.692177 0.649482
O O5 0.250000 0.052338 0.951843
O O6 0.496111 0.096923 0.903843
O O7 0.500000 0.000000 0.934388
O O8 0.482532 0.063640 0.036084
O O9 0.250000 0.750010 0.450392
O O10 0.016265 0.693530 0.419385
O O11 0.987397 0.788752 0.404882
O O12 0.750000 0.299771 0.225529
O O13 0.983968 0.341789 0.289486
O O14 0.975671 0.249387 0.284046
O O15 0.750000 0.349519 0.705042
O O16 0.489866 0.342197 0.778242
O O17 0.509176 0.403283 0.667135
O O18 0.250000 0.210790 0.317023
O O19 0.250000 0.644454 0.372294
O O20 0.250000 0.055242 0.123370
O O21 0.500000 0.000000 0.137020
#
# Coordination Sequence:
#
# PCOD9378027 Si02
#       8
#     8   8   8   8   8   8   8   8
#     4  11  20  29  43  65  89 115 148 185 218 256
#     4  10  20  31  45  62  85 113 144 181 219 255
#     4  10  19  31  45  63  88 118 147 178 217 264
#     4   9  17  30  44  60  84 115 145 177 216 260
#     4  11  20  31  46  63  86 119 151 181 219 263
#     4  10  18  29  44  63  86 112 144 183 217 254
#     4   9  18  30  45  62  83 112 147 179 213 256
#     4  10  20  33  46  64  87 114 148 186 223 260
#
# _framework density 14.580940999999999
#
# number of rings (size 3 to 8) (size 9 to 14) (size 15 to 20)
#    0.000    2.000    0.000    7.875    0.000    6.500 
#    0.000    0.000    0.000    0.000    0.000    0.000 
#    0.000    1.000    0.000    7.000    0.000    5.500 
#
# Total GULP energy -178451.462342 kJ/mol
# GULP energy per Si atom -5576.608198 kJ/mol
# Density = 1.454775 g / cm^3
# Si number density = 14.580941 Si / 1000 Ang^3
#
#
#
# Elastic Constant Matrix: (Units=GPa)
#
#
# Indices 1 2 3 4 5 6 
#
# 1 46.8842 22.8498 22.5048 0.0000 0.0000 0.0000
# 2 22.8498 87.6845 54.1062 0.0000 0.0000 0.0000
# 3 22.5048 54.1062 100.0578 0.0000 0.0000 0.0000
# 4 0.0000 0.0000 0.0000 27.3079 0.0000 0.0000
# 5 0.0000 0.0000 0.0000 0.0000 22.4012 0.0000
# 6 0.0000 0.0000 0.0000 0.0000 0.0000 23.3502
#
#
#
# Elastic Compliance Matrix: (Units=1/GPa)
#
#
# Indices 1 2 3 4 5 6 
#
# 1 0.025081 -0.004585 -0.003162 0.000000 0.000000 0.000000
# 2 -0.004585 0.017954 -0.008677 0.000000 0.000000 0.000000
# 3 -0.003162 -0.008677 0.015398 0.000000 0.000000 0.000000
# 4 0.000000 0.000000 0.000000 0.036619 0.000000 0.000000
# 5 0.000000 0.000000 0.000000 0.000000 0.044640 0.000000
# 6 0.000000 0.000000 0.000000 0.000000 0.000000 0.042826
#
#
# Mechanical properties :
#
#
# Convention : Reuss Voigt Hill
#
# Bulk Modulus (GPa) = 39.08614 48.17203 43.62908
# Shear Modulus (GPa) = 22.33189 23.62290 22.97740
#
# Velocity S-wave (km/s) = 3.91779 4.02944 3.97401
# Velocity P-wave (km/s) = 6.87967 7.39986 7.14450
#
# Compressibility (1/GPa) = 0.02558452
#
# Stress axis : x y z
#
# Youngs Moduli (GPa) = 39.87013 55.69906 64.94517
#
# Poissons Ratio (x) = 0.25537 0.20536
# Poissons Ratio (y) = 0.18280 0.56354
# Poissons Ratio (z) = 0.12607 0.48331
#
# Static dielectric constant tensor:
#      x y z
#    x 1.487370 0.000000 0.000000 
#    y 0.000000 1.468160 0.000000 
#    z 0.000000 0.000000 1.500350 
# 
# From -- ./inp_files/18642.got.cif
#   From: 2010.05.17/outbox.cif.g08.bks.cpg/sg46_10_cif.got.tgz:18642.got - 2010.06.03 19:58:25.
