data_PCOD9378378
_publ_section_title
;
Structure prediction by ZEFSAII (Michael W. Deem and Ramdas Pophale) SiO2 
 PCOD9378378
Probable space group: I M A 2
;
_chemical_formula_sum "Si O2"
_cell_formula_units_Z 48
_cell_length_a 9.822293
_cell_length_b 8.445823
_cell_length_c 28.398229
_cell_angle_alpha 90.000000
_cell_angle_beta 90.000000
_cell_angle_gamma 90.000000
_cell_volume 2355.841769
_symmetry_space_group_name_H-M "I M A 2"
_symmetry_group_IT_number 46
_symmetry_cell_setting 'orthorhombic'
loop_
_space_group_symop_operation_xyz
x,y,z
-x,-y,z
1/2-x,y,z
1/2+x,-y,z
1/2+x,1/2+y,1/2+z
1/2-x,1/2-y,1/2+z
-x,1/2+y,1/2+z
x,1/2-y,1/2+z
loop_
_atom_site_type_symbol
_atom_site_label
_atom_site_fract_x
_atom_site_fract_y
_atom_site_fract_z
Si Si1 0.475635 0.685688 0.248610
Si Si2 0.477509 0.309568 0.034381
Si Si3 0.911639 0.338100 0.846393
Si Si4 0.250000 0.828029 0.183718
Si Si5 0.750000 0.226753 0.580314
Si Si6 0.750000 0.806651 0.209572
Si Si7 0.086706 0.166138 0.430699
Si Si8 0.250000 0.149802 0.607181
O O1 0.500000 0.500000 0.247441
O O2 0.415793 0.740456 0.298291
O O3 0.378659 0.739825 0.206251
O O4 0.618747 0.768134 0.239950
O O5 0.500000 0.500000 0.032469
O O6 0.620754 0.239489 0.048436
O O7 0.377598 0.283582 0.078074
O O8 0.426060 0.260989 0.982894
O O9 0.750000 0.363774 0.858056
O O10 0.000000 0.500000 0.837811
O O11 0.000057 0.255492 0.888286
O O12 0.250000 0.822509 0.127993
O O13 0.250000 0.009294 0.198347
O O14 0.750000 0.041190 0.598200
O O15 0.750000 0.702444 0.161346
O O16 0.250000 0.148793 0.421286
O O17 0.000000 0.000000 0.433916
#
# Coordination Sequence:
#
# PCOD9378378 Si02
#       8
#     8   8   8   4   4   4   8   4
#     4  12  26  44  66  93 127 168 213 264 320 383
#     4   9  18  30  53  85 123 160 206 256 303 361
#     4  11  23  39  63  94 129 165 212 262 320 382
#     4  12  24  46  61  98 125 167 220 261 321 382
#     4  10  20  32  59  82 127 161 210 261 305 370
#     4  12  26  40  71  90 129 171 210 269 317 382
#     4  10  19  32  55  90 128 164 209 259 315 372
#     4  10  18  36  53  90 115 165 204 255 313 358
#
# _framework density 20.374884999999999
#
# number of rings (size 3 to 8) (size 9 to 14) (size 15 to 20)
#    0.000    1.333    1.667    6.000    7.000    1.333 
#    0.000    0.000    0.000    2.000    0.000    0.000 
#    0.000    0.000    0.000    0.000    0.000    0.000 
#
# Total GULP energy -133895.026144 kJ/mol
# GULP energy per Si atom -5578.959423 kJ/mol
# Density = 2.032851 g / cm^3
# Si number density = 20.374885 Si / 1000 Ang^3
#
#
#
# Elastic Constant Matrix: (Units=GPa)
#
#
# Indices 1 2 3 4 5 6 
#
# 1 190.3680 15.3888 42.0464 0.0000 0.0000 0.0001
# 2 15.3888 58.0246 7.2356 0.0000 0.0000 -0.0007
# 3 42.0464 7.2356 107.7774 0.0000 0.0000 -0.0001
# 4 0.0000 0.0000 0.0000 12.2780 0.0000 -0.0005
# 5 0.0000 0.0000 0.0000 0.0000 45.3272 -0.0002
# 6 0.0001 -0.0007 -0.0001 -0.0005 -0.0002 4182.5099
#
#
#
# Elastic Compliance Matrix: (Units=1/GPa)
#
#
# Indices 1 2 3 4 5 6 
#
# 1 0.005840 -0.001276 -0.002193 0.000000 0.000000 0.000000
# 2 -0.001276 0.017658 -0.000688 0.000000 0.000000 0.000000
# 3 -0.002193 -0.000688 0.010180 0.000000 0.000000 0.000000
# 4 0.000000 0.000000 0.000000 0.081446 0.000000 0.000000
# 5 0.000000 0.000000 0.000000 0.000000 0.022062 0.000000
# 6 0.000000 0.000000 0.000000 0.000000 0.000000 0.000239
#
#
# Mechanical properties :
#
#
# Convention : Reuss Voigt Hill
#
# Bulk Modulus (GPa) = 39.42261 53.94574 46.68418
# Shear Modulus (GPa) = 32.42678 867.45632 449.94155
#
# Velocity S-wave (km/s) = 3.99370 20.65604 14.87652
# Velocity P-wave (km/s) = 6.37627 24.40144 17.83377
#
# Compressibility (1/GPa) = 0.02536615
#
# Stress axis : x y z
#
# Youngs Moduli (GPa) = 171.22047 56.63110 98.23145
#
# Poissons Ratio (x) = 0.07223 0.21541
# Poissons Ratio (y) = 0.21839 0.06757
# Poissons Ratio (z) = 0.37546 0.03895
#
# Static dielectric constant tensor:
#      x y z
#    x 1.665340 0.000000 0.000000 
#    y 0.000000 1.729340 0.000000 
#    z 0.000000 0.000000 1.735280 
# 
# From -- ./inp_files/25086.got.cif
#   From: 2010.05.17/outbox.cif.g08.bks.cpg/sg46_13_cif.got.tgz:25086.got - 2010.06.03 19:58:25.
