data_PCOD9378169
_publ_section_title
;
Structure prediction by ZEFSAII (Michael W. Deem and Ramdas Pophale) SiO2 
 PCOD9378169
Probable space group: I M A 2
;
_chemical_formula_sum "Si O2"
_cell_formula_units_Z 52
_cell_length_a 9.613534
_cell_length_b 14.676482
_cell_length_c 17.601518
_cell_angle_alpha 90.000000
_cell_angle_beta 90.000000
_cell_angle_gamma 90.000000
_cell_volume 2483.448492
_symmetry_space_group_name_H-M "I M A 2"
_symmetry_group_IT_number 46
_symmetry_cell_setting 'orthorhombic'
loop_
_space_group_symop_operation_xyz
x,y,z
-x,-y,z
1/2-x,y,z
1/2+x,-y,z
1/2+x,1/2+y,1/2+z
1/2-x,1/2-y,1/2+z
-x,1/2+y,1/2+z
x,1/2-y,1/2+z
loop_
_atom_site_type_symbol
_atom_site_label
_atom_site_fract_x
_atom_site_fract_y
_atom_site_fract_z
Si Si1 0.500000 0.500000 0.464500
Si Si2 0.091638 0.361456 0.746640
Si Si3 0.409243 0.356655 0.581689
Si Si4 0.412384 0.841831 0.388350
Si Si5 0.089411 0.144138 0.705618
Si Si6 0.081830 0.674678 0.059753
Si Si7 0.402603 0.868630 0.841762
O O1 0.415517 0.432111 0.517585
O O2 0.593288 0.438361 0.410370
O O3 0.250000 0.383891 0.766049
O O4 0.056435 0.399774 0.663773
O O5 0.996978 0.383541 0.818376
O O6 0.084644 0.252722 0.726406
O O7 0.250000 0.319562 0.586208
O O8 0.518552 0.277069 0.563100
O O9 0.250000 0.863376 0.380058
O O10 0.452911 0.862887 0.475399
O O11 0.428657 0.732370 0.375750
O O12 0.750000 0.882375 0.695761
O O13 0.997473 0.127820 0.630395
O O14 0.017099 0.104334 0.780094
O O15 0.250000 0.674958 0.068329
O O16 0.250000 0.865676 0.804835
#
# Coordination Sequence:
#
# PCOD9378169 Si02
#       7
#     4   8   8   8   8   8   8
#     4  12  22  34  52  76 106 144 182 216 252 304
#     4   8  16  30  46  67  94 128 166 208 257 303
#     4  10  21  34  48  70 102 139 178 214 253 306
#     4   9  17  30  48  73  99 127 167 211 256 305
#     4   9  18  32  49  71  97 130 170 213 263 309
#     4  10  18  31  51  75 102 131 168 214 263 311
#     4  10  20  34  48  69 101 139 178 212 255 308
#
# _framework density 20.938625999999999
#
# number of rings (size 3 to 8) (size 9 to 14) (size 15 to 20)
#    0.000    2.462    1.538    2.308    0.000    6.769 
#    0.000    0.000    0.000    0.000    0.000    1.077 
#    0.000    2.462    0.000    0.000    0.000    0.000 
#
# Total GULP energy -145017.289818 kJ/mol
# GULP energy per Si atom -5577.588070 kJ/mol
# Density = 2.089097 g / cm^3
# Si number density = 20.938626 Si / 1000 Ang^3
#
#
#
# Elastic Constant Matrix: (Units=GPa)
#
#
# Indices 1 2 3 4 5 6 
#
# 1 95.4038 3.4177 85.9275 0.0000 0.0000 0.0000
# 2 3.4177 27.0788 6.1118 0.0000 0.0000 0.0000
# 3 85.9275 6.1118 191.9505 0.0000 0.0000 0.0000
# 4 0.0000 0.0000 0.0000 14.1089 0.0000 0.0000
# 5 0.0000 0.0000 0.0000 0.0000 83.9865 0.0000
# 6 0.0000 0.0000 0.0000 0.0000 0.0000 -0.5247
#
#
#
# Elastic Compliance Matrix: (Units=1/GPa)
#
#
# Indices 1 2 3 4 5 6 
#
# 1 0.017568 -0.000446 -0.007850 0.000000 0.000000 0.000000
# 2 -0.000446 0.037208 -0.000985 0.000000 0.000000 0.000000
# 3 -0.007850 -0.000985 0.008755 0.000000 0.000000 0.000000
# 4 0.000000 0.000000 0.000000 0.070877 0.000000 0.000000
# 5 0.000000 0.000000 0.000000 0.000000 0.011907 0.000000
# 6 0.000000 0.000000 0.000000 0.000000 0.000000 -1.905884
#
#
# Mechanical properties :
#
#
# Convention : Reuss Voigt Hill
#
# Bulk Modulus (GPa) = 22.23746 56.14969 39.19358
# Shear Modulus (GPa) = -2.89684 34.11253 15.60784
#
# Velocity S-wave (km/s) = -1.17750 4.04067 2.73318
# Velocity P-wave (km/s) = 2.96559 6.97452 5.35904
#
# Compressibility (1/GPa) = 0.04496916
#
# Stress axis : x y z
#
# Youngs Moduli (GPa) = 56.92067 26.87605 114.21663
#
# Poissons Ratio (x) = 0.01197 0.89664
# Poissons Ratio (y) = 0.02536 0.11254
# Poissons Ratio (z) = 0.44685 0.02648
#
# Static dielectric constant tensor:
#      x y z
#    x 1.732960 0.000000 0.000000 
#    y 0.000000 1.791230 0.000000 
#    z 0.000000 0.000000 1.765970 
# 
# From -- ./inp_files/18326.got.cif
#   From: 2010.05.17/outbox.cif.g08.bks.cpg/sg46_10_cif.got.tgz:18326.got - 2010.06.03 19:58:25.
