data_PCOD9378858
_publ_section_title
;
Structure prediction by ZEFSAII (Michael W. Deem and Ramdas Pophale) SiO2 
 PCOD9378858
Probable space group: I M A 2
;
_chemical_formula_sum "Si O2"
_cell_formula_units_Z 64
_cell_length_a 13.943579
_cell_length_b 19.569770
_cell_length_c 11.191326
_cell_angle_alpha 90.000000
_cell_angle_beta 90.000000
_cell_angle_gamma 90.000000
_cell_volume 3053.806604
_symmetry_space_group_name_H-M "I M A 2"
_symmetry_group_IT_number 46
_symmetry_cell_setting 'orthorhombic'
loop_
_space_group_symop_operation_xyz
x,y,z
-x,-y,z
1/2-x,y,z
1/2+x,-y,z
1/2+x,1/2+y,1/2+z
1/2-x,1/2-y,1/2+z
-x,1/2+y,1/2+z
x,1/2-y,1/2+z
loop_
_atom_site_type_symbol
_atom_site_label
_atom_site_fract_x
_atom_site_fract_y
_atom_site_fract_z
Si Si1 0.856068 0.735170 0.959960
Si Si2 0.440446 0.361567 0.122861
Si Si3 0.464416 0.368264 0.525559
Si Si4 0.859490 0.088997 0.864920
Si Si5 0.639013 0.565782 0.334623
Si Si6 0.639962 0.516516 0.978779
Si Si7 0.636677 0.886613 0.268108
Si Si8 0.645052 0.365361 0.093565
O O1 0.750000 0.764846 0.941718
O O2 0.931810 0.794777 0.976388
O O3 0.873033 0.677609 0.859386
O O4 0.861083 0.691630 0.081999
O O5 0.426372 0.382612 0.259074
O O6 0.541430 0.331808 0.076543
O O7 0.424114 0.434398 0.059257
O O8 0.566609 0.387587 0.467118
O O9 0.385759 0.419876 0.470603
O O10 0.442036 0.374588 0.665710
O O11 0.750000 0.086912 0.911693
O O12 0.855675 0.128215 0.738213
O O13 0.884903 0.013139 0.818032
O O14 0.750000 0.575918 0.303609
O O15 0.750000 0.538308 0.000804
O O16 0.620246 0.542984 0.843772
O O17 0.637046 0.438316 0.023067
O O18 0.750000 0.886210 0.229074
O O19 0.750000 0.336422 0.059750
#
# Coordination Sequence:
#
# PCOD9378858 Si02
#       8
#     8   8   8   8   8   8   8   8
#     4  10  23  40  60  88 122 162 205 254 312 383
#     4  11  19  33  58  88 119 153 201 254 307 367
#     4  12  23  37  60  87 123 162 207 251 314 374
#     4  10  22  39  57  85 123 158 206 262 311 368
#     4  11  21  34  58  91 119 151 196 255 319 372
#     4   9  17  32  56  84 120 158 189 239 313 376
#     4   9  20  38  56  85 127 161 197 248 312 384
#     4  10  19  33  56  88 123 155 201 261 310 362
#
# _framework density 20.957450999999999
#
# number of rings (size 3 to 8) (size 9 to 14) (size 15 to 20)
#    0.000    1.750    2.500    3.750    1.750    0.000 
#    0.000    5.625    0.000    6.750    0.000    0.000 
#    0.000    0.000    0.000    0.000    0.000    0.000 
#
# Total GULP energy -178221.505182 kJ/mol
# GULP energy per Si atom -5569.422037 kJ/mol
# Density = 2.090975 g / cm^3
# Si number density = 20.957451 Si / 1000 Ang^3
#
#
#
# Elastic Constant Matrix: (Units=GPa)
#
#
# Indices 1 2 3 4 5 6 
#
# 1 130.5252 26.4300 42.1776 0.0000 0.0000 0.0000
# 2 26.4300 22.7058 15.7868 0.0000 0.0000 0.0000
# 3 42.1776 15.7868 83.5272 0.0000 0.0000 0.0000
# 4 0.0000 0.0000 0.0000 11.0500 0.0000 0.0000
# 5 0.0000 0.0000 0.0000 0.0000 24.2342 0.0000
# 6 0.0000 0.0000 0.0000 0.0000 0.0000 -19.5541
#
#
#
# Elastic Compliance Matrix: (Units=1/GPa)
#
#
# Indices 1 2 3 4 5 6 
#
# 1 0.010875 -0.010178 -0.003568 0.000000 0.000000 0.000000
# 2 -0.010178 0.060231 -0.006244 0.000000 0.000000 0.000000
# 3 -0.003568 -0.006244 0.014954 0.000000 0.000000 0.000000
# 4 0.000000 0.000000 0.000000 0.090498 0.000000 0.000000
# 5 0.000000 0.000000 0.000000 0.000000 0.041264 0.000000
# 6 0.000000 0.000000 0.000000 0.000000 0.000000 -0.051140
#
#
# Mechanical properties :
#
#
# Convention : Reuss Voigt Hill
#
# Bulk Modulus (GPa) = 21.70165 45.06079 33.38122
# Shear Modulus (GPa) = 22.52030 13.30361 17.91196
#
# Velocity S-wave (km/s) = 3.28162 2.52224 2.92667
# Velocity P-wave (km/s) = 4.97356 5.47997 5.23289
#
# Compressibility (1/GPa) = 0.04607944
#
# Stress axis : x y z
#
# Youngs Moduli (GPa) = 91.95172 16.60277 66.87234
#
# Poissons Ratio (x) = 0.16899 0.23859
# Poissons Ratio (y) = 0.93592 0.41756
# Poissons Ratio (z) = 0.32807 0.10367
#
# Static dielectric constant tensor:
#      x y z
#    x 1.815660 0.000000 0.000000 
#    y 0.000000 1.757620 0.000000 
#    z 0.000000 0.000000 1.785080 
# 
# From -- ./inp_files/11351.got.cif
#   From: 2010.05.17/outbox.cif.g08.bks.cpg/sg46_6_cif.got.tgz:11351.got - 2010.06.03 19:58:25.
