data_PCOD9378262
_publ_section_title
;
Structure prediction by ZEFSAII (Michael W. Deem and Ramdas Pophale) SiO2 
 PCOD9378262
Probable space group: I M A 2
;
_chemical_formula_sum "Si O2"
_cell_formula_units_Z 44
_cell_length_a 16.497439
_cell_length_b 11.048257
_cell_length_c 11.642364
_cell_angle_alpha 90.000000
_cell_angle_beta 90.000000
_cell_angle_gamma 90.000000
_cell_volume 2122.029772
_symmetry_space_group_name_H-M "I M A 2"
_symmetry_group_IT_number 46
_symmetry_cell_setting 'orthorhombic'
loop_
_space_group_symop_operation_xyz
x,y,z
-x,-y,z
1/2-x,y,z
1/2+x,-y,z
1/2+x,1/2+y,1/2+z
1/2-x,1/2-y,1/2+z
-x,1/2+y,1/2+z
x,1/2-y,1/2+z
loop_
_atom_site_type_symbol
_atom_site_label
_atom_site_fract_x
_atom_site_fract_y
_atom_site_fract_z
Si Si1 0.155602 0.547696 0.979950
Si Si2 0.908061 0.774716 0.830863
Si Si3 0.077036 0.711310 0.554415
Si Si4 0.894662 0.806976 0.580609
Si Si5 0.945914 0.399796 0.770448
Si Si6 0.000000 0.000000 0.904280
O O1 0.250000 0.527889 0.965130
O O2 0.105385 0.529510 0.863669
O O3 0.136030 0.686878 0.007659
O O4 0.122677 0.449397 0.069719
O O5 0.865456 0.758528 0.705851
O O6 0.990220 0.692713 0.826850
O O7 0.940013 0.912561 0.834963
O O8 0.866599 0.746838 0.955200
O O9 0.107963 0.666366 0.677588
O O10 0.054885 0.595455 0.476652
O O11 0.990255 0.775368 0.580319
O O12 0.000000 0.500000 0.706671
#
# Coordination Sequence:
#
# PCOD9378262 Si02
#       6
#     8   8   8   8   8   4
#     4  12  24  38  58  89 133 167 199 250 321 391
#     4  10  21  32  64  91 120 147 210 273 299 347
#     4  10  21  36  61  90 122 154 216 264 306 354
#     4  10  21  39  60  92 116 161 214 262 302 351
#     4  11  19  36  63  89 114 161 216 267 300 355
#     4  10  18  32  56 100 114 148 192 274 320 340
#
# _framework density 20.734864000000002
#
# number of rings (size 3 to 8) (size 9 to 14) (size 15 to 20)
#    0.000    1.455    6.364    0.545    5.091    0.727 
#    0.000    0.909    0.000    4.364    0.000    0.000 
#    0.000    0.000    0.000    0.000    0.000    0.000 
#
# Total GULP energy -122510.491435 kJ/mol
# GULP energy per Si atom -5568.658702 kJ/mol
# Density = 2.068767 g / cm^3
# Si number density = 20.734864 Si / 1000 Ang^3
#
#
#
# Elastic Constant Matrix: (Units=GPa)
#
#
# Indices 1 2 3 4 5 6 
#
# 1 34.9223 26.5538 11.5535 0.0000 0.0000 0.0000
# 2 26.5538 96.7993 21.5810 0.0000 0.0000 0.0000
# 3 11.5535 21.5810 149.4165 0.0000 0.0000 0.0000
# 4 0.0000 0.0000 0.0000 23.9958 0.0000 0.0000
# 5 0.0000 0.0000 0.0000 0.0000 -1.2056 0.0000
# 6 0.0000 0.0000 0.0000 0.0000 0.0000 10.0473
#
#
#
# Elastic Compliance Matrix: (Units=1/GPa)
#
#
# Indices 1 2 3 4 5 6 
#
# 1 0.036471 -0.009688 -0.001421 0.000000 0.000000 0.000000
# 2 -0.009688 0.013248 -0.001164 0.000000 0.000000 0.000000
# 3 -0.001421 -0.001164 0.006971 0.000000 0.000000 0.000000
# 4 0.000000 0.000000 0.000000 0.041674 0.000000 0.000000
# 5 0.000000 0.000000 0.000000 0.000000 -0.829434 0.000000
# 6 0.000000 0.000000 0.000000 0.000000 0.000000 0.099529
#
#
# Mechanical properties :
#
#
# Convention : Reuss Voigt Hill
#
# Bulk Modulus (GPa) = 31.11032 44.50164 37.80598
# Shear Modulus (GPa) = -8.38533 21.33080 6.47273
#
# Velocity S-wave (km/s) = -2.01317 3.21088 1.76874
# Velocity P-wave (km/s) = 3.10365 5.93760 4.73750
#
# Compressibility (1/GPa) = 0.03214367
#
# Stress axis : x y z
#
# Youngs Moduli (GPa) = 27.41871 75.48408 143.45679
#
# Poissons Ratio (x) = 0.73129 0.20383
# Poissons Ratio (y) = 0.26563 0.16703
# Poissons Ratio (z) = 0.03896 0.08789
#
# Static dielectric constant tensor:
#      x y z
#    x 1.673030 0.000000 0.000000 
#    y 0.000000 1.764540 0.000000 
#    z 0.000000 0.000000 1.844360 
# 
# From -- ./inp_files/11736.got.cif
#   From: 2010.05.17/outbox.cif.g08.bks.cpg/sg46_6_cif.got.tgz:11736.got - 2010.06.03 19:58:25.
