data_PCOD9378042
_publ_section_title
;
Structure prediction by ZEFSAII (Michael W. Deem and Ramdas Pophale) SiO2 
 PCOD9378042
Probable space group: I M A 2
;
_chemical_formula_sum "Si O2"
_cell_formula_units_Z 56
_cell_length_a 8.779655
_cell_length_b 19.522154
_cell_length_c 18.450829
_cell_angle_alpha 90.000000
_cell_angle_beta 90.000000
_cell_angle_gamma 90.000000
_cell_volume 3162.431074
_symmetry_space_group_name_H-M "I M A 2"
_symmetry_group_IT_number 46
_symmetry_cell_setting 'orthorhombic'
loop_
_space_group_symop_operation_xyz
x,y,z
-x,-y,z
1/2-x,y,z
1/2+x,-y,z
1/2+x,1/2+y,1/2+z
1/2-x,1/2-y,1/2+z
-x,1/2+y,1/2+z
x,1/2-y,1/2+z
loop_
_atom_site_type_symbol
_atom_site_label
_atom_site_fract_x
_atom_site_fract_y
_atom_site_fract_z
Si Si1 0.569454 0.200957 0.119900
Si Si2 0.434222 0.924518 0.824171
Si Si3 0.069548 0.431643 0.874590
Si Si4 0.071539 0.566087 0.715089
Si Si5 0.070394 0.220998 0.382121
Si Si6 0.428986 0.298118 0.234395
Si Si7 0.428752 0.656962 0.463374
O O1 0.750000 0.215895 0.111352
O O2 0.553234 0.135628 0.171916
O O3 0.494108 0.265571 0.160440
O O4 0.506275 0.173455 0.042929
O O5 0.250000 0.925638 0.822917
O O6 0.491325 0.866061 0.767651
O O7 0.486217 0.899563 0.905329
O O8 0.500000 0.000000 0.809153
O O9 0.250000 0.438173 0.874858
O O10 0.031508 0.356460 0.903487
O O11 0.000000 0.500000 0.909115
O O12 0.011115 0.428961 0.792045
O O13 0.250000 0.554044 0.727294
O O14 0.000000 0.500000 0.676012
O O15 0.250000 0.233621 0.399497
O O16 0.054651 0.239634 0.297029
O O17 0.958720 0.272607 0.421503
O O18 0.250000 0.312402 0.226311
O O19 0.250000 0.642198 0.473353
#
# Coordination Sequence:
#
# PCOD9378042 Si02
#       7
#     8   8   8   8   8   8   8
#     4  10  20  34  50  74 106 140 175 215 261 314
#     4  10  20  36  57  81 108 141 181 225 272 322
#     4  10  18  29  45  69  97 125 160 201 242 289
#     4  10  19  29  44  67  99 133 165 198 239 287
#     4   9  18  32  49  71  99 127 166 214 255 302
#     4  10  19  33  54  78 103 135 175 221 268 313
#     4   9  20  35  52  74 103 137 174 212 260 316
#
# _framework density 17.707895000000001
#
# number of rings (size 3 to 8) (size 9 to 14) (size 15 to 20)
#    0.000    2.286    1.429    2.571    0.000    4.000 
#    0.000    0.000    0.000    0.857    0.000    2.000 
#    0.000    0.000    0.000    0.000    0.000    0.000 
#
# Total GULP energy -155868.133035 kJ/mol
# GULP energy per Si atom -5566.719037 kJ/mol
# Density = 1.766759 g / cm^3
# Si number density = 17.707895 Si / 1000 Ang^3
#
#
#
# Elastic Constant Matrix: (Units=GPa)
#
#
# Indices 1 2 3 4 5 6 
#
# 1 31.8040 36.7618 6.1043 0.0000 0.0000 0.0000
# 2 36.7618 111.4007 8.8280 0.0000 0.0000 0.0000
# 3 6.1043 8.8280 30.6446 0.0000 0.0000 0.0000
# 4 0.0000 0.0000 0.0000 12.2620 0.0000 0.0000
# 5 0.0000 0.0000 0.0000 0.0000 13.8705 0.0000
# 6 0.0000 0.0000 0.0000 0.0000 0.0000 17.1009
#
#
#
# Elastic Compliance Matrix: (Units=1/GPa)
#
#
# Indices 1 2 3 4 5 6 
#
# 1 0.051726 -0.016633 -0.005512 0.000000 0.000000 0.000000
# 2 -0.016633 0.014535 -0.000874 0.000000 0.000000 0.000000
# 3 -0.005512 -0.000874 0.033982 0.000000 0.000000 0.000000
# 4 0.000000 0.000000 0.000000 0.081553 0.000000 0.000000
# 5 0.000000 0.000000 0.000000 0.000000 0.072095 0.000000
# 6 0.000000 0.000000 0.000000 0.000000 0.000000 0.058476
#
#
# Mechanical properties :
#
#
# Convention : Reuss Voigt Hill
#
# Bulk Modulus (GPa) = 18.44849 30.80418 24.62634
# Shear Modulus (GPa) = 13.28117 16.79035 15.03576
#
# Velocity S-wave (km/s) = 2.74161 3.08260 2.91709
# Velocity P-wave (km/s) = 4.52358 5.48666 5.02823
#
# Compressibility (1/GPa) = 0.05420499
#
# Stress axis : x y z
#
# Youngs Moduli (GPa) = 19.33270 68.80164 29.42741
#
# Poissons Ratio (x) = 1.14435 0.16221
# Poissons Ratio (y) = 0.32155 0.02572
# Poissons Ratio (z) = 0.10657 0.06013
#
# Static dielectric constant tensor:
#      x y z
#    x 1.605860 0.000000 0.000000 
#    y 0.000000 1.629270 0.000000 
#    z 0.000000 0.000000 1.625040 
# 
# From -- ./inp_files/21223.got.cif
#   From: 2010.05.17/outbox.cif.g08.bks.cpg/sg46_11_cif.got.tgz:21223.got - 2010.06.03 19:58:25.
