data_PCOD9378920
_publ_section_title
;
Structure prediction by ZEFSAII (Michael W. Deem and Ramdas Pophale) SiO2 
 PCOD9378920
Probable space group: I M A 2
;
_chemical_formula_sum "Si O2"
_cell_formula_units_Z 64
_cell_length_a 16.662398
_cell_length_b 8.787629
_cell_length_c 24.378561
_cell_angle_alpha 90.000000
_cell_angle_beta 90.000000
_cell_angle_gamma 90.000000
_cell_volume 3569.581352
_symmetry_space_group_name_H-M "I M A 2"
_symmetry_group_IT_number 46
_symmetry_cell_setting 'orthorhombic'
loop_
_space_group_symop_operation_xyz
x,y,z
-x,-y,z
1/2-x,y,z
1/2+x,-y,z
1/2+x,1/2+y,1/2+z
1/2-x,1/2-y,1/2+z
-x,1/2+y,1/2+z
x,1/2-y,1/2+z
loop_
_atom_site_type_symbol
_atom_site_label
_atom_site_fract_x
_atom_site_fract_y
_atom_site_fract_z
Si Si1 0.924743 0.110307 0.215310
Si Si2 0.015598 0.178531 0.630237
Si Si3 0.846387 0.830586 0.808177
Si Si4 0.656736 0.814229 0.194731
Si Si5 0.347183 0.812694 0.810394
Si Si6 0.922891 0.108273 0.920340
Si Si7 0.985352 0.678953 0.001652
Si Si8 0.343334 0.302295 0.431194
O O1 0.887696 0.204033 0.265696
O O2 0.956099 0.224200 0.168459
O O3 0.859404 0.993514 0.191312
O O4 0.000000 0.000000 0.230048
O O5 0.103572 0.224715 0.651301
O O6 0.009174 0.215156 0.566004
O O7 0.000000 0.000000 0.637893
O O8 0.750000 0.821833 0.810933
O O9 0.872307 0.736386 0.755585
O O10 0.872821 0.773269 0.868161
O O11 0.865158 0.008324 0.798641
O O12 0.750000 0.778014 0.189739
O O13 0.250000 0.793179 0.812004
O O14 0.388512 0.795414 0.869716
O O15 0.855946 0.984429 0.936981
O O16 0.000000 0.000000 0.905821
O O17 0.951743 0.218236 0.968275
O O18 0.000000 0.500000 0.994471
O O19 0.899653 0.721154 0.974966
O O20 0.250000 0.262612 0.436111
#
# Coordination Sequence:
#
# PCOD9378920 Si02
#       8
#     8   8   8   8   8   8   8   8
#     4  10  22  34  52  81 111 140 174 219 272 318
#     4  10  22  40  57  73 102 145 187 222 262 319
#     4   8  16  31  52  79 108 138 169 206 256 313
#     4  10  20  35  56  82 110 138 175 223 271 315
#     4  10  19  34  56  81 110 142 178 214 254 315
#     4   9  19  33  55  82 111 143 176 213 259 316
#     4  10  22  38  55  77 106 141 181 224 270 317
#     4   9  18  35  58  81 107 141 181 219 259 313
#
# _framework density 17.929273999999999
#
# number of rings (size 3 to 8) (size 9 to 14) (size 15 to 20)
#    0.000    2.500    0.000    2.250    0.000   13.000 
#    0.000    3.125    0.000    5.250    0.000    0.000 
#    0.000    0.000    0.000    0.000    0.000    0.000 
#
# Total GULP energy -178394.404946 kJ/mol
# GULP energy per Si atom -5574.825155 kJ/mol
# Density = 1.788847 g / cm^3
# Si number density = 17.929274 Si / 1000 Ang^3
#
#
#
# Elastic Constant Matrix: (Units=GPa)
#
#
# Indices 1 2 3 4 5 6 
#
# 1 65.6030 42.8797 74.2094 0.0000 0.0000 0.0000
# 2 42.8797 77.4777 87.7899 0.0000 0.0000 0.0000
# 3 74.2094 87.7899 152.0486 0.0000 0.0000 0.0000
# 4 0.0000 0.0000 0.0000 32.0504 0.0000 0.0000
# 5 0.0000 0.0000 0.0000 0.0000 21.6670 0.0000
# 6 0.0000 0.0000 0.0000 0.0000 0.0000 17.1969
#
#
#
# Elastic Compliance Matrix: (Units=1/GPa)
#
#
# Indices 1 2 3 4 5 6 
#
# 1 0.034032 -0.000042 -0.016586 0.000000 0.000000 0.000000
# 2 -0.000042 0.037328 -0.021532 0.000000 0.000000 0.000000
# 3 -0.016586 -0.021532 0.027104 0.000000 0.000000 0.000000
# 4 0.000000 0.000000 0.000000 0.031201 0.000000 0.000000
# 5 0.000000 0.000000 0.000000 0.000000 0.046153 0.000000
# 6 0.000000 0.000000 0.000000 0.000000 0.000000 0.058150
#
#
# Mechanical properties :
#
#
# Convention : Reuss Voigt Hill
#
# Bulk Modulus (GPa) = 45.15691 78.32081 61.73886
# Shear Modulus (GPa) = 15.73967 20.19956 17.96962
#
# Velocity S-wave (km/s) = 2.96611 3.36016 3.16927
# Velocity P-wave (km/s) = 6.08040 7.67022 6.92111
#
# Compressibility (1/GPa) = 0.02214500
#
# Stress axis : x y z
#
# Youngs Moduli (GPa) = 29.38408 26.78954 36.89493
#
# Poissons Ratio (x) = 0.00111 0.61193
# Poissons Ratio (y) = 0.00122 0.79443
# Poissons Ratio (z) = 0.48736 0.57684
#
# Static dielectric constant tensor:
#      x y z
#    x 1.629070 0.000000 0.000000 
#    y 0.000000 1.612940 0.000000 
#    z 0.000000 0.000000 1.612550 
# 
# From -- ./inp_files/23797.got.cif
#   From: 2010.05.17/outbox.cif.g08.bks.cpg/sg46_12_cif.got.tgz:23797.got - 2010.06.03 19:58:25.
