data_PCOD9378552
_publ_section_title
;
Structure prediction by ZEFSAII (Michael W. Deem and Ramdas Pophale) SiO2 
 PCOD9378552
Probable space group: I M A 2
;
_chemical_formula_sum "Si O2"
_cell_formula_units_Z 60
_cell_length_a 28.316767
_cell_length_b 24.848249
_cell_length_c 5.065596
_cell_angle_alpha 90.000000
_cell_angle_beta 90.000000
_cell_angle_gamma 90.000000
_cell_volume 3564.265180
_symmetry_space_group_name_H-M "I M A 2"
_symmetry_group_IT_number 46
_symmetry_cell_setting 'orthorhombic'
loop_
_space_group_symop_operation_xyz
x,y,z
-x,-y,z
1/2-x,y,z
1/2+x,-y,z
1/2+x,1/2+y,1/2+z
1/2-x,1/2-y,1/2+z
-x,1/2+y,1/2+z
x,1/2-y,1/2+z
loop_
_atom_site_type_symbol
_atom_site_label
_atom_site_fract_x
_atom_site_fract_y
_atom_site_fract_z
Si Si1 0.973303 0.714385 0.542080
Si Si2 0.807085 0.547684 0.969008
Si Si3 0.369497 0.212746 0.134720
Si Si4 0.193139 0.386340 0.467492
Si Si5 0.665515 0.362922 0.627361
Si Si6 0.924743 0.288815 0.659391
Si Si7 0.250000 0.784584 0.963916
Si Si8 0.192983 0.928581 0.640446
O O1 0.973884 0.733586 0.238768
O O2 0.922524 0.688917 0.600491
O O3 0.022668 0.686945 0.616678
O O4 0.750000 0.546245 0.980683
O O5 0.822064 0.592709 0.180562
O O6 0.822266 0.488122 0.050722
O O7 0.819264 0.566952 0.677052
O O8 0.365092 0.238473 0.423970
O O9 0.331652 0.167877 0.061922
O O10 0.250000 0.379357 0.468678
O O11 0.615590 0.333075 0.634995
O O12 0.704235 0.319421 0.533755
O O13 0.669156 0.410005 0.411232
O O14 0.679789 0.386862 0.910008
O O15 0.920241 0.242705 0.435320
O O16 0.250000 0.733664 0.160902
O O17 0.250000 0.928181 0.677414
#
# Coordination Sequence:
#
# PCOD9378552 Si02
#       8
#     8   8   8   8   8   8   4   8
#     4   8  16  30  48  67  91 123 160 196 224 260
#     4   9  19  33  51  67  92 126 162 205 236 263
#     4  10  19  31  49  75 104 131 156 185 223 275
#     4  10  19  32  48  74 101 129 160 185 228 286
#     4  12  21  32  48  69  91 125 160 197 244 287
#     4  10  19  33  48  67  94 124 159 196 233 280
#     4  12  22  32  42  62  98 128 150 178 232 304
#     4  11  20  35  49  68  91 120 163 210 240 278
#
# _framework density 16.833763999999999
#
# number of rings (size 3 to 8) (size 9 to 14) (size 15 to 20)
#    0.000    1.867    1.333    4.000    0.000    2.667 
#    0.000    0.000    0.000    0.000    0.000    5.600 
#    0.000    0.000    0.000    0.000    0.000    0.000 
#
# Total GULP energy -167345.452210 kJ/mol
# GULP energy per Si atom -5578.181740 kJ/mol
# Density = 1.679545 g / cm^3
# Si number density = 16.833764 Si / 1000 Ang^3
#
#
#
# Elastic Constant Matrix: (Units=GPa)
#
#
# Indices 1 2 3 4 5 6 
#
# 1 61.2125 18.9546 -8.4688 0.0000 0.0000 0.0000
# 2 18.9546 34.9959 -12.8619 0.0000 0.0000 0.0000
# 3 -8.4688 -12.8619 53.3969 0.0000 0.0000 0.0000
# 4 0.0000 0.0000 0.0000 23.1983 0.0000 0.0000
# 5 0.0000 0.0000 0.0000 0.0000 14.6756 0.0000
# 6 0.0000 0.0000 0.0000 0.0000 0.0000 1.6415
#
#
#
# Elastic Compliance Matrix: (Units=1/GPa)
#
#
# Indices 1 2 3 4 5 6 
#
# 1 0.019646 -0.010418 0.000606 0.000000 0.000000 0.000000
# 2 -0.010418 0.036875 0.007230 0.000000 0.000000 0.000000
# 3 0.000606 0.007230 0.020565 0.000000 0.000000 0.000000
# 4 0.000000 0.000000 0.000000 0.043107 0.000000 0.000000
# 5 0.000000 0.000000 0.000000 0.000000 0.068141 0.000000
# 6 0.000000 0.000000 0.000000 0.000000 0.000000 0.609212
#
#
# Mechanical properties :
#
#
# Convention : Reuss Voigt Hill
#
# Bulk Modulus (GPa) = 13.90379 16.09479 14.99929
# Shear Modulus (GPa) = 6.04827 18.03516 12.04171
#
# Velocity S-wave (km/s) = 1.89756 3.27673 2.67747
# Velocity P-wave (km/s) = 3.61640 4.88853 4.29977
#
# Compressibility (1/GPa) = 0.07192283
#
# Stress axis : x y z
#
# Youngs Moduli (GPa) = 50.89986 27.11896 48.62552
#
# Poissons Ratio (x) = 0.28253 -0.02949
# Poissons Ratio (y) = 0.53028 -0.35155
# Poissons Ratio (z) = -0.03087 -0.19606
#
# Static dielectric constant tensor:
#      x y z
#    x 1.579810 0.000000 0.000000 
#    y 0.000000 1.548410 0.000000 
#    z 0.000000 0.000000 1.585380 
# 
# From -- ./inp_files/2621.got.cif
#   From: 2010.05.17/outbox.cif.g08.bks.cpg/sg46_2_cif.got.tgz:2621.got - 2010.06.03 19:58:25.
