data_PCOD9378076
_publ_section_title
;
Structure prediction by ZEFSAII (Michael W. Deem and Ramdas Pophale) SiO2 
 PCOD9378076
Probable space group: I M A 2
;
_chemical_formula_sum "Si O2"
_cell_formula_units_Z 60
_cell_length_a 19.888050
_cell_length_b 5.041976
_cell_length_c 29.037487
_cell_angle_alpha 90.000000
_cell_angle_beta 90.000000
_cell_angle_gamma 90.000000
_cell_volume 2911.736064
_symmetry_space_group_name_H-M "I M A 2"
_symmetry_group_IT_number 46
_symmetry_cell_setting 'orthorhombic'
loop_
_space_group_symop_operation_xyz
x,y,z
-x,-y,z
1/2-x,y,z
1/2+x,-y,z
1/2+x,1/2+y,1/2+z
1/2-x,1/2-y,1/2+z
-x,1/2+y,1/2+z
x,1/2-y,1/2+z
loop_
_atom_site_type_symbol
_atom_site_label
_atom_site_fract_x
_atom_site_fract_y
_atom_site_fract_z
Si Si1 0.669114 0.385698 0.342220
Si Si2 0.176694 0.459672 0.971471
Si Si3 0.434007 0.893657 0.409139
Si Si4 0.136787 0.516796 0.526589
Si Si5 0.500000 0.000000 0.981887
Si Si6 0.328003 0.323316 0.188015
Si Si7 0.827469 0.297338 0.626539
Si Si8 0.669417 0.884982 0.284353
O O1 0.750000 0.364109 0.352982
O O2 0.617900 0.289629 0.381216
O O3 0.654637 0.683452 0.325892
O O4 0.654188 0.183348 0.299775
O O5 0.250000 0.454084 0.948670
O O6 0.162663 0.747593 0.993302
O O7 0.176576 0.246891 0.012596
O O8 0.116960 0.404436 0.935089
O O9 0.471532 0.727506 0.448907
O O10 0.500000 0.000000 0.381965
O O11 0.061519 0.431409 0.514491
O O12 0.140890 0.625879 0.577944
O O13 0.250000 0.408889 0.197068
O O14 0.357889 0.560023 0.157216
O O15 0.358646 0.236469 0.237006
O O16 0.326826 0.059507 0.157562
O O17 0.750000 0.222331 0.615586
O O18 0.750000 0.883812 0.278382
#
# Coordination Sequence:
#
# PCOD9378076 Si02
#       8
#     8   8   8   8   4   8   8   8
#     4  10  21  35  58  87 114 145 190 238 283 334
#     4  11  22  37  58  82 115 152 188 245 296 333
#     4  11  23  40  58  82 113 152 198 237 282 349
#     4  11  22  37  57  82 116 152 196 239 282 346
#     4  10  24  42  58  80 112 158 206 232 290 346
#     4   9  17  30  51  80 116 144 174 221 286 346
#     4  10  18  29  50  83 113 144 182 229 279 333
#     4   9  18  34  54  84 117 147 178 227 289 346
#
# _framework density 20.606262000000001
#
# number of rings (size 3 to 8) (size 9 to 14) (size 15 to 20)
#    0.000    1.867    1.333    3.200    1.867    4.267 
#    0.000    2.667    0.000    0.000   10.400    0.000 
#    0.000    0.000    0.000    0.000    0.000    0.000 
#
# Total GULP energy -167294.732539 kJ/mol
# GULP energy per Si atom -5576.491085 kJ/mol
# Density = 2.055936 g / cm^3
# Si number density = 20.606262 Si / 1000 Ang^3
#
#
#
# Elastic Constant Matrix: (Units=GPa)
#
#
# Indices 1 2 3 4 5 6 
#
# 1 103.6656 2.2958 20.1043 0.0000 0.0000 0.0000
# 2 2.2958 67.8175 -7.0939 0.0000 0.0000 0.0000
# 3 20.1043 -7.0939 64.5626 0.0000 0.0000 0.0000
# 4 0.0000 0.0000 0.0000 15.4573 0.0000 0.0000
# 5 0.0000 0.0000 0.0000 0.0000 34.8876 0.0000
# 6 0.0000 0.0000 0.0000 0.0000 0.0000 -12.7780
#
#
#
# Elastic Compliance Matrix: (Units=1/GPa)
#
#
# Indices 1 2 3 4 5 6 
#
# 1 0.010298 -0.000692 -0.003283 0.000000 0.000000 0.000000
# 2 -0.000692 0.014963 0.001860 0.000000 0.000000 0.000000
# 3 -0.003283 0.001860 0.016715 0.000000 0.000000 0.000000
# 4 0.000000 0.000000 0.000000 0.064694 0.000000 0.000000
# 5 0.000000 0.000000 0.000000 0.000000 0.028664 0.000000
# 6 0.000000 0.000000 0.000000 0.000000 0.000000 -0.078260
#
#
# Mechanical properties :
#
#
# Convention : Reuss Voigt Hill
#
# Bulk Modulus (GPa) = 26.49241 29.62868 28.06055
# Shear Modulus (GPa) = 67.66979 22.22934 44.94956
#
# Velocity S-wave (km/s) = 5.73679 3.28802 4.67556
# Velocity P-wave (km/s) = 7.53428 5.36884 6.54178
#
# Compressibility (1/GPa) = 0.03774666
#
# Stress axis : x y z
#
# Youngs Moduli (GPa) = 97.10254 66.82968 59.82492
#
# Poissons Ratio (x) = 0.04625 0.19640
# Poissons Ratio (y) = 0.06720 -0.11125
# Poissons Ratio (z) = 0.31878 -0.12428
#
# Static dielectric constant tensor:
#      x y z
#    x 1.716200 0.000000 0.000000 
#    y 0.000000 1.773360 0.000000 
#    z 0.000000 0.000000 1.785170 
# 
# From -- ./inp_files/24698.got.cif
#   From: 2010.05.17/outbox.cif.g08.bks.cpg/sg46_13_cif.got.tgz:24698.got - 2010.06.03 19:58:25.
