data_PCOD9378190
_publ_section_title
;
Structure prediction by ZEFSAII (Michael W. Deem and Ramdas Pophale) SiO2 
 PCOD9378190
Probable space group: I M A 2
;
_chemical_formula_sum "Si O2"
_cell_formula_units_Z 64
_cell_length_a 14.106793
_cell_length_b 11.234937
_cell_length_c 14.682503
_cell_angle_alpha 90.000000
_cell_angle_beta 90.000000
_cell_angle_gamma 90.000000
_cell_volume 2327.014199
_symmetry_space_group_name_H-M "I M A 2"
_symmetry_group_IT_number 46
_symmetry_cell_setting 'orthorhombic'
loop_
_space_group_symop_operation_xyz
x,y,z
-x,-y,z
1/2-x,y,z
1/2+x,-y,z
1/2+x,1/2+y,1/2+z
1/2-x,1/2-y,1/2+z
-x,1/2+y,1/2+z
x,1/2-y,1/2+z
loop_
_atom_site_type_symbol
_atom_site_label
_atom_site_fract_x
_atom_site_fract_y
_atom_site_fract_z
Si Si1 0.866411 0.812130 0.872750
Si Si2 0.634461 0.297504 0.200220
Si Si3 0.363419 0.566837 0.812401
Si Si4 0.865544 0.554880 0.206350
Si Si5 0.863936 0.687998 0.041507
Si Si6 0.399495 0.059443 0.137905
Si Si7 0.145302 0.556845 0.461939
Si Si8 0.133662 0.684545 0.989962
O O1 0.750000 0.806568 0.873291
O O2 0.895666 0.836493 0.770274
O O3 0.896107 0.936084 0.921734
O O4 0.899060 0.707587 0.939096
O O5 0.750000 0.291827 0.200833
O O6 0.601351 0.181591 0.254173
O O7 0.605775 0.425324 0.241107
O O8 0.603191 0.308235 0.094915
O O9 0.250000 0.574000 0.817046
O O10 0.381297 0.455562 0.745582
O O11 0.394996 0.584473 0.916724
O O12 0.750000 0.554611 0.205540
O O13 0.897010 0.580278 0.103704
O O14 0.750000 0.676329 0.035278
O O15 0.883401 0.809522 0.098217
O O16 0.500000 0.000000 0.122189
O O17 0.342955 0.971780 0.069559
O O18 0.250000 0.565361 0.419536
O O19 0.103363 0.686751 0.450127
O O20 0.250000 0.682111 0.994168
#
# Coordination Sequence:
#
# PCOD9378190 Si02
#       8
#     8   8   8   8   8   8   8   8
#     4   8  14  25  45  72  97 127 163 200 247 293
#     4   9  16  27  46  77 106 126 157 211 265 306
#     4  10  18  31  53  80 106 133 167 213 267 314
#     4   9  16  28  47  74 105 131 161 205 255 307
#     4   9  18  33  52  73 100 133 171 212 253 298
#     4  11  21  33  52  71 102 137 177 214 255 305
#     4   9  15  29  53  78 102 126 165 221 264 304
#     4   9  16  26  47  79 105 128 161 206 264 314
#
# _framework density 27.503053999999999
#
# number of rings (size 3 to 8) (size 9 to 14) (size 15 to 20)
#    0.000    2.750    1.250    2.625    0.000    3.000 
#    2.250    0.000    5.500    0.750    0.000    0.000 
#    0.000    0.000    0.000    0.000    0.000    0.000 
#
# Total GULP energy -178876.250094 kJ/mol
# GULP energy per Si atom -5589.882815 kJ/mol
# Density = 2.744046 g / cm^3
# Si number density = 27.503054 Si / 1000 Ang^3
#
#
#
# Elastic Constant Matrix: (Units=GPa)
#
#
# Indices 1 2 3 4 5 6 
#
# 1 94.2791 -0.9212 3.0298 0.0000 0.0000 0.0000
# 2 -0.9212 75.1823 8.9915 0.0000 0.0000 0.0000
# 3 3.0298 8.9915 141.6609 0.0000 0.0000 0.0000
# 4 0.0000 0.0000 0.0000 56.1613 0.0000 0.0000
# 5 0.0000 0.0000 0.0000 0.0000 -65.0451 0.0000
# 6 0.0000 0.0000 0.0000 0.0000 0.0000 11.1362
#
#
#
# Elastic Compliance Matrix: (Units=1/GPa)
#
#
# Indices 1 2 3 4 5 6 
#
# 1 0.010616 0.000158 -0.000237 0.000000 0.000000 0.000000
# 2 0.000158 0.013405 -0.000854 0.000000 0.000000 0.000000
# 3 -0.000237 -0.000854 0.007118 0.000000 0.000000 0.000000
# 4 0.000000 0.000000 0.000000 0.017806 0.000000 0.000000
# 5 0.000000 0.000000 0.000000 0.000000 -0.015374 0.000000
# 6 0.000000 0.000000 0.000000 0.000000 0.000000 0.089797
#
#
# Mechanical properties :
#
#
# Convention : Reuss Voigt Hill
#
# Bulk Modulus (GPa) = 34.16040 37.03582 35.59811
# Shear Modulus (GPa) = 37.03917 20.45197 28.74557
#
# Velocity S-wave (km/s) = 3.67376 2.72991 3.23643
# Velocity P-wave (km/s) = 5.51751 4.84064 5.19012
#
# Compressibility (1/GPa) = 0.02927366
#
# Stress axis : x y z
#
# Youngs Moduli (GPa) = 94.19765 74.59847 140.48094
#
# Poissons Ratio (x) = -0.01182 0.03331
# Poissons Ratio (y) = -0.01492 0.12000
# Poissons Ratio (z) = 0.02233 0.06372
#
# Static dielectric constant tensor:
#      x y z
#    x 2.277330 0.000000 0.000000 
#    y 0.000000 2.049130 0.000000 
#    z 0.000000 0.000000 2.181540 
# 
# From -- ./inp_files/16786.got.cif
#   From: 2010.05.17/outbox.cif.g08.bks.cpg/sg46_9_cif.got.tgz:16786.got - 2010.06.03 19:58:25.
