data_PCOD9378556
_publ_section_title
;
Structure prediction by ZEFSAII (Michael W. Deem and Ramdas Pophale) SiO2 
 PCOD9378556
Probable space group: I M A 2
;
_chemical_formula_sum "Si O2"
_cell_formula_units_Z 64
_cell_length_a 8.851889
_cell_length_b 30.893853
_cell_length_c 14.692463
_cell_angle_alpha 90.000000
_cell_angle_beta 90.000000
_cell_angle_gamma 90.000000
_cell_volume 4017.932540
_symmetry_space_group_name_H-M "I M A 2"
_symmetry_group_IT_number 46
_symmetry_cell_setting 'orthorhombic'
loop_
_space_group_symop_operation_xyz
x,y,z
-x,-y,z
1/2-x,y,z
1/2+x,-y,z
1/2+x,1/2+y,1/2+z
1/2-x,1/2-y,1/2+z
-x,1/2+y,1/2+z
x,1/2-y,1/2+z
loop_
_atom_site_type_symbol
_atom_site_label
_atom_site_fract_x
_atom_site_fract_y
_atom_site_fract_z
Si Si1 0.920620 0.826289 0.803940
Si Si2 0.070601 0.704347 0.623043
Si Si3 0.568100 0.453711 0.208406
Si Si4 0.574371 0.722701 0.811975
Si Si5 0.927364 0.869074 0.001402
Si Si6 0.431105 0.288045 0.020435
Si Si7 0.431410 0.546764 0.420646
Si Si8 0.927525 0.136006 0.634648
O O1 0.750000 0.838351 0.772600
O O2 0.929854 0.774706 0.805047
O O3 0.939936 0.843997 0.905096
O O4 0.042701 0.844999 0.735307
O O5 0.250000 0.706252 0.614282
O O6 0.021472 0.704917 0.728376
O O7 0.006435 0.661522 0.574779
O O8 0.001127 0.746852 0.573213
O O9 0.500000 0.500000 0.183131
O O10 0.750000 0.456054 0.206578
O O11 0.524727 0.444734 0.314262
O O12 0.521758 0.413868 0.144204
O O13 0.750000 0.709339 0.801253
O O14 0.524041 0.711558 0.914228
O O15 0.750000 0.873938 0.022215
O O16 0.003438 0.915360 0.983460
O O17 0.250000 0.283395 0.024926
O O18 0.483157 0.332240 0.068135
O O19 0.500000 0.500000 0.443986
O O20 0.250000 0.545735 0.425396
O O21 0.750000 0.137432 0.613110
#
# Coordination Sequence:
#
# PCOD9378556 Si02
#       8
#     8   8   8   8   8   8   8   8
#     4  10  19  31  50  72 100 139 177 212 250 300
#     4  12  24  35  52  77 104 136 173 217 262 307
#     4   9  19  32  48  72 104 137 171 211 256 305
#     4  10  21  38  54  71 100 137 178 218 253 301
#     4  11  21  35  53  75 103 141 180 215 257 309
#     4  11  22  37  54  74 101 138 178 214 255 309
#     4  10  19  33  50  75 106 138 174 214 260 311
#     4  11  21  33  49  76 106 136 172 215 259 305
#
# _framework density 15.928591000000001
#
# number of rings (size 3 to 8) (size 9 to 14) (size 15 to 20)
#    0.000    1.500    3.750    2.625    0.000    3.000 
#    0.000    0.000    0.000    0.000    0.000    0.875 
#    0.000    4.000    0.000    0.000    0.000    0.000 
#
# Total GULP energy -178633.484444 kJ/mol
# GULP energy per Si atom -5582.296389 kJ/mol
# Density = 1.589234 g / cm^3
# Si number density = 15.928591 Si / 1000 Ang^3
#
#
#
# Elastic Constant Matrix: (Units=GPa)
#
#
# Indices 1 2 3 4 5 6 
#
# 1 69.1217 42.3090 42.4028 0.0000 0.0002 0.0000
# 2 42.3090 114.2101 47.6524 0.0001 0.0002 0.0000
# 3 42.4028 47.6524 80.2379 0.0003 0.0002 0.0000
# 4 0.0000 0.0001 0.0003 23.3102 0.0000 0.0000
# 5 0.0002 0.0002 0.0002 0.0000 -21.4046 0.0000
# 6 0.0000 0.0000 0.0000 0.0000 0.0000 26.4921
#
#
#
# Elastic Compliance Matrix: (Units=1/GPa)
#
#
# Indices 1 2 3 4 5 6 
#
# 1 0.023095 -0.004604 -0.009471 0.000000 0.000000 0.000000
# 2 -0.004604 0.012558 -0.005025 0.000000 0.000000 0.000000
# 3 -0.009471 -0.005025 0.020452 0.000000 0.000000 0.000000
# 4 0.000000 0.000000 0.000000 0.042900 0.000000 0.000000
# 5 0.000000 0.000000 0.000000 0.000000 -0.046719 0.000000
# 6 0.000000 0.000000 0.000000 0.000000 0.000000 0.037747
#
#
# Mechanical properties :
#
#
# Convention : Reuss Voigt Hill
#
# Bulk Modulus (GPa) = 55.84760 58.69978 57.27369
# Shear Modulus (GPa) = 37.25760 14.42659 25.84209
#
# Velocity S-wave (km/s) = 4.84161 3.01276 4.03224
# Velocity P-wave (km/s) = 8.14814 7.00244 7.59692
#
# Compressibility (1/GPa) = 0.01790587
#
# Stress axis : x y z
#
# Youngs Moduli (GPa) = 43.29917 79.63090 48.89487
#
# Poissons Ratio (x) = 0.36663 0.46306
# Poissons Ratio (y) = 0.19935 0.24569
# Poissons Ratio (z) = 0.41007 0.40014
#
# Static dielectric constant tensor:
#      x y z
#    x 1.558450 0.000000 0.000000 
#    y 0.000000 1.526130 0.000000 
#    z 0.000000 0.000000 1.520560 
# 
# From -- ./inp_files/14740.got.cif
#   From: 2010.05.17/outbox.cif.g08.bks.cpg/sg46_8_cif.got.tgz:14740.got - 2010.06.03 19:58:25.
