data_PCOD9378757
_publ_section_title
;
Structure prediction by ZEFSAII (Michael W. Deem and Ramdas Pophale) SiO2 
 PCOD9378757
Probable space group: I M A 2
;
_chemical_formula_sum "Si O2"
_cell_formula_units_Z 64
_cell_length_a 17.451859
_cell_length_b 9.199717
_cell_length_c 22.039166
_cell_angle_alpha 90.000000
_cell_angle_beta 90.000000
_cell_angle_gamma 90.000000
_cell_volume 3538.435792
_symmetry_space_group_name_H-M "I M A 2"
_symmetry_group_IT_number 46
_symmetry_cell_setting 'orthorhombic'
loop_
_space_group_symop_operation_xyz
x,y,z
-x,-y,z
1/2-x,y,z
1/2+x,-y,z
1/2+x,1/2+y,1/2+z
1/2-x,1/2-y,1/2+z
-x,1/2+y,1/2+z
x,1/2-y,1/2+z
loop_
_atom_site_type_symbol
_atom_site_label
_atom_site_fract_x
_atom_site_fract_y
_atom_site_fract_z
Si Si1 0.921577 0.412442 0.413150
Si Si2 0.157993 0.640114 0.541793
Si Si3 0.929316 0.900426 0.117570
Si Si4 0.659312 0.045797 0.589874
Si Si5 0.160185 0.157613 0.836448
Si Si6 0.841049 0.666206 0.193431
Si Si7 0.949678 0.637821 0.028642
Si Si8 0.477806 0.161255 0.385616
O O1 0.879890 0.370803 0.475421
O O2 0.867400 0.516017 0.373485
O O3 0.000000 0.500000 0.427759
O O4 0.952514 0.273722 0.375935
O O5 0.250000 0.636931 0.536334
O O6 0.129099 0.507404 0.583000
O O7 0.133293 0.793147 0.572093
O O8 0.888000 0.805001 0.169102
O O9 0.957879 0.782736 0.067663
O O10 0.000000 0.000000 0.138645
O O11 0.750000 0.055899 0.592997
O O12 0.633297 0.972369 0.652944
O O13 0.634773 0.927681 0.539502
O O14 0.250000 0.188193 0.848302
O O15 0.149771 0.137999 0.764439
O O16 0.100900 0.282135 0.856985
O O17 0.750000 0.690275 0.182044
O O18 0.000000 0.500000 0.050656
O O19 0.966746 0.662284 0.958604
O O20 0.500000 0.000000 0.366347
#
# Coordination Sequence:
#
# PCOD9378757 Si02
#       8
#     8   8   8   8   8   8   8   8
#     4  10  20  36  56  79 109 143 180 222 271 328
#     4  11  20  32  54  85 114 137 170 220 276 325
#     4  11  20  32  53  81 110 137 174 222 272 318
#     4   9  19  34  53  77 106 138 172 211 257 317
#     4  10  21  39  59  77 104 147 194 229 266 324
#     4   9  20  39  56  73 103 145 185 219 259 317
#     4  10  19  33  52  75 106 142 173 207 263 325
#     4  10  20  35  56  81 113 143 176 230 283 324
#
# _framework density 18.087088000000001
#
# number of rings (size 3 to 8) (size 9 to 14) (size 15 to 20)
#    0.000    2.000    0.000    5.625    0.000    1.500 
#    0.000   13.750    0.000    3.000    0.000    0.000 
#    0.000    0.000    0.000    0.000    0.000    0.000 
#
# Total GULP energy -178500.204492 kJ/mol
# GULP energy per Si atom -5578.131390 kJ/mol
# Density = 1.804592 g / cm^3
# Si number density = 18.087088 Si / 1000 Ang^3
#
#
#
# Elastic Constant Matrix: (Units=GPa)
#
#
# Indices 1 2 3 4 5 6 
#
# 1 97.3100 61.0325 52.8301 0.0000 0.0000 0.0000
# 2 61.0325 142.7718 51.9885 0.0000 0.0000 0.0000
# 3 52.8301 51.9885 75.7910 0.0000 0.0000 0.0000
# 4 0.0000 0.0000 0.0000 18.1381 0.0000 0.0000
# 5 0.0000 0.0000 0.0000 0.0000 16.8310 0.0000
# 6 0.0000 0.0000 0.0000 0.0000 0.0000 24.0620
#
#
#
# Elastic Compliance Matrix: (Units=1/GPa)
#
#
# Indices 1 2 3 4 5 6 
#
# 1 0.018266 -0.004228 -0.009832 0.000000 0.000000 0.000000
# 2 -0.004228 0.010315 -0.004128 0.000000 0.000000 0.000000
# 3 -0.009832 -0.004128 0.022879 0.000000 0.000000 0.000000
# 4 0.000000 0.000000 0.000000 0.055133 0.000000 0.000000
# 5 0.000000 0.000000 0.000000 0.000000 0.059414 0.000000
# 6 0.000000 0.000000 0.000000 0.000000 0.000000 0.041559
#
#
# Mechanical properties :
#
#
# Convention : Reuss Voigt Hill
#
# Bulk Modulus (GPa) = 66.29795 71.95278 69.12537
# Shear Modulus (GPa) = 20.08260 21.80765 20.94513
#
# Velocity S-wave (km/s) = 3.33577 3.47609 3.40665
# Velocity P-wave (km/s) = 7.18129 7.48188 7.33313
#
# Compressibility (1/GPa) = 0.01508342
#
# Stress axis : x y z
#
# Youngs Moduli (GPa) = 54.74548 96.94691 43.70743
#
# Poissons Ratio (x) = 0.40992 0.42974
# Poissons Ratio (y) = 0.23148 0.18043
# Poissons Ratio (z) = 0.53827 0.40021
#
# Static dielectric constant tensor:
#      x y z
#    x 1.661600 0.000000 0.000000 
#    y 0.000000 1.639180 0.000000 
#    z 0.000000 0.000000 1.590470 
# 
# From -- ./inp_files/22261.got.cif
#   From: 2010.05.17/outbox.cif.g08.bks.cpg/sg46_12_cif.got.tgz:22261.got - 2010.06.03 19:58:25.
