data_PCOD9378001
_publ_section_title
;
Structure prediction by ZEFSAII (Michael W. Deem and Ramdas Pophale) SiO2 
 PCOD9378001
Probable space group: I M A 2
;
_chemical_formula_sum "Si O2"
_cell_formula_units_Z 64
_cell_length_a 7.752898
_cell_length_b 14.909867
_cell_length_c 29.331313
_cell_angle_alpha 90.000000
_cell_angle_beta 90.000000
_cell_angle_gamma 90.000000
_cell_volume 3390.543683
_symmetry_space_group_name_H-M "I M A 2"
_symmetry_group_IT_number 46
_symmetry_cell_setting 'orthorhombic'
loop_
_space_group_symop_operation_xyz
x,y,z
-x,-y,z
1/2-x,y,z
1/2+x,-y,z
1/2+x,1/2+y,1/2+z
1/2-x,1/2-y,1/2+z
-x,1/2+y,1/2+z
x,1/2-y,1/2+z
loop_
_atom_site_type_symbol
_atom_site_label
_atom_site_fract_x
_atom_site_fract_y
_atom_site_fract_z
Si Si1 0.955019 0.903887 0.609880
Si Si2 0.947025 0.173673 0.519391
Si Si3 0.555805 0.639152 0.552186
Si Si4 0.042455 0.103717 0.232830
Si Si5 0.958029 0.789118 0.422202
Si Si6 0.457788 0.103660 0.335152
Si Si7 0.457601 0.404497 0.455840
Si Si8 0.038037 0.289790 0.645067
O O1 0.750000 0.898143 0.606715
O O2 0.015515 0.813168 0.635506
O O3 0.029354 0.899264 0.558542
O O4 0.000000 0.000000 0.630981
O O5 0.750000 0.204597 0.520755
O O6 0.062745 0.257079 0.535651
O O7 0.992040 0.154208 0.467201
O O8 0.750000 0.602842 0.557360
O O9 0.470680 0.595180 0.507883
O O10 0.478125 0.648172 0.602477
O O11 0.250000 0.111299 0.233800
O O12 0.977703 0.124282 0.283983
O O13 0.980167 0.168679 0.192742
O O14 0.000000 0.000000 0.222818
O O15 0.750000 0.787366 0.420306
O O16 0.023070 0.833266 0.375718
O O17 0.017665 0.686607 0.431302
O O18 0.250000 0.111833 0.334177
O O19 0.500000 0.000000 0.344799
O O20 0.500000 0.500000 0.433975
O O21 0.250000 0.397439 0.459224
O O22 0.250000 0.291064 0.643817
#
# Coordination Sequence:
#
# PCOD9378001 Si02
#       8
#     8   8   8   8   8   8   8   8
#     4  10  19  32  48  67  94 129 162 194 228 269
#     4  10  18  28  44  67  91 118 153 193 230 270
#     4   8  15  29  44  60  88 125 155 183 221 268
#     4   9  17  31  50  73  95 118 149 188 233 281
#     4   9  18  33  48  64  91 128 160 191 233 282
#     4   9  18  32  51  71  92 117 150 190 234 282
#     4   9  17  28  43  62  88 121 156 188 223 265
#     4   8  15  29  49  68  91 122 153 183 224 273
#
# _framework density 18.876028000000002
#
# number of rings (size 3 to 8) (size 9 to 14) (size 15 to 20)
#    0.000    3.000    0.000    3.000    0.000    3.500 
#    0.000    4.375    0.000    0.750    0.000    0.000 
#    0.000    0.000    0.000    0.000    0.000    0.250 
#
# Total GULP energy -178202.255529 kJ/mol
# GULP energy per Si atom -5568.820485 kJ/mol
# Density = 1.883307 g / cm^3
# Si number density = 18.876028 Si / 1000 Ang^3
#
#
#
# Elastic Constant Matrix: (Units=GPa)
#
#
# Indices 1 2 3 4 5 6 
#
# 1 42.9317 4.4423 9.3328 0.0000 0.0000 0.0000
# 2 4.4423 103.7137 85.8586 0.0000 0.0000 0.0000
# 3 9.3328 85.8586 156.7130 0.0000 0.0000 0.0000
# 4 0.0000 0.0000 0.0000 26.1340 0.0000 0.0000
# 5 0.0000 0.0000 0.0000 0.0000 16.7907 0.0000
# 6 0.0000 0.0000 0.0000 0.0000 0.0000 18.9646
#
#
#
# Elastic Compliance Matrix: (Units=1/GPa)
#
#
# Indices 1 2 3 4 5 6 
#
# 1 0.023603 0.000279 -0.001559 0.000000 0.000000 0.000000
# 2 0.000279 0.017648 -0.009685 0.000000 0.000000 0.000000
# 3 -0.001559 -0.009685 0.011780 0.000000 0.000000 0.000000
# 4 0.000000 0.000000 0.000000 0.038264 0.000000 0.000000
# 5 0.000000 0.000000 0.000000 0.000000 0.059557 0.000000
# 6 0.000000 0.000000 0.000000 0.000000 0.000000 0.052730
#
#
# Mechanical properties :
#
#
# Convention : Reuss Voigt Hill
#
# Bulk Modulus (GPa) = 32.15279 55.84732 44.00006
# Shear Modulus (GPa) = 21.19734 25.95951 23.57843
#
# Velocity S-wave (km/s) = 3.35472 3.71248 3.53812
# Velocity P-wave (km/s) = 5.66358 6.93017 6.32864
#
# Compressibility (1/GPa) = 0.03110150
#
# Stress axis : x y z
#
# Youngs Moduli (GPa) = 42.36797 56.66355 84.88731
#
# Poissons Ratio (x) = -0.01583 0.13231
# Poissons Ratio (y) = -0.01184 0.82218
# Poissons Ratio (z) = 0.06604 0.54881
#
# Static dielectric constant tensor:
#      x y z
#    x 1.681310 0.000000 0.000000 
#    y 0.000000 1.669480 0.000000 
#    z 0.000000 0.000000 1.679910 
# 
# From -- ./inp_files/25300.got.cif
#   From: 2010.05.17/outbox.cif.g08.bks.cpg/sg46_13_cif.got.tgz:25300.got - 2010.06.03 19:58:25.
