data_PCOD9378847
_publ_section_title
;
Structure prediction by ZEFSAII (Michael W. Deem and Ramdas Pophale) SiO2 
 PCOD9378847
Probable space group: I M A 2
;
_chemical_formula_sum "Si O2"
_cell_formula_units_Z 60
_cell_length_a 13.271638
_cell_length_b 9.166686
_cell_length_c 25.826360
_cell_angle_alpha 90.000000
_cell_angle_beta 90.000000
_cell_angle_gamma 90.000000
_cell_volume 3141.955884
_symmetry_space_group_name_H-M "I M A 2"
_symmetry_group_IT_number 46
_symmetry_cell_setting 'orthorhombic'
loop_
_space_group_symop_operation_xyz
x,y,z
-x,-y,z
1/2-x,y,z
1/2+x,-y,z
1/2+x,1/2+y,1/2+z
1/2-x,1/2-y,1/2+z
-x,1/2+y,1/2+z
x,1/2-y,1/2+z
loop_
_atom_site_type_symbol
_atom_site_label
_atom_site_fract_x
_atom_site_fract_y
_atom_site_fract_z
Si Si1 0.133577 0.534753 0.654070
Si Si2 0.500000 0.000000 0.247929
Si Si3 0.134818 0.851002 0.329181
Si Si4 0.479382 0.199566 0.093015
Si Si5 0.542648 0.338959 0.403190
Si Si6 0.864678 0.557494 0.034033
Si Si7 0.636390 0.283577 0.513256
Si Si8 0.132361 0.112713 0.413056
O O1 0.250000 0.570546 0.655618
O O2 0.091503 0.470167 0.708056
O O3 0.107788 0.409361 0.612065
O O4 0.064508 0.674609 0.637864
O O5 0.551025 0.116582 0.286100
O O6 0.250000 0.864129 0.310285
O O7 0.113706 0.694861 0.354597
O O8 0.123114 0.971003 0.375941
O O9 0.431779 0.352868 0.074793
O O10 0.543698 0.147181 0.043580
O O11 0.500000 0.500000 0.408541
O O12 0.607245 0.292968 0.453438
O O13 0.445942 0.234543 0.396141
O O14 0.750000 0.607635 0.041329
O O15 0.864153 0.382193 0.035191
O O16 0.892296 0.587155 0.973829
O O17 0.750000 0.341402 0.521479
O O18 0.250000 0.156308 0.410580
#
# Coordination Sequence:
#
# PCOD9378847 Si02
#       8
#     8   4   8   8   8   8   8   8
#     4  10  23  41  58  90 124 150 197 260 323 373
#     4  10  20  38  72  92 106 148 204 264 312 364
#     4  11  21  39  66  94 121 158 205 255 310 369
#     4  10  20  33  57  81 114 160 196 249 301 352
#     4  12  24  36  54  86 133 172 202 246 304 363
#     4  10  19  33  56  83 116 162 206 247 285 338
#     4  11  22  35  54  84 119 166 213 245 287 348
#     4  10  20  35  57  84 122 163 205 247 289 356
#
# _framework density 19.096387
#
# number of rings (size 3 to 8) (size 9 to 14) (size 15 to 20)
#    0.000    1.600    4.000    2.000    1.867    1.067 
#    0.000    1.333    0.000    6.400    0.000    0.000 
#    0.000    0.000    0.000    0.000    0.000    0.000 
#
# Total GULP energy -167053.422105 kJ/mol
# GULP energy per Si atom -5568.447403 kJ/mol
# Density = 1.905292 g / cm^3
# Si number density = 19.096387 Si / 1000 Ang^3
#
#
#
# Elastic Constant Matrix: (Units=GPa)
#
#
# Indices 1 2 3 4 5 6 
#
# 1 123.0696 30.5906 24.9037 0.0000 0.0000 0.0000
# 2 30.5906 68.6125 19.7135 0.0000 0.0000 0.0000
# 3 24.9037 19.7135 82.9425 0.0000 0.0000 0.0000
# 4 0.0000 0.0000 0.0000 17.1916 0.0000 0.0000
# 5 0.0000 0.0000 0.0000 0.0000 23.9330 0.0000
# 6 0.0000 0.0000 0.0000 0.0000 0.0000 23.0879
#
#
#
# Elastic Compliance Matrix: (Units=1/GPa)
#
#
# Indices 1 2 3 4 5 6 
#
# 1 0.009428 -0.003638 -0.001966 0.000000 0.000000 0.000000
# 2 -0.003638 0.017047 -0.002959 0.000000 0.000000 0.000000
# 3 -0.001966 -0.002959 0.013350 0.000000 0.000000 0.000000
# 4 0.000000 0.000000 0.000000 0.058168 0.000000 0.000000
# 5 0.000000 0.000000 0.000000 0.000000 0.041783 0.000000
# 6 0.000000 0.000000 0.000000 0.000000 0.000000 0.043313
#
#
# Mechanical properties :
#
#
# Convention : Reuss Voigt Hill
#
# Bulk Modulus (GPa) = 44.05738 47.22671 45.64205
# Shear Modulus (GPa) = 24.06367 26.13694 25.10030
#
# Velocity S-wave (km/s) = 3.55366 3.70359 3.62940
# Velocity P-wave (km/s) = 6.32133 6.56301 6.44330
#
# Compressibility (1/GPa) = 0.02269767
#
# Stress axis : x y z
#
# Youngs Moduli (GPa) = 106.07059 58.66121 74.90546
#
# Poissons Ratio (x) = 0.21344 0.14726
# Poissons Ratio (y) = 0.38593 0.22166
# Poissons Ratio (z) = 0.20853 0.17359
#
# Static dielectric constant tensor:
#      x y z
#    x 1.721320 0.000000 0.000000 
#    y 0.000000 1.698720 0.000000 
#    z 0.000000 0.000000 1.707290 
# 
# From -- ./inp_files/23599.got.cif
#   From: 2010.05.17/outbox.cif.g08.bks.cpg/sg46_12_cif.got.tgz:23599.got - 2010.06.03 19:58:25.
