data_PCOD9378571
_publ_section_title
;
Structure prediction by ZEFSAII (Michael W. Deem and Ramdas Pophale) SiO2 
 PCOD9378571
Probable space group: I M A 2
;
_chemical_formula_sum "Si O2"
_cell_formula_units_Z 64
_cell_length_a 8.794258
_cell_length_b 34.354981
_cell_length_c 11.956340
_cell_angle_alpha 90.000000
_cell_angle_beta 90.000000
_cell_angle_gamma 90.000000
_cell_volume 3612.327952
_symmetry_space_group_name_H-M "I M A 2"
_symmetry_group_IT_number 46
_symmetry_cell_setting 'orthorhombic'
loop_
_space_group_symop_operation_xyz
x,y,z
-x,-y,z
1/2-x,y,z
1/2+x,-y,z
1/2+x,1/2+y,1/2+z
1/2-x,1/2-y,1/2+z
-x,1/2+y,1/2+z
x,1/2-y,1/2+z
loop_
_atom_site_type_symbol
_atom_site_label
_atom_site_fract_x
_atom_site_fract_y
_atom_site_fract_z
Si Si1 0.931546 0.262296 0.334420
Si Si2 0.568074 0.875925 0.463767
Si Si3 0.930984 0.042297 0.534884
Si Si4 0.570107 0.323386 0.531393
Si Si5 0.068596 0.831159 0.673821
Si Si6 0.071227 0.381560 0.372011
Si Si7 0.069483 0.316756 0.772712
Si Si8 0.069162 0.541442 0.301308
O O1 0.750000 0.254760 0.329247
O O2 0.960587 0.288106 0.444847
O O3 0.972011 0.288818 0.225509
O O4 0.022918 0.222528 0.336976
O O5 0.750000 0.878861 0.472680
O O6 0.498913 0.919111 0.477386
O O7 0.509287 0.847507 0.562813
O O8 0.529298 0.854183 0.348023
O O9 0.750000 0.041160 0.518061
O O10 0.959817 0.047379 0.668262
O O11 0.000000 0.000000 0.502880
O O12 0.750000 0.331277 0.524667
O O13 0.475861 0.359691 0.484364
O O14 0.519914 0.315047 0.656549
O O15 0.250000 0.831925 0.658361
O O16 0.021413 0.860362 0.773028
O O17 0.250000 0.378044 0.350680
O O18 0.016801 0.425563 0.369210
O O19 0.250000 0.317269 0.752695
O O20 0.250000 0.543049 0.318316
O O21 0.000000 0.500000 0.330783
#
# Coordination Sequence:
#
# PCOD9378571 Si02
#       8
#     8   8   8   8   8   8   8   8
#     4   9  21  39  59  82 109 146 190 237 286 339
#     4  11  23  37  55  84 119 154 192 239 290 347
#     4  10  20  34  56  83 117 155 190 236 288 348
#     4  10  22  41  61  81 108 148 194 235 280 339
#     4  10  20  35  55  81 111 148 191 232 279 340
#     4  11  20  33  56  82 112 148 182 229 283 335
#     4  11  25  40  57  84 115 149 191 240 290 340
#     4  10  19  31  50  81 117 150 186 228 279 340
#
# _framework density 17.717106000000001
#
# number of rings (size 3 to 8) (size 9 to 14) (size 15 to 20)
#    0.000    1.750    1.250    4.125    1.750    6.000 
#    0.000    0.000    0.000    0.750    0.000    1.750 
#    0.000    0.000    0.000    0.000    0.000    0.000 
#
# Total GULP energy -178670.124601 kJ/mol
# GULP energy per Si atom -5583.441394 kJ/mol
# Density = 1.767678 g / cm^3
# Si number density = 17.717106 Si / 1000 Ang^3
#
#
#
# Elastic Constant Matrix: (Units=GPa)
#
#
# Indices 1 2 3 4 5 6 
#
# 1 44.3378 40.2754 21.6286 -0.0003 0.0000 -0.0001
# 2 40.2754 108.4105 24.3513 -0.0002 0.0000 -0.0002
# 3 21.6286 24.3513 58.7117 -0.0005 -0.0001 -0.0003
# 4 -0.0003 -0.0002 -0.0005 23.1015 0.0000 -0.0001
# 5 0.0000 0.0000 -0.0001 0.0000 25.2915 0.0000
# 6 -0.0001 -0.0002 -0.0003 -0.0001 0.0000 30.7449
#
#
#
# Elastic Compliance Matrix: (Units=1/GPa)
#
#
# Indices 1 2 3 4 5 6 
#
# 1 0.037876 -0.012061 -0.008951 0.000000 0.000000 0.000000
# 2 -0.012061 0.014012 -0.001369 0.000000 0.000000 0.000000
# 3 -0.008951 -0.001369 0.020897 0.000000 0.000000 0.000000
# 4 0.000000 0.000000 0.000000 0.043287 0.000000 0.000000
# 5 0.000000 0.000000 0.000000 0.000000 0.039539 0.000000
# 6 0.000000 0.000000 0.000000 0.000000 0.000000 0.032526
#
#
# Mechanical properties :
#
#
# Convention : Reuss Voigt Hill
#
# Bulk Modulus (GPa) = 35.68193 42.66341 39.17267
# Shear Modulus (GPa) = 20.64066 24.17453 22.40760
#
# Velocity S-wave (km/s) = 3.41693 3.69789 3.56018
# Velocity P-wave (km/s) = 5.97920 6.50885 6.24964
#
# Compressibility (1/GPa) = 0.02802539
#
# Stress axis : x y z
#
# Youngs Moduli (GPa) = 26.40186 71.36578 47.85277
#
# Poissons Ratio (x) = 0.86073 0.42832
# Poissons Ratio (y) = 0.31843 0.06550
# Poissons Ratio (z) = 0.23632 0.09768
#
# Static dielectric constant tensor:
#      x y z
#    x 1.586550 0.000000 0.000000 
#    y 0.000000 1.569620 0.000000 
#    z 0.000000 0.000000 1.593350 
# 
# From -- ./inp_files/9725.got.cif
#   From: 2010.05.17/outbox.cif.g08.bks.cpg/sg46_5_cif.got.tgz:9725.got - 2010.06.03 19:58:25.
