data_PCOD9378604
_publ_section_title
;
Structure prediction by ZEFSAII (Michael W. Deem and Ramdas Pophale) SiO2 
 PCOD9378604
Probable space group: I M A 2
;
_chemical_formula_sum "Si O2"
_cell_formula_units_Z 64
_cell_length_a 9.066636
_cell_length_b 21.139709
_cell_length_c 20.078614
_cell_angle_alpha 90.000000
_cell_angle_beta 90.000000
_cell_angle_gamma 90.000000
_cell_volume 3848.388568
_symmetry_space_group_name_H-M "I M A 2"
_symmetry_group_IT_number 46
_symmetry_cell_setting 'orthorhombic'
loop_
_space_group_symop_operation_xyz
x,y,z
-x,-y,z
1/2-x,y,z
1/2+x,-y,z
1/2+x,1/2+y,1/2+z
1/2-x,1/2-y,1/2+z
-x,1/2+y,1/2+z
x,1/2-y,1/2+z
loop_
_atom_site_type_symbol
_atom_site_label
_atom_site_fract_x
_atom_site_fract_y
_atom_site_fract_z
Si Si1 0.426511 0.880099 0.493380
Si Si2 0.925889 0.883924 0.630668
Si Si3 0.425890 0.243203 0.990983
Si Si4 0.426532 0.691070 0.771015
Si Si5 0.924914 0.733168 0.639547
Si Si6 0.072368 0.065050 0.773863
Si Si7 0.426568 0.307363 0.348889
Si Si8 0.427350 0.565314 0.851498
O O1 0.250000 0.878593 0.497323
O O2 0.492972 0.903653 0.563168
O O3 0.487824 0.809000 0.483588
O O4 0.469982 0.919441 0.428062
O O5 0.750000 0.890626 0.621310
O O6 0.953901 0.808947 0.643005
O O7 0.970684 0.920449 0.697244
O O8 0.250000 0.257843 0.992044
O O9 0.460950 0.214834 0.063452
O O10 0.455605 0.199660 0.927482
O O11 0.250000 0.695392 0.772739
O O12 0.485238 0.697547 0.696021
O O13 0.494937 0.749738 0.811494
O O14 0.470400 0.625507 0.806545
O O15 0.750000 0.724437 0.651014
O O16 0.250000 0.060280 0.775965
O O17 0.028669 0.125658 0.817845
O O18 0.000000 0.000000 0.796185
O O19 0.250000 0.300834 0.338273
O O20 0.500000 0.500000 0.829856
O O21 0.250000 0.560025 0.849148
#
# Coordination Sequence:
#
# PCOD9378604 Si02
#       8
#     8   8   8   8   8   8   8   8
#     4  10  19  32  49  74 107 137 170 215 258 302
#     4   9  18  33  50  72 104 140 178 213 245 304
#     4   9  18  32  54  79 103 135 174 212 256 309
#     4  11  21  34  53  80 108 134 170 218 264 307
#     4   9  17  32  52  78 105 132 173 215 255 308
#     4  10  21  36  52  74 106 139 177 218 257 306
#     4  10  19  35  57  78 102 138 177 215 258 308
#     4  10  23  38  51  73 105 138 176 217 259 310
#
# _framework density 16.630337999999998
#
# number of rings (size 3 to 8) (size 9 to 14) (size 15 to 20)
#    0.000    2.250    2.500    1.500    0.000    5.500 
#    0.000    2.500    0.000    0.750    0.000    3.500 
#    0.000    0.000    0.000    0.000    0.000    0.000 
#
# Total GULP energy -178527.446875 kJ/mol
# GULP energy per Si atom -5578.982715 kJ/mol
# Density = 1.659249 g / cm^3
# Si number density = 16.630338 Si / 1000 Ang^3
#
#
#
# Elastic Constant Matrix: (Units=GPa)
#
#
# Indices 1 2 3 4 5 6 
#
# 1 23.7467 37.1242 37.5796 0.0000 0.0000 0.0000
# 2 37.1242 115.3707 67.3838 0.0000 0.0000 0.0000
# 3 37.5796 67.3838 115.1747 0.0000 0.0000 0.0000
# 4 0.0000 0.0000 0.0000 21.7725 0.0000 0.0000
# 5 0.0000 0.0000 0.0000 0.0000 21.4108 0.0000
# 6 0.0000 0.0000 0.0000 0.0000 0.0000 25.1757
#
#
#
# Elastic Compliance Matrix: (Units=1/GPa)
#
#
# Indices 1 2 3 4 5 6 
#
# 1 0.118095 -0.023539 -0.024761 0.000000 0.000000 0.000000
# 2 -0.023539 0.017859 -0.002768 0.000000 0.000000 0.000000
# 3 -0.024761 -0.002768 0.018381 0.000000 0.000000 0.000000
# 4 0.000000 0.000000 0.000000 0.045930 0.000000 0.000000
# 5 0.000000 0.000000 0.000000 0.000000 0.046705 0.000000
# 6 0.000000 0.000000 0.000000 0.000000 0.000000 0.039721
#
#
# Mechanical properties :
#
#
# Convention : Reuss Voigt Hill
#
# Bulk Modulus (GPa) = 19.15736 59.82970 39.49353
# Shear Modulus (GPa) = 12.30840 21.15210 16.73025
#
# Velocity S-wave (km/s) = 2.72346 3.57024 3.17520
# Velocity P-wave (km/s) = 4.62971 7.28353 6.10262
#
# Compressibility (1/GPa) = 0.05219926
#
# Stress axis : x y z
#
# Youngs Moduli (GPa) = 8.46773 55.99467 54.40389
#
# Poissons Ratio (x) = 1.31806 1.34709
# Poissons Ratio (y) = 0.19932 0.15059
# Poissons Ratio (z) = 0.20967 0.15500
#
# Static dielectric constant tensor:
#      x y z
#    x 1.555400 0.000000 0.000000 
#    y 0.000000 1.536910 0.000000 
#    z 0.000000 0.000000 1.578810 
# 
# From -- ./inp_files/21319.got.cif
#   From: 2010.05.17/outbox.cif.g08.bks.cpg/sg46_11_cif.got.tgz:21319.got - 2010.06.03 19:58:25.
