data_PCOD9378941
_publ_section_title
;
Structure prediction by ZEFSAII (Michael W. Deem and Ramdas Pophale) SiO2 
 PCOD9378941
Probable space group: I M A 2
;
_chemical_formula_sum "Si O2"
_cell_formula_units_Z 64
_cell_length_a 8.537065
_cell_length_b 18.029030
_cell_length_c 21.222768
_cell_angle_alpha 90.000000
_cell_angle_beta 90.000000
_cell_angle_gamma 90.000000
_cell_volume 3266.502358
_symmetry_space_group_name_H-M "I M A 2"
_symmetry_group_IT_number 46
_symmetry_cell_setting 'orthorhombic'
loop_
_space_group_symop_operation_xyz
x,y,z
-x,-y,z
1/2-x,y,z
1/2+x,-y,z
1/2+x,1/2+y,1/2+z
1/2-x,1/2-y,1/2+z
-x,1/2+y,1/2+z
x,1/2-y,1/2+z
loop_
_atom_site_type_symbol
_atom_site_label
_atom_site_fract_x
_atom_site_fract_y
_atom_site_fract_z
Si Si1 0.437186 0.211126 0.530750
Si Si2 0.062906 0.126661 0.893507
Si Si3 0.060672 0.298547 0.892607
Si Si4 0.937020 0.077622 0.761507
Si Si5 0.439322 0.872885 0.164409
Si Si6 0.061060 0.699248 0.161517
Si Si7 0.562645 0.922023 0.296623
Si Si8 0.064520 0.878129 0.026611
O O1 0.250000 0.224652 0.532400
O O2 0.474857 0.174184 0.463597
O O3 0.491035 0.172850 0.594867
O O4 0.525220 0.290221 0.529274
O O5 0.250000 0.125592 0.891159
O O6 0.008076 0.212987 0.888085
O O7 0.995681 0.086391 0.832809
O O8 0.011944 0.095561 0.961604
O O9 0.250000 0.296327 0.887336
O O10 0.002033 0.353265 0.838668
O O11 0.750000 0.076699 0.761481
O O12 0.990191 0.147038 0.718818
O O13 0.000000 0.000000 0.735480
O O14 0.250000 0.876350 0.165966
O O15 0.485012 0.785573 0.169720
O O16 0.507876 0.912644 0.224882
O O17 0.490918 0.903883 0.095943
O O18 0.250000 0.697407 0.157729
O O19 0.750000 0.922167 0.298486
O O20 0.500000 0.000000 0.321660
O O21 0.250000 0.889394 0.022464
#
# Coordination Sequence:
#
# PCOD9378941 Si02
#       8
#     8   8   8   8   8   8   8   8
#     4   9  16  29  52  80 107 134 171 218 264 309
#     4  10  19  34  57  83 107 133 173 219 263 314
#     4   8  17  33  53  78 105 134 169 211 257 308
#     4  11  23  38  54  75 107 144 179 217 263 315
#     4   9  18  34  55  79 105 133 169 212 257 308
#     4   9  19  35  55  80 108 137 173 216 263 315
#     4  11  22  36  52  72 103 139 175 214 257 305
#     4   9  17  31  52  79 110 138 168 211 262 314
#
# _framework density 19.592822000000002
#
# number of rings (size 3 to 8) (size 9 to 14) (size 15 to 20)
#    0.000    2.500    0.000    4.125    0.000    3.500 
#    0.000    8.125    0.000    6.000    0.000    0.000 
#    0.000    0.000    0.000    0.000    0.000    0.000 
#
# Total GULP energy -178479.473727 kJ/mol
# GULP energy per Si atom -5577.483554 kJ/mol
# Density = 1.954823 g / cm^3
# Si number density = 19.592822 Si / 1000 Ang^3
#
#
#
# Elastic Constant Matrix: (Units=GPa)
#
#
# Indices 1 2 3 4 5 6 
#
# 1 19.7230 10.1151 10.0829 0.0000 0.0000 0.0000
# 2 10.1151 62.0060 28.0388 0.0000 0.0000 0.0000
# 3 10.0829 28.0388 102.1763 0.0000 0.0000 0.0000
# 4 0.0000 0.0000 0.0000 -17.4023 0.0000 0.0000
# 5 0.0000 0.0000 0.0000 0.0000 27.5364 0.0000
# 6 0.0000 0.0000 0.0000 0.0000 0.0000 20.3451
#
#
#
# Elastic Compliance Matrix: (Units=1/GPa)
#
#
# Indices 1 2 3 4 5 6 
#
# 1 0.056389 -0.007629 -0.003471 0.000000 0.000000 0.000000
# 2 -0.007629 0.019444 -0.004583 0.000000 0.000000 0.000000
# 3 -0.003471 -0.004583 0.011387 0.000000 0.000000 0.000000
# 4 0.000000 0.000000 0.000000 -0.057464 0.000000 0.000000
# 5 0.000000 0.000000 0.000000 0.000000 0.036316 0.000000
# 6 0.000000 0.000000 0.000000 0.000000 0.000000 0.049152
#
#
# Mechanical properties :
#
#
# Convention : Reuss Voigt Hill
#
# Bulk Modulus (GPa) = 17.90366 31.15320 24.52843
# Shear Modulus (GPa) = 30.26466 15.14043 22.70255
#
# Velocity S-wave (km/s) = 3.93451 2.78286 3.40769
# Velocity P-wave (km/s) = 5.45877 5.12451 5.29428
#
# Compressibility (1/GPa) = 0.05585450
#
# Stress axis : x y z
#
# Youngs Moduli (GPa) = 17.73384 51.42860 87.81811
#
# Poissons Ratio (x) = 0.39236 0.30482
# Poissons Ratio (y) = 0.13530 0.40247
# Poissons Ratio (z) = 0.06155 0.23570
#
# Static dielectric constant tensor:
#      x y z
#    x 1.667160 0.000000 0.000000 
#    y 0.000000 1.694140 0.000000 
#    z 0.000000 0.000000 1.716260 
# 
# From -- ./inp_files/21315.got.cif
#   From: 2010.05.17/outbox.cif.g08.bks.cpg/sg46_11_cif.got.tgz:21315.got - 2010.06.03 19:58:25.
