data_PCOD9378037
_publ_section_title
;
Structure prediction by ZEFSAII (Michael W. Deem and Ramdas Pophale) SiO2 
 PCOD9378037
Probable space group: I M A 2
;
_chemical_formula_sum "Si O2"
_cell_formula_units_Z 56
_cell_length_a 8.425547
_cell_length_b 18.927946
_cell_length_c 21.592527
_cell_angle_alpha 90.000000
_cell_angle_beta 90.000000
_cell_angle_gamma 90.000000
_cell_volume 3443.539469
_symmetry_space_group_name_H-M "I M A 2"
_symmetry_group_IT_number 46
_symmetry_cell_setting 'orthorhombic'
loop_
_space_group_symop_operation_xyz
x,y,z
-x,-y,z
1/2-x,y,z
1/2+x,-y,z
1/2+x,1/2+y,1/2+z
1/2-x,1/2-y,1/2+z
-x,1/2+y,1/2+z
x,1/2-y,1/2+z
loop_
_atom_site_type_symbol
_atom_site_label
_atom_site_fract_x
_atom_site_fract_y
_atom_site_fract_z
Si Si1 0.441976 0.419822 0.844890
Si Si2 0.440618 0.079361 0.090500
Si Si3 0.560145 0.659448 0.969662
Si Si4 0.556598 0.654745 0.718859
Si Si5 0.562744 0.078409 0.590962
Si Si6 0.936995 0.284868 0.538450
Si Si7 0.063455 0.206526 0.658608
O O1 0.500000 0.500000 0.846300
O O2 0.250000 0.420276 0.844208
O O3 0.492267 0.378253 0.906572
O O4 0.497104 0.380941 0.782267
O O5 0.250000 0.081979 0.087538
O O6 0.491079 0.109014 0.158543
O O7 0.512972 0.133682 0.040509
O O8 0.500000 0.000000 0.082841
O O9 0.750000 0.667504 0.968790
O O10 0.514478 0.610623 0.028460
O O11 0.481725 0.735975 0.980542
O O12 0.750000 0.655665 0.718691
O O13 0.506056 0.736311 0.709059
O O14 0.750000 0.077058 0.581469
O O15 0.521973 0.132580 0.646499
O O16 0.500000 0.000000 0.602220
O O17 0.750000 0.277958 0.551176
O O18 0.035771 0.249499 0.594636
O O19 0.250000 0.193456 0.667076
#
# Coordination Sequence:
#
# PCOD9378037 Si02
#       7
#     8   8   8   8   8   8   8
#     4  10  20  32  46  66  92 123 156 186 217 256
#     4  10  18  29  46  68  94 120 149 185 227 270
#     4  10  19  31  46  64  90 122 155 188 223 263
#     4   8  16  30  46  65  91 122 152 183 219 262
#     4  11  20  30  45  66  92 118 149 186 228 272
#     4  10  18  29  45  64  88 117 151 187 226 270
#     4   9  16  29  47  65  88 116 148 185 226 269
#
# _framework density 16.262336999999999
#
# number of rings (size 3 to 8) (size 9 to 14) (size 15 to 20)
#    0.000    2.286    0.000    7.286    0.000    2.286 
#    0.000    3.571    0.000    0.000    0.000    1.000 
#    0.000    4.571    0.000    0.000    0.000    0.000 
#
# Total GULP energy -156071.335190 kJ/mol
# GULP energy per Si atom -5573.976257 kJ/mol
# Density = 1.622532 g / cm^3
# Si number density = 16.262337 Si / 1000 Ang^3
#
#
#
# Elastic Constant Matrix: (Units=GPa)
#
#
# Indices 1 2 3 4 5 6 
#
# 1 32.5623 18.0183 10.8285 0.0000 0.0000 0.0000
# 2 18.0183 157.5151 63.7785 0.0000 0.0000 0.0000
# 3 10.8285 63.7785 76.3038 0.0000 0.0000 0.0000
# 4 0.0000 0.0000 0.0000 26.6757 0.0000 0.0000
# 5 0.0000 0.0000 0.0000 0.0000 5.9520 0.0000
# 6 0.0000 0.0000 0.0000 0.0000 0.0000 29.0969
#
#
#
# Elastic Compliance Matrix: (Units=1/GPa)
#
#
# Indices 1 2 3 4 5 6 
#
# 1 0.033054 -0.002844 -0.002313 0.000000 0.000000 0.000000
# 2 -0.002844 0.009841 -0.007822 0.000000 0.000000 0.000000
# 3 -0.002313 -0.007822 0.019972 0.000000 0.000000 0.000000
# 4 0.000000 0.000000 0.000000 0.037487 0.000000 0.000000
# 5 0.000000 0.000000 0.000000 0.000000 0.168012 0.000000
# 6 0.000000 0.000000 0.000000 0.000000 0.000000 0.034368
#
#
# Mechanical properties :
#
#
# Convention : Reuss Voigt Hill
#
# Bulk Modulus (GPa) = 27.09504 50.18132 38.63818
# Shear Modulus (GPa) = 14.66296 23.92863 19.29579
#
# Velocity S-wave (km/s) = 3.00601 3.84006 3.44835
# Velocity P-wave (km/s) = 5.36148 7.11237 6.29807
#
# Compressibility (1/GPa) = 0.03690713
#
# Stress axis : x y z
#
# Youngs Moduli (GPa) = 30.25398 101.61408 50.07043
#
# Poissons Ratio (x) = 0.28903 0.11583
# Poissons Ratio (y) = 0.08605 0.39165
# Poissons Ratio (z) = 0.06999 0.79483
#
# Static dielectric constant tensor:
#      x y z
#    x 1.565080 0.000000 0.000000 
#    y 0.000000 1.567760 0.000000 
#    z 0.000000 0.000000 1.543610 
# 
# From -- ./inp_files/21383.got.cif
#   From: 2010.05.17/outbox.cif.g08.bks.cpg/sg46_11_cif.got.tgz:21383.got - 2010.06.03 19:58:25.
