data_PCOD9378664
_publ_section_title
;
Structure prediction by ZEFSAII (Michael W. Deem and Ramdas Pophale) SiO2 
 PCOD9378664
Probable space group: I M A 2
;
_chemical_formula_sum "Si O2"
_cell_formula_units_Z 64
_cell_length_a 16.262099
_cell_length_b 9.420559
_cell_length_c 22.774033
_cell_angle_alpha 90.000000
_cell_angle_beta 90.000000
_cell_angle_gamma 90.000000
_cell_volume 3488.937744
_symmetry_space_group_name_H-M "I M A 2"
_symmetry_group_IT_number 46
_symmetry_cell_setting 'orthorhombic'
loop_
_space_group_symop_operation_xyz
x,y,z
-x,-y,z
1/2-x,y,z
1/2+x,-y,z
1/2+x,1/2+y,1/2+z
1/2-x,1/2-y,1/2+z
-x,1/2+y,1/2+z
x,1/2-y,1/2+z
loop_
_atom_site_type_symbol
_atom_site_label
_atom_site_fract_x
_atom_site_fract_y
_atom_site_fract_z
Si Si1 0.152668 0.142174 0.328420
Si Si2 0.154344 0.380085 0.550365
Si Si3 0.348944 0.133546 0.462625
Si Si4 0.597042 0.342136 0.606537
Si Si5 0.476177 0.161595 0.769537
Si Si6 0.655893 0.050781 0.569042
Si Si7 0.073202 0.311503 0.135467
Si Si8 0.084822 0.586064 0.738313
O O1 0.250000 0.174711 0.326500
O O2 0.126903 0.110473 0.395600
O O3 0.094268 0.271964 0.309934
O O4 0.134777 0.012575 0.283317
O O5 0.250000 0.414766 0.540080
O O6 0.123591 0.276117 0.497772
O O7 0.104873 0.522559 0.564610
O O8 0.145829 0.285266 0.609430
O O9 0.250000 0.144824 0.461922
O O10 0.369267 0.000525 0.504201
O O11 0.651499 0.216017 0.581020
O O12 0.507114 0.270445 0.611420
O O13 0.621213 0.384864 0.673568
O O14 0.438750 0.174565 0.704193
O O15 0.555372 0.266329 0.767669
O O16 0.500000 0.000000 0.782223
O O17 0.750000 0.002824 0.578858
O O18 0.594113 0.966944 0.611404
O O19 0.000000 0.500000 0.726585
#
# Coordination Sequence:
#
# PCOD9378664 Si02
#       8
#     8   8   8   8   8   8   8   8
#     4  10  20  37  59  76  97 139 191 224 250 308
#     4  10  19  32  52  77 106 135 169 212 256 305
#     4   8  18  37  54  71 101 141 175 210 259 307
#     4  11  19  31  52  82 109 131 165 214 266 305
#     4  10  20  36  54  76 110 142 168 214 278 320
#     4  10  20  34  53  76 106 139 171 209 255 310
#     4  10  19  34  52  73 106 144 168 197 258 326
#     4   9  19  35  55  77 108 143 170 208 265 319
#
# _framework density 18.343692999999998
#
# number of rings (size 3 to 8) (size 9 to 14) (size 15 to 20)
#    0.000    2.250    0.000    6.000    0.000    3.000 
#    0.000   11.875    0.000    3.000    0.000    0.000 
#    0.000    0.000    0.000    0.000    0.000    0.000 
#
# Total GULP energy -178306.752868 kJ/mol
# GULP energy per Si atom -5572.086027 kJ/mol
# Density = 1.830194 g / cm^3
# Si number density = 18.343693 Si / 1000 Ang^3
#
#
#
# Elastic Constant Matrix: (Units=GPa)
#
#
# Indices 1 2 3 4 5 6 
#
# 1 37.6299 15.9252 37.4416 0.0000 0.0000 0.0000
# 2 15.9252 133.3298 50.6766 0.0000 0.0000 0.0000
# 3 37.4416 50.6766 117.7650 0.0000 0.0000 0.0000
# 4 0.0000 0.0000 0.0000 6.5684 0.0000 0.0000
# 5 0.0000 0.0000 0.0000 0.0000 32.4142 0.0000
# 6 0.0000 0.0000 0.0000 0.0000 0.0000 23.9809
#
#
#
# Elastic Compliance Matrix: (Units=1/GPa)
#
#
# Indices 1 2 3 4 5 6 
#
# 1 0.038872 0.000065 -0.012387 0.000000 0.000000 0.000000
# 2 0.000065 0.008967 -0.003879 0.000000 0.000000 0.000000
# 3 -0.012387 -0.003879 0.014099 0.000000 0.000000 0.000000
# 4 0.000000 0.000000 0.000000 0.152243 0.000000 0.000000
# 5 0.000000 0.000000 0.000000 0.000000 0.030851 0.000000
# 6 0.000000 0.000000 0.000000 0.000000 0.000000 0.041700
#
#
# Mechanical properties :
#
#
# Convention : Reuss Voigt Hill
#
# Bulk Modulus (GPa) = 33.85722 55.20127 44.52925
# Shear Modulus (GPa) = 15.19854 24.90479 20.05166
#
# Velocity S-wave (km/s) = 2.88157 3.68866 3.30981
# Velocity P-wave (km/s) = 5.43769 6.94980 6.23972
#
# Compressibility (1/GPa) = 0.02953579
#
# Stress axis : x y z
#
# Youngs Moduli (GPa) = 25.72558 111.52124 70.92694
#
# Poissons Ratio (x) = -0.00726 0.87855
# Poissons Ratio (y) = -0.00167 0.27515
# Poissons Ratio (z) = 0.31866 0.43263
#
# Static dielectric constant tensor:
#      x y z
#    x 1.642660 0.000000 0.000000 
#    y 0.000000 1.668770 0.000000 
#    z 0.000000 0.000000 1.631720 
# 
# From -- ./inp_files/22215.got.cif
#   From: 2010.05.17/outbox.cif.g08.bks.cpg/sg46_12_cif.got.tgz:22215.got - 2010.06.03 19:58:25.
