data_PCOD9378303
_publ_section_title
;
Structure prediction by ZEFSAII (Michael W. Deem and Ramdas Pophale) SiO2 
 PCOD9378303
Probable space group: I M A 2
;
_chemical_formula_sum "Si O2"
_cell_formula_units_Z 32
_cell_length_a 17.888001
_cell_length_b 10.810245
_cell_length_c 7.752594
_cell_angle_alpha 90.000000
_cell_angle_beta 90.000000
_cell_angle_gamma 90.000000
_cell_volume 1499.147580
_symmetry_space_group_name_H-M "I M A 2"
_symmetry_group_IT_number 46
_symmetry_cell_setting 'orthorhombic'
loop_
_space_group_symop_operation_xyz
x,y,z
-x,-y,z
1/2-x,y,z
1/2+x,-y,z
1/2+x,1/2+y,1/2+z
1/2-x,1/2-y,1/2+z
-x,1/2+y,1/2+z
x,1/2-y,1/2+z
loop_
_atom_site_type_symbol
_atom_site_label
_atom_site_fract_x
_atom_site_fract_y
_atom_site_fract_z
Si Si1 0.988778 0.372926 0.956030
Si Si2 0.450226 0.384222 0.327853
Si Si3 0.665008 0.046693 0.984334
Si Si4 0.837681 0.206774 0.632628
O O1 0.857786 0.353746 0.631841
O O2 0.904269 0.354790 0.023630
O O3 0.000000 0.500000 0.852140
O O4 0.044750 0.389697 0.120866
O O5 0.500000 0.500000 0.388309
O O6 0.375623 0.420717 0.428842
O O7 0.485317 0.252674 0.369034
O O8 0.750000 0.015066 0.021493
O O9 0.660203 0.136216 0.815029
O O10 0.750000 0.197302 0.572792
#
# Coordination Sequence:
#
# PCOD9378303 Si02
#       4
#     8   8   8   8
#     4  11  21  37  56  86 114 147 189 230 285 335
#     4  11  21  38  57  82 115 146 188 232 280 336
#     4  10  20  37  59  84 115 150 188 236 284 332
#     4  10  18  33  58  83 110 146 189 232 276 329
#
# _framework density 21.345462999999999
#
# number of rings (size 3 to 8) (size 9 to 14) (size 15 to 20)
#    0.000    1.500    7.500    0.000    0.000    1.000 
#    4.500    2.500    0.000    0.000    0.000    0.000 
#    0.000    0.000    0.000    0.000    0.000    0.000 
#
# Total GULP energy -89137.654688 kJ/mol
# GULP energy per Si atom -5571.103418 kJ/mol
# Density = 2.129688 g / cm^3
# Si number density = 21.345463 Si / 1000 Ang^3
#
#
#
# Elastic Constant Matrix: (Units=GPa)
#
#
# Indices 1 2 3 4 5 6 
#
# 1 54.3713 31.1254 -5.7510 0.0000 0.0000 0.0000
# 2 31.1254 154.6367 13.8397 0.0000 0.0000 0.0000
# 3 -5.7510 13.8397 31.0478 0.0000 0.0000 0.0000
# 4 0.0000 0.0000 0.0000 32.6295 0.0000 0.0000
# 5 0.0000 0.0000 0.0000 0.0000 16.7576 0.0000
# 6 0.0000 0.0000 0.0000 0.0000 0.0000 41.6798
#
#
#
# Elastic Compliance Matrix: (Units=1/GPa)
#
#
# Indices 1 2 3 4 5 6 
#
# 1 0.021900 -0.004969 0.006272 0.000000 0.000000 0.000000
# 2 -0.004969 0.007863 -0.004425 0.000000 0.000000 0.000000
# 3 0.006272 -0.004425 0.035343 0.000000 0.000000 0.000000
# 4 0.000000 0.000000 0.000000 0.030647 0.000000 0.000000
# 5 0.000000 0.000000 0.000000 0.000000 0.059674 0.000000
# 6 0.000000 0.000000 0.000000 0.000000 0.000000 0.023992
#
#
# Mechanical properties :
#
#
# Convention : Reuss Voigt Hill
#
# Bulk Modulus (GPa) = 16.98956 35.38712 26.18834
# Shear Modulus (GPa) = 24.35625 31.60284 27.97955
#
# Velocity S-wave (km/s) = 3.38161 3.85195 3.62442
# Velocity P-wave (km/s) = 4.81909 6.03305 5.45991
#
# Compressibility (1/GPa) = 0.05885969
#
# Stress axis : x y z
#
# Youngs Moduli (GPa) = 45.66165 127.17657 28.29436
#
# Poissons Ratio (x) = 0.63199 -0.17745
# Poissons Ratio (y) = 0.22691 0.12522
# Poissons Ratio (z) = -0.28638 0.56282
#
# Static dielectric constant tensor:
#      x y z
#    x 1.925510 0.000000 0.000000 
#    y 0.000000 1.807380 0.000000 
#    z 0.000000 0.000000 1.871710 
# 
# From -- ./inp_files/5318.got.cif
#   From: 2010.05.17/outbox.cif.g08.bks.cpg/sg46_3_cif.got.tgz:5318.got - 2010.06.03 19:58:25.
