data_PCOD9378287
_publ_section_title
;
Structure prediction by ZEFSAII (Michael W. Deem and Ramdas Pophale) SiO2 
 PCOD9378287
Probable space group: I M A 2
;
_chemical_formula_sum "Si O2"
_cell_formula_units_Z 64
_cell_length_a 16.218970
_cell_length_b 9.305049
_cell_length_c 22.080901
_cell_angle_alpha 90.000000
_cell_angle_beta 90.000000
_cell_angle_gamma 90.000000
_cell_volume 3332.412275
_symmetry_space_group_name_H-M "I M A 2"
_symmetry_group_IT_number 46
_symmetry_cell_setting 'orthorhombic'
loop_
_space_group_symop_operation_xyz
x,y,z
-x,-y,z
1/2-x,y,z
1/2+x,-y,z
1/2+x,1/2+y,1/2+z
1/2-x,1/2-y,1/2+z
-x,1/2+y,1/2+z
x,1/2-y,1/2+z
loop_
_atom_site_type_symbol
_atom_site_label
_atom_site_fract_x
_atom_site_fract_y
_atom_site_fract_z
Si Si1 0.346294 0.217897 0.164360
Si Si2 0.907028 0.941590 0.577512
Si Si3 0.087641 0.433098 0.261316
Si Si4 0.083559 0.905191 0.350879
Si Si5 0.028280 0.347533 0.392749
Si Si6 0.158339 0.848743 0.680182
Si Si7 0.655363 0.880499 0.445471
Si Si8 0.591079 0.434924 0.712701
O O1 0.250000 0.256848 0.158247
O O2 0.396069 0.284444 0.107973
O O3 0.385170 0.294839 0.223468
O O4 0.355058 0.049842 0.176577
O O5 0.865870 0.938146 0.512057
O O6 0.860889 0.044737 0.625187
O O7 0.000000 0.000000 0.572817
O O8 0.075394 0.391055 0.330590
O O9 0.149919 0.557576 0.241472
O O10 0.000000 0.500000 0.240330
O O11 0.117557 0.908676 0.282547
O O12 0.050752 0.749714 0.372956
O O13 0.140657 0.990123 0.397754
O O14 0.000000 0.000000 0.349085
O O15 0.090098 0.246430 0.430264
O O16 0.000000 0.500000 0.420659
O O17 0.250000 0.789492 0.675440
O O18 0.094633 0.719206 0.681708
O O19 0.750000 0.831293 0.442071
O O20 0.500000 0.500000 0.713489
#
# Coordination Sequence:
#
# PCOD9378287 Si02
#       8
#     8   8   8   8   8   8   8   8
#     4  11  21  33  53  83 117 147 184 236 287 330
#     4  11  22  41  63  80 104 148 198 233 276 345
#     4  10  18  33  55  80 110 151 189 223 271 337
#     4   9  19  36  58  84 115 155 198 234 276 343
#     4  10  20  37  60  85 117 154 194 237 285 346
#     4  11  22  35  55  86 120 150 187 236 288 339
#     4  11  23  40  62  86 114 150 195 244 291 340
#     4  11  20  35  56  84 119 153 190 231 282 340
#
# _framework density 19.205306
#
# number of rings (size 3 to 8) (size 9 to 14) (size 15 to 20)
#    0.000    1.500    0.000   10.500    0.000    3.000 
#    0.000    3.750    0.000    0.000    0.000    0.000 
#    0.000    0.000    0.000    0.000    0.000    0.000 
#
# Total GULP energy -178604.590942 kJ/mol
# GULP energy per Si atom -5581.393467 kJ/mol
# Density = 1.916159 g / cm^3
# Si number density = 19.205306 Si / 1000 Ang^3
#
#
#
# Elastic Constant Matrix: (Units=GPa)
#
#
# Indices 1 2 3 4 5 6 
#
# 1 75.8830 17.3065 24.5994 0.0000 0.0000 0.0000
# 2 17.3065 120.7381 31.3800 0.0000 0.0000 0.0000
# 3 24.5994 31.3800 82.9877 0.0000 0.0000 0.0000
# 4 0.0000 0.0000 0.0000 10.7375 0.0000 0.0000
# 5 0.0000 0.0000 0.0000 0.0000 75.8650 0.0000
# 6 0.0000 0.0000 0.0000 0.0000 0.0000 30.7109
#
#
#
# Elastic Compliance Matrix: (Units=1/GPa)
#
#
# Indices 1 2 3 4 5 6 
#
# 1 0.014705 -0.001081 -0.003950 0.000000 0.000000 0.000000
# 2 -0.001081 0.009265 -0.003183 0.000000 0.000000 0.000000
# 3 -0.003950 -0.003183 0.014424 0.000000 0.000000 0.000000
# 4 0.000000 0.000000 0.000000 0.093132 0.000000 0.000000
# 5 0.000000 0.000000 0.000000 0.000000 0.013181 0.000000
# 6 0.000000 0.000000 0.000000 0.000000 0.000000 0.032562
#
#
# Mechanical properties :
#
#
# Convention : Reuss Voigt Hill
#
# Bulk Modulus (GPa) = 45.52463 47.35341 46.43902
# Shear Modulus (GPa) = 24.87327 37.21753 31.04540
#
# Velocity S-wave (km/s) = 3.60269 4.40691 4.02494
# Velocity P-wave (km/s) = 6.40792 7.11368 6.77000
#
# Compressibility (1/GPa) = 0.02196613
#
# Stress axis : x y z
#
# Youngs Moduli (GPa) = 68.00262 107.93825 69.32712
#
# Poissons Ratio (x) = 0.11670 0.27385
# Poissons Ratio (y) = 0.07352 0.22065
# Poissons Ratio (z) = 0.26862 0.34354
#
# Static dielectric constant tensor:
#      x y z
#    x 1.677960 0.000000 0.000000 
#    y 0.000000 1.694420 0.000000 
#    z 0.000000 0.000000 1.653930 
# 
# From -- ./inp_files/23708.got.cif
#   From: 2010.05.17/outbox.cif.g08.bks.cpg/sg46_12_cif.got.tgz:23708.got - 2010.06.03 19:58:25.
