data_PCOD9378629
_publ_section_title
;
Structure prediction by ZEFSAII (Michael W. Deem and Ramdas Pophale) SiO2 
 PCOD9378629
Probable space group: I M A 2
;
_chemical_formula_sum "Si O2"
_cell_formula_units_Z 56
_cell_length_a 9.073375
_cell_length_b 21.174350
_cell_length_c 14.960131
_cell_angle_alpha 90.000000
_cell_angle_beta 90.000000
_cell_angle_gamma 90.000000
_cell_volume 2874.182524
_symmetry_space_group_name_H-M "I M A 2"
_symmetry_group_IT_number 46
_symmetry_cell_setting 'orthorhombic'
loop_
_space_group_symop_operation_xyz
x,y,z
-x,-y,z
1/2-x,y,z
1/2+x,-y,z
1/2+x,1/2+y,1/2+z
1/2-x,1/2-y,1/2+z
-x,1/2+y,1/2+z
x,1/2-y,1/2+z
loop_
_atom_site_type_symbol
_atom_site_label
_atom_site_fract_x
_atom_site_fract_y
_atom_site_fract_z
Si Si1 0.584816 0.366656 0.364410
Si Si2 0.912509 0.558129 0.249065
Si Si3 0.074440 0.301591 0.006169
Si Si4 0.584464 0.218934 0.332346
Si Si5 0.926813 0.310086 0.623360
Si Si6 0.928482 0.570354 0.532778
Si Si7 0.086177 0.059441 0.539020
O O1 0.750000 0.391982 0.374938
O O2 0.514806 0.383325 0.269270
O O3 0.591421 0.291890 0.362308
O O4 0.482049 0.398217 0.439020
O O5 0.750000 0.565688 0.286682
O O6 0.898379 0.546726 0.144556
O O7 0.000000 0.500000 0.291065
O O8 0.250000 0.295393 0.022239
O O9 0.019944 0.370686 0.036665
O O10 0.994275 0.244662 0.059151
O O11 0.038014 0.304794 0.900829
O O12 0.750000 0.192205 0.348718
O O13 0.552699 0.209138 0.227492
O O14 0.750000 0.315223 0.606112
O O15 0.005180 0.377215 0.601791
O O16 0.750000 0.566995 0.537649
O O17 0.000000 0.500000 0.542202
O O18 0.250000 0.062739 0.499293
O O19 0.000000 0.000000 0.499753
#
# Coordination Sequence:
#
# PCOD9378629 Si02
#       7
#     8   8   8   8   8   8   8
#     4  11  21  36  57  86 120 156 201 251 306 376
#     4  10  19  32  50  76 113 151 191 237 291 356
#     4  11  22  38  62  92 124 159 204 259 315 374
#     4  10  23  40  62  89 121 161 206 256 313 377
#     4  11  23  42  65  93 127 167 214 264 320 386
#     4  12  25  42  64  91 124 169 214 268 328 386
#     4   9  20  36  55  83 117 157 201 248 304 365
#
# _framework density 19.483801
#
# number of rings (size 3 to 8) (size 9 to 14) (size 15 to 20)
#    0.000    1.429    1.429    4.286    0.000    3.429 
#    0.000    0.714    0.000    1.714    0.000    0.000 
#    0.000    0.000    0.000    0.000    0.000    0.000 
#
# Total GULP energy -155968.988577 kJ/mol
# GULP energy per Si atom -5570.321021 kJ/mol
# Density = 1.943945 g / cm^3
# Si number density = 19.483801 Si / 1000 Ang^3
#
#
#
# Elastic Constant Matrix: (Units=GPa)
#
#
# Indices 1 2 3 4 5 6 
#
# 1 119.9809 61.5483 40.4121 0.0000 0.0000 0.0000
# 2 61.5483 125.2983 33.3144 0.0000 0.0000 0.0000
# 3 40.4121 33.3144 75.0184 0.0000 0.0000 0.0000
# 4 0.0000 0.0000 0.0000 34.9219 0.0000 0.0000
# 5 0.0000 0.0000 0.0000 0.0000 13.7287 0.0000
# 6 0.0000 0.0000 0.0000 0.0000 0.0000 25.7910
#
#
#
# Elastic Compliance Matrix: (Units=1/GPa)
#
#
# Indices 1 2 3 4 5 6 
#
# 1 0.012345 -0.004871 -0.004487 0.000000 0.000000 0.000000
# 2 -0.004871 0.010971 -0.002248 0.000000 0.000000 0.000000
# 3 -0.004487 -0.002248 0.016746 0.000000 0.000000 0.000000
# 4 0.000000 0.000000 0.000000 0.028635 0.000000 0.000000
# 5 0.000000 0.000000 0.000000 0.000000 0.072840 0.000000
# 6 0.000000 0.000000 0.000000 0.000000 0.000000 0.038773
#
#
# Mechanical properties :
#
#
# Convention : Reuss Voigt Hill
#
# Bulk Modulus (GPa) = 59.34927 65.64970 62.49948
# Shear Modulus (GPa) = 23.90757 27.22318 25.56538
#
# Velocity S-wave (km/s) = 3.50673 3.74200 3.62627
# Velocity P-wave (km/s) = 6.85005 7.24139 7.04843
#
# Compressibility (1/GPa) = 0.01684941
#
# Stress axis : x y z
#
# Youngs Moduli (GPa) = 81.00686 91.14639 59.71727
#
# Poissons Ratio (x) = 0.44396 0.26795
# Poissons Ratio (y) = 0.39457 0.13426
# Poissons Ratio (z) = 0.36347 0.20492
#
# Static dielectric constant tensor:
#      x y z
#    x 1.736050 0.000000 0.000000 
#    y 0.000000 1.678500 0.000000 
#    z 0.000000 0.000000 1.706910 
# 
# From -- ./inp_files/14160.got.cif
#   From: 2010.05.17/outbox.cif.g08.bks.cpg/sg46_8_cif.got.tgz:14160.got - 2010.06.03 19:58:25.
