data_PCOD9378007
_publ_section_title
;
Structure prediction by ZEFSAII (Michael W. Deem and Ramdas Pophale) SiO2 
 PCOD9378007
Probable space group: I M A 2
;
_chemical_formula_sum "Si O2"
_cell_formula_units_Z 56
_cell_length_a 8.884383
_cell_length_b 18.653456
_cell_length_c 21.372340
_cell_angle_alpha 90.000000
_cell_angle_beta 90.000000
_cell_angle_gamma 90.000000
_cell_volume 3541.919236
_symmetry_space_group_name_H-M "I M A 2"
_symmetry_group_IT_number 46
_symmetry_cell_setting 'orthorhombic'
loop_
_space_group_symop_operation_xyz
x,y,z
-x,-y,z
1/2-x,y,z
1/2+x,-y,z
1/2+x,1/2+y,1/2+z
1/2-x,1/2-y,1/2+z
-x,1/2+y,1/2+z
x,1/2-y,1/2+z
loop_
_atom_site_type_symbol
_atom_site_label
_atom_site_fract_x
_atom_site_fract_y
_atom_site_fract_z
Si Si1 0.930288 0.838853 0.853930
Si Si2 0.069075 0.079077 0.982324
Si Si3 0.077235 0.793639 0.664549
Si Si4 0.432060 0.850793 0.105807
Si Si5 0.423086 0.706104 0.795881
Si Si6 0.070126 0.077525 0.230091
Si Si7 0.928960 0.577570 0.227730
O O1 0.750000 0.829092 0.849326
O O2 0.965031 0.876985 0.919141
O O3 0.975860 0.889804 0.795526
O O4 0.008615 0.762128 0.844924
O O5 0.250000 0.074775 0.989342
O O6 0.000000 0.000000 0.977255
O O7 0.996500 0.117570 0.042121
O O8 0.250000 0.814054 0.651925
O O9 0.027816 0.733309 0.615087
O O10 0.074790 0.749778 0.730100
O O11 0.980476 0.864140 0.676448
O O12 0.250000 0.856370 0.108738
O O13 0.502116 0.894197 0.164166
O O14 0.250000 0.688239 0.809813
O O15 0.518715 0.635226 0.782073
O O16 0.250000 0.074132 0.225865
O O17 0.000000 0.000000 0.242916
O O18 0.750000 0.571472 0.227689
O O19 0.000000 0.500000 0.218301
#
# Coordination Sequence:
#
# PCOD9378007 Si02
#       7
#     8   8   8   8   8   8   8
#     4   9  19  33  47  66  93 127 162 194 229 273
#     4  11  22  34  48  68  96 129 165 199 232 273
#     4   8  16  30  46  64  88 117 150 189 231 277
#     4  10  20  34  49  67  93 125 161 197 236 281
#     4   9  17  30  48  69  92 120 154 192 235 280
#     4  11  20  31  48  70  97 125 155 193 237 282
#     4  10  18  28  45  68  94 121 151 188 230 274
#
# _framework density 15.810637
#
# number of rings (size 3 to 8) (size 9 to 14) (size 15 to 20)
#    0.000    2.286    0.000    4.714    0.000    5.714 
#    0.000    0.000    0.000    0.000    0.000    1.000 
#    0.000    2.286    0.000    0.000    0.000    0.000 
#
# Total GULP energy -156145.269005 kJ/mol
# GULP energy per Si atom -5576.616750 kJ/mol
# Density = 1.577465 g / cm^3
# Si number density = 15.810637 Si / 1000 Ang^3
#
#
#
# Elastic Constant Matrix: (Units=GPa)
#
#
# Indices 1 2 3 4 5 6 
#
# 1 89.2343 76.4294 41.6324 0.0000 0.0000 0.0000
# 2 76.4294 149.6643 61.1565 0.0000 0.0000 0.0000
# 3 41.6324 61.1565 70.9323 0.0000 0.0000 0.0000
# 4 0.0000 0.0000 0.0000 24.7149 0.0000 0.0000
# 5 0.0000 0.0000 0.0000 0.0000 18.2983 0.0000
# 6 0.0000 0.0000 0.0000 0.0000 0.0000 28.3594
#
#
#
# Elastic Compliance Matrix: (Units=1/GPa)
#
#
# Indices 1 2 3 4 5 6 
#
# 1 0.020899 -0.008739 -0.004732 0.000000 0.000000 0.000000
# 2 -0.008739 0.013970 -0.006916 0.000000 0.000000 0.000000
# 3 -0.004732 -0.006916 0.022838 0.000000 0.000000 0.000000
# 4 0.000000 0.000000 0.000000 0.040461 0.000000 0.000000
# 5 0.000000 0.000000 0.000000 0.000000 0.054650 0.000000
# 6 0.000000 0.000000 0.000000 0.000000 0.000000 0.035262
#
#
# Mechanical properties :
#
#
# Convention : Reuss Voigt Hill
#
# Bulk Modulus (GPa) = 59.05206 74.25194 66.65200
# Shear Modulus (GPa) = 21.32216 22.98203 22.15210
#
# Velocity S-wave (km/s) = 3.67631 3.81672 3.74717
# Velocity P-wave (km/s) = 7.44654 8.15404 7.80831
#
# Compressibility (1/GPa) = 0.01693421
#
# Stress axis : x y z
#
# Youngs Moduli (GPa) = 47.84905 71.57994 43.78722
#
# Poissons Ratio (x) = 0.62555 0.20718
# Poissons Ratio (y) = 0.41816 0.30282
# Poissons Ratio (z) = 0.22640 0.49503
#
# Static dielectric constant tensor:
#      x y z
#    x 1.531580 0.000000 0.000000 
#    y 0.000000 1.524170 0.000000 
#    z 0.000000 0.000000 1.512890 
# 
# From -- ./inp_files/21109.got.cif
#   From: 2010.05.17/outbox.cif.g08.bks.cpg/sg46_11_cif.got.tgz:21109.got - 2010.06.03 19:58:25.
