data_PCOD9378057
_publ_section_title
;
Structure prediction by ZEFSAII (Michael W. Deem and Ramdas Pophale) SiO2 
 PCOD9378057
Probable space group: I M A 2
;
_chemical_formula_sum "Si O2"
_cell_formula_units_Z 52
_cell_length_a 9.849076
_cell_length_b 15.035112
_cell_length_c 20.938597
_cell_angle_alpha 90.000000
_cell_angle_beta 90.000000
_cell_angle_gamma 90.000000
_cell_volume 3100.628499
_symmetry_space_group_name_H-M "I M A 2"
_symmetry_group_IT_number 46
_symmetry_cell_setting 'orthorhombic'
loop_
_space_group_symop_operation_xyz
x,y,z
-x,-y,z
1/2-x,y,z
1/2+x,-y,z
1/2+x,1/2+y,1/2+z
1/2-x,1/2-y,1/2+z
-x,1/2+y,1/2+z
x,1/2-y,1/2+z
loop_
_atom_site_type_symbol
_atom_site_label
_atom_site_fract_x
_atom_site_fract_y
_atom_site_fract_z
Si Si1 0.895782 0.156740 0.163000
Si Si2 0.594670 0.725470 0.232660
Si Si3 0.590461 0.584870 0.334590
Si Si4 0.000000 0.500000 0.580443
Si Si5 0.096488 0.144902 0.980237
Si Si6 0.093748 0.786316 0.540304
Si Si7 0.909473 0.585468 0.115135
O O1 0.750000 0.159464 0.195263
O O2 0.916013 0.063627 0.127253
O O3 0.896963 0.228494 0.105462
O O4 0.009918 0.189361 0.211280
O O5 0.750000 0.751593 0.243259
O O6 0.545689 0.670928 0.294280
O O7 0.591337 0.654129 0.174519
O O8 0.500000 0.500000 0.318101
O O9 0.750000 0.569041 0.318998
O O10 0.581243 0.604017 0.409978
O O11 0.078596 0.432390 0.533388
O O12 0.250000 0.181309 0.986736
O O13 0.983322 0.219857 0.992216
O O14 0.250000 0.809520 0.522854
O O15 0.992767 0.866932 0.557806
O O16 0.750000 0.565583 0.100960
O O17 0.000000 0.500000 0.132580
#
# Coordination Sequence:
#
# PCOD9378057 Si02
#       7
#     8   8   8   4   8   8   8
#     4   9  18  30  47  70  96 127 163 203 246 292
#     4   9  19  33  47  67  98 134 169 201 241 290
#     4  10  20  33  49  72 100 134 169 200 241 293
#     4  10  18  30  50  76 102 130 162 204 252 302
#     4  10  19  31  48  71 101 131 161 199 247 300
#     4   9  18  31  46  67  96 126 159 199 246 297
#     4  10  18  29  47  70  96 127 163 203 245 288
#
# _framework density 16.770793000000001
#
# number of rings (size 3 to 8) (size 9 to 14) (size 15 to 20)
#    0.000    2.462    0.769    1.846    0.000    6.769 
#    0.000    0.000    0.000    0.000    2.000    0.000 
#    0.000    0.000    0.000    0.000    0.000    0.000 
#
# Total GULP energy -144764.360019 kJ/mol
# GULP energy per Si atom -5567.860001 kJ/mol
# Density = 1.673262 g / cm^3
# Si number density = 16.770793 Si / 1000 Ang^3
#
#
#
# Elastic Constant Matrix: (Units=GPa)
#
#
# Indices 1 2 3 4 5 6 
#
# 1 105.9304 29.3283 28.1400 0.0000 0.0000 0.0000
# 2 29.3283 34.9626 20.0687 0.0000 0.0000 0.0000
# 3 28.1400 20.0687 45.5155 0.0000 0.0000 0.0000
# 4 0.0000 0.0000 0.0000 21.2882 0.0000 0.0000
# 5 0.0000 0.0000 0.0000 0.0000 17.3266 0.0000
# 6 0.0000 0.0000 0.0000 0.0000 0.0000 17.8494
#
#
#
# Elastic Compliance Matrix: (Units=1/GPa)
#
#
# Indices 1 2 3 4 5 6 
#
# 1 0.012892 -0.008353 -0.004287 0.000000 0.000000 0.000000
# 2 -0.008353 0.043706 -0.014107 0.000000 0.000000 0.000000
# 3 -0.004287 -0.014107 0.030841 0.000000 0.000000 0.000000
# 4 0.000000 0.000000 0.000000 0.046974 0.000000 0.000000
# 5 0.000000 0.000000 0.000000 0.000000 0.057715 0.000000
# 6 0.000000 0.000000 0.000000 0.000000 0.000000 0.056024
#
#
# Mechanical properties :
#
#
# Convention : Reuss Voigt Hill
#
# Bulk Modulus (GPa) = 29.45950 37.94251 33.70100
# Shear Modulus (GPa) = 15.97639 18.55094 17.26367
#
# Velocity S-wave (km/s) = 3.08982 3.32949 3.21189
# Velocity P-wave (km/s) = 5.50758 6.11996 5.82183
#
# Compressibility (1/GPa) = 0.03394491
#
# Stress axis : x y z
#
# Youngs Moduli (GPa) = 77.56878 22.87992 32.42446
#
# Poissons Ratio (x) = 0.19113 0.13901
# Poissons Ratio (y) = 0.64796 0.45740
# Poissons Ratio (z) = 0.33255 0.32276
#
# Static dielectric constant tensor:
#      x y z
#    x 1.594530 0.000000 0.000000 
#    y 0.000000 1.571200 0.000000 
#    z 0.000000 0.000000 1.544570 
# 
# From -- ./inp_files/20980.got.cif
#   From: 2010.05.17/outbox.cif.g08.bks.cpg/sg46_11_cif.got.tgz:20980.got - 2010.06.03 19:58:25.
