data_PCOD9378793
_publ_section_title
;
Structure prediction by ZEFSAII (Michael W. Deem and Ramdas Pophale) SiO2 
 PCOD9378793
Probable space group: I M A 2
;
_chemical_formula_sum "Si O2"
_cell_formula_units_Z 64
_cell_length_a 9.026646
_cell_length_b 14.829603
_cell_length_c 28.185524
_cell_angle_alpha 90.000000
_cell_angle_beta 90.000000
_cell_angle_gamma 90.000000
_cell_volume 3772.958680
_symmetry_space_group_name_H-M "I M A 2"
_symmetry_group_IT_number 46
_symmetry_cell_setting 'orthorhombic'
loop_
_space_group_symop_operation_xyz
x,y,z
-x,-y,z
1/2-x,y,z
1/2+x,-y,z
1/2+x,1/2+y,1/2+z
1/2-x,1/2-y,1/2+z
-x,1/2+y,1/2+z
x,1/2-y,1/2+z
loop_
_atom_site_type_symbol
_atom_site_label
_atom_site_fract_x
_atom_site_fract_y
_atom_site_fract_z
Si Si1 0.427431 0.708150 0.844870
Si Si2 0.427485 0.092141 0.540494
Si Si3 0.574924 0.278085 0.575323
Si Si4 0.073883 0.096808 0.263463
Si Si5 0.422097 0.346299 0.936824
Si Si6 0.573866 0.596896 0.652016
Si Si7 0.577581 0.090140 0.874999
Si Si8 0.078990 0.827287 0.972001
O O1 0.250000 0.705511 0.842209
O O2 0.501095 0.669989 0.797710
O O3 0.481029 0.647275 0.889457
O O4 0.473684 0.812208 0.855487
O O5 0.250000 0.094018 0.547400
O O6 0.501477 0.181638 0.562745
O O7 0.455563 0.095744 0.483523
O O8 0.500000 0.000000 0.559042
O O9 0.750000 0.266125 0.583798
O O10 0.497074 0.327559 0.618732
O O11 0.559495 0.340465 0.527861
O O12 0.250000 0.091769 0.271389
O O13 0.048164 0.116556 0.207781
O O14 0.000000 0.000000 0.273607
O O15 0.250000 0.356054 0.924630
O O16 0.460350 0.246822 0.956440
O O17 0.500000 0.500000 0.641790
O O18 0.750000 0.591339 0.644220
O O19 0.750000 0.083867 0.863354
O O20 0.565151 0.096278 0.932492
O O21 0.500000 0.000000 0.857566
O O22 0.250000 0.791605 0.966044
#
# Coordination Sequence:
#
# PCOD9378793 Si02
#       8
#     8   8   8   8   8   8   8   8
#     4  10  20  34  52  74 103 136 171 213 258 307
#     4  10  20  33  50  74 105 141 179 216 254 301
#     4  10  19  33  54  77 104 138 173 212 257 305
#     4  10  21  37  57  79 102 129 163 207 258 311
#     4   9  17  29  46  69  97 131 171 210 248 293
#     4  10  21  37  56  79 105 131 164 208 258 313
#     4   9  18  31  47  70 101 137 172 207 246 289
#     4   8  16  30  45  66  97 131 168 207 247 289
#
# _framework density 16.962814000000002
#
# number of rings (size 3 to 8) (size 9 to 14) (size 15 to 20)
#    0.000    2.500    0.000    3.000    0.000    7.000 
#    0.000    2.500    0.000    0.750    0.000    1.750 
#    0.000    0.000    0.000    0.000    0.000    0.000 
#
# Total GULP energy -178256.346341 kJ/mol
# GULP energy per Si atom -5570.510823 kJ/mol
# Density = 1.692421 g / cm^3
# Si number density = 16.962814 Si / 1000 Ang^3
#
#
#
# Elastic Constant Matrix: (Units=GPa)
#
#
# Indices 1 2 3 4 5 6 
#
# 1 78.1880 69.0963 62.4374 0.0000 0.0000 0.0000
# 2 69.0963 104.1153 65.2506 0.0000 0.0000 0.0000
# 3 62.4374 65.2506 86.2149 0.0000 0.0000 0.0000
# 4 0.0000 0.0000 0.0000 20.8959 0.0000 0.0000
# 5 0.0000 0.0000 0.0000 0.0000 26.4325 0.0000
# 6 0.0000 0.0000 0.0000 0.0000 0.0000 28.0964
#
#
#
# Elastic Compliance Matrix: (Units=1/GPa)
#
#
# Indices 1 2 3 4 5 6 
#
# 1 0.041230 -0.016453 -0.017406 0.000000 0.000000 0.000000
# 2 -0.016453 0.024837 -0.006882 0.000000 0.000000 0.000000
# 3 -0.017406 -0.006882 0.029413 0.000000 0.000000 0.000000
# 4 0.000000 0.000000 0.000000 0.047856 0.000000 0.000000
# 5 0.000000 0.000000 0.000000 0.000000 0.037832 0.000000
# 6 0.000000 0.000000 0.000000 0.000000 0.000000 0.035592
#
#
# Mechanical properties :
#
#
# Convention : Reuss Voigt Hill
#
# Bulk Modulus (GPa) = 71.44542 73.56520 72.50531
# Shear Modulus (GPa) = 16.50658 19.86723 18.18691
#
# Velocity S-wave (km/s) = 3.12285 3.42603 3.27794
# Velocity P-wave (km/s) = 7.43056 7.68849 7.56062
#
# Compressibility (1/GPa) = 0.01399670
#
# Stress axis : x y z
#
# Youngs Moduli (GPa) = 24.25424 40.26230 33.99833
#
# Poissons Ratio (x) = 0.66246 0.59179
# Poissons Ratio (y) = 0.39907 0.23397
# Poissons Ratio (z) = 0.42218 0.27708
#
# Static dielectric constant tensor:
#      x y z
#    x 1.569680 0.000000 0.000000 
#    y 0.000000 1.569560 0.000000 
#    z 0.000000 0.000000 1.579010 
# 
# From -- ./inp_files/25307.got.cif
#   From: 2010.05.17/outbox.cif.g08.bks.cpg/sg46_13_cif.got.tgz:25307.got - 2010.06.03 19:58:25.
