data_PCOD9378211
_publ_section_title
;
Structure prediction by ZEFSAII (Michael W. Deem and Ramdas Pophale) SiO2 
 PCOD9378211
Probable space group: I M A 2
;
_chemical_formula_sum "Si O2"
_cell_formula_units_Z 52
_cell_length_a 30.409412
_cell_length_b 12.981893
_cell_length_c 5.321154
_cell_angle_alpha 90.000000
_cell_angle_beta 90.000000
_cell_angle_gamma 90.000000
_cell_volume 2100.641185
_symmetry_space_group_name_H-M "I M A 2"
_symmetry_group_IT_number 46
_symmetry_cell_setting 'orthorhombic'
loop_
_space_group_symop_operation_xyz
x,y,z
-x,-y,z
1/2-x,y,z
1/2+x,-y,z
1/2+x,1/2+y,1/2+z
1/2-x,1/2-y,1/2+z
-x,1/2+y,1/2+z
x,1/2-y,1/2+z
loop_
_atom_site_type_symbol
_atom_site_label
_atom_site_fract_x
_atom_site_fract_y
_atom_site_fract_z
Si Si1 0.885566 0.362687 0.679980
Si Si2 0.797077 0.818832 0.779724
Si Si3 0.985630 0.118388 0.347494
Si Si4 0.250000 0.818051 0.769336
Si Si5 0.980231 0.888214 0.847201
Si Si6 0.389221 0.318433 0.176812
Si Si7 0.151781 0.874091 0.679298
O O1 0.936894 0.365908 0.742673
O O2 0.865371 0.246629 0.658311
O O3 0.875400 0.414225 0.415248
O O4 0.860590 0.417415 0.908677
O O5 0.750000 0.873770 0.752627
O O6 0.797683 0.768447 0.058131
O O7 0.842734 0.874934 0.725955
O O8 0.987903 0.158719 0.633451
O O9 0.000000 0.000000 0.388759
O O10 0.019428 0.155450 0.130604
O O11 0.250000 0.733006 0.545449
O O12 0.203597 0.875289 0.734007
O O13 0.932363 0.884553 0.727488
O O14 0.000000 0.000000 0.893319
O O15 0.389976 0.231029 0.398531
#
# Coordination Sequence:
#
# PCOD9378211 Si02
#       7
#     8   8   8   4   8   8   8
#     4  10  18  32  45  70 100 130 170 208 255 307
#     4   8  14  25  44  69 103 135 155 194 255 318
#     4  10  21  37  54  68  97 136 184 220 255 305
#     4  12  16  30  48  70 110 142 164 198 258 336
#     4  10  21  38  53  71 102 146 188 217 267 321
#     4  10  19  33  50  78 111 136 171 222 265 305
#     4  10  19  30  48  75 107 135 161 207 267 311
#
# _framework density 24.754348
#
# number of rings (size 3 to 8) (size 9 to 14) (size 15 to 20)
#    0.000    2.154    3.077    1.846    0.000    0.000 
#   16.615    0.000    0.000    0.000    0.000    0.000 
#   73.846    0.000    0.000    0.000    0.000    0.308 
#
# Total GULP energy -145130.635836 kJ/mol
# GULP energy per Si atom -5581.947532 kJ/mol
# Density = 2.469801 g / cm^3
# Si number density = 24.754348 Si / 1000 Ang^3
#
#
#
# Elastic Constant Matrix: (Units=GPa)
#
#
# Indices 1 2 3 4 5 6 
#
# 1 153.4428 7.8359 -32.8936 0.0015 0.0010 -0.0003
# 2 7.8359 62.6825 -8.5777 -0.0001 -0.0001 0.0000
# 3 -32.8936 -8.5777 154.6989 0.0027 0.0017 -0.0007
# 4 0.0015 -0.0001 0.0027 15.7392 0.0003 -0.0002
# 5 0.0010 -0.0001 0.0017 0.0003 41.7585 -0.0003
# 6 -0.0003 0.0000 -0.0007 -0.0002 -0.0003 11.3925
#
#
#
# Elastic Compliance Matrix: (Units=1/GPa)
#
#
# Indices 1 2 3 4 5 6 
#
# 1 0.006856 -0.000663 0.001421 -0.000001 0.000000 0.000000
# 2 -0.000663 0.016139 0.000754 0.000000 0.000000 0.000000
# 3 0.001421 0.000754 0.006808 -0.000001 0.000000 0.000000
# 4 -0.000001 0.000000 -0.000001 0.063536 0.000000 0.000001
# 5 0.000000 0.000000 0.000000 0.000000 0.023947 0.000001
# 6 0.000000 0.000000 0.000000 0.000001 0.000001 0.087777
#
#
# Mechanical properties :
#
#
# Convention : Reuss Voigt Hill
#
# Bulk Modulus (GPa) = 30.46188 33.72814 32.09501
# Shear Modulus (GPa) = 23.47632 40.74201 32.10917
#
# Velocity S-wave (km/s) = 3.08290 4.06131 3.60545
# Velocity P-wave (km/s) = 5.00048 5.97052 5.50690
#
# Compressibility (1/GPa) = 0.03282792
#
# Stress axis : x y z
#
# Youngs Moduli (GPa) = 145.86761 61.96004 146.88351
#
# Poissons Ratio (x) = 0.04105 -0.20871
# Poissons Ratio (y) = 0.09665 -0.11075
# Poissons Ratio (z) = -0.20727 -0.04672
#
# Static dielectric constant tensor:
#      x y z
#    x 1.962650 0.000000 0.000000 
#    y 0.000000 2.439190 0.000000 
#    z 0.000000 0.000000 2.025150 
# 
# From -- ./inp_files/2565.got.cif
#   From: 2010.05.17/outbox.cif.g08.bks.cpg/sg46_2_cif.got.tgz:2565.got - 2010.06.03 19:58:25.
