data_PCOD9378563
_publ_section_title
;
Structure prediction by ZEFSAII (Michael W. Deem and Ramdas Pophale) SiO2 
 PCOD9378563
Probable space group: I M A 2
;
_chemical_formula_sum "Si O2"
_cell_formula_units_Z 64
_cell_length_a 14.364098
_cell_length_b 13.647673
_cell_length_c 19.181205
_cell_angle_alpha 90.000000
_cell_angle_beta 90.000000
_cell_angle_gamma 90.000000
_cell_volume 3760.216533
_symmetry_space_group_name_H-M "I M A 2"
_symmetry_group_IT_number 46
_symmetry_cell_setting 'orthorhombic'
loop_
_space_group_symop_operation_xyz
x,y,z
-x,-y,z
1/2-x,y,z
1/2+x,-y,z
1/2+x,1/2+y,1/2+z
1/2-x,1/2-y,1/2+z
-x,1/2+y,1/2+z
x,1/2-y,1/2+z
loop_
_atom_site_type_symbol
_atom_site_label
_atom_site_fract_x
_atom_site_fract_y
_atom_site_fract_z
Si Si1 0.469303 0.234048 0.657080
Si Si2 0.355397 0.897375 0.684255
Si Si3 0.028826 0.348755 0.519253
Si Si4 0.643873 0.681371 0.944939
Si Si5 0.138717 0.536373 0.467738
Si Si6 0.638863 0.744696 0.795311
Si Si7 0.138237 0.469702 0.313312
Si Si8 0.400681 0.048806 0.569444
O O1 0.570331 0.188569 0.674004
O O2 0.474492 0.317172 0.599090
O O3 0.417649 0.273768 0.725172
O O4 0.413353 0.142936 0.620785
O O5 0.250000 0.864440 0.700321
O O6 0.392093 0.967342 0.746828
O O7 0.351746 0.965604 0.615454
O O8 0.071831 0.258515 0.476693
O O9 0.097251 0.440249 0.505642
O O10 0.925251 0.375701 0.494527
O O11 0.750000 0.721312 0.949029
O O12 0.623298 0.675261 0.862393
O O13 0.639582 0.588093 0.996445
O O14 0.250000 0.545871 0.476532
O O15 0.116353 0.520821 0.386052
O O16 0.750000 0.744403 0.781033
O O17 0.609158 0.856400 0.814951
O O18 0.250000 0.466227 0.307987
O O19 0.500000 0.000000 0.554053
#
# Coordination Sequence:
#
# PCOD9378563 Si02
#       8
#     8   8   8   8   8   8   8   8
#     4  10  21  32  48  75 104 132 169 208 257 300
#     4  10  19  31  50  76 106 137 166 201 250 310
#     4  10  21  33  50  77 103 136 174 210 258 308
#     4  10  19  32  52  77 105 137 173 211 257 305
#     4  10  20  35  54  75 104 136 170 212 257 310
#     4  10  19  31  50  77 104 130 164 209 255 300
#     4   9  17  29  48  78 103 129 163 193 252 314
#     4   9  18  32  49  74 104 136 173 207 253 302
#
# _framework density 17.020296999999999
#
# number of rings (size 3 to 8) (size 9 to 14) (size 15 to 20)
#    0.000    2.250    2.500    0.750    1.750    3.000 
#    0.000    0.000    2.750    0.000    0.000    0.000 
#    0.000    0.000    0.000    0.000    0.000    0.000 
#
# Total GULP energy -178310.851843 kJ/mol
# GULP energy per Si atom -5572.214120 kJ/mol
# Density = 1.698156 g / cm^3
# Si number density = 17.020297 Si / 1000 Ang^3
#
#
#
# Elastic Constant Matrix: (Units=GPa)
#
#
# Indices 1 2 3 4 5 6 
#
# 1 98.0875 21.0857 53.2098 0.0000 0.0000 0.0000
# 2 21.0857 32.3497 42.1628 0.0000 0.0000 0.0000
# 3 53.2098 42.1628 151.7549 0.0000 0.0000 0.0000
# 4 0.0000 0.0000 0.0000 21.0157 0.0000 0.0000
# 5 0.0000 0.0000 0.0000 0.0000 24.3828 0.0000
# 6 0.0000 0.0000 0.0000 0.0000 0.0000 15.3890
#
#
#
# Elastic Compliance Matrix: (Units=1/GPa)
#
#
# Indices 1 2 3 4 5 6 
#
# 1 0.012902 -0.003940 -0.003429 0.000000 0.000000 0.000000
# 2 -0.003940 0.049664 -0.012417 0.000000 0.000000 0.000000
# 3 -0.003429 -0.012417 0.011242 0.000000 0.000000 0.000000
# 4 0.000000 0.000000 0.000000 0.047584 0.000000 0.000000
# 5 0.000000 0.000000 0.000000 0.000000 0.041013 0.000000
# 6 0.000000 0.000000 0.000000 0.000000 0.000000 0.064982
#
#
# Mechanical properties :
#
#
# Convention : Reuss Voigt Hill
#
# Bulk Modulus (GPa) = 29.20967 57.23430 43.22198
# Shear Modulus (GPa) = 17.96174 23.20642 20.58408
#
# Velocity S-wave (km/s) = 3.25208 3.69651 3.48139
# Velocity P-wave (km/s) = 5.59467 7.20548 6.45055
#
# Compressibility (1/GPa) = 0.03423524
#
# Stress axis : x y z
#
# Youngs Moduli (GPa) = 77.50583 20.13543 88.95449
#
# Poissons Ratio (x) = 0.07934 0.30504
# Poissons Ratio (y) = 0.30541 1.10452
# Poissons Ratio (z) = 0.26578 0.25001
#
# Static dielectric constant tensor:
#      x y z
#    x 1.602850 0.000000 0.000000 
#    y 0.000000 1.563420 0.000000 
#    z 0.000000 0.000000 1.596320 
# 
# From -- ./inp_files/19722.got.cif
#   From: 2010.05.17/outbox.cif.g08.bks.cpg/sg46_10_cif.got.tgz:19722.got - 2010.06.03 19:58:25.
