data_PCOD9378724
_publ_section_title
;
Structure prediction by ZEFSAII (Michael W. Deem and Ramdas Pophale) SiO2 
 PCOD9378724
Probable space group: I M A 2
;
_chemical_formula_sum "Si O2"
_cell_formula_units_Z 48
_cell_length_a 8.810127
_cell_length_b 15.968473
_cell_length_c 18.884033
_cell_angle_alpha 90.000000
_cell_angle_beta 90.000000
_cell_angle_gamma 90.000000
_cell_volume 2656.686494
_symmetry_space_group_name_H-M "I M A 2"
_symmetry_group_IT_number 46
_symmetry_cell_setting 'orthorhombic'
loop_
_space_group_symop_operation_xyz
x,y,z
-x,-y,z
1/2-x,y,z
1/2+x,-y,z
1/2+x,1/2+y,1/2+z
1/2-x,1/2-y,1/2+z
-x,1/2+y,1/2+z
x,1/2-y,1/2+z
loop_
_atom_site_type_symbol
_atom_site_label
_atom_site_fract_x
_atom_site_fract_y
_atom_site_fract_z
Si Si1 0.429877 0.751677 0.314590
Si Si2 0.566923 0.586447 0.549083
Si Si3 0.923771 0.654630 0.695028
Si Si4 0.923498 0.845505 0.694571
Si Si5 0.430684 0.587573 0.056862
Si Si6 0.067641 0.242517 0.470125
O O1 0.250000 0.746614 0.321909
O O2 0.476530 0.831005 0.264818
O O3 0.494382 0.672529 0.269249
O O4 0.511673 0.757808 0.389357
O O5 0.500000 0.500000 0.520977
O O6 0.750000 0.582831 0.549782
O O7 0.516712 0.599207 0.630957
O O8 0.522486 0.668676 0.505181
O O9 0.750000 0.631572 0.713494
O O10 0.916441 0.749949 0.664402
O O11 0.750000 0.874550 0.703249
O O12 0.013977 0.898705 0.637778
O O13 0.500000 0.500000 0.031127
O O14 0.250000 0.585609 0.053837
O O15 0.494051 0.665037 0.011624
O O16 0.250000 0.235460 0.473608
#
# Coordination Sequence:
#
# PCOD9378724 Si02
#       6
#     8   8   8   8   8   8
#     4  10  19  32  56  87 113 147 192 238 289 342
#     4  10  21  36  58  85 114 148 189 233 281 335
#     4   8  16  34  56  79 108 146 187 227 280 338
#     4   9  17  35  58  81 110 146 189 230 279 338
#     4  12  24  38  60  89 117 150 191 239 289 347
#     4  11  21  39  60  81 117 158 191 235 289 345
#
# _framework density 18.067620000000002
#
# number of rings (size 3 to 8) (size 9 to 14) (size 15 to 20)
#    1.000    1.000    1.667    3.500    0.000    2.000 
#    0.000    1.667    0.000    4.000    0.000    0.000 
#    0.000    0.000    0.000    0.000    0.000    0.000 
#
# Total GULP energy -133679.262980 kJ/mol
# GULP energy per Si atom -5569.969291 kJ/mol
# Density = 1.802650 g / cm^3
# Si number density = 18.067620 Si / 1000 Ang^3
#
#
#
# Elastic Constant Matrix: (Units=GPa)
#
#
# Indices 1 2 3 4 5 6 
#
# 1 117.4656 46.2873 45.2535 0.0000 0.0000 0.0000
# 2 46.2873 103.5853 42.5922 0.0000 0.0000 0.0000
# 3 45.2535 42.5922 98.4691 0.0000 0.0000 0.0000
# 4 0.0000 0.0000 0.0000 7.5921 0.0000 0.0000
# 5 0.0000 0.0000 0.0000 0.0000 27.0628 0.0000
# 6 0.0000 0.0000 0.0000 0.0000 0.0000 24.6892
#
#
#
# Elastic Compliance Matrix: (Units=1/GPa)
#
#
# Indices 1 2 3 4 5 6 
#
# 1 0.011326 -0.003553 -0.003669 0.000000 0.000000 0.000000
# 2 -0.003553 0.012857 -0.003928 0.000000 0.000000 0.000000
# 3 -0.003669 -0.003928 0.013541 0.000000 0.000000 0.000000
# 4 0.000000 0.000000 0.000000 0.131717 0.000000 0.000000
# 5 0.000000 0.000000 0.000000 0.000000 0.036951 0.000000
# 6 0.000000 0.000000 0.000000 0.000000 0.000000 0.040503
#
#
# Mechanical properties :
#
#
# Convention : Reuss Voigt Hill
#
# Bulk Modulus (GPa) = 64.83245 65.30956 65.07100
# Shear Modulus (GPa) = 18.22585 24.22796 21.22690
#
# Velocity S-wave (km/s) = 3.17954 3.66588 3.43134
# Velocity P-wave (km/s) = 7.03139 7.35826 7.19668
#
# Compressibility (1/GPa) = 0.01542438
#
# Stress axis : x y z
#
# Youngs Moduli (GPa) = 88.28925 77.78043 73.85197
#
# Poissons Ratio (x) = 0.27634 0.27093
# Poissons Ratio (y) = 0.31367 0.29011
# Poissons Ratio (z) = 0.32389 0.30555
#
# Static dielectric constant tensor:
#      x y z
#    x 1.604390 0.000000 0.000000 
#    y 0.000000 1.630630 0.000000 
#    z 0.000000 0.000000 1.621690 
# 
# From -- ./inp_files/18178.got.cif
#   From: 2010.05.17/outbox.cif.g08.bks.cpg/sg46_10_cif.got.tgz:18178.got - 2010.06.03 19:58:25.
