data_PCOD9378341
_publ_section_title
;
Structure prediction by ZEFSAII (Michael W. Deem and Ramdas Pophale) SiO2 
 PCOD9378341
Probable space group: I M A 2
;
_chemical_formula_sum "Si O2"
_cell_formula_units_Z 52
_cell_length_a 14.662132
_cell_length_b 9.466367
_cell_length_c 20.855235
_cell_angle_alpha 90.000000
_cell_angle_beta 90.000000
_cell_angle_gamma 90.000000
_cell_volume 2894.646607
_symmetry_space_group_name_H-M "I M A 2"
_symmetry_group_IT_number 46
_symmetry_cell_setting 'orthorhombic'
loop_
_space_group_symop_operation_xyz
x,y,z
-x,-y,z
1/2-x,y,z
1/2+x,-y,z
1/2+x,1/2+y,1/2+z
1/2-x,1/2-y,1/2+z
-x,1/2+y,1/2+z
x,1/2-y,1/2+z
loop_
_atom_site_type_symbol
_atom_site_label
_atom_site_fract_x
_atom_site_fract_y
_atom_site_fract_z
Si Si1 0.857700 0.623215 0.186710
Si Si2 0.590993 0.081439 0.800256
Si Si3 0.250000 0.997224 0.895789
Si Si4 0.489799 0.666848 0.734132
Si Si5 0.750000 0.050583 0.037965
Si Si6 0.750000 0.748582 0.987314
Si Si7 0.067990 0.123494 0.542319
Si Si8 0.559505 0.140814 0.093979
O O1 0.750000 0.651458 0.184487
O O2 0.877425 0.490922 0.233305
O O3 0.894578 0.594612 0.114870
O O4 0.914268 0.754098 0.217813
O O5 0.664599 0.046372 0.853405
O O6 0.563284 0.243105 0.787480
O O7 0.500000 0.000000 0.819431
O O8 0.250000 0.915191 0.962742
O O9 0.250000 0.161354 0.920638
O O10 0.500000 0.500000 0.747254
O O11 0.435616 0.688482 0.667541
O O12 0.750000 0.878495 0.039232
O O13 0.659175 0.110080 0.068590
O O14 0.657070 0.661426 0.999945
O O15 0.999949 0.255001 0.550858
O O16 0.000000 0.000000 0.520243
O O17 0.500000 0.000000 0.095936
#
# Coordination Sequence:
#
# PCOD9378341 Si02
#       8
#     8   8   4   8   4   4   8   8
#     4  10  18  34  59  86 122 163 200 241 298 367
#     4  10  20  38  61  89 114 153 207 247 291 356
#     4  10  22  38  62  88 104 158 220 252 272 345
#     4   9  20  34  54  90 126 153 187 243 319 366
#     4  10  22  36  58  86 114 162 213 250 283 354
#     4  10  22  38  58  86 118 164 211 246 301 353
#     4  11  21  35  58  90 126 156 192 256 314 367
#     4  10  18  35  57  84 123 160 203 242 299 372
#
# _framework density 17.964196999999999
#
# number of rings (size 3 to 8) (size 9 to 14) (size 15 to 20)
#    0.462    1.538    3.077    2.308    0.000    3.077 
#    4.154    0.000    0.000   12.000    0.000    0.000 
#    0.000    0.000    0.000    0.000    0.000    0.000 
#
# Total GULP energy -144873.693447 kJ/mol
# GULP energy per Si atom -5572.065133 kJ/mol
# Density = 1.792331 g / cm^3
# Si number density = 17.964197 Si / 1000 Ang^3
#
#
#
# Elastic Constant Matrix: (Units=GPa)
#
#
# Indices 1 2 3 4 5 6 
#
# 1 174.6352 48.3278 63.0880 0.0000 0.0000 0.0000
# 2 48.3278 102.2518 31.6173 0.0000 0.0000 0.0000
# 3 63.0880 31.6173 60.2763 0.0000 0.0000 0.0000
# 4 0.0000 0.0000 0.0000 16.9945 0.0000 0.0000
# 5 0.0000 0.0000 0.0000 0.0000 -428.8351 0.0000
# 6 0.0000 0.0000 0.0000 0.0000 0.0000 32.7495
#
#
#
# Elastic Compliance Matrix: (Units=1/GPa)
#
#
# Indices 1 2 3 4 5 6 
#
# 1 0.009443 -0.001679 -0.009003 0.000000 0.000000 0.000000
# 2 -0.001679 0.011972 -0.004522 0.000000 0.000000 0.000000
# 3 -0.009003 -0.004522 0.028385 0.000000 0.000000 0.000000
# 4 0.000000 0.000000 0.000000 0.058843 0.000000 0.000000
# 5 0.000000 0.000000 0.000000 0.000000 -0.002332 0.000000
# 6 0.000000 0.000000 0.000000 0.000000 0.000000 0.030535
#
#
# Mechanical properties :
#
#
# Convention : Reuss Voigt Hill
#
# Bulk Modulus (GPa) = 51.56850 69.24772 60.40811
# Shear Modulus (GPa) = 28.78229 -62.87620 -17.04696
#
# Velocity S-wave (km/s) = 4.00710 -5.92257 -3.08383
# Velocity P-wave (km/s) = 7.08362 2.85268 4.58475
#
# Compressibility (1/GPa) = 0.01939168
#
# Stress axis : x y z
#
# Youngs Moduli (GPa) = 105.89472 83.52994 35.22990
#
# Poissons Ratio (x) = 0.14029 0.31717
# Poissons Ratio (y) = 0.17785 0.15930
# Poissons Ratio (z) = 0.95336 0.37771
#
# Static dielectric constant tensor:
#      x y z
#    x 1.777390 0.000000 0.000000 
#    y 0.000000 1.620940 0.000000 
#    z 0.000000 0.000000 1.637870 
# 
# From -- ./inp_files/21992.got.cif
#   From: 2010.05.17/outbox.cif.g08.bks.cpg/sg46_11_cif.got.tgz:21992.got - 2010.06.03 19:58:25.
