data_PCOD9378575
_publ_section_title
;
Structure prediction by ZEFSAII (Michael W. Deem and Ramdas Pophale) SiO2 
 PCOD9378575
Probable space group: I M A 2
;
_chemical_formula_sum "Si O2"
_cell_formula_units_Z 56
_cell_length_a 8.170480
_cell_length_b 16.307272
_cell_length_c 20.676949
_cell_angle_alpha 90.000000
_cell_angle_beta 90.000000
_cell_angle_gamma 90.000000
_cell_volume 2754.960288
_symmetry_space_group_name_H-M "I M A 2"
_symmetry_group_IT_number 46
_symmetry_cell_setting 'orthorhombic'
loop_
_space_group_symop_operation_xyz
x,y,z
-x,-y,z
1/2-x,y,z
1/2+x,-y,z
1/2+x,1/2+y,1/2+z
1/2-x,1/2-y,1/2+z
-x,1/2+y,1/2+z
x,1/2-y,1/2+z
loop_
_atom_site_type_symbol
_atom_site_label
_atom_site_fract_x
_atom_site_fract_y
_atom_site_fract_z
Si Si1 0.933852 0.877863 0.739060
Si Si2 0.550551 0.302490 0.776765
Si Si3 0.451757 0.756656 0.061509
Si Si4 0.562221 0.240846 0.416534
Si Si5 0.932402 0.085342 0.612185
Si Si6 0.436333 0.414211 0.387091
Si Si7 0.552735 0.093805 0.153434
O O1 0.750000 0.885651 0.712134
O O2 0.934003 0.917463 0.809484
O O3 0.980917 0.782990 0.749862
O O4 0.059673 0.917238 0.689695
O O5 0.750000 0.297238 0.777345
O O6 0.494804 0.305109 0.852351
O O7 0.503343 0.372374 0.725031
O O8 0.250000 0.761606 0.061067
O O9 0.507789 0.673972 0.097426
O O10 0.504370 0.839189 0.099507
O O11 0.510590 0.740162 0.988309
O O12 0.750000 0.213630 0.422308
O O13 0.551388 0.337629 0.401437
O O14 0.750000 0.090690 0.587344
O O15 0.000000 0.000000 0.586559
O O16 0.500000 0.500000 0.413974
O O17 0.250000 0.397399 0.408568
O O18 0.750000 0.095415 0.152210
O O19 0.500000 0.000000 0.142528
#
# Coordination Sequence:
#
# PCOD9378575 Si02
#       7
#     8   8   8   8   8   8   8
#     4  10  19  31  51  79 108 137 173 216 268 321
#     4   9  17  33  56  79 106 140 181 225 275 327
#     4   9  19  37  57  78 111 145 181 227 280 334
#     4   9  18  34  57  77  98 141 185 223 275 335
#     4  11  21  35  54  78 109 142 177 222 272 328
#     4  10  20  32  47  73 107 139 172 218 266 322
#     4  10  20  36  56  82 112 148 187 231 279 329
#
# _framework density 20.326972000000001
#
# number of rings (size 3 to 8) (size 9 to 14) (size 15 to 20)
#    0.000    2.286    1.429    1.714    0.000    4.000 
#    0.000    4.286    0.000    0.000    0.000    0.000 
#    0.000    0.000    0.000    0.000    0.000    0.000 
#
# Total GULP energy -155891.513064 kJ/mol
# GULP energy per Si atom -5567.554038 kJ/mol
# Density = 2.028071 g / cm^3
# Si number density = 20.326972 Si / 1000 Ang^3
#
#
#
# Elastic Constant Matrix: (Units=GPa)
#
#
# Indices 1 2 3 4 5 6 
#
# 1 21.7856 12.0265 5.8735 0.0000 0.0000 0.0000
# 2 12.0265 117.6034 37.5242 0.0000 0.0000 0.0000
# 3 5.8735 37.5242 108.3019 0.0000 0.0000 0.0000
# 4 0.0000 0.0000 0.0000 6.4260 0.0000 0.0000
# 5 0.0000 0.0000 0.0000 0.0000 2.9507 0.0000
# 6 0.0000 0.0000 0.0000 0.0000 0.0000 25.3397
#
#
#
# Elastic Compliance Matrix: (Units=1/GPa)
#
#
# Indices 1 2 3 4 5 6 
#
# 1 0.048750 -0.004657 -0.001030 0.000000 0.000000 0.000000
# 2 -0.004657 0.010005 -0.003214 0.000000 0.000000 0.000000
# 3 -0.001030 -0.003214 0.010403 0.000000 0.000000 0.000000
# 4 0.000000 0.000000 0.000000 0.155618 0.000000 0.000000
# 5 0.000000 0.000000 0.000000 0.000000 0.338908 0.000000
# 6 0.000000 0.000000 0.000000 0.000000 0.000000 0.039464
#
#
# Mechanical properties :
#
#
# Convention : Reuss Voigt Hill
#
# Bulk Modulus (GPa) = 19.47186 39.83770 29.65478
# Shear Modulus (GPa) = 7.83615 19.76105 13.79860
#
# Velocity S-wave (km/s) = 1.96556 3.12133 2.60827
# Velocity P-wave (km/s) = 3.84075 5.71238 4.86737
#
# Compressibility (1/GPa) = 0.05135617
#
# Stress axis : x y z
#
# Youngs Moduli (GPa) = 20.51268 99.95180 96.12717
#
# Poissons Ratio (x) = 0.46543 0.09906
# Poissons Ratio (y) = 0.09552 0.30894
# Poissons Ratio (z) = 0.02114 0.32124
#
# Static dielectric constant tensor:
#      x y z
#    x 1.765030 0.000000 0.000000 
#    y 0.000000 1.732050 0.000000 
#    z 0.000000 0.000000 1.781660 
# 
# From -- ./inp_files/21063.got.cif
#   From: 2010.05.17/outbox.cif.g08.bks.cpg/sg46_11_cif.got.tgz:21063.got - 2010.06.03 19:58:25.
