data_PCOD9378770
_publ_section_title
;
Structure prediction by ZEFSAII (Michael W. Deem and Ramdas Pophale) SiO2 
 PCOD9378770
Probable space group: I M A 2
;
_chemical_formula_sum "Si O2"
_cell_formula_units_Z 64
_cell_length_a 8.519064
_cell_length_b 19.107131
_cell_length_c 21.916278
_cell_angle_alpha 90.000000
_cell_angle_beta 90.000000
_cell_angle_gamma 90.000000
_cell_volume 3567.419343
_symmetry_space_group_name_H-M "I M A 2"
_symmetry_group_IT_number 46
_symmetry_cell_setting 'orthorhombic'
loop_
_space_group_symop_operation_xyz
x,y,z
-x,-y,z
1/2-x,y,z
1/2+x,-y,z
1/2+x,1/2+y,1/2+z
1/2-x,1/2-y,1/2+z
-x,1/2+y,1/2+z
x,1/2-y,1/2+z
loop_
_atom_site_type_symbol
_atom_site_label
_atom_site_fract_x
_atom_site_fract_y
_atom_site_fract_z
Si Si1 0.563850 0.923335 0.023720
Si Si2 0.431282 0.818575 0.924083
Si Si3 0.062542 0.575777 0.781761
Si Si4 0.564369 0.573395 0.333965
Si Si5 0.062006 0.635092 0.649974
Si Si6 0.061700 0.220376 0.697885
Si Si7 0.936848 0.781543 0.330734
Si Si8 0.562317 0.072164 0.697636
O O1 0.750000 0.927996 0.025335
O O2 0.498119 0.903668 0.090125
O O3 0.500000 0.000000 0.005169
O O4 0.515500 0.860260 0.978461
O O5 0.250000 0.811029 0.939600
O O6 0.460668 0.869388 0.866765
O O7 0.497668 0.747704 0.894543
O O8 0.250000 0.578499 0.787152
O O9 0.020888 0.591803 0.711014
O O10 0.000000 0.500000 0.799253
O O11 0.988521 0.639111 0.819665
O O12 0.500000 0.500000 0.357728
O O13 0.750000 0.582986 0.345323
O O14 0.529581 0.573808 0.262272
O O15 0.250000 0.642205 0.647392
O O16 0.986744 0.711781 0.658865
O O17 0.250000 0.211775 0.697712
O O18 0.012359 0.239771 0.768278
O O19 0.981550 0.149303 0.673340
O O20 0.750000 0.774859 0.332177
O O21 0.750000 0.066850 0.706174
O O22 0.500000 0.000000 0.666928
#
# Coordination Sequence:
#
# PCOD9378770 Si02
#       8
#     8   8   8   8   8   8   8   8
#     4  12  25  41  58  79 109 146 190 232 274 320
#     4  12  23  36  53  74 104 141 181 223 269 319
#     4  10  20  34  55  82 112 143 178 222 275 329
#     4  11  20  31  45  66  96 134 175 214 257 308
#     4  10  21  37  57  81 109 143 186 229 276 326
#     4  10  19  33  53  77 107 141 180 225 276 328
#     4  10  20  34  53  77 107 140 178 221 270 327
#     4  11  20  30  46  70 102 138 176 218 265 319
#
# _framework density 17.94014
#
# number of rings (size 3 to 8) (size 9 to 14) (size 15 to 20)
#    0.000    1.250    1.250    7.500    0.000    3.500 
#    0.000    0.000    0.000    0.000    0.000    0.875 
#    0.000    0.000    0.000    0.000    0.000    0.125 
#
# Total GULP energy -178601.576068 kJ/mol
# GULP energy per Si atom -5581.299252 kJ/mol
# Density = 1.789931 g / cm^3
# Si number density = 17.940140 Si / 1000 Ang^3
#
#
#
# Elastic Constant Matrix: (Units=GPa)
#
#
# Indices 1 2 3 4 5 6 
#
# 1 77.6443 31.7716 11.3656 0.0000 0.0000 0.0000
# 2 31.7716 120.8498 22.4833 0.0000 0.0000 0.0000
# 3 11.3656 22.4833 49.9868 0.0000 0.0000 0.0000
# 4 0.0000 0.0000 0.0000 19.3501 0.0000 0.0000
# 5 0.0000 0.0000 0.0000 0.0000 23.7960 0.0000
# 6 0.0000 0.0000 0.0000 0.0000 0.0000 32.3164
#
#
#
# Elastic Compliance Matrix: (Units=1/GPa)
#
#
# Indices 1 2 3 4 5 6 
#
# 1 0.014568 -0.003507 -0.001735 0.000000 0.000000 0.000000
# 2 -0.003507 0.009875 -0.003644 0.000000 0.000000 0.000000
# 3 -0.001735 -0.003644 0.022039 0.000000 0.000000 0.000000
# 4 0.000000 0.000000 0.000000 0.051679 0.000000 0.000000
# 5 0.000000 0.000000 0.000000 0.000000 0.042024 0.000000
# 6 0.000000 0.000000 0.000000 0.000000 0.000000 0.030944
#
#
# Mechanical properties :
#
#
# Convention : Reuss Voigt Hill
#
# Bulk Modulus (GPa) = 34.83177 42.19133 38.51155
# Shear Modulus (GPa) = 25.19254 27.28319 26.23787
#
# Velocity S-wave (km/s) = 3.75141 3.90396 3.82844
# Velocity P-wave (km/s) = 6.18237 6.62496 6.40749
#
# Compressibility (1/GPa) = 0.02870942
#
# Stress axis : x y z
#
# Youngs Moduli (GPa) = 68.64189 101.26827 45.37448
#
# Poissons Ratio (x) = 0.35518 0.07872
# Poissons Ratio (y) = 0.24075 0.16535
# Poissons Ratio (z) = 0.11909 0.36903
#
# Static dielectric constant tensor:
#      x y z
#    x 1.598370 0.000000 0.000000 
#    y 0.000000 1.705300 0.000000 
#    z 0.000000 0.000000 1.612780 
# 
# From -- ./inp_files/21306.got.cif
#   From: 2010.05.17/outbox.cif.g08.bks.cpg/sg46_11_cif.got.tgz:21306.got - 2010.06.03 19:58:25.
