data_PCOD9378532
_publ_section_title
;
Structure prediction by ZEFSAII (Michael W. Deem and Ramdas Pophale) SiO2 
 PCOD9378532
Probable space group: I M A 2
;
_chemical_formula_sum "Si O2"
_cell_formula_units_Z 64
_cell_length_a 8.844475
_cell_length_b 30.777639
_cell_length_c 14.866085
_cell_angle_alpha 90.000000
_cell_angle_beta 90.000000
_cell_angle_gamma 90.000000
_cell_volume 4046.727603
_symmetry_space_group_name_H-M "I M A 2"
_symmetry_group_IT_number 46
_symmetry_cell_setting 'orthorhombic'
loop_
_space_group_symop_operation_xyz
x,y,z
-x,-y,z
1/2-x,y,z
1/2+x,-y,z
1/2+x,1/2+y,1/2+z
1/2-x,1/2-y,1/2+z
-x,1/2+y,1/2+z
x,1/2-y,1/2+z
loop_
_atom_site_type_symbol
_atom_site_label
_atom_site_fract_x
_atom_site_fract_y
_atom_site_fract_z
Si Si1 0.930181 0.045758 0.372740
Si Si2 0.930406 0.953280 0.570241
Si Si3 0.431400 0.796099 0.142967
Si Si4 0.077162 0.326318 0.970601
Si Si5 0.075862 0.277196 0.455930
Si Si6 0.432419 0.788239 0.760706
Si Si7 0.428980 0.630952 0.139351
Si Si8 0.429904 0.636578 0.793770
O O1 0.750000 0.041326 0.386505
O O2 0.957006 0.085210 0.304050
O O3 0.005278 0.056352 0.469609
O O4 0.000000 0.000000 0.343167
O O5 0.750000 0.955796 0.566515
O O6 0.985011 0.914764 0.635178
O O7 0.000000 0.000000 0.595364
O O8 0.250000 0.792750 0.134267
O O9 0.501493 0.797646 0.044310
O O10 0.482188 0.753276 0.199970
O O11 0.466910 0.838765 0.201808
O O12 0.250000 0.340550 0.988736
O O13 0.070813 0.274514 0.973062
O O14 0.966806 0.346136 0.044604
O O15 0.024048 0.341368 0.873064
O O16 0.250000 0.290588 0.448187
O O17 0.993913 0.285550 0.361506
O O18 0.250000 0.786604 0.762973
O O19 0.476936 0.833535 0.713403
O O20 0.250000 0.623379 0.147138
O O21 0.250000 0.643711 0.810379
#
# Coordination Sequence:
#
# PCOD9378532 Si02
#       8
#     8   8   8   8   8   8   8   8
#     4  10  19  31  48  72 101 134 168 208 253 301
#     4  11  21  33  50  74 103 136 169 206 255 304
#     4  10  20  35  53  73  97 134 177 212 249 301
#     4  11  21  30  46  72 103 137 170 207 253 301
#     4  11  23  35  49  73 105 136 169 216 260 299
#     4  10  21  35  54  74  97 136 177 210 250 304
#     4  11  21  34  51  74 101 135 176 213 249 300
#     4  10  20  33  51  72  98 134 176 212 247 295
#
# _framework density 15.815249
#
# number of rings (size 3 to 8) (size 9 to 14) (size 15 to 20)
#    0.000    1.500    3.750    3.375    0.000    3.500 
#    0.000    0.000    0.000    0.000    0.000    0.875 
#    0.000    2.000    0.000    0.000    0.000    0.000 
#
# Total GULP energy -178598.399191 kJ/mol
# GULP energy per Si atom -5581.199975 kJ/mol
# Density = 1.577925 g / cm^3
# Si number density = 15.815249 Si / 1000 Ang^3
#
#
#
# Elastic Constant Matrix: (Units=GPa)
#
#
# Indices 1 2 3 4 5 6 
#
# 1 50.5225 39.6392 21.8317 0.0000 -0.0001 0.0000
# 2 39.6392 96.9012 32.6435 0.0001 -0.0002 0.0000
# 3 21.8317 32.6435 75.1873 0.0002 -0.0005 0.0000
# 4 0.0000 0.0001 0.0002 21.7218 -0.0001 0.0000
# 5 -0.0001 -0.0002 -0.0005 -0.0001 5.6768 0.0000
# 6 0.0000 0.0000 0.0000 0.0000 0.0000 22.0531
#
#
#
# Elastic Compliance Matrix: (Units=1/GPa)
#
#
# Indices 1 2 3 4 5 6 
#
# 1 0.030132 -0.010985 -0.003980 0.000000 0.000000 0.000000
# 2 -0.010985 0.016093 -0.003797 0.000000 0.000000 0.000000
# 3 -0.003980 -0.003797 0.016104 0.000000 0.000001 0.000000
# 4 0.000000 0.000000 0.000000 0.046037 0.000001 0.000000
# 5 0.000000 0.000000 0.000001 0.000001 0.176155 0.000000
# 6 0.000000 0.000000 0.000000 0.000000 0.000000 0.045345
#
#
# Mechanical properties :
#
#
# Convention : Reuss Voigt Hill
#
# Bulk Modulus (GPa) = 40.31545 45.64888 42.98216
# Shear Modulus (GPa) = 13.30998 18.45680 15.88339
#
# Velocity S-wave (km/s) = 2.90417 3.41988 3.17252
# Velocity P-wave (km/s) = 6.06568 6.67238 6.37625
#
# Compressibility (1/GPa) = 0.02480439
#
# Stress axis : x y z
#
# Youngs Moduli (GPa) = 33.18751 62.14011 62.09536
#
# Poissons Ratio (x) = 0.68263 0.24713
# Poissons Ratio (y) = 0.36457 0.23578
# Poissons Ratio (z) = 0.13208 0.23595
#
# Static dielectric constant tensor:
#      x y z
#    x 1.539340 0.000000 0.000000 
#    y 0.000000 1.549340 0.000000 
#    z 0.000000 0.000000 1.496510 
# 
# From -- ./inp_files/14738.got.cif
#   From: 2010.05.17/outbox.cif.g08.bks.cpg/sg46_8_cif.got.tgz:14738.got - 2010.06.03 19:58:25.
