data_PCOD9378150
_publ_section_title
;
Structure prediction by ZEFSAII (Michael W. Deem and Ramdas Pophale) SiO2 
 PCOD9378150
Probable space group: I M A 2
;
_chemical_formula_sum "Si O2"
_cell_formula_units_Z 36
_cell_length_a 12.783125
_cell_length_b 14.998430
_cell_length_c 6.821157
_cell_angle_alpha 90.000000
_cell_angle_beta 90.000000
_cell_angle_gamma 90.000000
_cell_volume 1307.798641
_symmetry_space_group_name_H-M "I M A 2"
_symmetry_group_IT_number 46
_symmetry_cell_setting 'orthorhombic'
loop_
_space_group_symop_operation_xyz
x,y,z
-x,-y,z
1/2-x,y,z
1/2+x,-y,z
1/2+x,1/2+y,1/2+z
1/2-x,1/2-y,1/2+z
-x,1/2+y,1/2+z
x,1/2-y,1/2+z
loop_
_atom_site_type_symbol
_atom_site_label
_atom_site_fract_x
_atom_site_fract_y
_atom_site_fract_z
Si Si1 0.361131 0.574186 0.956110
Si Si2 0.591083 0.674517 0.408382
Si Si3 0.591652 0.874263 0.456805
Si Si4 0.250000 0.460037 0.595879
Si Si5 0.140259 0.874681 0.913832
O O1 0.250000 0.613770 0.892916
O O2 0.353041 0.468027 0.907933
O O3 0.471434 0.612597 0.892292
O O4 0.365685 0.587630 0.191637
O O5 0.627045 0.776526 0.395961
O O6 0.658973 0.617340 0.556490
O O7 0.467202 0.674746 0.458563
O O8 0.600206 0.630454 0.194052
O O9 0.339899 0.539490 0.547539
O O10 0.250000 0.821184 0.927023
#
# Coordination Sequence:
#
# PCOD9378150 Si02
#       5
#     8   8   8   4   8
#     4   9  16  34  56  71  99 142 179 201 247 306
#     4  11  20  33  52  85 102 130 175 214 256 299
#     4  10  21  32  55  78 106 130 171 217 252 301
#     4  10  18  30  58  74 104 134 174 216 246 296
#     4   8  16  31  56  75  95 133 181 209 236 298
#
# _framework density 27.527173999999999
#
# number of rings (size 3 to 8) (size 9 to 14) (size 15 to 20)
#    0.667    1.778    2.222    0.667    1.556    0.889 
#    0.000    0.000    9.778    0.000    0.000    0.000 
#    0.000    0.000    0.000    0.000    0.000    0.000 
#
# Total GULP energy -100285.642877 kJ/mol
# GULP energy per Si atom -5571.424604 kJ/mol
# Density = 2.746452 g / cm^3
# Si number density = 27.527174 Si / 1000 Ang^3
#
#
#
# Elastic Constant Matrix: (Units=GPa)
#
#
# Indices 1 2 3 4 5 6 
#
# 1 192.9484 37.8330 -23.3759 0.0000 0.0000 0.0000
# 2 37.8330 156.4872 2.7496 0.0000 0.0000 0.0000
# 3 -23.3759 2.7496 88.8515 0.0000 0.0000 0.0000
# 4 0.0000 0.0000 0.0000 37.8696 0.0000 0.0000
# 5 0.0000 0.0000 0.0000 0.0000 108.5197 0.0000
# 6 0.0000 0.0000 0.0000 0.0000 0.0000 -230.5164
#
#
#
# Elastic Compliance Matrix: (Units=1/GPa)
#
#
# Indices 1 2 3 4 5 6 
#
# 1 0.005640 -0.001390 0.001527 0.000000 0.000000 0.000000
# 2 -0.001390 0.006737 -0.000574 0.000000 0.000000 0.000000
# 3 0.001527 -0.000574 0.011674 0.000000 0.000000 0.000000
# 4 0.000000 0.000000 0.000000 0.026406 0.000000 0.000000
# 5 0.000000 0.000000 0.000000 0.000000 0.009215 0.000000
# 6 0.000000 0.000000 0.000000 0.000000 0.000000 -0.004338
#
#
# Mechanical properties :
#
#
# Convention : Reuss Voigt Hill
#
# Bulk Modulus (GPa) = 43.14892 52.52228 47.83560
# Shear Modulus (GPa) = 78.20424 11.24662 44.72543
#
# Velocity S-wave (km/s) = 5.33587 2.02349 4.03522
# Velocity P-wave (km/s) = 7.32605 4.95792 6.25508
#
# Compressibility (1/GPa) = 0.02317555
#
# Stress axis : x y z
#
# Youngs Moduli (GPa) = 177.29352 148.44387 85.65870
#
# Poissons Ratio (x) = 0.20641 -0.13080
# Poissons Ratio (y) = 0.24652 0.04919
# Poissons Ratio (z) = -0.27072 0.08525
#
# Static dielectric constant tensor:
#      x y z
#    x 1.675310 0.000000 0.000000 
#    y 0.000000 1.993800 0.000000 
#    z 0.000000 0.000000 2.432610 
# 
# From -- ./inp_files/5364.got.cif
#   From: 2010.05.17/outbox.cif.g08.bks.cpg/sg46_3_cif.got.tgz:5364.got - 2010.06.03 19:58:25.
