data_PCOD9378408
_publ_section_title
;
Structure prediction by ZEFSAII (Michael W. Deem and Ramdas Pophale) SiO2 
 PCOD9378408
Probable space group: I M A 2
;
_chemical_formula_sum "Si O2"
_cell_formula_units_Z 52
_cell_length_a 25.234831
_cell_length_b 5.053184
_cell_length_c 19.564697
_cell_angle_alpha 90.000000
_cell_angle_beta 90.000000
_cell_angle_gamma 90.000000
_cell_volume 2494.816681
_symmetry_space_group_name_H-M "I M A 2"
_symmetry_group_IT_number 46
_symmetry_cell_setting 'orthorhombic'
loop_
_space_group_symop_operation_xyz
x,y,z
-x,-y,z
1/2-x,y,z
1/2+x,-y,z
1/2+x,1/2+y,1/2+z
1/2-x,1/2-y,1/2+z
-x,1/2+y,1/2+z
x,1/2-y,1/2+z
loop_
_atom_site_type_symbol
_atom_site_label
_atom_site_fract_x
_atom_site_fract_y
_atom_site_fract_z
Si Si1 0.312512 0.450572 0.840880
Si Si2 0.394404 0.726051 0.430794
Si Si3 0.808579 0.105630 0.025889
Si Si4 0.843375 0.869516 0.606156
Si Si5 0.948497 0.897346 0.537643
Si Si6 0.500000 0.500000 0.428610
Si Si7 0.811732 0.042314 0.752129
O O1 0.250000 0.456665 0.863825
O O2 0.356454 0.565994 0.892232
O O3 0.325621 0.158065 0.813765
O O4 0.316429 0.657954 0.777703
O O5 0.351750 0.533337 0.467606
O O6 0.447331 0.620626 0.391593
O O7 0.421750 0.866586 0.495499
O O8 0.750000 0.108269 0.995162
O O9 0.821272 0.390419 0.059204
O O10 0.810985 0.890581 0.086045
O O11 0.903229 0.792982 0.586102
O O12 0.841427 0.966549 0.683465
O O13 0.970650 0.705137 0.479139
O O14 0.000000 0.000000 0.576841
O O15 0.750000 0.991630 0.737061
#
# Coordination Sequence:
#
# PCOD9378408 Si02
#       7
#     8   8   8   8   8   4   8
#     4  10  22  38  58  83 117 155 192 232 280 343
#     4  10  21  35  58  85 114 150 190 236 291 342
#     4  11  21  33  56  90 121 145 182 239 295 344
#     4  11  21  37  58  86 117 153 191 233 286 347
#     4   9  20  36  59  85 113 149 189 241 296 340
#     4  10  18  38  58  82 112 148 192 234 294 344
#     4  10  21  37  57  81 115 159 193 226 276 339
#
# _framework density 20.843216000000002
#
# number of rings (size 3 to 8) (size 9 to 14) (size 15 to 20)
#    0.000    1.846    1.538    2.769    2.154    1.231 
#    0.000    3.077    1.692    0.000    0.000    0.000 
#    0.000    0.000    0.000    0.000    0.000    0.000 
#
# Total GULP energy -144937.177603 kJ/mol
# GULP energy per Si atom -5574.506831 kJ/mol
# Density = 2.079578 g / cm^3
# Si number density = 20.843216 Si / 1000 Ang^3
#
#
#
# Elastic Constant Matrix: (Units=GPa)
#
#
# Indices 1 2 3 4 5 6 
#
# 1 149.3856 1.1925 20.2480 0.0000 0.0000 0.0000
# 2 1.1925 56.3397 -17.9685 0.0000 0.0000 0.0000
# 3 20.2480 -17.9685 36.9340 0.0000 0.0000 0.0000
# 4 0.0000 0.0000 0.0000 13.2326 0.0000 0.0000
# 5 0.0000 0.0000 0.0000 0.0000 17.1064 0.0000
# 6 0.0000 0.0000 0.0000 0.0000 0.0000 12.9840
#
#
#
# Elastic Compliance Matrix: (Units=1/GPa)
#
#
# Indices 1 2 3 4 5 6 
#
# 1 0.007368 -0.001709 -0.004871 0.000000 0.000000 0.000000
# 2 -0.001709 0.021406 0.011351 0.000000 0.000000 0.000000
# 3 -0.004871 0.011351 0.035268 0.000000 0.000000 0.000000
# 4 0.000000 0.000000 0.000000 0.075571 0.000000 0.000000
# 5 0.000000 0.000000 0.000000 0.000000 0.058458 0.000000
# 6 0.000000 0.000000 0.000000 0.000000 0.000000 0.077018
#
#
# Mechanical properties :
#
#
# Convention : Reuss Voigt Hill
#
# Bulk Modulus (GPa) = 13.58998 27.73371 20.66184
# Shear Modulus (GPa) = 17.23697 24.61043 20.92370
#
# Velocity S-wave (km/s) = 2.87885 3.43992 3.17181
# Velocity P-wave (km/s) = 4.19340 5.39557 4.83202
#
# Compressibility (1/GPa) = 0.07358362
#
# Stress axis : x y z
#
# Youngs Moduli (GPa) = 135.72297 46.71607 28.35423
#
# Poissons Ratio (x) = 0.07986 0.13811
# Poissons Ratio (y) = 0.23201 -0.32185
# Poissons Ratio (z) = 0.66110 -0.53028
#
# Static dielectric constant tensor:
#      x y z
#    x 1.777210 0.000000 0.000000 
#    y 0.000000 1.880470 0.000000 
#    z 0.000000 0.000000 1.763190 
# 
# From -- ./inp_files/20440.got.cif
#   From: 2010.05.17/outbox.cif.g08.bks.cpg/sg46_11_cif.got.tgz:20440.got - 2010.06.03 19:58:25.
