data_PCOD9378385
_publ_section_title
;
Structure prediction by ZEFSAII (Michael W. Deem and Ramdas Pophale) SiO2 
 PCOD9378385
Probable space group: I M A 2
;
_chemical_formula_sum "Si O2"
_cell_formula_units_Z 60
_cell_length_a 25.444619
_cell_length_b 13.031632
_cell_length_c 8.576526
_cell_angle_alpha 90.000000
_cell_angle_beta 90.000000
_cell_angle_gamma 90.000000
_cell_volume 2843.846612
_symmetry_space_group_name_H-M "I M A 2"
_symmetry_group_IT_number 46
_symmetry_cell_setting 'orthorhombic'
loop_
_space_group_symop_operation_xyz
x,y,z
-x,-y,z
1/2-x,y,z
1/2+x,-y,z
1/2+x,1/2+y,1/2+z
1/2-x,1/2-y,1/2+z
-x,1/2+y,1/2+z
x,1/2-y,1/2+z
loop_
_atom_site_type_symbol
_atom_site_label
_atom_site_fract_x
_atom_site_fract_y
_atom_site_fract_z
Si Si1 0.068577 0.299524 0.594810
Si Si2 0.455783 0.826573 0.023892
Si Si3 0.190540 0.799807 0.764979
Si Si4 0.397921 0.388538 0.259896
Si Si5 0.500000 0.500000 0.289544
Si Si6 0.872081 0.346582 0.960046
Si Si7 0.393082 0.504123 0.722762
Si Si8 0.189285 0.000480 0.952878
O O1 0.082791 0.337223 0.422564
O O2 0.105211 0.205405 0.641848
O O3 0.075980 0.398196 0.705412
O O4 0.006837 0.274081 0.599851
O O5 0.424299 0.901373 0.141056
O O6 0.477163 0.907188 0.895840
O O7 0.418750 0.737179 0.958723
O O8 0.250000 0.792969 0.706843
O O9 0.169992 0.693965 0.833520
O O10 0.153195 0.839781 0.629111
O O11 0.188665 0.880698 0.906532
O O12 0.447041 0.459776 0.208017
O O13 0.345291 0.445576 0.316367
O O14 0.885449 0.459034 0.898628
O O15 0.341254 0.487087 0.615954
O O16 0.250000 0.034328 0.956867
#
# Coordination Sequence:
#
# PCOD9378385 Si02
#       8
#     8   8   8   8   4   8   8   8
#     4  10  23  38  61  85 122 164 198 254 312 371
#     4  11  19  37  59  86 117 159 199 241 312 376
#     4  11  22  37  56  84 119 158 198 252 311 369
#     4  10  21  40  61  88 119 161 208 255 315 374
#     4  10  18  36  60  80 114 160 198 248 302 372
#     4  12  23  34  60  90 122 157 202 252 306 382
#     4  11  21  40  60  88 125 159 202 258 312 375
#     4  10  21  41  66  85 117 165 211 259 313 371
#
# _framework density 21.098185000000001
#
# number of rings (size 3 to 8) (size 9 to 14) (size 15 to 20)
#    0.000    1.333    6.667    0.400    3.733    4.267 
#    0.000    2.667    0.000    0.000    0.000    0.000 
#    0.000    0.000    0.000    0.000    0.000    0.000 
#
# Total GULP energy -167556.497812 kJ/mol
# GULP energy per Si atom -5585.216594 kJ/mol
# Density = 2.105016 g / cm^3
# Si number density = 21.098185 Si / 1000 Ang^3
#
#
#
# Elastic Constant Matrix: (Units=GPa)
#
#
# Indices 1 2 3 4 5 6 
#
# 1 117.6052 22.7033 8.7487 0.0000 0.0000 0.0000
# 2 22.7033 59.0605 9.6656 0.0000 0.0000 0.0000
# 3 8.7487 9.6656 39.0682 0.0000 0.0000 0.0000
# 4 0.0000 0.0000 0.0000 27.5505 0.0000 0.0000
# 5 0.0000 0.0000 0.0000 0.0000 10.4270 0.0000
# 6 0.0000 0.0000 0.0000 0.0000 0.0000 19.9671
#
#
#
# Elastic Compliance Matrix: (Units=1/GPa)
#
#
# Indices 1 2 3 4 5 6 
#
# 1 0.009242 -0.003350 -0.001241 0.000000 0.000000 0.000000
# 2 -0.003350 0.018860 -0.003916 0.000000 0.000000 0.000000
# 3 -0.001241 -0.003916 0.026843 0.000000 0.000000 0.000000
# 4 0.000000 0.000000 0.000000 0.036297 0.000000 0.000000
# 5 0.000000 0.000000 0.000000 0.000000 0.095904 0.000000
# 6 0.000000 0.000000 0.000000 0.000000 0.000000 0.050082
#
#
# Mechanical properties :
#
#
# Convention : Reuss Voigt Hill
#
# Bulk Modulus (GPa) = 26.36280 33.10767 29.73523
# Shear Modulus (GPa) = 18.73459 23.23002 20.98230
#
# Velocity S-wave (km/s) = 2.98312 3.32180 3.15700
# Velocity P-wave (km/s) = 4.93839 5.51713 5.23576
#
# Compressibility (1/GPa) = 0.03793224
#
# Stress axis : x y z
#
# Youngs Moduli (GPa) = 108.20216 53.02148 37.25374
#
# Poissons Ratio (x) = 0.17760 0.04623
# Poissons Ratio (y) = 0.36243 0.14588
# Poissons Ratio (z) = 0.13427 0.20763
#
# Static dielectric constant tensor:
#      x y z
#    x 1.778210 0.000000 0.000000 
#    y 0.000000 1.789210 0.000000 
#    z 0.000000 0.000000 1.784080 
# 
# From -- ./inp_files/7946.got.cif
#   From: 2010.05.17/outbox.cif.g08.bks.cpg/sg46_4_cif.got.tgz:7946.got - 2010.06.03 19:58:25.
