data_PCOD9378365
_publ_section_title
;
Structure prediction by ZEFSAII (Michael W. Deem and Ramdas Pophale) SiO2 
 PCOD9378365
Probable space group: I M A 2
;
_chemical_formula_sum "Si O2"
_cell_formula_units_Z 64
_cell_length_a 16.243909
_cell_length_b 10.358116
_cell_length_c 19.805117
_cell_angle_alpha 90.000000
_cell_angle_beta 90.000000
_cell_angle_gamma 90.000000
_cell_volume 3332.335583
_symmetry_space_group_name_H-M "I M A 2"
_symmetry_group_IT_number 46
_symmetry_cell_setting 'orthorhombic'
loop_
_space_group_symop_operation_xyz
x,y,z
-x,-y,z
1/2-x,y,z
1/2+x,-y,z
1/2+x,1/2+y,1/2+z
1/2-x,1/2-y,1/2+z
-x,1/2+y,1/2+z
x,1/2-y,1/2+z
loop_
_atom_site_type_symbol
_atom_site_label
_atom_site_fract_x
_atom_site_fract_y
_atom_site_fract_z
Si Si1 0.418100 0.751349 0.276860
Si Si2 0.886401 0.793419 0.796751
Si Si3 0.410869 0.837681 0.628288
Si Si4 0.097759 0.967358 0.880042
Si Si5 0.847359 0.901130 0.121911
Si Si6 0.349208 0.626780 0.525843
Si Si7 0.892623 0.625082 0.145653
Si Si8 0.654770 0.982230 0.269460
O O1 0.515648 0.730460 0.287229
O O2 0.389274 0.731504 0.199377
O O3 0.382186 0.637167 0.322282
O O4 0.394061 0.895888 0.297399
O O5 0.863745 0.852694 0.723255
O O6 0.849181 0.652734 0.808763
O O7 0.866064 0.896153 0.854691
O O8 0.388374 0.748615 0.564890
O O9 0.508690 0.860726 0.637522
O O10 0.371129 0.980170 0.624098
O O11 0.125951 0.903287 0.949444
O O12 0.000000 0.000000 0.883264
O O13 0.750000 0.919747 0.126751
O O14 0.860612 0.751010 0.107074
O O15 0.880755 0.941501 0.195624
O O16 0.878728 0.000460 0.067038
O O17 0.250000 0.638875 0.529958
O O18 0.750000 0.021565 0.263161
#
# Coordination Sequence:
#
# PCOD9378365 Si02
#       8
#     8   8   8   8   8   8   8   8
#     4  10  18  35  59  85 113 148 188 245 297 338
#     4   9  18  35  57  85 114 146 188 246 290 339
#     4  10  19  34  59  87 115 145 191 246 295 344
#     4  10  22  39  61  84 116 153 197 239 291 352
#     4   9  19  34  51  80 118 149 185 236 286 343
#     4  11  24  39  55  83 122 158 193 235 291 357
#     4   9  18  33  59  88 110 141 196 244 291 342
#     4  10  19  32  54  85 115 146 191 237 286 344
#
# _framework density 19.205749000000001
#
# number of rings (size 3 to 8) (size 9 to 14) (size 15 to 20)
#    0.000    2.250    2.500    0.375    1.750    1.500 
#    0.000    1.250    2.750    0.000    0.000    0.000 
#    0.000    0.000    0.000    0.000    0.000    0.000 
#
# Total GULP energy -178314.377478 kJ/mol
# GULP energy per Si atom -5572.324296 kJ/mol
# Density = 1.916204 g / cm^3
# Si number density = 19.205749 Si / 1000 Ang^3
#
#
#
# Elastic Constant Matrix: (Units=GPa)
#
#
# Indices 1 2 3 4 5 6 
#
# 1 18.0510 18.3862 13.8729 0.0000 0.0000 0.0000
# 2 18.3862 163.8248 52.2510 0.0000 0.0000 0.0000
# 3 13.8729 52.2510 71.8162 0.0000 0.0000 0.0000
# 4 0.0000 0.0000 0.0000 32.0624 0.0000 0.0000
# 5 0.0000 0.0000 0.0000 0.0000 9.8367 0.0000
# 6 0.0000 0.0000 0.0000 0.0000 0.0000 8.7591
#
#
#
# Elastic Compliance Matrix: (Units=1/GPa)
#
#
# Indices 1 2 3 4 5 6 
#
# 1 0.067456 -0.004446 -0.009795 0.000000 0.000000 0.000000
# 2 -0.004446 0.008242 -0.005137 0.000000 0.000000 0.000000
# 3 -0.009795 -0.005137 0.019554 0.000000 0.000000 0.000000
# 4 0.000000 0.000000 0.000000 0.031189 0.000000 0.000000
# 5 0.000000 0.000000 0.000000 0.000000 0.101660 0.000000
# 6 0.000000 0.000000 0.000000 0.000000 0.000000 0.114167
#
#
# Mechanical properties :
#
#
# Convention : Reuss Voigt Hill
#
# Bulk Modulus (GPa) = 17.70127 46.96799 32.33463
# Shear Modulus (GPa) = 12.50445 21.41044 16.95745
#
# Velocity S-wave (km/s) = 2.55439 3.34247 2.97465
# Velocity P-wave (km/s) = 4.23516 6.27730 5.35448
#
# Compressibility (1/GPa) = 0.05649312
#
# Stress axis : x y z
#
# Youngs Moduli (GPa) = 14.82458 121.33481 51.13919
#
# Poissons Ratio (x) = 0.53950 0.50093
# Poissons Ratio (y) = 0.06592 0.26272
# Poissons Ratio (z) = 0.14521 0.62335
#
# Static dielectric constant tensor:
#      x y z
#    x 1.706500 0.000000 0.000000 
#    y 0.000000 1.685960 0.000000 
#    z 0.000000 0.000000 1.667940 
# 
# From -- ./inp_files/20260.got.cif
#   From: 2010.05.17/outbox.cif.g08.bks.cpg/sg46_11_cif.got.tgz:20260.got - 2010.06.03 19:58:25.
