data_PCOD9378148
_publ_section_title
;
Structure prediction by ZEFSAII (Michael W. Deem and Ramdas Pophale) SiO2 
 PCOD9378148
Probable space group: I M A 2
;
_chemical_formula_sum "Si O2"
_cell_formula_units_Z 60
_cell_length_a 14.209300
_cell_length_b 11.000531
_cell_length_c 15.008225
_cell_angle_alpha 90.000000
_cell_angle_beta 90.000000
_cell_angle_gamma 90.000000
_cell_volume 2345.933326
_symmetry_space_group_name_H-M "I M A 2"
_symmetry_group_IT_number 46
_symmetry_cell_setting 'orthorhombic'
loop_
_space_group_symop_operation_xyz
x,y,z
-x,-y,z
1/2-x,y,z
1/2+x,-y,z
1/2+x,1/2+y,1/2+z
1/2-x,1/2-y,1/2+z
-x,1/2+y,1/2+z
x,1/2-y,1/2+z
loop_
_atom_site_type_symbol
_atom_site_label
_atom_site_fract_x
_atom_site_fract_y
_atom_site_fract_z
Si Si1 0.146317 0.193067 0.636230
Si Si2 0.359365 0.669265 0.275018
Si Si3 0.362713 0.551366 0.797431
Si Si4 0.357668 0.958485 0.103727
Si Si5 0.447282 0.710317 0.103476
Si Si6 0.500000 0.000000 0.946074
Si Si7 0.640837 0.481765 0.988223
Si Si8 0.355277 0.403888 0.339223
O O1 0.250000 0.249377 0.626354
O O2 0.140947 0.146061 0.738117
O O3 0.051684 0.264268 0.611078
O O4 0.141374 0.083950 0.564168
O O5 0.250000 0.675841 0.245077
O O6 0.385643 0.804646 0.308104
O O7 0.427123 0.635224 0.193297
O O8 0.358479 0.551893 0.337867
O O9 0.250000 0.545635 0.789841
O O10 0.394162 0.500878 0.701754
O O11 0.386874 0.480884 0.887895
O O12 0.250000 0.991508 0.091994
O O13 0.369253 0.813095 0.109780
O O14 0.415807 0.983429 0.016242
O O15 0.427317 0.624485 0.020983
O O16 0.545389 0.886370 0.889806
O O17 0.750000 0.437303 0.983448
O O18 0.250000 0.366806 0.373553
#
# Coordination Sequence:
#
# PCOD9378148 Si02
#       8
#     8   8   8   8   8   4   8   8
#     4  10  21  36  54  85 124 157 192 235 291 360
#     4   9  16  29  53  85 119 149 185 237 289 341
#     4   8  17  33  54  82 116 152 189 236 289 338
#     4  10  23  43  62  86 116 148 197 252 294 346
#     4  11  19  33  57  87 116 155 190 237 294 351
#     4  12  24  38  58  84 112 156 198 240 298 360
#     4  10  18  30  54  88 122 155 187 230 290 352
#     4  10  20  34  55  84 119 154 191 240 294 354
#
# _framework density 25.576174999999999
#
# number of rings (size 3 to 8) (size 9 to 14) (size 15 to 20)
#    0.000    2.133    1.333    3.600    1.867    0.000 
#    2.400    1.333    0.000    0.000    0.000    0.000 
#    0.000    0.000    0.000    0.000    0.000    0.000 
#
# Total GULP energy -167410.425750 kJ/mol
# GULP energy per Si atom -5580.347525 kJ/mol
# Density = 2.551796 g / cm^3
# Si number density = 25.576175 Si / 1000 Ang^3
#
#
#
# Elastic Constant Matrix: (Units=GPa)
#
#
# Indices 1 2 3 4 5 6 
#
# 1 162.9603 14.5021 38.6475 0.0000 0.0000 0.0000
# 2 14.5021 48.0800 17.5251 0.0000 0.0000 0.0000
# 3 38.6475 17.5251 165.0860 0.0000 0.0000 0.0000
# 4 0.0000 0.0000 0.0000 7.4272 0.0000 0.0000
# 5 0.0000 0.0000 0.0000 0.0000 23.0380 0.0000
# 6 0.0000 0.0000 0.0000 0.0000 0.0000 12.4717
#
#
#
# Elastic Compliance Matrix: (Units=1/GPa)
#
#
# Indices 1 2 3 4 5 6 
#
# 1 0.006597 -0.001484 -0.001387 0.000000 0.000000 0.000000
# 2 -0.001484 0.021970 -0.001985 0.000000 0.000000 0.000000
# 3 -0.001387 -0.001985 0.006593 0.000000 0.000000 0.000000
# 4 0.000000 0.000000 0.000000 0.134640 0.000000 0.000000
# 5 0.000000 0.000000 0.000000 0.000000 0.043407 0.000000
# 6 0.000000 0.000000 0.000000 0.000000 0.000000 0.080181
#
#
# Mechanical properties :
#
#
# Convention : Reuss Voigt Hill
#
# Bulk Modulus (GPa) = 39.29588 57.49728 48.39658
# Shear Modulus (GPa) = 16.04709 28.95084 22.49896
#
# Velocity S-wave (km/s) = 2.50756 3.36809 2.96916
# Velocity P-wave (km/s) = 4.87662 6.13636 5.54240
#
# Compressibility (1/GPa) = 0.02544796
#
# Stress axis : x y z
#
# Youngs Moduli (GPa) = 151.57287 45.51696 151.67993
#
# Poissons Ratio (x) = 0.06757 0.21037
# Poissons Ratio (y) = 0.22500 0.30105
# Poissons Ratio (z) = 0.21022 0.09034
#
# Static dielectric constant tensor:
#      x y z
#    x 2.130690 0.000000 0.000000 
#    y 0.000000 2.060320 0.000000 
#    z 0.000000 0.000000 2.142260 
# 
# From -- ./inp_files/16139.got.cif
#   From: 2010.05.17/outbox.cif.g08.bks.cpg/sg46_9_cif.got.tgz:16139.got - 2010.06.03 19:58:25.
