data_PCOD9378349
_publ_section_title
;
Structure prediction by ZEFSAII (Michael W. Deem and Ramdas Pophale) SiO2 
 PCOD9378349
Probable space group: I M A 2
;
_chemical_formula_sum "Si O2"
_cell_formula_units_Z 64
_cell_length_a 8.567108
_cell_length_b 24.413114
_cell_length_c 15.948258
_cell_angle_alpha 90.000000
_cell_angle_beta 90.000000
_cell_angle_gamma 90.000000
_cell_volume 3335.574720
_symmetry_space_group_name_H-M "I M A 2"
_symmetry_group_IT_number 46
_symmetry_cell_setting 'orthorhombic'
loop_
_space_group_symop_operation_xyz
x,y,z
-x,-y,z
1/2-x,y,z
1/2+x,-y,z
1/2+x,1/2+y,1/2+z
1/2-x,1/2-y,1/2+z
-x,1/2+y,1/2+z
x,1/2-y,1/2+z
loop_
_atom_site_type_symbol
_atom_site_label
_atom_site_fract_x
_atom_site_fract_y
_atom_site_fract_z
Si Si1 0.062013 0.365978 0.383800
Si Si2 0.562795 0.247872 0.641808
Si Si3 0.437061 0.438583 0.540737
Si Si4 0.937466 0.250539 0.443394
Si Si5 0.435993 0.367383 0.197228
Si Si6 0.440382 0.869274 0.384233
Si Si7 0.063202 0.561253 0.044364
Si Si8 0.061472 0.870043 0.196866
O O1 0.250000 0.367454 0.384052
O O2 0.005839 0.404736 0.459199
O O3 0.009516 0.383061 0.290847
O O4 0.010202 0.304065 0.402324
O O5 0.750000 0.240578 0.651225
O O6 0.527666 0.249540 0.542600
O O7 0.479266 0.196043 0.682269
O O8 0.520065 0.306382 0.680963
O O9 0.500000 0.500000 0.539730
O O10 0.250000 0.439700 0.538872
O O11 0.491151 0.407040 0.624030
O O12 0.750000 0.254078 0.434329
O O13 0.989486 0.193105 0.403540
O O14 0.250000 0.374101 0.192441
O O15 0.512102 0.403145 0.124185
O O16 0.250000 0.869008 0.385451
O O17 0.492923 0.908525 0.459351
O O18 0.488361 0.886027 0.290777
O O19 0.250000 0.559929 0.041875
O O20 0.000000 0.500000 0.049621
O O21 0.250000 0.873622 0.191630
#
# Coordination Sequence:
#
# PCOD9378349 Si02
#       8
#     8   8   8   8   8   8   8   8
#     4  10  23  40  58  86 121 153 191 240 291 344
#     4  10  19  34  60  91 122 155 193 235 287 347
#     4  11  24  42  61  82 113 151 195 245 292 344
#     4  10  18  34  61  90 118 154 193 231 285 348
#     4  11  23  39  60  88 121 157 196 239 291 348
#     4   9  19  36  59  86 120 154 190 235 282 342
#     4  11  23  42  62  84 115 153 199 247 296 347
#     4  10  20  37  61  89 119 154 193 235 286 345
#
# _framework density 19.187097000000001
#
# number of rings (size 3 to 8) (size 9 to 14) (size 15 to 20)
#    0.000    1.750    2.500    1.875    0.000    4.500 
#    0.000    4.375    0.000    0.000    0.000    0.000 
#    0.000    0.000    0.000    0.000    0.000    0.000 
#
# Total GULP energy -178792.032705 kJ/mol
# GULP energy per Si atom -5587.251022 kJ/mol
# Density = 1.914343 g / cm^3
# Si number density = 19.187097 Si / 1000 Ang^3
#
#
#
# Elastic Constant Matrix: (Units=GPa)
#
#
# Indices 1 2 3 4 5 6 
#
# 1 21.0833 27.3007 36.2234 0.0000 0.0000 0.0000
# 2 27.3007 138.3807 81.5511 0.0000 0.0000 0.0000
# 3 36.2234 81.5511 180.9041 0.0000 0.0002 0.0000
# 4 0.0000 0.0000 0.0000 -1.5508 0.0000 0.0000
# 5 0.0000 0.0000 0.0002 0.0000 9.1781 0.0000
# 6 0.0000 0.0000 0.0000 0.0000 0.0000 32.4251
#
#
#
# Elastic Compliance Matrix: (Units=1/GPa)
#
#
# Indices 1 2 3 4 5 6 
#
# 1 0.079079 -0.008538 -0.011986 0.000000 0.000000 0.000000
# 2 -0.008538 0.010763 -0.003142 0.000000 0.000000 0.000000
# 3 -0.011986 -0.003142 0.009344 0.000000 0.000000 0.000000
# 4 0.000000 0.000000 0.000000 -0.644831 -0.000002 0.000000
# 5 0.000000 0.000000 0.000000 -0.000002 0.108955 0.000000
# 6 0.000000 0.000000 0.000000 0.000000 0.000000 0.030840
#
#
# Mechanical properties :
#
#
# Convention : Reuss Voigt Hill
#
# Bulk Modulus (GPa) = 19.28462 70.05760 44.67111
# Shear Modulus (GPa) = -14.65274 21.03001 3.18864
#
# Velocity S-wave (km/s) = -2.76647 3.31426 1.29053
# Velocity P-wave (km/s) = 0.36306 7.15806 5.05500
#
# Compressibility (1/GPa) = 0.05185480
#
# Stress axis : x y z
#
# Youngs Moduli (GPa) = 12.64553 92.91428 107.01801
#
# Poissons Ratio (x) = 0.79329 1.28268
# Poissons Ratio (y) = 0.10797 0.33627
# Poissons Ratio (z) = 0.15156 0.29195
#
# Static dielectric constant tensor:
#      x y z
#    x 1.661280 0.000000 0.000000 
#    y 0.000000 1.625700 0.000000 
#    z 0.000000 0.000000 1.678680 
# 
# From -- ./inp_files/14469.got.cif
#   From: 2010.05.17/outbox.cif.g08.bks.cpg/sg46_8_cif.got.tgz:14469.got - 2010.06.03 19:58:25.
