data_PCOD9378359
_publ_section_title
;
Structure prediction by ZEFSAII (Michael W. Deem and Ramdas Pophale) SiO2 
 PCOD9378359
Probable space group: I M A 2
;
_chemical_formula_sum "Si O2"
_cell_formula_units_Z 64
_cell_length_a 8.615829
_cell_length_b 20.286224
_cell_length_c 21.245144
_cell_angle_alpha 90.000000
_cell_angle_beta 90.000000
_cell_angle_gamma 90.000000
_cell_volume 3713.282293
_symmetry_space_group_name_H-M "I M A 2"
_symmetry_group_IT_number 46
_symmetry_cell_setting 'orthorhombic'
loop_
_space_group_symop_operation_xyz
x,y,z
-x,-y,z
1/2-x,y,z
1/2+x,-y,z
1/2+x,1/2+y,1/2+z
1/2-x,1/2-y,1/2+z
-x,1/2+y,1/2+z
x,1/2-y,1/2+z
loop_
_atom_site_type_symbol
_atom_site_label
_atom_site_fract_x
_atom_site_fract_y
_atom_site_fract_z
Si Si1 0.938070 0.212844 0.955940
Si Si2 0.434696 0.292924 0.837922
Si Si3 0.563540 0.429873 0.646497
Si Si4 0.936414 0.069414 0.910455
Si Si5 0.936657 0.430564 0.263590
Si Si6 0.560697 0.210079 0.095947
Si Si7 0.561698 0.211135 0.719073
Si Si8 0.063996 0.570905 0.794370
O O1 0.750000 0.215732 0.951269
O O2 0.983901 0.136403 0.944827
O O3 0.006977 0.257578 0.901136
O O4 0.986039 0.232256 0.026434
O O5 0.250000 0.292148 0.835551
O O6 0.501105 0.252716 0.778197
O O7 0.495813 0.367442 0.831637
O O8 0.500000 0.500000 0.624079
O O9 0.750000 0.432260 0.643476
O O10 0.510430 0.365077 0.609593
O O11 0.520190 0.421564 0.720263
O O12 0.750000 0.066256 0.912183
O O13 0.985190 0.075680 0.837020
O O14 0.000000 0.000000 0.935229
O O15 0.750000 0.432793 0.262739
O O16 0.986721 0.364816 0.227463
O O17 0.000000 0.500000 0.239290
O O18 0.750000 0.209465 0.096771
O O19 0.510605 0.255908 0.153755
O O20 0.750000 0.213537 0.721366
O O21 0.250000 0.571728 0.798022
O O22 0.000000 0.500000 0.815166
#
# Coordination Sequence:
#
# PCOD9378359 Si02
#       8
#     8   8   8   8   8   8   8   8
#     4  10  20  36  54  74 103 142 183 220 264 319
#     4  12  23  34  53  81 108 140 180 222 269 317
#     4   9  17  30  49  75 106 140 175 213 254 310
#     4   9  17  29  46  70 101 136 172 208 252 305
#     4   9  17  29  49  74 102 131 164 210 261 309
#     4   9  18  33  55  77 100 137 182 219 260 316
#     4  10  18  35  57  78 102 136 177 221 267 316
#     4  10  19  34  56  81 111 140 174 222 270 317
#
# _framework density 17.235427000000001
#
# number of rings (size 3 to 8) (size 9 to 14) (size 15 to 20)
#    0.000    2.250    2.500    1.500    0.000    2.000 
#    0.000    1.250    0.000    0.750    0.000    1.750 
#    0.000    0.000    0.000    0.000    0.000    0.000 
#
# Total GULP energy -178525.250889 kJ/mol
# GULP energy per Si atom -5578.914090 kJ/mol
# Density = 1.719620 g / cm^3
# Si number density = 17.235427 Si / 1000 Ang^3
#
#
#
# Elastic Constant Matrix: (Units=GPa)
#
#
# Indices 1 2 3 4 5 6 
#
# 1 19.3655 29.7808 25.2009 0.0000 0.0000 0.0000
# 2 29.7808 143.9794 75.1047 0.0000 0.0000 0.0000
# 3 25.2009 75.1047 117.0543 0.0000 0.0000 0.0000
# 4 0.0000 0.0000 0.0000 22.2080 0.0000 0.0000
# 5 0.0000 0.0000 0.0000 0.0000 -68.9388 0.0000
# 6 0.0000 0.0000 0.0000 0.0000 0.0000 29.4406
#
#
#
# Elastic Compliance Matrix: (Units=1/GPa)
#
#
# Indices 1 2 3 4 5 6 
#
# 1 0.083293 -0.011835 -0.010338 0.000000 0.000000 0.000000
# 2 -0.011835 0.012121 -0.005229 0.000000 0.000000 0.000000
# 3 -0.010338 -0.005229 0.014124 0.000000 0.000000 0.000000
# 4 0.000000 0.000000 0.000000 0.045029 0.000000 0.000000
# 5 0.000000 0.000000 0.000000 0.000000 -0.014506 0.000000
# 6 0.000000 0.000000 0.000000 0.000000 0.000000 0.033967
#
#
# Mechanical properties :
#
#
# Convention : Reuss Voigt Hill
#
# Bulk Modulus (GPa) = 18.27088 60.06357 39.16723
# Shear Modulus (GPa) = 20.23653 6.56282 13.39968
#
# Velocity S-wave (km/s) = 3.43027 1.95346 2.79130
# Velocity P-wave (km/s) = 5.12960 6.32555 5.75870
#
# Compressibility (1/GPa) = 0.05473190
#
# Stress axis : x y z
#
# Youngs Moduli (GPa) = 12.00584 82.50013 70.80159
#
# Poissons Ratio (x) = 0.97642 0.73198
# Poissons Ratio (y) = 0.14209 0.37023
# Poissons Ratio (z) = 0.12412 0.43141
#
# Static dielectric constant tensor:
#      x y z
#    x 1.585880 0.000000 0.000000 
#    y 0.000000 1.583100 0.000000 
#    z 0.000000 0.000000 1.580700 
# 
# From -- ./inp_files/18546.got.cif
#   From: 2010.05.17/outbox.cif.g08.bks.cpg/sg46_10_cif.got.tgz:18546.got - 2010.06.03 19:58:25.
