data_PCOD9378789
_publ_section_title
;
Structure prediction by ZEFSAII (Michael W. Deem and Ramdas Pophale) SiO2 
 PCOD9378789
Probable space group: I M A 2
;
_chemical_formula_sum "Si O2"
_cell_formula_units_Z 64
_cell_length_a 20.804326
_cell_length_b 15.711696
_cell_length_c 8.942266
_cell_angle_alpha 90.000000
_cell_angle_beta 90.000000
_cell_angle_gamma 90.000000
_cell_volume 2922.969626
_symmetry_space_group_name_H-M "I M A 2"
_symmetry_group_IT_number 46
_symmetry_cell_setting 'orthorhombic'
loop_
_space_group_symop_operation_xyz
x,y,z
-x,-y,z
1/2-x,y,z
1/2+x,-y,z
1/2+x,1/2+y,1/2+z
1/2-x,1/2-y,1/2+z
-x,1/2+y,1/2+z
x,1/2-y,1/2+z
loop_
_atom_site_type_symbol
_atom_site_label
_atom_site_fract_x
_atom_site_fract_y
_atom_site_fract_z
Si Si1 0.825332 0.759871 0.059160
Si Si2 0.325722 0.061712 0.938385
Si Si3 0.573024 0.302440 0.382210
Si Si4 0.125718 0.142109 0.334923
Si Si5 0.820005 0.169886 0.427263
Si Si6 0.986109 0.345199 0.689076
Si Si7 0.868783 0.038042 0.222594
Si Si8 0.176061 0.924360 0.727526
O O1 0.750000 0.740351 0.035475
O O2 0.847623 0.842717 0.963843
O O3 0.833781 0.794689 0.227212
O O4 0.867792 0.681998 0.999004
O O5 0.250000 0.063383 0.975894
O O6 0.357551 0.997064 0.056299
O O7 0.333365 0.021788 0.775598
O O8 0.624568 0.237493 0.454635
O O9 0.525664 0.337164 0.510741
O O10 0.536976 0.243839 0.261820
O O11 0.619071 0.371363 0.304666
O O12 0.056196 0.140704 0.256036
O O13 0.147746 0.044550 0.321687
O O14 0.750000 0.210250 0.437124
O O15 0.827470 0.119920 0.271178
O O16 0.825819 0.098851 0.554798
O O17 0.939998 0.423034 0.739119
O O18 0.250000 0.902356 0.777675
#
# Coordination Sequence:
#
# PCOD9378789 Si02
#       8
#     8   8   8   8   8   8   8   8
#     4  10  22  40  63  88 116 145 189 249 310 359
#     4   9  18  34  57  85 114 150 193 243 296 346
#     4  11  20  36  54  82 119 162 196 237 287 338
#     4  11  23  41  62  90 115 152 201 244 299 359
#     4  10  21  34  52  85 120 156 197 239 290 346
#     4  11  22  37  60  84 119 161 198 241 283 347
#     4  10  21  37  59  84 119 156 199 241 291 346
#     4  10  19  33  53  81 118 155 194 240 288 344
#
# _framework density 21.895541000000001
#
# number of rings (size 3 to 8) (size 9 to 14) (size 15 to 20)
#    0.000    1.750    2.500    2.250    0.000    2.500 
#    0.000    1.250    0.000    0.000    0.000    0.000 
#    0.000    0.000    0.000    0.000    0.000    0.000 
#
# Total GULP energy -178539.068298 kJ/mol
# GULP energy per Si atom -5579.345884 kJ/mol
# Density = 2.184571 g / cm^3
# Si number density = 21.895541 Si / 1000 Ang^3
#
#
#
# Elastic Constant Matrix: (Units=GPa)
#
#
# Indices 1 2 3 4 5 6 
#
# 1 53.9205 -15.1378 -1.0618 0.0000 0.0000 0.0000
# 2 -15.1378 43.4979 13.5951 0.0000 0.0000 0.0000
# 3 -1.0618 13.5951 33.5226 0.0000 0.0000 0.0000
# 4 0.0000 0.0000 0.0000 39.5268 0.0000 0.0000
# 5 0.0000 0.0000 0.0000 0.0000 21.7303 0.0000
# 6 0.0000 0.0000 0.0000 0.0000 0.0000 14.4597
#
#
#
# Elastic Compliance Matrix: (Units=1/GPa)
#
#
# Indices 1 2 3 4 5 6 
#
# 1 0.020750 0.008034 -0.002601 0.000000 0.000000 0.000000
# 2 0.008034 0.029437 -0.011684 0.000000 0.000000 0.000000
# 3 -0.002601 -0.011684 0.034487 0.000000 0.000000 0.000000
# 4 0.000000 0.000000 0.000000 0.025299 0.000000 0.000000
# 5 0.000000 0.000000 0.000000 0.000000 0.046019 0.000000
# 6 0.000000 0.000000 0.000000 0.000000 0.000000 0.069158
#
#
# Mechanical properties :
#
#
# Convention : Reuss Voigt Hill
#
# Bulk Modulus (GPa) = 13.85562 13.97022 13.91292
# Shear Modulus (GPa) = 19.10521 24.04640 21.57580
#
# Velocity S-wave (km/s) = 2.95712 3.31755 3.14251
# Velocity P-wave (km/s) = 4.24278 4.59011 4.41986
#
# Compressibility (1/GPa) = 0.07217286
#
# Stress axis : x y z
#
# Youngs Moduli (GPa) = 48.19236 33.97042 28.99673
#
# Poissons Ratio (x) = -0.27293 0.07542
# Poissons Ratio (y) = -0.38719 0.33879
# Poissons Ratio (z) = 0.12535 0.39691
#
# Static dielectric constant tensor:
#      x y z
#    x 1.811780 0.000000 0.000000 
#    y 0.000000 1.793830 0.000000 
#    z 0.000000 0.000000 1.815330 
# 
# From -- ./inp_files/7560.got.cif
#   From: 2010.05.17/outbox.cif.g08.bks.cpg/sg46_4_cif.got.tgz:7560.got - 2010.06.03 19:58:25.
