data_PCOD9378982
_publ_section_title
;
Structure prediction by ZEFSAII (Michael W. Deem and Ramdas Pophale) SiO2 
 PCOD9378982
Probable space group: I M A 2
;
_chemical_formula_sum "Si O2"
_cell_formula_units_Z 40
_cell_length_a 22.282998
_cell_length_b 16.508083
_cell_length_c 5.190108
_cell_angle_alpha 90.000000
_cell_angle_beta 90.000000
_cell_angle_gamma 90.000000
_cell_volume 1909.179050
_symmetry_space_group_name_H-M "I M A 2"
_symmetry_group_IT_number 46
_symmetry_cell_setting 'orthorhombic'
loop_
_space_group_symop_operation_xyz
x,y,z
-x,-y,z
1/2-x,y,z
1/2+x,-y,z
1/2+x,1/2+y,1/2+z
1/2-x,1/2-y,1/2+z
-x,1/2+y,1/2+z
x,1/2-y,1/2+z
loop_
_atom_site_type_symbol
_atom_site_label
_atom_site_fract_x
_atom_site_fract_y
_atom_site_fract_z
Si Si1 0.356333 0.302412 0.997070
Si Si2 0.386324 0.880430 0.646668
Si Si3 0.001977 0.200041 0.474394
Si Si4 0.684068 0.518113 0.965615
Si Si5 0.818561 0.367970 0.649264
O O1 0.342534 0.238770 0.770350
O O2 0.324013 0.387012 0.946674
O O3 0.427909 0.320582 0.995164
O O4 0.454437 0.866043 0.567655
O O5 0.344996 0.839663 0.423621
O O6 0.367673 0.974708 0.629169
O O7 0.363809 0.849443 0.920169
O O8 0.991461 0.227646 0.181159
O O9 0.750000 0.498740 0.077463
O O10 0.681757 0.466026 0.701314
O O11 0.750000 0.342417 0.603314
#
# Coordination Sequence:
#
# PCOD9378982 Si02
#       5
#     8   8   8   8   8
#     4  10  23  39  57  83 117 152 191 234 281 339
#     4  10  19  34  60  83 110 150 191 232 283 338
#     4  10  21  39  59  81 115 153 189 235 285 336
#     4   9  21  37  60  85 115 150 189 235 284 338
#     4   9  18  33  55  83 112 143 182 230 279 330
#
# _framework density 20.951412000000001
#
# number of rings (size 3 to 8) (size 9 to 14) (size 15 to 20)
#    1.200    1.200    0.000    2.400    2.800    1.600 
#    0.000    0.000    4.400   20.400    0.000    0.000 
#    0.000    0.000    0.000    0.000    0.000    0.000 
#
# Total GULP energy -111437.242810 kJ/mol
# GULP energy per Si atom -5571.862141 kJ/mol
# Density = 2.090373 g / cm^3
# Si number density = 20.951412 Si / 1000 Ang^3
#
#
#
# Elastic Constant Matrix: (Units=GPa)
#
#
# Indices 1 2 3 4 5 6 
#
# 1 33.3103 20.0666 14.0354 0.0000 0.0000 0.0000
# 2 20.0666 75.2554 -6.2306 0.0000 0.0000 0.0000
# 3 14.0354 -6.2306 101.5116 0.0000 0.0000 0.0000
# 4 0.0000 0.0000 0.0000 11.6926 0.0000 0.0000
# 5 0.0000 0.0000 0.0000 0.0000 15.6331 0.0000
# 6 0.0000 0.0000 0.0000 0.0000 0.0000 33.8967
#
#
#
# Elastic Compliance Matrix: (Units=1/GPa)
#
#
# Indices 1 2 3 4 5 6 
#
# 1 0.039185 -0.010953 -0.006090 0.000000 0.000000 0.000000
# 2 -0.010953 0.016417 0.002522 0.000000 0.000000 0.000000
# 3 -0.006090 0.002522 0.010848 0.000000 0.000000 0.000000
# 4 0.000000 0.000000 0.000000 0.085524 0.000000 0.000000
# 5 0.000000 0.000000 0.000000 0.000000 0.063967 0.000000
# 6 0.000000 0.000000 0.000000 0.000000 0.000000 0.029501
#
#
# Mechanical properties :
#
#
# Convention : Reuss Voigt Hill
#
# Bulk Modulus (GPa) = 26.73182 29.53556 28.13369
# Shear Modulus (GPa) = 17.42439 24.39153 20.90796
#
# Velocity S-wave (km/s) = 2.88697 3.41573 3.16242
# Velocity P-wave (km/s) = 4.88871 5.44831 5.17608
#
# Compressibility (1/GPa) = 0.03740860
#
# Stress axis : x y z
#
# Youngs Moduli (GPa) = 25.52004 60.91098 92.18343
#
# Poissons Ratio (x) = 0.66714 0.56141
# Poissons Ratio (y) = 0.27951 -0.23249
# Poissons Ratio (z) = 0.15542 -0.15362
#
# Static dielectric constant tensor:
#      x y z
#    x 1.747330 0.000000 0.000000 
#    y 0.000000 1.776400 0.000000 
#    z 0.000000 0.000000 1.750020 
# 
# From -- ./inp_files/1985.got.cif
#   From: 2010.05.17/outbox.cif.g08.bks.cpg/sg46_1_cif.got.tgz:1985.got - 2010.06.03 19:58:25.
