data_PCOD9378952
_publ_section_title
;
Structure prediction by ZEFSAII (Michael W. Deem and Ramdas Pophale) SiO2 
 PCOD9378952
Probable space group: I M A 2
;
_chemical_formula_sum "Si O2"
_cell_formula_units_Z 48
_cell_length_a 15.397387
_cell_length_b 10.069907
_cell_length_c 12.013870
_cell_angle_alpha 90.000000
_cell_angle_beta 90.000000
_cell_angle_gamma 90.000000
_cell_volume 1862.753609
_symmetry_space_group_name_H-M "I M A 2"
_symmetry_group_IT_number 46
_symmetry_cell_setting 'orthorhombic'
loop_
_space_group_symop_operation_xyz
x,y,z
-x,-y,z
1/2-x,y,z
1/2+x,-y,z
1/2+x,1/2+y,1/2+z
1/2-x,1/2-y,1/2+z
-x,1/2+y,1/2+z
x,1/2-y,1/2+z
loop_
_atom_site_type_symbol
_atom_site_label
_atom_site_fract_x
_atom_site_fract_y
_atom_site_fract_z
Si Si1 0.355841 0.955943 0.635410
Si Si2 0.922399 0.166932 0.182050
Si Si3 0.115160 0.253906 0.676899
Si Si4 0.654055 0.412363 0.892222
Si Si5 0.899860 0.374196 0.435380
Si Si6 0.110713 0.173217 0.918111
O O1 0.250000 0.955922 0.638354
O O2 0.389770 0.820471 0.690048
O O3 0.387190 0.953222 0.507160
O O4 0.391927 0.095118 0.674121
O O5 0.894350 0.069894 0.278723
O O6 0.887194 0.113616 0.067190
O O7 0.024154 0.175062 0.176954
O O8 0.144282 0.287518 0.544931
O O9 0.143735 0.261211 0.811300
O O10 0.750000 0.466749 0.885772
O O11 0.655599 0.252133 0.901578
O O12 0.869868 0.517490 0.393993
O O13 0.002747 0.333074 0.417978
#
# Coordination Sequence:
#
# PCOD9378952 Si02
#       6
#     8   8   8   8   8   8
#     4  10  22  37  57  87 121 157 198 249 308 367
#     4  10  19  34  57  86 116 150 197 249 305 356
#     4  11  22  38  60  87 118 157 202 244 296 361
#     4  10  19  34  58  88 119 150 194 253 308 360
#     4   9  19  35  53  81 120 150 190 244 300 358
#     4  10  21  37  59  84 114 154 198 246 291 348
#
# _framework density 25.768304000000001
#
# number of rings (size 3 to 8) (size 9 to 14) (size 15 to 20)
#    0.000    2.000    1.667    2.000    2.333    2.000 
#    0.000    1.667    0.000    0.000    0.000    0.000 
#    0.000    0.000    0.000    0.000    0.000    0.000 
#
# Total GULP energy -133756.109760 kJ/mol
# GULP energy per Si atom -5573.171240 kJ/mol
# Density = 2.570965 g / cm^3
# Si number density = 25.768304 Si / 1000 Ang^3
#
#
#
# Elastic Constant Matrix: (Units=GPa)
#
#
# Indices 1 2 3 4 5 6 
#
# 1 47.0510 4.5683 7.7706 0.0000 0.0000 0.0000
# 2 4.5683 111.7153 23.7448 0.0000 0.0000 0.0000
# 3 7.7706 23.7448 198.9023 0.0000 0.0000 0.0000
# 4 0.0000 0.0000 0.0000 -6.6921 0.0000 0.0000
# 5 0.0000 0.0000 0.0000 0.0000 -5.7485 0.0000
# 6 0.0000 0.0000 0.0000 0.0000 0.0000 -27.0741
#
#
#
# Elastic Compliance Matrix: (Units=1/GPa)
#
#
# Indices 1 2 3 4 5 6 
#
# 1 0.021447 -0.000717 -0.000752 0.000000 0.000000 0.000000
# 2 -0.000717 0.009208 -0.001071 0.000000 0.000000 0.000000
# 3 -0.000752 -0.001071 0.005185 0.000000 0.000000 0.000000
# 4 0.000000 0.000000 0.000000 -0.149429 0.000000 0.000000
# 5 0.000000 0.000000 0.000000 0.000000 -0.173959 0.000000
# 6 0.000000 0.000000 0.000000 0.000000 0.000000 -0.036936
#
#
# Mechanical properties :
#
#
# Convention : Reuss Voigt Hill
#
# Bulk Modulus (GPa) = 32.51057 47.75958 40.13507
# Shear Modulus (GPa) = -16.17343 13.53605 -1.31869
#
# Velocity S-wave (km/s) = -2.50801 2.29443 -0.71614
# Velocity P-wave (km/s) = 2.06327 5.05902 3.86334
#
# Compressibility (1/GPa) = 0.03075923
#
# Stress axis : x y z
#
# Youngs Moduli (GPa) = 46.62568 108.59711 192.86883
#
# Poissons Ratio (x) = 0.07788 0.14509
# Poissons Ratio (y) = 0.03344 0.20661
# Poissons Ratio (z) = 0.03508 0.11634
#
# Static dielectric constant tensor:
#      x y z
#    x 1.980910 0.000000 0.000000 
#    y 0.000000 2.021480 0.000000 
#    z 0.000000 0.000000 2.195300 
# 
# From -- ./inp_files/11792.got.cif
#   From: 2010.05.17/outbox.cif.g08.bks.cpg/sg46_6_cif.got.tgz:11792.got - 2010.06.03 19:58:25.
