data_PCOD9378028
_publ_section_title
;
Structure prediction by ZEFSAII (Michael W. Deem and Ramdas Pophale) SiO2 
 PCOD9378028
Probable space group: I M A 2
;
_chemical_formula_sum "Si O2"
_cell_formula_units_Z 48
_cell_length_a 21.642137
_cell_length_b 12.875620
_cell_length_c 7.693494
_cell_angle_alpha 90.000000
_cell_angle_beta 90.000000
_cell_angle_gamma 90.000000
_cell_volume 2143.837741
_symmetry_space_group_name_H-M "I M A 2"
_symmetry_group_IT_number 46
_symmetry_cell_setting 'orthorhombic'
loop_
_space_group_symop_operation_xyz
x,y,z
-x,-y,z
1/2-x,y,z
1/2+x,-y,z
1/2+x,1/2+y,1/2+z
1/2-x,1/2-y,1/2+z
-x,1/2+y,1/2+z
x,1/2-y,1/2+z
loop_
_atom_site_type_symbol
_atom_site_label
_atom_site_fract_x
_atom_site_fract_y
_atom_site_fract_z
Si Si1 0.680231 0.592673 0.064140
Si Si2 0.949768 0.379033 0.358973
Si Si3 0.180231 0.092674 0.153806
Si Si4 0.084925 0.123725 0.858973
Si Si5 0.853644 0.144221 0.156450
Si Si6 0.646356 0.144221 0.561494
O O1 0.750000 0.627306 0.105399
O O2 0.628470 0.638349 0.191529
O O3 0.677946 0.467235 0.092575
O O4 0.668228 0.611551 0.858973
O O5 0.939002 0.504171 0.358975
O O6 0.912652 0.350516 0.531818
O O7 0.912652 0.350517 0.186127
O O8 0.017212 0.326057 0.358972
O O9 0.250000 0.127306 0.112547
O O10 0.177946 0.967235 0.125369
O O11 0.128471 0.138350 0.026417
O O12 0.869305 0.145448 0.358972
O O13 0.818004 0.250000 0.108972
#
# Coordination Sequence:
#
# PCOD9378028 Si02
#       6
#     8   8   8   8   8   8
#     4   9  18  30  44  65  92 120 152 188 222 263
#     4   9  18  30  44  64  86 119 156 190 227 264
#     4   9  18  30  44  65  92 120 152 188 222 263
#     4   9  17  30  46  62  87 119 156 190 225 264
#     4  10  18  29  44  63  92 125 153 184 221 263
#     4  10  18  29  44  63  92 125 153 184 221 263
#
# _framework density 22.389752999999999
#
# number of rings (size 3 to 8) (size 9 to 14) (size 15 to 20)
#    0.000    2.667    1.667    0.500    0.000    2.000 
#    0.000    6.667    0.000    0.000    0.000    0.000 
#    0.000    5.333    0.000    0.000    0.000    0.000 
#
# Total GULP energy -133816.309726 kJ/mol
# GULP energy per Si atom -5575.679572 kJ/mol
# Density = 2.233879 g / cm^3
# Si number density = 22.389753 Si / 1000 Ang^3
#
#
#
# Elastic Constant Matrix: (Units=GPa)
#
#
# Indices 1 2 3 4 5 6 
#
# 1 208.5561 2.0468 108.6493 0.0000 0.0000 0.0000
# 2 2.0468 72.4657 16.4488 0.0000 0.0000 0.0000
# 3 108.6493 16.4488 133.4200 0.0000 0.0000 0.0000
# 4 0.0000 0.0000 0.0000 15.4992 0.0000 0.0000
# 5 0.0000 0.0000 0.0000 0.0000 73.3456 0.0000
# 6 0.0000 0.0000 0.0000 0.0000 0.0000 -9.4752
#
#
#
# Elastic Compliance Matrix: (Units=1/GPa)
#
#
# Indices 1 2 3 4 5 6 
#
# 1 0.008457 0.001362 -0.007055 0.000000 0.000000 0.000000
# 2 0.001362 0.014416 -0.002887 0.000000 0.000000 0.000000
# 3 -0.007055 -0.002887 0.013596 0.000000 0.000000 0.000000
# 4 0.000000 0.000000 0.000000 0.064520 0.000000 0.000000
# 5 0.000000 0.000000 0.000000 0.000000 0.013634 0.000000
# 6 0.000000 0.000000 0.000000 0.000000 0.000000 -0.105539
#
#
# Mechanical properties :
#
#
# Convention : Reuss Voigt Hill
#
# Bulk Modulus (GPa) = 51.78393 74.30350 63.04371
# Shear Modulus (GPa) = 153.00685 35.02705 94.01695
#
# Velocity S-wave (km/s) = 8.27564 3.95957 6.48708
# Velocity P-wave (km/s) = 10.70017 7.35953 9.18304
#
# Compressibility (1/GPa) = 0.01931101
#
# Stress axis : x y z
#
# Youngs Moduli (GPa) = 118.25038 69.36536 73.55197
#
# Poissons Ratio (x) = -0.09451 0.51888
# Poissons Ratio (y) = -0.16111 0.21233
# Poissons Ratio (z) = 0.83420 0.20025
#
# Static dielectric constant tensor:
#      x y z
#    x 1.838590 0.000000 0.000000 
#    y 0.000000 1.942470 0.000000 
#    z 0.000000 0.000000 1.762530 
# 
# From -- ./inp_files/6712.got.cif
#   From: 2010.05.17/outbox.cif.g08.bks.cpg/sg46_4_cif.got.tgz:6712.got - 2010.06.03 19:58:25.
