data_PCOD9378324
_publ_section_title
;
Structure prediction by ZEFSAII (Michael W. Deem and Ramdas Pophale) SiO2 
 PCOD9378324
Probable space group: I M A 2
;
_chemical_formula_sum "Si O2"
_cell_formula_units_Z 64
_cell_length_a 7.757529
_cell_length_b 21.106985
_cell_length_c 20.333636
_cell_angle_alpha 90.000000
_cell_angle_beta 90.000000
_cell_angle_gamma 90.000000
_cell_volume 3329.389872
_symmetry_space_group_name_H-M "I M A 2"
_symmetry_group_IT_number 46
_symmetry_cell_setting 'orthorhombic'
loop_
_space_group_symop_operation_xyz
x,y,z
-x,-y,z
1/2-x,y,z
1/2+x,-y,z
1/2+x,1/2+y,1/2+z
1/2-x,1/2-y,1/2+z
-x,1/2+y,1/2+z
x,1/2-y,1/2+z
loop_
_atom_site_type_symbol
_atom_site_label
_atom_site_fract_x
_atom_site_fract_y
_atom_site_fract_z
Si Si1 0.457709 0.258005 0.742390
Si Si2 0.540038 0.889943 0.593641
Si Si3 0.039350 0.258544 0.597013
Si Si4 0.455165 0.430566 0.952605
Si Si5 0.054836 0.801614 0.383143
Si Si6 0.459600 0.391159 0.237731
Si Si7 0.042533 0.431086 0.377987
Si Si8 0.051231 0.184055 0.964486
O O1 0.250000 0.261496 0.744879
O O2 0.514788 0.279775 0.669852
O O3 0.526311 0.294656 0.805379
O O4 0.502517 0.183327 0.746464
O O5 0.750000 0.893255 0.594124
O O6 0.493542 0.815499 0.588339
O O7 0.477048 0.923820 0.527753
O O8 0.479290 0.912784 0.665537
O O9 0.250000 0.259494 0.596063
O O10 0.974123 0.298517 0.535295
O O11 0.500000 0.500000 0.926773
O O12 0.250000 0.424603 0.955186
O O13 0.519301 0.371590 0.909930
O O14 0.250000 0.784732 0.398896
O O15 0.947440 0.748018 0.421091
O O16 0.250000 0.394879 0.236337
O O17 0.523912 0.425685 0.302916
O O18 0.250000 0.424358 0.374127
O O19 0.974769 0.373231 0.422089
O O20 0.000000 0.500000 0.405084
O O21 0.250000 0.166189 0.977154
#
# Coordination Sequence:
#
# PCOD9378324 Si02
#       8
#     8   8   8   8   8   8   8   8
#     4   9  16  31  55  79 102 131 173 220 266 316
#     4   8  14  26  49  76 102 132 170 212 252 304
#     4   8  14  27  54  83 100 125 173 222 263 313
#     4  11  22  37  55  76 107 144 182 223 267 317
#     4  12  23  34  52  80 110 140 176 219 267 319
#     4   8  14  27  48  75 102 135 175 211 251 305
#     4  10  20  32  49  72 105 141 174 210 252 305
#     4  10  18  34  57  79 101 136 180 222 265 312
#
# _framework density 19.222742
#
# number of rings (size 3 to 8) (size 9 to 14) (size 15 to 20)
#    0.000    2.500    2.500    3.000    0.000    1.000 
#    0.000    0.625    0.000    1.500    0.000    1.750 
#    0.000    0.000    0.000    0.000    0.000    0.000 
#
# Total GULP energy -178492.146381 kJ/mol
# GULP energy per Si atom -5577.879574 kJ/mol
# Density = 1.917899 g / cm^3
# Si number density = 19.222742 Si / 1000 Ang^3
#
#
#
# Elastic Constant Matrix: (Units=GPa)
#
#
# Indices 1 2 3 4 5 6 
#
# 1 31.6818 -7.4228 -1.8322 0.0000 0.0000 0.0000
# 2 -7.4228 94.5112 55.4107 0.0000 0.0000 0.0000
# 3 -1.8322 55.4107 121.4637 0.0000 0.0000 0.0000
# 4 0.0000 0.0000 0.0000 32.2938 0.0000 0.0000
# 5 0.0000 0.0000 0.0000 0.0000 -41.4292 0.0000
# 6 0.0000 0.0000 0.0000 0.0000 0.0000 10.4086
#
#
#
# Elastic Compliance Matrix: (Units=1/GPa)
#
#
# Indices 1 2 3 4 5 6 
#
# 1 0.032229 0.003066 -0.000913 0.000000 0.000000 0.000000
# 2 0.003066 0.014736 -0.006676 0.000000 0.000000 0.000000
# 3 -0.000913 -0.006676 0.011265 0.000000 0.000000 0.000000
# 4 0.000000 0.000000 0.000000 0.030966 0.000000 0.000000
# 5 0.000000 0.000000 0.000000 0.000000 -0.024138 0.000000
# 6 0.000000 0.000000 0.000000 0.000000 0.000000 0.096074
#
#
# Mechanical properties :
#
#
# Convention : Reuss Voigt Hill
#
# Bulk Modulus (GPa) = 20.33135 37.77422 29.05278
# Shear Modulus (GPa) = 26.79933 13.68805 20.24369
#
# Velocity S-wave (km/s) = 3.73788 2.67137 3.24869
# Velocity P-wave (km/s) = 5.40635 5.40448 5.40542
#
# Compressibility (1/GPa) = 0.04918512
#
# Stress axis : x y z
#
# Youngs Moduli (GPa) = 31.02751 67.86260 88.77299
#
# Poissons Ratio (x) = -0.20809 0.08102
# Poissons Ratio (y) = -0.09514 0.59265
# Poissons Ratio (z) = 0.02832 0.45305
#
# Static dielectric constant tensor:
#      x y z
#    x 1.702810 0.000000 0.000000 
#    y 0.000000 1.575700 0.000000 
#    z 0.000000 0.000000 1.703320 
# 
# From -- ./inp_files/21433.got.cif
#   From: 2010.05.17/outbox.cif.g08.bks.cpg/sg46_11_cif.got.tgz:21433.got - 2010.06.03 19:58:25.
