data_PCOD9378141
_publ_section_title
;
Structure prediction by ZEFSAII (Michael W. Deem and Ramdas Pophale) SiO2 
 PCOD9378141
Probable space group: I M A 2
;
_chemical_formula_sum "Si O2"
_cell_formula_units_Z 52
_cell_length_a 9.708162
_cell_length_b 10.835045
_cell_length_c 27.248215
_cell_angle_alpha 90.000000
_cell_angle_beta 90.000000
_cell_angle_gamma 90.000000
_cell_volume 2866.195379
_symmetry_space_group_name_H-M "I M A 2"
_symmetry_group_IT_number 46
_symmetry_cell_setting 'orthorhombic'
loop_
_space_group_symop_operation_xyz
x,y,z
-x,-y,z
1/2-x,y,z
1/2+x,-y,z
1/2+x,1/2+y,1/2+z
1/2-x,1/2-y,1/2+z
-x,1/2+y,1/2+z
x,1/2-y,1/2+z
loop_
_atom_site_type_symbol
_atom_site_label
_atom_site_fract_x
_atom_site_fract_y
_atom_site_fract_z
Si Si1 0.088135 0.376220 0.868400
Si Si2 0.911012 0.623929 0.752216
Si Si3 0.500000 0.500000 0.608418
Si Si4 0.089322 0.117324 0.916492
Si Si5 0.911190 0.378701 0.076514
Si Si6 0.900499 0.681667 0.529450
Si Si7 0.094566 0.774860 0.173422
O O1 0.250000 0.399164 0.879904
O O2 0.078905 0.348706 0.810075
O O3 0.043857 0.251466 0.896244
O O4 0.000000 0.500000 0.878816
O O5 0.750000 0.606193 0.739949
O O6 0.000000 0.500000 0.744954
O O7 0.982226 0.722190 0.716318
O O8 0.594611 0.578144 0.571594
O O9 0.577397 0.401895 0.642534
O O10 0.250000 0.101499 0.902299
O O11 0.083595 0.125780 0.975583
O O12 0.000000 0.000000 0.900067
O O13 0.750000 0.396161 0.066764
O O14 0.926063 0.330006 0.132500
O O15 0.000000 0.500000 0.069660
O O16 0.976886 0.274188 0.042023
O O17 0.750000 0.744212 0.531455
O O18 0.250000 0.767764 0.193112
#
# Coordination Sequence:
#
# PCOD9378141 Si02
#       7
#     8   8   4   8   8   8   8
#     4   9  20  38  58  82 112 146 190 239 288 342
#     4  10  19  32  53  79 108 141 180 230 281 331
#     4  10  18  30  52  82 112 138 172 214 266 328
#     4  10  21  38  59  85 116 149 190 236 287 343
#     4  10  22  38  54  75 107 146 186 226 271 330
#     4  10  20  34  55  80 109 144 180 223 272 328
#     4  10  20  32  51  79 109 139 176 220 270 326
#
# _framework density 18.142517999999999
#
# number of rings (size 3 to 8) (size 9 to 14) (size 15 to 20)
#    0.000    2.154    1.538    1.385    0.000    6.154 
#    0.000    2.308    0.000    3.692    0.000    0.000 
#    0.000    0.000    0.000    0.000    0.000    0.000 
#
# Total GULP energy -144977.414339 kJ/mol
# GULP energy per Si atom -5576.054398 kJ/mol
# Density = 1.810122 g / cm^3
# Si number density = 18.142518 Si / 1000 Ang^3
#
#
#
# Elastic Constant Matrix: (Units=GPa)
#
#
# Indices 1 2 3 4 5 6 
#
# 1 116.0787 49.3821 25.2072 0.0000 0.0000 0.0000
# 2 49.3821 91.4013 18.5810 0.0000 0.0000 0.0000
# 3 25.2072 18.5810 44.8159 0.0000 0.0000 0.0000
# 4 0.0000 0.0000 0.0000 10.0494 0.0000 0.0000
# 5 0.0000 0.0000 0.0000 0.0000 20.8943 0.0000
# 6 0.0000 0.0000 0.0000 0.0000 0.0000 28.1088
#
#
#
# Elastic Compliance Matrix: (Units=1/GPa)
#
#
# Indices 1 2 3 4 5 6 
#
# 1 0.011934 -0.005551 -0.004411 0.000000 0.000000 0.000000
# 2 -0.005551 0.014530 -0.002902 0.000000 0.000000 0.000000
# 3 -0.004411 -0.002902 0.025998 0.000000 0.000000 0.000000
# 4 0.000000 0.000000 0.000000 0.099508 0.000000 0.000000
# 5 0.000000 0.000000 0.000000 0.000000 0.047860 0.000000
# 6 0.000000 0.000000 0.000000 0.000000 0.000000 0.035576
#
#
# Mechanical properties :
#
#
# Convention : Reuss Voigt Hill
#
# Bulk Modulus (GPa) = 37.40592 48.73738 43.07165
# Shear Modulus (GPa) = 18.51541 22.41887 20.46714
#
# Velocity S-wave (km/s) = 3.19808 3.51908 3.36241
# Velocity P-wave (km/s) = 5.85658 6.59043 6.23431
#
# Compressibility (1/GPa) = 0.02673373
#
# Stress axis : x y z
#
# Youngs Moduli (GPa) = 83.79225 68.82392 38.46492
#
# Poissons Ratio (x) = 0.38205 0.16967
# Poissons Ratio (y) = 0.46514 0.11162
# Poissons Ratio (z) = 0.36961 0.19972
#
# Static dielectric constant tensor:
#      x y z
#    x 1.631330 0.000000 0.000000 
#    y 0.000000 1.618080 0.000000 
#    z 0.000000 0.000000 1.619710 
# 
# From -- ./inp_files/24195.got.cif
#   From: 2010.05.17/outbox.cif.g08.bks.cpg/sg46_13_cif.got.tgz:24195.got - 2010.06.03 19:58:25.
