data_PCOD9378483
_publ_section_title
;
Structure prediction by ZEFSAII (Michael W. Deem and Ramdas Pophale) SiO2 
 PCOD9378483
Probable space group: I M A 2
;
_chemical_formula_sum "Si O2"
_cell_formula_units_Z 56
_cell_length_a 8.832426
_cell_length_b 18.771672
_cell_length_c 20.858968
_cell_angle_alpha 90.000000
_cell_angle_beta 90.000000
_cell_angle_gamma 90.000000
_cell_volume 3458.404459
_symmetry_space_group_name_H-M "I M A 2"
_symmetry_group_IT_number 46
_symmetry_cell_setting 'orthorhombic'
loop_
_space_group_symop_operation_xyz
x,y,z
-x,-y,z
1/2-x,y,z
1/2+x,-y,z
1/2+x,1/2+y,1/2+z
1/2-x,1/2-y,1/2+z
-x,1/2+y,1/2+z
x,1/2-y,1/2+z
loop_
_atom_site_type_symbol
_atom_site_label
_atom_site_fract_x
_atom_site_fract_y
_atom_site_fract_z
Si Si1 0.569096 0.848501 0.021020
Si Si2 0.430522 0.422065 0.134652
Si Si3 0.423521 0.716669 0.716290
Si Si4 0.432749 0.577414 0.647469
Si Si5 0.428467 0.150477 0.772440
Si Si6 0.430401 0.578882 0.395803
Si Si7 0.424095 0.711801 0.074604
O O1 0.750000 0.853798 0.021658
O O2 0.501264 0.893327 0.080737
O O3 0.516814 0.766899 0.031291
O O4 0.501195 0.879867 0.956032
O O5 0.500000 0.500000 0.127206
O O6 0.250000 0.423860 0.126982
O O7 0.461853 0.392888 0.206785
O O8 0.501880 0.364946 0.085801
O O9 0.250000 0.718321 0.739798
O O10 0.471111 0.635622 0.702319
O O11 0.527009 0.767594 0.758793
O O12 0.423522 0.751912 0.645289
O O13 0.500000 0.500000 0.660536
O O14 0.250000 0.575582 0.641966
O O15 0.250000 0.143937 0.785723
O O16 0.523059 0.118467 0.830542
O O17 0.500000 0.500000 0.394189
O O18 0.250000 0.575008 0.402144
O O19 0.250000 0.706610 0.053334
#
# Coordination Sequence:
#
# PCOD9378483 Si02
#       7
#     8   8   8   8   8   8   8
#     4  11  21  34  50  69  96 128 163 199 238 284
#     4  10  19  30  47  72 100 129 160 198 243 287
#     4   8  16  30  47  67  93 125 158 194 236 283
#     4  10  19  31  48  72 100 128 160 197 241 286
#     4  10  20  33  49  70  96 127 163 199 237 282
#     4  12  24  37  51  69  96 129 165 200 236 278
#     4   9  17  31  49  69  94 124 159 197 239 286
#
# _framework density 16.192439
#
# number of rings (size 3 to 8) (size 9 to 14) (size 15 to 20)
#    0.000    2.000    0.000    6.000    0.000    6.857 
#    0.000    0.000    0.000    0.000    0.000    1.000 
#    0.000    2.286    0.000    0.000    0.000    0.000 
#
# Total GULP energy -156244.602503 kJ/mol
# GULP energy per Si atom -5580.164375 kJ/mol
# Density = 1.615558 g / cm^3
# Si number density = 16.192439 Si / 1000 Ang^3
#
#
#
# Elastic Constant Matrix: (Units=GPa)
#
#
# Indices 1 2 3 4 5 6 
#
# 1 117.3931 69.4049 45.3216 0.0000 0.0000 0.0000
# 2 69.4049 158.8557 45.7755 0.0000 0.0000 0.0000
# 3 45.3216 45.7755 50.6216 0.0000 0.0000 0.0000
# 4 0.0000 0.0000 0.0000 21.1797 0.0000 0.0000
# 5 0.0000 0.0000 0.0000 0.0000 22.7392 0.0000
# 6 0.0000 0.0000 0.0000 0.0000 0.0000 33.0839
#
#
#
# Elastic Compliance Matrix: (Units=1/GPa)
#
#
# Indices 1 2 3 4 5 6 
#
# 1 0.014298 -0.003460 -0.009673 0.000000 0.000000 0.000000
# 2 -0.003460 0.009350 -0.005358 0.000000 0.000000 0.000000
# 3 -0.009673 -0.005358 0.033259 0.000000 0.000000 0.000000
# 4 0.000000 0.000000 0.000000 0.047215 0.000000 0.000000
# 5 0.000000 0.000000 0.000000 0.000000 0.043977 0.000000
# 6 0.000000 0.000000 0.000000 0.000000 0.000000 0.030226
#
#
# Mechanical properties :
#
#
# Convention : Reuss Voigt Hill
#
# Bulk Modulus (GPa) = 50.18191 71.98605 61.08398
# Shear Modulus (GPa) = 22.52769 26.49178 24.50973
#
# Velocity S-wave (km/s) = 3.73399 4.04921 3.89479
# Velocity P-wave (km/s) = 7.04617 8.14951 7.61784
#
# Compressibility (1/GPa) = 0.01992750
#
# Stress axis : x y z
#
# Youngs Moduli (GPa) = 69.93938 106.94632 30.06674
#
# Poissons Ratio (x) = 0.37000 0.29083
# Poissons Ratio (y) = 0.24197 0.16109
# Poissons Ratio (z) = 0.67650 0.57301
#
# Static dielectric constant tensor:
#      x y z
#    x 1.541180 0.000000 0.000000 
#    y 0.000000 1.548000 0.000000 
#    z 0.000000 0.000000 1.516380 
# 
# From -- ./inp_files/21231.got.cif
#   From: 2010.05.17/outbox.cif.g08.bks.cpg/sg46_11_cif.got.tgz:21231.got - 2010.06.03 19:58:25.
