data_PCOD9378213
_publ_section_title
;
Structure prediction by ZEFSAII (Michael W. Deem and Ramdas Pophale) SiO2 
 PCOD9378213
Probable space group: I M A 2
;
_chemical_formula_sum "Si O2"
_cell_formula_units_Z 60
_cell_length_a 18.466487
_cell_length_b 18.329678
_cell_length_c 9.238508
_cell_angle_alpha 90.000000
_cell_angle_beta 90.000000
_cell_angle_gamma 90.000000
_cell_volume 3127.094168
_symmetry_space_group_name_H-M "I M A 2"
_symmetry_group_IT_number 46
_symmetry_cell_setting 'orthorhombic'
loop_
_space_group_symop_operation_xyz
x,y,z
-x,-y,z
1/2-x,y,z
1/2+x,-y,z
1/2+x,1/2+y,1/2+z
1/2-x,1/2-y,1/2+z
-x,1/2+y,1/2+z
x,1/2-y,1/2+z
loop_
_atom_site_type_symbol
_atom_site_label
_atom_site_fract_x
_atom_site_fract_y
_atom_site_fract_z
Si Si1 0.960452 0.078058 0.859010
Si Si2 0.441338 0.341287 0.857063
Si Si3 0.645077 0.266985 0.120706
Si Si4 0.164629 0.022937 0.351619
Si Si5 0.667187 0.428032 0.130616
Si Si6 0.945501 0.068937 0.190914
Si Si7 0.020961 0.208703 0.674830
Si Si8 0.750000 0.283707 0.395538
O O1 0.888080 0.071237 0.762921
O O2 0.007788 0.140701 0.782385
O O3 0.945777 0.096147 0.026362
O O4 0.000000 0.000000 0.852753
O O5 0.379651 0.402113 0.835716
O O6 0.517605 0.377218 0.806349
O O7 0.433464 0.270951 0.754873
O O8 0.446186 0.317892 0.023692
O O9 0.659726 0.348587 0.055647
O O10 0.559625 0.260757 0.140111
O O11 0.686626 0.270877 0.272320
O O12 0.686352 0.210886 0.020194
O O13 0.250000 0.032034 0.330137
O O14 0.152435 0.990031 0.512673
O O15 0.130558 0.962980 0.243892
O O16 0.750000 0.433768 0.182951
O O17 0.000000 0.000000 0.191400
#
# Coordination Sequence:
#
# PCOD9378213 Si02
#       8
#     8   8   8   8   8   8   8   4
#     4  10  20  35  60  90 119 155 198 250 300 354
#     4  11  22  40  61  91 120 159 204 255 310 365
#     4  10  20  33  50  76 113 159 192 230 284 359
#     4  10  22  40  65  87 117 160 210 258 307 366
#     4  10  19  36  55  78 114 153 206 248 287 359
#     4   9  19  36  58  85 118 151 196 248 301 363
#     4  11  22  36  60  85 122 156 208 248 301 367
#     4  10  18  32  48  70 120 156 184 224 284 344
#
# _framework density 19.187141
#
# number of rings (size 3 to 8) (size 9 to 14) (size 15 to 20)
#    0.000    1.867    1.333    4.000    0.000    2.667 
#    0.000    3.333    0.000    0.800    0.000    0.000 
#    0.000    0.000    0.000    0.000    0.000    0.000 
#
# Total GULP energy -167011.526475 kJ/mol
# GULP energy per Si atom -5567.050882 kJ/mol
# Density = 1.914347 g / cm^3
# Si number density = 19.187141 Si / 1000 Ang^3
#
#
#
# Elastic Constant Matrix: (Units=GPa)
#
#
# Indices 1 2 3 4 5 6 
#
# 1 70.3651 33.5841 32.1466 0.0000 0.0000 0.0000
# 2 33.5841 91.6638 49.0499 0.0000 0.0000 0.0000
# 3 32.1466 49.0499 116.1651 0.0000 0.0000 0.0000
# 4 0.0000 0.0000 0.0000 32.6613 0.0000 0.0000
# 5 0.0000 0.0000 0.0000 0.0000 18.3547 0.0000
# 6 0.0000 0.0000 0.0000 0.0000 0.0000 21.5650
#
#
#
# Elastic Compliance Matrix: (Units=1/GPa)
#
#
# Indices 1 2 3 4 5 6 
#
# 1 0.017913 -0.005052 -0.002824 0.000000 0.000000 0.000000
# 2 -0.005052 0.015519 -0.005155 0.000000 0.000000 0.000000
# 3 -0.002824 -0.005155 0.011566 0.000000 0.000000 0.000000
# 4 0.000000 0.000000 0.000000 0.030617 0.000000 0.000000
# 5 0.000000 0.000000 0.000000 0.000000 0.054482 0.000000
# 6 0.000000 0.000000 0.000000 0.000000 0.000000 0.046372
#
#
# Mechanical properties :
#
#
# Convention : Reuss Voigt Hill
#
# Bulk Modulus (GPa) = 52.80654 56.41727 54.61191
# Shear Modulus (GPa) = 23.94153 25.41040 24.67597
#
# Velocity S-wave (km/s) = 3.53624 3.64310 3.59007
# Velocity P-wave (km/s) = 6.65244 6.86759 6.76087
#
# Compressibility (1/GPa) = 0.01893705
#
# Stress axis : x y z
#
# Youngs Moduli (GPa) = 55.82562 64.43872 86.45720
#
# Poissons Ratio (x) = 0.32554 0.24415
# Poissons Ratio (y) = 0.28202 0.44565
# Poissons Ratio (z) = 0.15765 0.33216
#
# Static dielectric constant tensor:
#      x y z
#    x 1.650010 0.000000 0.000000 
#    y 0.000000 1.729230 0.000000 
#    z 0.000000 0.000000 1.663470 
# 
# From -- ./inp_files/6799.got.cif
#   From: 2010.05.17/outbox.cif.g08.bks.cpg/sg46_4_cif.got.tgz:6799.got - 2010.06.03 19:58:25.
