data_PCOD9378798
_publ_section_title
;
Structure prediction by ZEFSAII (Michael W. Deem and Ramdas Pophale) SiO2 
 PCOD9378798
Probable space group: I M A 2
;
_chemical_formula_sum "Si O2"
_cell_formula_units_Z 64
_cell_length_a 8.747149
_cell_length_b 21.216664
_cell_length_c 19.953888
_cell_angle_alpha 90.000000
_cell_angle_beta 90.000000
_cell_angle_gamma 90.000000
_cell_volume 3703.148715
_symmetry_space_group_name_H-M "I M A 2"
_symmetry_group_IT_number 46
_symmetry_cell_setting 'orthorhombic'
loop_
_space_group_symop_operation_xyz
x,y,z
-x,-y,z
1/2-x,y,z
1/2+x,-y,z
1/2+x,1/2+y,1/2+z
1/2-x,1/2-y,1/2+z
-x,1/2+y,1/2+z
x,1/2-y,1/2+z
loop_
_atom_site_type_symbol
_atom_site_label
_atom_site_fract_x
_atom_site_fract_y
_atom_site_fract_z
Si Si1 0.431962 0.756383 0.645360
Si Si2 0.065559 0.190165 0.514871
Si Si3 0.932566 0.883543 0.143310
Si Si4 0.068046 0.762221 0.797602
Si Si5 0.067193 0.314978 0.429435
Si Si6 0.433816 0.065939 0.433176
Si Si7 0.065434 0.121739 0.293799
Si Si8 0.568394 0.433477 0.508386
O O1 0.250000 0.745077 0.640035
O O2 0.488754 0.801671 0.586849
O O3 0.518440 0.689688 0.636757
O O4 0.463900 0.780669 0.720469
O O5 0.250000 0.190119 0.521691
O O6 0.024437 0.251552 0.470562
O O7 0.019456 0.126512 0.476752
O O8 0.750000 0.888905 0.135074
O O9 0.975141 0.902240 0.219474
O O10 0.014668 0.921313 0.084762
O O11 0.250000 0.762840 0.807835
O O12 0.988690 0.804365 0.853772
O O13 0.006604 0.690716 0.803817
O O14 0.250000 0.320587 0.431640
O O15 0.993969 0.375323 0.464782
O O16 0.250000 0.063199 0.434527
O O17 0.481466 0.078884 0.356145
O O18 0.500000 0.000000 0.457156
O O19 0.250000 0.128992 0.295539
O O20 0.500000 0.500000 0.485466
O O21 0.750000 0.435061 0.505437
#
# Coordination Sequence:
#
# PCOD9378798 Si02
#       8
#     8   8   8   8   8   8   8   8
#     4  10  20  33  53  83 115 144 182 230 278 326
#     4  10  20  35  57  80 109 144 185 230 278 332
#     4  10  19  33  54  79 110 150 189 226 272 326
#     4  10  20  33  53  84 115 143 180 229 279 328
#     4  11  21  37  60  84 110 145 186 231 280 331
#     4  10  21  37  53  77 109 145 185 227 273 324
#     4   9  18  34  53  75 110 151 189 226 269 324
#     4  12  25  40  57  80 113 149 187 231 278 334
#
# _framework density 17.282589000000002
#
# number of rings (size 3 to 8) (size 9 to 14) (size 15 to 20)
#    0.000    1.750    2.500    2.625    0.000    4.000 
#    0.000    1.250    0.000    0.750    0.000    1.750 
#    0.000    0.000    0.000    0.000    0.000    0.000 
#
# Total GULP energy -178698.674172 kJ/mol
# GULP energy per Si atom -5584.333568 kJ/mol
# Density = 1.724325 g / cm^3
# Si number density = 17.282589 Si / 1000 Ang^3
#
#
#
# Elastic Constant Matrix: (Units=GPa)
#
#
# Indices 1 2 3 4 5 6 
#
# 1 53.0316 40.4474 39.4586 0.0000 0.0000 0.0000
# 2 40.4474 116.4779 59.9959 0.0000 0.0000 0.0000
# 3 39.4586 59.9959 101.3936 0.0000 0.0000 0.0000
# 4 0.0000 0.0000 0.0000 20.9215 0.0000 0.0000
# 5 0.0000 0.0000 0.0000 0.0000 26.5307 0.0000
# 6 0.0000 0.0000 0.0000 0.0000 0.0000 26.4895
#
#
#
# Elastic Compliance Matrix: (Units=1/GPa)
#
#
# Indices 1 2 3 4 5 6 
#
# 1 0.029356 -0.006199 -0.007756 0.000000 0.000000 0.000000
# 2 -0.006199 0.013658 -0.005669 0.000000 0.000000 0.000000
# 3 -0.007756 -0.005669 0.016236 0.000000 0.000000 0.000000
# 4 0.000000 0.000000 0.000000 0.047798 0.000000 0.000000
# 5 0.000000 0.000000 0.000000 0.000000 0.037692 0.000000
# 6 0.000000 0.000000 0.000000 0.000000 0.000000 0.037751
#
#
# Mechanical properties :
#
#
# Convention : Reuss Voigt Hill
#
# Bulk Modulus (GPa) = 49.99836 61.18964 55.59400
# Shear Modulus (GPa) = 21.89091 23.52176 22.70634
#
# Velocity S-wave (km/s) = 3.56286 3.69319 3.62861
# Velocity P-wave (km/s) = 6.77628 7.32587 7.05643
#
# Compressibility (1/GPa) = 0.02000065
#
# Stress axis : x y z
#
# Youngs Moduli (GPa) = 34.06510 73.21707 61.59299
#
# Poissons Ratio (x) = 0.45385 0.47773
# Poissons Ratio (y) = 0.21116 0.34919
# Poissons Ratio (z) = 0.26422 0.41509
#
# Static dielectric constant tensor:
#      x y z
#    x 1.581100 0.000000 0.000000 
#    y 0.000000 1.562820 0.000000 
#    z 0.000000 0.000000 1.600100 
# 
# From -- ./inp_files/18527.got.cif
#   From: 2010.05.17/outbox.cif.g08.bks.cpg/sg46_10_cif.got.tgz:18527.got - 2010.06.03 19:58:25.
