data_PCOD9378715
_publ_section_title
;
Structure prediction by ZEFSAII (Michael W. Deem and Ramdas Pophale) SiO2 
 PCOD9378715
Probable space group: I M A 2
;
_chemical_formula_sum "Si O2"
_cell_formula_units_Z 56
_cell_length_a 8.717590
_cell_length_b 14.908221
_cell_length_c 22.248705
_cell_angle_alpha 90.000000
_cell_angle_beta 90.000000
_cell_angle_gamma 90.000000
_cell_volume 2891.525319
_symmetry_space_group_name_H-M "I M A 2"
_symmetry_group_IT_number 46
_symmetry_cell_setting 'orthorhombic'
loop_
_space_group_symop_operation_xyz
x,y,z
-x,-y,z
1/2-x,y,z
1/2+x,-y,z
1/2+x,1/2+y,1/2+z
1/2-x,1/2-y,1/2+z
-x,1/2+y,1/2+z
x,1/2-y,1/2+z
loop_
_atom_site_type_symbol
_atom_site_label
_atom_site_fract_x
_atom_site_fract_y
_atom_site_fract_z
Si Si1 0.932698 0.904800 0.362900
Si Si2 0.565239 0.404714 0.283864
Si Si3 0.434657 0.720031 0.393832
Si Si4 0.434726 0.599643 0.506520
Si Si5 0.433875 0.720575 0.620606
Si Si6 0.566960 0.904431 0.649775
Si Si7 0.065932 0.403402 0.721891
O O1 0.750000 0.907876 0.366409
O O2 0.975690 0.893239 0.292184
O O3 0.996090 0.818726 0.397184
O O4 0.000000 0.000000 0.383133
O O5 0.500000 0.500000 0.306461
O O6 0.750000 0.409494 0.278880
O O7 0.523414 0.327453 0.330868
O O8 0.493835 0.391272 0.218133
O O9 0.250000 0.726735 0.395660
O O10 0.484468 0.655492 0.447959
O O11 0.500000 0.500000 0.507262
O O12 0.250000 0.593843 0.505114
O O13 0.477645 0.655548 0.565778
O O14 0.250000 0.728063 0.623141
O O15 0.505819 0.818825 0.613895
O O16 0.494870 0.674123 0.681249
O O17 0.750000 0.907762 0.650007
O O18 0.500000 0.000000 0.629031
O O19 0.250000 0.403201 0.716515
O O20 0.000000 0.500000 0.701943
#
# Coordination Sequence:
#
# PCOD9378715 Si02
#       7
#     8   8   8   8   8   8   8
#     4  10  21  36  56  82 111 144 181 225 274 327
#     4  10  19  32  54  83 115 148 182 223 273 327
#     4  10  21  37  56  80 111 147 185 226 272 321
#     4  10  23  41  60  83 112 145 182 226 270 318
#     4  11  22  37  57  81 111 147 187 229 275 325
#     4  11  22  37  57  82 113 145 182 227 276 330
#     4  10  20  34  54  83 116 148 184 226 276 330
#
# _framework density 19.36694
#
# number of rings (size 3 to 8) (size 9 to 14) (size 15 to 20)
#    0.000    1.714    0.000    5.571    0.000    8.000 
#    0.000    0.714    0.000    0.000    0.000    0.000 
#    0.000    0.000    0.000    0.000    0.000    0.000 
#
# Total GULP energy -156516.642304 kJ/mol
# GULP energy per Si atom -5589.880082 kJ/mol
# Density = 1.932286 g / cm^3
# Si number density = 19.366940 Si / 1000 Ang^3
#
#
#
# Elastic Constant Matrix: (Units=GPa)
#
#
# Indices 1 2 3 4 5 6 
#
# 1 57.7857 50.1591 22.8652 0.0000 0.0000 0.0000
# 2 50.1591 200.0418 57.0162 0.0000 0.0000 0.0000
# 3 22.8652 57.0162 42.2026 0.0000 0.0000 0.0000
# 4 0.0000 0.0000 0.0000 31.2665 0.0000 0.0000
# 5 0.0000 0.0000 0.0000 0.0000 16.9445 0.0000
# 6 0.0000 0.0000 0.0000 0.0000 0.0000 39.7628
#
#
#
# Elastic Compliance Matrix: (Units=1/GPa)
#
#
# Indices 1 2 3 4 5 6 
#
# 1 0.023596 -0.003696 -0.007791 0.000000 0.000000 0.000000
# 2 -0.003696 0.008708 -0.009762 0.000000 0.000000 0.000000
# 3 -0.007791 -0.009762 0.041106 0.000000 0.000000 0.000000
# 4 0.000000 0.000000 0.000000 0.031983 0.000000 0.000000
# 5 0.000000 0.000000 0.000000 0.000000 0.059016 0.000000
# 6 0.000000 0.000000 0.000000 0.000000 0.000000 0.025149
#
#
# Mechanical properties :
#
#
# Convention : Reuss Voigt Hill
#
# Bulk Modulus (GPa) = 32.35083 62.23457 47.29270
# Shear Modulus (GPa) = 20.63038 28.92741 24.77889
#
# Velocity S-wave (km/s) = 3.26734 3.86897 3.58081
# Velocity P-wave (km/s) = 5.56547 7.22238 6.44737
#
# Compressibility (1/GPa) = 0.03091111
#
# Stress axis : x y z
#
# Youngs Moduli (GPa) = 42.37939 114.83441 24.32764
#
# Poissons Ratio (x) = 0.42443 0.18954
# Poissons Ratio (y) = 0.15663 0.23750
# Poissons Ratio (z) = 0.33018 1.12106
#
# Static dielectric constant tensor:
#      x y z
#    x 1.647290 0.000000 0.000000 
#    y 0.000000 1.671530 0.000000 
#    z 0.000000 0.000000 1.674440 
# 
# From -- ./inp_files/21092.got.cif
#   From: 2010.05.17/outbox.cif.g08.bks.cpg/sg46_11_cif.got.tgz:21092.got - 2010.06.03 19:58:25.
