data_PCOD9378063
_publ_section_title
;
Structure prediction by ZEFSAII (Michael W. Deem and Ramdas Pophale) SiO2 
 PCOD9378063
Probable space group: I M A 2
;
_chemical_formula_sum "Si O2"
_cell_formula_units_Z 64
_cell_length_a 8.598128
_cell_length_b 21.502653
_cell_length_c 16.069238
_cell_angle_alpha 90.000000
_cell_angle_beta 90.000000
_cell_angle_gamma 90.000000
_cell_volume 2970.921904
_symmetry_space_group_name_H-M "I M A 2"
_symmetry_group_IT_number 46
_symmetry_cell_setting 'orthorhombic'
loop_
_space_group_symop_operation_xyz
x,y,z
-x,-y,z
1/2-x,y,z
1/2+x,-y,z
1/2+x,1/2+y,1/2+z
1/2-x,1/2-y,1/2+z
-x,1/2+y,1/2+z
x,1/2-y,1/2+z
loop_
_atom_site_type_symbol
_atom_site_label
_atom_site_fract_x
_atom_site_fract_y
_atom_site_fract_z
Si Si1 0.936428 0.430376 0.235080
Si Si2 0.069785 0.750903 0.320069
Si Si3 0.435437 0.701132 0.990059
Si Si4 0.063273 0.570234 0.419047
Si Si5 0.067904 0.313766 0.160379
Si Si6 0.561713 0.429210 0.599309
Si Si7 0.930857 0.623649 0.767957
Si Si8 0.430643 0.433828 0.941109
O O1 0.750000 0.430680 0.229777
O O2 0.983281 0.405731 0.328042
O O3 0.000000 0.500000 0.226533
O O4 0.005965 0.384110 0.167767
O O5 0.250000 0.730409 0.318012
O O6 0.011059 0.752984 0.415486
O O7 0.977302 0.716622 0.247963
O O8 0.049870 0.822803 0.294517
O O9 0.250000 0.700556 0.985336
O O10 0.494810 0.630562 0.973736
O O11 0.488183 0.719314 0.082077
O O12 0.250000 0.568224 0.418572
O O13 0.019798 0.598868 0.508176
O O14 0.000000 0.500000 0.420021
O O15 0.250000 0.313030 0.147773
O O16 0.500000 0.500000 0.598403
O O17 0.750000 0.428081 0.608738
O O18 0.478281 0.397863 0.676853
O O19 0.750000 0.645504 0.769563
O O20 0.942496 0.571908 0.840227
O O21 0.500000 0.500000 0.968278
O O22 0.250000 0.432235 0.964080
#
# Coordination Sequence:
#
# PCOD9378063 Si02
#       8
#     8   8   8   8   8   8   8   8
#     4  10  20  38  62  89 122 158 200 248 304 363
#     4  10  22  43  67  89 117 157 202 253 306 359
#     4  10  22  42  67  92 121 159 204 255 308 361
#     4   8  16  30  49  73 106 148 189 237 290 343
#     4  12  25  42  66  95 126 161 202 248 304 367
#     4  10  18  29  47  75 111 154 201 251 303 361
#     4  10  20  34  53  80 115 156 200 252 306 361
#     4  10  20  34  55  85 122 161 202 248 304 367
#
# _framework density 21.542134000000001
#
# number of rings (size 3 to 8) (size 9 to 14) (size 15 to 20)
#    0.000    2.000    0.000    3.750    0.000    5.500 
#    2.250    2.500    0.000    0.000    0.000    0.000 
#    0.000    0.000    0.000    0.000    0.000    0.000 
#
# Total GULP energy -178619.270075 kJ/mol
# GULP energy per Si atom -5581.852190 kJ/mol
# Density = 2.149310 g / cm^3
# Si number density = 21.542134 Si / 1000 Ang^3
#
#
#
# Elastic Constant Matrix: (Units=GPa)
#
#
# Indices 1 2 3 4 5 6 
#
# 1 61.6307 4.3442 23.0749 0.0000 0.0000 0.0000
# 2 4.3442 27.5731 14.0234 0.0000 0.0000 0.0000
# 3 23.0749 14.0234 131.3697 0.0000 0.0000 0.0000
# 4 0.0000 0.0000 0.0000 18.3874 0.0000 0.0000
# 5 0.0000 0.0000 0.0000 0.0000 21.2629 0.0000
# 6 0.0000 0.0000 0.0000 0.0000 0.0000 26.7672
#
#
#
# Elastic Compliance Matrix: (Units=1/GPa)
#
#
# Indices 1 2 3 4 5 6 
#
# 1 0.017409 -0.001256 -0.002924 0.000000 0.000000 0.000000
# 2 -0.001256 0.038440 -0.003883 0.000000 0.000000 0.000000
# 3 -0.002924 -0.003883 0.008540 0.000000 0.000000 0.000000
# 4 0.000000 0.000000 0.000000 0.054385 0.000000 0.000000
# 5 0.000000 0.000000 0.000000 0.000000 0.047030 0.000000
# 6 0.000000 0.000000 0.000000 0.000000 0.000000 0.037359
#
#
# Mechanical properties :
#
#
# Convention : Reuss Voigt Hill
#
# Bulk Modulus (GPa) = 20.71931 33.71759 27.21845
# Shear Modulus (GPa) = 21.24257 25.22555 23.23406
#
# Velocity S-wave (km/s) = 3.14362 3.42568 3.28768
# Velocity P-wave (km/s) = 4.77655 5.59758 5.20328
#
# Compressibility (1/GPa) = 0.04826416
#
# Stress axis : x y z
#
# Youngs Moduli (GPa) = 57.44191 26.01464 117.09404
#
# Poissons Ratio (x) = 0.03267 0.34236
# Poissons Ratio (y) = 0.07214 0.45465
# Poissons Ratio (z) = 0.16795 0.10101
#
# Static dielectric constant tensor:
#      x y z
#    x 1.724010 0.000000 0.000000 
#    y 0.000000 1.806210 0.000000 
#    z 0.000000 0.000000 1.840280 
# 
# From -- ./inp_files/14480.got.cif
#   From: 2010.05.17/outbox.cif.g08.bks.cpg/sg46_8_cif.got.tgz:14480.got - 2010.06.03 19:58:25.
