data_PCOD9378009
_publ_section_title
;
Structure prediction by ZEFSAII (Michael W. Deem and Ramdas Pophale) SiO2 
 PCOD9378009
Probable space group: I M A 2
;
_chemical_formula_sum "Si O2"
_cell_formula_units_Z 56
_cell_length_a 8.835115
_cell_length_b 19.615238
_cell_length_c 18.379991
_cell_angle_alpha 90.000000
_cell_angle_beta 90.000000
_cell_angle_gamma 90.000000
_cell_volume 3185.305439
_symmetry_space_group_name_H-M "I M A 2"
_symmetry_group_IT_number 46
_symmetry_cell_setting 'orthorhombic'
loop_
_space_group_symop_operation_xyz
x,y,z
-x,-y,z
1/2-x,y,z
1/2+x,-y,z
1/2+x,1/2+y,1/2+z
1/2-x,1/2-y,1/2+z
-x,1/2+y,1/2+z
x,1/2-y,1/2+z
loop_
_atom_site_type_symbol
_atom_site_label
_atom_site_fract_x
_atom_site_fract_y
_atom_site_fract_z
Si Si1 0.568918 0.432490 0.711290
Si Si2 0.433308 0.425015 0.096485
Si Si3 0.430622 0.700584 0.185434
Si Si4 0.570741 0.932801 0.050002
Si Si5 0.577106 0.785870 0.062455
Si Si6 0.422048 0.157032 0.457116
Si Si7 0.068913 0.800635 0.306100
O O1 0.500000 0.500000 0.747928
O O2 0.750000 0.438680 0.704066
O O3 0.493035 0.429298 0.632132
O O4 0.531874 0.364794 0.754891
O O5 0.500000 0.500000 0.110639
O O6 0.250000 0.425619 0.097985
O O7 0.490765 0.367692 0.154036
O O8 0.481137 0.399174 0.015103
O O9 0.250000 0.689920 0.187201
O O10 0.469574 0.760024 0.126799
O O11 0.482499 0.732024 0.263269
O O12 0.750000 0.942219 0.050508
O O13 0.534233 0.856654 0.023581
O O14 0.500000 0.000000 0.014327
O O15 0.750000 0.794309 0.091362
O O16 0.581180 0.725233 0.005338
O O17 0.250000 0.137641 0.437580
O O18 0.508263 0.178109 0.384617
O O19 0.250000 0.795344 0.310530
#
# Coordination Sequence:
#
# PCOD9378009 Si02
#       7
#     8   8   8   8   8   8   8
#     4  10  19  31  44  67 100 131 165 200 237 288
#     4  10  21  38  58  83 109 139 181 225 272 326
#     4  10  19  33  54  78 104 136 175 222 266 312
#     4  10  18  28  46  70  97 126 160 201 245 292
#     4   9  18  33  50  72  99 130 171 215 255 309
#     4   9  20  35  52  74 102 135 174 214 261 317
#     4  10  21  34  49  74 107 139 176 215 258 313
#
# _framework density 17.580732000000001
#
# number of rings (size 3 to 8) (size 9 to 14) (size 15 to 20)
#    0.000    2.286    1.429    3.429    0.000    6.286 
#    0.000    2.857    0.000    0.857    0.000    4.000 
#    0.000    0.000    0.000    0.000    0.000    0.000 
#
# Total GULP energy -155875.086552 kJ/mol
# GULP energy per Si atom -5566.967377 kJ/mol
# Density = 1.754072 g / cm^3
# Si number density = 17.580732 Si / 1000 Ang^3
#
#
#
# Elastic Constant Matrix: (Units=GPa)
#
#
# Indices 1 2 3 4 5 6 
#
# 1 33.7178 34.8206 16.6780 0.0000 0.0000 0.0000
# 2 34.8206 122.4541 17.1963 0.0000 0.0000 0.0000
# 3 16.6780 17.1963 47.2242 0.0000 0.0000 0.0000
# 4 0.0000 0.0000 0.0000 9.3006 0.0000 0.0000
# 5 0.0000 0.0000 0.0000 0.0000 19.7764 0.0000
# 6 0.0000 0.0000 0.0000 0.0000 0.0000 27.2964
#
#
#
# Elastic Compliance Matrix: (Units=1/GPa)
#
#
# Indices 1 2 3 4 5 6 
#
# 1 0.048274 -0.011944 -0.012699 0.000000 0.000000 0.000000
# 2 -0.011944 0.011561 0.000008 0.000000 0.000000 0.000000
# 3 -0.012699 0.000008 0.025658 0.000000 0.000000 0.000000
# 4 0.000000 0.000000 0.000000 0.107520 0.000000 0.000000
# 5 0.000000 0.000000 0.000000 0.000000 0.050565 0.000000
# 6 0.000000 0.000000 0.000000 0.000000 0.000000 0.036635
#
#
# Mechanical properties :
#
#
# Convention : Reuss Voigt Hill
#
# Bulk Modulus (GPa) = 27.60687 37.86510 32.73599
# Shear Modulus (GPa) = 14.63886 20.25478 17.44682
#
# Velocity S-wave (km/s) = 2.88872 3.39794 3.15363
# Velocity P-wave (km/s) = 5.18298 6.08106 5.64989
#
# Compressibility (1/GPa) = 0.03622286
#
# Stress axis : x y z
#
# Youngs Moduli (GPa) = 20.71519 86.49455 38.97469
#
# Poissons Ratio (x) = 1.03305 0.49496
# Poissons Ratio (y) = 0.24741 -0.00031
# Poissons Ratio (z) = 0.26307 -0.00070
#
# Static dielectric constant tensor:
#      x y z
#    x 1.614440 0.000000 0.000000 
#    y 0.000000 1.664350 0.000000 
#    z 0.000000 0.000000 1.592720 
# 
# From -- ./inp_files/18474.got.cif
#   From: 2010.05.17/outbox.cif.g08.bks.cpg/sg46_10_cif.got.tgz:18474.got - 2010.06.03 19:58:25.
