data_PCOD9378414
_publ_section_title
;
Structure prediction by ZEFSAII (Michael W. Deem and Ramdas Pophale) SiO2 
 PCOD9378414
Probable space group: I M A 2
;
_chemical_formula_sum "Si O2"
_cell_formula_units_Z 36
_cell_length_a 9.513431
_cell_length_b 18.734270
_cell_length_c 11.049351
_cell_angle_alpha 90.000000
_cell_angle_beta 90.000000
_cell_angle_gamma 90.000000
_cell_volume 1969.294725
_symmetry_space_group_name_H-M "I M A 2"
_symmetry_group_IT_number 46
_symmetry_cell_setting 'orthorhombic'
loop_
_space_group_symop_operation_xyz
x,y,z
-x,-y,z
1/2-x,y,z
1/2+x,-y,z
1/2+x,1/2+y,1/2+z
1/2-x,1/2-y,1/2+z
-x,1/2+y,1/2+z
x,1/2-y,1/2+z
loop_
_atom_site_type_symbol
_atom_site_label
_atom_site_fract_x
_atom_site_fract_y
_atom_site_fract_z
Si Si1 0.750000 0.374976 0.942641
Si Si2 0.750000 0.045175 0.097823
Si Si3 0.052808 0.656079 0.725199
Si Si4 0.750000 0.541111 0.009940
Si Si5 0.250000 0.784817 0.685423
Si Si6 0.500000 0.000000 0.668435
Si Si7 0.250000 0.574376 0.315976
Si Si8 0.250000 0.395706 0.743277
O O1 0.883954 0.357452 0.858949
O O2 0.750000 0.457830 0.973248
O O3 0.750000 0.331243 0.065051
O O4 0.618745 0.091987 0.145559
O O5 0.750000 0.968271 0.162552
O O6 0.750000 0.046801 0.953187
O O7 0.117728 0.731478 0.686846
O O8 0.888307 0.649328 0.718292
O O9 0.750000 0.583097 0.884881
O O10 0.894625 0.548532 0.086671
O O11 0.250000 0.840012 0.797548
O O12 0.610254 0.044781 0.748922
#
# Coordination Sequence:
#
# PCOD9378414 Si02
#       8
#     4   4   8   4   4   4   4   4
#     4  10  18  40  63  87 115 168 203 249 296 375
#     4  10  23  39  61  91 122 167 205 251 311 375
#     4  10  24  37  63  94 119 169 204 249 315 358
#     4  11  19  36  65  92 127 145 204 265 316 346
#     4  10  22  43  64  81 127 171 217 228 303 388
#     4  10  22  36  58 100 114 166 200 248 326 350
#     4  11  24  41  63  87 129 160 209 254 300 384
#     4  12  22  39  62 100 132 145 208 277 310 350
#
# _framework density 18.280657000000001
#
# number of rings (size 3 to 8) (size 9 to 14) (size 15 to 20)
#    0.000    1.778    4.444    2.000    9.333    0.000 
#    0.000    3.333    0.000    0.000    0.000    0.000 
#    0.000    0.000    0.000    0.000    0.000    0.000 
#
# Total GULP energy -100453.971067 kJ/mol
# GULP energy per Si atom -5580.776170 kJ/mol
# Density = 1.823905 g / cm^3
# Si number density = 18.280657 Si / 1000 Ang^3
#
#
#
# Elastic Constant Matrix: (Units=GPa)
#
#
# Indices 1 2 3 4 5 6 
#
# 1 170.7115 32.4986 27.8481 0.0000 0.0000 0.0000
# 2 32.4986 64.5111 0.7950 0.0001 0.0000 0.0000
# 3 27.8481 0.7950 88.8426 0.0001 0.0000 0.0000
# 4 0.0000 0.0001 0.0001 9.5472 0.0000 0.0000
# 5 0.0000 0.0000 0.0000 0.0000 7.1492 0.0000
# 6 0.0000 0.0000 0.0000 0.0000 0.0000 1.6931
#
#
#
# Elastic Compliance Matrix: (Units=1/GPa)
#
#
# Indices 1 2 3 4 5 6 
#
# 1 0.006856 -0.003428 -0.002118 0.000000 0.000000 0.000000
# 2 -0.003428 0.017217 0.000920 0.000000 0.000000 0.000000
# 3 -0.002118 0.000920 0.011912 0.000000 0.000000 0.000000
# 4 0.000000 0.000000 0.000000 0.104742 0.000000 -0.000001
# 5 0.000000 0.000000 0.000000 0.000000 0.139875 -0.000001
# 6 0.000000 0.000000 0.000000 -0.000001 -0.000001 0.590625
#
#
# Mechanical properties :
#
#
# Convention : Reuss Voigt Hill
#
# Bulk Modulus (GPa) = 37.40717 49.59428 43.50073
# Shear Modulus (GPa) = 5.62184 21.20615 13.41399
#
# Velocity S-wave (km/s) = 1.75555 3.40962 2.71178
# Velocity P-wave (km/s) = 4.96149 6.53368 5.80109
#
# Compressibility (1/GPa) = 0.02673284
#
# Stress axis : x y z
#
# Youngs Moduli (GPa) = 145.85899 58.08335 83.95156
#
# Poissons Ratio (x) = 0.19909 0.17784
# Poissons Ratio (y) = 0.49996 -0.07727
# Poissons Ratio (z) = 0.30898 -0.05346
#
# Static dielectric constant tensor:
#      x y z
#    x 1.632990 0.000000 0.000000 
#    y 0.000000 1.603750 0.000000 
#    z 0.000000 0.000000 1.651670 
# 
# From -- ./inp_files/9154.got.cif
#   From: 2010.05.17/outbox.cif.g08.bks.cpg/sg46_5_cif.got.tgz:9154.got - 2010.06.03 19:58:25.
