data_PCOD9378804
_publ_section_title
;
Structure prediction by ZEFSAII (Michael W. Deem and Ramdas Pophale) SiO2 
 PCOD9378804
Probable space group: I M A 2
;
_chemical_formula_sum "Si O2"
_cell_formula_units_Z 48
_cell_length_a 10.816047
_cell_length_b 25.556981
_cell_length_c 10.188250
_cell_angle_alpha 90.000000
_cell_angle_beta 90.000000
_cell_angle_gamma 90.000000
_cell_volume 2816.292179
_symmetry_space_group_name_H-M "I M A 2"
_symmetry_group_IT_number 46
_symmetry_cell_setting 'orthorhombic'
loop_
_space_group_symop_operation_xyz
x,y,z
-x,-y,z
1/2-x,y,z
1/2+x,-y,z
1/2+x,1/2+y,1/2+z
1/2-x,1/2-y,1/2+z
-x,1/2+y,1/2+z
x,1/2-y,1/2+z
loop_
_atom_site_type_symbol
_atom_site_label
_atom_site_fract_x
_atom_site_fract_y
_atom_site_fract_z
Si Si1 0.882295 0.191739 0.515390
Si Si2 0.394721 0.043036 0.692497
Si Si3 0.106624 0.115660 0.453713
Si Si4 0.533411 0.255466 0.271563
Si Si5 0.102177 0.142233 0.879574
Si Si6 0.396851 0.151516 0.174606
O O1 0.750000 0.163191 0.506468
O O2 0.893358 0.231285 0.393559
O O3 0.888544 0.222976 0.650727
O O4 0.003547 0.155495 0.507348
O O5 0.250000 0.027271 0.715997
O O6 0.401769 0.064372 0.542899
O O7 0.423159 0.092589 0.786905
O O8 0.500000 0.000000 0.713650
O O9 0.250000 0.134910 0.469067
O O10 0.080756 0.112758 0.297777
O O11 0.454801 0.304350 0.324537
O O12 0.452355 0.207485 0.215305
O O13 0.250000 0.148179 0.879184
O O14 0.058951 0.134595 0.030410
O O15 0.250000 0.157442 0.165338
#
# Coordination Sequence:
#
# PCOD9378804 Si02
#       6
#     8   8   8   8   8   8
#     4  11  22  33  49  75 112 149 180 214 260 316
#     4  10  21  38  59  82 105 134 178 232 283 329
#     4   9  19  36  57  78 104 137 181 225 264 315
#     4  11  19  33  49  76 113 149 182 211 262 315
#     4  10  19  33  54  81 110 141 183 228 266 314
#     4   9  18  31  53  82 110 143 178 217 259 310
#
# _framework density 17.043686999999998
#
# number of rings (size 3 to 8) (size 9 to 14) (size 15 to 20)
#    0.000    2.000    3.333    1.000    0.000    2.000 
#    0.000    0.833    0.000    0.000    0.000    0.000 
#    0.000    0.000    0.000    0.000    0.000    0.000 
#
# Total GULP energy -133649.872570 kJ/mol
# GULP energy per Si atom -5568.744690 kJ/mol
# Density = 1.700489 g / cm^3
# Si number density = 17.043687 Si / 1000 Ang^3
#
#
#
# Elastic Constant Matrix: (Units=GPa)
#
#
# Indices 1 2 3 4 5 6 
#
# 1 61.9249 36.3371 28.2252 0.0000 -0.0001 -0.0002
# 2 36.3371 54.2206 29.2724 0.0000 0.0000 0.0000
# 3 28.2252 29.2724 119.7027 0.0003 -0.0021 -0.0010
# 4 0.0000 0.0000 0.0003 14.1977 -0.0002 0.0000
# 5 -0.0001 0.0000 -0.0021 -0.0002 -9.4232 0.0005
# 6 -0.0002 0.0000 -0.0010 0.0000 0.0005 4.8026
#
#
#
# Elastic Compliance Matrix: (Units=1/GPa)
#
#
# Indices 1 2 3 4 5 6 
#
# 1 0.027130 -0.016968 -0.002248 0.000000 0.000000 0.000000
# 2 -0.016968 0.031861 -0.003790 0.000000 0.000001 -0.000001
# 3 -0.002248 -0.003790 0.009811 0.000000 -0.000002 0.000002
# 4 0.000000 0.000000 0.000000 0.070434 -0.000002 -0.000001
# 5 0.000000 0.000001 -0.000002 -0.000002 -0.106122 0.000011
# 6 0.000000 -0.000001 0.000002 -0.000001 0.000011 0.208221
#
#
# Mechanical properties :
#
#
# Convention : Reuss Voigt Hill
#
# Bulk Modulus (GPa) = 43.87993 47.05750 45.46872
# Shear Modulus (GPa) = 16.95234 11.38299 14.16766
#
# Velocity S-wave (km/s) = 3.15721 2.58712 2.88628
# Velocity P-wave (km/s) = 6.25237 6.04931 6.15168
#
# Compressibility (1/GPa) = 0.02278946
#
# Stress axis : x y z
#
# Youngs Moduli (GPa) = 36.85970 31.38613 101.92728
#
# Poissons Ratio (x) = 0.53257 0.22909
# Poissons Ratio (y) = 0.62545 0.38635
# Poissons Ratio (z) = 0.08285 0.11897
#
# Static dielectric constant tensor:
#      x y z
#    x 1.593370 0.000000 0.000000 
#    y 0.000000 1.537670 0.000000 
#    z 0.000000 0.000000 1.617970 
# 
# From -- ./inp_files/4715.got.cif
#   From: 2010.05.17/outbox.cif.g08.bks.cpg/sg46_3_cif.got.tgz:4715.got - 2010.06.03 19:58:25.
