data_PCOD9378097
_publ_section_title
;
Structure prediction by ZEFSAII (Michael W. Deem and Ramdas Pophale) SiO2 
 PCOD9378097
Probable space group: I M A 2
;
_chemical_formula_sum "Si O2"
_cell_formula_units_Z 64
_cell_length_a 7.834678
_cell_length_b 24.219770
_cell_length_c 19.885062
_cell_angle_alpha 90.000000
_cell_angle_beta 90.000000
_cell_angle_gamma 90.000000
_cell_volume 3773.272027
_symmetry_space_group_name_H-M "I M A 2"
_symmetry_group_IT_number 46
_symmetry_cell_setting 'orthorhombic'
loop_
_space_group_symop_operation_xyz
x,y,z
-x,-y,z
1/2-x,y,z
1/2+x,-y,z
1/2+x,1/2+y,1/2+z
1/2-x,1/2-y,1/2+z
-x,1/2+y,1/2+z
x,1/2-y,1/2+z
loop_
_atom_site_type_symbol
_atom_site_label
_atom_site_fract_x
_atom_site_fract_y
_atom_site_fract_z
Si Si1 0.950813 0.223001 0.541700
Si Si2 0.955085 0.114968 0.898550
Si Si3 0.544537 0.063098 0.759086
Si Si4 0.047619 0.063269 0.041487
Si Si5 0.041052 0.837467 0.669303
Si Si6 0.959799 0.242833 0.898455
Si Si7 0.547121 0.832232 0.122045
Si Si8 0.044309 0.728369 0.751666
O O1 0.750000 0.211172 0.534602
O O2 0.021382 0.178804 0.595001
O O3 0.021637 0.228327 0.466740
O O4 0.967582 0.282442 0.578365
O O5 0.750000 0.117254 0.893777
O O6 0.019303 0.083754 0.832030
O O7 0.014406 0.178568 0.899784
O O8 0.997091 0.083107 0.966865
O O9 0.750000 0.067369 0.760592
O O10 0.483404 0.105529 0.702007
O O11 0.500000 0.000000 0.747016
O O12 0.250000 0.065634 0.045031
O O13 0.981270 0.109278 0.094105
O O14 0.000000 0.000000 0.053874
O O15 0.250000 0.837635 0.667601
O O16 0.992157 0.786813 0.718223
O O17 0.750000 0.242526 0.899281
O O18 0.013648 0.271235 0.828816
O O19 0.750000 0.829137 0.111256
O O20 0.513261 0.818816 0.200083
O O21 0.250000 0.727578 0.751893
#
# Coordination Sequence:
#
# PCOD9378097 Si02
#       8
#     8   8   8   8   8   8   8   8
#     4   9  16  28  50  70  88 117 152 188 229 275
#     4  10  18  30  47  67  94 123 154 192 225 263
#     4  10  19  30  43  61  89 122 156 189 220 255
#     4  11  23  35  47  64  91 125 161 196 229 272
#     4   8  14  26  43  63  85 114 148 183 218 256
#     4   9  15  26  48  75  93 115 151 188 225 274
#     4  10  20  32  44  66  95 120 150 192 235 274
#     4   9  16  29  49  68  89 118 151 184 226 279
#
# _framework density 16.961407000000001
#
# number of rings (size 3 to 8) (size 9 to 14) (size 15 to 20)
#    0.000    2.500    2.500    1.875    0.000    3.000 
#    0.000    3.750    0.000    0.000    0.000    0.875 
#    0.000    4.000    0.000    0.000    0.000    0.000 
#
# Total GULP energy -178397.011536 kJ/mol
# GULP energy per Si atom -5574.906610 kJ/mol
# Density = 1.692280 g / cm^3
# Si number density = 16.961407 Si / 1000 Ang^3
#
#
#
# Elastic Constant Matrix: (Units=GPa)
#
#
# Indices 1 2 3 4 5 6 
#
# 1 17.2645 2.9765 2.4162 0.0000 0.0000 0.0000
# 2 2.9765 122.6243 89.6274 0.0000 0.0000 0.0000
# 3 2.4162 89.6274 158.5300 0.0000 0.0000 0.0000
# 4 0.0000 0.0000 0.0000 20.9945 0.0000 0.0000
# 5 0.0000 0.0000 0.0000 0.0000 5.6815 0.0000
# 6 0.0000 0.0000 0.0000 0.0000 0.0000 15.5821
#
#
#
# Elastic Compliance Matrix: (Units=1/GPa)
#
#
# Indices 1 2 3 4 5 6 
#
# 1 0.058168 -0.001302 -0.000151 0.000000 0.000000 0.000000
# 2 -0.001302 0.013927 -0.007854 0.000000 0.000000 0.000000
# 3 -0.000151 -0.007854 0.010751 0.000000 0.000000 0.000000
# 4 0.000000 0.000000 0.000000 0.047632 0.000000 0.000000
# 5 0.000000 0.000000 0.000000 0.000000 0.176010 0.000000
# 6 0.000000 0.000000 0.000000 0.000000 0.000000 0.064176
#
#
# Mechanical properties :
#
#
# Convention : Reuss Voigt Hill
#
# Bulk Modulus (GPa) = 15.56836 54.27321 34.92079
# Shear Modulus (GPa) = 12.17471 22.01154 17.09312
#
# Velocity S-wave (km/s) = 2.68206 3.60633 3.17798
# Velocity P-wave (km/s) = 4.33473 7.02911 5.83945
#
# Compressibility (1/GPa) = 0.06423284
#
# Stress axis : x y z
#
# Youngs Moduli (GPa) = 17.19159 71.80156 93.01704
#
# Poissons Ratio (x) = 0.09348 0.01400
# Poissons Ratio (y) = 0.02238 0.73057
# Poissons Ratio (z) = 0.00259 0.56394
#
# Static dielectric constant tensor:
#      x y z
#    x 1.619690 0.000000 0.000000 
#    y 0.000000 1.552230 0.000000 
#    z 0.000000 0.000000 1.600060 
# 
# From -- ./inp_files/21440.got.cif
#   From: 2010.05.17/outbox.cif.g08.bks.cpg/sg46_11_cif.got.tgz:21440.got - 2010.06.03 19:58:25.
