data_PCOD9378446
_publ_section_title
;
Structure prediction by ZEFSAII (Michael W. Deem and Ramdas Pophale) SiO2 
 PCOD9378446
Probable space group: I M A 2
;
_chemical_formula_sum "Si O2"
_cell_formula_units_Z 64
_cell_length_a 8.759801
_cell_length_b 14.548049
_cell_length_c 30.422999
_cell_angle_alpha 90.000000
_cell_angle_beta 90.000000
_cell_angle_gamma 90.000000
_cell_volume 3877.046578
_symmetry_space_group_name_H-M "I M A 2"
_symmetry_group_IT_number 46
_symmetry_cell_setting 'orthorhombic'
loop_
_space_group_symop_operation_xyz
x,y,z
-x,-y,z
1/2-x,y,z
1/2+x,-y,z
1/2+x,1/2+y,1/2+z
1/2-x,1/2-y,1/2+z
-x,1/2+y,1/2+z
x,1/2-y,1/2+z
loop_
_atom_site_type_symbol
_atom_site_label
_atom_site_fract_x
_atom_site_fract_y
_atom_site_fract_z
Si Si1 0.921152 0.909465 0.697830
Si Si2 0.920967 0.907869 0.593381
Si Si3 0.432248 0.790819 0.095611
Si Si4 0.933199 0.602988 0.416339
Si Si5 0.067374 0.397600 0.513077
Si Si6 0.065831 0.895554 0.824653
Si Si7 0.064385 0.602945 0.685206
Si Si8 0.069850 0.757933 0.747607
O O1 0.750000 0.894735 0.715485
O O2 0.907254 0.921970 0.645899
O O3 0.032349 0.825732 0.707376
O O4 0.000000 0.000000 0.716934
O O5 0.750000 0.896513 0.575396
O O6 0.013790 0.813930 0.590149
O O7 0.000000 0.000000 0.575428
O O8 0.250000 0.794260 0.095527
O O9 0.498179 0.844061 0.053827
O O10 0.483424 0.840730 0.141105
O O11 0.750000 0.600116 0.410603
O O12 0.967141 0.644071 0.464532
O O13 0.000000 0.500000 0.418805
O O14 0.011244 0.640403 0.372382
O O15 0.250000 0.402232 0.516993
O O16 0.000000 0.500000 0.514195
O O17 0.250000 0.902737 0.822859
O O18 0.012836 0.819761 0.788639
O O19 0.000000 0.000000 0.818930
O O20 0.250000 0.599883 0.685299
O O21 0.013311 0.659987 0.728904
O O22 0.000000 0.500000 0.684126
O O23 0.250000 0.748067 0.754438
#
# Coordination Sequence:
#
# PCOD9378446 Si02
#       8
#     8   8   8   8   8   8   8   8
#     4  10  19  29  45  67  92 125 160 197 236 280
#     4  10  20  33  49  70  97 129 165 205 246 293
#     4  11  21  34  53  74  99 134 171 210 251 296
#     4   9  17  30  48  70 100 132 161 199 246 296
#     4  10  20  33  50  74 103 134 169 209 251 299
#     4  10  19  30  48  72 101 132 161 198 243 295
#     4  10  22  37  51  68  95 129 167 209 250 289
#     4  10  20  34  48  67  96 129 164 203 244 290
#
# _framework density 16.507411000000001
#
# number of rings (size 3 to 8) (size 9 to 14) (size 15 to 20)
#    0.000    2.000    1.250    3.750    0.000    7.000 
#    0.000    0.000    0.000    0.000    0.000    0.875 
#    0.000    4.000    0.000    0.000    0.000    0.000 
#
# Total GULP energy -178169.649183 kJ/mol
# GULP energy per Si atom -5567.801537 kJ/mol
# Density = 1.646984 g / cm^3
# Si number density = 16.507411 Si / 1000 Ang^3
#
#
#
# Elastic Constant Matrix: (Units=GPa)
#
#
# Indices 1 2 3 4 5 6 
#
# 1 36.9592 21.1028 36.4048 0.0000 0.0000 0.0000
# 2 21.1028 107.1630 51.8697 0.0000 0.0000 0.0000
# 3 36.4048 51.8697 101.7478 0.0000 0.0000 0.0000
# 4 0.0000 0.0000 0.0000 32.1514 0.0000 0.0000
# 5 0.0000 0.0000 0.0000 0.0000 19.3920 0.0000
# 6 0.0000 0.0000 0.0000 0.0000 0.0000 22.6622
#
#
#
# Elastic Compliance Matrix: (Units=1/GPa)
#
#
# Indices 1 2 3 4 5 6 
#
# 1 0.041922 -0.001321 -0.014326 0.000000 0.000000 0.000000
# 2 -0.001321 0.012430 -0.005864 0.000000 0.000000 0.000000
# 3 -0.014326 -0.005864 0.017943 0.000000 0.000000 0.000000
# 4 0.000000 0.000000 0.000000 0.031103 0.000000 0.000000
# 5 0.000000 0.000000 0.000000 0.000000 0.051568 0.000000
# 6 0.000000 0.000000 0.000000 0.000000 0.000000 0.044126
#
#
# Mechanical properties :
#
#
# Convention : Reuss Voigt Hill
#
# Bulk Modulus (GPa) = 34.16080 51.62496 42.89288
# Shear Modulus (GPa) = 19.85128 23.94065 21.89596
#
# Velocity S-wave (km/s) = 3.47157 3.81241 3.64597
# Velocity P-wave (km/s) = 6.06698 7.12187 6.61548
#
# Compressibility (1/GPa) = 0.02927332
#
# Stress axis : x y z
#
# Youngs Moduli (GPa) = 23.85359 80.45002 55.73089
#
# Poissons Ratio (x) = 0.10630 0.79840
# Poissons Ratio (y) = 0.03152 0.32680
# Poissons Ratio (z) = 0.34173 0.47175
#
# Static dielectric constant tensor:
#      x y z
#    x 1.577390 0.000000 0.000000 
#    y 0.000000 1.553960 0.000000 
#    z 0.000000 0.000000 1.601500 
# 
# From -- ./inp_files/25261.got.cif
#   From: 2010.05.17/outbox.cif.g08.bks.cpg/sg46_13_cif.got.tgz:25261.got - 2010.06.03 19:58:25.
