data_PCOD9378722
_publ_section_title
;
Structure prediction by ZEFSAII (Michael W. Deem and Ramdas Pophale) SiO2 
 PCOD9378722
Probable space group: I M A 2
;
_chemical_formula_sum "Si O2"
_cell_formula_units_Z 56
_cell_length_a 8.785125
_cell_length_b 15.693933
_cell_length_c 19.817474
_cell_angle_alpha 90.000000
_cell_angle_beta 90.000000
_cell_angle_gamma 90.000000
_cell_volume 2732.297826
_symmetry_space_group_name_H-M "I M A 2"
_symmetry_group_IT_number 46
_symmetry_cell_setting 'orthorhombic'
loop_
_space_group_symop_operation_xyz
x,y,z
-x,-y,z
1/2-x,y,z
1/2+x,-y,z
1/2+x,1/2+y,1/2+z
1/2-x,1/2-y,1/2+z
-x,1/2+y,1/2+z
x,1/2-y,1/2+z
loop_
_atom_site_type_symbol
_atom_site_label
_atom_site_fract_x
_atom_site_fract_y
_atom_site_fract_z
Si Si1 0.919560 0.882959 0.739060
Si Si2 0.568169 0.297513 0.761405
Si Si3 0.571578 0.747044 0.051715
Si Si4 0.572515 0.233664 0.412480
Si Si5 0.923210 0.084544 0.613841
Si Si6 0.423745 0.414707 0.394395
Si Si7 0.568602 0.094219 0.128441
O O1 0.750000 0.893683 0.708088
O O2 0.912958 0.921003 0.813529
O O3 0.961398 0.783272 0.746842
O O4 0.055340 0.920119 0.694398
O O5 0.750000 0.275445 0.755440
O O6 0.542671 0.314307 0.841461
O O7 0.537241 0.368428 0.704336
O O8 0.750000 0.757684 0.058480
O O9 0.509576 0.671094 0.097504
O O10 0.494384 0.835515 0.075476
O O11 0.528315 0.713705 0.977197
O O12 0.750000 0.223191 0.428797
O O13 0.531545 0.333410 0.403563
O O14 0.750000 0.090756 0.593361
O O15 0.000000 0.000000 0.584499
O O16 0.500000 0.500000 0.422587
O O17 0.250000 0.400940 0.419879
O O18 0.750000 0.089956 0.120583
O O19 0.500000 0.000000 0.120237
#
# Coordination Sequence:
#
# PCOD9378722 Si02
#       7
#     8   8   8   8   8   8   8
#     4  10  19  32  55  86 120 155 193 240 297 357
#     4   9  19  37  62  89 121 161 208 256 311 372
#     4  12  25  43  64  92 127 167 212 266 323 387
#     4  10  21  39  62  86 117 163 208 258 318 381
#     4  12  24  39  60  88 121 158 200 249 306 371
#     4  10  20  33  51  81 117 154 197 245 297 364
#     4  11  23  41  66  98 131 172 219 272 326 388
#
# _framework density 20.495570000000001
#
# number of rings (size 3 to 8) (size 9 to 14) (size 15 to 20)
#    0.000    1.429    1.429    4.714    0.000    4.571 
#    0.000    3.571    0.000    1.714    0.000    0.000 
#    0.000    0.000    0.000    0.000    0.000    0.000 
#
# Total GULP energy -156254.563662 kJ/mol
# GULP energy per Si atom -5580.520131 kJ/mol
# Density = 2.044892 g / cm^3
# Si number density = 20.495570 Si / 1000 Ang^3
#
#
#
# Elastic Constant Matrix: (Units=GPa)
#
#
# Indices 1 2 3 4 5 6 
#
# 1 113.9040 37.9146 23.9720 0.0000 0.0000 0.0000
# 2 37.9146 73.6161 3.5858 0.0000 0.0000 0.0000
# 3 23.9720 3.5858 59.6873 0.0000 0.0000 0.0000
# 4 0.0000 0.0000 0.0000 -9.3358 0.0000 0.0000
# 5 0.0000 0.0000 0.0000 0.0000 26.7543 0.0000
# 6 0.0000 0.0000 0.0000 0.0000 0.0000 27.6548
#
#
#
# Elastic Compliance Matrix: (Units=1/GPa)
#
#
# Indices 1 2 3 4 5 6 
#
# 1 0.011607 -0.005768 -0.004315 0.000000 0.000000 0.000000
# 2 -0.005768 0.016490 0.001326 0.000000 0.000000 0.000000
# 3 -0.004315 0.001326 0.018408 0.000000 0.000000 0.000000
# 4 0.000000 0.000000 0.000000 -0.107115 0.000000 0.000000
# 5 0.000000 0.000000 0.000000 0.000000 0.037377 0.000000
# 6 0.000000 0.000000 0.000000 0.000000 0.000000 0.036160
#
#
# Mechanical properties :
#
#
# Convention : Reuss Voigt Hill
#
# Bulk Modulus (GPa) = 34.49444 42.01692 38.25568
# Shear Modulus (GPa) = 124.67070 21.13033 72.90051
#
# Velocity S-wave (km/s) = 7.80770 3.21436 5.97044
# Velocity P-wave (km/s) = 9.90691 5.85842 8.13843
#
# Compressibility (1/GPa) = 0.02899018
#
# Stress axis : x y z
#
# Youngs Moduli (GPa) = 86.15128 60.64245 54.32567
#
# Poissons Ratio (x) = 0.34979 0.23443
# Poissons Ratio (y) = 0.49692 -0.07203
# Poissons Ratio (z) = 0.37177 -0.08041
#
# Static dielectric constant tensor:
#      x y z
#    x 1.718980 0.000000 0.000000 
#    y 0.000000 1.740950 0.000000 
#    z 0.000000 0.000000 1.831570 
# 
# From -- ./inp_files/21054.got.cif
#   From: 2010.05.17/outbox.cif.g08.bks.cpg/sg46_11_cif.got.tgz:21054.got - 2010.06.03 19:58:25.
