data_PCOD9378823
_publ_section_title
;
Structure prediction by ZEFSAII (Michael W. Deem and Ramdas Pophale) SiO2 
 PCOD9378823
Probable space group: I M A 2
;
_chemical_formula_sum "Si O2"
_cell_formula_units_Z 48
_cell_length_a 8.337143
_cell_length_b 23.467707
_cell_length_c 12.085843
_cell_angle_alpha 90.000000
_cell_angle_beta 90.000000
_cell_angle_gamma 90.000000
_cell_volume 2364.639044
_symmetry_space_group_name_H-M "I M A 2"
_symmetry_group_IT_number 46
_symmetry_cell_setting 'orthorhombic'
loop_
_space_group_symop_operation_xyz
x,y,z
-x,-y,z
1/2-x,y,z
1/2+x,-y,z
1/2+x,1/2+y,1/2+z
1/2-x,1/2-y,1/2+z
-x,1/2+y,1/2+z
x,1/2-y,1/2+z
loop_
_atom_site_type_symbol
_atom_site_label
_atom_site_fract_x
_atom_site_fract_y
_atom_site_fract_z
Si Si1 0.059339 0.563774 0.596650
Si Si2 0.053834 0.859461 0.289823
Si Si3 0.436532 0.563046 0.220258
Si Si4 0.434809 0.355816 0.404447
Si Si5 0.438606 0.845553 0.537260
Si Si6 0.056600 0.733392 0.233944
O O1 0.250000 0.560037 0.600074
O O2 0.998736 0.587651 0.715169
O O3 0.000000 0.500000 0.569125
O O4 0.015579 0.613097 0.508534
O O5 0.250000 0.862618 0.292836
O O6 0.993262 0.854400 0.415486
O O7 0.010937 0.799198 0.234181
O O8 0.500000 0.500000 0.212118
O O9 0.250000 0.565078 0.256835
O O10 0.541446 0.597895 0.307181
O O11 0.445637 0.595606 0.104246
O O12 0.250000 0.346059 0.429875
O O13 0.505682 0.298998 0.346879
O O14 0.250000 0.830300 0.522128
O O15 0.505782 0.799248 0.624397
O O16 0.250000 0.729305 0.231741
#
# Coordination Sequence:
#
# PCOD9378823 Si02
#       6
#     8   8   8   8   8   8
#     4  11  23  39  59  85 117 158 200 242 288 345
#     4   9  19  34  58  86 113 151 194 235 282 343
#     4  10  19  33  55  81 111 145 185 234 281 335
#     4  11  22  37  57  83 116 151 188 238 291 345
#     4   8  16  31  51  81 113 139 180 232 280 333
#     4   9  18  34  60  88 113 144 190 242 286 340
#
# _framework density 20.299081000000001
#
# number of rings (size 3 to 8) (size 9 to 14) (size 15 to 20)
#    0.000    2.333    0.000    4.000    2.333    0.667 
#    0.000    1.667    0.000   10.000    0.000    0.000 
#    0.000    0.000    0.000    0.000    0.000    0.000 
#
# Total GULP energy -133839.836648 kJ/mol
# GULP energy per Si atom -5576.659860 kJ/mol
# Density = 2.025288 g / cm^3
# Si number density = 20.299081 Si / 1000 Ang^3
#
#
#
# Elastic Constant Matrix: (Units=GPa)
#
#
# Indices 1 2 3 4 5 6 
#
# 1 24.0277 7.5662 0.3245 0.0000 0.0000 0.0000
# 2 7.5662 51.1121 3.0272 0.0000 0.0000 0.0000
# 3 0.3245 3.0272 88.4960 -0.0001 0.0001 0.0000
# 4 0.0000 0.0000 -0.0001 7.9997 0.0000 0.0000
# 5 0.0000 0.0000 0.0001 0.0000 3.2168 0.0000
# 6 0.0000 0.0000 0.0000 0.0000 0.0000 6.5606
#
#
#
# Elastic Compliance Matrix: (Units=1/GPa)
#
#
# Indices 1 2 3 4 5 6 
#
# 1 0.043654 -0.006466 0.000061 0.000000 0.000000 0.000000
# 2 -0.006466 0.020562 -0.000680 0.000000 0.000000 0.000000
# 3 0.000061 -0.000680 0.011323 0.000000 0.000000 0.000000
# 4 0.000000 0.000000 0.000000 0.125005 -0.000001 0.000000
# 5 0.000000 0.000000 0.000000 -0.000001 0.310871 0.000001
# 6 0.000000 0.000000 0.000000 0.000000 0.000001 0.152425
#
#
# Mechanical properties :
#
#
# Convention : Reuss Voigt Hill
#
# Bulk Modulus (GPa) = 16.29451 20.60796 18.45123
# Shear Modulus (GPa) = 7.15855 13.73661 10.44758
#
# Velocity S-wave (km/s) = 1.87995 2.60419 2.27112
# Velocity P-wave (km/s) = 3.57168 4.38367 3.99834
#
# Compressibility (1/GPa) = 0.06137037
#
# Stress axis : x y z
#
# Youngs Moduli (GPa) = 22.90749 48.63283 88.31604
#
# Poissons Ratio (x) = 0.31445 -0.00540
# Poissons Ratio (y) = 0.14812 0.06003
# Poissons Ratio (z) = -0.00140 0.03305
#
# Static dielectric constant tensor:
#      x y z
#    x 1.718450 0.000000 0.000000 
#    y 0.000000 1.721000 0.000000 
#    z 0.000000 0.000000 1.750920 
# 
# From -- ./inp_files/9304.got.cif
#   From: 2010.05.17/outbox.cif.g08.bks.cpg/sg46_5_cif.got.tgz:9304.got - 2010.06.03 19:58:25.
