data_PCOD9378884
_publ_section_title
;
Structure prediction by ZEFSAII (Michael W. Deem and Ramdas Pophale) SiO2 
 PCOD9378884
Probable space group: I M A 2
;
_chemical_formula_sum "Si O2"
_cell_formula_units_Z 64
_cell_length_a 8.837849
_cell_length_b 23.615526
_cell_length_c 19.461464
_cell_angle_alpha 90.000000
_cell_angle_beta 90.000000
_cell_angle_gamma 90.000000
_cell_volume 4061.810964
_symmetry_space_group_name_H-M "I M A 2"
_symmetry_group_IT_number 46
_symmetry_cell_setting 'orthorhombic'
loop_
_space_group_symop_operation_xyz
x,y,z
-x,-y,z
1/2-x,y,z
1/2+x,-y,z
1/2+x,1/2+y,1/2+z
1/2-x,1/2-y,1/2+z
-x,1/2+y,1/2+z
x,1/2-y,1/2+z
loop_
_atom_site_type_symbol
_atom_site_label
_atom_site_fract_x
_atom_site_fract_y
_atom_site_fract_z
Si Si1 0.430513 0.775920 0.845750
Si Si2 0.930552 0.561673 0.842341
Si Si3 0.069559 0.160628 0.970816
Si Si4 0.430647 0.937874 0.059806
Si Si5 0.068381 0.255176 0.704634
Si Si6 0.930472 0.723688 0.052558
Si Si7 0.429582 0.839809 0.429269
Si Si8 0.931270 0.381162 0.707137
O O1 0.250000 0.781647 0.840969
O O2 0.498038 0.821650 0.898222
O O3 0.505909 0.776622 0.771301
O O4 0.462887 0.714189 0.879806
O O5 0.750000 0.558653 0.839243
O O6 0.000000 0.500000 0.854930
O O7 0.983522 0.606299 0.899883
O O8 0.995003 0.585490 0.770334
O O9 0.250000 0.155308 0.964860
O O10 0.037399 0.213761 0.021678
O O11 0.999245 0.104955 0.004126
O O12 0.250000 0.940181 0.052544
O O13 0.464591 0.912446 0.135412
O O14 0.500000 0.000000 0.053710
O O15 0.250000 0.260399 0.708097
O O16 0.029271 0.225026 0.632677
O O17 0.996633 0.317823 0.704608
O O18 0.750000 0.714373 0.045682
O O19 0.017308 0.679484 0.004630
O O20 0.250000 0.849638 0.427371
O O21 0.750000 0.378738 0.716831
#
# Coordination Sequence:
#
# PCOD9378884 Si02
#       8
#     8   8   8   8   8   8   8   8
#     4  10  20  33  51  75 105 136 171 213 259 310
#     4  12  24  37  54  73 102 139 179 219 258 304
#     4  10  19  34  53  74 101 134 174 216 260 306
#     4  11  23  36  52  73 102 139 179 218 259 305
#     4  11  20  32  52  78 106 139 174 211 258 310
#     4   9  19  33  51  75 103 135 171 211 259 310
#     4  10  20  34  52  75 102 134 173 215 259 305
#     4  11  22  35  50  73 105 140 179 216 253 301
#
# _framework density 15.756518
#
# number of rings (size 3 to 8) (size 9 to 14) (size 15 to 20)
#    0.000    1.500    2.500    3.750    0.000    5.000 
#    0.000    0.000    0.000    0.000    0.000    0.875 
#    0.000    6.000    0.000    0.000    0.000    0.000 
#
# Total GULP energy -178776.162002 kJ/mol
# GULP energy per Si atom -5586.755063 kJ/mol
# Density = 1.572066 g / cm^3
# Si number density = 15.756518 Si / 1000 Ang^3
#
#
#
# Elastic Constant Matrix: (Units=GPa)
#
#
# Indices 1 2 3 4 5 6 
#
# 1 78.0796 57.8779 69.0251 0.0000 0.0000 0.0000
# 2 57.8779 99.4187 70.9284 0.0000 0.0000 0.0000
# 3 69.0251 70.9284 142.9475 0.0000 0.0000 0.0000
# 4 0.0000 0.0000 0.0000 15.7791 0.0000 0.0000
# 5 0.0000 0.0000 0.0000 0.0000 28.5005 0.0000
# 6 0.0000 0.0000 0.0000 0.0000 0.0000 27.6606
#
#
#
# Elastic Compliance Matrix: (Units=1/GPa)
#
#
# Indices 1 2 3 4 5 6 
#
# 1 0.027734 -0.010204 -0.008329 0.000000 0.000000 0.000000
# 2 -0.010204 0.019324 -0.004661 0.000000 0.000000 0.000000
# 3 -0.008329 -0.004661 0.013330 0.000000 0.000000 0.000000
# 4 0.000000 0.000000 0.000000 0.063375 0.000000 0.000000
# 5 0.000000 0.000000 0.000000 0.000000 0.035087 0.000000
# 6 0.000000 0.000000 0.000000 0.000000 0.000000 0.036152
#
#
# Mechanical properties :
#
#
# Convention : Reuss Voigt Hill
#
# Bulk Modulus (GPa) = 71.42550 79.56760 75.49655
# Shear Modulus (GPa) = 20.32036 22.56235 21.44135
#
# Velocity S-wave (km/s) = 3.59506 3.78820 3.69289
# Velocity P-wave (km/s) = 7.91592 8.35115 8.13645
#
# Compressibility (1/GPa) = 0.01400060
#
# Stress axis : x y z
#
# Youngs Moduli (GPa) = 36.05636 51.74866 75.01648
#
# Poissons Ratio (x) = 0.52802 0.62483
# Poissons Ratio (y) = 0.36790 0.34968
# Poissons Ratio (z) = 0.30032 0.24122
#
# Static dielectric constant tensor:
#      x y z
#    x 1.522590 0.000000 0.000000 
#    y 0.000000 1.493700 0.000000 
#    z 0.000000 0.000000 1.520040 
# 
# From -- ./inp_files/18537.got.cif
#   From: 2010.05.17/outbox.cif.g08.bks.cpg/sg46_10_cif.got.tgz:18537.got - 2010.06.03 19:58:25.
