data_PCOD9378085
_publ_section_title
;
Structure prediction by ZEFSAII (Michael W. Deem and Ramdas Pophale) SiO2 
 PCOD9378085
Probable space group: I M A 2
;
_chemical_formula_sum "Si O2"
_cell_formula_units_Z 48
_cell_length_a 30.361556
_cell_length_b 7.422197
_cell_length_c 8.923138
_cell_angle_alpha 90.000000
_cell_angle_beta 90.000000
_cell_angle_gamma 90.000000
_cell_volume 2010.824239
_symmetry_space_group_name_H-M "I M A 2"
_symmetry_group_IT_number 46
_symmetry_cell_setting 'orthorhombic'
loop_
_space_group_symop_operation_xyz
x,y,z
-x,-y,z
1/2-x,y,z
1/2+x,-y,z
1/2+x,1/2+y,1/2+z
1/2-x,1/2-y,1/2+z
-x,1/2+y,1/2+z
x,1/2-y,1/2+z
loop_
_atom_site_type_symbol
_atom_site_label
_atom_site_fract_x
_atom_site_fract_y
_atom_site_fract_z
Si Si1 0.000000 0.500000 0.525491
Si Si2 0.750000 0.493489 0.752703
Si Si3 0.346314 0.512225 0.746198
Si Si4 0.563854 0.851238 0.777353
Si Si5 0.345676 0.366264 0.403495
Si Si6 0.750000 0.858640 0.917136
Si Si7 0.439507 0.581133 0.774758
Si Si8 0.000000 0.000000 0.528456
O O1 0.035545 0.407184 0.420355
O O2 0.029405 0.623947 0.635605
O O3 0.702299 0.399316 0.755854
O O4 0.750000 0.646309 0.880686
O O5 0.750000 0.602193 0.594420
O O6 0.351230 0.422407 0.578571
O O7 0.345993 0.349968 0.869461
O O8 0.388797 0.638403 0.772250
O O9 0.612668 0.927232 0.805749
O O10 0.565540 0.636114 0.769420
O O11 0.537882 0.920630 0.634277
O O12 0.296762 0.429497 0.356767
O O13 0.470441 0.619735 0.914556
#
# Coordination Sequence:
#
# PCOD9378085 Si02
#       8
#     4   4   8   8   8   4   8   4
#     4  10  18  30  44  62  82 114 152 186 216 254
#     4   8  14  24  36  58  82 110 147 172 198 250
#     4   9  16  25  41  59  84 117 147 175 208 255
#     4  10  19  31  45  62  88 118 150 182 219 257
#     4   9  16  25  41  59  84 117 147 175 208 255
#     4   8  14  24  36  58  82 110 147 172 198 250
#     4  10  19  31  45  62  88 118 150 182 219 257
#     4  10  22  30  44  66  82 118 156 186 216 258
#
# _framework density 23.870808
#
# number of rings (size 3 to 8) (size 9 to 14) (size 15 to 20)
#    0.000    2.667    1.667    1.000    7.000    0.000 
#    0.000    0.000    0.000    0.000    0.000    0.000 
#    0.000    0.000    0.000  105.000    0.000   11.667 
#
# Total GULP energy -133873.839399 kJ/mol
# GULP energy per Si atom -5578.076642 kJ/mol
# Density = 2.381648 g / cm^3
# Si number density = 23.870808 Si / 1000 Ang^3
#
#
#
# Elastic Constant Matrix: (Units=GPa)
#
#
# Indices 1 2 3 4 5 6 
#
# 1 291.9038 11.0403 57.7359 0.0000 0.0000 0.0000
# 2 11.0403 39.1910 16.8104 0.0000 0.0000 0.0000
# 3 57.7359 16.8104 111.9776 0.0000 0.0000 0.0000
# 4 0.0000 0.0000 0.0000 8.3403 0.0000 0.0000
# 5 0.0000 0.0000 0.0000 0.0000 64.5568 0.0000
# 6 0.0000 0.0000 0.0000 0.0000 0.0000 16.3399
#
#
#
# Elastic Compliance Matrix: (Units=1/GPa)
#
#
# Indices 1 2 3 4 5 6 
#
# 1 0.003817 -0.000247 -0.001931 0.000000 0.000000 0.000000
# 2 -0.000247 0.027288 -0.003969 0.000000 0.000000 0.000000
# 3 -0.001931 -0.003969 0.010522 0.000000 0.000000 0.000000
# 4 0.000000 0.000000 0.000000 0.119900 0.000000 0.000000
# 5 0.000000 0.000000 0.000000 0.000000 0.015490 0.000000
# 6 0.000000 0.000000 0.000000 0.000000 0.000000 0.061200
#
#
# Mechanical properties :
#
#
# Convention : Reuss Voigt Hill
#
# Bulk Modulus (GPa) = 34.09171 68.24951 51.17061
# Shear Modulus (GPa) = 19.20940 41.67980 30.44460
#
# Velocity S-wave (km/s) = 2.83984 4.18312 3.57514
# Velocity P-wave (km/s) = 5.00657 7.21003 6.20686
#
# Compressibility (1/GPa) = 0.02933264
#
# Stress axis : x y z
#
# Youngs Moduli (GPa) = 261.98159 36.64585 95.04026
#
# Poissons Ratio (x) = 0.00905 0.18352
# Poissons Ratio (y) = 0.06471 0.37724
# Poissons Ratio (z) = 0.50589 0.14546
#
# Static dielectric constant tensor:
#      x y z
#    x 1.984630 0.000000 0.000000 
#    y 0.000000 1.957190 0.000000 
#    z 0.000000 0.000000 1.880670 
# 
# From -- ./inp_files/8447.got.cif
#   From: 2010.05.17/outbox.cif.g08.bks.cpg/sg46_5_cif.got.tgz:8447.got - 2010.06.03 19:58:25.
