data_PCOD9378410
_publ_section_title
;
Structure prediction by ZEFSAII (Michael W. Deem and Ramdas Pophale) SiO2 
 PCOD9378410
Probable space group: I M A 2
;
_chemical_formula_sum "Si O2"
_cell_formula_units_Z 52
_cell_length_a 13.653668
_cell_length_b 20.824812
_cell_length_c 9.436863
_cell_angle_alpha 90.000000
_cell_angle_beta 90.000000
_cell_angle_gamma 90.000000
_cell_volume 2683.231094
_symmetry_space_group_name_H-M "I M A 2"
_symmetry_group_IT_number 46
_symmetry_cell_setting 'orthorhombic'
loop_
_space_group_symop_operation_xyz
x,y,z
-x,-y,z
1/2-x,y,z
1/2+x,-y,z
1/2+x,1/2+y,1/2+z
1/2-x,1/2-y,1/2+z
-x,1/2+y,1/2+z
x,1/2-y,1/2+z
loop_
_atom_site_type_symbol
_atom_site_label
_atom_site_fract_x
_atom_site_fract_y
_atom_site_fract_z
Si Si1 0.514900 0.111308 0.198990
Si Si2 0.544528 0.070046 0.509436
Si Si3 0.638948 0.088992 0.796843
Si Si4 0.363394 0.280521 0.790194
Si Si5 0.460207 0.298845 0.066968
Si Si6 0.500000 0.500000 0.482316
Si Si7 0.133496 0.703529 0.497063
O O1 0.561750 0.082499 0.342681
O O2 0.424600 0.156922 0.241735
O O3 0.474596 0.057498 0.091565
O O4 0.595887 0.154776 0.119394
O O5 0.626973 0.080847 0.628414
O O6 0.468682 0.125354 0.554894
O O7 0.500000 0.000000 0.525030
O O8 0.750000 0.079004 0.840346
O O9 0.575997 0.035507 0.878487
O O10 0.615102 0.161271 0.853933
O O11 0.250000 0.282930 0.753020
O O12 0.422569 0.223189 0.717562
O O13 0.378926 0.274583 0.957150
O O14 0.562431 0.265131 0.016555
O O15 0.250000 0.718050 0.506646
#
# Coordination Sequence:
#
# PCOD9378410 Si02
#       7
#     8   8   8   8   8   4   8
#     4   9  20  35  61  86 113 157 195 238 294 342
#     4  11  21  38  57  82 122 155 187 235 290 347
#     4  10  21  36  59  86 116 153 193 238 292 348
#     4  10  20  37  58  85 116 150 195 242 286 340
#     4  10  21  37  61  86 115 155 192 237 296 343
#     4  10  18  38  60  78 120 152 196 242 282 346
#     4   9  19  38  62  89 115 148 198 249 291 346
#
# _framework density 19.379619999999999
#
# number of rings (size 3 to 8) (size 9 to 14) (size 15 to 20)
#    0.000    2.154    1.538    1.385    0.000    1.846 
#    0.000   13.077    0.000    0.000    0.000    0.000 
#    0.000    0.000    0.000    0.000    0.000    0.000 
#
# Total GULP energy -144863.677995 kJ/mol
# GULP energy per Si atom -5571.679923 kJ/mol
# Density = 1.933551 g / cm^3
# Si number density = 19.379620 Si / 1000 Ang^3
#
#
#
# Elastic Constant Matrix: (Units=GPa)
#
#
# Indices 1 2 3 4 5 6 
#
# 1 103.9938 28.3498 22.5552 0.0000 0.0000 0.0000
# 2 28.3498 99.8071 26.0671 0.0000 0.0000 0.0000
# 3 22.5552 26.0671 63.2693 0.0000 0.0000 -0.0001
# 4 0.0000 0.0000 0.0000 16.7593 0.0000 0.0000
# 5 0.0000 0.0000 0.0000 0.0000 17.9846 0.0000
# 6 0.0000 0.0000 -0.0001 0.0000 0.0000 15.6301
#
#
#
# Elastic Compliance Matrix: (Units=1/GPa)
#
#
# Indices 1 2 3 4 5 6 
#
# 1 0.010884 -0.002329 -0.002921 0.000000 0.000000 0.000000
# 2 -0.002329 0.011726 -0.004001 0.000000 0.000000 0.000000
# 3 -0.002921 -0.004001 0.018495 0.000000 0.000000 0.000000
# 4 0.000000 0.000000 0.000000 0.059668 0.000000 0.000000
# 5 0.000000 0.000000 0.000000 0.000000 0.055603 0.000000
# 6 0.000000 0.000000 0.000000 0.000000 0.000000 0.063979
#
#
# Mechanical properties :
#
#
# Convention : Reuss Voigt Hill
#
# Bulk Modulus (GPa) = 44.23929 46.77937 45.50933
# Shear Modulus (GPa) = 20.29293 22.74800 21.52046
#
# Velocity S-wave (km/s) = 3.23945 3.42981 3.33598
# Velocity P-wave (km/s) = 6.07201 6.31471 6.19455
#
# Compressibility (1/GPa) = 0.02260434
#
# Stress axis : x y z
#
# Youngs Moduli (GPa) = 91.87548 85.28257 54.06860
#
# Poissons Ratio (x) = 0.19861 0.15792
# Poissons Ratio (y) = 0.21396 0.21632
# Poissons Ratio (z) = 0.26834 0.34120
#
# Static dielectric constant tensor:
#      x y z
#    x 1.642130 0.000000 0.000000 
#    y 0.000000 1.684640 0.000000 
#    z 0.000000 0.000000 1.724820 
# 
# From -- ./inp_files/5887.got.cif
#   From: 2010.05.17/outbox.cif.g08.bks.cpg/sg46_3_cif.got.tgz:5887.got - 2010.06.03 19:58:25.
