data_PCOD9378257
_publ_section_title
;
Structure prediction by ZEFSAII (Michael W. Deem and Ramdas Pophale) SiO2 
 PCOD9378257
Probable space group: I M A 2
;
_chemical_formula_sum "Si O2"
_cell_formula_units_Z 64
_cell_length_a 8.731305
_cell_length_b 21.180898
_cell_length_c 20.117434
_cell_angle_alpha 90.000000
_cell_angle_beta 90.000000
_cell_angle_gamma 90.000000
_cell_volume 3720.455490
_symmetry_space_group_name_H-M "I M A 2"
_symmetry_group_IT_number 46
_symmetry_cell_setting 'orthorhombic'
loop_
_space_group_symop_operation_xyz
x,y,z
-x,-y,z
1/2-x,y,z
1/2+x,-y,z
1/2+x,1/2+y,1/2+z
1/2-x,1/2-y,1/2+z
-x,1/2+y,1/2+z
x,1/2-y,1/2+z
loop_
_atom_site_type_symbol
_atom_site_label
_atom_site_fract_x
_atom_site_fract_y
_atom_site_fract_z
Si Si1 0.067476 0.884670 0.827610
Si Si2 0.932685 0.566650 0.193164
Si Si3 0.432165 0.765963 0.328520
Si Si4 0.066341 0.186695 0.193329
Si Si5 0.563711 0.811259 0.611731
Si Si6 0.066836 0.567431 0.616160
Si Si7 0.434804 0.876099 0.975721
Si Si8 0.066320 0.235693 0.470408
O O1 0.250000 0.894088 0.819853
O O2 0.036087 0.809386 0.821577
O O3 0.023088 0.902756 0.903030
O O4 0.981719 0.920087 0.769036
O O5 0.750000 0.564549 0.189375
O O6 0.989133 0.625731 0.148943
O O7 0.000000 0.500000 0.171107
O O8 0.250000 0.774153 0.325238
O O9 0.512080 0.802189 0.268458
O O10 0.493380 0.785149 0.400897
O O11 0.250000 0.183568 0.190375
O O12 0.014851 0.248496 0.151461
O O13 0.997035 0.124353 0.160504
O O14 0.750000 0.811552 0.613460
O O15 0.518387 0.804333 0.534915
O O16 0.250000 0.566471 0.620436
O O17 0.024029 0.582348 0.539298
O O18 0.000000 0.500000 0.635933
O O19 0.250000 0.866964 0.974947
O O20 0.511993 0.807627 0.982676
O O21 0.250000 0.234668 0.465118
#
# Coordination Sequence:
#
# PCOD9378257 Si02
#       8
#     8   8   8   8   8   8   8   8
#     4   9  18  33  51  75 108 145 182 220 262 317
#     4  11  22  37  53  76 108 144 183 225 271 323
#     4  10  20  34  53  83 115 142 177 226 276 328
#     4  11  20  36  59  84 109 143 186 230 278 330
#     4   9  19  34  55  81 109 138 180 228 272 323
#     4  11  23  38  55  79 112 151 188 231 280 330
#     4   9  19  34  51  76 111 145 182 224 269 321
#     4  10  18  32  55  82 108 141 180 225 276 326
#
# _framework density 17.202195
#
# number of rings (size 3 to 8) (size 9 to 14) (size 15 to 20)
#    0.000    2.000    2.500    2.625    0.000    3.000 
#    0.000    3.750    0.000    0.750    0.000    3.500 
#    0.000    0.000    0.000    0.000    0.000    0.000 
#
# Total GULP energy -178626.750839 kJ/mol
# GULP energy per Si atom -5582.085964 kJ/mol
# Density = 1.716304 g / cm^3
# Si number density = 17.202195 Si / 1000 Ang^3
#
#
#
# Elastic Constant Matrix: (Units=GPa)
#
#
# Indices 1 2 3 4 5 6 
#
# 1 33.6016 36.5810 30.8244 0.0000 0.0000 0.0000
# 2 36.5810 118.3049 69.5031 0.0000 0.0000 0.0000
# 3 30.8244 69.5031 119.6779 0.0000 0.0000 0.0000
# 4 0.0000 0.0000 0.0000 19.3450 0.0000 0.0000
# 5 0.0000 0.0000 0.0000 0.0000 24.6224 0.0000
# 6 0.0000 0.0000 0.0000 0.0000 0.0000 25.2510
#
#
#
# Elastic Compliance Matrix: (Units=1/GPa)
#
#
# Indices 1 2 3 4 5 6 
#
# 1 0.047202 -0.011313 -0.005588 0.000000 0.000000 0.000000
# 2 -0.011313 0.015542 -0.006112 0.000000 0.000000 0.000000
# 3 -0.005588 -0.006112 0.013344 0.000000 0.000000 0.000000
# 4 0.000000 0.000000 0.000000 0.051693 0.000000 0.000000
# 5 0.000000 0.000000 0.000000 0.000000 0.040613 0.000000
# 6 0.000000 0.000000 0.000000 0.000000 0.000000 0.039602
#
#
# Mechanical properties :
#
#
# Convention : Reuss Voigt Hill
#
# Bulk Modulus (GPa) = 33.26297 60.60015 46.93156
# Shear Modulus (GPa) = 18.93635 22.82207 20.87921
#
# Velocity S-wave (km/s) = 3.32145 3.64633 3.48768
# Velocity P-wave (km/s) = 5.83847 7.28233 6.60000
#
# Compressibility (1/GPa) = 0.03006346
#
# Stress axis : x y z
#
# Youngs Moduli (GPa) = 21.18554 64.34383 74.93740
#
# Poissons Ratio (x) = 0.72790 0.41872
# Poissons Ratio (y) = 0.23967 0.45802
# Poissons Ratio (z) = 0.11837 0.39327
#
# Static dielectric constant tensor:
#      x y z
#    x 1.573670 0.000000 0.000000 
#    y 0.000000 1.564800 0.000000 
#    z 0.000000 0.000000 1.588610 
# 
# From -- ./inp_files/18523.got.cif
#   From: 2010.05.17/outbox.cif.g08.bks.cpg/sg46_10_cif.got.tgz:18523.got - 2010.06.03 19:58:25.
