data_PCOD9378268
_publ_section_title
;
Structure prediction by ZEFSAII (Michael W. Deem and Ramdas Pophale) SiO2 
 PCOD9378268
Probable space group: I M A 2
;
_chemical_formula_sum "Si O2"
_cell_formula_units_Z 64
_cell_length_a 20.466009
_cell_length_b 9.770958
_cell_length_c 18.912186
_cell_angle_alpha 90.000000
_cell_angle_beta 90.000000
_cell_angle_gamma 90.000000
_cell_volume 3781.917387
_symmetry_space_group_name_H-M "I M A 2"
_symmetry_group_IT_number 46
_symmetry_cell_setting 'orthorhombic'
loop_
_space_group_symop_operation_xyz
x,y,z
-x,-y,z
1/2-x,y,z
1/2+x,-y,z
1/2+x,1/2+y,1/2+z
1/2-x,1/2-y,1/2+z
-x,1/2+y,1/2+z
x,1/2-y,1/2+z
loop_
_atom_site_type_symbol
_atom_site_label
_atom_site_fract_x
_atom_site_fract_y
_atom_site_fract_z
Si Si1 0.059273 0.919083 0.771420
Si Si2 0.990132 0.658238 0.559054
Si Si3 0.490132 0.658238 0.836252
Si Si4 0.893626 0.269002 0.965902
Si Si5 0.940728 0.919083 0.623886
Si Si6 0.606374 0.769002 0.929404
Si Si7 0.673511 0.037556 0.877285
Si Si8 0.173511 0.037556 0.518021
O O1 0.036269 0.761443 0.775787
O O2 0.127760 0.931291 0.810270
O O3 0.064544 0.000000 0.697653
O O4 0.000000 0.000000 0.811554
O O5 0.963731 0.761443 0.619519
O O6 0.938735 0.672888 0.493650
O O7 0.000000 0.500000 0.578866
O O8 0.057695 0.716324 0.526860
O O9 0.500000 0.500000 0.816440
O O10 0.438735 0.672888 0.901657
O O11 0.557694 0.716323 0.868447
O O12 0.851640 0.144072 0.935902
O O13 0.846409 0.386963 0.992974
O O14 0.872241 0.931291 0.585036
O O15 0.000000 0.000000 0.583752
O O16 0.653590 0.886963 0.902332
O O17 0.648360 0.644072 0.959404
O O18 0.750000 0.051078 0.864051
O O19 0.250000 0.051079 0.531256
#
# Coordination Sequence:
#
# PCOD9378268 Si02
#       8
#     8   8   8   8   8   8   8   8
#     4  10  21  37  56  79 107 146 198 234 260 325
#     4  10  18  32  58  82 110 145 178 235 285 324
#     4  10  18  32  58  82 110 145 178 235 285 324
#     4  10  19  31  52  87 113 139 184 219 282 352
#     4  10  21  37  56  79 107 146 198 234 260 325
#     4  10  19  31  52  87 113 139 184 219 282 352
#     4  11  21  34  54  81 116 149 178 228 284 335
#     4  11  21  34  54  81 116 149 178 228 284 335
#
# _framework density 16.922633999999999
#
# number of rings (size 3 to 8) (size 9 to 14) (size 15 to 20)
#    0.000    1.750    5.000    0.750    0.000    0.500 
#    0.000    2.500    0.000    0.000    0.000    1.750 
#    0.000    0.000    0.000    0.000    0.000    0.000 
#
# Total GULP energy -178383.058885 kJ/mol
# GULP energy per Si atom -5574.470590 kJ/mol
# Density = 1.688412 g / cm^3
# Si number density = 16.922634 Si / 1000 Ang^3
#
#
#
# Elastic Constant Matrix: (Units=GPa)
#
#
# Indices 1 2 3 4 5 6 
#
# 1 155.7811 52.2385 42.3103 0.0000 0.0000 0.0000
# 2 52.2385 157.7616 53.1104 0.0000 0.0000 0.0000
# 3 42.3103 53.1104 71.9618 0.0000 0.0000 0.0000
# 4 0.0000 0.0000 0.0000 16.4186 0.0000 0.0000
# 5 0.0000 0.0000 0.0000 0.0000 490.9447 0.0000
# 6 0.0000 0.0000 0.0000 0.0000 0.0000 22.9983
#
#
#
# Elastic Compliance Matrix: (Units=1/GPa)
#
#
# Indices 1 2 3 4 5 6 
#
# 1 0.007863 -0.001393 -0.003595 0.000000 0.000000 0.000000
# 2 -0.001393 0.008681 -0.005588 0.000000 0.000000 0.000000
# 3 -0.003595 -0.005588 0.020134 0.000000 0.000000 0.000000
# 4 0.000000 0.000000 0.000000 0.060907 0.000000 0.000000
# 5 0.000000 0.000000 0.000000 0.000000 0.002037 0.000000
# 6 0.000000 0.000000 0.000000 0.000000 0.000000 0.043481
#
#
# Mechanical properties :
#
#
# Convention : Reuss Voigt Hill
#
# Bulk Modulus (GPa) = 64.40747 75.64697 70.02722
# Shear Modulus (GPa) = 29.51079 121.92867 75.71973
#
# Velocity S-wave (km/s) = 4.18049 8.49747 6.69640
# Velocity P-wave (km/s) = 7.83866 11.87749 10.06279
#
# Compressibility (1/GPa) = 0.01552615
#
# Stress axis : x y z
#
# Youngs Moduli (GPa) = 127.18084 115.19149 49.66806
#
# Poissons Ratio (x) = 0.16051 0.17854
# Poissons Ratio (y) = 0.17722 0.27753
# Poissons Ratio (z) = 0.45716 0.64366
#
# Static dielectric constant tensor:
#      x y z
#    x 1.550520 0.000000 0.000000 
#    y 0.000000 1.584870 0.000000 
#    z 0.000000 0.000000 1.602200 
# 
# From -- ./inp_files/22464.got.cif
#   From: 2010.05.17/outbox.cif.g08.bks.cpg/sg46_12_cif.got.tgz:22464.got - 2010.06.03 19:58:25.
