data_PCOD9378016
_publ_section_title
;
Structure prediction by ZEFSAII (Michael W. Deem and Ramdas Pophale) SiO2 
 PCOD9378016
Probable space group: I M A 2
;
_chemical_formula_sum "Si O2"
_cell_formula_units_Z 64
_cell_length_a 14.313662
_cell_length_b 13.282440
_cell_length_c 19.032438
_cell_angle_alpha 90.000000
_cell_angle_beta 90.000000
_cell_angle_gamma 90.000000
_cell_volume 3618.453901
_symmetry_space_group_name_H-M "I M A 2"
_symmetry_group_IT_number 46
_symmetry_cell_setting 'orthorhombic'
loop_
_space_group_symop_operation_xyz
x,y,z
-x,-y,z
1/2-x,y,z
1/2+x,-y,z
1/2+x,1/2+y,1/2+z
1/2-x,1/2-y,1/2+z
-x,1/2+y,1/2+z
x,1/2-y,1/2+z
loop_
_atom_site_type_symbol
_atom_site_label
_atom_site_fract_x
_atom_site_fract_y
_atom_site_fract_z
Si Si1 0.359651 0.344678 0.204260
Si Si2 0.639188 0.103202 0.020664
Si Si3 0.359726 0.411133 0.442426
Si Si4 0.358516 0.963642 0.799478
Si Si5 0.525749 0.258615 0.287993
Si Si6 0.860875 0.270788 0.656077
Si Si7 0.999276 0.619703 0.084865
Si Si8 0.009026 0.740546 0.944421
O O1 0.250000 0.319444 0.203761
O O2 0.368797 0.458074 0.235477
O O3 0.422727 0.275721 0.255634
O O4 0.409102 0.341833 0.128488
O O5 0.750000 0.108243 0.007680
O O6 0.621619 0.141691 0.099143
O O7 0.589624 0.181965 0.969087
O O8 0.610839 0.989549 0.002938
O O9 0.250000 0.390748 0.447836
O O10 0.375545 0.471533 0.369817
O O11 0.417251 0.309850 0.444059
O O12 0.250000 0.929122 0.801194
O O13 0.427869 0.870051 0.795824
O O14 0.590281 0.206294 0.229800
O O15 0.525430 0.208469 0.364298
O O16 0.750000 0.254767 0.662685
O O17 0.912777 0.172192 0.624327
O O18 0.000000 0.500000 0.088676
O O19 0.000976 0.657348 0.004689
#
# Coordination Sequence:
#
# PCOD9378016 Si02
#       8
#     8   8   8   8   8   8   8   8
#     4  10  20  33  51  75 104 137 171 213 268 321
#     4   9  18  32  50  75 110 142 170 207 260 322
#     4  10  19  31  50  79 111 140 170 209 267 325
#     4  10  18  28  48  78 108 137 160 203 271 323
#     4  11  19  29  50  78 108 133 172 218 260 318
#     4   9  19  35  54  78 106 138 172 212 267 323
#     4  10  22  38  53  72 102 143 184 223 262 307
#     4  11  21  32  53  77 105 140 176 221 264 317
#
# _framework density 17.687113
#
# number of rings (size 3 to 8) (size 9 to 14) (size 15 to 20)
#    0.000    2.000    2.500    2.625    0.000    2.500 
#    0.000    0.000    0.000    4.500    0.000    0.000 
#    0.000    0.000    0.000    0.000    0.000    0.000 
#
# Total GULP energy -178592.802808 kJ/mol
# GULP energy per Si atom -5581.025088 kJ/mol
# Density = 1.764686 g / cm^3
# Si number density = 17.687113 Si / 1000 Ang^3
#
#
#
# Elastic Constant Matrix: (Units=GPa)
#
#
# Indices 1 2 3 4 5 6 
#
# 1 95.7089 7.8317 47.9778 0.0000 0.0000 0.0000
# 2 7.8317 18.8095 22.1962 0.0000 0.0000 0.0000
# 3 47.9778 22.1962 143.2760 0.0000 0.0000 0.0000
# 4 0.0000 0.0000 0.0000 22.0105 0.0000 0.0000
# 5 0.0000 0.0000 0.0000 0.0000 21.9426 0.0000
# 6 0.0000 0.0000 0.0000 0.0000 0.0000 14.2553
#
#
#
# Elastic Compliance Matrix: (Units=1/GPa)
#
#
# Indices 1 2 3 4 5 6 
#
# 1 0.012558 -0.000326 -0.004155 0.000000 0.000000 0.000000
# 2 -0.000326 0.065067 -0.009971 0.000000 0.000000 0.000000
# 3 -0.004155 -0.009971 0.009915 0.000000 0.000000 0.000000
# 4 0.000000 0.000000 0.000000 0.045433 0.000000 0.000000
# 5 0.000000 0.000000 0.000000 0.000000 0.045573 0.000000
# 6 0.000000 0.000000 0.000000 0.000000 0.000000 0.070149
#
#
# Mechanical properties :
#
#
# Convention : Reuss Voigt Hill
#
# Bulk Modulus (GPa) = 17.05415 45.97840 31.51627
# Shear Modulus (GPa) = 16.82686 23.62760 20.22723
#
# Velocity S-wave (km/s) = 3.08776 3.65891 3.38541
# Velocity P-wave (km/s) = 4.73027 6.62586 5.75663
#
# Compressibility (1/GPa) = 0.05863676
#
# Stress axis : x y z
#
# Youngs Moduli (GPa) = 79.63260 15.36887 100.85289
#
# Poissons Ratio (x) = 0.00501 0.41900
# Poissons Ratio (y) = 0.02596 1.00559
# Poissons Ratio (z) = 0.33084 0.15324
#
# Static dielectric constant tensor:
#      x y z
#    x 1.617290 0.000000 0.000000 
#    y 0.000000 1.575320 0.000000 
#    z 0.000000 0.000000 1.641140 
# 
# From -- ./inp_files/19654.got.cif
#   From: 2010.05.17/outbox.cif.g08.bks.cpg/sg46_10_cif.got.tgz:19654.got - 2010.06.03 19:58:25.
