data_PCOD9378434
_publ_section_title
;
Structure prediction by ZEFSAII (Michael W. Deem and Ramdas Pophale) SiO2 
 PCOD9378434
Probable space group: I M A 2
;
_chemical_formula_sum "Si O2"
_cell_formula_units_Z 64
_cell_length_a 23.918707
_cell_length_b 19.944039
_cell_length_c 5.517137
_cell_angle_alpha 90.000000
_cell_angle_beta 90.000000
_cell_angle_gamma 90.000000
_cell_volume 2631.870898
_symmetry_space_group_name_H-M "I M A 2"
_symmetry_group_IT_number 46
_symmetry_cell_setting 'orthorhombic'
loop_
_space_group_symop_operation_xyz
x,y,z
-x,-y,z
1/2-x,y,z
1/2+x,-y,z
1/2+x,1/2+y,1/2+z
1/2-x,1/2-y,1/2+z
-x,1/2+y,1/2+z
x,1/2-y,1/2+z
loop_
_atom_site_type_symbol
_atom_site_label
_atom_site_fract_x
_atom_site_fract_y
_atom_site_fract_z
Si Si1 0.342609 0.478876 0.380870
Si Si2 0.868743 0.361175 0.388633
Si Si3 0.332435 0.492300 0.882259
Si Si4 0.061507 0.408813 0.856111
Si Si5 0.098830 0.278224 0.629668
Si Si6 0.314458 0.847830 0.388531
Si Si7 0.469082 0.067949 0.854163
Si Si8 0.035459 0.780831 0.052302
O O1 0.356174 0.559193 0.381707
O O2 0.312329 0.464027 0.629311
O O3 0.402309 0.443392 0.378202
O O4 0.312297 0.462652 0.133282
O O5 0.837408 0.329786 0.622082
O O6 0.933606 0.346173 0.441006
O O7 0.847795 0.330826 0.134557
O O8 0.399602 0.475153 0.884830
O O9 0.318741 0.570660 0.884146
O O10 0.102224 0.349042 0.771117
O O11 0.018511 0.417459 0.635987
O O12 0.030283 0.389489 0.105706
O O13 0.119791 0.270474 0.350114
O O14 0.031683 0.275780 0.572349
O O15 0.250000 0.827655 0.413375
O O16 0.500000 0.000000 0.787791
O O17 0.052693 0.769658 0.332476
#
# Coordination Sequence:
#
# PCOD9378434 Si02
#       8
#     8   8   8   8   8   8   8   8
#     4   8  16  28  42  64  92 118 152 186 227 293
#     4  10  19  33  52  71  93 128 161 199 255 306
#     4   8  16  30  46  68  98 124 150 186 238 289
#     4  10  19  33  48  67 100 133 159 209 247 287
#     4  10  21  36  51  72  96 131 182 220 247 283
#     4  10  19  33  54  78 101 124 157 198 244 318
#     4  10  19  29  42  69  96 126 160 192 243 300
#     4  10  21  36  51  69  92 126 171 217 256 291
#
# _framework density 24.317302000000002
#
# number of rings (size 3 to 8) (size 9 to 14) (size 15 to 20)
#    0.000    2.500    0.000    2.250    1.750    0.000 
#    6.750    0.000    0.000    7.500    0.000    0.000 
#    0.000    1.000    0.000    0.000    0.000    4.250 
#
# Total GULP energy -178167.048587 kJ/mol
# GULP energy per Si atom -5567.720268 kJ/mol
# Density = 2.426195 g / cm^3
# Si number density = 24.317302 Si / 1000 Ang^3
#
#
#
# Elastic Constant Matrix: (Units=GPa)
#
#
# Indices 1 2 3 4 5 6 
#
# 1 60.2287 -10.2449 27.4641 0.0000 0.0000 0.0000
# 2 -10.2449 41.5814 -2.6095 0.0000 0.0000 0.0000
# 3 27.4641 -2.6095 264.1320 0.0000 0.0000 0.0000
# 4 0.0000 0.0000 0.0000 23.2396 0.0000 0.0000
# 5 0.0000 0.0000 0.0000 0.0000 -6.0582 0.0000
# 6 0.0000 0.0000 0.0000 0.0000 0.0000 41.7517
#
#
#
# Elastic Compliance Matrix: (Units=1/GPa)
#
#
# Indices 1 2 3 4 5 6 
#
# 1 0.018189 0.004365 -0.001848 0.000000 0.000000 0.000000
# 2 0.004365 0.025112 -0.000206 0.000000 0.000000 0.000000
# 3 -0.001848 -0.000206 0.003976 0.000000 0.000000 0.000000
# 4 0.000000 0.000000 0.000000 0.043030 0.000000 0.000000
# 5 0.000000 0.000000 0.000000 0.000000 -0.165066 0.000000
# 6 0.000000 0.000000 0.000000 0.000000 0.000000 0.023951
#
#
# Mechanical properties :
#
#
# Convention : Reuss Voigt Hill
#
# Bulk Modulus (GPa) = 19.26801 43.90685 31.58743
# Shear Modulus (GPa) = -131.12698 35.20878 -47.95910
#
# Velocity S-wave (km/s) = -7.35122 3.80924 -4.44579
# Velocity P-wave (km/s) = 8.00706 6.11900 3.65178
#
# Compressibility (1/GPa) = 0.05189949
#
# Stress axis : x y z
#
# Youngs Moduli (GPa) = 54.97936 39.82186 251.50172
#
# Poissons Ratio (x) = -0.17384 0.46480
# Poissons Ratio (y) = -0.24000 0.05176
# Poissons Ratio (z) = 0.10161 0.00820
#
# Static dielectric constant tensor:
#      x y z
#    x 1.916550 0.000000 0.000000 
#    y 0.000000 2.087030 0.000000 
#    z 0.000000 0.000000 2.073150 
# 
# From -- ./inp_files/2623.got.cif
#   From: 2010.05.17/outbox.cif.g08.bks.cpg/sg46_2_cif.got.tgz:2623.got - 2010.06.03 19:58:25.
