data_PCOD9378083
_publ_section_title
;
Structure prediction by ZEFSAII (Michael W. Deem and Ramdas Pophale) SiO2 
 PCOD9378083
Probable space group: I M A 2
;
_chemical_formula_sum "Si O2"
_cell_formula_units_Z 64
_cell_length_a 19.287641
_cell_length_b 19.537475
_cell_length_c 8.503152
_cell_angle_alpha 90.000000
_cell_angle_beta 90.000000
_cell_angle_gamma 90.000000
_cell_volume 3204.258107
_symmetry_space_group_name_H-M "I M A 2"
_symmetry_group_IT_number 46
_symmetry_cell_setting 'orthorhombic'
loop_
_space_group_symop_operation_xyz
x,y,z
-x,-y,z
1/2-x,y,z
1/2+x,-y,z
1/2+x,1/2+y,1/2+z
1/2-x,1/2-y,1/2+z
-x,1/2+y,1/2+z
x,1/2-y,1/2+z
loop_
_atom_site_type_symbol
_atom_site_label
_atom_site_fract_x
_atom_site_fract_y
_atom_site_fract_z
Si Si1 0.417133 0.110405 0.946810
Si Si2 0.439822 0.725180 0.089553
Si Si3 0.944638 0.083560 0.435057
Si Si4 0.421674 0.850097 0.904325
Si Si5 0.407567 0.043896 0.288380
Si Si6 0.329833 0.163946 0.407738
Si Si7 0.397099 0.259279 0.620831
Si Si8 0.080390 0.985796 0.774792
O O1 0.495329 0.135062 0.909192
O O2 0.388272 0.060115 0.811976
O O3 0.417442 0.066363 0.108437
O O4 0.379685 0.180522 0.994628
O O5 0.409326 0.692655 0.246153
O O6 0.521727 0.740397 0.115200
O O7 0.434277 0.664267 0.959878
O O8 0.406399 0.797282 0.042397
O O9 0.925116 0.045754 0.600034
O O10 0.024550 0.070707 0.385099
O O11 0.904257 0.037805 0.307592
O O12 0.389835 0.925168 0.883644
O O13 0.345364 0.085096 0.368794
O O14 0.250000 0.179621 0.382051
O O15 0.354592 0.192103 0.575429
O O16 0.377317 0.205407 0.283692
O O17 0.000000 0.000000 0.819076
#
# Coordination Sequence:
#
# PCOD9378083 Si02
#       8
#     8   8   8   8   8   8   8   8
#     4   9  19  28  43  61  88 119 160 196 237 291
#     4  10  18  30  43  65  90 120 157 195 245 292
#     4  10  19  29  46  67  91 118 155 202 251 307
#     4   9  19  25  40  60  89 122 151 184 226 289
#     4  10  20  31  45  68  88 121 160 203 254 293
#     4  11  22  35  49  66  95 132 178 217 244 284
#     4  10  19  33  48  67  88 126 174 210 247 277
#     4   9  16  29  39  62  89 119 152 185 238 291
#
# _framework density 19.973420999999998
#
# number of rings (size 3 to 8) (size 9 to 14) (size 15 to 20)
#    0.000    2.250    2.500    1.875    8.750    1.000 
#    0.000    0.000    0.000    0.000    0.000    0.000 
#    0.000    0.000    0.000   19.125    3.000    1.500 
#
# Total GULP energy -178219.930355 kJ/mol
# GULP energy per Si atom -5569.372824 kJ/mol
# Density = 1.992796 g / cm^3
# Si number density = 19.973421 Si / 1000 Ang^3
#
#
#
# Elastic Constant Matrix: (Units=GPa)
#
#
# Indices 1 2 3 4 5 6 
#
# 1 6.6760 6.0993 2.8848 0.0000 0.0000 0.0000
# 2 6.0993 95.1395 22.0345 0.0000 0.0000 0.0000
# 3 2.8848 22.0345 37.7031 0.0000 0.0000 0.0000
# 4 0.0000 0.0000 0.0000 46.4651 0.0000 0.0000
# 5 0.0000 0.0000 0.0000 0.0000 1.5205 0.0000
# 6 0.0000 0.0000 0.0000 0.0000 0.0000 6.8134
#
#
#
# Elastic Compliance Matrix: (Units=1/GPa)
#
#
# Indices 1 2 3 4 5 6 
#
# 1 0.160810 -0.008627 -0.007262 0.000000 0.000000 0.000000
# 2 -0.008627 0.012619 -0.006715 0.000000 0.000000 0.000000
# 3 -0.007262 -0.006715 0.031003 0.000000 0.000000 0.000000
# 4 0.000000 0.000000 0.000000 0.021522 0.000000 0.000000
# 5 0.000000 0.000000 0.000000 0.000000 0.657667 0.000000
# 6 0.000000 0.000000 0.000000 0.000000 0.000000 0.146769
#
#
# Mechanical properties :
#
#
# Convention : Reuss Voigt Hill
#
# Bulk Modulus (GPa) = 6.28047 22.39509 14.33778
# Shear Modulus (GPa) = 4.42998 18.19314 11.31156
#
# Velocity S-wave (km/s) = 1.49089 3.02133 2.38235
# Velocity P-wave (km/s) = 2.47283 4.83819 3.84207
#
# Compressibility (1/GPa) = 0.15922381
#
# Stress axis : x y z
#
# Youngs Moduli (GPa) = 6.21850 79.24464 32.25498
#
# Poissons Ratio (x) = 0.68368 0.23424
# Poissons Ratio (y) = 0.05365 0.21659
# Poissons Ratio (z) = 0.04516 0.53211
#
# Static dielectric constant tensor:
#      x y z
#    x 1.654860 0.000000 0.000000 
#    y 0.000000 1.773070 0.000000 
#    z 0.000000 0.000000 1.807630 
# 
# From -- ./inp_files/8034.got.cif
#   From: 2010.05.17/outbox.cif.g08.bks.cpg/sg46_5_cif.got.tgz:8034.got - 2010.06.03 19:58:25.
