data_PCOD9378157
_publ_section_title
;
Structure prediction by ZEFSAII (Michael W. Deem and Ramdas Pophale) SiO2 
 PCOD9378157
Probable space group: I M A 2
;
_chemical_formula_sum "Si O2"
_cell_formula_units_Z 64
_cell_length_a 7.569250
_cell_length_b 28.643617
_cell_length_c 15.282913
_cell_angle_alpha 90.000000
_cell_angle_beta 90.000000
_cell_angle_gamma 90.000000
_cell_volume 3313.499035
_symmetry_space_group_name_H-M "I M A 2"
_symmetry_group_IT_number 46
_symmetry_cell_setting 'orthorhombic'
loop_
_space_group_symop_operation_xyz
x,y,z
-x,-y,z
1/2-x,y,z
1/2+x,-y,z
1/2+x,1/2+y,1/2+z
1/2-x,1/2-y,1/2+z
-x,1/2+y,1/2+z
x,1/2-y,1/2+z
loop_
_atom_site_type_symbol
_atom_site_label
_atom_site_fract_x
_atom_site_fract_y
_atom_site_fract_z
Si Si1 0.954961 0.367256 0.820150
Si Si2 0.967036 0.176030 0.144926
Si Si3 0.467053 0.863621 0.768627
Si Si4 0.463433 0.717365 0.137397
Si Si5 0.962545 0.053988 0.449189
Si Si6 0.545010 0.780281 0.437220
Si Si7 0.961600 0.053605 0.646907
Si Si8 0.543042 0.172341 0.949646
O O1 0.750000 0.379561 0.805732
O O2 0.030350 0.355894 0.724507
O O3 0.032679 0.408739 0.879217
O O4 0.960928 0.319413 0.875950
O O5 0.750000 0.175477 0.144979
O O6 0.018886 0.229991 0.160102
O O7 0.029318 0.163859 0.047008
O O8 0.250000 0.863431 0.770897
O O9 0.521370 0.820019 0.708404
O O10 0.526274 0.910166 0.719113
O O11 0.530803 0.855646 0.867261
O O12 0.250000 0.716814 0.135104
O O13 0.523573 0.705952 0.039093
O O14 0.750000 0.059432 0.452565
O O15 0.029438 0.062855 0.548204
O O16 0.000000 0.000000 0.427368
O O17 0.750000 0.778076 0.414896
O O18 0.470368 0.727852 0.429953
O O19 0.750000 0.059140 0.643077
O O20 0.000000 0.000000 0.668299
O O21 0.750000 0.160982 0.954968
#
# Coordination Sequence:
#
# PCOD9378157 Si02
#       8
#     8   8   8   8   8   8   8   8
#     4  10  18  31  50  69  89 121 159 192 224 267
#     4   8  15  27  47  70  89 113 152 192 225 259
#     4   9  16  28  51  73  88 114 158 197 225 263
#     4   9  16  29  47  67  91 121 154 190 226 268
#     4   9  18  31  49  69  92 117 145 183 228 274
#     4  11  21  30  42  67  99 127 152 186 228 273
#     4   9  17  30  46  68  92 116 145 182 228 276
#     4   9  17  32  50  67  89 121 157 194 226 262
#
# _framework density 19.31493
#
# number of rings (size 3 to 8) (size 9 to 14) (size 15 to 20)
#    0.000    2.750    0.000    3.375    0.000    4.500 
#    0.000    9.375    0.000    0.750    0.000    0.000 
#    0.000    0.000    0.000    0.000    0.000    0.000 
#
# Total GULP energy -178538.816396 kJ/mol
# GULP energy per Si atom -5579.338012 kJ/mol
# Density = 1.927097 g / cm^3
# Si number density = 19.314930 Si / 1000 Ang^3
#
#
#
# Elastic Constant Matrix: (Units=GPa)
#
#
# Indices 1 2 3 4 5 6 
#
# 1 44.3555 -1.6060 0.6252 0.0000 0.0000 0.0000
# 2 -1.6060 104.8565 118.8397 0.0000 0.0000 0.0000
# 3 0.6252 118.8397 175.7593 0.0002 -0.0001 0.0000
# 4 0.0000 0.0000 0.0002 26.1122 0.0000 0.0000
# 5 0.0000 0.0000 -0.0001 0.0000 -7.2777 0.0000
# 6 0.0000 0.0000 0.0000 0.0000 0.0000 12.6060
#
#
#
# Elastic Compliance Matrix: (Units=1/GPa)
#
#
# Indices 1 2 3 4 5 6 
#
# 1 0.022632 0.001874 -0.001347 0.000000 0.000000 0.000000
# 2 0.001874 0.040967 -0.027706 0.000000 0.000000 0.000000
# 3 -0.001347 -0.027706 0.024428 0.000000 0.000000 0.000000
# 4 0.000000 0.000000 0.000000 0.038296 0.000000 0.000000
# 5 0.000000 0.000000 0.000000 0.000000 -0.137406 0.000000
# 6 0.000000 0.000000 0.000000 0.000000 0.000000 0.079327
#
#
# Mechanical properties :
#
#
# Convention : Reuss Voigt Hill
#
# Bulk Modulus (GPa) = 29.70297 62.29879 46.00088
# Shear Modulus (GPa) = 37.36202 20.09559 28.72880
#
# Velocity S-wave (km/s) = 4.40291 3.22905 3.86085
# Velocity P-wave (km/s) = 6.42332 6.79901 6.61384
#
# Compressibility (1/GPa) = 0.03366667
#
# Stress axis : x y z
#
# Youngs Moduli (GPa) = 44.18531 24.41018 40.93673
#
# Poissons Ratio (x) = -0.04574 0.05516
# Poissons Ratio (y) = -0.08279 1.13420
# Poissons Ratio (z) = 0.05954 0.67631
#
# Static dielectric constant tensor:
#      x y z
#    x 1.749660 0.000000 0.000000 
#    y 0.000000 1.645710 0.000000 
#    z 0.000000 0.000000 1.695720 
# 
# From -- ./inp_files/14758.got.cif
#   From: 2010.05.17/outbox.cif.g08.bks.cpg/sg46_8_cif.got.tgz:14758.got - 2010.06.03 19:58:25.
