data_PCOD9378720
_publ_section_title
;
Structure prediction by ZEFSAII (Michael W. Deem and Ramdas Pophale) SiO2 
 PCOD9378720
Probable space group: I M A 2
;
_chemical_formula_sum "Si O2"
_cell_formula_units_Z 60
_cell_length_a 20.872650
_cell_length_b 21.571145
_cell_length_c 5.455126
_cell_angle_alpha 90.000000
_cell_angle_beta 90.000000
_cell_angle_gamma 90.000000
_cell_volume 2456.153896
_symmetry_space_group_name_H-M "I M A 2"
_symmetry_group_IT_number 46
_symmetry_cell_setting 'orthorhombic'
loop_
_space_group_symop_operation_xyz
x,y,z
-x,-y,z
1/2-x,y,z
1/2+x,-y,z
1/2+x,1/2+y,1/2+z
1/2-x,1/2-y,1/2+z
-x,1/2+y,1/2+z
x,1/2-y,1/2+z
loop_
_atom_site_type_symbol
_atom_site_label
_atom_site_fract_x
_atom_site_fract_y
_atom_site_fract_z
Si Si1 0.180929 0.937832 0.492840
Si Si2 0.320581 0.427226 0.751678
Si Si3 0.473262 0.211666 0.891167
Si Si4 0.893041 0.493227 0.367664
Si Si5 0.539269 0.065312 0.275908
Si Si6 0.250000 0.709708 0.487521
Si Si7 0.071944 0.392897 0.075564
Si Si8 0.619927 0.286436 0.353685
O O1 0.250000 0.905564 0.449471
O O2 0.109932 0.919039 0.392680
O O3 0.187831 0.007302 0.389678
O O4 0.166444 0.953054 0.774694
O O5 0.250000 0.403985 0.683223
O O6 0.365028 0.452667 0.537066
O O7 0.362760 0.383288 0.923947
O O8 0.462148 0.257831 0.656887
O O9 0.434147 0.152059 0.805718
O O10 0.548006 0.191717 0.889436
O O11 0.941137 0.445475 0.493623
O O12 0.925709 0.535672 0.164042
O O13 0.489171 0.113000 0.393794
O O14 0.500000 0.000000 0.302175
O O15 0.250000 0.738685 0.762205
O O16 0.316881 0.675796 0.431421
O O17 0.624942 0.232862 0.567255
#
# Coordination Sequence:
#
# PCOD9378720 Si02
#       8
#     8   8   8   8   8   4   8   8
#     4   9  18  32  51  79 118 159 191 231 288 359
#     4   9  18  32  53  85 119 150 197 244 295 367
#     4  10  23  41  61  86 116 155 211 265 314 361
#     4  10  19  32  55  85 122 156 200 235 302 366
#     4  11  20  33  52  86 121 151 193 240 293 366
#     4   8  12  20  42  72  98 124 164 224 294 342
#     4  11  23  36  60  87 120 162 198 258 309 363
#     4   8  14  27  47  74 100 129 173 233 290 342
#
# _framework density 24.428435
#
# number of rings (size 3 to 8) (size 9 to 14) (size 15 to 20)
#    0.000    2.400    4.000    0.400    3.733    1.067 
#    0.000    0.000    1.467    0.800    0.000    0.000 
#    0.000    0.000    0.000    0.000    0.000    0.000 
#
# Total GULP energy -167006.319595 kJ/mol
# GULP energy per Si atom -5566.877320 kJ/mol
# Density = 2.437283 g / cm^3
# Si number density = 24.428435 Si / 1000 Ang^3
#
#
#
# Elastic Constant Matrix: (Units=GPa)
#
#
# Indices 1 2 3 4 5 6 
#
# 1 100.2454 18.9377 25.0013 0.0000 0.0000 0.0000
# 2 18.9377 57.3856 18.7086 0.0000 0.0000 0.0000
# 3 25.0013 18.7086 86.7817 0.0000 0.0000 0.0000
# 4 0.0000 0.0000 0.0000 15.3577 0.0000 0.0000
# 5 0.0000 0.0000 0.0000 0.0000 86.1783 0.0000
# 6 0.0000 0.0000 0.0000 0.0000 0.0000 15.6283
#
#
#
# Elastic Compliance Matrix: (Units=1/GPa)
#
#
# Indices 1 2 3 4 5 6 
#
# 1 0.011160 -0.002834 -0.002604 0.000000 0.000000 0.000000
# 2 -0.002834 0.019463 -0.003379 0.000000 0.000000 0.000000
# 3 -0.002604 -0.003379 0.013002 0.000000 0.000000 0.000000
# 4 0.000000 0.000000 0.000000 0.065114 0.000000 0.000000
# 5 0.000000 0.000000 0.000000 0.000000 0.011604 0.000000
# 6 0.000000 0.000000 0.000000 0.000000 0.000000 0.063987
#
#
# Mechanical properties :
#
#
# Convention : Reuss Voigt Hill
#
# Bulk Modulus (GPa) = 38.47639 41.07867 39.77753
# Shear Modulus (GPa) = 23.73850 35.55054 29.64452
#
# Velocity S-wave (km/s) = 3.12068 3.81897 3.48735
# Velocity P-wave (km/s) = 5.36374 6.02482 5.70387
#
# Compressibility (1/GPa) = 0.02598997
#
# Stress axis : x y z
#
# Youngs Moduli (GPa) = 89.60244 51.37967 76.91129
#
# Poissons Ratio (x) = 0.14561 0.20030
# Poissons Ratio (y) = 0.25393 0.25992
# Poissons Ratio (z) = 0.23335 0.17363
#
# Static dielectric constant tensor:
#      x y z
#    x 1.972780 0.000000 0.000000 
#    y 0.000000 1.947840 0.000000 
#    z 0.000000 0.000000 2.128280 
# 
# From -- ./inp_files/2158.got.cif
#   From: 2010.05.17/outbox.cif.g08.bks.cpg/sg46_2_cif.got.tgz:2158.got - 2010.06.03 19:58:25.
