data_PCOD9378807
_publ_section_title
;
Structure prediction by ZEFSAII (Michael W. Deem and Ramdas Pophale) SiO2 
 PCOD9378807
Probable space group: I M A 2
;
_chemical_formula_sum "Si O2"
_cell_formula_units_Z 64
_cell_length_a 8.744608
_cell_length_b 16.746525
_cell_length_c 22.609540
_cell_angle_alpha 90.000000
_cell_angle_beta 90.000000
_cell_angle_gamma 90.000000
_cell_volume 3310.981655
_symmetry_space_group_name_H-M "I M A 2"
_symmetry_group_IT_number 46
_symmetry_cell_setting 'orthorhombic'
loop_
_space_group_symop_operation_xyz
x,y,z
-x,-y,z
1/2-x,y,z
1/2+x,-y,z
1/2+x,1/2+y,1/2+z
1/2-x,1/2-y,1/2+z
-x,1/2+y,1/2+z
x,1/2-y,1/2+z
loop_
_atom_site_type_symbol
_atom_site_label
_atom_site_fract_x
_atom_site_fract_y
_atom_site_fract_z
Si Si1 0.071079 0.412545 0.104770
Si Si2 0.424151 0.709292 0.331350
Si Si3 0.434560 0.920083 0.418353
Si Si4 0.068930 0.251800 0.952646
Si Si5 0.426455 0.610880 0.788099
Si Si6 0.936074 0.414961 0.655353
Si Si7 0.427707 0.416304 0.246800
Si Si8 0.933308 0.237560 0.074515
O O1 0.250000 0.412954 0.087736
O O2 0.058776 0.408372 0.176188
O O3 0.000000 0.500000 0.088147
O O4 0.997326 0.327821 0.084992
O O5 0.250000 0.693714 0.349742
O O6 0.525166 0.711572 0.390375
O O7 0.426659 0.794805 0.299205
O O8 0.481817 0.649082 0.282709
O O9 0.250000 0.918017 0.418743
O O10 0.498441 0.840740 0.447875
O O11 0.494368 0.918671 0.350150
O O12 0.500000 0.000000 0.446615
O O13 0.250000 0.255645 0.959768
O O14 0.992181 0.212546 0.009743
O O15 0.250000 0.582684 0.786929
O O16 0.492116 0.591806 0.723876
O O17 0.750000 0.417643 0.654983
O O18 0.979473 0.333319 0.620421
O O19 0.000000 0.500000 0.632050
O O20 0.500000 0.500000 0.263685
O O21 0.250000 0.412431 0.262037
O O22 0.750000 0.242887 0.076042
#
# Coordination Sequence:
#
# PCOD9378807 Si02
#       8
#     8   8   8   8   8   8   8   8
#     4  10  21  37  59  89 122 155 191 233 284 345
#     4  10  19  35  58  82 111 145 183 227 279 337
#     4  10  19  33  54  82 115 147 180 219 269 330
#     4  11  23  39  57  78 106 142 188 236 283 337
#     4   8  16  31  53  82 113 144 175 214 268 328
#     4  10  21  37  58  84 114 148 187 231 280 333
#     4  10  20  34  54  83 116 147 182 225 278 338
#     4  11  23  40  60  82 112 152 197 243 291 340
#
# _framework density 19.329613999999999
#
# number of rings (size 3 to 8) (size 9 to 14) (size 15 to 20)
#    0.000    2.000    0.000    4.875    0.000    4.000 
#    0.000    6.250    0.000    1.500    0.000    0.000 
#    0.000    0.000    0.000    0.000    0.000    0.000 
#
# Total GULP energy -178474.152641 kJ/mol
# GULP energy per Si atom -5577.317270 kJ/mol
# Density = 1.928562 g / cm^3
# Si number density = 19.329614 Si / 1000 Ang^3
#
#
#
# Elastic Constant Matrix: (Units=GPa)
#
#
# Indices 1 2 3 4 5 6 
#
# 1 65.2903 37.7623 26.5724 0.0000 0.0000 0.0000
# 2 37.7623 77.7081 36.8878 0.0000 0.0000 0.0000
# 3 26.5724 36.8878 72.3461 0.0000 0.0000 0.0000
# 4 0.0000 0.0000 0.0000 -6.5862 0.0000 0.0000
# 5 0.0000 0.0000 0.0000 0.0000 20.8991 0.0000
# 6 0.0000 0.0000 0.0000 0.0000 0.0000 32.6401
#
#
#
# Elastic Compliance Matrix: (Units=1/GPa)
#
#
# Indices 1 2 3 4 5 6 
#
# 1 0.021941 -0.009020 -0.003460 0.000000 0.000000 0.000000
# 2 -0.009020 0.020686 -0.007234 0.000000 0.000000 0.000000
# 3 -0.003460 -0.007234 0.018782 0.000000 0.000000 0.000000
# 4 0.000000 0.000000 0.000000 -0.151832 0.000000 0.000000
# 5 0.000000 0.000000 0.000000 0.000000 0.047849 0.000000
# 6 0.000000 0.000000 0.000000 0.000000 0.000000 0.030637
#
#
# Mechanical properties :
#
#
# Convention : Reuss Voigt Hill
#
# Bulk Modulus (GPa) = 45.49424 46.42105 45.95765
# Shear Modulus (GPa) = 143.60066 16.99872 80.29969
#
# Velocity S-wave (km/s) = 8.62854 2.96871 6.45232
# Velocity P-wave (km/s) = 11.08405 5.98487 8.90715
#
# Compressibility (1/GPa) = 0.02198080
#
# Stress axis : x y z
#
# Youngs Moduli (GPa) = 45.57620 48.34157 53.24280
#
# Poissons Ratio (x) = 0.43604 0.18421
# Poissons Ratio (y) = 0.41110 0.38518
# Poissons Ratio (z) = 0.15768 0.34972
#
# Static dielectric constant tensor:
#      x y z
#    x 1.658990 0.000000 0.000000 
#    y 0.000000 1.741040 0.000000 
#    z 0.000000 0.000000 1.692870 
# 
# From -- ./inp_files/23160.got.cif
#   From: 2010.05.17/outbox.cif.g08.bks.cpg/sg46_12_cif.got.tgz:23160.got - 2010.06.03 19:58:25.
