data_PCOD9378187
_publ_section_title
;
Structure prediction by ZEFSAII (Michael W. Deem and Ramdas Pophale) SiO2 
 PCOD9378187
Probable space group: I M A 2
;
_chemical_formula_sum "Si O2"
_cell_formula_units_Z 48
_cell_length_a 8.849293
_cell_length_b 14.202040
_cell_length_c 18.743855
_cell_angle_alpha 90.000000
_cell_angle_beta 90.000000
_cell_angle_gamma 90.000000
_cell_volume 2355.690455
_symmetry_space_group_name_H-M "I M A 2"
_symmetry_group_IT_number 46
_symmetry_cell_setting 'orthorhombic'
loop_
_space_group_symop_operation_xyz
x,y,z
-x,-y,z
1/2-x,y,z
1/2+x,-y,z
1/2+x,1/2+y,1/2+z
1/2-x,1/2-y,1/2+z
-x,1/2+y,1/2+z
x,1/2-y,1/2+z
loop_
_atom_site_type_symbol
_atom_site_label
_atom_site_fract_x
_atom_site_fract_y
_atom_site_fract_z
Si Si1 0.568482 0.900324 0.876890
Si Si2 0.933580 0.305566 0.510367
Si Si3 0.579213 0.403925 0.996223
Si Si4 0.069409 0.603441 0.662774
Si Si5 0.077877 0.904727 0.667905
Si Si6 0.428274 0.251064 0.257403
O O1 0.750000 0.906370 0.876537
O O2 0.523601 0.812163 0.826278
O O3 0.500000 0.000000 0.853047
O O4 0.504172 0.878130 0.954952
O O5 0.750000 0.304614 0.506120
O O6 0.988267 0.200731 0.486965
O O7 0.971558 0.337199 0.591007
O O8 0.500000 0.500000 0.971181
O O9 0.750000 0.403810 0.968053
O O10 0.586324 0.409351 0.082504
O O11 0.250000 0.598610 0.664762
O O12 0.000000 0.500000 0.656997
O O13 0.010969 0.656059 0.733841
O O14 0.250000 0.892478 0.694367
O O15 0.971569 0.821775 0.693582
O O16 0.000000 0.000000 0.692872
O O17 0.250000 0.234553 0.261892
#
# Coordination Sequence:
#
# PCOD9378187 Si02
#       6
#     8   8   8   8   8   8
#     4  11  25  42  62  91 124 162 206 250 304 368
#     4  10  21  40  63  90 125 163 205 252 305 364
#     4   9  18  33  53  84 119 152 193 241 293 352
#     4  11  23  41  64  92 123 158 205 257 309 369
#     4  10  18  31  52  82 117 151 191 240 295 352
#     4  11  23  39  59  87 120 158 204 250 302 363
#
# _framework density 20.376190000000001
#
# number of rings (size 3 to 8) (size 9 to 14) (size 15 to 20)
#    0.000    1.667    1.667    3.000    0.000    8.000 
#    0.000    0.833    0.000    2.000    0.000    0.000 
#    0.000    0.000    0.000    0.000    0.000    0.000 
#
# Total GULP energy -133902.907806 kJ/mol
# GULP energy per Si atom -5579.287825 kJ/mol
# Density = 2.032981 g / cm^3
# Si number density = 20.376190 Si / 1000 Ang^3
#
#
#
# Elastic Constant Matrix: (Units=GPa)
#
#
# Indices 1 2 3 4 5 6 
#
# 1 32.5233 27.9553 25.0397 0.0000 0.0000 0.0000
# 2 27.9553 131.1109 28.3327 0.0000 0.0000 0.0000
# 3 25.0397 28.3327 68.8808 0.0000 0.0000 0.0000
# 4 0.0000 0.0000 0.0000 34.9782 0.0000 0.0000
# 5 0.0000 0.0000 0.0000 0.0000 8.9224 0.0000
# 6 0.0000 0.0000 0.0000 0.0000 0.0000 35.2887
#
#
#
# Elastic Compliance Matrix: (Units=1/GPa)
#
#
# Indices 1 2 3 4 5 6 
#
# 1 0.048051 -0.007102 -0.014546 0.000000 0.000000 0.000000
# 2 -0.007102 0.009421 -0.001293 0.000000 0.000000 0.000000
# 3 -0.014546 -0.001293 0.020338 0.000000 0.000000 0.000000
# 4 0.000000 0.000000 0.000000 0.028589 0.000000 0.000000
# 5 0.000000 0.000000 0.000000 0.000000 0.112077 0.000000
# 6 0.000000 0.000000 0.000000 0.000000 0.000000 0.028338
#
#
# Mechanical properties :
#
#
# Convention : Reuss Voigt Hill
#
# Bulk Modulus (GPa) = 31.32221 43.90781 37.61501
# Shear Modulus (GPa) = 16.48322 25.91703 21.20012
#
# Velocity S-wave (km/s) = 2.84728 3.57028 3.22908
# Velocity P-wave (km/s) = 5.12003 6.21218 5.69236
#
# Compressibility (1/GPa) = 0.03192623
#
# Stress axis : x y z
#
# Youngs Moduli (GPa) = 20.81135 106.14718 49.16974
#
# Poissons Ratio (x) = 0.75385 0.71524
# Poissons Ratio (y) = 0.14780 0.06360
# Poissons Ratio (z) = 0.30273 0.13729
#
# Static dielectric constant tensor:
#      x y z
#    x 1.695140 0.000000 0.000000 
#    y 0.000000 1.747780 0.000000 
#    z 0.000000 0.000000 1.727450 
# 
# From -- ./inp_files/18170.got.cif
#   From: 2010.05.17/outbox.cif.g08.bks.cpg/sg46_10_cif.got.tgz:18170.got - 2010.06.03 19:58:25.
