data_PCOD9378711
_publ_section_title
;
Structure prediction by ZEFSAII (Michael W. Deem and Ramdas Pophale) SiO2 
 PCOD9378711
Probable space group: I M A 2
;
_chemical_formula_sum "Si O2"
_cell_formula_units_Z 64
_cell_length_a 7.930429
_cell_length_b 33.786602
_cell_length_c 12.200807
_cell_angle_alpha 90.000000
_cell_angle_beta 90.000000
_cell_angle_gamma 90.000000
_cell_volume 3269.111659
_symmetry_space_group_name_H-M "I M A 2"
_symmetry_group_IT_number 46
_symmetry_cell_setting 'orthorhombic'
loop_
_space_group_symop_operation_xyz
x,y,z
-x,-y,z
1/2-x,y,z
1/2+x,-y,z
1/2+x,1/2+y,1/2+z
1/2-x,1/2-y,1/2+z
-x,1/2+y,1/2+z
x,1/2-y,1/2+z
loop_
_atom_site_type_symbol
_atom_site_label
_atom_site_fract_x
_atom_site_fract_y
_atom_site_fract_z
Si Si1 0.044310 0.676136 0.056170
Si Si2 0.548607 0.880200 0.972922
Si Si3 0.048189 0.723727 0.852375
Si Si4 0.945623 0.851375 0.206664
Si Si5 0.947534 0.103535 0.409219
Si Si6 0.453795 0.453576 0.330170
Si Si7 0.049228 0.045522 0.586768
Si Si8 0.044529 0.687778 0.302326
O O1 0.250000 0.677033 0.058929
O O2 0.986101 0.678143 0.179634
O O3 0.987311 0.710091 0.972369
O O4 0.991364 0.636156 0.996460
O O5 0.750000 0.885624 0.986295
O O6 0.484720 0.921588 0.919845
O O7 0.517418 0.844803 0.887526
O O8 0.479171 0.865894 0.090983
O O9 0.250000 0.726511 0.858119
O O10 0.985676 0.767438 0.825642
O O11 0.014293 0.688532 0.765057
O O12 0.750000 0.842923 0.188110
O O13 0.964137 0.886684 0.295247
O O14 0.750000 0.110178 0.388596
O O15 0.973139 0.063937 0.476946
O O16 0.500000 0.500000 0.347644
O O17 0.250000 0.452379 0.329054
O O18 0.510697 0.439863 0.207521
O O19 0.250000 0.050766 0.581798
O O20 0.000000 0.000000 0.588639
O O21 0.250000 0.687184 0.304996
#
# Coordination Sequence:
#
# PCOD9378711 Si02
#       8
#     8   8   8   8   8   8   8   8
#     4   8  16  31  48  73 102 130 167 214 267 313
#     4  10  22  38  54  78 112 145 182 229 277 327
#     4   9  19  34  53  76 105 138 177 227 274 320
#     4  10  21  37  55  74 105 147 185 223 273 329
#     4  10  19  34  55  76 105 139 177 223 267 318
#     4   9  19  36  57  82 113 146 180 224 276 328
#     4  10  19  32  54  83 112 140 174 217 272 329
#     4  10  20  32  54  80 104 137 177 223 270 324
#
# _framework density 19.577185
#
# number of rings (size 3 to 8) (size 9 to 14) (size 15 to 20)
#    0.000    2.500    0.000    2.625    1.750    2.500 
#    0.000    3.125    0.000    1.500    0.000    0.000 
#    0.000    0.000    0.000    0.000    0.000    0.000 
#
# Total GULP energy -178354.452310 kJ/mol
# GULP energy per Si atom -5573.576635 kJ/mol
# Density = 1.953263 g / cm^3
# Si number density = 19.577185 Si / 1000 Ang^3
#
#
#
# Elastic Constant Matrix: (Units=GPa)
#
#
# Indices 1 2 3 4 5 6 
#
# 1 12.6198 -8.3405 -9.1879 0.0001 0.0000 0.0000
# 2 -8.3405 80.3722 63.3975 0.0002 0.0000 0.0000
# 3 -9.1879 63.3975 158.8691 0.0004 0.0000 0.0000
# 4 0.0001 0.0002 0.0004 19.9268 0.0000 0.0000
# 5 0.0000 0.0000 0.0000 0.0000 12.7773 0.0000
# 6 0.0000 0.0000 0.0000 0.0000 0.0000 20.4262
#
#
#
# Elastic Compliance Matrix: (Units=1/GPa)
#
#
# Indices 1 2 3 4 5 6 
#
# 1 0.085531 0.007259 0.002050 0.000000 0.000000 0.000000
# 2 0.007259 0.018774 -0.007072 0.000000 0.000000 0.000000
# 3 0.002050 -0.007072 0.009235 0.000000 0.000000 0.000000
# 4 0.000000 0.000000 0.000000 0.050184 0.000000 0.000000
# 5 0.000000 0.000000 0.000000 0.000000 0.078264 0.000000
# 6 0.000000 0.000000 0.000000 0.000000 0.000000 0.048957
#
#
# Mechanical properties :
#
#
# Convention : Reuss Voigt Hill
#
# Bulk Modulus (GPa) = 8.47363 38.17767 23.32565
# Shear Modulus (GPa) = 15.34646 24.35886 19.85266
#
# Velocity S-wave (km/s) = 2.80285 3.53122 3.18790
# Velocity P-wave (km/s) = 3.84868 6.01410 5.04885
#
# Compressibility (1/GPa) = 0.11801320
#
# Stress axis : x y z
#
# Youngs Moduli (GPa) = 11.69171 53.26590 108.28218
#
# Poissons Ratio (x) = -0.38665 -0.22196
# Poissons Ratio (y) = -0.08487 0.76577
# Poissons Ratio (z) = -0.02397 0.37669
#
# Static dielectric constant tensor:
#      x y z
#    x 1.713690 0.000000 0.000000 
#    y 0.000000 1.706290 0.000000 
#    z 0.000000 0.000000 1.709690 
# 
# From -- ./inp_files/9666.got.cif
#   From: 2010.05.17/outbox.cif.g08.bks.cpg/sg46_5_cif.got.tgz:9666.got - 2010.06.03 19:58:25.
