data_PCOD9378933
_publ_section_title
;
Structure prediction by ZEFSAII (Michael W. Deem and Ramdas Pophale) SiO2 
 PCOD9378933
Probable space group: I M A 2
;
_chemical_formula_sum "Si O2"
_cell_formula_units_Z 56
_cell_length_a 22.288515
_cell_length_b 5.193680
_cell_length_c 27.055086
_cell_angle_alpha 90.000000
_cell_angle_beta 90.000000
_cell_angle_gamma 90.000000
_cell_volume 3131.880917
_symmetry_space_group_name_H-M "I M A 2"
_symmetry_group_IT_number 46
_symmetry_cell_setting 'orthorhombic'
loop_
_space_group_symop_operation_xyz
x,y,z
-x,-y,z
1/2-x,y,z
1/2+x,-y,z
1/2+x,1/2+y,1/2+z
1/2-x,1/2-y,1/2+z
-x,1/2+y,1/2+z
x,1/2-y,1/2+z
loop_
_atom_site_type_symbol
_atom_site_label
_atom_site_fract_x
_atom_site_fract_y
_atom_site_fract_z
Si Si1 0.250000 0.485219 0.867930
Si Si2 0.930208 0.055718 0.299402
Si Si3 0.072481 0.492842 0.579155
Si Si4 0.750000 0.015158 0.797720
Si Si5 0.118631 0.474576 0.909516
Si Si6 0.622007 0.944551 0.750990
Si Si7 0.427173 0.506670 0.141552
Si Si8 0.572418 0.026172 0.965075
O O1 0.250000 0.221865 0.836373
O O2 0.189702 0.496455 0.900229
O O3 0.250000 0.722572 0.829425
O O4 0.911519 0.009912 0.355884
O O5 0.894729 0.844908 0.267033
O O6 0.914685 0.344933 0.283022
O O7 0.000000 0.000000 0.292578
O O8 0.090055 0.736677 0.612064
O O9 0.091854 0.501823 0.522272
O O10 0.000000 0.500000 0.577335
O O11 0.089650 0.234010 0.607293
O O12 0.690868 0.995508 0.764467
O O13 0.093229 0.700210 0.944046
O O14 0.101067 0.200999 0.932654
O O15 0.604056 0.988047 0.694429
O O16 0.500000 0.500000 0.148731
O O17 0.500000 0.000000 0.962304
#
# Coordination Sequence:
#
# PCOD9378933 Si02
#       8
#     4   8   8   4   8   8   8   8
#     4  12  24  44  60  79 114 163 212 232 276 338
#     4  12  23  37  56  88 123 151 184 243 303 348
#     4   9  19  35  57  83 117 150 185 234 290 357
#     4  12  22  44  60  79 116 161 210 234 274 340
#     4  12  23  39  60  84 119 157 198 242 279 350
#     4  12  23  38  60  85 118 158 197 241 282 348
#     4  10  19  34  56  86 116 149 189 235 294 347
#     4  11  22  38  61  92 120 151 191 240 303 351
#
# _framework density 17.880631000000001
#
# number of rings (size 3 to 8) (size 9 to 14) (size 15 to 20)
#    0.000    0.857    2.857    6.000    0.000    3.429 
#    0.000    0.000    0.000    5.143    0.000    0.000 
#    0.000    0.000    0.000    0.000    0.000    0.000 
#
# Total GULP energy -156550.197012 kJ/mol
# GULP energy per Si atom -5591.078465 kJ/mol
# Density = 1.783993 g / cm^3
# Si number density = 17.880631 Si / 1000 Ang^3
#
#
#
# Elastic Constant Matrix: (Units=GPa)
#
#
# Indices 1 2 3 4 5 6 
#
# 1 91.5616 -15.8992 1.0913 0.0000 0.0000 0.0000
# 2 -15.8992 63.2282 -6.6038 0.0000 0.0000 0.0000
# 3 1.0913 -6.6038 88.3497 0.0000 0.0000 0.0000
# 4 0.0000 0.0000 0.0000 33.1875 0.0000 0.0000
# 5 0.0000 0.0000 0.0000 0.0000 15.0987 0.0000
# 6 0.0000 0.0000 0.0000 0.0000 0.0000 18.3435
#
#
#
# Elastic Compliance Matrix: (Units=1/GPa)
#
#
# Indices 1 2 3 4 5 6 
#
# 1 0.011421 0.002880 0.000074 0.000000 0.000000 0.000000
# 2 0.002880 0.016666 0.001210 0.000000 0.000000 0.000000
# 3 0.000074 0.001210 0.011408 0.000000 0.000000 0.000000
# 4 0.000000 0.000000 0.000000 0.030132 0.000000 0.000000
# 5 0.000000 0.000000 0.000000 0.000000 0.066231 0.000000
# 6 0.000000 0.000000 0.000000 0.000000 0.000000 0.054515
#
#
# Mechanical properties :
#
#
# Convention : Reuss Voigt Hill
#
# Bulk Modulus (GPa) = 20.91046 22.25736 21.58391
# Shear Modulus (GPa) = 25.25425 30.96267 28.10846
#
# Velocity S-wave (km/s) = 3.76224 4.16580 3.96915
# Velocity P-wave (km/s) = 5.53105 5.96769 5.75351
#
# Compressibility (1/GPa) = 0.04782295
#
# Stress axis : x y z
#
# Youngs Moduli (GPa) = 87.55999 60.00162 87.65629
#
# Poissons Ratio (x) = -0.17278 -0.00650
# Poissons Ratio (y) = -0.25214 -0.10608
# Poissons Ratio (z) = -0.00649 -0.07261
#
# Static dielectric constant tensor:
#      x y z
#    x 1.579200 0.000000 0.000000 
#    y 0.000000 1.596770 0.000000 
#    z 0.000000 0.000000 1.584870 
# 
# From -- ./inp_files/22561.got.cif
#   From: 2010.05.17/outbox.cif.g08.bks.cpg/sg46_12_cif.got.tgz:22561.got - 2010.06.03 19:58:25.
