data_PCOD9378820
_publ_section_title
;
Structure prediction by ZEFSAII (Michael W. Deem and Ramdas Pophale) SiO2 
 PCOD9378820
Probable space group: I M A 2
;
_chemical_formula_sum "Si O2"
_cell_formula_units_Z 64
_cell_length_a 8.584060
_cell_length_b 18.749410
_cell_length_c 21.717988
_cell_angle_alpha 90.000000
_cell_angle_beta 90.000000
_cell_angle_gamma 90.000000
_cell_volume 3495.424609
_symmetry_space_group_name_H-M "I M A 2"
_symmetry_group_IT_number 46
_symmetry_cell_setting 'orthorhombic'
loop_
_space_group_symop_operation_xyz
x,y,z
-x,-y,z
1/2-x,y,z
1/2+x,-y,z
1/2+x,1/2+y,1/2+z
1/2-x,1/2-y,1/2+z
-x,1/2+y,1/2+z
x,1/2-y,1/2+z
loop_
_atom_site_type_symbol
_atom_site_label
_atom_site_fract_x
_atom_site_fract_y
_atom_site_fract_z
Si Si1 0.562987 0.833944 0.948780
Si Si2 0.438286 0.169063 0.449792
Si Si3 0.562521 0.419273 0.700175
Si Si4 0.561935 0.580634 0.068579
Si Si5 0.562772 0.080937 0.334766
Si Si6 0.935394 0.419148 0.332082
Si Si7 0.936856 0.918936 0.704064
Si Si8 0.937614 0.418910 0.565528
O O1 0.750000 0.837282 0.946592
O O2 0.513579 0.751411 0.949399
O O3 0.495982 0.873803 0.889254
O O4 0.504805 0.872996 0.010147
O O5 0.250000 0.166772 0.449122
O O6 0.491517 0.128857 0.511855
O O7 0.499384 0.127989 0.390153
O O8 0.500000 0.500000 0.700177
O O9 0.750000 0.420873 0.700123
O O10 0.514377 0.389579 0.766908
O O11 0.515037 0.389366 0.633456
O O12 0.500000 0.500000 0.062110
O O13 0.750000 0.577145 0.067273
O O14 0.518742 0.610144 0.136552
O O15 0.750000 0.078712 0.337414
O O16 0.500000 0.000000 0.340377
O O17 0.750000 0.422490 0.332224
O O18 0.000000 0.500000 0.337365
O O19 0.992869 0.387589 0.266578
O O20 0.750000 0.919477 0.709305
O O21 0.000000 0.000000 0.702768
O O22 0.750000 0.420471 0.561809
O O23 0.000000 0.500000 0.560623
#
# Coordination Sequence:
#
# PCOD9378820 Si02
#       8
#     8   8   8   8   8   8   8   8
#     4  11  23  38  53  72 103 140 177 216 258 305
#     4  10  22  38  53  73 104 141 179 217 257 303
#     4   8  16  30  50  77 106 133 164 208 256 303
#     4   9  18  33  54  79 105 134 169 210 255 304
#     4  10  19  33  55  81 108 138 174 214 257 305
#     4  11  21  35  56  80 105 133 170 212 257 309
#     4   9  16  29  51  78 106 132 164 208 256 303
#     4  10  19  34  56  80 105 133 169 211 257 308
#
# _framework density 18.309650000000001
#
# number of rings (size 3 to 8) (size 9 to 14) (size 15 to 20)
#    0.000    2.250    0.000    4.125    0.000    4.000 
#    0.000    1.250    0.000    4.500    0.000    0.000 
#    0.000    0.000    0.000    0.000    0.000    0.000 
#
# Total GULP energy -178429.917824 kJ/mol
# GULP energy per Si atom -5575.934932 kJ/mol
# Density = 1.826798 g / cm^3
# Si number density = 18.309650 Si / 1000 Ang^3
#
#
#
# Elastic Constant Matrix: (Units=GPa)
#
#
# Indices 1 2 3 4 5 6 
#
# 1 52.3831 27.6714 49.6527 0.0000 0.0000 0.0000
# 2 27.6714 82.1846 88.7085 0.0000 0.0000 0.0000
# 3 49.6527 88.7085 240.6776 0.0000 0.0000 0.0000
# 4 0.0000 0.0000 0.0000 -4.9643 0.0000 0.0000
# 5 0.0000 0.0000 0.0000 0.0000 -10.5980 0.0000
# 6 0.0000 0.0000 0.0000 0.0000 0.0000 19.6358
#
#
#
# Elastic Compliance Matrix: (Units=1/GPa)
#
#
# Indices 1 2 3 4 5 6 
#
# 1 0.024774 -0.004691 -0.003382 0.000000 0.000000 0.000000
# 2 -0.004691 0.021095 -0.006807 0.000000 0.000000 0.000000
# 3 -0.003382 -0.006807 0.007362 0.000000 0.000000 0.000000
# 4 0.000000 0.000000 0.000000 -0.201438 0.000000 0.000000
# 5 0.000000 0.000000 0.000000 0.000000 -0.094357 0.000000
# 6 0.000000 0.000000 0.000000 0.000000 0.000000 0.050927
#
#
# Mechanical properties :
#
#
# Convention : Reuss Voigt Hill
#
# Bulk Modulus (GPa) = 42.60765 78.59006 60.59885
# Shear Modulus (GPa) = -32.45628 14.76220 -8.84704
#
# Velocity S-wave (km/s) = -4.21483 2.84254 -2.20054
# Velocity P-wave (km/s) = 0.60440 7.33412 5.16837
#
# Compressibility (1/GPa) = 0.02346997
#
# Stress axis : x y z
#
# Youngs Moduli (GPa) = 40.36533 47.40495 135.83818
#
# Poissons Ratio (x) = 0.22237 0.45940
# Poissons Ratio (y) = 0.18935 0.92470
# Poissons Ratio (z) = 0.13652 0.32270
#
# Static dielectric constant tensor:
#      x y z
#    x 1.626520 0.000000 0.000000 
#    y 0.000000 1.572170 0.000000 
#    z 0.000000 0.000000 1.678680 
# 
# From -- ./inp_files/21326.got.cif
#   From: 2010.05.17/outbox.cif.g08.bks.cpg/sg46_11_cif.got.tgz:21326.got - 2010.06.03 19:58:25.
