data_PCOD9378461
_publ_section_title
;
Structure prediction by ZEFSAII (Michael W. Deem and Ramdas Pophale) SiO2 
 PCOD9378461
Probable space group: I M A 2
;
_chemical_formula_sum "Si O2"
_cell_formula_units_Z 64
_cell_length_a 8.612739
_cell_length_b 27.115933
_cell_length_c 19.093451
_cell_angle_alpha 90.000000
_cell_angle_beta 90.000000
_cell_angle_gamma 90.000000
_cell_volume 4459.131396
_symmetry_space_group_name_H-M "I M A 2"
_symmetry_group_IT_number 46
_symmetry_cell_setting 'orthorhombic'
loop_
_space_group_symop_operation_xyz
x,y,z
-x,-y,z
1/2-x,y,z
1/2+x,-y,z
1/2+x,1/2+y,1/2+z
1/2-x,1/2-y,1/2+z
-x,1/2+y,1/2+z
x,1/2-y,1/2+z
loop_
_atom_site_type_symbol
_atom_site_label
_atom_site_fract_x
_atom_site_fract_y
_atom_site_fract_z
Si Si1 0.565448 0.053982 0.776990
Si Si2 0.434678 0.292098 0.485717
Si Si3 0.063102 0.745079 0.114445
Si Si4 0.937878 0.356622 0.034271
Si Si5 0.935099 0.645496 0.357371
Si Si6 0.934971 0.301261 0.903272
Si Si7 0.938711 0.241281 0.776123
Si Si8 0.565205 0.554159 0.122765
O O1 0.750000 0.051459 0.772304
O O2 0.513960 0.095865 0.830867
O O3 0.499531 0.067017 0.699997
O O4 0.500000 0.000000 0.795125
O O5 0.250000 0.283101 0.481011
O O6 0.487989 0.287046 0.565621
O O7 0.468514 0.339843 0.438239
O O8 0.525603 0.248048 0.446846
O O9 0.250000 0.749476 0.110370
O O10 0.022052 0.691578 0.081313
O O11 0.015964 0.746870 0.195406
O O12 0.750000 0.360870 0.035141
O O13 0.010382 0.404762 0.068270
O O14 0.991521 0.344654 0.954610
O O15 0.750000 0.641318 0.349238
O O16 0.993935 0.691358 0.310019
O O17 0.750000 0.307226 0.899216
O O18 0.989870 0.287248 0.825383
O O19 0.750000 0.237894 0.778962
O O20 0.500000 0.500000 0.105241
O O21 0.750000 0.552009 0.126216
#
# Coordination Sequence:
#
# PCOD9378461 Si02
#       8
#     8   8   8   8   8   8   8   8
#     4  11  21  33  47  62  82 108 137 172 208 244
#     4   9  17  27  40  58  82 108 137 171 204 238
#     4   9  17  27  41  60  84 111 140 170 201 241
#     4   9  16  27  41  59  83 112 142 172 205 242
#     4  10  19  30  43  61  83 110 142 174 206 243
#     4   8  15  27  42  58  80 108 138 170 205 242
#     4   9  16  27  43  63  84 111 143 173 205 244
#     4  11  21  32  45  61  82 108 138 174 209 244
#
# _framework density 14.352572
#
# number of rings (size 3 to 8) (size 9 to 14) (size 15 to 20)
#    0.000    2.500    0.000    5.250    0.000    5.000 
#    0.000    0.000    0.000    0.000    0.000    0.000 
#    0.000    1.000    0.000    8.750    0.000    3.125 
#
# Total GULP energy -178221.294826 kJ/mol
# GULP energy per Si atom -5569.415463 kJ/mol
# Density = 1.431990 g / cm^3
# Si number density = 14.352572 Si / 1000 Ang^3
#
#
#
# Elastic Constant Matrix: (Units=GPa)
#
#
# Indices 1 2 3 4 5 6 
#
# 1 37.6590 27.4086 24.2010 0.0000 0.0000 0.0000
# 2 27.4086 72.0579 46.5137 0.0000 0.0000 0.0000
# 3 24.2010 46.5137 101.8849 -0.0001 0.0000 0.0000
# 4 0.0000 0.0000 -0.0001 26.0863 0.0000 0.0000
# 5 0.0000 0.0000 0.0000 0.0000 16.7801 0.0000
# 6 0.0000 0.0000 0.0000 0.0000 0.0000 18.8120
#
#
#
# Elastic Compliance Matrix: (Units=1/GPa)
#
#
# Indices 1 2 3 4 5 6 
#
# 1 0.037532 -0.012082 -0.003399 0.000000 0.000000 0.000000
# 2 -0.012082 0.023565 -0.007889 0.000000 0.000000 0.000000
# 3 -0.003399 -0.007889 0.014224 0.000000 0.000000 0.000000
# 4 0.000000 0.000000 0.000000 0.038334 0.000000 0.000000
# 5 0.000000 0.000000 0.000000 0.000000 0.059594 0.000000
# 6 0.000000 0.000000 0.000000 0.000000 0.000000 0.053158
#
#
# Mechanical properties :
#
#
# Convention : Reuss Voigt Hill
#
# Bulk Modulus (GPa) = 34.98727 45.31649 40.15188
# Shear Modulus (GPa) = 17.68826 19.90091 18.79458
#
# Velocity S-wave (km/s) = 3.51438 3.72771 3.62262
# Velocity P-wave (km/s) = 6.39513 7.08309 6.74788
#
# Compressibility (1/GPa) = 0.02858182
#
# Stress axis : x y z
#
# Youngs Moduli (GPa) = 26.64408 42.43533 70.30457
#
# Poissons Ratio (x) = 0.51269 0.23899
# Poissons Ratio (y) = 0.32190 0.55460
# Poissons Ratio (z) = 0.09057 0.33475
#
# Static dielectric constant tensor:
#      x y z
#    x 1.482950 0.000000 0.000000 
#    y 0.000000 1.454710 0.000000 
#    z 0.000000 0.000000 1.503100 
# 
# From -- ./inp_files/21478.got.cif
#   From: 2010.05.17/outbox.cif.g08.bks.cpg/sg46_11_cif.got.tgz:21478.got - 2010.06.03 19:58:25.
