data_PCOD9378258
_publ_section_title
;
Structure prediction by ZEFSAII (Michael W. Deem and Ramdas Pophale) SiO2 
 PCOD9378258
Probable space group: I M A 2
;
_chemical_formula_sum "Si O2"
_cell_formula_units_Z 64
_cell_length_a 14.128689
_cell_length_b 11.340061
_cell_length_c 17.501946
_cell_angle_alpha 90.000000
_cell_angle_beta 90.000000
_cell_angle_gamma 90.000000
_cell_volume 2804.165203
_symmetry_space_group_name_H-M "I M A 2"
_symmetry_group_IT_number 46
_symmetry_cell_setting 'orthorhombic'
loop_
_space_group_symop_operation_xyz
x,y,z
-x,-y,z
1/2-x,y,z
1/2+x,-y,z
1/2+x,1/2+y,1/2+z
1/2-x,1/2-y,1/2+z
-x,1/2+y,1/2+z
x,1/2-y,1/2+z
loop_
_atom_site_type_symbol
_atom_site_label
_atom_site_fract_x
_atom_site_fract_y
_atom_site_fract_z
Si Si1 0.357268 0.049191 0.746800
Si Si2 0.088114 0.914361 0.599189
Si Si3 0.363544 0.060887 0.049138
Si Si4 0.867044 0.801791 0.195436
Si Si5 0.133917 0.933910 0.901973
Si Si6 0.861322 0.021504 0.294992
Si Si7 0.860163 0.327615 0.646830
Si Si8 0.638883 0.332423 0.932942
O O1 0.250000 0.074802 0.770527
O O2 0.400036 0.176399 0.727312
O O3 0.356510 0.978635 0.667491
O O4 0.395576 0.971734 0.816777
O O5 0.075489 0.783392 0.631776
O O6 0.131560 0.887551 0.516703
O O7 0.000000 0.000000 0.587206
O O8 0.250000 0.073925 0.044738
O O9 0.394306 0.162031 0.108477
O O10 0.382979 0.938263 0.093214
O O11 0.396021 0.034756 0.963065
O O12 0.750000 0.802599 0.194562
O O13 0.900291 0.905824 0.252461
O O14 0.250000 0.929630 0.905345
O O15 0.101317 0.801850 0.925375
O O16 0.750000 0.992638 0.308812
O O17 0.864036 0.125150 0.232415
O O18 0.902954 0.075869 0.371789
O O19 0.750000 0.294563 0.630301
O O20 0.750000 0.322092 0.913784
#
# Coordination Sequence:
#
# PCOD9378258 Si02
#       8
#     8   8   8   8   8   8   8   8
#     4  10  20  35  55  80 110 145 183 228 283 337
#     4  12  24  35  50  72 114 149 180 225 284 337
#     4   8  13  25  50  82 109 135 174 228 279 319
#     4   8  15  29  49  78 113 139 169 214 273 342
#     4   9  16  28  53  86 109 132 179 235 279 319
#     4   8  15  28  55  87 106 130 174 234 286 321
#     4   9  15  30  57  84 107 136 181 233 278 323
#     4  10  18  32  55  83 107 133 182 238 284 326
#
# _framework density 22.823191000000001
#
# number of rings (size 3 to 8) (size 9 to 14) (size 15 to 20)
#    0.000    2.750    1.250    3.375    0.000    2.000 
#    2.250    0.000    5.500    2.250    0.000    0.000 
#    0.000    0.000    0.000    0.000    0.000    0.000 
#
# Total GULP energy -178529.311883 kJ/mol
# GULP energy per Si atom -5579.040996 kJ/mol
# Density = 2.277124 g / cm^3
# Si number density = 22.823191 Si / 1000 Ang^3
#
#
#
# Elastic Constant Matrix: (Units=GPa)
#
#
# Indices 1 2 3 4 5 6 
#
# 1 55.4836 13.1542 -7.8204 0.0000 0.0000 0.0000
# 2 13.1542 111.7021 61.0895 0.0000 0.0000 0.0000
# 3 -7.8204 61.0895 169.3513 0.0000 0.0000 0.0000
# 4 0.0000 0.0000 0.0000 7.6203 0.0000 0.0000
# 5 0.0000 0.0000 0.0000 0.0000 -26.1068 0.0000
# 6 0.0000 0.0000 0.0000 0.0000 0.0000 19.5083
#
#
#
# Elastic Compliance Matrix: (Units=1/GPa)
#
#
# Indices 1 2 3 4 5 6 
#
# 1 0.019129 -0.003408 0.002113 0.000000 0.000000 0.000000
# 2 -0.003408 0.011760 -0.004399 0.000000 0.000000 0.000000
# 3 0.002113 -0.004399 0.007589 0.000000 0.000000 0.000000
# 4 0.000000 0.000000 0.000000 0.131228 0.000000 0.000000
# 5 0.000000 0.000000 0.000000 0.000000 -0.038304 0.000000
# 6 0.000000 0.000000 0.000000 0.000000 0.000000 0.051260
#
#
# Mechanical properties :
#
#
# Convention : Reuss Voigt Hill
#
# Bulk Modulus (GPa) = 36.91570 52.15373 44.53472
# Shear Modulus (GPa) = 24.62060 18.21194 21.41627
#
# Velocity S-wave (km/s) = 3.28800 2.82788 3.06658
# Velocity P-wave (km/s) = 5.53393 5.79339 5.66514
#
# Compressibility (1/GPa) = 0.02708874
#
# Stress axis : x y z
#
# Youngs Moduli (GPa) = 52.27619 85.03566 131.76186
#
# Poissons Ratio (x) = 0.28981 -0.27838
# Poissons Ratio (y) = 0.17817 0.57968
# Poissons Ratio (z) = -0.11045 0.37411
#
# Static dielectric constant tensor:
#      x y z
#    x 1.962870 0.000000 0.000000 
#    y 0.000000 1.827470 0.000000 
#    z 0.000000 0.000000 1.859290 
# 
# From -- ./inp_files/20041.got.cif
#   From: 2010.05.17/outbox.cif.g08.bks.cpg/sg46_11_cif.got.tgz:20041.got - 2010.06.03 19:58:25.
