data_PCOD9378125
_publ_section_title
;
Structure prediction by ZEFSAII (Michael W. Deem and Ramdas Pophale) SiO2 
 PCOD9378125
Probable space group: I M A 2
;
_chemical_formula_sum "Si O2"
_cell_formula_units_Z 64
_cell_length_a 8.080910
_cell_length_b 24.000347
_cell_length_c 19.955292
_cell_angle_alpha 90.000000
_cell_angle_beta 90.000000
_cell_angle_gamma 90.000000
_cell_volume 3870.222004
_symmetry_space_group_name_H-M "I M A 2"
_symmetry_group_IT_number 46
_symmetry_cell_setting 'orthorhombic'
loop_
_space_group_symop_operation_xyz
x,y,z
-x,-y,z
1/2-x,y,z
1/2+x,-y,z
1/2+x,1/2+y,1/2+z
1/2-x,1/2-y,1/2+z
-x,1/2+y,1/2+z
x,1/2-y,1/2+z
loop_
_atom_site_type_symbol
_atom_site_label
_atom_site_fract_x
_atom_site_fract_y
_atom_site_fract_z
Si Si1 0.447706 0.834864 0.065530
Si Si2 0.552211 0.750592 0.292204
Si Si3 0.948303 0.936537 0.427820
Si Si4 0.551668 0.774433 0.646676
Si Si5 0.951957 0.662839 0.019424
Si Si6 0.550175 0.773229 0.937982
Si Si7 0.052779 0.621372 0.790435
Si Si8 0.949289 0.063538 0.153141
O O1 0.250000 0.832482 0.071169
O O2 0.517744 0.785077 0.111713
O O3 0.505708 0.893700 0.095412
O O4 0.495348 0.820793 0.989430
O O5 0.750000 0.741927 0.291771
O O6 0.484205 0.726809 0.222145
O O7 0.488119 0.724863 0.361792
O O8 0.522680 0.816964 0.293717
O O9 0.750000 0.933685 0.425466
O O10 0.007038 0.894759 0.486475
O O11 0.012885 0.912842 0.357266
O O12 0.000000 0.000000 0.437852
O O13 0.750000 0.780688 0.650723
O O14 0.490050 0.820720 0.593906
O O15 0.750000 0.662517 0.020610
O O16 0.001544 0.714162 0.971085
O O17 0.750000 0.773036 0.937027
O O18 0.250000 0.628056 0.784795
O O19 0.992562 0.588291 0.724621
O O20 0.750000 0.064846 0.154299
O O21 0.000000 0.000000 0.143881
#
# Coordination Sequence:
#
# PCOD9378125 Si02
#       8
#     8   8   8   8   8   8   8   8
#     4  10  19  32  46  68  96 123 154 198 241 277
#     4  10  18  30  50  73  97 126 160 196 235 281
#     4  11  21  34  48  66  94 128 165 203 235 275
#     4   9  17  30  50  71  91 123 158 192 236 283
#     4   8  15  29  46  65  92 119 151 193 233 273
#     4   9  17  31  48  69  93 122 157 192 235 287
#     4  11  21  33  46  67  98 130 163 196 231 278
#     4  10  22  35  47  65  93 126 163 199 233 276
#
# _framework density 16.536518000000001
#
# number of rings (size 3 to 8) (size 9 to 14) (size 15 to 20)
#    0.000    2.250    2.500    2.250    0.000    3.500 
#    0.000    0.625    0.000    0.000    0.000    0.875 
#    0.000    4.000    0.000    0.000    0.000    0.000 
#
# Total GULP energy -178442.101669 kJ/mol
# GULP energy per Si atom -5576.315677 kJ/mol
# Density = 1.649888 g / cm^3
# Si number density = 16.536518 Si / 1000 Ang^3
#
#
#
# Elastic Constant Matrix: (Units=GPa)
#
#
# Indices 1 2 3 4 5 6 
#
# 1 8.1728 -5.0257 8.7662 0.0000 0.0000 0.0000
# 2 -5.0257 91.5175 85.2331 0.0000 0.0000 0.0000
# 3 8.7662 85.2331 170.8257 0.0000 0.0000 0.0000
# 4 0.0000 0.0000 0.0000 21.0706 0.0000 0.0000
# 5 0.0000 0.0000 0.0000 0.0000 12.5079 0.0000
# 6 0.0000 0.0000 0.0000 0.0000 0.0000 20.0194
#
#
#
# Elastic Compliance Matrix: (Units=1/GPa)
#
#
# Indices 1 2 3 4 5 6 
#
# 1 0.168934 0.032413 -0.024841 0.000000 0.000000 0.000000
# 2 0.032413 0.026631 -0.014951 0.000000 0.000000 0.000000
# 3 -0.024841 -0.014951 0.014588 0.000000 0.000000 0.000000
# 4 0.000000 0.000000 0.000000 0.047459 0.000000 0.000000
# 5 0.000000 0.000000 0.000000 0.000000 0.079949 0.000000
# 6 0.000000 0.000000 0.000000 0.000000 0.000000 0.049952
#
#
# Mechanical properties :
#
#
# Convention : Reuss Voigt Hill
#
# Bulk Modulus (GPa) = 5.11785 49.82922 27.47354
# Shear Modulus (GPa) = 10.69738 22.82241 16.75989
#
# Velocity S-wave (km/s) = 2.54617 3.71903 3.18702
# Velocity P-wave (km/s) = 3.42718 6.97423 5.49479
#
# Compressibility (1/GPa) = 0.19539449
#
# Stress axis : x y z
#
# Youngs Moduli (GPa) = 5.91947 37.55033 68.54794
#
# Poissons Ratio (x) = -1.21710 1.70282
# Poissons Ratio (y) = -0.19187 1.02484
# Poissons Ratio (z) = 0.14705 0.56141
#
# Static dielectric constant tensor:
#      x y z
#    x 1.585730 0.000000 0.000000 
#    y 0.000000 1.525810 0.000000 
#    z 0.000000 0.000000 1.591190 
# 
# From -- ./inp_files/21458.got.cif
#   From: 2010.05.17/outbox.cif.g08.bks.cpg/sg46_11_cif.got.tgz:21458.got - 2010.06.03 19:58:25.
