data_PCOD9378316
_publ_section_title
;
Structure prediction by ZEFSAII (Michael W. Deem and Ramdas Pophale) SiO2 
 PCOD9378316
Probable space group: I M A 2
;
_chemical_formula_sum "Si O2"
_cell_formula_units_Z 56
_cell_length_a 24.816462
_cell_length_b 16.867336
_cell_length_c 5.442764
_cell_angle_alpha 90.000000
_cell_angle_beta 90.000000
_cell_angle_gamma 90.000000
_cell_volume 2278.273536
_symmetry_space_group_name_H-M "I M A 2"
_symmetry_group_IT_number 46
_symmetry_cell_setting 'orthorhombic'
loop_
_space_group_symop_operation_xyz
x,y,z
-x,-y,z
1/2-x,y,z
1/2+x,-y,z
1/2+x,1/2+y,1/2+z
1/2-x,1/2-y,1/2+z
-x,1/2+y,1/2+z
x,1/2-y,1/2+z
loop_
_atom_site_type_symbol
_atom_site_label
_atom_site_fract_x
_atom_site_fract_y
_atom_site_fract_z
Si Si1 0.073160 0.319752 0.872910
Si Si2 0.446858 0.458368 0.536205
Si Si3 0.326646 0.213139 0.845294
Si Si4 0.312963 0.700133 0.603551
Si Si5 0.382919 0.923798 0.372384
Si Si6 0.146490 0.439280 0.148500
Si Si7 0.459241 0.702870 0.099013
O O1 0.046618 0.369968 0.647542
O O2 0.108856 0.239349 0.840796
O O3 0.022767 0.315705 0.059071
O O4 0.121649 0.378927 0.948413
O O5 0.500000 0.500000 0.437251
O O6 0.425495 0.516760 0.748943
O O7 0.402046 0.458126 0.330342
O O8 0.306562 0.259286 0.607346
O O9 0.316561 0.120238 0.802481
O O10 0.250000 0.676252 0.614392
O O11 0.321350 0.739390 0.335425
O O12 0.352409 0.628162 0.669113
O O13 0.418312 0.868279 0.548043
O O14 0.339890 0.978733 0.517884
O O15 0.449811 0.762251 0.868527
#
# Coordination Sequence:
#
# PCOD9378316 Si02
#       7
#     8   8   8   8   8   8   8
#     4  10  21  35  48  74 103 159 207 247 285 338
#     4  11  22  35  52  79 121 166 207 253 313 360
#     4  10  18  34  51  68  99 144 200 240 273 335
#     4  10  23  46  74  99 126 162 208 269 339 400
#     4  11  25  38  58  88 123 158 206 263 319 390
#     4  10  23  34  53  76 114 159 199 253 304 357
#     4  12  26  37  54  78 107 154 207 258 299 353
#
# _framework density 24.580016000000001
#
# number of rings (size 3 to 8) (size 9 to 14) (size 15 to 20)
#    0.000    1.429    2.857    2.571    8.000    0.000 
#    0.000    0.000    0.000    0.000    0.000    0.000 
#    0.000   10.286    0.000    0.000    0.000    0.000 
#
# Total GULP energy -156420.748268 kJ/mol
# GULP energy per Si atom -5586.455295 kJ/mol
# Density = 2.452407 g / cm^3
# Si number density = 24.580016 Si / 1000 Ang^3
#
#
#
# Elastic Constant Matrix: (Units=GPa)
#
#
# Indices 1 2 3 4 5 6 
#
# 1 83.3906 14.7681 -10.4018 0.0000 0.0000 0.0000
# 2 14.7681 90.9649 10.2024 0.0000 0.0000 0.0000
# 3 -10.4018 10.2024 89.3481 0.0000 0.0000 0.0000
# 4 0.0000 0.0000 0.0000 28.3625 0.0000 0.0000
# 5 0.0000 0.0000 0.0000 0.0000 -82.3484 0.0000
# 6 0.0000 0.0000 0.0000 0.0000 0.0000 -15.1194
#
#
#
# Elastic Compliance Matrix: (Units=1/GPa)
#
#
# Indices 1 2 3 4 5 6 
#
# 1 0.012603 -0.002239 0.001723 0.000000 0.000000 0.000000
# 2 -0.002239 0.011534 -0.001578 0.000000 0.000000 0.000000
# 3 0.001723 -0.001578 0.011573 0.000000 0.000000 0.000000
# 4 0.000000 0.000000 0.000000 0.035258 0.000000 0.000000
# 5 0.000000 0.000000 0.000000 0.000000 -0.012144 0.000000
# 6 0.000000 0.000000 0.000000 0.000000 0.000000 -0.066140
#
#
# Mechanical properties :
#
#
# Convention : Reuss Voigt Hill
#
# Bulk Modulus (GPa) = 31.72418 32.53789 32.13103
# Shear Modulus (GPa) = 677.56753 2.78794 340.17774
#
# Velocity S-wave (km/s) = 16.62096 1.06616 11.77695
# Velocity P-wave (km/s) = 19.52630 3.84472 14.07228
#
# Compressibility (1/GPa) = 0.03152170
#
# Stress axis : x y z
#
# Youngs Moduli (GPa) = 79.34459 86.70198 86.40860
#
# Poissons Ratio (x) = 0.19416 -0.14888
# Poissons Ratio (y) = 0.17768 0.13633
# Poissons Ratio (z) = -0.13671 0.13679
#
# Static dielectric constant tensor:
#      x y z
#    x 2.023200 0.000000 0.000000 
#    y 0.000000 2.036900 0.000000 
#    z 0.000000 0.000000 2.092950 
# 
# From -- ./inp_files/2724.got.cif
#   From: 2010.05.17/outbox.cif.g08.bks.cpg/sg46_2_cif.got.tgz:2724.got - 2010.06.03 19:58:25.
