data_PCOD9378528
_publ_section_title
;
Structure prediction by ZEFSAII (Michael W. Deem and Ramdas Pophale) SiO2 
 PCOD9378528
Probable space group: I M A 2
;
_chemical_formula_sum "Si O2"
_cell_formula_units_Z 48
_cell_length_a 8.817443
_cell_length_b 14.099108
_cell_length_c 24.320509
_cell_angle_alpha 90.000000
_cell_angle_beta 90.000000
_cell_angle_gamma 90.000000
_cell_volume 3023.479011
_symmetry_space_group_name_H-M "I M A 2"
_symmetry_group_IT_number 46
_symmetry_cell_setting 'orthorhombic'
loop_
_space_group_symop_operation_xyz
x,y,z
-x,-y,z
1/2-x,y,z
1/2+x,-y,z
1/2+x,1/2+y,1/2+z
1/2-x,1/2-y,1/2+z
-x,1/2+y,1/2+z
x,1/2-y,1/2+z
loop_
_atom_site_type_symbol
_atom_site_label
_atom_site_fract_x
_atom_site_fract_y
_atom_site_fract_z
Si Si1 0.067589 0.602962 0.997550
Si Si2 0.068734 0.896684 0.623111
Si Si3 0.068043 0.396191 0.333988
Si Si4 0.568829 0.713445 0.222104
Si Si5 0.067476 0.782500 0.391420
Si Si6 0.567725 0.602902 0.789845
O O1 0.250000 0.595303 0.996470
O O2 0.023691 0.678963 0.951503
O O3 0.000000 0.500000 0.983896
O O4 0.022388 0.626589 0.060232
O O5 0.250000 0.903167 0.625180
O O6 0.011593 0.821437 0.667343
O O7 0.000000 0.000000 0.636445
O O8 0.250000 0.397697 0.338372
O O9 0.029179 0.355913 0.273136
O O10 0.000000 0.500000 0.341511
O O11 0.000450 0.319613 0.376242
O O12 0.750000 0.708111 0.214487
O O13 0.531213 0.819157 0.243035
O O14 0.250000 0.779762 0.387320
O O15 0.002338 0.855185 0.345995
O O16 0.500000 0.500000 0.778476
O O17 0.750000 0.598743 0.795262
#
# Coordination Sequence:
#
# PCOD9378528 Si02
#       6
#     8   8   8   8   8   8
#     4   9  19  32  47  70  97 125 156 192 232 276
#     4  10  19  31  48  70  96 125 157 192 232 277
#     4  10  20  33  49  71  98 126 158 195 236 281
#     4   9  19  33  48  69  96 124 155 192 232 277
#     4  10  19  32  50  71  97 127 159 194 234 279
#     4  10  20  33  49  71  98 125 157 195 236 282
#
# _framework density 15.875750999999999
#
# number of rings (size 3 to 8) (size 9 to 14) (size 15 to 20)
#    0.000    2.333    0.000    4.000    0.000    8.667 
#    0.000    0.000    0.000    1.000    0.000    2.333 
#    0.000    0.000    0.000    0.000    0.000    0.000 
#
# Total GULP energy -133892.030656 kJ/mol
# GULP energy per Si atom -5578.834611 kJ/mol
# Density = 1.583962 g / cm^3
# Si number density = 15.875751 Si / 1000 Ang^3
#
#
#
# Elastic Constant Matrix: (Units=GPa)
#
#
# Indices 1 2 3 4 5 6 
#
# 1 46.9343 51.1217 43.8017 0.0000 0.0000 0.0000
# 2 51.1217 147.7114 83.0044 0.0000 0.0000 0.0000
# 3 43.8017 83.0044 101.6767 0.0000 0.0000 0.0000
# 4 0.0000 0.0000 0.0000 21.3320 0.0000 0.0000
# 5 0.0000 0.0000 0.0000 0.0000 22.5332 0.0000
# 6 0.0000 0.0000 0.0000 0.0000 0.0000 30.6553
#
#
#
# Elastic Compliance Matrix: (Units=1/GPa)
#
#
# Indices 1 2 3 4 5 6 
#
# 1 0.039821 -0.007652 -0.010908 0.000000 0.000000 0.000000
# 2 -0.007652 0.013978 -0.008115 0.000000 0.000000 0.000000
# 3 -0.010908 -0.008115 0.021158 0.000000 0.000000 0.000000
# 4 0.000000 0.000000 0.000000 0.046878 0.000000 0.000000
# 5 0.000000 0.000000 0.000000 0.000000 0.044379 0.000000
# 6 0.000000 0.000000 0.000000 0.000000 0.000000 0.032621
#
#
# Mechanical properties :
#
#
# Convention : Reuss Voigt Hill
#
# Bulk Modulus (GPa) = 46.27800 72.46422 59.37111
# Shear Modulus (GPa) = 19.27618 22.79709 21.03663
#
# Velocity S-wave (km/s) = 3.48830 3.79353 3.64411
# Velocity P-wave (km/s) = 6.74075 8.05801 7.42864
#
# Compressibility (1/GPa) = 0.02160854
#
# Stress axis : x y z
#
# Youngs Moduli (GPa) = 25.11238 71.53942 47.26238
#
# Poissons Ratio (x) = 0.54744 0.51552
# Poissons Ratio (y) = 0.19217 0.38352
# Poissons Ratio (z) = 0.27392 0.58052
#
# Static dielectric constant tensor:
#      x y z
#    x 1.530910 0.000000 0.000000 
#    y 0.000000 1.507360 0.000000 
#    z 0.000000 0.000000 1.528580 
# 
# From -- ./inp_files/20908.got.cif
#   From: 2010.05.17/outbox.cif.g08.bks.cpg/sg46_11_cif.got.tgz:20908.got - 2010.06.03 19:58:25.
