data_PCOD9378701
_publ_section_title
;
Structure prediction by ZEFSAII (Michael W. Deem and Ramdas Pophale) SiO2 
 PCOD9378701
Probable space group: I M A 2
;
_chemical_formula_sum "Si O2"
_cell_formula_units_Z 56
_cell_length_a 8.517425
_cell_length_b 14.513542
_cell_length_c 23.598584
_cell_angle_alpha 90.000000
_cell_angle_beta 90.000000
_cell_angle_gamma 90.000000
_cell_volume 2917.209886
_symmetry_space_group_name_H-M "I M A 2"
_symmetry_group_IT_number 46
_symmetry_cell_setting 'orthorhombic'
loop_
_space_group_symop_operation_xyz
x,y,z
-x,-y,z
1/2-x,y,z
1/2+x,-y,z
1/2+x,1/2+y,1/2+z
1/2-x,1/2-y,1/2+z
-x,1/2+y,1/2+z
x,1/2-y,1/2+z
loop_
_atom_site_type_symbol
_atom_site_label
_atom_site_fract_x
_atom_site_fract_y
_atom_site_fract_z
Si Si1 0.566816 0.596724 0.004430
Si Si2 0.436319 0.293552 0.759769
Si Si3 0.559868 0.297234 0.535354
Si Si4 0.434111 0.170837 0.384659
Si Si5 0.937596 0.103695 0.149982
Si Si6 0.430845 0.641060 0.418139
Si Si7 0.939300 0.095174 0.796485
O O1 0.500000 0.500000 0.025792
O O2 0.750000 0.601246 0.017438
O O3 0.490982 0.691095 0.027503
O O4 0.549689 0.599576 0.935703
O O5 0.250000 0.287954 0.751769
O O6 0.464581 0.349134 0.818862
O O7 0.510926 0.343942 0.706609
O O8 0.501593 0.189936 0.768623
O O9 0.750000 0.299187 0.532863
O O10 0.506678 0.340919 0.594270
O O11 0.500503 0.358284 0.481469
O O12 0.250000 0.203336 0.387480
O O13 0.553400 0.251645 0.401444
O O14 0.750000 0.100963 0.147924
O O15 0.000000 0.000000 0.149587
O O16 0.250000 0.611066 0.421616
O O17 0.502646 0.596564 0.361850
O O18 0.750000 0.096512 0.797283
O O19 0.000000 0.000000 0.769943
#
# Coordination Sequence:
#
# PCOD9378701 Si02
#       7
#     8   8   8   8   8   8   8
#     4  10  19  32  53  82 114 145 178 217 266 324
#     4  10  20  37  58  80 110 145 184 229 275 322
#     4   9  19  37  57  78 108 144 182 225 270 317
#     4   8  16  30  49  75 105 138 174 214 261 312
#     4  11  24  41  60  81 106 139 182 228 273 322
#     4   8  15  29  50  75 104 139 175 213 260 312
#     4  10  19  32  53  83 116 148 182 220 269 327
#
# _framework density 19.196425000000001
#
# number of rings (size 3 to 8) (size 9 to 14) (size 15 to 20)
#    0.000    2.571    0.000    1.714    0.000    4.000 
#    0.000    2.143    0.000    3.429    0.000    0.000 
#    0.000    0.000    0.000    0.000    0.000    0.000 
#
# Total GULP energy -155924.198865 kJ/mol
# GULP energy per Si atom -5568.721388 kJ/mol
# Density = 1.915273 g / cm^3
# Si number density = 19.196425 Si / 1000 Ang^3
#
#
#
# Elastic Constant Matrix: (Units=GPa)
#
#
# Indices 1 2 3 4 5 6 
#
# 1 34.4070 28.1321 30.6588 0.0000 0.0000 0.0000
# 2 28.1321 117.4537 60.3370 0.0000 0.0000 0.0000
# 3 30.6588 60.3370 137.6767 0.0000 0.0000 0.0000
# 4 0.0000 0.0000 0.0000 16.3001 0.0000 0.0000
# 5 0.0000 0.0000 0.0000 0.0000 20.2850 0.0000
# 6 0.0000 0.0000 0.0000 0.0000 0.0000 24.0780
#
#
#
# Elastic Compliance Matrix: (Units=1/GPa)
#
#
# Indices 1 2 3 4 5 6 
#
# 1 0.039672 -0.006406 -0.006027 0.000000 0.000000 0.000000
# 2 -0.006406 0.012022 -0.003842 0.000000 0.000000 0.000000
# 3 -0.006027 -0.003842 0.010289 0.000000 0.000000 0.000000
# 4 0.000000 0.000000 0.000000 0.061349 0.000000 0.000000
# 5 0.000000 0.000000 0.000000 0.000000 0.049298 0.000000
# 6 0.000000 0.000000 0.000000 0.000000 0.000000 0.041532
#
#
# Mechanical properties :
#
#
# Convention : Reuss Voigt Hill
#
# Bulk Modulus (GPa) = 33.97529 58.64370 46.30950
# Shear Modulus (GPa) = 19.49140 23.49324 21.49232
#
# Velocity S-wave (km/s) = 3.18994 3.50213 3.34967
# Velocity P-wave (km/s) = 5.59507 6.85338 6.25594
#
# Compressibility (1/GPa) = 0.02943315
#
# Stress axis : x y z
#
# Youngs Moduli (GPa) = 25.20669 83.18021 97.18770
#
# Poissons Ratio (x) = 0.53285 0.58575
# Poissons Ratio (y) = 0.16147 0.37341
# Poissons Ratio (z) = 0.15192 0.31959
#
# Static dielectric constant tensor:
#      x y z
#    x 1.668350 0.000000 0.000000 
#    y 0.000000 1.658610 0.000000 
#    z 0.000000 0.000000 1.705230 
# 
# From -- ./inp_files/21041.got.cif
#   From: 2010.05.17/outbox.cif.g08.bks.cpg/sg46_11_cif.got.tgz:21041.got - 2010.06.03 19:58:25.
