data_PCOD9378023
_publ_section_title
;
Structure prediction by ZEFSAII (Michael W. Deem and Ramdas Pophale) SiO2 
 PCOD9378023
Probable space group: I M A 2
;
_chemical_formula_sum "Si O2"
_cell_formula_units_Z 64
_cell_length_a 9.141731
_cell_length_b 18.850606
_cell_length_c 21.920373
_cell_angle_alpha 90.000000
_cell_angle_beta 90.000000
_cell_angle_gamma 90.000000
_cell_volume 3777.475828
_symmetry_space_group_name_H-M "I M A 2"
_symmetry_group_IT_number 46
_symmetry_cell_setting 'orthorhombic'
loop_
_space_group_symop_operation_xyz
x,y,z
-x,-y,z
1/2-x,y,z
1/2+x,-y,z
1/2+x,1/2+y,1/2+z
1/2-x,1/2-y,1/2+z
-x,1/2+y,1/2+z
x,1/2-y,1/2+z
loop_
_atom_site_type_symbol
_atom_site_label
_atom_site_fract_x
_atom_site_fract_y
_atom_site_fract_z
Si Si1 0.588045 0.438751 0.698500
Si Si2 0.576379 0.575941 0.510510
Si Si3 0.927090 0.426648 0.839025
Si Si4 0.077084 0.570525 0.254402
Si Si5 0.926761 0.276114 0.204556
Si Si6 0.916647 0.182533 0.099786
Si Si7 0.078686 0.126264 0.872545
Si Si8 0.575601 0.783390 0.327008
O O1 0.500000 0.500000 0.666178
O O2 0.750000 0.467137 0.706400
O O3 0.533448 0.425741 0.766554
O O4 0.590174 0.370516 0.657530
O O5 0.500000 0.500000 0.522173
O O6 0.750000 0.569121 0.521303
O O7 0.511986 0.640364 0.550939
O O8 0.551399 0.597450 0.440007
O O9 0.750000 0.427224 0.845951
O O10 0.000000 0.500000 0.863037
O O11 0.997071 0.351310 0.857886
O O12 0.250000 0.560477 0.256070
O O13 0.043756 0.641145 0.215880
O O14 0.000000 0.500000 0.231107
O O15 0.018472 0.587375 0.322241
O O16 0.750000 0.264639 0.210499
O O17 0.970189 0.252019 0.136171
O O18 0.006331 0.234912 0.260274
O O19 0.750000 0.192786 0.076938
O O20 0.250000 0.114024 0.857754
O O21 0.053618 0.210881 0.865495
O O22 0.750000 0.796253 0.321039
#
# Coordination Sequence:
#
# PCOD9378023 Si02
#       8
#     8   8   8   8   8   8   8   8
#     4   9  17  27  40  58  86 121 155 189 225 268
#     4  11  23  37  51  71  99 133 172 209 244 283
#     4  10  18  29  43  65  96 128 160 196 238 289
#     4  10  19  31  52  77 102 129 160 200 249 300
#     4   9  18  33  49  69  97 129 161 199 245 297
#     4  10  19  33  49  67  94 127 164 203 241 283
#     4   9  20  36  52  71  99 131 168 210 250 293
#     4  10  18  30  49  72  96 126 162 205 253 298
#
# _framework density 16.942532
#
# number of rings (size 3 to 8) (size 9 to 14) (size 15 to 20)
#    0.000    2.250    1.250    2.250    0.000    5.500 
#    0.000    0.000    0.000    0.000    0.000    0.875 
#    0.000    4.000    0.000    0.000    0.000    0.125 
#
# Total GULP energy -178234.598405 kJ/mol
# GULP energy per Si atom -5569.831200 kJ/mol
# Density = 1.690397 g / cm^3
# Si number density = 16.942532 Si / 1000 Ang^3
#
#
#
# Elastic Constant Matrix: (Units=GPa)
#
#
# Indices 1 2 3 4 5 6 
#
# 1 55.9326 58.1767 31.0392 0.0000 0.0000 0.0000
# 2 58.1767 124.8657 29.1448 0.0000 0.0000 0.0000
# 3 31.0392 29.1448 53.5597 0.0000 0.0000 0.0000
# 4 0.0000 0.0000 0.0000 18.1690 0.0000 0.0000
# 5 0.0000 0.0000 0.0000 0.0000 41.9362 0.0000
# 6 0.0000 0.0000 0.0000 0.0000 0.0000 29.8821
#
#
#
# Elastic Compliance Matrix: (Units=1/GPa)
#
#
# Indices 1 2 3 4 5 6 
#
# 1 0.044829 -0.016979 -0.016740 0.000000 0.000000 0.000000
# 2 -0.016979 0.015605 0.001348 0.000000 0.000000 0.000000
# 3 -0.016740 0.001348 0.027638 0.000000 0.000000 0.000000
# 4 0.000000 0.000000 0.000000 0.055039 0.000000 0.000000
# 5 0.000000 0.000000 0.000000 0.000000 0.023846 0.000000
# 6 0.000000 0.000000 0.000000 0.000000 0.000000 0.033465
#
#
# Mechanical properties :
#
#
# Convention : Reuss Voigt Hill
#
# Bulk Modulus (GPa) = 42.86286 52.34215 47.60251
# Shear Modulus (GPa) = 18.31911 25.73062 22.02486
#
# Velocity S-wave (km/s) = 3.29180 3.90128 3.60943
# Velocity P-wave (km/s) = 6.30887 7.15921 6.74745
#
# Compressibility (1/GPa) = 0.02333022
#
# Stress axis : x y z
#
# Youngs Moduli (GPa) = 22.30715 64.08343 36.18165
#
# Poissons Ratio (x) = 1.08808 0.60568
# Poissons Ratio (y) = 0.37875 -0.04879
# Poissons Ratio (z) = 0.37342 -0.08641
#
# Static dielectric constant tensor:
#      x y z
#    x 1.578760 0.000000 0.000000 
#    y 0.000000 1.655480 0.000000 
#    z 0.000000 0.000000 1.563970 
# 
# From -- ./inp_files/23304.got.cif
#   From: 2010.05.17/outbox.cif.g08.bks.cpg/sg46_12_cif.got.tgz:23304.got - 2010.06.03 19:58:25.
