data_PCOD9378047
_publ_section_title
;
Structure prediction by ZEFSAII (Michael W. Deem and Ramdas Pophale) SiO2 
 PCOD9378047
Probable space group: I M A 2
;
_chemical_formula_sum "Si O2"
_cell_formula_units_Z 48
_cell_length_a 7.686918
_cell_length_b 18.299327
_cell_length_c 14.056046
_cell_angle_alpha 90.000000
_cell_angle_beta 90.000000
_cell_angle_gamma 90.000000
_cell_volume 1977.199700
_symmetry_space_group_name_H-M "I M A 2"
_symmetry_group_IT_number 46
_symmetry_cell_setting 'orthorhombic'
loop_
_space_group_symop_operation_xyz
x,y,z
-x,-y,z
1/2-x,y,z
1/2+x,-y,z
1/2+x,1/2+y,1/2+z
1/2-x,1/2-y,1/2+z
-x,1/2+y,1/2+z
x,1/2-y,1/2+z
loop_
_atom_site_type_symbol
_atom_site_label
_atom_site_fract_x
_atom_site_fract_y
_atom_site_fract_z
Si Si1 0.944635 0.737431 0.634840
Si Si2 0.956211 0.080495 0.080052
Si Si3 0.537136 0.111359 0.865078
Si Si4 0.541763 0.078555 0.452678
Si Si5 0.051675 0.604486 0.164790
Si Si6 0.461300 0.767063 0.419509
O O1 0.750000 0.749506 0.668938
O O2 0.988312 0.651261 0.641663
O O3 0.057133 0.806568 0.668374
O O4 0.960169 0.749884 0.521858
O O5 0.750000 0.087353 0.072928
O O6 0.023619 0.084530 0.969395
O O7 0.000000 0.000000 0.117968
O O8 0.750000 0.105257 0.864399
O O9 0.471018 0.079593 0.765030
O O10 0.488494 0.196979 0.860422
O O11 0.750000 0.083790 0.459396
O O12 0.471985 0.083851 0.562167
O O13 0.484485 0.150630 0.395602
O O14 0.500000 0.000000 0.411446
O O15 0.250000 0.577565 0.162311
O O16 0.250000 0.765064 0.426738
#
# Coordination Sequence:
#
# PCOD9378047 Si02
#       6
#     8   8   8   8   8   8
#     4  10  18  29  46  68  91 120 157 195 230 270
#     4  10  19  32  49  71  97 126 157 192 233 281
#     4   8  15  29  50  69  88 117 153 188 229 275
#     4   9  17  27  42  64  91 118 146 178 217 264
#     4   9  17  31  48  67  91 122 154 187 229 278
#     4   8  15  30  48  65  85 115 155 194 227 270
#
# _framework density 24.276758999999998
#
# number of rings (size 3 to 8) (size 9 to 14) (size 15 to 20)
#    0.000    3.000    0.000    4.000    0.000    3.333 
#    0.000    4.167    0.000    1.000    0.000    2.333 
#    0.000    0.000    0.000    0.000    0.000    0.000 
#
# Total GULP energy -133682.805824 kJ/mol
# GULP energy per Si atom -5570.116909 kJ/mol
# Density = 2.422150 g / cm^3
# Si number density = 24.276759 Si / 1000 Ang^3
#
#
#
# Elastic Constant Matrix: (Units=GPa)
#
#
# Indices 1 2 3 4 5 6 
#
# 1 32.9152 -1.3844 13.0156 0.0000 0.0000 0.0000
# 2 -1.3844 193.1588 -5.9867 0.0000 0.0000 0.0000
# 3 13.0156 -5.9867 28.5737 0.0000 0.0000 0.0000
# 4 0.0000 0.0000 0.0000 -5.6248 0.0000 0.0000
# 5 0.0000 0.0000 0.0000 0.0000 -4.3397 0.0000
# 6 0.0000 0.0000 0.0000 0.0000 0.0000 21.9770
#
#
#
# Elastic Compliance Matrix: (Units=1/GPa)
#
#
# Indices 1 2 3 4 5 6 
#
# 1 0.037069 -0.000259 -0.016939 0.000000 0.000000 0.000000
# 2 -0.000259 0.005213 0.001210 0.000000 0.000000 0.000000
# 3 -0.016939 0.001210 0.042967 0.000000 0.000000 0.000000
# 4 0.000000 0.000000 0.000000 -0.177783 0.000000 0.000000
# 5 0.000000 0.000000 0.000000 0.000000 -0.230429 0.000000
# 6 0.000000 0.000000 0.000000 0.000000 0.000000 0.045502
#
#
# Mechanical properties :
#
#
# Convention : Reuss Voigt Hill
#
# Bulk Modulus (GPa) = 18.77185 29.54850 24.16017
# Shear Modulus (GPa) = -21.95601 19.00269 -1.47666
#
# Velocity S-wave (km/s) = -3.01059 2.80081 -0.78076
# Velocity P-wave (km/s) = 2.08223 4.75997 3.02668
#
# Compressibility (1/GPa) = 0.05327126
#
# Stress axis : x y z
#
# Youngs Moduli (GPa) = 26.97703 191.83765 23.27374
#
# Poissons Ratio (x) = 0.04975 0.39424
# Poissons Ratio (y) = 0.00700 -0.02817
# Poissons Ratio (z) = 0.45698 -0.23218
#
# Static dielectric constant tensor:
#      x y z
#    x 1.879580 0.000000 0.000000 
#    y 0.000000 2.015480 0.000000 
#    z 0.000000 0.000000 1.979810 
# 
# From -- ./inp_files/13920.got.cif
#   From: 2010.05.17/outbox.cif.g08.bks.cpg/sg46_7_cif.got.tgz:13920.got - 2010.06.03 19:58:25.
