data_PCOD9378435
_publ_section_title
;
Structure prediction by ZEFSAII (Michael W. Deem and Ramdas Pophale) SiO2 
 PCOD9378435
Probable space group: I M A 2
;
_chemical_formula_sum "Si O2"
_cell_formula_units_Z 64
_cell_length_a 8.904647
_cell_length_b 26.784201
_cell_length_c 18.741994
_cell_angle_alpha 90.000000
_cell_angle_beta 90.000000
_cell_angle_gamma 90.000000
_cell_volume 4470.037821
_symmetry_space_group_name_H-M "I M A 2"
_symmetry_group_IT_number 46
_symmetry_cell_setting 'orthorhombic'
loop_
_space_group_symop_operation_xyz
x,y,z
-x,-y,z
1/2-x,y,z
1/2+x,-y,z
1/2+x,1/2+y,1/2+z
1/2-x,1/2-y,1/2+z
-x,1/2+y,1/2+z
x,1/2-y,1/2+z
loop_
_atom_site_type_symbol
_atom_site_label
_atom_site_fract_x
_atom_site_fract_y
_atom_site_fract_z
Si Si1 0.570255 0.251043 0.723840
Si Si2 0.421984 0.195712 0.012077
Si Si3 0.068697 0.256692 0.879371
Si Si4 0.930235 0.553946 0.887645
Si Si5 0.428521 0.446610 0.720012
Si Si6 0.429989 0.649202 0.962771
Si Si7 0.076421 0.197930 0.595146
Si Si8 0.427543 0.645831 0.640119
O O1 0.750000 0.246424 0.729872
O O2 0.491901 0.248496 0.800312
O O3 0.504983 0.209989 0.669324
O O4 0.537466 0.305354 0.688581
O O5 0.250000 0.177790 0.010804
O O6 0.423019 0.249061 0.053041
O O7 0.520653 0.159323 0.060093
O O8 0.470665 0.210836 0.932511
O O9 0.250000 0.262075 0.880562
O O10 0.995351 0.306565 0.912584
O O11 0.750000 0.553513 0.896579
O O12 0.963277 0.563539 0.803638
O O13 0.000000 0.500000 0.905014
O O14 0.004878 0.597436 0.933634
O O15 0.500000 0.500000 0.701585
O O16 0.250000 0.449782 0.713122
O O17 0.490870 0.401966 0.672347
O O18 0.250000 0.650023 0.960564
O O19 0.489466 0.660879 0.042391
O O20 0.250000 0.183088 0.604971
O O21 0.250000 0.638164 0.642341
#
# Coordination Sequence:
#
# PCOD9378435 Si02
#       8
#     8   8   8   8   8   8   8   8
#     4  10  19  29  43  65  90 116 146 181 218 259
#     4   8  16  29  43  59  81 110 144 178 213 252
#     4  10  19  30  44  63  87 117 150 182 217 260
#     4  10  20  33  47  64  86 114 147 183 221 259
#     4  10  20  32  46  62  84 112 144 181 217 253
#     4  11  20  30  45  64  87 116 149 184 220 260
#     4   9  17  30  45  61  84 114 146 180 216 258
#     4  10  19  29  43  62  85 113 145 177 214 257
#
# _framework density 14.317553
#
# number of rings (size 3 to 8) (size 9 to 14) (size 15 to 20)
#    0.000    2.250    0.000    4.875    0.000    8.500 
#    0.000    0.000    0.000    0.000    0.000    0.000 
#    0.000    1.000    0.000    5.500    0.000    5.875 
#
# Total GULP energy -178459.309753 kJ/mol
# GULP energy per Si atom -5576.853430 kJ/mol
# Density = 1.428497 g / cm^3
# Si number density = 14.317553 Si / 1000 Ang^3
#
#
#
# Elastic Constant Matrix: (Units=GPa)
#
#
# Indices 1 2 3 4 5 6 
#
# 1 86.3122 56.0553 58.4725 0.0000 0.0000 0.0000
# 2 56.0553 88.0349 59.3580 0.0000 0.0000 0.0000
# 3 58.4725 59.3580 114.0793 0.0000 0.0000 0.0000
# 4 0.0000 0.0000 0.0000 23.9292 0.0000 0.0000
# 5 0.0000 0.0000 0.0000 0.0000 24.9884 0.0000
# 6 0.0000 0.0000 0.0000 0.0000 0.0000 24.0504
#
#
#
# Elastic Compliance Matrix: (Units=1/GPa)
#
#
# Indices 1 2 3 4 5 6 
#
# 1 0.022298 -0.010000 -0.006226 0.000000 0.000000 0.000000
# 2 -0.010000 0.021983 -0.006312 0.000000 0.000000 0.000000
# 3 -0.006226 -0.006312 0.015241 0.000000 0.000000 0.000000
# 4 0.000000 0.000000 0.000000 0.041790 0.000000 0.000000
# 5 0.000000 0.000000 0.000000 0.000000 0.040019 0.000000
# 6 0.000000 0.000000 0.000000 0.000000 0.000000 0.041579
#
#
# Mechanical properties :
#
#
# Convention : Reuss Voigt Hill
#
# Bulk Modulus (GPa) = 69.22601 70.68868 69.95734
# Shear Modulus (GPa) = 21.47740 22.22964 21.85352
#
# Velocity S-wave (km/s) = 3.87728 3.94460 3.91108
# Velocity P-wave (km/s) = 8.27646 8.38008 8.32843
#
# Compressibility (1/GPa) = 0.01444544
#
# Stress axis : x y z
#
# Youngs Moduli (GPa) = 44.84648 45.48970 65.61084
#
# Poissons Ratio (x) = 0.45492 0.40848
# Poissons Ratio (y) = 0.44849 0.41416
# Poissons Ratio (z) = 0.27920 0.28715
#
# Static dielectric constant tensor:
#      x y z
#    x 1.476490 0.000000 0.000000 
#    y 0.000000 1.444760 0.000000 
#    z 0.000000 0.000000 1.471100 
# 
# From -- ./inp_files/18621.got.cif
#   From: 2010.05.17/outbox.cif.g08.bks.cpg/sg46_10_cif.got.tgz:18621.got - 2010.06.03 19:58:25.
