data_PCOD9378488
_publ_section_title
;
Structure prediction by ZEFSAII (Michael W. Deem and Ramdas Pophale) SiO2 
 PCOD9378488
Probable space group: I M A 2
;
_chemical_formula_sum "Si O2"
_cell_formula_units_Z 64
_cell_length_a 16.594408
_cell_length_b 7.262097
_cell_length_c 22.668032
_cell_angle_alpha 90.000000
_cell_angle_beta 90.000000
_cell_angle_gamma 90.000000
_cell_volume 2731.729082
_symmetry_space_group_name_H-M "I M A 2"
_symmetry_group_IT_number 46
_symmetry_cell_setting 'orthorhombic'
loop_
_space_group_symop_operation_xyz
x,y,z
-x,-y,z
1/2-x,y,z
1/2+x,-y,z
1/2+x,1/2+y,1/2+z
1/2-x,1/2-y,1/2+z
-x,1/2+y,1/2+z
x,1/2-y,1/2+z
loop_
_atom_site_type_symbol
_atom_site_label
_atom_site_fract_x
_atom_site_fract_y
_atom_site_fract_z
Si Si1 0.405571 0.967952 0.039220
Si Si2 0.654009 0.051827 0.290412
Si Si3 0.156043 0.551747 0.416834
Si Si4 0.094743 0.533020 0.913778
Si Si5 0.902875 0.470548 0.040570
Si Si6 0.595602 0.473408 0.294411
Si Si7 0.903075 0.026731 0.667153
Si Si8 0.346757 0.548379 0.663445
O O1 0.387538 0.749048 0.041149
O O2 0.379310 0.039681 0.103334
O O3 0.500000 0.000000 0.033147
O O4 0.365379 0.039833 0.979230
O O5 0.750000 0.073551 0.289328
O O6 0.630783 0.962360 0.352466
O O7 0.615663 0.255682 0.292482
O O8 0.629293 0.966218 0.227356
O O9 0.250000 0.593684 0.415326
O O10 0.109449 0.746915 0.416030
O O11 0.132619 0.455282 0.355539
O O12 0.000000 0.500000 0.911786
O O13 0.127375 0.461663 0.976898
O O14 0.872213 0.544226 0.103586
O O15 0.000000 0.500000 0.040202
O O16 0.500000 0.500000 0.297198
O O17 0.626822 0.544629 0.230739
O O18 0.881483 0.243584 0.665960
O O19 0.000000 0.000000 0.667256
O O20 0.250000 0.555720 0.659583
#
# Coordination Sequence:
#
# PCOD9378488 Si02
#       8
#     8   8   8   8   8   8   8   8
#     4  10  19  30  47  74  99 120 155 202 242 278
#     4   9  17  29  44  65  93 123 158 198 240 287
#     4  10  19  31  46  66  94 126 159 197 243 293
#     4   9  16  26  43  66  89 117 155 202 245 284
#     4   8  15  28  44  65  93 121 149 186 234 284
#     4   9  15  24  41  65  89 117 153 195 241 283
#     4   8  14  25  42  64  91 120 154 199 244 287
#     4   9  17  29  45  67  95 126 160 199 242 290
#
# _framework density 23.428384000000001
#
# number of rings (size 3 to 8) (size 9 to 14) (size 15 to 20)
#    0.000    3.000    0.000    2.250    0.000    1.000 
#    0.000    0.625    0.000    0.000    0.000  110.250 
#    0.000   38.000    0.000    0.000    0.000    0.000 
#
# Total GULP energy -178375.840312 kJ/mol
# GULP energy per Si atom -5574.245010 kJ/mol
# Density = 2.337506 g / cm^3
# Si number density = 23.428384 Si / 1000 Ang^3
#
#
#
# Elastic Constant Matrix: (Units=GPa)
#
#
# Indices 1 2 3 4 5 6 
#
# 1 58.0162 2.6390 34.8535 0.0000 0.0000 0.0000
# 2 2.6390 101.1843 17.9478 0.0000 0.0000 0.0000
# 3 34.8535 17.9478 316.6070 0.0000 0.0000 0.0000
# 4 0.0000 0.0000 0.0000 -13.8882 0.0000 0.0000
# 5 0.0000 0.0000 0.0000 0.0000 57.1549 0.0000
# 6 0.0000 0.0000 0.0000 0.0000 0.0000 19.2144
#
#
#
# Elastic Compliance Matrix: (Units=1/GPa)
#
#
# Indices 1 2 3 4 5 6 
#
# 1 0.018459 -0.000122 -0.002025 0.000000 0.000000 0.000000
# 2 -0.000122 0.009984 -0.000553 0.000000 0.000000 0.000000
# 3 -0.002025 -0.000553 0.003413 0.000000 0.000000 0.000000
# 4 0.000000 0.000000 0.000000 -0.072003 0.000000 0.000000
# 5 0.000000 0.000000 0.000000 0.000000 0.017496 0.000000
# 6 0.000000 0.000000 0.000000 0.000000 0.000000 0.052044
#
#
# Mechanical properties :
#
#
# Convention : Reuss Voigt Hill
#
# Bulk Modulus (GPa) = 37.79873 65.18758 51.49316
# Shear Modulus (GPa) = 114.64965 40.52070 77.58517
#
# Velocity S-wave (km/s) = 7.00303 4.16330 5.76088
# Velocity P-wave (km/s) = 9.03099 7.14111 8.14107
#
# Compressibility (1/GPa) = 0.02645592
#
# Stress axis : x y z
#
# Youngs Moduli (GPa) = 54.17500 100.15879 293.01956
#
# Poissons Ratio (x) = 0.01224 0.59339
# Poissons Ratio (y) = 0.00662 0.16190
# Poissons Ratio (z) = 0.10971 0.05534
#
# Static dielectric constant tensor:
#      x y z
#    x 2.295990 0.000000 0.000000 
#    y 0.000000 1.826450 0.000000 
#    z 0.000000 0.000000 2.023140 
# 
# From -- ./inp_files/23667.got.cif
#   From: 2010.05.17/outbox.cif.g08.bks.cpg/sg46_12_cif.got.tgz:23667.got - 2010.06.03 19:58:25.
