data_PCOD9378295
_publ_section_title
;
Structure prediction by ZEFSAII (Michael W. Deem and Ramdas Pophale) SiO2 
 PCOD9378295
Probable space group: I M A 2
;
_chemical_formula_sum "Si O2"
_cell_formula_units_Z 64
_cell_length_a 8.069669
_cell_length_b 25.779848
_cell_length_c 15.647711
_cell_angle_alpha 90.000000
_cell_angle_beta 90.000000
_cell_angle_gamma 90.000000
_cell_volume 3255.269058
_symmetry_space_group_name_H-M "I M A 2"
_symmetry_group_IT_number 46
_symmetry_cell_setting 'orthorhombic'
loop_
_space_group_symop_operation_xyz
x,y,z
-x,-y,z
1/2-x,y,z
1/2+x,-y,z
1/2+x,1/2+y,1/2+z
1/2-x,1/2-y,1/2+z
-x,1/2+y,1/2+z
x,1/2-y,1/2+z
loop_
_atom_site_type_symbol
_atom_site_label
_atom_site_fract_x
_atom_site_fract_y
_atom_site_fract_z
Si Si1 0.450041 0.350435 0.078300
Si Si2 0.952317 0.835333 0.385056
Si Si3 0.552151 0.394067 0.376665
Si Si4 0.052255 0.940301 0.055562
Si Si5 0.449963 0.135737 0.205111
Si Si6 0.048534 0.264336 0.604450
Si Si7 0.947183 0.442148 0.202353
Si Si8 0.050773 0.281219 0.406959
O O1 0.250000 0.348608 0.076598
O O2 0.507491 0.294945 0.116721
O O3 0.501168 0.399078 0.134075
O O4 0.507522 0.352503 0.979369
O O5 0.750000 0.835846 0.387329
O O6 0.006924 0.868253 0.303247
O O7 0.000736 0.774965 0.372003
O O8 0.750000 0.401334 0.378992
O O9 0.485316 0.413653 0.468257
O O10 0.484594 0.425836 0.295853
O O11 0.518223 0.333083 0.365571
O O12 0.250000 0.937815 0.052581
O O13 0.997540 0.908834 0.139108
O O14 0.000000 0.000000 0.058395
O O15 0.250000 0.137595 0.206486
O O16 0.510586 0.190895 0.167325
O O17 0.250000 0.263676 0.609297
O O18 0.005559 0.280438 0.507488
O O19 0.750000 0.441303 0.207707
O O20 0.000000 0.500000 0.179338
O O21 0.250000 0.283630 0.400966
#
# Coordination Sequence:
#
# PCOD9378295 Si02
#       8
#     8   8   8   8   8   8   8   8
#     4   9  18  36  58  83 112 145 184 229 274 322
#     4   8  17  32  55  84 116 148 183 223 266 321
#     4  10  22  37  53  79 114 144 177 224 280 333
#     4  11  23  39  57  79 109 147 187 230 277 330
#     4  10  18  33  56  84 115 148 184 226 269 320
#     4   8  15  28  51  83 114 143 178 217 262 319
#     4  11  24  41  58  80 107 142 187 234 282 333
#     4   9  16  30  53  82 112 147 186 217 257 320
#
# _framework density 19.660433000000001
#
# number of rings (size 3 to 8) (size 9 to 14) (size 15 to 20)
#    0.000    2.500    1.250    2.625    1.750    1.500 
#    0.000    5.000    0.000    0.000    0.000    0.000 
#    0.000    0.000    0.000    0.000    0.000    0.000 
#
# Total GULP energy -178540.707801 kJ/mol
# GULP energy per Si atom -5579.397119 kJ/mol
# Density = 1.961569 g / cm^3
# Si number density = 19.660433 Si / 1000 Ang^3
#
#
#
# Elastic Constant Matrix: (Units=GPa)
#
#
# Indices 1 2 3 4 5 6 
#
# 1 12.6070 4.1425 13.3273 -0.0002 0.0000 0.0000
# 2 4.1425 124.2570 65.3196 -0.0003 0.0000 0.0000
# 3 13.3273 65.3196 101.0697 -0.0013 0.0000 0.0000
# 4 -0.0002 -0.0003 -0.0013 -50.5799 -0.0001 0.0000
# 5 0.0000 0.0000 0.0000 -0.0001 16.5116 0.0000
# 6 0.0000 0.0000 0.0000 0.0000 0.0000 23.7469
#
#
#
# Elastic Compliance Matrix: (Units=1/GPa)
#
#
# Indices 1 2 3 4 5 6 
#
# 1 0.094286 0.005138 -0.015753 0.000000 0.000000 0.000000
# 2 0.005138 0.012469 -0.008736 0.000000 0.000000 0.000000
# 3 -0.015753 -0.008736 0.017617 0.000000 0.000000 0.000000
# 4 0.000000 0.000000 0.000000 -0.019771 0.000000 0.000000
# 5 0.000000 0.000000 0.000000 0.000000 0.060564 0.000000
# 6 0.000000 0.000000 0.000000 0.000000 0.000000 0.042111
#
#
# Mechanical properties :
#
#
# Convention : Reuss Voigt Hill
#
# Bulk Modulus (GPa) = 11.67278 44.83473 28.25376
# Shear Modulus (GPa) = 18.21263 8.27867 13.24565
#
# Velocity S-wave (km/s) = 3.04692 2.05426 2.59843
# Velocity P-wave (km/s) = 4.28116 5.33673 4.83782
#
# Compressibility (1/GPa) = 0.08566937
#
# Stress axis : x y z
#
# Youngs Moduli (GPa) = 10.60604 80.19991 56.76240
#
# Poissons Ratio (x) = -0.41206 0.89420
# Poissons Ratio (y) = -0.05449 0.49587
# Poissons Ratio (z) = 0.16708 0.70062
#
# Static dielectric constant tensor:
#      x y z
#    x 1.704090 0.000000 0.000000 
#    y 0.000000 1.712310 0.000000 
#    z 0.000000 0.000000 1.718020 
# 
# From -- ./inp_files/14503.got.cif
#   From: 2010.05.17/outbox.cif.g08.bks.cpg/sg46_8_cif.got.tgz:14503.got - 2010.06.03 19:58:25.
