data_PCOD9378699
_publ_section_title
;
Structure prediction by ZEFSAII (Michael W. Deem and Ramdas Pophale) SiO2 
 PCOD9378699
Probable space group: I M A 2
;
_chemical_formula_sum "Si O2"
_cell_formula_units_Z 64
_cell_length_a 7.746651
_cell_length_b 25.899137
_cell_length_c 15.412824
_cell_angle_alpha 90.000000
_cell_angle_beta 90.000000
_cell_angle_gamma 90.000000
_cell_volume 3092.299163
_symmetry_space_group_name_H-M "I M A 2"
_symmetry_group_IT_number 46
_symmetry_cell_setting 'orthorhombic'
loop_
_space_group_symop_operation_xyz
x,y,z
-x,-y,z
1/2-x,y,z
1/2+x,-y,z
1/2+x,1/2+y,1/2+z
1/2-x,1/2-y,1/2+z
-x,1/2+y,1/2+z
x,1/2-y,1/2+z
loop_
_atom_site_type_symbol
_atom_site_label
_atom_site_fract_x
_atom_site_fract_y
_atom_site_fract_z
Si Si1 0.952661 0.058150 0.692620
Si Si2 0.541877 0.940082 0.326201
Si Si3 0.957395 0.155238 0.798310
Si Si4 0.450052 0.369673 0.672091
Si Si5 0.455463 0.769948 0.272430
Si Si6 0.041091 0.329905 0.497562
Si Si7 0.041527 0.215528 0.473622
Si Si8 0.458263 0.103694 0.510649
O O1 0.750000 0.061594 0.704754
O O2 0.029470 0.105537 0.748267
O O3 0.991309 0.069297 0.592063
O O4 0.000000 0.000000 0.717050
O O5 0.750000 0.933724 0.327567
O O6 0.472595 0.907272 0.244779
O O7 0.478490 0.918582 0.418760
O O8 0.500000 0.000000 0.317763
O O9 0.750000 0.157098 0.788703
O O10 0.020818 0.211015 0.763833
O O11 0.994588 0.153026 0.900803
O O12 0.250000 0.385228 0.662567
O O13 0.457974 0.312023 0.711335
O O14 0.525667 0.365362 0.575685
O O15 0.250000 0.771419 0.257476
O O16 0.490935 0.785903 0.372242
O O17 0.250000 0.328948 0.502851
O O18 0.978923 0.270604 0.508813
O O19 0.250000 0.215950 0.477381
O O20 0.980644 0.163093 0.519150
O O21 0.250000 0.104475 0.507874
#
# Coordination Sequence:
#
# PCOD9378699 Si02
#       8
#     8   8   8   8   8   8   8   8
#     4  11  24  41  59  81 110 147 191 239 285 333
#     4  10  21  37  55  76 110 148 183 225 271 320
#     4   9  21  40  57  79 114 147 181 231 287 332
#     4  10  20  36  55  81 115 147 182 232 277 320
#     4  10  19  32  53  82 112 147 183 218 271 335
#     4   9  19  34  58  85 111 147 188 226 273 331
#     4   9  17  33  53  80 114 146 181 220 269 327
#     4  10  20  35  56  84 114 147 183 227 280 332
#
# _framework density 20.696576
#
# number of rings (size 3 to 8) (size 9 to 14) (size 15 to 20)
#    0.000    2.250    1.250    1.125    1.750    4.500 
#    0.000    0.625    0.000    3.000    0.000    0.000 
#    0.000    0.000    0.000    0.000    0.000    0.000 
#
# Total GULP energy -178643.127169 kJ/mol
# GULP energy per Si atom -5582.597724 kJ/mol
# Density = 2.064947 g / cm^3
# Si number density = 20.696576 Si / 1000 Ang^3
#
#
#
# Elastic Constant Matrix: (Units=GPa)
#
#
# Indices 1 2 3 4 5 6 
#
# 1 30.3935 -0.1840 -11.5735 0.0000 0.0000 0.0000
# 2 -0.1840 130.5851 56.2004 0.0000 0.0000 0.0000
# 3 -11.5735 56.2004 63.5557 0.0001 -0.0001 0.0000
# 4 0.0000 0.0000 0.0001 33.3866 0.0000 0.0000
# 5 0.0000 0.0000 -0.0001 0.0000 38.1366 0.0000
# 6 0.0000 0.0000 0.0000 0.0000 0.0000 14.0358
#
#
#
# Elastic Compliance Matrix: (Units=1/GPa)
#
#
# Indices 1 2 3 4 5 6 
#
# 1 0.036986 -0.004595 0.010799 0.000000 0.000000 0.000000
# 2 -0.004595 0.012934 -0.012274 0.000000 0.000000 0.000000
# 3 0.010799 -0.012274 0.028554 0.000000 0.000000 0.000000
# 4 0.000000 0.000000 0.000000 0.029952 0.000000 0.000000
# 5 0.000000 0.000000 0.000000 0.000000 0.026222 0.000000
# 6 0.000000 0.000000 0.000000 0.000000 0.000000 0.071246
#
#
# Mechanical properties :
#
#
# Convention : Reuss Voigt Hill
#
# Bulk Modulus (GPa) = 15.07547 34.82446 24.94997
# Shear Modulus (GPa) = 20.82075 29.11790 24.96932
#
# Velocity S-wave (km/s) = 3.17519 3.75493 3.47716
# Velocity P-wave (km/s) = 4.55437 5.97177 5.31057
#
# Compressibility (1/GPa) = 0.06633292
#
# Stress axis : x y z
#
# Youngs Moduli (GPa) = 27.03727 77.31785 35.02150
#
# Poissons Ratio (x) = 0.35530 -0.37819
# Poissons Ratio (y) = 0.12425 0.42984
# Poissons Ratio (z) = -0.29197 0.94897
#
# Static dielectric constant tensor:
#      x y z
#    x 1.739810 0.000000 0.000000 
#    y 0.000000 1.731700 0.000000 
#    z 0.000000 0.000000 1.753620 
# 
# From -- ./inp_files/14461.got.cif
#   From: 2010.05.17/outbox.cif.g08.bks.cpg/sg46_8_cif.got.tgz:14461.got - 2010.06.03 19:58:25.
