data_PCOD9378890
_publ_section_title
;
Structure prediction by ZEFSAII (Michael W. Deem and Ramdas Pophale) SiO2 
 PCOD9378890
Probable space group: I M A 2
;
_chemical_formula_sum "Si O2"
_cell_formula_units_Z 52
_cell_length_a 14.426645
_cell_length_b 11.542973
_cell_length_c 16.648857
_cell_angle_alpha 90.000000
_cell_angle_beta 90.000000
_cell_angle_gamma 90.000000
_cell_volume 2772.473783
_symmetry_space_group_name_H-M "I M A 2"
_symmetry_group_IT_number 46
_symmetry_cell_setting 'orthorhombic'
loop_
_space_group_symop_operation_xyz
x,y,z
-x,-y,z
1/2-x,y,z
1/2+x,-y,z
1/2+x,1/2+y,1/2+z
1/2-x,1/2-y,1/2+z
-x,1/2+y,1/2+z
x,1/2-y,1/2+z
loop_
_atom_site_type_symbol
_atom_site_label
_atom_site_fract_x
_atom_site_fract_y
_atom_site_fract_z
Si Si1 0.360398 0.082058 0.693630
Si Si2 0.978610 0.741036 0.407222
Si Si3 0.552086 0.669258 0.731063
Si Si4 0.139637 0.391777 0.011179
Si Si5 0.000000 0.500000 0.318287
Si Si6 0.144541 0.576865 0.720916
Si Si7 0.646672 0.113972 0.412459
O O1 0.250000 0.077335 0.706186
O O2 0.398750 0.212226 0.706346
O O3 0.381791 0.062610 0.600157
O O4 0.412987 0.998786 0.756468
O O5 0.954198 0.817916 0.327988
O O6 0.910004 0.776443 0.478681
O O7 0.983970 0.611306 0.374033
O O8 0.079580 0.782143 0.433492
O O9 0.446741 0.652731 0.697583
O O10 0.612069 0.556271 0.708923
O O11 0.250000 0.372890 0.007034
O O12 0.113139 0.495281 0.951695
O O13 0.250000 0.597836 0.689526
O O14 0.150018 0.597377 0.816799
O O15 0.750000 0.135220 0.442597
#
# Coordination Sequence:
#
# PCOD9378890 Si02
#       7
#     8   8   8   8   4   8   8
#     4  10  22  38  55  79 115 155 193 237 293 357
#     4  10  19  34  54  78 113 148 189 238 277 342
#     4   9  17  30  50  79 110 147 191 230 287 347
#     4  10  20  34  58  88 109 142 193 244 294 337
#     4  10  24  38  54  86 120 158 198 228 296 360
#     4   9  15  26  49  81 111 137 180 239 283 328
#     4   9  17  29  52  83 106 133 179 235 289 327
#
# _framework density 18.755811999999999
#
# number of rings (size 3 to 8) (size 9 to 14) (size 15 to 20)
#    0.000    2.462    1.538    0.923    2.154    3.077 
#    0.000    3.846    0.000    0.923    0.000    0.000 
#    0.000    0.000    0.000    0.000    0.000    0.000 
#
# Total GULP energy -144779.612333 kJ/mol
# GULP energy per Si atom -5568.446628 kJ/mol
# Density = 1.871312 g / cm^3
# Si number density = 18.755812 Si / 1000 Ang^3
#
#
#
# Elastic Constant Matrix: (Units=GPa)
#
#
# Indices 1 2 3 4 5 6 
#
# 1 99.9762 14.8695 25.3951 0.0000 0.0000 0.0000
# 2 14.8695 33.5214 16.9951 0.0000 0.0000 0.0000
# 3 25.3951 16.9951 31.4779 0.0000 0.0000 0.0000
# 4 0.0000 0.0000 0.0000 10.9800 0.0000 0.0000
# 5 0.0000 0.0000 0.0000 0.0000 19.2401 0.0000
# 6 0.0000 0.0000 0.0000 0.0000 0.0000 17.7133
#
#
#
# Elastic Compliance Matrix: (Units=1/GPa)
#
#
# Indices 1 2 3 4 5 6 
#
# 1 0.012589 -0.000599 -0.009833 0.000000 0.000000 0.000000
# 2 -0.000599 0.041104 -0.021709 0.000000 0.000000 0.000000
# 3 -0.009833 -0.021709 0.051422 0.000000 0.000000 0.000000
# 4 0.000000 0.000000 0.000000 0.091074 0.000000 0.000000
# 5 0.000000 0.000000 0.000000 0.000000 0.051975 0.000000
# 6 0.000000 0.000000 0.000000 0.000000 0.000000 0.056455
#
#
# Mechanical properties :
#
#
# Convention : Reuss Voigt Hill
#
# Bulk Modulus (GPa) = 24.49002 31.05500 27.77251
# Shear Modulus (GPa) = 13.07151 16.76774 14.91962
#
# Velocity S-wave (km/s) = 2.64281 2.99323 2.82346
# Velocity P-wave (km/s) = 4.73268 5.34223 5.04666
#
# Compressibility (1/GPa) = 0.04083296
#
# Stress axis : x y z
#
# Youngs Moduli (GPa) = 79.43330 24.32874 19.44700
#
# Poissons Ratio (x) = 0.01457 0.19122
# Poissons Ratio (y) = 0.04759 0.42217
# Poissons Ratio (z) = 0.78107 0.52815
#
# Static dielectric constant tensor:
#      x y z
#    x 1.696920 0.000000 0.000000 
#    y 0.000000 1.652840 0.000000 
#    z 0.000000 0.000000 1.667690 
# 
# From -- ./inp_files/19554.got.cif
#   From: 2010.05.17/outbox.cif.g08.bks.cpg/sg46_10_cif.got.tgz:19554.got - 2010.06.03 19:58:25.
