data_PCOD9378122
_publ_section_title
;
Structure prediction by ZEFSAII (Michael W. Deem and Ramdas Pophale) SiO2 
 PCOD9378122
Probable space group: I M A 2
;
_chemical_formula_sum "Si O2"
_cell_formula_units_Z 64
_cell_length_a 13.936872
_cell_length_b 19.590583
_cell_length_c 12.855081
_cell_angle_alpha 90.000000
_cell_angle_beta 90.000000
_cell_angle_gamma 90.000000
_cell_volume 3509.841375
_symmetry_space_group_name_H-M "I M A 2"
_symmetry_group_IT_number 46
_symmetry_cell_setting 'orthorhombic'
loop_
_space_group_symop_operation_xyz
x,y,z
-x,-y,z
1/2-x,y,z
1/2+x,-y,z
1/2+x,1/2+y,1/2+z
1/2-x,1/2-y,1/2+z
-x,1/2+y,1/2+z
x,1/2-y,1/2+z
loop_
_atom_site_type_symbol
_atom_site_label
_atom_site_fract_x
_atom_site_fract_y
_atom_site_fract_z
Si Si1 0.863508 0.983541 0.048920
Si Si2 0.637685 0.366424 0.483363
Si Si3 0.363641 0.791489 0.517499
Si Si4 0.139260 0.261352 0.525710
Si Si5 0.474899 0.425678 0.347052
Si Si6 0.009385 0.286241 0.843168
Si Si7 0.480490 0.324930 0.172572
Si Si8 0.636730 0.624641 0.704107
O O1 0.750000 0.972442 0.036169
O O2 0.891891 0.947821 0.156035
O O3 0.879510 0.065053 0.051093
O O4 0.912640 0.946548 0.949234
O O5 0.750000 0.367078 0.452478
O O6 0.620267 0.291402 0.531366
O O7 0.567008 0.383107 0.388202
O O8 0.250000 0.803672 0.520188
O O9 0.414121 0.805414 0.406278
O O10 0.424907 0.834332 0.601398
O O11 0.250000 0.258070 0.496890
O O12 0.074630 0.257985 0.423303
O O13 0.125868 0.325207 0.603398
O O14 0.102913 0.198088 0.594309
O O15 0.500000 0.500000 0.304054
O O16 0.440002 0.381808 0.250079
O O17 0.072382 0.348119 0.797838
O O18 0.990662 0.238716 0.745086
O O19 0.750000 0.625965 0.731923
#
# Coordination Sequence:
#
# PCOD9378122 Si02
#       8
#     8   8   8   8   8   8   8   8
#     4   9  18  31  51  79 111 138 163 200 254 318
#     4   9  18  33  51  74 105 137 168 207 257 307
#     4  10  21  35  52  75 105 138 174 221 263 293
#     4   9  18  30  45  70 103 137 168 207 252 301
#     4  10  19  32  53  78 105 133 167 209 265 314
#     4  10  18  30  50  71 106 133 171 211 255 301
#     4  10  20  31  49  76 105 131 172 213 255 308
#     4   9  17  28  47  76 107 139 167 199 253 312
#
# _framework density 18.234441
#
# number of rings (size 3 to 8) (size 9 to 14) (size 15 to 20)
#    0.000    2.500    1.250    1.125    3.500    2.000 
#    0.000    0.000    0.000    0.000   13.000    0.000 
#    0.000    0.000    0.000    0.000    0.000    0.000 
#
# Total GULP energy -178146.831682 kJ/mol
# GULP energy per Si atom -5567.088490 kJ/mol
# Density = 1.819294 g / cm^3
# Si number density = 18.234441 Si / 1000 Ang^3
#
#
#
# Elastic Constant Matrix: (Units=GPa)
#
#
# Indices 1 2 3 4 5 6 
#
# 1 51.9404 12.5432 11.9454 0.0000 0.0000 0.0000
# 2 12.5432 54.6665 10.6412 0.0000 0.0000 0.0000
# 3 11.9454 10.6412 50.2015 0.0000 0.0000 0.0000
# 4 0.0000 0.0000 0.0000 17.7760 0.0000 0.0000
# 5 0.0000 0.0000 0.0000 0.0000 19.8195 0.0000
# 6 0.0000 0.0000 0.0000 0.0000 0.0000 19.1641
#
#
#
# Elastic Compliance Matrix: (Units=1/GPa)
#
#
# Indices 1 2 3 4 5 6 
#
# 1 0.021193 -0.004048 -0.004185 0.000000 0.000000 0.000000
# 2 -0.004048 0.019853 -0.003245 0.000000 0.000000 0.000000
# 3 -0.004185 -0.003245 0.021603 0.000000 0.000000 0.000000
# 4 0.000000 0.000000 0.000000 0.056256 0.000000 0.000000
# 5 0.000000 0.000000 0.000000 0.000000 0.050455 0.000000
# 6 0.000000 0.000000 0.000000 0.000000 0.000000 0.052181
#
#
# Mechanical properties :
#
#
# Convention : Reuss Voigt Hill
#
# Bulk Modulus (GPa) = 25.19297 25.22980 25.21138
# Shear Modulus (GPa) = 19.40028 19.46383 19.43205
#
# Velocity S-wave (km/s) = 3.26534 3.27069 3.26801
# Velocity P-wave (km/s) = 5.29743 5.30373 5.30058
#
# Compressibility (1/GPa) = 0.03969361
#
# Stress axis : x y z
#
# Youngs Moduli (GPa) = 47.18580 50.36962 46.28919
#
# Poissons Ratio (x) = 0.20390 0.19371
# Poissons Ratio (y) = 0.19101 0.15021
# Poissons Ratio (z) = 0.19746 0.16345
#
# Static dielectric constant tensor:
#      x y z
#    x 1.653610 0.000000 0.000000 
#    y 0.000000 1.673970 0.000000 
#    z 0.000000 0.000000 1.613560 
# 
# From -- ./inp_files/11344.got.cif
#   From: 2010.05.17/outbox.cif.g08.bks.cpg/sg46_6_cif.got.tgz:11344.got - 2010.06.03 19:58:25.
