data_PCOD9378179
_publ_section_title
;
Structure prediction by ZEFSAII (Michael W. Deem and Ramdas Pophale) SiO2 
 PCOD9378179
Probable space group: I M A 2
;
_chemical_formula_sum "Si O2"
_cell_formula_units_Z 48
_cell_length_a 8.841658
_cell_length_b 32.400481
_cell_length_c 9.321834
_cell_angle_alpha 90.000000
_cell_angle_beta 90.000000
_cell_angle_gamma 90.000000
_cell_volume 2670.462813
_symmetry_space_group_name_H-M "I M A 2"
_symmetry_group_IT_number 46
_symmetry_cell_setting 'orthorhombic'
loop_
_space_group_symop_operation_xyz
x,y,z
-x,-y,z
1/2-x,y,z
1/2+x,-y,z
1/2+x,1/2+y,1/2+z
1/2-x,1/2-y,1/2+z
-x,1/2+y,1/2+z
x,1/2-y,1/2+z
loop_
_atom_site_type_symbol
_atom_site_label
_atom_site_fract_x
_atom_site_fract_y
_atom_site_fract_z
Si Si1 0.433755 0.709058 0.321330
Si Si2 0.068093 0.628856 0.832564
Si Si3 0.576193 0.957961 0.670259
Si Si4 0.066461 0.791398 0.152681
Si Si5 0.074918 0.457329 0.820617
Si Si6 0.567010 0.867697 0.650806
O O1 0.250000 0.706238 0.314104
O O2 0.481082 0.750942 0.240455
O O3 0.480064 0.710774 0.487448
O O4 0.504927 0.669610 0.244406
O O5 0.250000 0.628581 0.844770
O O6 0.019971 0.666341 0.729987
O O7 0.011682 0.584297 0.778358
O O8 0.997089 0.636035 0.989630
O O9 0.750000 0.959627 0.713870
O O10 0.570103 0.958168 0.495577
O O11 0.515087 0.912710 0.709966
O O12 0.500000 0.000000 0.721332
O O13 0.250000 0.791200 0.154091
O O14 0.250000 0.455245 0.778479
O O15 0.000000 0.500000 0.770699
O O16 0.750000 0.867896 0.645449
#
# Coordination Sequence:
#
# PCOD9378179 Si02
#       6
#     8   8   8   8   8   8
#     4  10  19  35  56  76  98 130 169 210 254 308
#     4  10  18  31  52  77 104 137 172 212 257 303
#     4   8  15  26  42  65  96 127 160 200 242 285
#     4   9  19  34  55  79 101 127 168 213 255 307
#     4   9  16  27  44  71 104 137 172 213 254 298
#     4  10  20  33  48  74 107 136 168 210 254 303
#
# _framework density 17.974412000000001
#
# number of rings (size 3 to 8) (size 9 to 14) (size 15 to 20)
#    0.000    2.667    0.000    3.500    0.000    7.333 
#    0.000    5.833    0.000    1.000    0.000    2.333 
#    0.000    0.000    0.000    0.000    0.000    0.000 
#
# Total GULP energy -133783.591694 kJ/mol
# GULP energy per Si atom -5574.316321 kJ/mol
# Density = 1.793350 g / cm^3
# Si number density = 17.974412 Si / 1000 Ang^3
#
#
#
# Elastic Constant Matrix: (Units=GPa)
#
#
# Indices 1 2 3 4 5 6 
#
# 1 53.5340 55.2958 28.0714 0.0001 0.0000 0.0000
# 2 55.2958 222.6191 88.3096 0.0004 -0.0001 -0.0001
# 3 28.0714 88.3096 84.2400 0.0009 -0.0002 -0.0001
# 4 0.0001 0.0004 0.0009 24.0764 -0.0001 -0.0001
# 5 0.0000 -0.0001 -0.0002 -0.0001 7.1343 0.0001
# 6 0.0000 -0.0001 -0.0001 -0.0001 0.0001 34.3193
#
#
#
# Elastic Compliance Matrix: (Units=1/GPa)
#
#
# Indices 1 2 3 4 5 6 
#
# 1 0.025619 -0.005096 -0.003195 0.000000 0.000000 0.000000
# 2 -0.005096 0.008703 -0.007426 0.000000 0.000000 0.000000
# 3 -0.003195 -0.007426 0.020720 -0.000001 0.000000 0.000000
# 4 0.000000 0.000000 -0.000001 0.041534 0.000000 0.000000
# 5 0.000000 0.000000 0.000000 0.000000 0.140169 0.000000
# 6 0.000000 0.000000 0.000000 0.000000 0.000000 0.029138
#
#
# Mechanical properties :
#
#
# Convention : Reuss Voigt Hill
#
# Bulk Modulus (GPa) = 42.35663 78.19407 60.27535
# Shear Modulus (GPa) = 16.38346 25.68708 21.03527
#
# Velocity S-wave (km/s) = 3.02236 3.78443 3.42466
# Velocity P-wave (km/s) = 5.98295 7.91791 7.01744
#
# Compressibility (1/GPa) = 0.02360906
#
# Stress axis : x y z
#
# Youngs Moduli (GPa) = 39.03398 114.89666 48.26281
#
# Poissons Ratio (x) = 0.58552 0.15418
# Poissons Ratio (y) = 0.19892 0.35839
# Poissons Ratio (z) = 0.12470 0.85319
#
# Static dielectric constant tensor:
#      x y z
#    x 1.608030 0.000000 0.000000 
#    y 0.000000 1.628180 0.000000 
#    z 0.000000 0.000000 1.598310 
# 
# From -- ./inp_files/3949.got.cif
#   From: 2010.05.17/outbox.cif.g08.bks.cpg/sg46_2_cif.got.tgz:3949.got - 2010.06.03 19:58:25.
