data_PCOD9378695
_publ_section_title
;
Structure prediction by ZEFSAII (Michael W. Deem and Ramdas Pophale) SiO2 
 PCOD9378695
Probable space group: I M A 2
;
_chemical_formula_sum "Si O2"
_cell_formula_units_Z 56
_cell_length_a 8.895432
_cell_length_b 14.231176
_cell_length_c 23.274858
_cell_angle_alpha 90.000000
_cell_angle_beta 90.000000
_cell_angle_gamma 90.000000
_cell_volume 2946.421493
_symmetry_space_group_name_H-M "I M A 2"
_symmetry_group_IT_number 46
_symmetry_cell_setting 'orthorhombic'
loop_
_space_group_symop_operation_xyz
x,y,z
-x,-y,z
1/2-x,y,z
1/2+x,-y,z
1/2+x,1/2+y,1/2+z
1/2-x,1/2-y,1/2+z
-x,1/2+y,1/2+z
x,1/2-y,1/2+z
loop_
_atom_site_type_symbol
_atom_site_label
_atom_site_fract_x
_atom_site_fract_y
_atom_site_fract_z
Si Si1 0.428179 0.095896 0.668010
Si Si2 0.930003 0.804991 0.437695
Si Si3 0.070049 0.396571 0.814279
Si Si4 0.431217 0.792918 0.205592
Si Si5 0.580221 0.138557 0.551390
Si Si6 0.427174 0.094616 0.968726
Si Si7 0.580489 0.359135 0.583816
O O1 0.250000 0.096615 0.675160
O O2 0.500630 0.189495 0.695092
O O3 0.472284 0.099101 0.600479
O O4 0.500000 0.000000 0.691789
O O5 0.750000 0.808234 0.448514
O O6 0.960290 0.846647 0.375257
O O7 0.976914 0.695014 0.442446
O O8 0.012944 0.863184 0.487686
O O9 0.250000 0.401509 0.806554
O O10 0.000000 0.500000 0.814775
O O11 0.996678 0.338044 0.762738
O O12 0.250000 0.786542 0.206703
O O13 0.469946 0.857698 0.149922
O O14 0.750000 0.099606 0.554826
O O15 0.590243 0.248912 0.567524
O O16 0.250000 0.088190 0.962199
O O17 0.500000 0.000000 0.944196
O O18 0.471513 0.099644 0.036058
O O19 0.750000 0.398607 0.578638
#
# Coordination Sequence:
#
# PCOD9378695 Si02
#       7
#     8   8   8   8   8   8   8
#     4  11  21  35  57  86 120 155 190 230 281 340
#     4   9  20  38  57  79 111 150 191 235 283 337
#     4  11  24  42  62  83 108 143 189 239 290 343
#     4  10  21  39  60  84 114 148 190 237 285 339
#     4   9  17  31  53  81 112 146 184 227 277 329
#     4  10  19  32  53  81 112 145 181 222 272 331
#     4   8  16  31  51  76 107 141 177 218 264 319
#
# _framework density 19.006107
#
# number of rings (size 3 to 8) (size 9 to 14) (size 15 to 20)
#    0.000    2.286    0.000    3.857    0.000    6.857 
#    0.000    2.143    0.000    1.714    0.000    0.000 
#    0.000    0.000    0.000    0.000    0.000    0.000 
#
# Total GULP energy -156259.965301 kJ/mol
# GULP energy per Si atom -5580.713046 kJ/mol
# Density = 1.896285 g / cm^3
# Si number density = 19.006107 Si / 1000 Ang^3
#
#
#
# Elastic Constant Matrix: (Units=GPa)
#
#
# Indices 1 2 3 4 5 6 
#
# 1 85.1448 48.9664 49.6043 0.0000 0.0000 0.0000
# 2 48.9664 114.1969 49.0213 0.0000 0.0000 0.0000
# 3 49.6043 49.0213 119.9531 0.0000 0.0000 0.0000
# 4 0.0000 0.0000 0.0000 16.3874 0.0000 0.0000
# 5 0.0000 0.0000 0.0000 0.0000 26.6256 0.0000
# 6 0.0000 0.0000 0.0000 0.0000 0.0000 30.9518
#
#
#
# Elastic Compliance Matrix: (Units=1/GPa)
#
#
# Indices 1 2 3 4 5 6 
#
# 1 0.017893 -0.005453 -0.005171 0.000000 0.000000 0.000000
# 2 -0.005453 0.012281 -0.002764 0.000000 0.000000 0.000000
# 3 -0.005171 -0.002764 0.011605 0.000000 0.000000 0.000000
# 4 0.000000 0.000000 0.000000 0.061022 0.000000 0.000000
# 5 0.000000 0.000000 0.000000 0.000000 0.037558 0.000000
# 6 0.000000 0.000000 0.000000 0.000000 0.000000 0.032308
#
#
# Mechanical properties :
#
#
# Convention : Reuss Voigt Hill
#
# Bulk Modulus (GPa) = 66.65152 68.27542 67.46347
# Shear Modulus (GPa) = 24.45652 26.23982 25.34817
#
# Velocity S-wave (km/s) = 3.59105 3.71967 3.65593
# Velocity P-wave (km/s) = 7.23456 7.37894 7.30711
#
# Compressibility (1/GPa) = 0.01500341
#
# Stress axis : x y z
#
# Youngs Moduli (GPa) = 55.88769 81.42383 86.17247
#
# Poissons Ratio (x) = 0.44397 0.44560
# Poissons Ratio (y) = 0.30473 0.23820
# Poissons Ratio (z) = 0.28900 0.22508
#
# Static dielectric constant tensor:
#      x y z
#    x 1.650480 0.000000 0.000000 
#    y 0.000000 1.693810 0.000000 
#    z 0.000000 0.000000 1.639550 
# 
# From -- ./inp_files/21117.got.cif
#   From: 2010.05.17/outbox.cif.g08.bks.cpg/sg46_11_cif.got.tgz:21117.got - 2010.06.03 19:58:25.
