data_PCOD9378391
_publ_section_title
;
Structure prediction by ZEFSAII (Michael W. Deem and Ramdas Pophale) SiO2 
 PCOD9378391
Probable space group: I M A 2
;
_chemical_formula_sum "Si O2"
_cell_formula_units_Z 48
_cell_length_a 7.709157
_cell_length_b 33.596130
_cell_length_c 9.776805
_cell_angle_alpha 90.000000
_cell_angle_beta 90.000000
_cell_angle_gamma 90.000000
_cell_volume 2532.171385
_symmetry_space_group_name_H-M "I M A 2"
_symmetry_group_IT_number 46
_symmetry_cell_setting 'orthorhombic'
loop_
_space_group_symop_operation_xyz
x,y,z
-x,-y,z
1/2-x,y,z
1/2+x,-y,z
1/2+x,1/2+y,1/2+z
1/2-x,1/2-y,1/2+z
-x,1/2+y,1/2+z
x,1/2-y,1/2+z
loop_
_atom_site_type_symbol
_atom_site_label
_atom_site_fract_x
_atom_site_fract_y
_atom_site_fract_z
Si Si1 0.959923 0.901539 0.188320
Si Si2 0.750000 0.699202 0.468493
Si Si3 0.453271 0.863872 0.923406
Si Si4 0.955174 0.954485 0.431314
Si Si5 0.453608 0.825705 0.372135
Si Si6 0.956149 0.119591 0.616443
Si Si7 0.250000 0.268208 0.765993
O O1 0.250000 0.100050 0.186595
O O2 0.028036 0.861926 0.264412
O O3 0.020133 0.937811 0.284632
O O4 0.025474 0.899064 0.033916
O O5 0.580253 0.671296 0.471828
O O6 0.750000 0.727243 0.602277
O O7 0.750000 0.724624 0.330118
O O8 0.250000 0.852218 0.919631
O O9 0.514547 0.876438 0.772110
O O10 0.750000 0.951799 0.424744
O O11 0.009898 0.922895 0.546448
O O12 0.000000 0.000000 0.457638
O O13 0.250000 0.814370 0.381738
O O14 0.518491 0.845621 0.514316
O O15 0.580211 0.791038 0.323447
O O16 0.750000 0.124403 0.618684
#
# Coordination Sequence:
#
# PCOD9378391 Si02
#       7
#     8   4   8   8   8   8   4
#     4  10  18  36  61  87 112 157 205 246 294 352
#     4  12  28  42  60  88 126 154 206 260 306 368
#     4  11  22  40  63  88 117 158 206 252 297 360
#     4  10  21  35  59  90 125 158 194 245 302 357
#     4  10  19  37  62  83 112 153 201 245 294 362
#     4   9  21  36  59  90 115 154 203 243 293 363
#     4  12  26  42  58  90 118 160 196 258 314 362
#
# _framework density 18.956064000000001
#
# number of rings (size 3 to 8) (size 9 to 14) (size 15 to 20)
#    0.000    1.667    3.333    1.000    4.667    2.667 
#    0.000    0.833    0.000    2.000    0.000    0.000 
#    0.000    0.000    0.000    0.000    0.000    0.000 
#
# Total GULP energy -133926.754116 kJ/mol
# GULP energy per Si atom -5580.281421 kJ/mol
# Density = 1.891292 g / cm^3
# Si number density = 18.956064 Si / 1000 Ang^3
#
#
#
# Elastic Constant Matrix: (Units=GPa)
#
#
# Indices 1 2 3 4 5 6 
#
# 1 77.9080 6.0516 13.1999 0.0000 0.0000 0.0000
# 2 6.0516 34.1784 13.8819 0.0001 0.0000 0.0000
# 3 13.1999 13.8819 140.4089 0.0002 0.0000 0.0001
# 4 0.0000 0.0001 0.0002 19.0168 0.0000 0.0000
# 5 0.0000 0.0000 0.0000 0.0000 22.5599 0.0000
# 6 0.0000 0.0000 0.0001 0.0000 0.0000 2.7011
#
#
#
# Elastic Compliance Matrix: (Units=1/GPa)
#
#
# Indices 1 2 3 4 5 6 
#
# 1 0.013161 -0.001904 -0.001049 0.000000 0.000000 0.000000
# 2 -0.001904 0.030758 -0.002862 0.000000 0.000000 0.000000
# 3 -0.001049 -0.002862 0.007504 0.000000 0.000000 0.000000
# 4 0.000000 0.000000 0.000000 0.052585 0.000000 0.000000
# 5 0.000000 0.000000 0.000000 0.000000 0.044326 0.000000
# 6 0.000000 0.000000 0.000000 0.000000 0.000000 0.370217
#
#
# Mechanical properties :
#
#
# Convention : Reuss Voigt Hill
#
# Bulk Modulus (GPa) = 25.13050 35.41802 30.27426
# Shear Modulus (GPa) = 9.20056 23.47970 16.34013
#
# Velocity S-wave (km/s) = 2.20548 3.52325 2.93917
# Velocity P-wave (km/s) = 4.44652 5.93935 5.24630
#
# Compressibility (1/GPa) = 0.03979229
#
# Stress axis : x y z
#
# Youngs Moduli (GPa) = 75.98032 32.51209 133.26885
#
# Poissons Ratio (x) = 0.06191 0.13980
# Poissons Ratio (y) = 0.14469 0.38141
# Poissons Ratio (z) = 0.07971 0.09305
#
# Static dielectric constant tensor:
#      x y z
#    x 1.681560 0.000000 0.000000 
#    y 0.000000 1.599650 0.000000 
#    z 0.000000 0.000000 1.706740 
# 
# From -- ./inp_files/3999.got.cif
#   From: 2010.05.17/outbox.cif.g08.bks.cpg/sg46_2_cif.got.tgz:3999.got - 2010.06.03 19:58:25.
