data_PCOD9378714
_publ_section_title
;
Structure prediction by ZEFSAII (Michael W. Deem and Ramdas Pophale) SiO2 
 PCOD9378714
Probable space group: I M A 2
;
_chemical_formula_sum "Si O2"
_cell_formula_units_Z 56
_cell_length_a 9.104370
_cell_length_b 14.263750
_cell_length_c 23.269086
_cell_angle_alpha 90.000000
_cell_angle_beta 90.000000
_cell_angle_gamma 90.000000
_cell_volume 3021.780694
_symmetry_space_group_name_H-M "I M A 2"
_symmetry_group_IT_number 46
_symmetry_cell_setting 'orthorhombic'
loop_
_space_group_symop_operation_xyz
x,y,z
-x,-y,z
1/2-x,y,z
1/2+x,-y,z
1/2+x,1/2+y,1/2+z
1/2-x,1/2-y,1/2+z
-x,1/2+y,1/2+z
x,1/2-y,1/2+z
loop_
_atom_site_type_symbol
_atom_site_label
_atom_site_fract_x
_atom_site_fract_y
_atom_site_fract_z
Si Si1 0.074642 0.898748 0.278010
Si Si2 0.922663 0.801680 0.384284
Si Si3 0.419607 0.093452 0.633759
Si Si4 0.421668 0.850785 0.039733
Si Si5 0.926356 0.209986 0.161504
Si Si6 0.424000 0.091565 0.926707
Si Si7 0.418604 0.166449 0.510983
O O1 0.250000 0.909220 0.279691
O O2 0.035906 0.839885 0.220929
O O3 0.018535 0.843899 0.333929
O O4 0.000000 0.000000 0.276105
O O5 0.750000 0.805641 0.368890
O O6 0.959491 0.692581 0.398290
O O7 0.940320 0.858453 0.444471
O O8 0.250000 0.093346 0.651312
O O9 0.494717 0.189965 0.654120
O O10 0.422914 0.095231 0.563689
O O11 0.500000 0.000000 0.654265
O O12 0.250000 0.872859 0.032043
O O13 0.463443 0.856515 0.106772
O O14 0.519249 0.901594 0.992362
O O15 0.457307 0.742206 0.025728
O O16 0.750000 0.224697 0.158788
O O17 0.250000 0.080394 0.925487
O O18 0.500000 0.000000 0.900041
O O19 0.250000 0.207880 0.512887
#
# Coordination Sequence:
#
# PCOD9378714 Si02
#       7
#     8   8   8   8   8   8   8
#     4  11  24  41  60  80 104 137 180 227 272 320
#     4   9  19  37  57  79 110 144 181 225 269 315
#     4  10  19  32  54  83 114 147 180 218 267 323
#     4   9  16  29  51  77 106 139 175 215 261 311
#     4   9  20  38  56  78 109 144 183 226 269 317
#     4  10  20  34  54  82 115 146 178 218 266 323
#     4   8  16  31  50  75 107 141 175 213 260 311
#
# _framework density 18.532119000000002
#
# number of rings (size 3 to 8) (size 9 to 14) (size 15 to 20)
#    0.000    2.571    0.000    2.571    0.000    6.286 
#    0.000    3.571    0.000    1.714    0.000    0.000 
#    0.000    0.000    0.000    0.000    0.000    0.000 
#
# Total GULP energy -156013.722149 kJ/mol
# GULP energy per Si atom -5571.918648 kJ/mol
# Density = 1.848994 g / cm^3
# Si number density = 18.532119 Si / 1000 Ang^3
#
#
#
# Elastic Constant Matrix: (Units=GPa)
#
#
# Indices 1 2 3 4 5 6 
#
# 1 63.0398 56.7247 52.4378 0.0000 0.0000 0.0000
# 2 56.7247 107.2452 51.0032 0.0000 0.0000 0.0000
# 3 52.4378 51.0032 117.8774 0.0000 0.0000 0.0000
# 4 0.0000 0.0000 0.0000 14.8564 0.0000 0.0000
# 5 0.0000 0.0000 0.0000 0.0000 24.9456 0.0000
# 6 0.0000 0.0000 0.0000 0.0000 0.0000 29.3903
#
#
#
# Elastic Compliance Matrix: (Units=1/GPa)
#
#
# Indices 1 2 3 4 5 6 
#
# 1 0.038296 -0.015303 -0.010415 0.000000 0.000000 0.000000
# 2 -0.015303 0.017855 -0.000918 0.000000 0.000000 0.000000
# 3 -0.010415 -0.000918 0.013514 0.000000 0.000000 0.000000
# 4 0.000000 0.000000 0.000000 0.067311 0.000000 0.000000
# 5 0.000000 0.000000 0.000000 0.000000 0.040087 0.000000
# 6 0.000000 0.000000 0.000000 0.000000 0.000000 0.034025
#
#
# Mechanical properties :
#
#
# Convention : Reuss Voigt Hill
#
# Bulk Modulus (GPa) = 60.99992 67.61043 64.30518
# Shear Modulus (GPa) = 18.53062 22.37157 20.45110
#
# Velocity S-wave (km/s) = 3.16558 3.47822 3.32557
# Velocity P-wave (km/s) = 6.80797 7.25897 7.03709
#
# Compressibility (1/GPa) = 0.01639346
#
# Stress axis : x y z
#
# Youngs Moduli (GPa) = 26.11238 56.00665 73.99909
#
# Poissons Ratio (x) = 0.85705 0.77069
# Poissons Ratio (y) = 0.39959 0.06794
# Poissons Ratio (z) = 0.27196 0.05142
#
# Static dielectric constant tensor:
#      x y z
#    x 1.625740 0.000000 0.000000 
#    y 0.000000 1.648840 0.000000 
#    z 0.000000 0.000000 1.651960 
# 
# From -- ./inp_files/21107.got.cif
#   From: 2010.05.17/outbox.cif.g08.bks.cpg/sg46_11_cif.got.tgz:21107.got - 2010.06.03 19:58:25.
