data_PCOD9378559
_publ_section_title
;
Structure prediction by ZEFSAII (Michael W. Deem and Ramdas Pophale) SiO2 
 PCOD9378559
Probable space group: I M A 2
;
_chemical_formula_sum "Si O2"
_cell_formula_units_Z 64
_cell_length_a 13.929671
_cell_length_b 12.301685
_cell_length_c 15.130481
_cell_angle_alpha 90.000000
_cell_angle_beta 90.000000
_cell_angle_gamma 90.000000
_cell_volume 2592.735391
_symmetry_space_group_name_H-M "I M A 2"
_symmetry_group_IT_number 46
_symmetry_cell_setting 'orthorhombic'
loop_
_space_group_symop_operation_xyz
x,y,z
-x,-y,z
1/2-x,y,z
1/2+x,-y,z
1/2+x,1/2+y,1/2+z
1/2-x,1/2-y,1/2+z
-x,1/2+y,1/2+z
x,1/2-y,1/2+z
loop_
_atom_site_type_symbol
_atom_site_label
_atom_site_fract_x
_atom_site_fract_y
_atom_site_fract_z
Si Si1 0.853591 0.211505 0.421760
Si Si2 0.613921 0.983445 0.064614
Si Si3 0.612124 0.967741 0.869685
Si Si4 0.887876 0.532259 0.177974
Si Si5 0.574469 0.781666 0.176137
Si Si6 0.353591 0.711505 0.625900
Si Si7 0.574469 0.718334 0.871523
Si Si8 0.886079 0.983445 0.483045
O O1 0.750000 0.251198 0.385580
O O2 0.858300 0.250000 0.523830
O O3 0.959090 0.238175 0.383883
O O4 0.850469 0.080353 0.421870
O O5 0.649535 0.003448 0.965008
O O6 0.500000 0.000000 0.060453
O O7 0.620656 0.863010 0.104824
O O8 0.649531 0.080353 0.125789
O O9 0.648564 0.005545 0.773830
O O10 0.619678 0.837326 0.873381
O O11 0.500000 0.000000 0.869266
O O12 0.000000 0.500000 0.178394
O O13 0.880322 0.662674 0.174279
O O14 0.850465 0.496552 0.082652
O O15 0.459090 0.761825 0.163776
O O16 0.587559 0.830168 0.273830
O O17 0.250000 0.751198 0.662080
O O18 0.620656 0.636990 0.942836
O O19 0.000000 0.000000 0.487207
#
# Coordination Sequence:
#
# PCOD9378559 Si02
#       8
#     8   8   8   8   8   8   8   8
#     4  10  20  33  49  71 101 135 169 207 254 307
#     4   9  17  30  49  70  96 129 164 205 249 294
#     4   9  16  27  48  75  97 122 161 208 254 296
#     4   9  16  27  48  75  97 122 161 208 254 296
#     4  10  19  31  50  76 103 132 168 208 251 301
#     4  10  20  33  49  71 101 135 169 207 254 307
#     4  10  19  31  50  76 103 132 168 208 251 301
#     4   9  17  30  49  70  96 129 164 205 249 294
#
# _framework density 24.684353000000002
#
# number of rings (size 3 to 8) (size 9 to 14) (size 15 to 20)
#    0.000    2.500    0.000    5.250    0.000    5.000 
#    0.000    0.000    0.000    5.250    0.000    3.500 
#    0.000    0.000    0.000    0.000    0.000    0.000 
#
# Total GULP energy -178524.238955 kJ/mol
# GULP energy per Si atom -5578.882467 kJ/mol
# Density = 2.462817 g / cm^3
# Si number density = 24.684353 Si / 1000 Ang^3
#
#
#
# Elastic Constant Matrix: (Units=GPa)
#
#
# Indices 1 2 3 4 5 6 
#
# 1 102.8341 -11.3768 -4.9366 0.0000 0.0000 0.0000
# 2 -11.3768 85.7104 2.1739 0.0000 0.0000 0.0000
# 3 -4.9366 2.1739 97.5368 0.0000 0.0000 0.0000
# 4 0.0000 0.0000 0.0000 19.8624 0.0000 0.0000
# 5 0.0000 0.0000 0.0000 0.0000 61.0273 0.0000
# 6 0.0000 0.0000 0.0000 0.0000 0.0000 -6.5767
#
#
#
# Elastic Compliance Matrix: (Units=1/GPa)
#
#
# Indices 1 2 3 4 5 6 
#
# 1 0.009891 0.001301 0.000472 0.000000 0.000000 0.000000
# 2 0.001301 0.011845 -0.000198 0.000000 0.000000 0.000000
# 3 0.000472 -0.000198 0.010281 0.000000 0.000000 0.000000
# 4 0.000000 0.000000 0.000000 0.050346 0.000000 0.000000
# 5 0.000000 0.000000 0.000000 0.000000 0.016386 0.000000
# 6 0.000000 0.000000 0.000000 0.000000 0.000000 -0.152051
#
#
# Mechanical properties :
#
#
# Convention : Reuss Voigt Hill
#
# Bulk Modulus (GPa) = 28.43702 28.64472 28.54087
# Shear Modulus (GPa) = -111.78559 34.87730 -38.45415
#
# Velocity S-wave (km/s) = -6.73679 3.76298 -3.95122
# Velocity P-wave (km/s) = 6.99765 5.52355 3.03789
#
# Compressibility (1/GPa) = 0.03516543
#
# Stress axis : x y z
#
# Youngs Moduli (GPa) = 101.10234 84.42453 97.26848
#
# Poissons Ratio (x) = -0.10983 -0.04587
# Poissons Ratio (y) = -0.13153 0.01927
# Poissons Ratio (z) = -0.04768 0.01673
#
# Static dielectric constant tensor:
#      x y z
#    x 2.094000 0.000000 0.000000 
#    y 0.000000 1.944840 0.000000 
#    z 0.000000 0.000000 1.978420 
# 
# From -- ./inp_files/20057.got.cif
#   From: 2010.05.17/outbox.cif.g08.bks.cpg/sg46_11_cif.got.tgz:20057.got - 2010.06.03 19:58:25.
