data_PCOD9378248
_publ_section_title
;
Structure prediction by ZEFSAII (Michael W. Deem and Ramdas Pophale) SiO2 
 PCOD9378248
Probable space group: I M A 2
;
_chemical_formula_sum "Si O2"
_cell_formula_units_Z 64
_cell_length_a 14.562762
_cell_length_b 15.907466
_cell_length_c 15.452789
_cell_angle_alpha 90.000000
_cell_angle_beta 90.000000
_cell_angle_gamma 90.000000
_cell_volume 3579.741200
_symmetry_space_group_name_H-M "I M A 2"
_symmetry_group_IT_number 46
_symmetry_cell_setting 'orthorhombic'
loop_
_space_group_symop_operation_xyz
x,y,z
-x,-y,z
1/2-x,y,z
1/2+x,-y,z
1/2+x,1/2+y,1/2+z
1/2-x,1/2-y,1/2+z
-x,1/2+y,1/2+z
x,1/2-y,1/2+z
loop_
_atom_site_type_symbol
_atom_site_label
_atom_site_fract_x
_atom_site_fract_y
_atom_site_fract_z
Si Si1 0.529106 0.756216 0.120300
Si Si2 0.611284 0.497002 0.806719
Si Si3 0.563199 0.081065 0.670437
Si Si4 0.146637 0.677368 0.326301
Si Si5 0.994878 0.740672 0.929703
Si Si6 0.414143 0.563880 0.984519
Si Si7 0.649251 0.334554 0.695690
Si Si8 0.146529 0.190107 0.279680
O O1 0.500831 0.660946 0.145656
O O2 0.437089 0.811481 0.136488
O O3 0.606188 0.784425 0.186976
O O4 0.553590 0.762728 0.019880
O O5 0.500000 0.500000 0.807412
O O6 0.641849 0.472117 0.903834
O O7 0.639650 0.425248 0.739659
O O8 0.644838 0.589262 0.784769
O O9 0.619382 0.107726 0.755093
O O10 0.623126 0.069923 0.582271
O O11 0.500000 0.000000 0.686098
O O12 0.250000 0.664495 0.359096
O O13 0.145148 0.765163 0.272313
O O14 0.068836 0.690746 0.398159
O O15 0.923502 0.723439 0.852799
O O16 0.049411 0.654280 0.951903
O O17 0.500000 0.500000 0.994533
O O18 0.750000 0.326198 0.653978
O O19 0.250000 0.220801 0.292752
#
# Coordination Sequence:
#
# PCOD9378248 Si02
#       8
#     8   8   8   8   8   8   8   8
#     4  10  21  37  58  81 113 152 190 233 285 332
#     4  11  16  32  58  82 118 148 179 229 295 341
#     4   9  18  33  57  79 110 153 184 229 284 336
#     4  10  19  34  56  84 112 144 189 231 279 343
#     4  11  19  36  59  82 111 152 186 231 285 335
#     4   9  15  28  55  81 114 144 178 222 284 345
#     4  10  18  32  54  83 113 145 181 225 286 345
#     4  12  23  37  57  86 117 152 193 233 280 341
#
# _framework density 17.878388000000001
#
# number of rings (size 3 to 8) (size 9 to 14) (size 15 to 20)
#    0.000    1.750    7.500    0.375    0.000    1.000 
#    0.000    3.750    2.750    0.000    0.000    0.000 
#    0.000    0.000    0.000    0.000    0.000    0.000 
#
# Total GULP energy -178383.236898 kJ/mol
# GULP energy per Si atom -5574.476153 kJ/mol
# Density = 1.783770 g / cm^3
# Si number density = 17.878388 Si / 1000 Ang^3
#
#
#
# Elastic Constant Matrix: (Units=GPa)
#
#
# Indices 1 2 3 4 5 6 
#
# 1 87.8112 22.9895 26.2532 0.0000 0.0000 0.0000
# 2 22.9895 65.2670 41.9794 0.0000 0.0000 0.0000
# 3 26.2532 41.9794 94.2790 0.0000 0.0000 0.0000
# 4 0.0000 0.0000 0.0000 20.9709 0.0000 0.0000
# 5 0.0000 0.0000 0.0000 0.0000 -3.4393 0.0000
# 6 0.0000 0.0000 0.0000 0.0000 0.0000 10.3309
#
#
#
# Elastic Compliance Matrix: (Units=1/GPa)
#
#
# Indices 1 2 3 4 5 6 
#
# 1 0.012860 -0.003120 -0.002192 0.000000 0.000000 0.000000
# 2 -0.003120 0.022228 -0.009028 0.000000 0.000000 0.000000
# 3 -0.002192 -0.009028 0.015237 0.000000 0.000000 0.000000
# 4 0.000000 0.000000 0.000000 0.047685 0.000000 0.000000
# 5 0.000000 0.000000 0.000000 0.000000 -0.290761 0.000000
# 6 0.000000 0.000000 0.000000 0.000000 0.000000 0.096797
#
#
# Mechanical properties :
#
#
# Convention : Reuss Voigt Hill
#
# Bulk Modulus (GPa) = 46.20122 47.75572 46.97847
# Shear Modulus (GPa) = -83.25386 15.98150 -33.63618
#
# Velocity S-wave (km/s) = -6.83139 2.99306 -4.34220
# Velocity P-wave (km/s) = 6.02709 6.22205 1.09275
#
# Compressibility (1/GPa) = 0.02164445
#
# Stress axis : x y z
#
# Youngs Moduli (GPa) = 77.75915 44.98882 65.62873
#
# Poissons Ratio (x) = 0.14037 0.14385
# Poissons Ratio (y) = 0.24262 0.59253
# Poissons Ratio (z) = 0.17043 0.40618
#
# Static dielectric constant tensor:
#      x y z
#    x 1.637630 0.000000 0.000000 
#    y 0.000000 1.603310 0.000000 
#    z 0.000000 0.000000 1.639960 
# 
# From -- ./inp_files/16180.got.cif
#   From: 2010.05.17/outbox.cif.g08.bks.cpg/sg46_9_cif.got.tgz:16180.got - 2010.06.03 19:58:25.
