data_PCOD9378425
_publ_section_title
;
Structure prediction by ZEFSAII (Michael W. Deem and Ramdas Pophale) SiO2 
 PCOD9378425
Probable space group: I M A 2
;
_chemical_formula_sum "Si O2"
_cell_formula_units_Z 64
_cell_length_a 8.622908
_cell_length_b 18.931823
_cell_length_c 27.109531
_cell_angle_alpha 90.000000
_cell_angle_beta 90.000000
_cell_angle_gamma 90.000000
_cell_volume 4425.559583
_symmetry_space_group_name_H-M "I M A 2"
_symmetry_group_IT_number 46
_symmetry_cell_setting 'orthorhombic'
loop_
_space_group_symop_operation_xyz
x,y,z
-x,-y,z
1/2-x,y,z
1/2+x,-y,z
1/2+x,1/2+y,1/2+z
1/2-x,1/2-y,1/2+z
-x,1/2+y,1/2+z
x,1/2-y,1/2+z
loop_
_atom_site_type_symbol
_atom_site_label
_atom_site_fract_x
_atom_site_fract_y
_atom_site_fract_z
Si Si1 0.565402 0.798443 0.327070
Si Si2 0.565451 0.078553 0.383802
Si Si3 0.062960 0.163889 0.772891
Si Si4 0.934522 0.077947 0.866459
Si Si5 0.564069 0.213835 0.920790
Si Si6 0.064598 0.165066 0.477878
Si Si7 0.936904 0.921889 0.676886
Si Si8 0.064396 0.578702 0.068717
O O1 0.750000 0.809672 0.325339
O O2 0.482519 0.872520 0.337325
O O3 0.517186 0.745414 0.283146
O O4 0.520542 0.752633 0.375266
O O5 0.750000 0.077497 0.388858
O O6 0.494631 0.115728 0.432665
O O7 0.500000 0.000000 0.379326
O O8 0.250000 0.161427 0.776457
O O9 0.018386 0.131913 0.720240
O O10 0.997895 0.114693 0.816640
O O11 0.750000 0.074057 0.861956
O O12 0.970396 0.131498 0.911692
O O13 0.000000 0.000000 0.872642
O O14 0.750000 0.223868 0.916622
O O15 0.502521 0.256600 0.967657
O O16 0.250000 0.166385 0.477201
O O17 0.001944 0.131577 0.528069
O O18 0.750000 0.924882 0.673321
O O19 0.006501 0.902983 0.623683
O O20 0.000000 0.000000 0.689484
O O21 0.250000 0.577157 0.067123
O O22 0.000000 0.500000 0.058038
#
# Coordination Sequence:
#
# PCOD9378425 Si02
#       8
#     8   8   8   8   8   8   8   8
#     4   9  16  28  43  61  83 110 140 173 210 249
#     4  11  20  30  43  62  86 113 143 176 209 249
#     4   9  18  30  45  62  85 114 145 177 212 251
#     4  10  19  28  42  62  87 115 146 178 210 248
#     4   9  17  29  42  60  83 110 141 175 209 247
#     4  11  20  31  46  63  83 111 142 175 212 254
#     4  10  19  31  44  62  85 112 144 179 213 247
#     4  11  21  33  46  62  84 111 142 179 214 249
#
# _framework density 14.461447
#
# number of rings (size 3 to 8) (size 9 to 14) (size 15 to 20)
#    0.000    2.000    0.000    7.875    0.000    4.000 
#    0.000    0.000    0.000    0.000    0.000    0.000 
#    0.000    1.000    0.000    7.250    0.000    3.500 
#
# Total GULP energy -178397.034500 kJ/mol
# GULP energy per Si atom -5574.907328 kJ/mol
# Density = 1.442853 g / cm^3
# Si number density = 14.461447 Si / 1000 Ang^3
#
#
#
# Elastic Constant Matrix: (Units=GPa)
#
#
# Indices 1 2 3 4 5 6 
#
# 1 76.0198 34.5458 27.4557 0.0000 0.0000 0.0000
# 2 34.5458 105.2591 50.2546 0.0000 0.0000 0.0000
# 3 27.4557 50.2546 76.6694 0.0000 0.0000 0.0000
# 4 0.0000 0.0000 0.0000 25.7395 0.0000 0.0000
# 5 0.0000 0.0000 0.0000 0.0000 18.9659 0.0000
# 6 0.0000 0.0000 0.0000 0.0000 0.0000 22.0321
#
#
#
# Elastic Compliance Matrix: (Units=1/GPa)
#
#
# Indices 1 2 3 4 5 6 
#
# 1 0.016025 -0.003667 -0.003335 0.000000 0.000000 0.000000
# 2 -0.003667 0.014667 -0.008300 0.000000 0.000000 0.000000
# 3 -0.003335 -0.008300 0.019678 0.000000 0.000000 0.000000
# 4 0.000000 0.000000 0.000000 0.038851 0.000000 0.000000
# 5 0.000000 0.000000 0.000000 0.000000 0.052726 0.000000
# 6 0.000000 0.000000 0.000000 0.000000 0.000000 0.045388
#
#
# Mechanical properties :
#
#
# Convention : Reuss Voigt Hill
#
# Bulk Modulus (GPa) = 50.59477 53.60675 52.10076
# Shear Modulus (GPa) = 22.26878 23.06031 22.66454
#
# Velocity S-wave (km/s) = 3.92838 3.99758 3.96313
# Velocity P-wave (km/s) = 7.45910 7.64570 7.55298
#
# Compressibility (1/GPa) = 0.01976489
#
# Stress axis : x y z
#
# Youngs Moduli (GPa) = 62.40062 68.18063 50.81812
#
# Poissons Ratio (x) = 0.25004 0.16948
# Poissons Ratio (y) = 0.22884 0.42181
# Poissons Ratio (z) = 0.20811 0.56593
#
# Static dielectric constant tensor:
#      x y z
#    x 1.478590 0.000000 0.000000 
#    y 0.000000 1.496340 0.000000 
#    z 0.000000 0.000000 1.471750 
# 
# From -- ./inp_files/24400.got.cif
#   From: 2010.05.17/outbox.cif.g08.bks.cpg/sg46_13_cif.got.tgz:24400.got - 2010.06.03 19:58:25.
