data_PCOD9378830
_publ_section_title
;
Structure prediction by ZEFSAII (Michael W. Deem and Ramdas Pophale) SiO2 
 PCOD9378830
Probable space group: I M A 2
;
_chemical_formula_sum "Si O2"
_cell_formula_units_Z 56
_cell_length_a 8.579454
_cell_length_b 15.012658
_cell_length_c 22.246944
_cell_angle_alpha 90.000000
_cell_angle_beta 90.000000
_cell_angle_gamma 90.000000
_cell_volume 2865.415480
_symmetry_space_group_name_H-M "I M A 2"
_symmetry_group_IT_number 46
_symmetry_cell_setting 'orthorhombic'
loop_
_space_group_symop_operation_xyz
x,y,z
-x,-y,z
1/2-x,y,z
1/2+x,-y,z
1/2+x,1/2+y,1/2+z
1/2-x,1/2-y,1/2+z
-x,1/2+y,1/2+z
x,1/2-y,1/2+z
loop_
_atom_site_type_symbol
_atom_site_label
_atom_site_fract_x
_atom_site_fract_y
_atom_site_fract_z
Si Si1 0.059916 0.784984 0.515510
Si Si2 0.935485 0.782815 0.291335
Si Si3 0.562933 0.403473 0.687923
Si Si4 0.062118 0.595712 0.125066
Si Si5 0.437487 0.899847 0.400645
Si Si6 0.937033 0.403768 0.264354
Si Si7 0.937254 0.405439 0.547167
O O1 0.250000 0.784207 0.515620
O O2 0.010599 0.828886 0.578629
O O3 0.011078 0.846555 0.460341
O O4 0.008155 0.682616 0.512612
O O5 0.750000 0.782753 0.292280
O O6 0.995079 0.825650 0.228900
O O7 0.001222 0.845991 0.343408
O O8 0.998619 0.682503 0.297994
O O9 0.500000 0.500000 0.708625
O O10 0.750000 0.402031 0.692210
O O11 0.518992 0.394475 0.617699
O O12 0.250000 0.594119 0.124909
O O13 0.012533 0.607562 0.194195
O O14 0.000000 0.500000 0.104225
O O15 0.250000 0.901872 0.399137
O O16 0.500000 0.000000 0.401042
O O17 0.750000 0.404135 0.266743
O O18 0.000000 0.500000 0.284575
O O19 0.750000 0.408544 0.545094
O O20 0.000000 0.500000 0.525520
#
# Coordination Sequence:
#
# PCOD9378830 Si02
#       7
#     8   8   8   8   8   8   8
#     4   9  18  34  56  79 107 145 182 218 267 324
#     4  12  24  38  56  79 109 146 190 232 274 325
#     4  10  19  33  55  83 115 147 181 224 276 332
#     4   9  17  31  53  82 113 143 175 215 266 324
#     4  11  23  40  60  81 108 142 182 227 275 326
#     4  10  20  36  58  85 116 147 181 223 273 326
#     4   9  18  34  55  81 111 142 177 219 269 325
#
# _framework density 19.543413999999999
#
# number of rings (size 3 to 8) (size 9 to 14) (size 15 to 20)
#    0.000    2.000    0.000    4.286    0.000    3.429 
#    0.000    3.571    0.000    1.714    0.000    0.000 
#    0.000    0.000    0.000    0.000    0.000    0.000 
#
# Total GULP energy -156402.377313 kJ/mol
# GULP energy per Si atom -5585.799190 kJ/mol
# Density = 1.949893 g / cm^3
# Si number density = 19.543414 Si / 1000 Ang^3
#
#
#
# Elastic Constant Matrix: (Units=GPa)
#
#
# Indices 1 2 3 4 5 6 
#
# 1 51.6562 39.4076 18.7070 0.0000 0.0000 0.0000
# 2 39.4076 203.2640 55.9411 0.0000 0.0000 0.0000
# 3 18.7070 55.9411 41.2410 0.0000 0.0000 0.0000
# 4 0.0000 0.0000 0.0000 34.1599 0.0000 0.0000
# 5 0.0000 0.0000 0.0000 0.0000 11.5565 0.0000
# 6 0.0000 0.0000 0.0000 0.0000 0.0000 35.8934
#
#
#
# Elastic Compliance Matrix: (Units=1/GPa)
#
#
# Indices 1 2 3 4 5 6 
#
# 1 0.024024 -0.002647 -0.007308 0.000000 0.000000 0.000000
# 2 -0.002647 0.008142 -0.009844 0.000000 0.000000 0.000000
# 3 -0.007308 -0.009844 0.040915 0.000000 0.000000 0.000000
# 4 0.000000 0.000000 0.000000 0.029274 0.000000 0.000000
# 5 0.000000 0.000000 0.000000 0.000000 0.086531 0.000000
# 6 0.000000 0.000000 0.000000 0.000000 0.000000 0.027860
#
#
# Mechanical properties :
#
#
# Convention : Reuss Voigt Hill
#
# Bulk Modulus (GPa) = 29.86372 58.25251 44.05812
# Shear Modulus (GPa) = 18.69137 28.46232 23.57685
#
# Velocity S-wave (km/s) = 3.09593 3.82037 3.47707
# Velocity P-wave (km/s) = 5.30034 7.02366 6.22195
#
# Compressibility (1/GPa) = 0.03348545
#
# Stress axis : x y z
#
# Youngs Moduli (GPa) = 41.62484 122.82178 24.44113
#
# Poissons Ratio (x) = 0.32505 0.17860
# Poissons Ratio (y) = 0.11016 0.24059
# Poissons Ratio (z) = 0.30418 1.20900
#
# Static dielectric constant tensor:
#      x y z
#    x 1.664180 0.000000 0.000000 
#    y 0.000000 1.680720 0.000000 
#    z 0.000000 0.000000 1.683670 
# 
# From -- ./inp_files/21087.got.cif
#   From: 2010.05.17/outbox.cif.g08.bks.cpg/sg46_11_cif.got.tgz:21087.got - 2010.06.03 19:58:25.
