data_PCOD9378353
_publ_section_title
;
Structure prediction by ZEFSAII (Michael W. Deem and Ramdas Pophale) SiO2 
 PCOD9378353
Probable space group: I M A 2
;
_chemical_formula_sum "Si O2"
_cell_formula_units_Z 40
_cell_length_a 17.579774
_cell_length_b 8.678586
_cell_length_c 9.544193
_cell_angle_alpha 90.000000
_cell_angle_beta 90.000000
_cell_angle_gamma 90.000000
_cell_volume 1456.134434
_symmetry_space_group_name_H-M "I M A 2"
_symmetry_group_IT_number 46
_symmetry_cell_setting 'orthorhombic'
loop_
_space_group_symop_operation_xyz
x,y,z
-x,-y,z
1/2-x,y,z
1/2+x,-y,z
1/2+x,1/2+y,1/2+z
1/2-x,1/2-y,1/2+z
-x,1/2+y,1/2+z
x,1/2-y,1/2+z
loop_
_atom_site_type_symbol
_atom_site_label
_atom_site_fract_x
_atom_site_fract_y
_atom_site_fract_z
Si Si1 0.657147 0.470032 0.687070
Si Si2 0.250000 0.144918 0.538154
Si Si3 0.000000 0.500000 0.029453
Si Si4 0.598714 0.788542 0.973356
Si Si5 0.626688 0.489396 0.240019
Si Si6 0.165659 0.776784 0.442352
O O1 0.750000 0.503853 0.687654
O O2 0.648153 0.327590 0.577872
O O3 0.631097 0.411308 0.841459
O O4 0.668143 0.141253 0.827327
O O5 0.182393 0.222396 0.441935
O O6 0.183992 0.087187 0.647912
O O7 0.110612 0.110467 0.116804
O O8 0.066945 0.567888 0.126294
O O9 0.581887 0.908755 0.851435
O O10 0.536433 0.655158 0.967803
O O11 0.250000 0.847940 0.472755
#
# Coordination Sequence:
#
# PCOD9378353 Si02
#       6
#     8   4   4   8   8   8
#     4   9  17  33  61 100 143 179 229 295 367 431
#     4  10  18  34  70 102 128 170 236 302 368 430
#     4  10  24  42  64  96 140 194 246 278 368 442
#     4  10  20  40  68  99 141 187 239 302 367 438
#     4  10  20  40  66  96 139 183 234 306 363 430
#     4   9  17  33  59  96 137 182 222 292 369 424
#
# _framework density 27.469989000000002
#
# number of rings (size 3 to 8) (size 9 to 14) (size 15 to 20)
#    0.000    2.400    2.000    0.600    0.000    0.000 
#    7.200   10.000    0.000    0.000    0.000    0.000 
#    0.000    0.000    0.000    0.000    0.000    0.300 
#
# Total GULP energy -111369.310808 kJ/mol
# GULP energy per Si atom -5568.465540 kJ/mol
# Density = 2.740747 g / cm^3
# Si number density = 27.469989 Si / 1000 Ang^3
#
#
#
# Elastic Constant Matrix: (Units=GPa)
#
#
# Indices 1 2 3 4 5 6 
#
# 1 76.7340 62.9852 8.4531 0.0000 0.0000 0.0000
# 2 62.9852 130.7670 82.3173 0.0000 0.0000 0.0000
# 3 8.4531 82.3173 144.2104 0.0000 0.0000 0.0000
# 4 0.0000 0.0000 0.0000 45.4710 0.0000 0.0000
# 5 0.0000 0.0000 0.0000 0.0000 24.9388 0.0000
# 6 0.0000 0.0000 0.0000 0.0000 0.0000 87.8703
#
#
#
# Elastic Compliance Matrix: (Units=1/GPa)
#
#
# Indices 1 2 3 4 5 6 
#
# 1 0.027884 -0.019357 0.009415 0.000000 0.000000 0.000000
# 2 -0.019357 0.025374 -0.013349 0.000000 0.000000 0.000000
# 3 0.009415 -0.013349 0.014002 0.000000 0.000000 0.000000
# 4 0.000000 0.000000 0.000000 0.021992 0.000000 0.000000
# 5 0.000000 0.000000 0.000000 0.000000 0.040098 0.000000
# 6 0.000000 0.000000 0.000000 0.000000 0.000000 0.011380
#
#
# Mechanical properties :
#
#
# Convention : Reuss Voigt Hill
#
# Bulk Modulus (GPa) = 48.36253 73.24695 60.80474
# Shear Modulus (GPa) = 25.74593 44.85307 35.29950
#
# Velocity S-wave (km/s) = 3.06476 4.04518 3.58861
# Velocity P-wave (km/s) = 5.49249 6.96708 6.27326
#
# Compressibility (1/GPa) = 0.02067717
#
# Stress axis : x y z
#
# Youngs Moduli (GPa) = 35.86337 39.41060 71.41680
#
# Poissons Ratio (x) = 0.76287 -0.67237
# Poissons Ratio (y) = 0.69421 0.95335
# Poissons Ratio (z) = -0.33765 0.52610
#
# Static dielectric constant tensor:
#      x y z
#    x 2.201640 0.000000 0.000000 
#    y 0.000000 2.328760 0.000000 
#    z 0.000000 0.000000 2.154030 
# 
# From -- ./inp_files/11621.got.cif
#   From: 2010.05.17/outbox.cif.g08.bks.cpg/sg46_6_cif.got.tgz:11621.got - 2010.06.03 19:58:25.
