data_PCOD9378111
_publ_section_title
;
Structure prediction by ZEFSAII (Michael W. Deem and Ramdas Pophale) SiO2 
 PCOD9378111
Probable space group: I M A 2
;
_chemical_formula_sum "Si O2"
_cell_formula_units_Z 56
_cell_length_a 21.138319
_cell_length_b 13.739805
_cell_length_c 8.641284
_cell_angle_alpha 90.000000
_cell_angle_beta 90.000000
_cell_angle_gamma 90.000000
_cell_volume 2509.743253
_symmetry_space_group_name_H-M "I M A 2"
_symmetry_group_IT_number 46
_symmetry_cell_setting 'orthorhombic'
loop_
_space_group_symop_operation_xyz
x,y,z
-x,-y,z
1/2-x,y,z
1/2+x,-y,z
1/2+x,1/2+y,1/2+z
1/2-x,1/2-y,1/2+z
-x,1/2+y,1/2+z
x,1/2-y,1/2+z
loop_
_atom_site_type_symbol
_atom_site_label
_atom_site_fract_x
_atom_site_fract_y
_atom_site_fract_z
Si Si1 0.681269 0.225690 0.774410
Si Si2 0.951785 0.592082 0.400291
Si Si3 0.459573 0.396645 0.744447
Si Si4 0.635504 0.356932 0.989535
Si Si5 0.999698 0.882240 0.579010
Si Si6 0.678850 0.973845 0.290560
Si Si7 0.820498 0.018744 0.943099
O O1 0.750000 0.269512 0.810394
O O2 0.627234 0.297685 0.831959
O O3 0.680366 0.207061 0.593867
O O4 0.674097 0.120761 0.854963
O O5 0.966302 0.641814 0.567624
O O6 0.880164 0.549690 0.404205
O O7 0.000000 0.500000 0.396454
O O8 0.963094 0.645213 0.235868
O O9 0.500000 0.500000 0.740814
O O10 0.479732 0.348579 0.906952
O O11 0.384034 0.410157 0.769110
O O12 0.573193 0.359743 0.090310
O O13 0.663615 0.459417 0.938802
O O14 0.000000 0.000000 0.569758
O O15 0.750000 0.931582 0.304714
O O16 0.678912 0.033456 0.128640
O O17 0.750000 0.978266 0.905516
#
# Coordination Sequence:
#
# PCOD9378111 Si02
#       7
#     8   8   8   8   8   8   8
#     4  11  22  34  46  67  99 141 186 219 251 302
#     4   9  17  29  50  73  96 129 175 215 271 320
#     4   9  16  30  47  70  96 124 166 212 272 317
#     4  12  22  35  49  68 101 141 189 230 263 304
#     4  10  18  33  51  72  92 126 181 221 274 320
#     4  10  18  30  49  71  98 135 174 213 262 319
#     4   9  19  33  50  73 104 140 179 218 261 316
#
# _framework density 22.313040000000001
#
# number of rings (size 3 to 8) (size 9 to 14) (size 15 to 20)
#    0.000    2.000    2.857    3.857    0.000    1.143 
#    2.571    0.000    0.000    0.000    0.000    0.000 
#    0.000    0.000    0.000   12.857    1.714    1.143 
#
# Total GULP energy -155989.944536 kJ/mol
# GULP energy per Si atom -5571.069448 kJ/mol
# Density = 2.226225 g / cm^3
# Si number density = 22.313040 Si / 1000 Ang^3
#
#
#
# Elastic Constant Matrix: (Units=GPa)
#
#
# Indices 1 2 3 4 5 6 
#
# 1 149.4640 7.5492 38.4725 0.0000 0.0000 0.0000
# 2 7.5492 15.1715 19.1408 0.0000 0.0000 0.0000
# 3 38.4725 19.1408 125.1494 0.0000 0.0000 0.0000
# 4 0.0000 0.0000 0.0000 54.2280 0.0000 0.0000
# 5 0.0000 0.0000 0.0000 0.0000 69.1142 0.0000
# 6 0.0000 0.0000 0.0000 0.0000 0.0000 10.9356
#
#
#
# Elastic Compliance Matrix: (Units=1/GPa)
#
#
# Indices 1 2 3 4 5 6 
#
# 1 0.007277 -0.000990 -0.002086 0.000000 0.000000 0.000000
# 2 -0.000990 0.081807 -0.012208 0.000000 0.000000 0.000000
# 3 -0.002086 -0.012208 0.010499 0.000000 0.000000 0.000000
# 4 0.000000 0.000000 0.000000 0.018441 0.000000 0.000000
# 5 0.000000 0.000000 0.000000 0.000000 0.014469 0.000000
# 6 0.000000 0.000000 0.000000 0.000000 0.000000 0.091444
#
#
# Mechanical properties :
#
#
# Convention : Reuss Voigt Hill
#
# Bulk Modulus (GPa) = 14.48914 46.67889 30.58402
# Shear Modulus (GPa) = 18.01742 41.83039 29.92390
#
# Velocity S-wave (km/s) = 2.84471 4.33448 3.66607
# Velocity P-wave (km/s) = 4.15903 6.78349 5.62642
#
# Compressibility (1/GPa) = 0.06901722
#
# Stress axis : x y z
#
# Youngs Moduli (GPa) = 137.41064 12.22384 95.24940
#
# Poissons Ratio (x) = 0.01210 0.19867
# Poissons Ratio (y) = 0.13599 1.16278
# Poissons Ratio (z) = 0.28661 0.14923
#
# Static dielectric constant tensor:
#      x y z
#    x 1.102900 0.000000 0.000000 
#    y 0.000000 1.753640 0.000000 
#    z 0.000000 0.000000 1.892290 
# 
# From -- ./inp_files/6865.got.cif
#   From: 2010.05.17/outbox.cif.g08.bks.cpg/sg46_4_cif.got.tgz:6865.got - 2010.06.03 19:58:25.
