data_PCOD9378725
_publ_section_title
;
Structure prediction by ZEFSAII (Michael W. Deem and Ramdas Pophale) SiO2 
 PCOD9378725
Probable space group: I M A 2
;
_chemical_formula_sum "Si O2"
_cell_formula_units_Z 64
_cell_length_a 13.917119
_cell_length_b 17.843463
_cell_length_c 13.580954
_cell_angle_alpha 90.000000
_cell_angle_beta 90.000000
_cell_angle_gamma 90.000000
_cell_volume 3372.552847
_symmetry_space_group_name_H-M "I M A 2"
_symmetry_group_IT_number 46
_symmetry_cell_setting 'orthorhombic'
loop_
_space_group_symop_operation_xyz
x,y,z
-x,-y,z
1/2-x,y,z
1/2+x,-y,z
1/2+x,1/2+y,1/2+z
1/2-x,1/2-y,1/2+z
-x,1/2+y,1/2+z
x,1/2-y,1/2+z
loop_
_atom_site_type_symbol
_atom_site_label
_atom_site_fract_x
_atom_site_fract_y
_atom_site_fract_z
Si Si1 0.634683 0.796559 0.829230
Si Si2 0.025126 0.783372 0.979975
Si Si3 0.000655 0.111263 0.489542
Si Si4 0.360337 0.658837 0.656817
Si Si5 0.484656 0.082580 0.710412
Si Si6 0.858293 0.311145 0.281699
Si Si7 0.134511 0.963609 0.323840
Si Si8 0.363825 0.369743 0.816143
O O1 0.750000 0.799086 0.836974
O O2 0.581000 0.799278 0.935414
O O3 0.593863 0.864521 0.763486
O O4 0.603971 0.714237 0.783640
O O5 0.036984 0.695833 0.006774
O O6 0.091787 0.797137 0.885654
O O7 0.063046 0.833214 0.069598
O O8 0.926285 0.064514 0.419728
O O9 0.029816 0.077604 0.593658
O O10 0.096982 0.123990 0.426725
O O11 0.250000 0.648274 0.619901
O O12 0.361457 0.735712 0.718301
O O13 0.381954 0.595175 0.736611
O O14 0.583852 0.125804 0.725482
O O15 0.500000 0.000000 0.753263
O O16 0.750000 0.334018 0.297509
O O17 0.250000 0.963626 0.346690
O O18 0.107657 0.046447 0.282132
O O19 0.250000 0.367197 0.808270
#
# Coordination Sequence:
#
# PCOD9378725 Si02
#       8
#     8   8   8   8   8   8   8   8
#     4   9  21  41  63  84 114 157 203 247 296 350
#     4  10  19  34  60  85 121 153 198 239 290 351
#     4  11  20  34  55  86 120 153 188 239 299 352
#     4  10  19  32  56  90 123 157 191 231 288 356
#     4  11  23  37  57  87 116 153 200 246 295 353
#     4  10  20  35  54  83 119 158 191 234 292 350
#     4  10  20  33  55  89 124 154 190 233 291 355
#     4   9  19  36  57  82 113 153 194 240 292 346
#
# _framework density 18.976723
#
# number of rings (size 3 to 8) (size 9 to 14) (size 15 to 20)
#    0.000    2.000    2.500    1.500    0.000    2.000 
#    0.000    0.000    0.000   15.750    0.000   17.500 
#    0.000    0.000    0.000    0.000    0.000    0.000 
#
# Total GULP energy -178245.834575 kJ/mol
# GULP energy per Si atom -5570.182330 kJ/mol
# Density = 1.893353 g / cm^3
# Si number density = 18.976723 Si / 1000 Ang^3
#
#
#
# Elastic Constant Matrix: (Units=GPa)
#
#
# Indices 1 2 3 4 5 6 
#
# 1 81.5285 30.9903 17.5758 0.0000 0.0000 0.0000
# 2 30.9903 144.2454 32.9800 0.0000 0.0000 0.0000
# 3 17.5758 32.9800 59.6752 0.0000 0.0000 0.0000
# 4 0.0000 0.0000 0.0000 12.0080 0.0000 0.0000
# 5 0.0000 0.0000 0.0000 0.0000 14.5906 0.0000
# 6 0.0000 0.0000 0.0000 0.0000 0.0000 20.6663
#
#
#
# Elastic Compliance Matrix: (Units=1/GPa)
#
#
# Indices 1 2 3 4 5 6 
#
# 1 0.013744 -0.002321 -0.002765 0.000000 0.000000 0.000000
# 2 -0.002321 0.008327 -0.003919 0.000000 0.000000 0.000000
# 3 -0.002765 -0.003919 0.019738 0.000000 0.000000 0.000000
# 4 0.000000 0.000000 0.000000 0.083278 0.000000 0.000000
# 5 0.000000 0.000000 0.000000 0.000000 0.068537 0.000000
# 6 0.000000 0.000000 0.000000 0.000000 0.000000 0.048388
#
#
# Mechanical properties :
#
#
# Convention : Reuss Voigt Hill
#
# Bulk Modulus (GPa) = 42.01788 49.83791 45.92789
# Shear Modulus (GPa) = 18.65993 23.04652 20.85323
#
# Velocity S-wave (km/s) = 3.13917 3.48869 3.31854
# Velocity P-wave (km/s) = 5.94383 6.52286 6.24006
#
# Compressibility (1/GPa) = 0.02379939
#
# Stress axis : x y z
#
# Youngs Moduli (GPa) = 72.75969 120.08952 50.66492
#
# Poissons Ratio (x) = 0.27867 0.14011
# Poissons Ratio (y) = 0.16884 0.19854
# Poissons Ratio (z) = 0.20121 0.47058
#
# Static dielectric constant tensor:
#      x y z
#    x 1.697370 0.000000 0.000000 
#    y 0.000000 1.728260 0.000000 
#    z 0.000000 0.000000 1.642900 
# 
# From -- ./inp_files/11324.got.cif
#   From: 2010.05.17/outbox.cif.g08.bks.cpg/sg46_6_cif.got.tgz:11324.got - 2010.06.03 19:58:25.
