data_PCOD9378965
_publ_section_title
;
Structure prediction by ZEFSAII (Michael W. Deem and Ramdas Pophale) SiO2 
 PCOD9378965
Probable space group: I M A 2
;
_chemical_formula_sum "Si O2"
_cell_formula_units_Z 48
_cell_length_a 8.508171
_cell_length_b 23.286746
_cell_length_c 11.851133
_cell_angle_alpha 90.000000
_cell_angle_beta 90.000000
_cell_angle_gamma 90.000000
_cell_volume 2348.036740
_symmetry_space_group_name_H-M "I M A 2"
_symmetry_group_IT_number 46
_symmetry_cell_setting 'orthorhombic'
loop_
_space_group_symop_operation_xyz
x,y,z
-x,-y,z
1/2-x,y,z
1/2+x,-y,z
1/2+x,1/2+y,1/2+z
1/2-x,1/2-y,1/2+z
-x,1/2+y,1/2+z
x,1/2-y,1/2+z
loop_
_atom_site_type_symbol
_atom_site_label
_atom_site_fract_x
_atom_site_fract_y
_atom_site_fract_z
Si Si1 0.070126 0.938518 0.765550
Si Si2 0.061727 0.738753 0.229780
Si Si3 0.437379 0.359681 0.675165
Si Si4 0.562156 0.064063 0.362219
Si Si5 0.930975 0.352412 0.054177
Si Si6 0.565033 0.654895 0.418080
O O1 0.250000 0.943034 0.805176
O O2 0.071446 0.899203 0.654376
O O3 0.966933 0.905606 0.857393
O O4 0.000000 0.000000 0.739004
O O5 0.250000 0.743571 0.221067
O O6 0.002170 0.703802 0.117859
O O7 0.984825 0.800708 0.236431
O O8 0.021822 0.701484 0.340231
O O9 0.250000 0.367454 0.675914
O O10 0.515696 0.412860 0.739151
O O11 0.490708 0.350393 0.546280
O O12 0.750000 0.062591 0.375147
O O13 0.497927 0.112917 0.449126
O O14 0.500000 0.000000 0.384138
O O15 0.750000 0.337736 0.023375
O O16 0.750000 0.668271 0.417635
#
# Coordination Sequence:
#
# PCOD9378965 Si02
#       6
#     8   8   8   8   8   8
#     4  10  19  34  58  87 118 153 195 244 298 356
#     4  10  21  39  64  92 122 155 198 251 308 370
#     4  11  25  42  60  87 121 161 205 252 304 364
#     4  11  23  41  63  90 124 166 209 254 306 369
#     4   8  18  36  59  90 121 153 196 245 300 359
#     4  10  22  40  59  84 118 154 198 248 299 360
#
# _framework density 20.442610999999999
#
# number of rings (size 3 to 8) (size 9 to 14) (size 15 to 20)
#    0.000    2.000    0.000    4.000    2.333    3.333 
#    0.000    8.333    0.000    0.000    0.000    0.000 
#    0.000    0.000    0.000    0.000    0.000    0.000 
#
# Total GULP energy -133986.426258 kJ/mol
# GULP energy per Si atom -5582.767761 kJ/mol
# Density = 2.039608 g / cm^3
# Si number density = 20.442611 Si / 1000 Ang^3
#
#
#
# Elastic Constant Matrix: (Units=GPa)
#
#
# Indices 1 2 3 4 5 6 
#
# 1 25.7376 4.7662 12.3191 0.0000 0.0000 0.0000
# 2 4.7662 63.8171 6.7164 0.0000 0.0000 0.0000
# 3 12.3191 6.7164 82.6587 0.0001 0.0000 0.0000
# 4 0.0000 0.0000 0.0001 15.2391 0.0000 0.0000
# 5 0.0000 0.0000 0.0000 0.0000 22.9814 0.0000
# 6 0.0000 0.0000 0.0000 0.0000 0.0000 23.3693
#
#
#
# Elastic Compliance Matrix: (Units=1/GPa)
#
#
# Indices 1 2 3 4 5 6 
#
# 1 0.042234 -0.002513 -0.006090 0.000000 0.000000 0.000000
# 2 -0.002513 0.015955 -0.000922 0.000000 0.000000 0.000000
# 3 -0.006090 -0.000922 0.013080 0.000000 0.000000 0.000000
# 4 0.000000 0.000000 0.000000 0.065621 0.000000 0.000000
# 5 0.000000 0.000000 0.000000 0.000000 0.043513 0.000000
# 6 0.000000 0.000000 0.000000 0.000000 0.000000 0.042791
#
#
# Mechanical properties :
#
#
# Convention : Reuss Voigt Hill
#
# Bulk Modulus (GPa) = 19.15026 24.42407 21.78716
# Shear Modulus (GPa) = 19.25662 22.21210 20.73436
#
# Velocity S-wave (km/s) = 3.07251 3.29988 3.18822
# Velocity P-wave (km/s) = 4.68777 5.14708 4.92279
#
# Compressibility (1/GPa) = 0.05221860
#
# Stress axis : x y z
#
# Youngs Moduli (GPa) = 23.67751 62.67822 76.44976
#
# Poissons Ratio (x) = 0.15753 0.46559
# Poissons Ratio (y) = 0.05951 0.07047
# Poissons Ratio (z) = 0.14420 0.05778
#
# Static dielectric constant tensor:
#      x y z
#    x 1.721860 0.000000 0.000000 
#    y 0.000000 1.722390 0.000000 
#    z 0.000000 0.000000 1.755190 
# 
# From -- ./inp_files/9305.got.cif
#   From: 2010.05.17/outbox.cif.g08.bks.cpg/sg46_5_cif.got.tgz:9305.got - 2010.06.03 19:58:25.
