data_PCOD9378777
_publ_section_title
;
Structure prediction by ZEFSAII (Michael W. Deem and Ramdas Pophale) SiO2 
 PCOD9378777
Probable space group: I M A 2
;
_chemical_formula_sum "Si O2"
_cell_formula_units_Z 48
_cell_length_a 8.524763
_cell_length_b 9.553121
_cell_length_c 32.428624
_cell_angle_alpha 90.000000
_cell_angle_beta 90.000000
_cell_angle_gamma 90.000000
_cell_volume 2640.925279
_symmetry_space_group_name_H-M "I M A 2"
_symmetry_group_IT_number 46
_symmetry_cell_setting 'orthorhombic'
loop_
_space_group_symop_operation_xyz
x,y,z
-x,-y,z
1/2-x,y,z
1/2+x,-y,z
1/2+x,1/2+y,1/2+z
1/2-x,1/2-y,1/2+z
-x,1/2+y,1/2+z
x,1/2-y,1/2+z
loop_
_atom_site_type_symbol
_atom_site_label
_atom_site_fract_x
_atom_site_fract_y
_atom_site_fract_z
Si Si1 0.938303 0.342233 0.176670
Si Si2 0.061046 0.659130 0.930573
Si Si3 0.061201 0.659195 0.840575
Si Si4 0.560331 0.342361 0.598583
Si Si5 0.563279 0.842704 0.765636
Si Si6 0.060103 0.840785 0.520741
O O1 0.750000 0.347068 0.177734
O O2 0.989185 0.241797 0.139534
O O3 0.000000 0.500000 0.169917
O O4 0.999456 0.293373 0.221217
O O5 0.250000 0.658173 0.930513
O O6 0.012347 0.718163 0.885957
O O7 0.000000 0.500000 0.930536
O O8 0.010830 0.715853 0.975338
O O9 0.250000 0.658575 0.838479
O O10 0.000000 0.500000 0.837947
O O11 0.994170 0.747819 0.803090
O O12 0.500000 0.500000 0.598514
O O13 0.750000 0.344468 0.598175
O O14 0.506826 0.256641 0.558184
O O15 0.750000 0.845765 0.764173
O O16 0.500000 0.000000 0.771368
O O17 0.250000 0.845826 0.521619
O O18 0.000000 0.000000 0.525440
#
# Coordination Sequence:
#
# PCOD9378777 Si02
#       6
#     8   8   8   8   8   8
#     4  10  20  36  56  78 101 131 171 214 255 305
#     4   8  15  28  49  74 103 134 169 211 252 294
#     4  10  19  33  53  79 108 140 175 215 259 307
#     4  10  22  36  52  75 106 137 168 207 254 304
#     4  11  22  37  56  78 104 137 173 215 261 310
#     4   9  17  32  53  78 103 133 172 212 251 298
#
# _framework density 18.175446999999998
#
# number of rings (size 3 to 8) (size 9 to 14) (size 15 to 20)
#    0.000    2.333    0.000    4.000    0.000    3.333 
#    0.000    2.500    0.000    2.000    0.000    0.000 
#    0.000    0.000    0.000    0.000    0.000    0.000 
#
# Total GULP energy -133821.446646 kJ/mol
# GULP energy per Si atom -5575.893610 kJ/mol
# Density = 1.813408 g / cm^3
# Si number density = 18.175447 Si / 1000 Ang^3
#
#
#
# Elastic Constant Matrix: (Units=GPa)
#
#
# Indices 1 2 3 4 5 6 
#
# 1 50.6968 21.2747 46.0156 0.0000 0.0000 0.0000
# 2 21.2747 75.2730 100.5824 0.0000 0.0000 0.0000
# 3 46.0156 100.5824 236.8185 0.0000 0.0000 0.0000
# 4 0.0000 0.0000 0.0000 31.5207 0.0000 0.0000
# 5 0.0000 0.0000 0.0000 0.0000 65.5339 0.0000
# 6 0.0000 0.0000 0.0000 0.0000 0.0000 29.3727
#
#
#
# Elastic Compliance Matrix: (Units=1/GPa)
#
#
# Indices 1 2 3 4 5 6 
#
# 1 0.024002 -0.001276 -0.004122 0.000000 0.000000 0.000000
# 2 -0.001276 0.030787 -0.012828 0.000000 0.000000 0.000000
# 3 -0.004122 -0.012828 0.010472 0.000000 0.000000 0.000000
# 4 0.000000 0.000000 0.000000 0.031725 0.000000 0.000000
# 5 0.000000 0.000000 0.000000 0.000000 0.015259 0.000000
# 6 0.000000 0.000000 0.000000 0.000000 0.000000 0.034045
#
#
# Mechanical properties :
#
#
# Convention : Reuss Voigt Hill
#
# Bulk Modulus (GPa) = 34.71158 77.61486 56.16322
# Shear Modulus (GPa) = 25.99506 38.27985 32.13745
#
# Velocity S-wave (km/s) = 3.78594 4.59424 4.20953
# Velocity P-wave (km/s) = 6.18471 8.42250 7.38882
#
# Compressibility (1/GPa) = 0.02880883
#
# Stress axis : x y z
#
# Youngs Moduli (GPa) = 41.66364 32.48158 95.49438
#
# Poissons Ratio (x) = 0.04145 0.39360
# Poissons Ratio (y) = 0.05317 1.22499
# Poissons Ratio (z) = 0.17173 0.41667
#
# Static dielectric constant tensor:
#      x y z
#    x 1.612770 0.000000 0.000000 
#    y 0.000000 1.574890 0.000000 
#    z 0.000000 0.000000 1.671340 
# 
# From -- ./inp_files/24996.got.cif
#   From: 2010.05.17/outbox.cif.g08.bks.cpg/sg46_13_cif.got.tgz:24996.got - 2010.06.03 19:58:25.
