data_PCOD9378723
_publ_section_title
;
Structure prediction by ZEFSAII (Michael W. Deem and Ramdas Pophale) SiO2 
 PCOD9378723
Probable space group: I M A 2
;
_chemical_formula_sum "Si O2"
_cell_formula_units_Z 44
_cell_length_a 15.845124
_cell_length_b 23.415580
_cell_length_c 5.170024
_cell_angle_alpha 90.000000
_cell_angle_beta 90.000000
_cell_angle_gamma 90.000000
_cell_volume 1918.196618
_symmetry_space_group_name_H-M "I M A 2"
_symmetry_group_IT_number 46
_symmetry_cell_setting 'orthorhombic'
loop_
_space_group_symop_operation_xyz
x,y,z
-x,-y,z
1/2-x,y,z
1/2+x,-y,z
1/2+x,1/2+y,1/2+z
1/2-x,1/2-y,1/2+z
-x,1/2+y,1/2+z
x,1/2-y,1/2+z
loop_
_atom_site_type_symbol
_atom_site_label
_atom_site_fract_x
_atom_site_fract_y
_atom_site_fract_z
Si Si1 0.398236 0.509192 0.238240
Si Si2 0.040977 0.876323 0.932129
Si Si3 0.150839 0.713421 0.724752
Si Si4 0.581324 0.957965 0.225159
Si Si5 0.434701 0.289659 0.117610
Si Si6 0.250000 0.286589 0.210038
O O1 0.500000 0.500000 0.253640
O O2 0.399411 0.577206 0.284692
O O3 0.361636 0.480830 0.493660
O O4 0.372206 0.472092 0.991823
O O5 0.965382 0.901964 0.114078
O O6 0.097525 0.839347 0.124278
O O7 0.996903 0.838742 0.711342
O O8 0.250000 0.700136 0.709735
O O9 0.133829 0.737116 0.010882
O O10 0.500000 0.000000 0.252285
O O11 0.443379 0.239315 0.336114
O O12 0.339483 0.314209 0.145004
O O13 0.250000 0.267600 0.509973
#
# Coordination Sequence:
#
# PCOD9378723 Si02
#       6
#     8   8   8   8   8   4
#     4   8  16  28  43  70  95 118 157 206 253 301
#     4  10  19  32  56  79 100 144 175 216 268 320
#     4  10  22  37  51  76 114 147 183 230 269 310
#     4   8  16  28  43  70  95 118 157 206 253 301
#     4  10  20  31  48  77 105 133 172 209 245 310
#     4   8  16  32  46  64 102 136 158 196 242 290
#
# _framework density 22.938210000000002
#
# number of rings (size 3 to 8) (size 9 to 14) (size 15 to 20)
#    0.000    3.273    0.000    1.091    0.000   11.636 
#    0.000    0.000    0.000    0.000   42.545    0.000 
#    0.000    0.000    0.000    0.000    0.000    0.000 
#
# Total GULP energy -122511.103427 kJ/mol
# GULP energy per Si atom -5568.686519 kJ/mol
# Density = 2.288600 g / cm^3
# Si number density = 22.938210 Si / 1000 Ang^3
#
#
#
# Elastic Constant Matrix: (Units=GPa)
#
#
# Indices 1 2 3 4 5 6 
#
# 1 55.0201 25.9103 4.3264 0.0000 0.0000 0.0000
# 2 25.9103 80.7862 10.6882 0.0000 0.0000 0.0000
# 3 4.3264 10.6882 140.7045 0.0000 0.0000 0.0000
# 4 0.0000 0.0000 0.0000 29.3556 0.0000 0.0000
# 5 0.0000 0.0000 0.0000 0.0000 15.4470 0.0000
# 6 0.0000 0.0000 0.0000 0.0000 0.0000 -11.4378
#
#
#
# Elastic Compliance Matrix: (Units=1/GPa)
#
#
# Indices 1 2 3 4 5 6 
#
# 1 0.021411 -0.006849 -0.000138 0.000000 0.000000 0.000000
# 2 -0.006849 0.014695 -0.000906 0.000000 0.000000 0.000000
# 3 -0.000138 -0.000906 0.007180 0.000000 0.000000 0.000000
# 4 0.000000 0.000000 0.000000 0.034065 0.000000 0.000000
# 5 0.000000 0.000000 0.000000 0.000000 0.064738 0.000000
# 6 0.000000 0.000000 0.000000 0.000000 0.000000 -0.087429
#
#
# Mechanical properties :
#
#
# Convention : Reuss Voigt Hill
#
# Bulk Modulus (GPa) = 36.36237 39.81782 38.09010
# Shear Modulus (GPa) = 62.80450 22.37868 42.59159
#
# Velocity S-wave (km/s) = 5.23825 3.12686 4.31373
# Velocity P-wave (km/s) = 7.24379 5.51659 6.43837
#
# Compressibility (1/GPa) = 0.02750096
#
# Stress axis : x y z
#
# Youngs Moduli (GPa) = 46.70416 68.05126 139.27317
#
# Poissons Ratio (x) = 0.46608 0.01923
# Poissons Ratio (y) = 0.31987 0.12613
# Poissons Ratio (z) = 0.00645 0.06163
#
# Static dielectric constant tensor:
#      x y z
#    x 1.779810 0.000000 0.000000 
#    y 0.000000 1.887660 0.000000 
#    z 0.000000 0.000000 2.119690 
# 
# From -- ./inp_files/1681.got.cif
#   From: 2010.05.17/outbox.cif.g08.bks.cpg/sg46_1_cif.got.tgz:1681.got - 2010.06.03 19:58:25.
