data_PCOD9378615
_publ_section_title
;
Structure prediction by ZEFSAII (Michael W. Deem and Ramdas Pophale) SiO2 
 PCOD9378615
Probable space group: I M A 2
;
_chemical_formula_sum "Si O2"
_cell_formula_units_Z 64
_cell_length_a 8.772436
_cell_length_b 23.923890
_cell_length_c 19.603833
_cell_angle_alpha 90.000000
_cell_angle_beta 90.000000
_cell_angle_gamma 90.000000
_cell_volume 4114.271995
_symmetry_space_group_name_H-M "I M A 2"
_symmetry_group_IT_number 46
_symmetry_cell_setting 'orthorhombic'
loop_
_space_group_symop_operation_xyz
x,y,z
-x,-y,z
1/2-x,y,z
1/2+x,-y,z
1/2+x,1/2+y,1/2+z
1/2-x,1/2-y,1/2+z
-x,1/2+y,1/2+z
x,1/2-y,1/2+z
loop_
_atom_site_type_symbol
_atom_site_label
_atom_site_fract_x
_atom_site_fract_y
_atom_site_fract_z
Si Si1 0.066668 0.061483 0.420120
Si Si2 0.933114 0.837726 0.516643
Si Si3 0.566805 0.742913 0.779655
Si Si4 0.433701 0.938938 0.140761
Si Si5 0.933328 0.334844 0.552297
Si Si6 0.933465 0.117926 0.284333
Si Si7 0.432808 0.272262 0.430086
Si Si8 0.432260 0.724936 0.139448
O O1 0.250000 0.059383 0.415455
O O2 0.025546 0.104034 0.481202
O O3 0.001723 0.087619 0.350323
O O4 0.000000 0.000000 0.430194
O O5 0.750000 0.836028 0.525283
O O6 0.974726 0.787529 0.464238
O O7 0.011615 0.822948 0.587959
O O8 0.750000 0.738654 0.778419
O O9 0.497245 0.680636 0.778949
O O10 0.520712 0.771271 0.851267
O O11 0.507782 0.775235 0.713406
O O12 0.250000 0.941492 0.138360
O O13 0.484882 0.892886 0.085467
O O14 0.475322 0.915727 0.215724
O O15 0.500000 0.000000 0.129408
O O16 0.750000 0.335129 0.549364
O O17 0.976906 0.283661 0.602703
O O18 0.997163 0.319448 0.478356
O O19 0.750000 0.119889 0.288884
O O20 0.250000 0.276469 0.432980
O O21 0.250000 0.724055 0.145683
#
# Coordination Sequence:
#
# PCOD9378615 Si02
#       8
#     8   8   8   8   8   8   8   8
#     4  11  22  36  51  72 101 135 175 211 248 296
#     4   9  18  34  50  69  98 130 166 207 248 293
#     4  11  20  32  50  74 103 134 165 202 249 301
#     4  10  21  35  48  68  97 130 169 205 239 284
#     4   9  18  33  48  68  97 126 160 205 246 284
#     4  11  21  34  49  69 101 137 174 211 243 286
#     4   9  18  32  49  71  96 125 164 201 242 297
#     4  10  19  32  50  73  99 127 165 206 249 299
#
# _framework density 15.555607999999999
#
# number of rings (size 3 to 8) (size 9 to 14) (size 15 to 20)
#    0.000    2.000    2.500    1.875    0.000    5.000 
#    0.000    0.000    0.000    0.000    0.000    0.875 
#    0.000    6.000    0.000    0.000    0.000    0.000 
#
# Total GULP energy -178569.724649 kJ/mol
# GULP energy per Si atom -5580.303895 kJ/mol
# Density = 1.552020 g / cm^3
# Si number density = 15.555608 Si / 1000 Ang^3
#
#
#
# Elastic Constant Matrix: (Units=GPa)
#
#
# Indices 1 2 3 4 5 6 
#
# 1 34.2717 33.8187 42.9425 0.0000 0.0000 0.0000
# 2 33.8187 102.4618 75.3541 0.0000 0.0000 0.0000
# 3 42.9425 75.3541 144.8819 0.0000 0.0000 0.0000
# 4 0.0000 0.0000 0.0000 18.0165 0.0000 0.0000
# 5 0.0000 0.0000 0.0000 0.0000 25.9160 0.0000
# 6 0.0000 0.0000 0.0000 0.0000 0.0000 26.1518
#
#
#
# Elastic Compliance Matrix: (Units=1/GPa)
#
#
# Indices 1 2 3 4 5 6 
#
# 1 0.051389 -0.009328 -0.010380 0.000000 0.000000 0.000000
# 2 -0.009328 0.017498 -0.006336 0.000000 0.000000 0.000000
# 3 -0.010380 -0.006336 0.013274 0.000000 0.000000 0.000000
# 4 0.000000 0.000000 0.000000 0.055505 0.000000 0.000000
# 5 0.000000 0.000000 0.000000 0.000000 0.038586 0.000000
# 6 0.000000 0.000000 0.000000 0.000000 0.000000 0.038238
#
#
# Mechanical properties :
#
#
# Convention : Reuss Voigt Hill
#
# Bulk Modulus (GPa) = 33.25168 65.09400 49.17284
# Shear Modulus (GPa) = 18.07635 22.65021 20.36328
#
# Velocity S-wave (km/s) = 3.41258 3.82000 3.62202
# Velocity P-wave (km/s) = 6.07865 7.83539 7.01225
#
# Compressibility (1/GPa) = 0.03007367
#
# Stress axis : x y z
#
# Youngs Moduli (GPa) = 19.45928 57.14800 75.33283
#
# Poissons Ratio (x) = 0.53306 0.78197
# Poissons Ratio (y) = 0.18151 0.47734
# Poissons Ratio (z) = 0.20199 0.36211
#
# Static dielectric constant tensor:
#      x y z
#    x 1.523360 0.000000 0.000000 
#    y 0.000000 1.495700 0.000000 
#    z 0.000000 0.000000 1.514510 
# 
# From -- ./inp_files/18553.got.cif
#   From: 2010.05.17/outbox.cif.g08.bks.cpg/sg46_10_cif.got.tgz:18553.got - 2010.06.03 19:58:25.
