data_PCOD9378242
_publ_section_title
;
Structure prediction by ZEFSAII (Michael W. Deem and Ramdas Pophale) SiO2 
 PCOD9378242
Probable space group: I M A 2
;
_chemical_formula_sum "Si O2"
_cell_formula_units_Z 64
_cell_length_a 15.986130
_cell_length_b 9.407250
_cell_length_c 22.243422
_cell_angle_alpha 90.000000
_cell_angle_beta 90.000000
_cell_angle_gamma 90.000000
_cell_volume 3345.088616
_symmetry_space_group_name_H-M "I M A 2"
_symmetry_group_IT_number 46
_symmetry_cell_setting 'orthorhombic'
loop_
_space_group_symop_operation_xyz
x,y,z
-x,-y,z
1/2-x,y,z
1/2+x,-y,z
1/2+x,1/2+y,1/2+z
1/2-x,1/2-y,1/2+z
-x,1/2+y,1/2+z
x,1/2-y,1/2+z
loop_
_atom_site_type_symbol
_atom_site_label
_atom_site_fract_x
_atom_site_fract_y
_atom_site_fract_z
Si Si1 0.650036 0.418901 0.677610
Si Si2 0.345895 0.138905 0.284912
Si Si3 0.152033 0.804881 0.770173
Si Si4 0.089104 0.424087 0.325481
Si Si5 0.911614 0.426485 0.543309
Si Si6 0.345602 0.343618 0.457025
Si Si7 0.919285 0.082177 0.358554
Si Si8 0.010671 0.656453 0.988994
O O1 0.750000 0.417580 0.669280
O O2 0.632628 0.540658 0.727412
O O3 0.624256 0.269603 0.708430
O O4 0.610559 0.440402 0.612991
O O5 0.250000 0.189674 0.278296
O O6 0.407700 0.270080 0.294727
O O7 0.349931 0.035989 0.343452
O O8 0.250000 0.772600 0.776047
O O9 0.105356 0.721842 0.823112
O O10 0.137095 0.969256 0.781087
O O11 0.132406 0.398978 0.390002
O O12 0.000000 0.500000 0.335361
O O13 0.851068 0.519597 0.501258
O O14 0.929135 0.264223 0.524440
O O15 0.000000 0.500000 0.532084
O O16 0.250000 0.287566 0.458609
O O17 0.420200 0.232363 0.475572
O O18 0.943571 0.124115 0.425580
O O19 0.000000 0.000000 0.333002
O O20 0.000000 0.500000 0.017662
#
# Coordination Sequence:
#
# PCOD9378242 Si02
#       8
#     8   8   8   8   8   8   8   8
#     4   9  20  39  58  79 108 145 192 236 275 330
#     4  10  21  37  58  82 113 154 194 232 281 343
#     4  10  20  34  53  79 112 143 179 229 277 325
#     4  12  22  34  54  85 118 145 182 233 289 340
#     4  10  21  38  61  83 109 149 195 236 280 338
#     4  11  22  38  60  85 116 154 194 234 284 347
#     4  10  18  32  54  79 110 145 179 223 276 334
#     4  10  21  38  58  84 118 149 184 239 293 341
#
# _framework density 19.132527
#
# number of rings (size 3 to 8) (size 9 to 14) (size 15 to 20)
#    0.000    1.750    0.000    7.500    0.000    3.000 
#    0.000    8.750    0.000    1.500    0.000    0.000 
#    0.000    0.000    0.000    0.000    0.000    0.000 
#
# Total GULP energy -178419.422183 kJ/mol
# GULP energy per Si atom -5575.606943 kJ/mol
# Density = 1.908898 g / cm^3
# Si number density = 19.132527 Si / 1000 Ang^3
#
#
#
# Elastic Constant Matrix: (Units=GPa)
#
#
# Indices 1 2 3 4 5 6 
#
# 1 64.6512 22.3114 21.8114 0.0000 0.0000 0.0000
# 2 22.3114 127.5820 27.4004 0.0000 0.0000 0.0000
# 3 21.8114 27.4004 59.9526 0.0000 0.0000 0.0000
# 4 0.0000 0.0000 0.0000 15.7232 0.0000 0.0000
# 5 0.0000 0.0000 0.0000 0.0000 13.8773 0.0000
# 6 0.0000 0.0000 0.0000 0.0000 0.0000 31.9177
#
#
#
# Elastic Compliance Matrix: (Units=1/GPa)
#
#
# Indices 1 2 3 4 5 6 
#
# 1 0.018053 -0.001937 -0.005683 0.000000 0.000000 0.000000
# 2 -0.001937 0.008899 -0.003363 0.000000 0.000000 0.000000
# 3 -0.005683 -0.003363 0.020284 0.000000 0.000000 0.000000
# 4 0.000000 0.000000 0.000000 0.063600 0.000000 0.000000
# 5 0.000000 0.000000 0.000000 0.000000 0.072060 0.000000
# 6 0.000000 0.000000 0.000000 0.000000 0.000000 0.031331
#
#
# Mechanical properties :
#
#
# Convention : Reuss Voigt Hill
#
# Bulk Modulus (GPa) = 39.56917 43.91469 41.74193
# Shear Modulus (GPa) = 20.44025 24.34782 22.39403
#
# Velocity S-wave (km/s) = 3.27211 3.57120 3.42492
# Velocity P-wave (km/s) = 5.91626 6.32514 6.12411
#
# Compressibility (1/GPa) = 0.02527220
#
# Stress axis : x y z
#
# Youngs Moduli (GPa) = 55.39197 112.37291 49.29972
#
# Poissons Ratio (x) = 0.21763 0.28016
# Poissons Ratio (y) = 0.10727 0.16577
# Poissons Ratio (z) = 0.31478 0.37786
#
# Static dielectric constant tensor:
#      x y z
#    x 1.730890 0.000000 0.000000 
#    y 0.000000 1.734150 0.000000 
#    z 0.000000 0.000000 1.639590 
# 
# From -- ./inp_files/23714.got.cif
#   From: 2010.05.17/outbox.cif.g08.bks.cpg/sg46_12_cif.got.tgz:23714.got - 2010.06.03 19:58:25.
