data_PCOD9378521
_publ_section_title
;
Structure prediction by ZEFSAII (Michael W. Deem and Ramdas Pophale) SiO2 
 PCOD9378521
Probable space group: I M A 2
;
_chemical_formula_sum "Si O2"
_cell_formula_units_Z 64
_cell_length_a 8.655280
_cell_length_b 29.048986
_cell_length_c 14.842541
_cell_angle_alpha 90.000000
_cell_angle_beta 90.000000
_cell_angle_gamma 90.000000
_cell_volume 3731.817152
_symmetry_space_group_name_H-M "I M A 2"
_symmetry_group_IT_number 46
_symmetry_cell_setting 'orthorhombic'
loop_
_space_group_symop_operation_xyz
x,y,z
-x,-y,z
1/2-x,y,z
1/2+x,-y,z
1/2+x,1/2+y,1/2+z
1/2-x,1/2-y,1/2+z
-x,1/2+y,1/2+z
x,1/2-y,1/2+z
loop_
_atom_site_type_symbol
_atom_site_label
_atom_site_fract_x
_atom_site_fract_y
_atom_site_fract_z
Si Si1 0.436950 0.136210 0.781320
Si Si2 0.064267 0.177929 0.962423
Si Si3 0.565819 0.278295 0.169823
Si Si4 0.434575 0.721989 0.958303
Si Si5 0.435408 0.634374 0.840592
Si Si6 0.564550 0.677368 0.667879
Si Si7 0.564655 0.949286 0.455255
Si Si8 0.563710 0.949580 0.662910
O O1 0.250000 0.136381 0.778862
O O2 0.486532 0.142651 0.885058
O O3 0.496318 0.180590 0.727557
O O4 0.490176 0.090133 0.730731
O O5 0.250000 0.177936 0.964498
O O6 0.010296 0.229173 0.935715
O O7 0.011450 0.168690 0.064703
O O8 0.750000 0.275714 0.182855
O O9 0.493129 0.228761 0.192094
O O10 0.534042 0.287191 0.063865
O O11 0.250000 0.726810 0.947482
O O12 0.487007 0.679257 0.898116
O O13 0.250000 0.633233 0.841205
O O14 0.496145 0.642200 0.739927
O O15 0.499351 0.589181 0.888972
O O16 0.750000 0.676244 0.670825
O O17 0.750000 0.949921 0.450729
O O18 0.518837 0.938595 0.559285
O O19 0.500000 0.000000 0.434567
O O20 0.750000 0.951289 0.665538
O O21 0.500000 0.000000 0.684986
#
# Coordination Sequence:
#
# PCOD9378521 Si02
#       8
#     8   8   8   8   8   8   8   8
#     4  10  19  32  50  73  98 128 165 204 244 293
#     4   9  19  33  49  68  95 131 169 205 243 285
#     4  10  19  31  47  71 101 132 163 200 244 293
#     4   9  19  32  46  68 101 133 162 198 243 291
#     4  11  21  33  51  75 100 130 167 207 247 293
#     4  10  20  34  49  68  96 133 171 207 245 287
#     4  10  20  35  54  77 103 131 159 195 243 296
#     4   9  19  34  53  76 103 130 159 196 243 296
#
# _framework density 17.149822
#
# number of rings (size 3 to 8) (size 9 to 14) (size 15 to 20)
#    0.000    2.250    0.000    3.000    0.000    5.500 
#    0.000    0.000    0.000    0.750    0.000    1.750 
#    0.000    0.000    0.000    0.000    0.000    0.000 
#
# Total GULP energy -178616.103005 kJ/mol
# GULP energy per Si atom -5581.753219 kJ/mol
# Density = 1.711079 g / cm^3
# Si number density = 17.149822 Si / 1000 Ang^3
#
#
#
# Elastic Constant Matrix: (Units=GPa)
#
#
# Indices 1 2 3 4 5 6 
#
# 1 23.9461 29.4495 33.4993 0.0000 0.0000 0.0000
# 2 29.4495 124.3185 104.3034 0.0000 0.0000 0.0000
# 3 33.4993 104.3034 120.4001 0.0000 0.0000 0.0000
# 4 0.0000 0.0000 0.0000 33.3119 0.0000 0.0000
# 5 0.0000 0.0000 0.0000 0.0000 19.5170 0.0000
# 6 0.0000 0.0000 0.0000 0.0000 0.0000 28.3215
#
#
#
# Elastic Compliance Matrix: (Units=1/GPa)
#
#
# Indices 1 2 3 4 5 6 
#
# 1 0.068399 -0.000864 -0.018283 0.000000 0.000000 0.000000
# 2 -0.000864 0.029457 -0.025279 0.000000 0.000000 0.000000
# 3 -0.018283 -0.025279 0.035292 0.000000 0.000000 0.000000
# 4 0.000000 0.000000 0.000000 0.030019 0.000000 0.000000
# 5 0.000000 0.000000 0.000000 0.000000 0.051237 0.000000
# 6 0.000000 0.000000 0.000000 0.000000 0.000000 0.035309
#
#
# Mechanical properties :
#
#
# Convention : Reuss Voigt Hill
#
# Bulk Modulus (GPa) = 22.57452 67.01880 44.79666
# Shear Modulus (GPa) = 14.15106 22.99091 18.57099
#
# Velocity S-wave (km/s) = 2.87565 3.66538 3.29427
# Velocity P-wave (km/s) = 4.92113 7.55491 6.37550
#
# Compressibility (1/GPa) = 0.04429772
#
# Stress axis : x y z
#
# Youngs Moduli (GPa) = 14.62010 33.94722 28.33521
#
# Poissons Ratio (x) = 0.02932 0.51804
# Poissons Ratio (y) = 0.01263 0.71628
# Poissons Ratio (z) = 0.26729 0.85815
#
# Static dielectric constant tensor:
#      x y z
#    x 1.577020 0.000000 0.000000 
#    y 0.000000 1.543960 0.000000 
#    z 0.000000 0.000000 1.607630 
# 
# From -- ./inp_files/14435.got.cif
#   From: 2010.05.17/outbox.cif.g08.bks.cpg/sg46_8_cif.got.tgz:14435.got - 2010.06.03 19:58:25.
