data_PCOD9378229
_publ_section_title
;
Structure prediction by ZEFSAII (Michael W. Deem and Ramdas Pophale) SiO2 
 PCOD9378229
Probable space group: I M A 2
;
_chemical_formula_sum "Si O2"
_cell_formula_units_Z 64
_cell_length_a 8.899556
_cell_length_b 23.614619
_cell_length_c 19.476389
_cell_angle_alpha 90.000000
_cell_angle_beta 90.000000
_cell_angle_gamma 90.000000
_cell_volume 4093.150593
_symmetry_space_group_name_H-M "I M A 2"
_symmetry_group_IT_number 46
_symmetry_cell_setting 'orthorhombic'
loop_
_space_group_symop_operation_xyz
x,y,z
-x,-y,z
1/2-x,y,z
1/2+x,-y,z
1/2+x,1/2+y,1/2+z
1/2-x,1/2-y,1/2+z
-x,1/2+y,1/2+z
x,1/2-y,1/2+z
loop_
_atom_site_type_symbol
_atom_site_label
_atom_site_fract_x
_atom_site_fract_y
_atom_site_fract_z
Si Si1 0.570811 0.222548 0.218020
Si Si2 0.429232 0.158903 0.341743
Si Si3 0.070536 0.061545 0.714942
Si Si4 0.071245 0.838221 0.799517
Si Si5 0.569385 0.750729 0.576124
Si Si6 0.429352 0.938080 0.431232
Si Si7 0.570453 0.775352 0.922615
Si Si8 0.430192 0.115746 0.567121
O O1 0.750000 0.215227 0.220680
O O2 0.491116 0.177517 0.267713
O O3 0.534709 0.284510 0.250298
O O4 0.510885 0.222687 0.140775
O O5 0.250000 0.150697 0.340118
O O6 0.509774 0.104578 0.373264
O O7 0.460472 0.212680 0.391827
O O8 0.250000 0.058701 0.720428
O O9 0.033995 0.084839 0.638596
O O10 0.007174 0.106664 0.769025
O O11 0.000000 0.000000 0.724412
O O12 0.250000 0.654488 0.299819
O O13 0.013005 0.819867 0.874285
O O14 0.750000 0.746610 0.584440
O O15 0.528353 0.724497 0.502453
O O16 0.532634 0.817755 0.573442
O O17 0.250000 0.941104 0.429820
O O18 0.484790 0.912662 0.503939
O O19 0.500000 0.000000 0.422829
O O20 0.750000 0.783907 0.917028
O O21 0.250000 0.111624 0.554844
#
# Coordination Sequence:
#
# PCOD9378229 Si02
#       8
#     8   8   8   8   8   8   8   8
#     4  10  20  32  49  76 105 133 168 211 258 305
#     4  10  19  35  54  73  99 134 173 214 257 303
#     4  11  22  35  52  71  99 136 177 215 253 297
#     4  10  20  33  49  72 101 131 169 211 256 302
#     4  10  18  32  52  76 103 137 173 206 252 307
#     4  12  24  36  52  73 102 138 177 217 257 303
#     4   9  18  32  52  73  99 132 169 209 255 305
#     4  10  20  35  51  72 102 139 179 213 248 298
#
# _framework density 15.635878
#
# number of rings (size 3 to 8) (size 9 to 14) (size 15 to 20)
#    0.000    1.750    2.500    3.000    0.000    4.500 
#    0.000    0.000    0.000    0.000    0.000    0.875 
#    0.000    6.000    0.000    0.000    0.000    0.000 
#
# Total GULP energy -178704.933284 kJ/mol
# GULP energy per Si atom -5584.529165 kJ/mol
# Density = 1.560029 g / cm^3
# Si number density = 15.635878 Si / 1000 Ang^3
#
#
#
# Elastic Constant Matrix: (Units=GPa)
#
#
# Indices 1 2 3 4 5 6 
#
# 1 62.2976 55.6248 60.0112 0.0000 0.0000 0.0000
# 2 55.6248 99.7461 69.0951 0.0000 0.0000 0.0000
# 3 60.0112 69.0951 135.4262 0.0000 0.0000 0.0000
# 4 0.0000 0.0000 0.0000 16.1083 0.0000 0.0000
# 5 0.0000 0.0000 0.0000 0.0000 28.8941 0.0000
# 6 0.0000 0.0000 0.0000 0.0000 0.0000 25.0463
#
#
#
# Elastic Compliance Matrix: (Units=1/GPa)
#
#
# Indices 1 2 3 4 5 6 
#
# 1 0.038449 -0.014908 -0.009431 0.000000 0.000000 0.000000
# 2 -0.014908 0.021286 -0.004254 0.000000 0.000000 0.000000
# 3 -0.009431 -0.004254 0.013734 0.000000 0.000000 0.000000
# 4 0.000000 0.000000 0.000000 0.062080 0.000000 0.000000
# 5 0.000000 0.000000 0.000000 0.000000 0.034609 0.000000
# 6 0.000000 0.000000 0.000000 0.000000 0.000000 0.039926
#
#
# Mechanical properties :
#
#
# Convention : Reuss Voigt Hill
#
# Bulk Modulus (GPa) = 61.42033 74.10356 67.76195
# Shear Modulus (GPa) = 18.33531 21.52565 19.93048
#
# Velocity S-wave (km/s) = 3.42810 3.71439 3.57412
# Velocity P-wave (km/s) = 7.41863 8.11738 7.77586
#
# Compressibility (1/GPa) = 0.01628125
#
# Stress axis : x y z
#
# Youngs Moduli (GPa) = 26.00870 46.97931 72.81282
#
# Poissons Ratio (x) = 0.70038 0.68673
# Poissons Ratio (y) = 0.38774 0.30974
# Poissons Ratio (z) = 0.24530 0.19985
#
# Static dielectric constant tensor:
#      x y z
#    x 1.518380 0.000000 0.000000 
#    y 0.000000 1.493670 0.000000 
#    z 0.000000 0.000000 1.510600 
# 
# From -- ./inp_files/18533.got.cif
#   From: 2010.05.17/outbox.cif.g08.bks.cpg/sg46_10_cif.got.tgz:18533.got - 2010.06.03 19:58:25.
