data_PCOD9378422
_publ_section_title
;
Structure prediction by ZEFSAII (Michael W. Deem and Ramdas Pophale) SiO2 
 PCOD9378422
Probable space group: I M A 2
;
_chemical_formula_sum "Si O2"
_cell_formula_units_Z 64
_cell_length_a 8.894813
_cell_length_b 18.692108
_cell_length_c 27.152112
_cell_angle_alpha 90.000000
_cell_angle_beta 90.000000
_cell_angle_gamma 90.000000
_cell_volume 4514.386309
_symmetry_space_group_name_H-M "I M A 2"
_symmetry_group_IT_number 46
_symmetry_cell_setting 'orthorhombic'
loop_
_space_group_symop_operation_xyz
x,y,z
-x,-y,z
1/2-x,y,z
1/2+x,-y,z
1/2+x,1/2+y,1/2+z
1/2-x,1/2-y,1/2+z
-x,1/2+y,1/2+z
x,1/2-y,1/2+z
loop_
_atom_site_type_symbol
_atom_site_label
_atom_site_fract_x
_atom_site_fract_y
_atom_site_fract_z
Si Si1 0.077387 0.800537 0.301420
Si Si2 0.930219 0.921422 0.841457
Si Si3 0.575963 0.297491 0.400201
Si Si4 0.071807 0.077741 0.358122
Si Si5 0.930405 0.829507 0.455039
Si Si6 0.569833 0.076821 0.653860
Si Si7 0.569124 0.421858 0.040448
Si Si8 0.067452 0.662939 0.249062
O O1 0.250000 0.821380 0.292196
O O2 0.074880 0.751037 0.350530
O O3 0.024849 0.745351 0.259520
O O4 0.982408 0.869934 0.314581
O O5 0.750000 0.924075 0.840606
O O6 0.988299 0.868947 0.884796
O O7 0.991534 0.886500 0.790611
O O8 0.000000 0.000000 0.846592
O O9 0.750000 0.312336 0.412177
O O10 0.497447 0.247776 0.440858
O O11 0.250000 0.071250 0.357007
O O12 0.030553 0.117234 0.409479
O O13 0.000000 0.000000 0.355557
O O14 0.750000 0.825826 0.458435
O O15 0.001549 0.863851 0.503532
O O16 0.750000 0.069889 0.655255
O O17 0.528900 0.094351 0.597461
O O18 0.526984 0.134029 0.695275
O O19 0.500000 0.000000 0.666334
O O20 0.500000 0.500000 0.028867
O O21 0.750000 0.424871 0.035864
O O22 0.250000 0.658625 0.255359
#
# Coordination Sequence:
#
# PCOD9378422 Si02
#       8
#     8   8   8   8   8   8   8   8
#     4   8  15  27  42  58  79 105 133 166 205 245
#     4  11  20  29  42  62  87 114 144 176 209 249
#     4   9  17  30  45  61  82 109 139 172 209 249
#     4  10  19  28  40  58  81 107 137 169 202 241
#     4  10  19  30  44  62  83 110 142 175 210 251
#     4   9  18  30  43  60  83 110 143 179 214 249
#     4  10  19  30  43  60  83 112 144 180 215 249
#     4   9  17  30  45  61  82 111 144 177 213 253
#
# _framework density 14.1769
#
# number of rings (size 3 to 8) (size 9 to 14) (size 15 to 20)
#    0.000    2.500    0.000    4.125    0.000    7.500 
#    0.000    0.000    0.000    0.000    0.000    0.000 
#    0.000    1.000    0.000    5.000    0.000    3.750 
#
# Total GULP energy -178344.769082 kJ/mol
# GULP energy per Si atom -5573.274034 kJ/mol
# Density = 1.414463 g / cm^3
# Si number density = 14.176900 Si / 1000 Ang^3
#
#
#
# Elastic Constant Matrix: (Units=GPa)
#
#
# Indices 1 2 3 4 5 6 
#
# 1 57.1745 45.9144 28.6441 0.0000 0.0000 0.0000
# 2 45.9144 97.8767 44.5095 0.0000 0.0000 0.0000
# 3 28.6441 44.5095 71.3683 0.0000 0.0000 0.0000
# 4 0.0000 0.0000 0.0000 28.0599 0.0000 0.0000
# 5 0.0000 0.0000 0.0000 0.0000 15.1112 0.0000
# 6 0.0000 0.0000 0.0000 0.0000 0.0000 25.1305
#
#
#
# Elastic Compliance Matrix: (Units=1/GPa)
#
#
# Indices 1 2 3 4 5 6 
#
# 1 0.029022 -0.011610 -0.004407 0.000000 0.000000 0.000000
# 2 -0.011610 0.018906 -0.007131 0.000000 0.000000 0.000000
# 3 -0.004407 -0.007131 0.020228 0.000000 0.000000 0.000000
# 4 0.000000 0.000000 0.000000 0.035638 0.000000 0.000000
# 5 0.000000 0.000000 0.000000 0.000000 0.066176 0.000000
# 6 0.000000 0.000000 0.000000 0.000000 0.000000 0.039792
#
#
# Mechanical properties :
#
#
# Convention : Reuss Voigt Hill
#
# Bulk Modulus (GPa) = 45.74787 51.61725 48.68256
# Shear Modulus (GPa) = 18.98638 20.81709 19.90173
#
# Velocity S-wave (km/s) = 3.66354 3.83610 3.75082
# Velocity P-wave (km/s) = 7.08765 7.49062 7.29192
#
# Compressibility (1/GPa) = 0.02185894
#
# Stress axis : x y z
#
# Youngs Moduli (GPa) = 34.45671 52.89273 49.43584
#
# Poissons Ratio (x) = 0.61409 0.21788
# Poissons Ratio (y) = 0.40004 0.35254
# Poissons Ratio (z) = 0.15187 0.37719
#
# Static dielectric constant tensor:
#      x y z
#    x 1.475220 0.000000 0.000000 
#    y 0.000000 1.455730 0.000000 
#    z 0.000000 0.000000 1.464780 
# 
# From -- ./inp_files/23275.got.cif
#   From: 2010.05.17/outbox.cif.g08.bks.cpg/sg46_12_cif.got.tgz:23275.got - 2010.06.03 19:58:25.
