data_PCOD9378314
_publ_section_title
;
Structure prediction by ZEFSAII (Michael W. Deem and Ramdas Pophale) SiO2 
 PCOD9378314
Probable space group: I M A 2
;
_chemical_formula_sum "Si O2"
_cell_formula_units_Z 64
_cell_length_a 14.921843
_cell_length_b 17.939513
_cell_length_c 11.782880
_cell_angle_alpha 90.000000
_cell_angle_beta 90.000000
_cell_angle_gamma 90.000000
_cell_volume 3154.166175
_symmetry_space_group_name_H-M "I M A 2"
_symmetry_group_IT_number 46
_symmetry_cell_setting 'orthorhombic'
loop_
_space_group_symop_operation_xyz
x,y,z
-x,-y,z
1/2-x,y,z
1/2+x,-y,z
1/2+x,1/2+y,1/2+z
1/2-x,1/2-y,1/2+z
-x,1/2+y,1/2+z
x,1/2-y,1/2+z
loop_
_atom_site_type_symbol
_atom_site_label
_atom_site_fract_x
_atom_site_fract_y
_atom_site_fract_z
Si Si1 0.431017 0.430800 0.132920
Si Si2 0.857864 0.386185 0.883288
Si Si3 0.404081 0.523745 0.551709
Si Si4 0.348005 0.535540 0.306926
Si Si5 0.646548 0.555081 0.892739
Si Si6 0.148887 0.128505 0.152236
Si Si7 0.943334 0.171882 0.166546
Si Si8 0.092708 0.660296 0.138468
O O1 0.500000 0.500000 0.124393
O O2 0.363473 0.464386 0.225041
O O3 0.489482 0.360436 0.167418
O O4 0.396522 0.416530 0.007575
O O5 0.750000 0.376355 0.862192
O O6 0.885639 0.472155 0.862459
O O7 0.921248 0.339343 0.799857
O O8 0.878195 0.369100 0.014767
O O9 0.500000 0.500000 0.599782
O O10 0.410240 0.534418 0.416497
O O11 0.348203 0.450859 0.585687
O O12 0.388386 0.604333 0.606685
O O13 0.250000 0.532338 0.357935
O O14 0.356451 0.610016 0.231377
O O15 0.750000 0.543383 0.921978
O O16 0.641436 0.607768 0.785099
O O17 0.250000 0.163378 0.134099
O O18 0.049956 0.166351 0.131246
O O19 0.901400 0.251516 0.137277
#
# Coordination Sequence:
#
# PCOD9378314 Si02
#       8
#     8   8   8   8   8   8   8   8
#     4  10  19  34  59  81 113 150 193 239 288 339
#     4  11  22  38  62  91 121 153 197 246 296 356
#     4  10  21  38  61  86 113 154 201 243 292 350
#     4  11  22  38  59  85 116 153 198 249 294 347
#     4  10  18  33  61  92 112 138 190 249 296 338
#     4  10  21  39  64  90 116 150 201 254 293 345
#     4  11  25  40  60  87 123 163 194 236 304 358
#     4  11  24  39  56  87 118 161 194 237 294 362
#
# _framework density 20.290623
#
# number of rings (size 3 to 8) (size 9 to 14) (size 15 to 20)
#    0.000    1.500    3.750    3.000    1.750    1.500 
#    0.000    1.250    0.000    0.750    0.000    0.000 
#    0.000    0.000    0.000    0.000    0.000    0.000 
#
# Total GULP energy -178225.767982 kJ/mol
# GULP energy per Si atom -5569.555249 kJ/mol
# Density = 2.024444 g / cm^3
# Si number density = 20.290623 Si / 1000 Ang^3
#
#
#
# Elastic Constant Matrix: (Units=GPa)
#
#
# Indices 1 2 3 4 5 6 
#
# 1 65.9808 3.3608 -0.2336 0.0000 0.0000 0.0000
# 2 3.3608 44.0824 0.6144 0.0000 0.0000 0.0000
# 3 -0.2336 0.6144 69.1226 0.0000 0.0000 0.0000
# 4 0.0000 0.0000 0.0000 9.8574 0.0000 0.0000
# 5 0.0000 0.0000 0.0000 0.0000 84.5489 0.0000
# 6 0.0000 0.0000 0.0000 0.0000 0.0000 3.2517
#
#
#
# Elastic Compliance Matrix: (Units=1/GPa)
#
#
# Indices 1 2 3 4 5 6 
#
# 1 0.015215 -0.001161 0.000062 0.000000 0.000000 0.000000
# 2 -0.001161 0.022776 -0.000206 0.000000 0.000000 0.000000
# 3 0.000062 -0.000206 0.014469 0.000000 0.000000 0.000000
# 4 0.000000 0.000000 0.000000 0.101447 0.000000 0.000000
# 5 0.000000 0.000000 0.000000 0.000000 0.011827 0.000000
# 6 0.000000 0.000000 0.000000 0.000000 0.000000 0.307527
#
#
# Mechanical properties :
#
#
# Convention : Reuss Voigt Hill
#
# Bulk Modulus (GPa) = 20.06039 20.74103 20.40071
# Shear Modulus (GPa) = 10.15249 31.22789 20.69019
#
# Velocity S-wave (km/s) = 2.23929 3.92730 3.19673
# Velocity P-wave (km/s) = 4.07356 5.55060 4.86842
#
# Compressibility (1/GPa) = 0.04984948
#
# Stress axis : x y z
#
# Youngs Moduli (GPa) = 65.72347 43.90555 69.11287
#
# Poissons Ratio (x) = 0.05097 -0.00427
# Poissons Ratio (y) = 0.07630 0.01426
# Poissons Ratio (z) = -0.00406 0.00906
#
# Static dielectric constant tensor:
#      x y z
#    x 1.773480 0.000000 0.000000 
#    y 0.000000 1.752430 0.000000 
#    z 0.000000 0.000000 1.711910 
# 
# From -- ./inp_files/11310.got.cif
#   From: 2010.05.17/outbox.cif.g08.bks.cpg/sg46_6_cif.got.tgz:11310.got - 2010.06.03 19:58:25.
