data_PCOD9378127
_publ_section_title
;
Structure prediction by ZEFSAII (Michael W. Deem and Ramdas Pophale) SiO2 
 PCOD9378127
Probable space group: I M A 2
;
_chemical_formula_sum "Si O2"
_cell_formula_units_Z 40
_cell_length_a 8.902488
_cell_length_b 21.387713
_cell_length_c 12.880628
_cell_angle_alpha 90.000000
_cell_angle_beta 90.000000
_cell_angle_gamma 90.000000
_cell_volume 2452.521269
_symmetry_space_group_name_H-M "I M A 2"
_symmetry_group_IT_number 46
_symmetry_cell_setting 'orthorhombic'
loop_
_space_group_symop_operation_xyz
x,y,z
-x,-y,z
1/2-x,y,z
1/2+x,-y,z
1/2+x,1/2+y,1/2+z
1/2-x,1/2-y,1/2+z
-x,1/2+y,1/2+z
x,1/2-y,1/2+z
loop_
_atom_site_type_symbol
_atom_site_label
_atom_site_fract_x
_atom_site_fract_y
_atom_site_fract_z
Si Si1 0.428558 0.801189 0.271870
Si Si2 0.430029 0.431586 0.162044
Si Si3 0.429087 0.169361 0.833337
Si Si4 0.571328 0.703770 0.560998
Si Si5 0.569934 0.162795 0.500914
O O1 0.250000 0.800981 0.258183
O O2 0.485104 0.730398 0.292122
O O3 0.507124 0.824002 0.167088
O O4 0.464532 0.838190 0.377805
O O5 0.500000 0.500000 0.167440
O O6 0.250000 0.435226 0.153695
O O7 0.467435 0.390471 0.264340
O O8 0.496214 0.392857 0.065306
O O9 0.250000 0.180988 0.821384
O O10 0.459970 0.164752 0.956218
O O11 0.750000 0.712404 0.569934
O O12 0.495587 0.771531 0.542944
O O13 0.750000 0.162672 0.513734
#
# Coordination Sequence:
#
# PCOD9378127 Si02
#       5
#     8   8   8   8   8
#     4  10  19  30  49  76 106 134 164 209 260 304
#     4  11  22  36  54  75 102 138 174 213 255 303
#     4   9  19  33  49  72 101 134 172 208 251 304
#     4  10  18  30  50  75 104 134 166 209 258 309
#     4  10  20  33  49  74 104 134 172 213 255 303
#
# _framework density 16.309747000000002
#
# number of rings (size 3 to 8) (size 9 to 14) (size 15 to 20)
#    0.000    2.000    2.000    2.400    0.000    4.000 
#    0.000    0.000    0.000    1.200    0.000    5.600 
#    0.000    0.000    0.000    0.000    0.000    0.000 
#
# Total GULP energy -111582.995429 kJ/mol
# GULP energy per Si atom -5579.149771 kJ/mol
# Density = 1.627263 g / cm^3
# Si number density = 16.309747 Si / 1000 Ang^3
#
#
#
# Elastic Constant Matrix: (Units=GPa)
#
#
# Indices 1 2 3 4 5 6 
#
# 1 63.9342 44.4082 69.5485 0.0000 0.0000 0.0000
# 2 44.4082 95.8039 66.3304 0.0000 0.0000 0.0000
# 3 69.5485 66.3304 169.8599 0.0000 0.0000 0.0000
# 4 0.0000 0.0000 0.0000 18.8642 0.0000 0.0000
# 5 0.0000 0.0000 0.0000 0.0000 30.1645 0.0000
# 6 0.0000 0.0000 0.0000 0.0000 0.0000 21.3575
#
#
#
# Elastic Compliance Matrix: (Units=1/GPa)
#
#
# Indices 1 2 3 4 5 6 
#
# 1 0.032050 -0.007909 -0.010034 0.000000 0.000000 0.000000
# 2 -0.007909 0.016257 -0.003110 0.000000 0.000000 0.000000
# 3 -0.010034 -0.003110 0.011210 0.000000 0.000000 0.000000
# 4 0.000000 0.000000 0.000000 0.053010 0.000000 0.000000
# 5 0.000000 0.000000 0.000000 0.000000 0.033152 0.000000
# 6 0.000000 0.000000 0.000000 0.000000 0.000000 0.046822
#
#
# Mechanical properties :
#
#
# Convention : Reuss Voigt Hill
#
# Bulk Modulus (GPa) = 57.43577 76.68580 67.06079
# Shear Modulus (GPa) = 20.79761 24.03130 22.41445
#
# Velocity S-wave (km/s) = 3.57482 3.84269 3.71117
# Velocity P-wave (km/s) = 7.23403 8.17367 7.71816
#
# Compressibility (1/GPa) = 0.01741075
#
# Stress axis : x y z
#
# Youngs Moduli (GPa) = 31.20125 61.51038 89.20373
#
# Poissons Ratio (x) = 0.48648 0.89510
# Poissons Ratio (y) = 0.24677 0.27745
# Poissons Ratio (z) = 0.31308 0.19131
#
# Static dielectric constant tensor:
#      x y z
#    x 1.543310 0.000000 0.000000 
#    y 0.000000 1.497340 0.000000 
#    z 0.000000 0.000000 1.587720 
# 
# From -- ./inp_files/9037.got.cif
#   From: 2010.05.17/outbox.cif.g08.bks.cpg/sg46_5_cif.got.tgz:9037.got - 2010.06.03 19:58:25.
