data_PCOD9378769
_publ_section_title
;
Structure prediction by ZEFSAII (Michael W. Deem and Ramdas Pophale) SiO2 
 PCOD9378769
Probable space group: I M A 2
;
_chemical_formula_sum "Si O2"
_cell_formula_units_Z 48
_cell_length_a 16.021617
_cell_length_b 9.157048
_cell_length_c 16.890805
_cell_angle_alpha 90.000000
_cell_angle_beta 90.000000
_cell_angle_gamma 90.000000
_cell_volume 2478.062094
_symmetry_space_group_name_H-M "I M A 2"
_symmetry_group_IT_number 46
_symmetry_cell_setting 'orthorhombic'
loop_
_space_group_symop_operation_xyz
x,y,z
-x,-y,z
1/2-x,y,z
1/2+x,-y,z
1/2+x,1/2+y,1/2+z
1/2-x,1/2-y,1/2+z
-x,1/2+y,1/2+z
x,1/2-y,1/2+z
loop_
_atom_site_type_symbol
_atom_site_label
_atom_site_fract_x
_atom_site_fract_y
_atom_site_fract_z
Si Si1 0.908219 0.072969 0.743260
Si Si2 0.594974 0.553651 0.578915
Si Si3 0.652949 0.828068 0.323689
Si Si4 0.651892 0.109610 0.234198
Si Si5 0.404699 0.445719 0.404755
Si Si6 0.343932 0.173693 0.651230
O O1 0.903942 0.245962 0.735992
O O2 0.867860 0.029298 0.828251
O O3 0.864040 0.993865 0.669456
O O4 0.000000 0.000000 0.743621
O O5 0.500000 0.500000 0.582109
O O6 0.642083 0.471399 0.649837
O O7 0.631502 0.526612 0.491561
O O8 0.598196 0.727030 0.596810
O O9 0.750000 0.830087 0.349081
O O10 0.601737 0.725703 0.382732
O O11 0.650310 0.746070 0.238680
O O12 0.626748 0.992380 0.301831
O O13 0.750000 0.146096 0.245079
O O14 0.500000 0.500000 0.409502
O O15 0.250000 0.190684 0.621717
#
# Coordination Sequence:
#
# PCOD9378769 Si02
#       6
#     8   8   8   8   8   8
#     4  10  19  34  55  79 107 141 180 221 267 320
#     4  10  19  33  53  77 106 142 181 223 267 317
#     4   8  16  31  52  74 100 135 176 217 263 315
#     4  10  20  35  55  82 110 141 181 225 268 320
#     4   9  19  34  52  77 107 139 179 220 266 320
#     4   9  17  31  50  73  99 134 176 218 262 314
#
# _framework density 19.369973999999999
#
# number of rings (size 3 to 8) (size 9 to 14) (size 15 to 20)
#    0.000    2.667    0.000    3.000    0.000    3.333 
#    0.000    1.667    0.000    8.000    0.000    0.000 
#    0.000    0.000    0.000    0.000    0.000    0.000 
#
# Total GULP energy -133661.214906 kJ/mol
# GULP energy per Si atom -5569.217288 kJ/mol
# Density = 1.932589 g / cm^3
# Si number density = 19.369974 Si / 1000 Ang^3
#
#
#
# Elastic Constant Matrix: (Units=GPa)
#
#
# Indices 1 2 3 4 5 6 
#
# 1 54.5145 33.1976 13.7165 0.0000 0.0000 0.0000
# 2 33.1976 145.3703 33.1976 0.0000 0.0000 0.0000
# 3 13.7165 33.1976 80.2089 0.0000 0.0000 0.0000
# 4 0.0000 0.0000 0.0000 8.9885 0.0000 0.0000
# 5 0.0000 0.0000 0.0000 0.0000 -18.1943 0.0000
# 6 0.0000 0.0000 0.0000 0.0000 0.0000 25.6128
#
#
#
# Elastic Compliance Matrix: (Units=1/GPa)
#
#
# Indices 1 2 3 4 5 6 
#
# 1 0.021545 -0.004504 -0.001820 0.000000 0.000000 0.000000
# 2 -0.004504 0.008539 -0.002764 0.000000 0.000000 0.000000
# 3 -0.001820 -0.002764 0.013923 0.000000 0.000000 0.000000
# 4 0.000000 0.000000 0.000000 0.111254 0.000000 0.000000
# 5 0.000000 0.000000 0.000000 0.000000 -0.054962 0.000000
# 6 0.000000 0.000000 0.000000 0.000000 0.000000 0.039043
#
#
# Mechanical properties :
#
#
# Convention : Reuss Voigt Hill
#
# Bulk Modulus (GPa) = 38.71529 48.92411 43.81970
# Shear Modulus (GPa) = 30.09748 16.61353 23.35551
#
# Velocity S-wave (km/s) = 3.94613 2.93182 3.47617
# Velocity P-wave (km/s) = 6.38696 6.06410 6.22762
#
# Compressibility (1/GPa) = 0.02582959
#
# Stress axis : x y z
#
# Youngs Moduli (GPa) = 46.41504 117.11241 71.82574
#
# Poissons Ratio (x) = 0.52753 0.13072
# Poissons Ratio (y) = 0.20907 0.19851
# Poissons Ratio (z) = 0.08448 0.32368
#
# Static dielectric constant tensor:
#      x y z
#    x 1.715430 0.000000 0.000000 
#    y 0.000000 1.710110 0.000000 
#    z 0.000000 0.000000 1.696760 
# 
# From -- ./inp_files/19418.got.cif
#   From: 2010.05.17/outbox.cif.g08.bks.cpg/sg46_10_cif.got.tgz:19418.got - 2010.06.03 19:58:25.
