data_PCOD9378036
_publ_section_title
;
Structure prediction by ZEFSAII (Michael W. Deem and Ramdas Pophale) SiO2 
 PCOD9378036
Probable space group: I M A 2
;
_chemical_formula_sum "Si O2"
_cell_formula_units_Z 64
_cell_length_a 7.645556
_cell_length_b 19.340764
_cell_length_c 22.514190
_cell_angle_alpha 90.000000
_cell_angle_beta 90.000000
_cell_angle_gamma 90.000000
_cell_volume 3329.193408
_symmetry_space_group_name_H-M "I M A 2"
_symmetry_group_IT_number 46
_symmetry_cell_setting 'orthorhombic'
loop_
_space_group_symop_operation_xyz
x,y,z
-x,-y,z
1/2-x,y,z
1/2+x,-y,z
1/2+x,1/2+y,1/2+z
1/2-x,1/2-y,1/2+z
-x,1/2+y,1/2+z
x,1/2-y,1/2+z
loop_
_atom_site_type_symbol
_atom_site_label
_atom_site_fract_x
_atom_site_fract_y
_atom_site_fract_z
Si Si1 0.541165 0.576056 0.833010
Si Si2 0.958391 0.726258 0.255547
Si Si3 0.964898 0.779710 0.383511
Si Si4 0.956082 0.074802 0.752463
Si Si5 0.960725 0.579134 0.578198
Si Si6 0.459297 0.924495 0.887552
Si Si7 0.036199 0.127652 0.206623
Si Si8 0.947667 0.815106 0.981509
O O1 0.500000 0.500000 0.855395
O O2 0.750000 0.582576 0.830345
O O3 0.480234 0.641622 0.870998
O O4 0.476886 0.586526 0.765266
O O5 0.750000 0.732344 0.259288
O O6 0.022214 0.737169 0.324024
O O7 0.018414 0.792534 0.217537
O O8 0.996108 0.650720 0.228915
O O9 0.750000 0.776540 0.385163
O O10 0.028736 0.749784 0.446434
O O11 0.750000 0.074538 0.757713
O O12 0.028526 0.075094 0.819949
O O13 0.000000 0.000000 0.724478
O O14 0.750000 0.584777 0.576789
O O15 0.023524 0.594918 0.644999
O O16 0.029116 0.639408 0.534295
O O17 0.000000 0.500000 0.561382
O O18 0.250000 0.912336 0.888708
O O19 0.500000 0.000000 0.912372
O O20 0.555211 0.869053 0.927113
O O21 0.250000 0.126425 0.205423
O O22 0.750000 0.795995 0.000009
#
# Coordination Sequence:
#
# PCOD9378036 Si02
#       8
#     8   8   8   8   8   8   8   8
#     4   9  16  28  46  66  88 113 141 177 222 271
#     4   9  15  28  48  63  83 115 150 187 225 268
#     4   8  15  27  43  62  84 113 146 178 221 269
#     4  10  19  28  40  62  90 117 146 181 222 269
#     4  10  20  32  46  66  92 121 157 190 218 257
#     4  10  19  28  39  57  84 117 149 181 214 257
#     4   8  16  30  47  66  88 118 151 183 222 267
#     4  10  18  29  45  62  85 118 154 189 218 256
#
# _framework density 19.223875
#
# number of rings (size 3 to 8) (size 9 to 14) (size 15 to 20)
#    0.000    2.750    1.250    3.000    0.000    2.500 
#    0.000    3.750    0.000    0.000    0.000    0.875 
#    0.000    2.000    0.000    0.000    0.000    0.000 
#
# Total GULP energy -178229.907494 kJ/mol
# GULP energy per Si atom -5569.684609 kJ/mol
# Density = 1.918012 g / cm^3
# Si number density = 19.223875 Si / 1000 Ang^3
#
#
#
# Elastic Constant Matrix: (Units=GPa)
#
#
# Indices 1 2 3 4 5 6 
#
# 1 43.6134 -3.0826 2.2615 0.0000 0.0000 0.0000
# 2 -3.0826 143.9345 38.8564 0.0000 0.0000 0.0000
# 3 2.2615 38.8564 69.4492 0.0000 0.0000 0.0000
# 4 0.0000 0.0000 0.0000 24.0923 0.0000 0.0000
# 5 0.0000 0.0000 0.0000 0.0000 3.3332 0.0000
# 6 0.0000 0.0000 0.0000 0.0000 0.0000 20.3737
#
#
#
# Elastic Compliance Matrix: (Units=1/GPa)
#
#
# Indices 1 2 3 4 5 6 
#
# 1 0.023049 0.000820 -0.001209 0.000000 0.000000 0.000000
# 2 0.000820 0.008213 -0.004622 0.000000 0.000000 0.000000
# 3 -0.001209 -0.004622 0.017024 0.000000 0.000000 0.000000
# 4 0.000000 0.000000 0.000000 0.041507 0.000000 0.000000
# 5 0.000000 0.000000 0.000000 0.000000 0.300010 0.000000
# 6 0.000000 0.000000 0.000000 0.000000 0.000000 0.049083
#
#
# Mechanical properties :
#
#
# Convention : Reuss Voigt Hill
#
# Bulk Modulus (GPa) = 26.13393 37.00751 31.57072
# Shear Modulus (GPa) = 10.83040 24.15729 17.49385
#
# Velocity S-wave (km/s) = 2.37614 3.54874 3.01990
# Velocity P-wave (km/s) = 4.59914 6.00700 5.34959
#
# Compressibility (1/GPa) = 0.03826443
#
# Stress axis : x y z
#
# Youngs Moduli (GPa) = 43.38500 121.76039 58.73982
#
# Poissons Ratio (x) = -0.09986 0.07104
# Poissons Ratio (y) = -0.03558 0.27148
# Poissons Ratio (z) = 0.05247 0.56275
#
# Static dielectric constant tensor:
#      x y z
#    x 1.775820 0.000000 0.000000 
#    y 0.000000 1.773550 0.000000 
#    z 0.000000 0.000000 1.676940 
# 
# From -- ./inp_files/21459.got.cif
#   From: 2010.05.17/outbox.cif.g08.bks.cpg/sg46_11_cif.got.tgz:21459.got - 2010.06.03 19:58:25.
