data_PCOD9378183
_publ_section_title
;
Structure prediction by ZEFSAII (Michael W. Deem and Ramdas Pophale) SiO2 
 PCOD9378183
Probable space group: I M A 2
;
_chemical_formula_sum "Si O2"
_cell_formula_units_Z 64
_cell_length_a 8.431362
_cell_length_b 16.529982
_cell_length_c 23.021491
_cell_angle_alpha 90.000000
_cell_angle_beta 90.000000
_cell_angle_gamma 90.000000
_cell_volume 3208.511234
_symmetry_space_group_name_H-M "I M A 2"
_symmetry_group_IT_number 46
_symmetry_cell_setting 'orthorhombic'
loop_
_space_group_symop_operation_xyz
x,y,z
-x,-y,z
1/2-x,y,z
1/2+x,-y,z
1/2+x,1/2+y,1/2+z
1/2-x,1/2-y,1/2+z
-x,1/2+y,1/2+z
x,1/2-y,1/2+z
loop_
_atom_site_type_symbol
_atom_site_label
_atom_site_fract_x
_atom_site_fract_y
_atom_site_fract_z
Si Si1 0.560740 0.087970 0.584610
Si Si2 0.432045 0.201675 0.920279
Si Si3 0.934226 0.415843 0.830161
Si Si4 0.940793 0.742554 0.297270
Si Si5 0.057960 0.083748 0.016182
Si Si6 0.936852 0.088734 0.146884
Si Si7 0.569129 0.888614 0.454311
Si Si8 0.059494 0.229924 0.670010
O O1 0.750000 0.086755 0.583007
O O2 0.495663 0.095510 0.518497
O O3 0.506723 0.165718 0.623029
O O4 0.500000 0.000000 0.606935
O O5 0.250000 0.172107 0.914214
O O6 0.505620 0.201689 0.856152
O O7 0.424937 0.292946 0.942837
O O8 0.502653 0.151194 0.972295
O O9 0.750000 0.408918 0.818294
O O10 0.000000 0.500000 0.806680
O O11 0.018747 0.337394 0.803904
O O12 0.965471 0.416899 0.899669
O O13 0.750000 0.736964 0.299251
O O14 0.992858 0.707442 0.235674
O O15 0.250000 0.087268 0.024497
O O16 0.974892 0.089462 0.078217
O O17 0.000000 0.000000 0.989725
O O18 0.750000 0.091018 0.158419
O O19 0.010724 0.175190 0.165441
O O20 0.000000 0.000000 0.167546
O O21 0.750000 0.920174 0.449395
O O22 0.250000 0.226624 0.665402
#
# Coordination Sequence:
#
# PCOD9378183 Si02
#       8
#     8   8   8   8   8   8   8   8
#     4  12  25  41  61  87 118 153 197 245 296 352
#     4   8  16  32  55  79 105 140 178 220 272 332
#     4  11  21  34  54  82 116 149 183 225 278 339
#     4   9  20  39  59  78 104 143 190 234 279 335
#     4  10  18  31  52  79 111 142 177 222 277 337
#     4  11  22  37  58  86 120 154 192 236 286 348
#     4  10  19  35  58  84 114 147 186 231 285 345
#     4  11  23  41  63  85 114 154 198 245 296 348
#
# _framework density 19.946947000000002
#
# number of rings (size 3 to 8) (size 9 to 14) (size 15 to 20)
#    0.000    1.750    0.000    7.125    0.000    2.500 
#    0.000    6.250    0.000    1.500    0.000    0.000 
#    0.000    0.000    0.000    0.000    0.000    0.000 
#
# Total GULP energy -178481.994049 kJ/mol
# GULP energy per Si atom -5577.562314 kJ/mol
# Density = 1.990155 g / cm^3
# Si number density = 19.946947 Si / 1000 Ang^3
#
#
#
# Elastic Constant Matrix: (Units=GPa)
#
#
# Indices 1 2 3 4 5 6 
#
# 1 57.8293 9.6467 11.6935 0.0000 0.0000 0.0000
# 2 9.6467 59.6187 34.6807 0.0000 0.0000 0.0000
# 3 11.6935 34.6807 103.8349 0.0000 0.0000 0.0000
# 4 0.0000 0.0000 0.0000 26.8475 0.0000 0.0000
# 5 0.0000 0.0000 0.0000 0.0000 7.2963 0.0000
# 6 0.0000 0.0000 0.0000 0.0000 0.0000 29.8916
#
#
#
# Elastic Compliance Matrix: (Units=1/GPa)
#
#
# Indices 1 2 3 4 5 6 
#
# 1 0.017913 -0.002141 -0.001302 0.000000 0.000000 0.000000
# 2 -0.002141 0.021074 -0.006798 0.000000 0.000000 0.000000
# 3 -0.001302 -0.006798 0.012048 0.000000 0.000000 0.000000
# 4 0.000000 0.000000 0.000000 0.037247 0.000000 0.000000
# 5 0.000000 0.000000 0.000000 0.000000 0.137056 0.000000
# 6 0.000000 0.000000 0.000000 0.000000 0.000000 0.033454
#
#
# Mechanical properties :
#
#
# Convention : Reuss Voigt Hill
#
# Bulk Modulus (GPa) = 32.73004 37.03609 34.88307
# Shear Modulus (GPa) = 17.27367 23.82452 20.54910
#
# Velocity S-wave (km/s) = 2.94595 3.45975 3.21314
# Velocity P-wave (km/s) = 5.29298 5.87941 5.59388
#
# Compressibility (1/GPa) = 0.03055297
#
# Stress axis : x y z
#
# Youngs Moduli (GPa) = 55.82629 47.45218 83.00344
#
# Poissons Ratio (x) = 0.10159 0.10809
# Poissons Ratio (y) = 0.11952 0.56422
# Poissons Ratio (z) = 0.07270 0.32256
#
# Static dielectric constant tensor:
#      x y z
#    x 1.730720 0.000000 0.000000 
#    y 0.000000 1.705220 0.000000 
#    z 0.000000 0.000000 1.743190 
# 
# From -- ./inp_files/23191.got.cif
#   From: 2010.05.17/outbox.cif.g08.bks.cpg/sg46_12_cif.got.tgz:23191.got - 2010.06.03 19:58:25.
