data_PCOD9378245
_publ_section_title
;
Structure prediction by ZEFSAII (Michael W. Deem and Ramdas Pophale) SiO2 
 PCOD9378245
Probable space group: I M A 2
;
_chemical_formula_sum "Si O2"
_cell_formula_units_Z 48
_cell_length_a 8.593929
_cell_length_b 9.555567
_cell_length_c 31.916147
_cell_angle_alpha 90.000000
_cell_angle_beta 90.000000
_cell_angle_gamma 90.000000
_cell_volume 2620.949662
_symmetry_space_group_name_H-M "I M A 2"
_symmetry_group_IT_number 46
_symmetry_cell_setting 'orthorhombic'
loop_
_space_group_symop_operation_xyz
x,y,z
-x,-y,z
1/2-x,y,z
1/2+x,-y,z
1/2+x,1/2+y,1/2+z
1/2-x,1/2-y,1/2+z
-x,1/2+y,1/2+z
x,1/2-y,1/2+z
loop_
_atom_site_type_symbol
_atom_site_label
_atom_site_fract_x
_atom_site_fract_y
_atom_site_fract_z
Si Si1 0.437272 0.843344 0.737630
Si Si2 0.063882 0.341153 0.987714
Si Si3 0.435509 0.342234 0.812582
Si Si4 0.437163 0.655709 0.142463
Si Si5 0.564009 0.159286 0.399691
Si Si6 0.062468 0.657297 0.564143
O O1 0.250000 0.841300 0.740711
O O2 0.509466 0.744125 0.772543
O O3 0.482489 0.803302 0.689883
O O4 0.500000 0.000000 0.744078
O O5 0.250000 0.346569 0.987118
O O6 0.000000 0.500000 0.992534
O O7 0.002218 0.282308 0.943181
O O8 0.002926 0.246610 0.025448
O O9 0.500000 0.500000 0.808749
O O10 0.250000 0.346713 0.815495
O O11 0.503424 0.278950 0.855940
O O12 0.500000 0.500000 0.133858
O O13 0.250000 0.648252 0.141541
O O14 0.487116 0.764264 0.106956
O O15 0.750000 0.158201 0.400520
O O16 0.500000 0.000000 0.399186
O O17 0.250000 0.656517 0.562283
O O18 0.000000 0.500000 0.563058
#
# Coordination Sequence:
#
# PCOD9378245 Si02
#       6
#     8   8   8   8   8   8
#     4  10  20  37  57  82 112 146 184 227 274 326
#     4  11  21  36  58  84 111 145 185 228 271 323
#     4  11  21  35  55  82 113 148 185 228 275 325
#     4   9  20  37  59  82 108 141 184 228 271 323
#     4  10  18  32  54  81 110 143 182 228 271 319
#     4  11  23  39  56  81 113 147 182 225 277 330
#
# _framework density 18.313972
#
# number of rings (size 3 to 8) (size 9 to 14) (size 15 to 20)
#    0.000    1.667    0.000    8.000    0.000    4.000 
#    0.000    2.500    0.000    0.000    0.000    0.000 
#    0.000    0.000    0.000    0.000    0.000    0.000 
#
# Total GULP energy -134035.929970 kJ/mol
# GULP energy per Si atom -5584.830415 kJ/mol
# Density = 1.827229 g / cm^3
# Si number density = 18.313972 Si / 1000 Ang^3
#
#
#
# Elastic Constant Matrix: (Units=GPa)
#
#
# Indices 1 2 3 4 5 6 
#
# 1 140.4338 44.2652 74.2815 0.0000 0.0000 0.0000
# 2 44.2652 86.3021 101.2339 0.0000 0.0000 0.0000
# 3 74.2815 101.2339 200.0059 0.0000 0.0000 0.0000
# 4 0.0000 0.0000 0.0000 24.9572 0.0000 0.0000
# 5 0.0000 0.0000 0.0000 0.0000 33.9565 0.0000
# 6 0.0000 0.0000 0.0000 0.0000 0.0000 29.6526
#
#
#
# Elastic Compliance Matrix: (Units=1/GPa)
#
#
# Indices 1 2 3 4 5 6 
#
# 1 0.008962 -0.001704 -0.002466 0.000000 0.000000 0.000000
# 2 -0.001704 0.028845 -0.013967 0.000000 0.000000 0.000000
# 3 -0.002466 -0.013967 0.012985 0.000000 0.000000 0.000000
# 4 0.000000 0.000000 0.000000 0.040069 0.000000 0.000000
# 5 0.000000 0.000000 0.000000 0.000000 0.029449 0.000000
# 6 0.000000 0.000000 0.000000 0.000000 0.000000 0.033724
#
#
# Mechanical properties :
#
#
# Convention : Reuss Voigt Hill
#
# Bulk Modulus (GPa) = 68.88037 96.25591 82.56814
# Shear Modulus (GPa) = 25.62157 31.51066 28.56612
#
# Velocity S-wave (km/s) = 3.74440 4.15249 3.95371
# Velocity P-wave (km/s) = 7.50910 8.69849 8.12558
#
# Compressibility (1/GPa) = 0.01451793
#
# Stress axis : x y z
#
# Youngs Moduli (GPa) = 111.57803 34.66820 77.01088
#
# Poissons Ratio (x) = 0.05908 0.18991
# Poissons Ratio (y) = 0.19016 1.07561
# Poissons Ratio (z) = 0.27515 0.48421
#
# Static dielectric constant tensor:
#      x y z
#    x 1.610890 0.000000 0.000000 
#    y 0.000000 1.629620 0.000000 
#    z 0.000000 0.000000 1.662140 
# 
# From -- ./inp_files/24993.got.cif
#   From: 2010.05.17/outbox.cif.g08.bks.cpg/sg46_13_cif.got.tgz:24993.got - 2010.06.03 19:58:25.
