data_PCOD9378444
_publ_section_title
;
Structure prediction by ZEFSAII (Michael W. Deem and Ramdas Pophale) SiO2 
 PCOD9378444
Probable space group: I M A 2
;
_chemical_formula_sum "Si O2"
_cell_formula_units_Z 56
_cell_length_a 8.662033
_cell_length_b 18.937600
_cell_length_c 21.550261
_cell_angle_alpha 90.000000
_cell_angle_beta 90.000000
_cell_angle_gamma 90.000000
_cell_volume 3535.064217
_symmetry_space_group_name_H-M "I M A 2"
_symmetry_group_IT_number 46
_symmetry_cell_setting 'orthorhombic'
loop_
_space_group_symop_operation_xyz
x,y,z
-x,-y,z
1/2-x,y,z
1/2+x,-y,z
1/2+x,1/2+y,1/2+z
1/2-x,1/2-y,1/2+z
-x,1/2+y,1/2+z
x,1/2-y,1/2+z
loop_
_atom_site_type_symbol
_atom_site_label
_atom_site_fract_x
_atom_site_fract_y
_atom_site_fract_z
Si Si1 0.436390 0.920984 0.162640
Si Si2 0.063392 0.846030 0.289403
Si Si3 0.064995 0.217539 0.472871
Si Si4 0.564343 0.344038 0.535521
Si Si5 0.566060 0.206547 0.850592
Si Si6 0.433803 0.422020 0.413199
Si Si7 0.066054 0.422738 0.911751
O O1 0.250000 0.923933 0.163445
O O2 0.486694 0.879438 0.224432
O O3 0.481900 0.880758 0.099742
O O4 0.500000 0.000000 0.163037
O O5 0.250000 0.849327 0.293145
O O6 0.020603 0.763411 0.298131
O O7 0.998006 0.890833 0.347115
O O8 0.250000 0.226777 0.467730
O O9 0.030051 0.134654 0.465604
O O10 0.002358 0.264841 0.528876
O O11 0.982433 0.252531 0.413366
O O12 0.750000 0.341916 0.531363
O O13 0.500872 0.389517 0.477428
O O14 0.750000 0.196219 0.849127
O O15 0.484754 0.131314 0.858315
O O16 0.500000 0.500000 0.404362
O O17 0.250000 0.423671 0.417714
O O18 0.250000 0.426917 0.906266
O O19 0.000000 0.500000 0.923067
#
# Coordination Sequence:
#
# PCOD9378444 Si02
#       7
#     8   8   8   8   8   8   8
#     4  10  21  33  45  65  91 121 154 184 213 250
#     4   9  18  32  47  64  90 121 151 182 216 258
#     4   9  17  29  44  63  87 114 146 183 222 264
#     4  10  19  31  46  64  89 120 153 184 218 260
#     4   9  16  28  46  65  86 114 146 180 221 265
#     4  11  20  30  45  66  92 117 146 183 224 266
#     4  10  19  29  44  67  92 117 146 182 223 265
#
# _framework density 15.841298
#
# number of rings (size 3 to 8) (size 9 to 14) (size 15 to 20)
#    0.000    2.286    0.000    5.571    0.000    6.286 
#    0.000    0.000    0.000    0.000    0.000    1.000 
#    0.000    2.286    0.000    0.000    0.000    0.000 
#
# Total GULP energy -156032.790173 kJ/mol
# GULP energy per Si atom -5572.599649 kJ/mol
# Density = 1.580524 g / cm^3
# Si number density = 15.841298 Si / 1000 Ang^3
#
#
#
# Elastic Constant Matrix: (Units=GPa)
#
#
# Indices 1 2 3 4 5 6 
#
# 1 51.8424 45.2174 23.7564 0.0000 0.0000 0.0000
# 2 45.2174 167.5954 68.8387 0.0000 0.0000 0.0000
# 3 23.7564 68.8387 78.1470 0.0000 0.0000 0.0000
# 4 0.0000 0.0000 0.0000 25.0509 0.0000 0.0000
# 5 0.0000 0.0000 0.0000 0.0000 0.3982 0.0000
# 6 0.0000 0.0000 0.0000 0.0000 0.0000 -7.4888
#
#
#
# Elastic Compliance Matrix: (Units=1/GPa)
#
#
# Indices 1 2 3 4 5 6 
#
# 1 0.025573 -0.005808 -0.002658 0.000000 0.000000 0.000000
# 2 -0.005808 0.010669 -0.007632 0.000000 0.000000 0.000000
# 3 -0.002658 -0.007632 0.020328 0.000000 0.000000 0.000000
# 4 0.000000 0.000000 0.000000 0.039919 0.000000 0.000000
# 5 0.000000 0.000000 0.000000 0.000000 2.511131 0.000000
# 6 0.000000 0.000000 0.000000 0.000000 0.000000 -0.133533
#
#
# Mechanical properties :
#
#
# Convention : Reuss Voigt Hill
#
# Bulk Modulus (GPa) = 41.02928 63.68997 52.35963
# Shear Modulus (GPa) = 1.98854 14.24355 8.11604
#
# Velocity S-wave (km/s) = 1.12161 3.00182 2.26594
# Velocity P-wave (km/s) = 5.25678 7.23235 6.32221
#
# Compressibility (1/GPa) = 0.02437284
#
# Stress axis : x y z
#
# Youngs Moduli (GPa) = 39.10394 93.73277 49.19409
#
# Poissons Ratio (x) = 0.54438 0.13076
# Poissons Ratio (y) = 0.22711 0.37546
# Poissons Ratio (z) = 0.10394 0.71540
#
# Static dielectric constant tensor:
#      x y z
#    x 1.556550 0.000000 0.000000 
#    y 0.000000 1.558600 0.000000 
#    z 0.000000 0.000000 1.522890 
# 
# From -- ./inp_files/23250.got.cif
#   From: 2010.05.17/outbox.cif.g08.bks.cpg/sg46_12_cif.got.tgz:23250.got - 2010.06.03 19:58:25.
