data_PCOD9378813
_publ_section_title
;
Structure prediction by ZEFSAII (Michael W. Deem and Ramdas Pophale) SiO2 
 PCOD9378813
Probable space group: I M A 2
;
_chemical_formula_sum "Si O2"
_cell_formula_units_Z 64
_cell_length_a 19.368570
_cell_length_b 10.158646
_cell_length_c 15.757893
_cell_angle_alpha 90.000000
_cell_angle_beta 90.000000
_cell_angle_gamma 90.000000
_cell_volume 3100.498541
_symmetry_space_group_name_H-M "I M A 2"
_symmetry_group_IT_number 46
_symmetry_cell_setting 'orthorhombic'
loop_
_space_group_symop_operation_xyz
x,y,z
-x,-y,z
1/2-x,y,z
1/2+x,-y,z
1/2+x,1/2+y,1/2+z
1/2-x,1/2-y,1/2+z
-x,1/2+y,1/2+z
x,1/2-y,1/2+z
loop_
_atom_site_type_symbol
_atom_site_label
_atom_site_fract_x
_atom_site_fract_y
_atom_site_fract_z
Si Si1 0.563620 0.073425 0.534960
Si Si2 0.170572 0.706420 0.536522
Si Si3 0.331213 0.089831 0.011501
Si Si4 0.175488 0.733439 0.833886
Si Si5 0.674505 0.879984 0.554566
Si Si6 0.028336 0.636908 0.847190
Si Si7 0.441074 0.392240 0.358961
Si Si8 0.824102 0.990697 0.742431
O O1 0.612383 0.191687 0.569703
O O2 0.530979 0.131838 0.449881
O O3 0.500000 0.000000 0.583199
O O4 0.615639 0.957513 0.505311
O O5 0.250000 0.738828 0.563159
O O6 0.155956 0.552528 0.554274
O O7 0.170029 0.718525 0.432698
O O8 0.250000 0.082061 0.983137
O O9 0.387257 0.111402 0.937395
O O10 0.336618 0.224380 0.065285
O O11 0.250000 0.665478 0.825697
O O12 0.106445 0.654830 0.816657
O O13 0.175659 0.857987 0.771364
O O14 0.750000 0.897809 0.514287
O O15 0.674508 0.954162 0.644240
O O16 0.000000 0.500000 0.814437
O O17 0.979797 0.760322 0.831493
O O18 0.500000 0.500000 0.377522
O O19 0.392241 0.433363 0.282536
O O20 0.750000 0.936958 0.775210
#
# Coordination Sequence:
#
# PCOD9378813 Si02
#       8
#     8   8   8   8   8   8   8   8
#     4  10  19  34  50  79 115 148 183 235 284 346
#     4   9  16  29  54  81 108 143 190 239 289 337
#     4  10  19  33  54  85 115 145 189 245 297 348
#     4   9  16  32  55  81 109 149 198 243 281 338
#     4  10  22  37  57  82 115 152 191 240 294 349
#     4  10  20  33  52  84 118 144 183 245 296 346
#     4  12  20  34  59  86 111 152 199 240 293 339
#     4  10  20  37  59  85 113 150 203 245 280 345
#
# _framework density 20.641842
#
# number of rings (size 3 to 8) (size 9 to 14) (size 15 to 20)
#    0.000    2.000    2.500    3.000    0.000    1.000 
#    0.000    1.250    2.750    0.750    0.000    0.000 
#    0.000    0.000    0.000    0.000    0.000    0.000 
#
# Total GULP energy -178307.030988 kJ/mol
# GULP energy per Si atom -5572.094718 kJ/mol
# Density = 2.059486 g / cm^3
# Si number density = 20.641842 Si / 1000 Ang^3
#
#
#
# Elastic Constant Matrix: (Units=GPa)
#
#
# Indices 1 2 3 4 5 6 
#
# 1 148.3902 62.7402 9.4755 0.0000 0.0000 0.0000
# 2 62.7402 117.3467 -1.0437 0.0000 0.0000 0.0000
# 3 9.4755 -1.0437 20.9333 0.0000 0.0000 0.0000
# 4 0.0000 0.0000 0.0000 11.6670 0.0000 0.0000
# 5 0.0000 0.0000 0.0000 0.0000 11.1216 0.0000
# 6 0.0000 0.0000 0.0000 0.0000 0.0000 27.4937
#
#
#
# Elastic Compliance Matrix: (Units=1/GPa)
#
#
# Indices 1 2 3 4 5 6 
#
# 1 0.009088 -0.004898 -0.004358 0.000000 0.000000 0.000000
# 2 -0.004898 0.011165 0.002774 0.000000 0.000000 0.000000
# 3 -0.004358 0.002774 0.049882 0.000000 0.000000 0.000000
# 4 0.000000 0.000000 0.000000 0.085712 0.000000 0.000000
# 5 0.000000 0.000000 0.000000 0.000000 0.089915 0.000000
# 6 0.000000 0.000000 0.000000 0.000000 0.000000 0.036372
#
#
# Mechanical properties :
#
#
# Convention : Reuss Voigt Hill
#
# Bulk Modulus (GPa) = 17.49144 47.66826 32.57985
# Shear Modulus (GPa) = 15.91571 24.42298 20.16935
#
# Velocity S-wave (km/s) = 2.77978 3.44347 3.12927
# Velocity P-wave (km/s) = 4.33533 6.24124 5.37346
#
# Compressibility (1/GPa) = 0.05717081
#
# Stress axis : x y z
#
# Youngs Moduli (GPa) = 110.03437 89.56522 20.04739
#
# Poissons Ratio (x) = 0.43867 0.08737
# Poissons Ratio (y) = 0.53892 -0.05560
# Poissons Ratio (z) = 0.47952 -0.24842
#
# Static dielectric constant tensor:
#      x y z
#    x 1.775790 0.000000 0.000000 
#    y 0.000000 1.747080 0.000000 
#    z 0.000000 0.000000 1.776910 
# 
# From -- ./inp_files/20226.got.cif
#   From: 2010.05.17/outbox.cif.g08.bks.cpg/sg46_11_cif.got.tgz:20226.got - 2010.06.03 19:58:25.
