data_PCOD9378613
_publ_section_title
;
Structure prediction by ZEFSAII (Michael W. Deem and Ramdas Pophale) SiO2 
 PCOD9378613
Probable space group: I M A 2
;
_chemical_formula_sum "Si O2"
_cell_formula_units_Z 64
_cell_length_a 17.749422
_cell_length_b 17.700832
_cell_length_c 8.893171
_cell_angle_alpha 90.000000
_cell_angle_beta 90.000000
_cell_angle_gamma 90.000000
_cell_volume 2794.052347
_symmetry_space_group_name_H-M "I M A 2"
_symmetry_group_IT_number 46
_symmetry_cell_setting 'orthorhombic'
loop_
_space_group_symop_operation_xyz
x,y,z
-x,-y,z
1/2-x,y,z
1/2+x,-y,z
1/2+x,1/2+y,1/2+z
1/2-x,1/2-y,1/2+z
-x,1/2+y,1/2+z
x,1/2-y,1/2+z
loop_
_atom_site_type_symbol
_atom_site_label
_atom_site_fract_x
_atom_site_fract_y
_atom_site_fract_z
Si Si1 0.833987 0.890291 0.676600
Si Si2 0.470508 0.853427 0.326129
Si Si3 0.622690 0.352713 0.412192
Si Si4 0.944870 0.893448 0.936031
Si Si5 0.121341 0.973336 0.125269
Si Si6 0.140946 0.093754 0.344006
Si Si7 0.090907 0.722185 0.121685
Si Si8 0.332727 0.285906 0.610774
O O1 0.750000 0.902125 0.741458
O O2 0.902369 0.913406 0.782307
O O3 0.837156 0.925549 0.511910
O O4 0.844984 0.801464 0.641618
O O5 0.418176 0.912942 0.236860
O O6 0.551227 0.892446 0.337414
O O7 0.463947 0.776168 0.224933
O O8 0.447765 0.829585 0.495043
O O9 0.531901 0.371357 0.418530
O O10 0.658369 0.425251 0.491473
O O11 0.636503 0.327537 0.242137
O O12 0.637302 0.281816 0.521550
O O13 0.897022 0.824923 0.010530
O O14 0.931272 0.964937 0.042645
O O15 0.166963 0.028016 0.233286
O O16 0.169077 0.171568 0.271129
O O17 0.250000 0.296048 0.539796
#
# Coordination Sequence:
#
# PCOD9378613 Si02
#       8
#     8   8   8   8   8   8   8   8
#     4  11  24  36  48  76 104 134 186 240 262 284
#     4  10  19  32  50  73 106 126 179 206 256 309
#     4  10  19  32  50  73 106 126 179 206 256 309
#     4  11  21  31  54  66  98 140 176 215 269 307
#     4  10  21  37  46  72 100 136 173 222 253 318
#     4  11  21  31  54  66  98 140 176 215 269 307
#     4   9  19  28  48  75  93 140 154 215 238 295
#     4  10  21  35  49  69  99 136 179 234 268 287
#
# _framework density 22.905798999999998
#
# number of rings (size 3 to 8) (size 9 to 14) (size 15 to 20)
#    0.000    1.750    0.000    6.750   10.500    3.000 
#    0.000    2.500    0.000    0.000    0.000    0.000 
#    0.000    0.000    0.000  900.000    0.000    0.000 
#
# Total GULP energy -178726.921057 kJ/mol
# GULP energy per Si atom -5585.216283 kJ/mol
# Density = 2.285366 g / cm^3
# Si number density = 22.905799 Si / 1000 Ang^3
#
#
#
# Elastic Constant Matrix: (Units=GPa)
#
#
# Indices 1 2 3 4 5 6 
#
# 1 41.5342 6.0650 8.7560 0.0000 0.0000 0.0000
# 2 6.0650 91.7250 37.4062 0.0000 0.0000 0.0000
# 3 8.7560 37.4062 163.2960 0.0000 0.0000 0.0000
# 4 0.0000 0.0000 0.0000 32.9729 0.0000 0.0000
# 5 0.0000 0.0000 0.0000 0.0000 1.1747 0.0000
# 6 0.0000 0.0000 0.0000 0.0000 0.0000 25.6002
#
#
#
# Elastic Compliance Matrix: (Units=1/GPa)
#
#
# Indices 1 2 3 4 5 6 
#
# 1 0.024470 -0.001194 -0.001038 0.000000 0.000000 0.000000
# 2 -0.001194 0.012084 -0.002704 0.000000 0.000000 0.000000
# 3 -0.001038 -0.002704 0.006799 0.000000 0.000000 0.000000
# 4 0.000000 0.000000 0.000000 0.030328 0.000000 0.000000
# 5 0.000000 0.000000 0.000000 0.000000 0.851308 0.000000
# 6 0.000000 0.000000 0.000000 0.000000 0.000000 0.039062
#
#
# Mechanical properties :
#
#
# Convention : Reuss Voigt Hill
#
# Bulk Modulus (GPa) = 29.86968 44.55661 37.21314
# Shear Modulus (GPa) = 5.07571 28.23808 16.65689
#
# Velocity S-wave (km/s) = 1.49021 3.51492 2.69957
# Velocity P-wave (km/s) = 4.00368 5.99727 5.09886
#
# Compressibility (1/GPa) = 0.03347877
#
# Stress axis : x y z
#
# Youngs Moduli (GPa) = 40.86658 82.75508 147.08179
#
# Poissons Ratio (x) = 0.09885 0.15274
# Poissons Ratio (y) = 0.04881 0.39771
# Poissons Ratio (z) = 0.04244 0.22377
#
# Static dielectric constant tensor:
#      x y z
#    x 1.913360 0.000000 0.000000 
#    y 0.000000 1.872600 0.000000 
#    z 0.000000 0.000000 1.903310 
# 
# From -- ./inp_files/7581.got.cif
#   From: 2010.05.17/outbox.cif.g08.bks.cpg/sg46_4_cif.got.tgz:7581.got - 2010.06.03 19:58:25.
