data_PCOD9378478
_publ_section_title
;
Structure prediction by ZEFSAII (Michael W. Deem and Ramdas Pophale) SiO2 
 PCOD9378478
Probable space group: I M A 2
;
_chemical_formula_sum "Si O2"
_cell_formula_units_Z 64
_cell_length_a 8.853801
_cell_length_b 14.652473
_cell_length_c 28.766204
_cell_angle_alpha 90.000000
_cell_angle_beta 90.000000
_cell_angle_gamma 90.000000
_cell_volume 3731.841949
_symmetry_space_group_name_H-M "I M A 2"
_symmetry_group_IT_number 46
_symmetry_cell_setting 'orthorhombic'
loop_
_space_group_symop_operation_xyz
x,y,z
-x,-y,z
1/2-x,y,z
1/2+x,-y,z
1/2+x,1/2+y,1/2+z
1/2-x,1/2-y,1/2+z
-x,1/2+y,1/2+z
x,1/2-y,1/2+z
loop_
_atom_site_type_symbol
_atom_site_label
_atom_site_fract_x
_atom_site_fract_y
_atom_site_fract_z
Si Si1 0.432683 0.206666 0.153170
Si Si2 0.067812 0.784066 0.873610
Si Si3 0.578632 0.143380 0.244974
Si Si4 0.931227 0.599208 0.562423
Si Si5 0.929584 0.905871 0.339398
Si Si6 0.068142 0.100750 0.956092
Si Si7 0.071896 0.407689 0.184015
Si Si8 0.920472 0.144644 0.776171
O O1 0.250000 0.202901 0.157992
O O2 0.505974 0.145987 0.194045
O O3 0.476702 0.168845 0.102836
O O4 0.479460 0.312146 0.161061
O O5 0.250000 0.777864 0.874498
O O6 0.028411 0.849418 0.829486
O O7 0.999800 0.684152 0.863296
O O8 0.002145 0.828784 0.919796
O O9 0.750000 0.106585 0.245161
O O10 0.476948 0.099873 0.285026
O O11 0.587737 0.249459 0.260497
O O12 0.750000 0.591604 0.563959
O O13 0.971342 0.625579 0.509562
O O14 0.000000 0.500000 0.571829
O O15 0.750000 0.905494 0.343948
O O16 0.000000 0.000000 0.358018
O O17 0.250000 0.097972 0.951614
O O18 0.000000 0.000000 0.947588
O O19 0.250000 0.413132 0.179224
O O20 0.000000 0.500000 0.164704
O O21 0.027478 0.400488 0.238401
O O22 0.750000 0.106600 0.773177
#
# Coordination Sequence:
#
# PCOD9378478 Si02
#       8
#     8   8   8   8   8   8   8   8
#     4   9  18  33  51  72  99 134 171 209 254 305
#     4  10  20  35  54  77 104 134 170 213 256 305
#     4   9  17  30  47  70  99 131 167 207 247 291
#     4   9  19  35  54  76 101 127 162 206 256 310
#     4  11  21  34  52  75 105 141 177 212 251 299
#     4  10  20  35  55  78 102 131 165 208 261 315
#     4  10  19  30  47  69  97 132 168 204 243 288
#     4   8  16  30  46  65  93 126 161 199 238 281
#
# _framework density 17.149708
#
# number of rings (size 3 to 8) (size 9 to 14) (size 15 to 20)
#    0.000    2.500    0.000    3.375    0.000    6.000 
#    0.000    1.250    0.000    0.750    0.000    1.750 
#    0.000    0.000    0.000    0.000    0.000    0.000 
#
# Total GULP energy -178425.624661 kJ/mol
# GULP energy per Si atom -5575.800771 kJ/mol
# Density = 1.711067 g / cm^3
# Si number density = 17.149708 Si / 1000 Ang^3
#
#
#
# Elastic Constant Matrix: (Units=GPa)
#
#
# Indices 1 2 3 4 5 6 
#
# 1 66.3558 40.4416 42.0046 0.0000 0.0000 0.0000
# 2 40.4416 92.8937 71.2242 0.0000 0.0000 0.0000
# 3 42.0046 71.2242 125.9349 0.0000 0.0000 0.0000
# 4 0.0000 0.0000 0.0000 22.1716 0.0000 0.0000
# 5 0.0000 0.0000 0.0000 0.0000 21.6032 0.0000
# 6 0.0000 0.0000 0.0000 0.0000 0.0000 27.1619
#
#
#
# Elastic Compliance Matrix: (Units=1/GPa)
#
#
# Indices 1 2 3 4 5 6 
#
# 1 0.021252 -0.006740 -0.003277 0.000000 0.000000 0.000000
# 2 -0.006740 0.021145 -0.009711 0.000000 0.000000 0.000000
# 3 -0.003277 -0.009711 0.014525 0.000000 0.000000 0.000000
# 4 0.000000 0.000000 0.000000 0.045103 0.000000 0.000000
# 5 0.000000 0.000000 0.000000 0.000000 0.046289 0.000000
# 6 0.000000 0.000000 0.000000 0.000000 0.000000 0.036816
#
#
# Mechanical properties :
#
#
# Convention : Reuss Voigt Hill
#
# Bulk Modulus (GPa) = 57.24759 65.83615 61.54187
# Shear Modulus (GPa) = 21.70067 22.95495 22.32781
#
# Velocity S-wave (km/s) = 3.56106 3.66253 3.61215
# Velocity P-wave (km/s) = 7.09660 7.50719 7.30478
#
# Compressibility (1/GPa) = 0.01746798
#
# Stress axis : x y z
#
# Youngs Moduli (GPa) = 47.05384 47.29338 68.84469
#
# Poissons Ratio (x) = 0.31875 0.22558
# Poissons Ratio (y) = 0.31714 0.66852
# Poissons Ratio (z) = 0.15418 0.45925
#
# Static dielectric constant tensor:
#      x y z
#    x 1.582090 0.000000 0.000000 
#    y 0.000000 1.595920 0.000000 
#    z 0.000000 0.000000 1.576220 
# 
# From -- ./inp_files/25281.got.cif
#   From: 2010.05.17/outbox.cif.g08.bks.cpg/sg46_13_cif.got.tgz:25281.got - 2010.06.03 19:58:25.
