data_PCOD9378394
_publ_section_title
;
Structure prediction by ZEFSAII (Michael W. Deem and Ramdas Pophale) SiO2 
 PCOD9378394
Probable space group: I M A 2
;
_chemical_formula_sum "Si O2"
_cell_formula_units_Z 60
_cell_length_a 31.903891
_cell_length_b 7.189961
_cell_length_c 11.968462
_cell_angle_alpha 90.000000
_cell_angle_beta 90.000000
_cell_angle_gamma 90.000000
_cell_volume 2745.418354
_symmetry_space_group_name_H-M "I M A 2"
_symmetry_group_IT_number 46
_symmetry_cell_setting 'orthorhombic'
loop_
_space_group_symop_operation_xyz
x,y,z
-x,-y,z
1/2-x,y,z
1/2+x,-y,z
1/2+x,1/2+y,1/2+z
1/2-x,1/2-y,1/2+z
-x,1/2+y,1/2+z
x,1/2-y,1/2+z
loop_
_atom_site_type_symbol
_atom_site_label
_atom_site_fract_x
_atom_site_fract_y
_atom_site_fract_z
Si Si1 0.965220 0.769702 0.322360
Si Si2 0.362575 0.908961 0.914131
Si Si3 0.326338 0.454303 0.637126
Si Si4 0.704969 0.192640 0.734767
Si Si5 0.546384 0.142623 0.915078
Si Si6 0.500000 0.500000 0.624200
Si Si7 0.701597 0.922568 0.523714
Si Si8 0.127109 0.156074 0.356402
O O1 0.957239 0.546821 0.339250
O O2 0.923237 0.868889 0.368238
O O3 0.010179 0.786530 0.383498
O O4 0.976715 0.847221 0.200367
O O5 0.328793 0.830813 0.830149
O O6 0.405940 0.799277 0.903768
O O7 0.367928 0.123924 0.878487
O O8 0.348606 0.924590 0.041538
O O9 0.295391 0.594580 0.697753
O O10 0.303847 0.280890 0.579111
O O11 0.359394 0.385951 0.729576
O O12 0.750000 0.133504 0.780293
O O13 0.696787 0.067519 0.625330
O O14 0.534990 0.082234 0.040878
O O15 0.750000 0.941745 0.479741
O O16 0.662400 0.936369 0.437414
#
# Coordination Sequence:
#
# PCOD9378394 Si02
#       8
#     8   8   8   8   8   4   8   8
#     4   9  19  37  62  89 121 164 207 254 318 378
#     4  10  22  42  65  94 133 169 216 274 323 390
#     4  11  23  41  67  97 125 179 213 269 329 387
#     4  11  25  43  64  96 131 171 220 270 323 388
#     4   9  21  40  60  93 126 160 212 262 319 379
#     4  10  18  36  62  88 126 166 198 270 306 380
#     4  10  23  43  64  93 131 173 221 270 323 383
#     4  10  21  40  67  93 126 173 219 267 322 391
#
# _framework density 21.854592
#
# number of rings (size 3 to 8) (size 9 to 14) (size 15 to 20)
#    0.000    2.133    1.333    1.200    1.867    6.933 
#    0.000    5.333    0.000    0.000    0.000    0.000 
#    0.000    0.000    0.000    0.000    0.000    0.000 
#
# Total GULP energy -167367.050941 kJ/mol
# GULP energy per Si atom -5578.901698 kJ/mol
# Density = 2.180485 g / cm^3
# Si number density = 21.854592 Si / 1000 Ang^3
#
#
#
# Elastic Constant Matrix: (Units=GPa)
#
#
# Indices 1 2 3 4 5 6 
#
# 1 228.4270 41.5774 89.5909 0.0000 0.0000 0.0000
# 2 41.5774 51.3917 19.7463 0.0000 0.0000 0.0000
# 3 89.5909 19.7463 115.8523 0.0000 0.0000 0.0000
# 4 0.0000 0.0000 0.0000 3.9549 0.0000 0.0000
# 5 0.0000 0.0000 0.0000 0.0000 1.6408 0.0000
# 6 0.0000 0.0000 0.0000 0.0000 0.0000 13.7274
#
#
#
# Elastic Compliance Matrix: (Units=1/GPa)
#
#
# Indices 1 2 3 4 5 6 
#
# 1 0.006909 -0.003785 -0.004698 0.000000 0.000000 0.000000
# 2 -0.003785 0.022895 -0.000976 0.000000 0.000000 0.000000
# 3 -0.004698 -0.000976 0.012431 0.000000 0.000000 0.000000
# 4 0.000000 0.000000 0.000000 0.252852 0.000000 0.000000
# 5 0.000000 0.000000 0.000000 0.000000 0.609476 0.000000
# 6 0.000000 0.000000 0.000000 0.000000 0.000000 0.072847
#
#
# Mechanical properties :
#
#
# Convention : Reuss Voigt Hill
#
# Bulk Modulus (GPa) = 42.88357 77.50002 60.19179
# Shear Modulus (GPa) = 4.97958 20.18169 12.58064
#
# Velocity S-wave (km/s) = 1.51111 3.04213 2.40188
# Velocity P-wave (km/s) = 4.76544 6.91940 5.94085
#
# Compressibility (1/GPa) = 0.02331895
#
# Stress axis : x y z
#
# Youngs Moduli (GPa) = 144.73421 43.67736 80.44406
#
# Poissons Ratio (x) = 0.16530 0.37792
# Poissons Ratio (y) = 0.54777 0.07848
# Poissons Ratio (z) = 0.67996 0.04261
#
# Static dielectric constant tensor:
#      x y z
#    x 1.850110 0.000000 0.000000 
#    y 0.000000 1.854940 0.000000 
#    z 0.000000 0.000000 1.771460 
# 
# From -- ./inp_files/13185.got.cif
#   From: 2010.05.17/outbox.cif.g08.bks.cpg/sg46_7_cif.got.tgz:13185.got - 2010.06.03 19:58:25.
