data_PCOD9378099
_publ_section_title
;
Structure prediction by ZEFSAII (Michael W. Deem and Ramdas Pophale) SiO2 
 PCOD9378099
Probable space group: I M A 2
;
_chemical_formula_sum "Si O2"
_cell_formula_units_Z 48
_cell_length_a 8.141462
_cell_length_b 13.664271
_cell_length_c 18.283287
_cell_angle_alpha 90.000000
_cell_angle_beta 90.000000
_cell_angle_gamma 90.000000
_cell_volume 2033.963445
_symmetry_space_group_name_H-M "I M A 2"
_symmetry_group_IT_number 46
_symmetry_cell_setting 'orthorhombic'
loop_
_space_group_symop_operation_xyz
x,y,z
-x,-y,z
1/2-x,y,z
1/2+x,-y,z
1/2+x,1/2+y,1/2+z
1/2-x,1/2-y,1/2+z
-x,1/2+y,1/2+z
x,1/2-y,1/2+z
loop_
_atom_site_type_symbol
_atom_site_label
_atom_site_fract_x
_atom_site_fract_y
_atom_site_fract_z
Si Si1 0.935450 0.834025 0.488200
Si Si2 0.057209 0.822370 0.335289
Si Si3 0.562207 0.895223 0.863428
Si Si4 0.549854 0.319261 0.676021
Si Si5 0.446525 0.900796 0.634220
Si Si6 0.437209 0.630950 0.520190
O O1 0.750000 0.794886 0.490022
O O2 0.969907 0.867642 0.406033
O O3 0.960584 0.903714 0.556312
O O4 0.062900 0.747805 0.506453
O O5 0.250000 0.843075 0.340133
O O6 0.994291 0.854347 0.255577
O O7 0.033574 0.703593 0.341060
O O8 0.750000 0.880532 0.842844
O O9 0.500000 0.000000 0.836189
O O10 0.544348 0.902195 0.951884
O O11 0.750000 0.322630 0.674607
O O12 0.504599 0.204065 0.668525
O O13 0.496168 0.376868 0.602924
O O14 0.250000 0.900185 0.626318
O O15 0.500000 0.000000 0.674103
O O16 0.250000 0.594439 0.515053
#
# Coordination Sequence:
#
# PCOD9378099 Si02
#       6
#     8   8   8   8   8   8
#     4  10  18  30  47  70  95 126 164 200 233 278
#     4  10  18  32  51  73  99 129 159 196 238 283
#     4  11  21  33  48  71  98 129 163 199 239 285
#     4   8  17  31  50  73  99 127 158 192 238 288
#     4  10  19  33  50  72  98 128 161 199 241 286
#     4   9  16  31  51  71  93 123 160 200 237 280
#
# _framework density 23.599243999999999
#
# number of rings (size 3 to 8) (size 9 to 14) (size 15 to 20)
#    0.000    2.333    0.000    7.500    0.000    0.667 
#    0.000   11.667    0.000    1.000    0.000    4.667 
#    0.000    0.000    0.000    0.000    0.000    0.000 
#
# Total GULP energy -133906.526451 kJ/mol
# GULP energy per Si atom -5579.438602 kJ/mol
# Density = 2.354553 g / cm^3
# Si number density = 23.599244 Si / 1000 Ang^3
#
#
#
# Elastic Constant Matrix: (Units=GPa)
#
#
# Indices 1 2 3 4 5 6 
#
# 1 73.6209 -5.6411 11.8057 0.0000 0.0000 0.0000
# 2 -5.6411 30.8573 -10.6989 0.0000 0.0000 0.0000
# 3 11.8057 -10.6989 180.0074 0.0000 0.0000 0.0000
# 4 0.0000 0.0000 0.0000 -5.2237 0.0000 0.0000
# 5 0.0000 0.0000 0.0000 0.0000 -22.5359 0.0000
# 6 0.0000 0.0000 0.0000 0.0000 0.0000 17.3845
#
#
#
# Elastic Compliance Matrix: (Units=1/GPa)
#
#
# Indices 1 2 3 4 5 6 
#
# 1 0.013881 0.002269 -0.000776 0.000000 0.000000 0.000000
# 2 0.002269 0.033460 0.001840 0.000000 0.000000 0.000000
# 3 -0.000776 0.001840 0.005716 0.000000 0.000000 0.000000
# 4 0.000000 0.000000 0.000000 -0.191435 0.000000 0.000000
# 5 0.000000 0.000000 0.000000 0.000000 -0.044374 0.000000
# 6 0.000000 0.000000 0.000000 0.000000 0.000000 0.057522
#
#
# Mechanical properties :
#
#
# Convention : Reuss Voigt Hill
#
# Bulk Modulus (GPa) = 16.74397 30.60189 23.67293
# Shear Modulus (GPa) = -44.64772 17.19297 -13.72738
#
# Velocity S-wave (km/s) = -4.35433 2.70207 -2.41444
# Velocity P-wave (km/s) = 4.26260 4.76764 1.51008
#
# Compressibility (1/GPa) = 0.05972300
#
# Stress axis : x y z
#
# Youngs Moduli (GPa) = 72.03932 29.88653 174.96131
#
# Poissons Ratio (x) = -0.06781 0.13569
# Poissons Ratio (y) = -0.16344 -0.32191
# Poissons Ratio (z) = 0.05587 -0.05499
#
# Static dielectric constant tensor:
#      x y z
#    x 1.847720 0.000000 0.000000 
#    y 0.000000 1.962410 0.000000 
#    z 0.000000 0.000000 1.971710 
# 
# From -- ./inp_files/18268.got.cif
#   From: 2010.05.17/outbox.cif.g08.bks.cpg/sg46_10_cif.got.tgz:18268.got - 2010.06.03 19:58:25.
