data_PCOD9378233
_publ_section_title
;
Structure prediction by ZEFSAII (Michael W. Deem and Ramdas Pophale) SiO2 
 PCOD9378233
Probable space group: I M A 2
;
_chemical_formula_sum "Si O2"
_cell_formula_units_Z 52
_cell_length_a 15.188665
_cell_length_b 9.128568
_cell_length_c 18.330185
_cell_angle_alpha 90.000000
_cell_angle_beta 90.000000
_cell_angle_gamma 90.000000
_cell_volume 2541.494105
_symmetry_space_group_name_H-M "I M A 2"
_symmetry_group_IT_number 46
_symmetry_cell_setting 'orthorhombic'
loop_
_space_group_symop_operation_xyz
x,y,z
-x,-y,z
1/2-x,y,z
1/2+x,-y,z
1/2+x,1/2+y,1/2+z
1/2-x,1/2-y,1/2+z
-x,1/2+y,1/2+z
x,1/2-y,1/2+z
loop_
_atom_site_type_symbol
_atom_site_label
_atom_site_fract_x
_atom_site_fract_y
_atom_site_fract_z
Si Si1 0.151213 0.986913 0.489230
Si Si2 0.500000 0.500000 0.232233
Si Si3 0.923180 0.707402 0.469742
Si Si4 0.345993 0.428075 0.329748
Si Si5 0.847504 0.478049 0.569044
Si Si6 0.620570 0.306671 0.422591
Si Si7 0.645352 0.317301 0.142784
O O1 0.250000 0.048614 0.486867
O O2 0.085617 0.121532 0.484389
O O3 0.141647 0.864290 0.426602
O O4 0.141102 0.900835 0.565021
O O5 0.431528 0.403965 0.280285
O O6 0.568879 0.395916 0.189059
O O7 0.856413 0.658383 0.406046
O O8 0.907122 0.613465 0.543163
O O9 0.017447 0.673600 0.436202
O O10 0.250000 0.396586 0.297044
O O11 0.350655 0.599452 0.353565
O O12 0.750000 0.533564 0.588239
O O13 0.840089 0.383773 0.494344
O O14 0.874354 0.355052 0.627773
O O15 0.750000 0.328353 0.166287
#
# Coordination Sequence:
#
# PCOD9378233 Si02
#       7
#     8   4   8   8   8   8   8
#     4  10  20  34  56  88 119 149 182 234 305 358
#     4  12  22  38  56  82 106 156 210 242 264 334
#     4  11  19  32  57  93 117 143 182 238 301 355
#     4  11  21  37  58  82 114 152 194 242 286 342
#     4   9  17  32  53  79 112 143 176 227 289 347
#     4  10  18  32  52  87 116 145 182 231 294 353
#     4   9  21  37  56  81 111 150 191 235 289 346
#
# _framework density 20.460405999999999
#
# number of rings (size 3 to 8) (size 9 to 14) (size 15 to 20)
#    0.000    1.846    1.538    6.923    4.308    0.000 
#    0.000    0.000    0.000    3.692    0.000    4.308 
#    0.000    0.000    0.000    0.000    0.000    0.000 
#
# Total GULP energy -144919.732389 kJ/mol
# GULP energy per Si atom -5573.835861 kJ/mol
# Density = 2.041384 g / cm^3
# Si number density = 20.460406 Si / 1000 Ang^3
#
#
#
# Elastic Constant Matrix: (Units=GPa)
#
#
# Indices 1 2 3 4 5 6 
#
# 1 127.0983 16.1867 23.5394 0.0000 0.0000 0.0000
# 2 16.1867 88.8621 10.6344 0.0000 0.0000 0.0000
# 3 23.5394 10.6344 41.2120 0.0000 0.0000 0.0000
# 4 0.0000 0.0000 0.0000 15.1519 0.0000 0.0000
# 5 0.0000 0.0000 0.0000 0.0000 27.8965 0.0000
# 6 0.0000 0.0000 0.0000 0.0000 0.0000 19.3953
#
#
#
# Elastic Compliance Matrix: (Units=1/GPa)
#
#
# Indices 1 2 3 4 5 6 
#
# 1 0.008892 -0.001044 -0.004809 0.000000 0.000000 0.000000
# 2 -0.001044 0.011735 -0.002432 0.000000 0.000000 0.000000
# 3 -0.004809 -0.002432 0.027639 0.000000 0.000000 0.000000
# 4 0.000000 0.000000 0.000000 0.065998 0.000000 0.000000
# 5 0.000000 0.000000 0.000000 0.000000 0.035847 0.000000
# 6 0.000000 0.000000 0.000000 0.000000 0.000000 0.051559
#
#
# Mechanical properties :
#
#
# Convention : Reuss Voigt Hill
#
# Bulk Modulus (GPa) = 31.55038 39.76592 35.65815
# Shear Modulus (GPa) = 21.85271 26.27620 24.06446
#
# Velocity S-wave (km/s) = 3.27165 3.58753 3.43322
# Velocity P-wave (km/s) = 5.45209 6.05295 5.76036
#
# Compressibility (1/GPa) = 0.03169534
#
# Stress axis : x y z
#
# Youngs Moduli (GPa) = 112.46567 85.21818 36.18056
#
# Poissons Ratio (x) = 0.08898 0.17400
# Poissons Ratio (y) = 0.11743 0.08798
# Poissons Ratio (z) = 0.54088 0.20722
#
# Static dielectric constant tensor:
#      x y z
#    x 1.809060 0.000000 0.000000 
#    y 0.000000 1.741520 0.000000 
#    z 0.000000 0.000000 1.747210 
# 
# From -- ./inp_files/23594.got.cif
#   From: 2010.05.17/outbox.cif.g08.bks.cpg/sg46_12_cif.got.tgz:23594.got - 2010.06.03 19:58:25.
