data_PCOD9378810
_publ_section_title
;
Structure prediction by ZEFSAII (Michael W. Deem and Ramdas Pophale) SiO2 
 PCOD9378810
Probable space group: I M A 2
;
_chemical_formula_sum "Si O2"
_cell_formula_units_Z 64
_cell_length_a 15.171419
_cell_length_b 9.610742
_cell_length_c 22.130287
_cell_angle_alpha 90.000000
_cell_angle_beta 90.000000
_cell_angle_gamma 90.000000
_cell_volume 3226.786027
_symmetry_space_group_name_H-M "I M A 2"
_symmetry_group_IT_number 46
_symmetry_cell_setting 'orthorhombic'
loop_
_space_group_symop_operation_xyz
x,y,z
-x,-y,z
1/2-x,y,z
1/2+x,-y,z
1/2+x,1/2+y,1/2+z
1/2-x,1/2-y,1/2+z
-x,1/2+y,1/2+z
x,1/2-y,1/2+z
loop_
_atom_site_type_symbol
_atom_site_label
_atom_site_fract_x
_atom_site_fract_y
_atom_site_fract_z
Si Si1 0.906749 0.565961 0.364830
Si Si2 0.644938 0.414750 0.001737
Si Si3 0.646696 0.885776 0.067335
Si Si4 0.645598 0.697579 0.947745
Si Si5 0.519155 0.837947 0.178913
Si Si6 0.855043 0.383760 0.479078
Si Si7 0.346132 0.135073 0.736132
Si Si8 0.090599 0.585077 0.140169
O O1 0.906699 0.715877 0.397668
O O2 0.870644 0.466211 0.417645
O O3 0.852136 0.577983 0.303910
O O4 0.000000 0.500000 0.347992
O O5 0.750000 0.417216 0.990882
O O6 0.632725 0.418745 0.073897
O O7 0.610737 0.546028 0.964675
O O8 0.606175 0.269364 0.979143
O O9 0.750000 0.897365 0.085685
O O10 0.583585 0.841556 0.120805
O O11 0.643478 0.779063 0.011545
O O12 0.613493 0.028947 0.036871
O O13 0.750000 0.695480 0.929583
O O14 0.576033 0.747558 0.226699
O O15 0.434842 0.740929 0.162204
O O16 0.500000 0.000000 0.194600
O O17 0.750000 0.375146 0.487160
O O18 0.250000 0.199119 0.725214
O O19 0.358151 0.006535 0.689690
O O20 0.000000 0.500000 0.133556
#
# Coordination Sequence:
#
# PCOD9378810 Si02
#       8
#     8   8   8   8   8   8   8   8
#     4  11  22  38  59  81 106 141 190 239 283 332
#     4  10  19  33  54  83 118 149 183 229 280 335
#     4   9  17  32  54  81 116 159 197 224 269 343
#     4   9  18  33  54  80 111 147 186 226 271 330
#     4  11  22  36  57  87 122 148 183 243 300 343
#     4   9  19  34  54  82 115 151 190 229 274 337
#     4  11  23  43  65  80 106 154 203 236 279 350
#     4  10  21  35  56  86 117 151 192 236 284 336
#
# _framework density 19.833977000000001
#
# number of rings (size 3 to 8) (size 9 to 14) (size 15 to 20)
#    0.000    2.000    0.000    6.000    0.000    6.000 
#    0.000    4.375    0.000    0.000    0.000    0.000 
#    0.000    0.000    0.000    0.000    0.000    0.000 
#
# Total GULP energy -178592.281596 kJ/mol
# GULP energy per Si atom -5581.008800 kJ/mol
# Density = 1.978883 g / cm^3
# Si number density = 19.833977 Si / 1000 Ang^3
#
#
#
# Elastic Constant Matrix: (Units=GPa)
#
#
# Indices 1 2 3 4 5 6 
#
# 1 43.3583 6.0532 5.0075 0.0000 0.0000 0.0000
# 2 6.0532 123.2351 27.3991 0.0000 0.0000 0.0000
# 3 5.0075 27.3991 88.5765 0.0000 0.0000 0.0000
# 4 0.0000 0.0000 0.0000 14.8804 0.0000 0.0000
# 5 0.0000 0.0000 0.0000 0.0000 28.2549 0.0000
# 6 0.0000 0.0000 0.0000 0.0000 0.0000 19.5179
#
#
#
# Elastic Compliance Matrix: (Units=1/GPa)
#
#
# Indices 1 2 3 4 5 6 
#
# 1 0.023311 -0.000915 -0.001035 0.000000 0.000000 0.000000
# 2 -0.000915 0.008750 -0.002655 0.000000 0.000000 0.000000
# 3 -0.001035 -0.002655 0.012169 0.000000 0.000000 0.000000
# 4 0.000000 0.000000 0.000000 0.067202 0.000000 0.000000
# 5 0.000000 0.000000 0.000000 0.000000 0.035392 0.000000
# 6 0.000000 0.000000 0.000000 0.000000 0.000000 0.051235
#
#
# Mechanical properties :
#
#
# Convention : Reuss Voigt Hill
#
# Bulk Modulus (GPa) = 28.55441 36.89885 32.72663
# Shear Modulus (GPa) = 22.83705 26.97797 24.90751
#
# Velocity S-wave (km/s) = 3.39693 3.69208 3.54757
# Velocity P-wave (km/s) = 5.46017 6.06791 5.77204
#
# Compressibility (1/GPa) = 0.03502086
#
# Stress axis : x y z
#
# Youngs Moduli (GPa) = 42.89845 114.28878 82.17344
#
# Poissons Ratio (x) = 0.10457 0.08503
# Poissons Ratio (y) = 0.03925 0.21816
# Poissons Ratio (z) = 0.04439 0.30342
#
# Static dielectric constant tensor:
#      x y z
#    x 1.731990 0.000000 0.000000 
#    y 0.000000 1.778500 0.000000 
#    z 0.000000 0.000000 1.667280 
# 
# From -- ./inp_files/23641.got.cif
#   From: 2010.05.17/outbox.cif.g08.bks.cpg/sg46_12_cif.got.tgz:23641.got - 2010.06.03 19:58:25.
