data_PCOD9378454
_publ_section_title
;
Structure prediction by ZEFSAII (Michael W. Deem and Ramdas Pophale) SiO2 
 PCOD9378454
Probable space group: I M A 2
;
_chemical_formula_sum "Si O2"
_cell_formula_units_Z 56
_cell_length_a 16.483484
_cell_length_b 12.988731
_cell_length_c 11.511330
_cell_angle_alpha 90.000000
_cell_angle_beta 90.000000
_cell_angle_gamma 90.000000
_cell_volume 2464.570453
_symmetry_space_group_name_H-M "I M A 2"
_symmetry_group_IT_number 46
_symmetry_cell_setting 'orthorhombic'
loop_
_space_group_symop_operation_xyz
x,y,z
-x,-y,z
1/2-x,y,z
1/2+x,-y,z
1/2+x,1/2+y,1/2+z
1/2-x,1/2-y,1/2+z
-x,1/2+y,1/2+z
x,1/2-y,1/2+z
loop_
_atom_site_type_symbol
_atom_site_label
_atom_site_fract_x
_atom_site_fract_y
_atom_site_fract_z
Si Si1 0.872562 0.679096 0.489170
Si Si2 0.436221 0.723029 0.499489
Si Si3 0.158355 0.546959 0.384480
Si Si4 0.907893 0.542345 0.160854
Si Si5 0.545194 0.401684 0.709519
Si Si6 0.091115 0.544024 0.936372
Si Si7 0.887029 0.770070 0.247346
O O1 0.862326 0.559424 0.452816
O O2 0.845412 0.747504 0.374357
O O3 0.844779 0.691501 0.625274
O O4 0.967127 0.709748 0.495615
O O5 0.398842 0.643277 0.409223
O O6 0.411981 0.674826 0.622476
O O7 0.410691 0.840201 0.484881
O O8 0.250000 0.574833 0.413059
O O9 0.146716 0.518872 0.250539
O O10 0.913244 0.656953 0.206516
O O11 0.000000 0.500000 0.161748
O O12 0.871042 0.529717 0.032112
O O13 0.500000 0.500000 0.652326
O O14 0.610536 0.444254 0.801530
O O15 0.469052 0.337699 0.764041
O O16 0.000000 0.500000 0.926509
#
# Coordination Sequence:
#
# PCOD9378454 Si02
#       7
#     8   8   8   8   8   8   8
#     4  10  19  36  60  91 120 152 195 253 303 361
#     4  11  20  35  61  86 118 154 190 244 305 352
#     4  11  24  40  57  82 116 162 207 242 286 359
#     4  10  20  36  61  89 117 150 193 248 296 355
#     4  10  19  29  50  90 125 142 176 238 301 352
#     4  10  20  32  57  94 124 140 183 245 301 352
#     4  10  19  32  56  90 123 152 189 236 308 353
#
# _framework density 22.722011999999999
#
# number of rings (size 3 to 8) (size 9 to 14) (size 15 to 20)
#    0.000    1.714    1.429    7.286    4.000    0.000 
#    0.000    3.571    0.000    0.857    0.000    1.000 
#    0.000    0.000    0.000    0.000    0.000    0.000 
#
# Total GULP energy -155994.263192 kJ/mol
# GULP energy per Si atom -5571.223685 kJ/mol
# Density = 2.267030 g / cm^3
# Si number density = 22.722012 Si / 1000 Ang^3
#
#
#
# Elastic Constant Matrix: (Units=GPa)
#
#
# Indices 1 2 3 4 5 6 
#
# 1 34.6426 -8.4776 0.5645 0.0000 0.0000 0.0000
# 2 -8.4776 93.2596 20.6394 0.0000 0.0000 0.0000
# 3 0.5645 20.6394 144.7601 0.0000 0.0000 0.0000
# 4 0.0000 0.0000 0.0000 46.4683 0.0000 0.0000
# 5 0.0000 0.0000 0.0000 0.0000 -21.2335 0.0000
# 6 0.0000 0.0000 0.0000 0.0000 0.0000 -9.1365
#
#
#
# Elastic Compliance Matrix: (Units=1/GPa)
#
#
# Indices 1 2 3 4 5 6 
#
# 1 0.029560 0.002801 -0.000515 0.000000 0.000000 0.000000
# 2 0.002801 0.011338 -0.001627 0.000000 0.000000 0.000000
# 3 -0.000515 -0.001627 0.007142 0.000000 0.000000 0.000000
# 4 0.000000 0.000000 0.000000 0.021520 0.000000 0.000000
# 5 0.000000 0.000000 0.000000 0.000000 -0.047095 0.000000
# 6 0.000000 0.000000 0.000000 0.000000 0.000000 -0.109451
#
#
# Mechanical properties :
#
#
# Convention : Reuss Voigt Hill
#
# Bulk Modulus (GPa) = 20.26032 33.12387 26.69209
# Shear Modulus (GPa) = -69.58709 20.54872 -24.51918
#
# Velocity S-wave (km/s) = -5.54003 3.01051 -3.28852
# Velocity P-wave (km/s) = 5.65567 5.16660 1.62678
#
# Compressibility (1/GPa) = 0.04935756
#
# Stress axis : x y z
#
# Youngs Moduli (GPa) = 33.82946 88.20258 140.01645
#
# Poissons Ratio (x) = -0.24706 0.07206
# Poissons Ratio (y) = -0.09476 0.22786
# Poissons Ratio (z) = 0.01741 0.14354
#
# Static dielectric constant tensor:
#      x y z
#    x 1.825850 0.000000 0.000000 
#    y 0.000000 1.972830 0.000000 
#    z 0.000000 0.000000 2.058910 
# 
# From -- ./inp_files/12386.got.cif
#   From: 2010.05.17/outbox.cif.g08.bks.cpg/sg46_7_cif.got.tgz:12386.got - 2010.06.03 19:58:25.
