data_PCOD9378853
_publ_section_title
;
Structure prediction by ZEFSAII (Michael W. Deem and Ramdas Pophale) SiO2 
 PCOD9378853
Probable space group: I M A 2
;
_chemical_formula_sum "Si O2"
_cell_formula_units_Z 64
_cell_length_a 8.876040
_cell_length_b 33.869801
_cell_length_c 11.929575
_cell_angle_alpha 90.000000
_cell_angle_beta 90.000000
_cell_angle_gamma 90.000000
_cell_volume 3586.384654
_symmetry_space_group_name_H-M "I M A 2"
_symmetry_group_IT_number 46
_symmetry_cell_setting 'orthorhombic'
loop_
_space_group_symop_operation_xyz
x,y,z
-x,-y,z
1/2-x,y,z
1/2+x,-y,z
1/2+x,1/2+y,1/2+z
1/2-x,1/2-y,1/2+z
-x,1/2+y,1/2+z
x,1/2-y,1/2+z
loop_
_atom_site_type_symbol
_atom_site_label
_atom_site_fract_x
_atom_site_fract_y
_atom_site_fract_z
Si Si1 0.431975 0.456273 0.455150
Si Si2 0.070628 0.724369 0.960241
Si Si3 0.070773 0.457234 0.199405
Si Si4 0.431291 0.852281 0.313805
Si Si5 0.926172 0.806730 0.906455
Si Si6 0.575758 0.677088 0.144205
Si Si7 0.431761 0.376584 0.576670
Si Si8 0.927329 0.103630 0.533671
O O1 0.500000 0.500000 0.476306
O O2 0.250000 0.459594 0.461414
O O3 0.470565 0.444004 0.326465
O O4 0.480715 0.420462 0.536401
O O5 0.250000 0.721041 0.978757
O O6 0.028689 0.690478 0.868354
O O7 0.025338 0.767980 0.924088
O O8 0.979474 0.714542 0.073409
O O9 0.250000 0.459061 0.195602
O O10 0.000000 0.500000 0.186278
O O11 0.012634 0.430260 0.099465
O O12 0.250000 0.852619 0.302941
O O13 0.504093 0.862641 0.195609
O O14 0.474048 0.885052 0.407306
O O15 0.750000 0.797650 0.932193
O O16 0.933885 0.817950 0.776332
O O17 0.972501 0.843567 0.983925
O O18 0.750000 0.667631 0.115597
O O19 0.465616 0.642822 0.103459
O O20 0.250000 0.377569 0.582311
O O21 0.750000 0.095652 0.533710
#
# Coordination Sequence:
#
# PCOD9378853 Si02
#       8
#     8   8   8   8   8   8   8   8
#     4   9  19  36  57  84 116 147 182 229 282 335
#     4  10  22  38  55  78 110 144 182 231 284 334
#     4  10  19  33  56  85 116 146 180 226 281 336
#     4   9  21  39  55  76 108 146 186 230 277 330
#     4  10  22  37  55  81 110 142 183 231 278 333
#     4  10  20  36  57  79 105 139 181 225 275 330
#     4  10  21  37  57  82 111 145 188 233 277 333
#     4  10  20  36  56  79 109 143 183 227 275 331
#
# _framework density 17.845268999999998
#
# number of rings (size 3 to 8) (size 9 to 14) (size 15 to 20)
#    0.000    2.250    0.000    3.000    1.750    7.500 
#    0.000    1.875    0.000    1.500    0.000    0.000 
#    0.000    0.000    0.000    0.000    0.000    0.000 
#
# Total GULP energy -178471.614080 kJ/mol
# GULP energy per Si atom -5577.237940 kJ/mol
# Density = 1.780465 g / cm^3
# Si number density = 17.845269 Si / 1000 Ang^3
#
#
#
# Elastic Constant Matrix: (Units=GPa)
#
#
# Indices 1 2 3 4 5 6 
#
# 1 28.0931 25.2012 38.4696 0.0001 -0.0001 0.0000
# 2 25.2012 86.8214 64.1045 0.0003 0.0000 0.0000
# 3 38.4696 64.1045 119.8297 0.0004 0.0002 0.0000
# 4 0.0001 0.0003 0.0004 10.8242 0.0000 0.0000
# 5 -0.0001 0.0000 0.0002 0.0000 56.3443 0.0001
# 6 0.0000 0.0000 0.0000 0.0000 0.0001 33.5393
#
#
#
# Elastic Compliance Matrix: (Units=1/GPa)
#
#
# Indices 1 2 3 4 5 6 
#
# 1 0.065204 -0.005737 -0.017864 0.000000 0.000000 0.000000
# 2 -0.005737 0.019542 -0.008613 0.000000 0.000000 0.000000
# 3 -0.017864 -0.008613 0.018688 0.000000 0.000000 0.000000
# 4 0.000000 0.000000 0.000000 0.092386 0.000000 0.000000
# 5 0.000000 0.000000 0.000000 0.000000 0.017748 0.000000
# 6 0.000000 0.000000 0.000000 0.000000 0.000000 0.029816
#
#
# Mechanical properties :
#
#
# Convention : Reuss Voigt Hill
#
# Bulk Modulus (GPa) = 25.63614 54.47720 40.05667
# Shear Modulus (GPa) = 15.58541 27.27281 21.42911
#
# Velocity S-wave (km/s) = 2.95848 3.91358 3.46906
# Velocity P-wave (km/s) = 5.10560 7.14250 6.20816
#
# Compressibility (1/GPa) = 0.03900743
#
# Stress axis : x y z
#
# Youngs Moduli (GPa) = 15.33644 51.17126 53.51122
#
# Poissons Ratio (x) = 0.29355 0.95593
# Poissons Ratio (y) = 0.08798 0.46088
# Poissons Ratio (z) = 0.27397 0.44072
#
# Static dielectric constant tensor:
#      x y z
#    x 1.586880 0.000000 0.000000 
#    y 0.000000 1.619310 0.000000 
#    z 0.000000 0.000000 1.611720 
# 
# From -- ./inp_files/9722.got.cif
#   From: 2010.05.17/outbox.cif.g08.bks.cpg/sg46_5_cif.got.tgz:9722.got - 2010.06.03 19:58:25.
