data_PCOD9378542
_publ_section_title
;
Structure prediction by ZEFSAII (Michael W. Deem and Ramdas Pophale) SiO2 
 PCOD9378542
Probable space group: I M A 2
;
_chemical_formula_sum "Si O2"
_cell_formula_units_Z 64
_cell_length_a 8.949816
_cell_length_b 30.727195
_cell_length_c 14.721675
_cell_angle_alpha 90.000000
_cell_angle_beta 90.000000
_cell_angle_gamma 90.000000
_cell_volume 4048.500984
_symmetry_space_group_name_H-M "I M A 2"
_symmetry_group_IT_number 46
_symmetry_cell_setting 'orthorhombic'
loop_
_space_group_symop_operation_xyz
x,y,z
-x,-y,z
1/2-x,y,z
1/2+x,-y,z
1/2+x,1/2+y,1/2+z
1/2-x,1/2-y,1/2+z
-x,1/2+y,1/2+z
x,1/2-y,1/2+z
loop_
_atom_site_type_symbol
_atom_site_label
_atom_site_fract_x
_atom_site_fract_y
_atom_site_fract_z
Si Si1 0.918062 0.684257 0.836200
Si Si2 0.576377 0.869410 0.522203
Si Si3 0.575148 0.629322 0.652230
Si Si4 0.929385 0.291338 0.129199
Si Si5 0.570681 0.791893 0.025012
Si Si6 0.070801 0.546884 0.943647
Si Si7 0.072161 0.953549 0.230913
Si Si8 0.574902 0.273158 0.337842
O O1 0.750000 0.704044 0.834015
O O2 0.936133 0.655901 0.746403
O O3 0.039419 0.721823 0.840303
O O4 0.927157 0.654473 0.924449
O O5 0.750000 0.875086 0.547808
O O6 0.494057 0.835991 0.588913
O O7 0.496132 0.915356 0.506402
O O8 0.750000 0.619111 0.637319
O O9 0.525343 0.663573 0.575771
O O10 0.486119 0.585020 0.667262
O O11 0.750000 0.289668 0.118627
O O12 0.965554 0.288089 0.236243
O O13 0.999668 0.250083 0.075649
O O14 0.750000 0.787785 0.031383
O O15 0.517934 0.792646 0.921112
O O16 0.250000 0.545378 0.950956
O O17 0.032742 0.556141 0.837074
O O18 0.000000 0.500000 0.964907
O O19 0.250000 0.956795 0.225896
O O20 0.000000 0.000000 0.208464
O O21 0.750000 0.281201 0.352492
#
# Coordination Sequence:
#
# PCOD9378542 Si02
#       8
#     8   8   8   8   8   8   8   8
#     4  10  19  31  49  72 103 138 174 211 252 305
#     4  11  21  33  52  76 102 139 176 212 258 308
#     4  10  20  34  51  73 102 136 174 212 252 303
#     4  11  23  36  51  74 103 137 176 217 259 306
#     4  11  22  35  53  75 101 137 176 216 259 307
#     4  10  20  33  50  74 105 138 172 212 255 306
#     4  10  20  32  50  74 103 137 170 208 254 303
#     4  11  23  36  51  72 103 138 175 220 260 302
#
# _framework density 15.80832
#
# number of rings (size 3 to 8) (size 9 to 14) (size 15 to 20)
#    0.000    1.500    3.750    2.250    0.000    4.500 
#    0.000    0.000    0.000    0.000    0.000    0.875 
#    0.000    2.000    0.000    0.000    0.000    0.000 
#
# Total GULP energy -178630.467425 kJ/mol
# GULP energy per Si atom -5582.202107 kJ/mol
# Density = 1.577234 g / cm^3
# Si number density = 15.808320 Si / 1000 Ang^3
#
#
#
# Elastic Constant Matrix: (Units=GPa)
#
#
# Indices 1 2 3 4 5 6 
#
# 1 64.0496 54.3422 41.7836 0.0000 0.0000 0.0000
# 2 54.3422 121.0923 44.9801 0.0000 -0.0001 0.0001
# 3 41.7836 44.9801 80.6204 -0.0001 0.0000 0.0001
# 4 0.0000 0.0000 -0.0001 20.8794 0.0000 0.0000
# 5 0.0000 -0.0001 0.0000 0.0000 17.3316 0.0000
# 6 0.0000 0.0001 0.0001 0.0000 0.0000 28.6468
#
#
#
# Elastic Compliance Matrix: (Units=1/GPa)
#
#
# Indices 1 2 3 4 5 6 
#
# 1 0.030899 -0.009988 -0.010442 0.000000 0.000000 0.000000
# 2 -0.009988 0.013645 -0.002437 0.000000 0.000000 0.000000
# 3 -0.010442 -0.002437 0.019175 0.000000 0.000000 0.000000
# 4 0.000000 0.000000 0.000000 0.047894 0.000000 0.000000
# 5 0.000000 0.000000 0.000000 0.000000 0.057698 0.000000
# 6 0.000000 0.000000 0.000000 0.000000 0.000000 0.034908
#
#
# Mechanical properties :
#
#
# Convention : Reuss Voigt Hill
#
# Bulk Modulus (GPa) = 55.59604 60.88599 58.24102
# Shear Modulus (GPa) = 19.53531 21.68199 20.60865
#
# Velocity S-wave (km/s) = 3.51915 3.70747 3.61454
# Velocity P-wave (km/s) = 7.19429 7.54492 7.37169
#
# Compressibility (1/GPa) = 0.01798689
#
# Stress axis : x y z
#
# Youngs Moduli (GPa) = 32.36400 73.28464 52.15135
#
# Poissons Ratio (x) = 0.73194 0.54454
# Poissons Ratio (y) = 0.32324 0.12708
# Poissons Ratio (z) = 0.33793 0.17858
#
# Static dielectric constant tensor:
#      x y z
#    x 1.538240 0.000000 0.000000 
#    y 0.000000 1.507310 0.000000 
#    z 0.000000 0.000000 1.523960 
# 
# From -- ./inp_files/14754.got.cif
#   From: 2010.05.17/outbox.cif.g08.bks.cpg/sg46_8_cif.got.tgz:14754.got - 2010.06.03 19:58:25.
