data_PCOD9378022
_publ_section_title
;
Structure prediction by ZEFSAII (Michael W. Deem and Ramdas Pophale) SiO2 
 PCOD9378022
Probable space group: I M A 2
;
_chemical_formula_sum "Si O2"
_cell_formula_units_Z 56
_cell_length_a 8.507532
_cell_length_b 14.047216
_cell_length_c 30.506680
_cell_angle_alpha 90.000000
_cell_angle_beta 90.000000
_cell_angle_gamma 90.000000
_cell_volume 3645.766066
_symmetry_space_group_name_H-M "I M A 2"
_symmetry_group_IT_number 46
_symmetry_cell_setting 'orthorhombic'
loop_
_space_group_symop_operation_xyz
x,y,z
-x,-y,z
1/2-x,y,z
1/2+x,-y,z
1/2+x,1/2+y,1/2+z
1/2-x,1/2-y,1/2+z
-x,1/2+y,1/2+z
x,1/2-y,1/2+z
loop_
_atom_site_type_symbol
_atom_site_label
_atom_site_fract_x
_atom_site_fract_y
_atom_site_fract_z
Si Si1 0.438470 0.604514 0.767760
Si Si2 0.060859 0.608722 0.596137
Si Si3 0.439362 0.891774 0.999984
Si Si4 0.559384 0.108494 0.904385
Si Si5 0.938495 0.394931 0.226957
Si Si6 0.941146 0.292509 0.316083
Si Si7 0.437076 0.208719 0.182206
O O1 0.500000 0.500000 0.778031
O O2 0.250000 0.603616 0.766667
O O3 0.490253 0.686433 0.801948
O O4 0.498101 0.639196 0.720284
O O5 0.250000 0.606873 0.598336
O O6 0.011633 0.646535 0.547672
O O7 0.000000 0.500000 0.600480
O O8 0.995761 0.671464 0.635542
O O9 0.250000 0.892009 0.000052
O O10 0.500000 0.000000 0.999706
O O11 0.489590 0.852334 0.952473
O O12 0.750000 0.106308 0.903384
O O13 0.503461 0.169568 0.862913
O O14 0.500000 0.000000 0.900187
O O15 0.750000 0.393756 0.225576
O O16 0.988334 0.361772 0.276035
O O17 0.000000 0.500000 0.217546
O O18 0.001709 0.313750 0.194492
O O19 0.750000 0.292650 0.317001
O O20 0.250000 0.207414 0.183655
#
# Coordination Sequence:
#
# PCOD9378022 Si02
#       7
#     8   8   8   8   8   8   8
#     4  10  19  32  46  63  87 116 146 182 220 259
#     4  10  18  29  43  63  89 117 146 180 218 262
#     4   8  15  25  40  60  85 113 142 173 211 255
#     4   9  15  26  42  63  88 115 143 173 208 252
#     4  10  19  32  47  66  91 119 147 180 215 253
#     4   8  16  28  44  64  88 115 145 176 211 252
#     4  11  21  32  46  65  86 115 149 182 218 259
#
# _framework density 15.360284
#
# number of rings (size 3 to 8) (size 9 to 14) (size 15 to 20)
#    0.000    2.571    0.000    4.286    0.000    0.571 
#    0.000    3.571    0.000    0.000    0.000    1.000 
#    0.000    2.286    0.000    0.000    0.000    0.000 
#
# Total GULP energy -155980.756484 kJ/mol
# GULP energy per Si atom -5570.741303 kJ/mol
# Density = 1.532532 g / cm^3
# Si number density = 15.360284 Si / 1000 Ang^3
#
#
#
# Elastic Constant Matrix: (Units=GPa)
#
#
# Indices 1 2 3 4 5 6 
#
# 1 47.7591 24.5436 29.9240 0.0000 0.0000 0.0000
# 2 24.5436 95.2882 69.7752 0.0000 0.0000 0.0000
# 3 29.9240 69.7752 165.9926 0.0000 0.0000 0.0000
# 4 0.0000 0.0000 0.0000 23.9399 0.0000 0.0000
# 5 0.0000 0.0000 0.0000 0.0000 10.7119 0.0000
# 6 0.0000 0.0000 0.0000 0.0000 0.0000 21.7127
#
#
#
# Elastic Compliance Matrix: (Units=1/GPa)
#
#
# Indices 1 2 3 4 5 6 
#
# 1 0.024879 -0.004513 -0.002588 0.000000 0.000000 0.000000
# 2 -0.004513 0.015980 -0.005904 0.000000 0.000000 0.000000
# 3 -0.002588 -0.005904 0.008972 0.000000 0.000000 0.000000
# 4 0.000000 0.000000 0.000000 0.041771 0.000000 0.000000
# 5 0.000000 0.000000 0.000000 0.000000 0.093354 0.000000
# 6 0.000000 0.000000 0.000000 0.000000 0.000000 0.046056
#
#
# Mechanical properties :
#
#
# Convention : Reuss Voigt Hill
#
# Bulk Modulus (GPa) = 41.97759 61.94727 51.96243
# Shear Modulus (GPa) = 18.87055 23.59270 21.23162
#
# Velocity S-wave (km/s) = 3.50884 3.92338 3.72188
# Velocity P-wave (km/s) = 6.61845 7.80647 7.23688
#
# Compressibility (1/GPa) = 0.02382224
#
# Stress axis : x y z
#
# Youngs Moduli (GPa) = 40.19416 62.57882 111.45208
#
# Poissons Ratio (x) = 0.28243 0.28843
# Poissons Ratio (y) = 0.18140 0.65796
# Poissons Ratio (z) = 0.10402 0.36944
#
# Static dielectric constant tensor:
#      x y z
#    x 1.520040 0.000000 0.000000 
#    y 0.000000 1.474800 0.000000 
#    z 0.000000 0.000000 1.545500 
# 
# From -- ./inp_files/25231.got.cif
#   From: 2010.05.17/outbox.cif.g08.bks.cpg/sg46_13_cif.got.tgz:25231.got - 2010.06.03 19:58:25.
