data_PCOD9378221
_publ_section_title
;
Structure prediction by ZEFSAII (Michael W. Deem and Ramdas Pophale) SiO2 
 PCOD9378221
Probable space group: I M A 2
;
_chemical_formula_sum "Si O2"
_cell_formula_units_Z 64
_cell_length_a 8.543824
_cell_length_b 19.287707
_cell_length_c 22.140621
_cell_angle_alpha 90.000000
_cell_angle_beta 90.000000
_cell_angle_gamma 90.000000
_cell_volume 3648.570071
_symmetry_space_group_name_H-M "I M A 2"
_symmetry_group_IT_number 46
_symmetry_cell_setting 'orthorhombic'
loop_
_space_group_symop_operation_xyz
x,y,z
-x,-y,z
1/2-x,y,z
1/2+x,-y,z
1/2+x,1/2+y,1/2+z
1/2-x,1/2-y,1/2+z
-x,1/2+y,1/2+z
x,1/2-y,1/2+z
loop_
_atom_site_type_symbol
_atom_site_label
_atom_site_fract_x
_atom_site_fract_y
_atom_site_fract_z
Si Si1 0.061282 0.926835 0.225520
Si Si2 0.938653 0.315993 0.491789
Si Si3 0.938541 0.272404 0.714806
Si Si4 0.937188 0.069950 0.086966
Si Si5 0.062678 0.923325 0.889968
Si Si6 0.061958 0.371324 0.262994
Si Si7 0.437501 0.221098 0.585805
Si Si8 0.937575 0.573197 0.133470
O O1 0.250000 0.930231 0.227558
O O2 0.016508 0.847764 0.242879
O O3 0.006023 0.927009 0.155510
O O4 0.000000 0.000000 0.252501
O O5 0.750000 0.309058 0.489132
O O6 0.985570 0.367219 0.546102
O O7 0.989697 0.358706 0.432582
O O8 0.008945 0.246022 0.519470
O O9 0.750000 0.269102 0.714942
O O10 0.008454 0.207934 0.751718
O O11 0.991779 0.261567 0.644654
O O12 0.750000 0.068810 0.088735
O O13 0.000000 0.000000 0.058476
O O14 0.250000 0.926371 0.894622
O O15 0.011157 0.904697 0.822320
O O16 0.000000 0.000000 0.906343
O O17 0.250000 0.373516 0.267113
O O18 0.011566 0.412460 0.202659
O O19 0.250000 0.226950 0.590714
O O20 0.485297 0.141185 0.596366
O O21 0.750000 0.571170 0.133499
O O22 0.000000 0.500000 0.111619
#
# Coordination Sequence:
#
# PCOD9378221 Si02
#       8
#     8   8   8   8   8   8   8   8
#     4   9  17  27  42  65  95 128 162 200 243 296
#     4  10  20  34  49  68  98 134 174 211 249 299
#     4  10  18  32  51  72 100 133 171 213 262 311
#     4   9  16  27  40  60  89 124 163 199 235 281
#     4  11  23  37  54  76 104 140 181 221 259 304
#     4  10  21  36  53  75 103 134 176 220 260 310
#     4  10  20  32  48  73 102 131 168 210 255 308
#     4   9  19  33  50  75 101 128 162 204 253 307
#
# _framework density 17.541118000000001
#
# number of rings (size 3 to 8) (size 9 to 14) (size 15 to 20)
#    0.000    2.250    1.250    3.000    0.000    6.500 
#    0.000    0.000    0.000    0.000    0.000    0.875 
#    0.000    6.000    0.000    0.000    0.000    0.125 
#
# Total GULP energy -178188.913201 kJ/mol
# GULP energy per Si atom -5568.403538 kJ/mol
# Density = 1.750119 g / cm^3
# Si number density = 17.541118 Si / 1000 Ang^3
#
#
#
# Elastic Constant Matrix: (Units=GPa)
#
#
# Indices 1 2 3 4 5 6 
#
# 1 23.3395 17.7058 14.5535 0.0000 0.0000 0.0000
# 2 17.7058 123.4388 29.2683 0.0000 0.0000 0.0000
# 3 14.5535 29.2683 58.6156 0.0000 0.0000 0.0000
# 4 0.0000 0.0000 0.0000 19.3043 0.0000 0.0000
# 5 0.0000 0.0000 0.0000 0.0000 17.2627 0.0000
# 6 0.0000 0.0000 0.0000 0.0000 0.0000 30.2427
#
#
#
# Elastic Compliance Matrix: (Units=1/GPa)
#
#
# Indices 1 2 3 4 5 6 
#
# 1 0.053405 -0.005123 -0.010702 0.000000 0.000000 0.000000
# 2 -0.005123 0.009681 -0.003562 0.000000 0.000000 0.000000
# 3 -0.010702 -0.003562 0.021496 0.000000 0.000000 0.000000
# 4 0.000000 0.000000 0.000000 0.051802 0.000000 0.000000
# 5 0.000000 0.000000 0.000000 0.000000 0.057929 0.000000
# 6 0.000000 0.000000 0.000000 0.000000 0.000000 0.033066
#
#
# Mechanical properties :
#
#
# Convention : Reuss Voigt Hill
#
# Bulk Modulus (GPa) = 21.82991 36.49436 29.16213
# Shear Modulus (GPa) = 17.76701 22.95303 20.36002
#
# Velocity S-wave (km/s) = 3.18603 3.62128 3.41060
# Velocity P-wave (km/s) = 5.09964 6.19153 5.67193
#
# Compressibility (1/GPa) = 0.04580872
#
# Stress axis : x y z
#
# Youngs Moduli (GPa) = 18.72474 103.30018 46.52041
#
# Poissons Ratio (x) = 0.52919 0.49785
# Poissons Ratio (y) = 0.09592 0.16570
# Poissons Ratio (z) = 0.20039 0.36794
#
# Static dielectric constant tensor:
#      x y z
#    x 1.599260 0.000000 0.000000 
#    y 0.000000 1.678470 0.000000 
#    z 0.000000 0.000000 1.592870 
# 
# From -- ./inp_files/21464.got.cif
#   From: 2010.05.17/outbox.cif.g08.bks.cpg/sg46_11_cif.got.tgz:21464.got - 2010.06.03 19:58:25.
