data_PCOD9378582
_publ_section_title
;
Structure prediction by ZEFSAII (Michael W. Deem and Ramdas Pophale) SiO2 
 PCOD9378582
Probable space group: I M A 2
;
_chemical_formula_sum "Si O2"
_cell_formula_units_Z 48
_cell_length_a 14.903788
_cell_length_b 11.620920
_cell_length_c 13.964088
_cell_angle_alpha 90.000000
_cell_angle_beta 90.000000
_cell_angle_gamma 90.000000
_cell_volume 2418.520388
_symmetry_space_group_name_H-M "I M A 2"
_symmetry_group_IT_number 46
_symmetry_cell_setting 'orthorhombic'
loop_
_space_group_symop_operation_xyz
x,y,z
-x,-y,z
1/2-x,y,z
1/2+x,-y,z
1/2+x,1/2+y,1/2+z
1/2-x,1/2-y,1/2+z
-x,1/2+y,1/2+z
x,1/2-y,1/2+z
loop_
_atom_site_type_symbol
_atom_site_label
_atom_site_fract_x
_atom_site_fract_y
_atom_site_fract_z
Si Si1 0.354359 0.226190 0.424360
Si Si2 0.897804 0.628099 0.594486
Si Si3 0.143494 0.028655 0.295699
Si Si4 0.852039 0.221051 0.226565
Si Si5 0.105398 0.879556 0.036145
Si Si6 0.521390 0.365500 0.340488
O O1 0.250000 0.245203 0.395250
O O2 0.361673 0.263176 0.535650
O O3 0.378601 0.095722 0.393150
O O4 0.428542 0.303535 0.369926
O O5 0.881174 0.611564 0.706582
O O6 0.860149 0.510361 0.546505
O O7 0.003250 0.622992 0.574713
O O8 0.250000 0.015384 0.292119
O O9 0.111359 0.899247 0.274123
O O10 0.750000 0.245846 0.260505
O O11 0.845971 0.198507 0.113050
O O12 0.926881 0.315075 0.249974
O O13 0.093282 0.845235 0.926763
O O14 0.500000 0.500000 0.334788
#
# Coordination Sequence:
#
# PCOD9378582 Si02
#       6
#     8   8   8   8   8   8
#     4  10  19  31  53  83 115 150 193 243 299 353
#     4   9  15  30  53  80 109 144 187 246 287 340
#     4   9  18  32  52  83 113 146 195 240 292 356
#     4  10  22  37  60  88 118 158 198 250 306 361
#     4   9  17  34  55  81 109 145 202 238 292 356
#     4  11  21  38  58  88 121 155 201 252 304 362
#
# _framework density 19.846845999999999
#
# number of rings (size 3 to 8) (size 9 to 14) (size 15 to 20)
#    0.000    2.333    3.333    1.500    0.000    4.000 
#    0.000    0.000   11.000    0.000    0.000    0.000 
#    0.000    0.000    0.000    0.000    0.000    0.000 
#
# Total GULP energy -133641.597186 kJ/mol
# GULP energy per Si atom -5568.399883 kJ/mol
# Density = 1.980167 g / cm^3
# Si number density = 19.846846 Si / 1000 Ang^3
#
#
#
# Elastic Constant Matrix: (Units=GPa)
#
#
# Indices 1 2 3 4 5 6 
#
# 1 74.8636 24.3030 8.5873 0.0000 0.0000 0.0000
# 2 24.3030 49.5814 15.0350 0.0000 0.0000 0.0000
# 3 8.5873 15.0350 43.7122 0.0000 0.0000 0.0000
# 4 0.0000 0.0000 0.0000 28.0620 0.0000 0.0000
# 5 0.0000 0.0000 0.0000 0.0000 22.9430 0.0000
# 6 0.0000 0.0000 0.0000 0.0000 0.0000 10.9176
#
#
#
# Elastic Compliance Matrix: (Units=1/GPa)
#
#
# Indices 1 2 3 4 5 6 
#
# 1 0.015895 -0.007641 -0.000494 0.000000 0.000000 0.000000
# 2 -0.007641 0.026191 -0.007507 0.000000 0.000000 0.000000
# 3 -0.000494 -0.007507 0.025556 0.000000 0.000000 0.000000
# 4 0.000000 0.000000 0.000000 0.035635 0.000000 0.000000
# 5 0.000000 0.000000 0.000000 0.000000 0.043586 0.000000
# 6 0.000000 0.000000 0.000000 0.000000 0.000000 0.091595
#
#
# Mechanical properties :
#
#
# Convention : Reuss Voigt Hill
#
# Bulk Modulus (GPa) = 27.50566 29.33422 28.41994
# Shear Modulus (GPa) = 17.73910 20.39999 19.06955
#
# Velocity S-wave (km/s) = 2.99289 3.20952 3.10310
# Velocity P-wave (km/s) = 5.08254 5.34295 5.21437
#
# Compressibility (1/GPa) = 0.03635616
#
# Stress axis : x y z
#
# Youngs Moduli (GPa) = 62.91329 38.18135 39.12941
#
# Poissons Ratio (x) = 0.29175 0.01934
# Poissons Ratio (y) = 0.48073 0.29376
# Poissons Ratio (z) = 0.03110 0.28664
#
# Static dielectric constant tensor:
#      x y z
#    x 1.722660 0.000000 0.000000 
#    y 0.000000 1.718370 0.000000 
#    z 0.000000 0.000000 1.751420 
# 
# From -- ./inp_files/15851.got.cif
#   From: 2010.05.17/outbox.cif.g08.bks.cpg/sg46_8_cif.got.tgz:15851.got - 2010.06.03 19:58:25.
