data_PCOD9378729
_publ_section_title
;
Structure prediction by ZEFSAII (Michael W. Deem and Ramdas Pophale) SiO2 
 PCOD9378729
Probable space group: I M A 2
;
_chemical_formula_sum "Si O2"
_cell_formula_units_Z 48
_cell_length_a 19.385220
_cell_length_b 14.800472
_cell_length_c 7.681639
_cell_angle_alpha 90.000000
_cell_angle_beta 90.000000
_cell_angle_gamma 90.000000
_cell_volume 2203.942163
_symmetry_space_group_name_H-M "I M A 2"
_symmetry_group_IT_number 46
_symmetry_cell_setting 'orthorhombic'
loop_
_space_group_symop_operation_xyz
x,y,z
-x,-y,z
1/2-x,y,z
1/2+x,-y,z
1/2+x,1/2+y,1/2+z
1/2-x,1/2-y,1/2+z
-x,1/2+y,1/2+z
x,1/2-y,1/2+z
loop_
_atom_site_type_symbol
_atom_site_label
_atom_site_fract_x
_atom_site_fract_y
_atom_site_fract_z
Si Si1 0.426436 0.951269 0.233700
Si Si2 0.985457 0.284101 0.642321
Si Si3 0.411713 0.203940 0.413245
Si Si4 0.674559 0.834301 0.711173
Si Si5 0.061644 0.573135 0.146723
Si Si6 0.670499 0.491390 0.437103
O O1 0.423453 0.852729 0.135580
O O2 0.416273 0.942325 0.442954
O O3 0.500000 0.000000 0.193745
O O4 0.365562 0.999294 0.125748
O O5 0.964165 0.178952 0.661732
O O6 0.045410 0.286474 0.499285
O O7 0.025948 0.331613 0.801889
O O8 0.380796 0.143492 0.562899
O O9 0.351658 0.241635 0.294489
O O10 0.750000 0.825195 0.633459
O O11 0.675055 0.908163 0.858624
O O12 0.121645 0.557401 0.290681
O O13 0.000000 0.500000 0.181204
O O14 0.750000 0.456457 0.445190
#
# Coordination Sequence:
#
# PCOD9378729 Si02
#       6
#     8   8   8   8   8   8
#     4  11  24  41  70 100 130 168 224 279 338 394
#     4  11  20  38  63  98 125 158 215 283 331 391
#     4  10  19  32  61  89 126 162 206 264 333 390
#     4  10  21  37  56  88 131 175 216 257 324 410
#     4  11  23  42  72 100 129 171 222 280 340 399
#     4  11  25  44  64  91 134 180 221 275 336 398
#
# _framework density 21.779156
#
# number of rings (size 3 to 8) (size 9 to 14) (size 15 to 20)
#    0.000    1.333    1.667    5.000    2.333    0.667 
#    0.000    0.833    0.000    0.000    0.000    0.000 
#    0.000    0.000    0.000    0.000    0.000    0.000 
#
# Total GULP energy -133617.398801 kJ/mol
# GULP energy per Si atom -5567.391617 kJ/mol
# Density = 2.172959 g / cm^3
# Si number density = 21.779156 Si / 1000 Ang^3
#
#
#
# Elastic Constant Matrix: (Units=GPa)
#
#
# Indices 1 2 3 4 5 6 
#
# 1 109.7592 24.6907 60.5565 0.0000 0.0000 0.0000
# 2 24.6907 96.9646 14.1758 0.0000 0.0000 0.0000
# 3 60.5565 14.1758 108.7927 0.0000 0.0000 0.0000
# 4 0.0000 0.0000 0.0000 27.5180 0.0000 0.0000
# 5 0.0000 0.0000 0.0000 0.0000 26.4521 0.0000
# 6 0.0000 0.0000 0.0000 0.0000 0.0000 21.7440
#
#
#
# Elastic Compliance Matrix: (Units=1/GPa)
#
#
# Indices 1 2 3 4 5 6 
#
# 1 0.013683 -0.002417 -0.007301 0.000000 0.000000 0.000000
# 2 -0.002417 0.010940 -0.000080 0.000000 0.000000 0.000000
# 3 -0.007301 -0.000080 0.013266 0.000000 0.000000 0.000000
# 4 0.000000 0.000000 0.000000 0.036340 0.000000 0.000000
# 5 0.000000 0.000000 0.000000 0.000000 0.037804 0.000000
# 6 0.000000 0.000000 0.000000 0.000000 0.000000 0.045990
#
#
# Mechanical properties :
#
#
# Convention : Reuss Voigt Hill
#
# Bulk Modulus (GPa) = 54.66667 57.15139 55.90903
# Shear Modulus (GPa) = 27.21575 29.54904 28.38240
#
# Velocity S-wave (km/s) = 3.53884 3.68742 3.61389
# Velocity P-wave (km/s) = 6.46937 6.66541 6.56812
#
# Compressibility (1/GPa) = 0.01829268
#
# Stress axis : x y z
#
# Youngs Moduli (GPa) = 73.08480 91.40632 75.37912
#
# Poissons Ratio (x) = 0.22090 0.55036
# Poissons Ratio (y) = 0.17663 0.00605
# Poissons Ratio (z) = 0.53361 0.00734
#
# Static dielectric constant tensor:
#      x y z
#    x 1.781540 0.000000 0.000000 
#    y 0.000000 1.963110 0.000000 
#    z 0.000000 0.000000 1.929310 
# 
# From -- ./inp_files/7303.got.cif
#   From: 2010.05.17/outbox.cif.g08.bks.cpg/sg46_4_cif.got.tgz:7303.got - 2010.06.03 19:58:25.
