data_PCOD9378814
_publ_section_title
;
Structure prediction by ZEFSAII (Michael W. Deem and Ramdas Pophale) SiO2 
 PCOD9378814
Probable space group: I M A 2
;
_chemical_formula_sum "Si O2"
_cell_formula_units_Z 64
_cell_length_a 8.889175
_cell_length_b 20.897736
_cell_length_c 19.937369
_cell_angle_alpha 90.000000
_cell_angle_beta 90.000000
_cell_angle_gamma 90.000000
_cell_volume 3703.638086
_symmetry_space_group_name_H-M "I M A 2"
_symmetry_group_IT_number 46
_symmetry_cell_setting 'orthorhombic'
loop_
_space_group_symop_operation_xyz
x,y,z
-x,-y,z
1/2-x,y,z
1/2+x,-y,z
1/2+x,1/2+y,1/2+z
1/2-x,1/2-y,1/2+z
-x,1/2+y,1/2+z
x,1/2-y,1/2+z
loop_
_atom_site_type_symbol
_atom_site_label
_atom_site_fract_x
_atom_site_fract_y
_atom_site_fract_z
Si Si1 0.929990 0.933395 0.465510
Si Si2 0.427654 0.613496 0.251603
Si Si3 0.929741 0.615016 0.110854
Si Si4 0.929855 0.184510 0.969365
Si Si5 0.430791 0.814269 0.388611
Si Si6 0.571435 0.266454 0.743539
Si Si7 0.928256 0.766898 0.103276
Si Si8 0.070763 0.432618 0.388164
O O1 0.750000 0.935466 0.462764
O O2 0.974367 0.921222 0.543250
O O3 0.989539 0.874170 0.422363
O O4 0.000000 0.000000 0.442401
O O5 0.250000 0.601071 0.258752
O O6 0.485477 0.593992 0.178056
O O7 0.451826 0.690431 0.255993
O O8 0.516217 0.581244 0.312186
O O9 0.750000 0.608757 0.121091
O O10 0.961358 0.690571 0.098569
O O11 0.750000 0.176346 0.966344
O O12 0.968666 0.249183 0.928413
O O13 0.008568 0.124701 0.934047
O O14 0.984902 0.196258 0.044927
O O15 0.250000 0.822198 0.392721
O O16 0.471313 0.803573 0.310929
O O17 0.750000 0.274709 0.731687
O O18 0.481411 0.285978 0.677502
O O19 0.750000 0.775317 0.095109
O O20 0.250000 0.435040 0.390759
O O21 0.000000 0.500000 0.409633
#
# Coordination Sequence:
#
# PCOD9378814 Si02
#       8
#     8   8   8   8   8   8   8   8
#     4  11  23  38  55  79 113 150 192 234 282 335
#     4  10  19  34  55  81 113 150 190 229 276 334
#     4   9  19  34  51  77 113 152 192 232 274 330
#     4  11  21  37  60  86 114 148 189 234 282 335
#     4  10  20  36  59  84 112 146 188 233 281 332
#     4   9  18  34  55  83 114 147 185 228 279 335
#     4  10  19  33  54  85 116 146 186 232 282 331
#     4  12  25  40  58  81 114 152 191 235 283 337
#
# _framework density 17.280307000000001
#
# number of rings (size 3 to 8) (size 9 to 14) (size 15 to 20)
#    0.000    1.750    2.500    2.625    0.000    3.500 
#    0.000    1.250    0.000    0.750    0.000    1.750 
#    0.000    0.000    0.000    0.000    0.000    0.000 
#
# Total GULP energy -178772.842463 kJ/mol
# GULP energy per Si atom -5586.651327 kJ/mol
# Density = 1.724098 g / cm^3
# Si number density = 17.280307 Si / 1000 Ang^3
#
#
#
# Elastic Constant Matrix: (Units=GPa)
#
#
# Indices 1 2 3 4 5 6 
#
# 1 75.7416 60.7768 49.8796 0.0000 0.0000 0.0000
# 2 60.7768 106.9219 58.4227 0.0000 0.0000 0.0000
# 3 49.8796 58.4227 103.6894 0.0000 0.0000 0.0000
# 4 0.0000 0.0000 0.0000 14.8499 0.0000 0.0000
# 5 0.0000 0.0000 0.0000 0.0000 32.8499 0.0000
# 6 0.0000 0.0000 0.0000 0.0000 0.0000 25.7340
#
#
#
# Elastic Compliance Matrix: (Units=1/GPa)
#
#
# Indices 1 2 3 4 5 6 
#
# 1 0.026794 -0.011829 -0.006224 0.000000 0.000000 0.000000
# 2 -0.011829 0.018735 -0.004866 0.000000 0.000000 0.000000
# 3 -0.006224 -0.004866 0.015380 0.000000 0.000000 0.000000
# 4 0.000000 0.000000 0.000000 0.067340 0.000000 0.000000
# 5 0.000000 0.000000 0.000000 0.000000 0.030441 0.000000
# 6 0.000000 0.000000 0.000000 0.000000 0.000000 0.038859
#
#
# Mechanical properties :
#
#
# Convention : Reuss Voigt Hill
#
# Bulk Modulus (GPa) = 66.35375 69.39011 67.87193
# Shear Modulus (GPa) = 20.12790 22.50503 21.31646
#
# Velocity S-wave (km/s) = 3.41660 3.61273 3.51603
# Velocity P-wave (km/s) = 7.35160 7.59244 7.47299
#
# Compressibility (1/GPa) = 0.01507074
#
# Stress axis : x y z
#
# Youngs Moduli (GPa) = 37.32226 53.37501 65.02050
#
# Poissons Ratio (x) = 0.63139 0.40468
# Poissons Ratio (y) = 0.44150 0.31637
# Poissons Ratio (z) = 0.23229 0.25971
#
# Static dielectric constant tensor:
#      x y z
#    x 1.572590 0.000000 0.000000 
#    y 0.000000 1.572960 0.000000 
#    z 0.000000 0.000000 1.573350 
# 
# From -- ./inp_files/18522.got.cif
#   From: 2010.05.17/outbox.cif.g08.bks.cpg/sg46_10_cif.got.tgz:18522.got - 2010.06.03 19:58:25.
