data_PCOD9378492
_publ_section_title
;
Structure prediction by ZEFSAII (Michael W. Deem and Ramdas Pophale) SiO2 
 PCOD9378492
Probable space group: I M A 2
;
_chemical_formula_sum "Si O2"
_cell_formula_units_Z 56
_cell_length_a 8.992554
_cell_length_b 15.589281
_cell_length_c 19.970535
_cell_angle_alpha 90.000000
_cell_angle_beta 90.000000
_cell_angle_gamma 90.000000
_cell_volume 2799.618401
_symmetry_space_group_name_H-M "I M A 2"
_symmetry_group_IT_number 46
_symmetry_cell_setting 'orthorhombic'
loop_
_space_group_symop_operation_xyz
x,y,z
-x,-y,z
1/2-x,y,z
1/2+x,-y,z
1/2+x,1/2+y,1/2+z
1/2-x,1/2-y,1/2+z
-x,1/2+y,1/2+z
x,1/2-y,1/2+z
loop_
_atom_site_type_symbol
_atom_site_label
_atom_site_fract_x
_atom_site_fract_y
_atom_site_fract_z
Si Si1 0.078902 0.583092 0.824820
Si Si2 0.916765 0.582688 0.100676
Si Si3 0.076478 0.321399 0.444529
Si Si4 0.430021 0.593815 0.575618
Si Si5 0.587520 0.616294 0.949193
Si Si6 0.069995 0.721996 0.308052
Si Si7 0.928113 0.259818 0.158739
O O1 0.250000 0.580089 0.807178
O O2 0.021881 0.677653 0.808207
O O3 0.000000 0.500000 0.795441
O O4 0.047690 0.583800 0.904343
O O5 0.750000 0.590775 0.127797
O O6 0.000000 0.500000 0.129085
O O7 0.007340 0.669458 0.109908
O O8 0.905980 0.573757 0.020891
O O9 0.250000 0.347693 0.444151
O O10 0.072137 0.218911 0.458378
O O11 0.989913 0.370375 0.503819
O O12 0.005123 0.327356 0.369916
O O13 0.500000 0.500000 0.587879
O O14 0.250000 0.588239 0.573981
O O15 0.473526 0.665034 0.632429
O O16 0.750000 0.601778 0.914811
O O17 0.250000 0.718580 0.316843
O O18 0.030024 0.701904 0.231681
O O19 0.750000 0.258081 0.157733
#
# Coordination Sequence:
#
# PCOD9378492 Si02
#       7
#     8   8   8   8   8   8   8
#     4  10  19  30  48  75 109 145 184 229 279 340
#     4  11  22  36  56  84 116 150 189 236 291 352
#     4  10  19  36  60  88 118 151 196 248 299 355
#     4  11  23  39  63  93 125 166 211 259 313 368
#     4   9  18  32  52  79 111 144 179 225 278 336
#     4   9  20  38  58  81 113 156 200 246 303 366
#     4  10  22  41  62  86 120 160 203 251 307 367
#
# _framework density 20.002727
#
# number of rings (size 3 to 8) (size 9 to 14) (size 15 to 20)
#    0.000    2.000    1.429    2.143    0.000    5.143 
#    0.000    0.714    0.000    3.429    0.000    0.000 
#    0.000    0.000    0.000    0.000    0.000    0.000 
#
# Total GULP energy -155995.019496 kJ/mol
# GULP energy per Si atom -5571.250696 kJ/mol
# Density = 1.995720 g / cm^3
# Si number density = 20.002727 Si / 1000 Ang^3
#
#
#
# Elastic Constant Matrix: (Units=GPa)
#
#
# Indices 1 2 3 4 5 6 
#
# 1 31.4540 9.9785 19.1287 0.0000 0.0000 0.0000
# 2 9.9785 62.7926 -8.2422 0.0000 0.0000 0.0000
# 3 19.1287 -8.2422 63.6899 0.0000 0.0000 0.0000
# 4 0.0000 0.0000 0.0000 96.0741 0.0000 0.0000
# 5 0.0000 0.0000 0.0000 0.0000 15.6787 0.0000
# 6 0.0000 0.0000 0.0000 0.0000 0.0000 30.1695
#
#
#
# Elastic Compliance Matrix: (Units=1/GPa)
#
#
# Indices 1 2 3 4 5 6 
#
# 1 0.043111 -0.008698 -0.014074 0.000000 0.000000 0.000000
# 2 -0.008698 0.017956 0.004936 0.000000 0.000000 0.000000
# 3 -0.014074 0.004936 0.020567 0.000000 0.000000 0.000000
# 4 0.000000 0.000000 0.000000 0.010409 0.000000 0.000000
# 5 0.000000 0.000000 0.000000 0.000000 0.063781 0.000000
# 6 0.000000 0.000000 0.000000 0.000000 0.000000 0.033146
#
#
# Mechanical properties :
#
#
# Convention : Reuss Voigt Hill
#
# Bulk Modulus (GPa) = 21.75718 22.18515 21.97116
# Shear Modulus (GPa) = 20.83679 37.52257 29.17968
#
# Velocity S-wave (km/s) = 3.23104 4.33583 3.82355
# Velocity P-wave (km/s) = 4.98198 6.01507 5.52274
#
# Compressibility (1/GPa) = 0.04596185
#
# Stress axis : x y z
#
# Youngs Moduli (GPa) = 23.19611 55.69300 48.62226
#
# Poissons Ratio (x) = 0.48442 0.68429
# Poissons Ratio (y) = 0.20176 -0.24000
# Poissons Ratio (z) = 0.32645 -0.27490
#
# Static dielectric constant tensor:
#      x y z
#    x 1.730630 0.000000 0.000000 
#    y 0.000000 1.650300 0.000000 
#    z 0.000000 0.000000 1.769070 
# 
# From -- ./inp_files/21042.got.cif
#   From: 2010.05.17/outbox.cif.g08.bks.cpg/sg46_11_cif.got.tgz:21042.got - 2010.06.03 19:58:25.
