data_PCOD9378925
_publ_section_title
;
Structure prediction by ZEFSAII (Michael W. Deem and Ramdas Pophale) SiO2 
 PCOD9378925
Probable space group: I M A 2
;
_chemical_formula_sum "Si O2"
_cell_formula_units_Z 48
_cell_length_a 8.939691
_cell_length_b 31.932239
_cell_length_c 9.136353
_cell_angle_alpha 90.000000
_cell_angle_beta 90.000000
_cell_angle_gamma 90.000000
_cell_volume 2608.103067
_symmetry_space_group_name_H-M "I M A 2"
_symmetry_group_IT_number 46
_symmetry_cell_setting 'orthorhombic'
loop_
_space_group_symop_operation_xyz
x,y,z
-x,-y,z
1/2-x,y,z
1/2+x,-y,z
1/2+x,1/2+y,1/2+z
1/2-x,1/2-y,1/2+z
-x,1/2+y,1/2+z
x,1/2-y,1/2+z
loop_
_atom_site_type_symbol
_atom_site_label
_atom_site_fract_x
_atom_site_fract_y
_atom_site_fract_z
Si Si1 0.929628 0.709359 0.672970
Si Si2 0.072113 0.871063 0.667540
Si Si3 0.430803 0.713605 0.994502
Si Si4 0.576520 0.956953 0.013766
Si Si5 0.928931 0.369611 0.513342
Si Si6 0.421287 0.042647 0.656962
O O1 0.750000 0.711508 0.676271
O O2 0.999408 0.712163 0.834051
O O3 0.998179 0.747572 0.580346
O O4 0.985322 0.666333 0.599837
O O5 0.250000 0.876960 0.657696
O O6 0.032284 0.829604 0.578325
O O7 0.996304 0.913687 0.612802
O O8 0.037338 0.864886 0.839713
O O9 0.250000 0.717870 0.988538
O O10 0.750000 0.954658 0.057697
O O11 0.486162 0.915607 0.058429
O O12 0.500000 0.000000 0.063998
O O13 0.573038 0.957714 0.835354
O O14 0.750000 0.365983 0.533197
O O15 0.250000 0.042125 0.611490
O O16 0.500000 0.000000 0.606771
#
# Coordination Sequence:
#
# PCOD9378925 Si02
#       6
#     8   8   8   8   8   8
#     4  12  25  40  59  85 114 144 182 231 280 331
#     4   9  19  34  55  81 109 142 184 228 271 321
#     4  11  23  41  62  83 110 147 186 226 276 337
#     4   9  16  27  45  74 109 145 184 228 274 322
#     4  10  19  34  56  82 112 148 187 229 277 331
#     4   9  16  26  45  73 108 144 180 222 268 316
#
# _framework density 18.404181999999999
#
# number of rings (size 3 to 8) (size 9 to 14) (size 15 to 20)
#    0.000    2.000    0.000    4.500    0.000    7.333 
#    0.000    0.000    0.000    1.000    0.000    2.333 
#    0.000    0.000    0.000    0.000    0.000    0.000 
#
# Total GULP energy -134018.451273 kJ/mol
# GULP energy per Si atom -5584.102136 kJ/mol
# Density = 1.836229 g / cm^3
# Si number density = 18.404182 Si / 1000 Ang^3
#
#
#
# Elastic Constant Matrix: (Units=GPa)
#
#
# Indices 1 2 3 4 5 6 
#
# 1 112.8878 94.6935 56.3596 0.0003 -0.0004 -0.0002
# 2 94.6935 203.8829 76.9841 0.0014 0.0001 0.0000
# 3 56.3596 76.9841 69.0612 0.0040 0.0002 0.0001
# 4 0.0003 0.0014 0.0040 19.0633 0.0001 0.0001
# 5 -0.0004 0.0001 0.0002 0.0001 19.6067 0.0004
# 6 -0.0002 0.0000 0.0001 0.0001 0.0004 41.3714
#
#
#
# Elastic Compliance Matrix: (Units=1/GPa)
#
#
# Indices 1 2 3 4 5 6 
#
# 1 0.017155 -0.004630 -0.008838 0.000002 0.000000 0.000000
# 2 -0.004630 0.009720 -0.007056 0.000001 0.000000 0.000000
# 3 -0.008838 -0.007056 0.029558 -0.000006 0.000000 0.000000
# 4 0.000002 0.000001 -0.000006 0.052457 0.000000 0.000000
# 5 0.000000 0.000000 0.000000 0.000000 0.051003 0.000000
# 6 0.000000 0.000000 0.000000 0.000000 0.000000 0.024171
#
#
# Mechanical properties :
#
#
# Convention : Reuss Voigt Hill
#
# Bulk Modulus (GPa) = 65.00460 93.54513 79.27487
# Shear Modulus (GPa) = 21.71640 26.52791 24.12216
#
# Velocity S-wave (km/s) = 3.43880 3.80071 3.62427
# Velocity P-wave (km/s) = 7.15292 8.37849 7.78984
#
# Compressibility (1/GPa) = 0.01538353
#
# Stress axis : x y z
#
# Youngs Moduli (GPa) = 58.29200 102.88494 33.83178
#
# Poissons Ratio (x) = 0.47640 0.29901
# Poissons Ratio (y) = 0.26992 0.23871
# Poissons Ratio (z) = 0.51520 0.72594
#
# Static dielectric constant tensor:
#      x y z
#    x 1.613950 0.000000 0.000000 
#    y 0.000000 1.620000 0.000000 
#    z 0.000000 0.000000 1.630840 
# 
# From -- ./inp_files/3935.got.cif
#   From: 2010.05.17/outbox.cif.g08.bks.cpg/sg46_2_cif.got.tgz:3935.got - 2010.06.03 19:58:25.
