data_PCOD9378627
_publ_section_title
;
Structure prediction by ZEFSAII (Michael W. Deem and Ramdas Pophale) SiO2 
 PCOD9378627
Probable space group: I M A 2
;
_chemical_formula_sum "Si O2"
_cell_formula_units_Z 48
_cell_length_a 8.557250
_cell_length_b 9.246940
_cell_length_c 32.786457
_cell_angle_alpha 90.000000
_cell_angle_beta 90.000000
_cell_angle_gamma 90.000000
_cell_volume 2594.339140
_symmetry_space_group_name_H-M "I M A 2"
_symmetry_group_IT_number 46
_symmetry_cell_setting 'orthorhombic'
loop_
_space_group_symop_operation_xyz
x,y,z
-x,-y,z
1/2-x,y,z
1/2+x,-y,z
1/2+x,1/2+y,1/2+z
1/2-x,1/2-y,1/2+z
-x,1/2+y,1/2+z
x,1/2-y,1/2+z
loop_
_atom_site_type_symbol
_atom_site_label
_atom_site_fract_x
_atom_site_fract_y
_atom_site_fract_z
Si Si1 0.562745 0.336108 0.081090
Si Si2 0.062255 0.165449 0.496025
Si Si3 0.938305 0.835525 0.408003
Si Si4 0.562560 0.162156 0.741436
Si Si5 0.561255 0.162248 0.161225
Si Si6 0.061984 0.164476 0.318707
O O1 0.500000 0.500000 0.084850
O O2 0.750000 0.342164 0.080355
O O3 0.510473 0.243769 0.120019
O O4 0.504551 0.271923 0.037944
O O5 0.250000 0.163600 0.498515
O O6 0.013972 0.230082 0.451874
O O7 0.000000 0.000000 0.495473
O O8 0.750000 0.839422 0.408282
O O9 0.986021 0.776016 0.363719
O O10 0.000000 0.000000 0.408033
O O11 0.750000 0.160041 0.741758
O O12 0.509943 0.250340 0.701360
O O13 0.503325 0.241377 0.781981
O O14 0.500000 0.000000 0.739626
O O15 0.750000 0.159748 0.161220
O O16 0.500000 0.000000 0.162448
O O17 0.250000 0.161567 0.316724
O O18 0.000000 0.000000 0.315228
#
# Coordination Sequence:
#
# PCOD9378627 Si02
#       6
#     8   8   8   8   8   8
#     4  10  19  32  50  76 105 135 170 210 253 301
#     4   9  15  25  43  70 101 135 170 208 250 295
#     4   8  15  26  43  69 102 135 170 208 250 295
#     4  11  23  39  57  79 104 135 172 213 260 312
#     4  10  23  39  56  77 103 133 169 209 255 307
#     4  10  19  33  53  79 109 141 175 216 259 306
#
# _framework density 18.501821
#
# number of rings (size 3 to 8) (size 9 to 14) (size 15 to 20)
#    0.000    2.333    0.000    4.000    0.000    5.333 
#    0.000    0.000    0.000    1.000    0.000    2.333 
#    0.000    0.000    0.000    0.000    0.000    0.000 
#
# Total GULP energy -133788.019910 kJ/mol
# GULP energy per Si atom -5574.500830 kJ/mol
# Density = 1.845971 g / cm^3
# Si number density = 18.501821 Si / 1000 Ang^3
#
#
#
# Elastic Constant Matrix: (Units=GPa)
#
#
# Indices 1 2 3 4 5 6 
#
# 1 41.5670 20.3675 45.2691 0.0000 0.0000 0.0000
# 2 20.3675 81.8503 84.5506 0.0000 0.0000 0.0000
# 3 45.2691 84.5506 248.6775 0.0000 0.0000 0.0000
# 4 0.0000 0.0000 0.0000 26.8487 0.0000 0.0000
# 5 0.0000 0.0000 0.0000 0.0000 29.6817 0.0000
# 6 0.0000 0.0000 0.0000 0.0000 0.0000 24.5811
#
#
#
# Elastic Compliance Matrix: (Units=1/GPa)
#
#
# Indices 1 2 3 4 5 6 
#
# 1 0.030432 -0.002852 -0.004570 0.000000 0.000000 0.000000
# 2 -0.002852 0.019099 -0.005974 0.000000 0.000000 0.000000
# 3 -0.004570 -0.005974 0.006885 0.000000 0.000000 0.000000
# 4 0.000000 0.000000 0.000000 0.037246 0.000000 0.000000
# 5 0.000000 0.000000 0.000000 0.000000 0.033691 0.000000
# 6 0.000000 0.000000 0.000000 0.000000 0.000000 0.040682
#
#
# Mechanical properties :
#
#
# Convention : Reuss Voigt Hill
#
# Bulk Modulus (GPa) = 33.75802 74.71880 54.23841
# Shear Modulus (GPa) = 24.42595 31.01613 27.72104
#
# Velocity S-wave (km/s) = 3.63739 4.09881 3.87497
# Velocity P-wave (km/s) = 5.99384 7.92922 7.02847
#
# Compressibility (1/GPa) = 0.02962259
#
# Stress axis : x y z
#
# Youngs Moduli (GPa) = 32.86001 52.36001 145.25256
#
# Poissons Ratio (x) = 0.14931 0.66385
# Poissons Ratio (y) = 0.09370 0.86780
# Poissons Ratio (z) = 0.15018 0.31282
#
# Static dielectric constant tensor:
#      x y z
#    x 1.629690 0.000000 0.000000 
#    y 0.000000 1.592360 0.000000 
#    z 0.000000 0.000000 1.706790 
# 
# From -- ./inp_files/24998.got.cif
#   From: 2010.05.17/outbox.cif.g08.bks.cpg/sg46_13_cif.got.tgz:24998.got - 2010.06.03 19:58:25.
