data_PCOD9378392
_publ_section_title
;
Structure prediction by ZEFSAII (Michael W. Deem and Ramdas Pophale) SiO2 
 PCOD9378392
Probable space group: I M A 2
;
_chemical_formula_sum "Si O2"
_cell_formula_units_Z 48
_cell_length_a 14.467526
_cell_length_b 10.189506
_cell_length_c 14.983866
_cell_angle_alpha 90.000000
_cell_angle_beta 90.000000
_cell_angle_gamma 90.000000
_cell_volume 2208.875720
_symmetry_space_group_name_H-M "I M A 2"
_symmetry_group_IT_number 46
_symmetry_cell_setting 'orthorhombic'
loop_
_space_group_symop_operation_xyz
x,y,z
-x,-y,z
1/2-x,y,z
1/2+x,-y,z
1/2+x,1/2+y,1/2+z
1/2-x,1/2-y,1/2+z
-x,1/2+y,1/2+z
x,1/2-y,1/2+z
loop_
_atom_site_type_symbol
_atom_site_label
_atom_site_fract_x
_atom_site_fract_y
_atom_site_fract_z
Si Si1 0.857028 0.471441 0.722020
Si Si2 0.107002 0.471363 0.091761
Si Si3 0.646355 0.301154 0.213303
Si Si4 0.485127 0.647749 0.375758
Si Si5 0.355941 0.620777 0.926923
Si Si6 0.640738 0.758935 0.742356
O O1 0.750000 0.485715 0.693930
O O2 0.892037 0.337591 0.677986
O O3 0.863384 0.431061 0.825919
O O4 0.896840 0.615438 0.714997
O O5 0.153295 0.597935 0.134711
O O6 0.132571 0.350187 0.154494
O O7 0.000000 0.500000 0.103078
O O8 0.128786 0.491816 0.988196
O O9 0.750000 0.279246 0.248678
O O10 0.584717 0.362343 0.291088
O O11 0.500000 0.500000 0.413840
O O12 0.433604 0.762475 0.434071
O O13 0.420001 0.307060 0.326696
O O14 0.250000 0.668005 0.941767
O O15 0.750000 0.752271 0.766321
#
# Coordination Sequence:
#
# PCOD9378392 Si02
#       6
#     8   8   8   8   8   8
#     4   8  19  36  60  90 115 159 215 258 315 382
#     4  12  23  39  60  96 126 169 218 262 332 389
#     4  10  18  36  61  87 124 164 217 266 313 390
#     4  11  21  37  60  96 123 163 224 269 323 382
#     4  10  23  41  64  91 132 179 217 263 328 405
#     4  11  21  37  61  93 127 163 213 276 332 379
#
# _framework density 21.730511
#
# number of rings (size 3 to 8) (size 9 to 14) (size 15 to 20)
#    0.000    1.667    3.333    3.000    2.333    2.667 
#    0.000    1.667    0.000    0.000    0.000    0.000 
#    0.000    0.000    0.000    0.000    0.000    0.000 
#
# Total GULP energy -133681.152872 kJ/mol
# GULP energy per Si atom -5570.048036 kJ/mol
# Density = 2.168105 g / cm^3
# Si number density = 21.730511 Si / 1000 Ang^3
#
#
#
# Elastic Constant Matrix: (Units=GPa)
#
#
# Indices 1 2 3 4 5 6 
#
# 1 131.5140 18.4132 -1.7709 0.0000 0.0000 0.0000
# 2 18.4132 170.7319 18.1879 0.0000 0.0000 0.0000
# 3 -1.7709 18.1879 28.2203 0.0000 0.0000 0.0000
# 4 0.0000 0.0000 0.0000 10.1712 0.0000 0.0000
# 5 0.0000 0.0000 0.0000 0.0000 23.5278 0.0000
# 6 0.0000 0.0000 0.0000 0.0000 0.0000 25.6364
#
#
#
# Elastic Compliance Matrix: (Units=1/GPa)
#
#
# Indices 1 2 3 4 5 6 
#
# 1 0.007752 -0.000953 0.001101 0.000000 0.000000 0.000000
# 2 -0.000953 0.006406 -0.004189 0.000000 0.000000 0.000000
# 3 0.001101 -0.004189 0.038204 0.000000 0.000000 0.000000
# 4 0.000000 0.000000 0.000000 0.098316 0.000000 0.000000
# 5 0.000000 0.000000 0.000000 0.000000 0.042503 0.000000
# 6 0.000000 0.000000 0.000000 0.000000 0.000000 0.039007
#
#
# Mechanical properties :
#
#
# Convention : Reuss Voigt Hill
#
# Bulk Modulus (GPa) = 22.58342 44.45851 33.52096
# Shear Modulus (GPa) = 19.60548 31.57616 25.59082
#
# Velocity S-wave (km/s) = 3.00694 3.81606 3.43541
# Velocity P-wave (km/s) = 4.74032 6.31822 5.58527
#
# Compressibility (1/GPa) = 0.04428028
#
# Stress axis : x y z
#
# Youngs Moduli (GPa) = 128.99810 156.09986 26.17518
#
# Poissons Ratio (x) = 0.14881 -0.02882
# Poissons Ratio (y) = 0.12298 0.10964
# Poissons Ratio (z) = -0.14201 0.65384
#
# Static dielectric constant tensor:
#      x y z
#    x 1.657360 0.000000 0.000000 
#    y 0.000000 1.879040 0.000000 
#    z 0.000000 0.000000 1.799570 
# 
# From -- ./inp_files/19385.got.cif
#   From: 2010.05.17/outbox.cif.g08.bks.cpg/sg46_10_cif.got.tgz:19385.got - 2010.06.03 19:58:25.
