data_PCOD9378325
_publ_section_title
;
Structure prediction by ZEFSAII (Michael W. Deem and Ramdas Pophale) SiO2 
 PCOD9378325
Probable space group: I M A 2
;
_chemical_formula_sum "Si O2"
_cell_formula_units_Z 64
_cell_length_a 8.784339
_cell_length_b 21.170049
_cell_length_c 20.192109
_cell_angle_alpha 90.000000
_cell_angle_beta 90.000000
_cell_angle_gamma 90.000000
_cell_volume 3755.023270
_symmetry_space_group_name_H-M "I M A 2"
_symmetry_group_IT_number 46
_symmetry_cell_setting 'orthorhombic'
loop_
_space_group_symop_operation_xyz
x,y,z
-x,-y,z
1/2-x,y,z
1/2+x,-y,z
1/2+x,1/2+y,1/2+z
1/2-x,1/2-y,1/2+z
-x,1/2+y,1/2+z
x,1/2-y,1/2+z
loop_
_atom_site_type_symbol
_atom_site_label
_atom_site_fract_x
_atom_site_fract_y
_atom_site_fract_z
Si Si1 0.068364 0.882741 0.887510
Si Si2 0.933838 0.566759 0.670151
Si Si3 0.432054 0.116512 0.027751
Si Si4 0.568712 0.233755 0.388721
Si Si5 0.064557 0.188852 0.670860
Si Si6 0.433910 0.311620 0.754754
Si Si7 0.432472 0.433449 0.253421
Si Si8 0.567815 0.733460 0.028879
O O1 0.250000 0.888679 0.882471
O O2 0.026421 0.808202 0.881159
O O3 0.989543 0.919119 0.827661
O O4 0.013319 0.903623 0.960161
O O5 0.750000 0.564905 0.670648
O O6 0.981432 0.581246 0.594356
O O7 0.981510 0.625007 0.716655
O O8 0.000000 0.500000 0.691774
O O9 0.250000 0.109043 0.019803
O O10 0.461365 0.191470 0.038140
O O11 0.750000 0.229659 0.386069
O O12 0.496389 0.195539 0.328500
O O13 0.509884 0.213381 0.460726
O O14 0.250000 0.189663 0.670502
O O15 0.015971 0.249997 0.713061
O O16 0.016596 0.124814 0.707057
O O17 0.015793 0.197549 0.594920
O O18 0.250000 0.310808 0.756567
O O19 0.500000 0.500000 0.231107
O O20 0.250000 0.435824 0.253104
O O21 0.750000 0.726240 0.022370
#
# Coordination Sequence:
#
# PCOD9378325 Si02
#       8
#     8   8   8   8   8   8   8   8
#     4  10  20  33  49  74 108 142 177 213 253 309
#     4  10  21  35  53  77 107 139 176 218 261 311
#     4   9  17  31  51  74 102 139 177 214 255 303
#     4  10  20  32  49  80 113 137 167 216 269 310
#     4   9  17  32  57  81  99 129 178 222 256 302
#     4  10  18  34  57  79 101 136 181 219 255 307
#     4  11  22  36  54  76 105 140 176 217 263 311
#     4   9  16  31  55  79 101 131 175 220 258 307
#
# _framework density 17.043835000000001
#
# number of rings (size 3 to 8) (size 9 to 14) (size 15 to 20)
#    0.000    2.250    2.500    1.125    0.000    2.500 
#    0.000    3.125    0.000    0.750    0.000    1.750 
#    0.000    0.000    0.000    0.000    0.000    0.000 
#
# Total GULP energy -178571.764315 kJ/mol
# GULP energy per Si atom -5580.367635 kJ/mol
# Density = 1.700504 g / cm^3
# Si number density = 17.043835 Si / 1000 Ang^3
#
#
#
# Elastic Constant Matrix: (Units=GPa)
#
#
# Indices 1 2 3 4 5 6 
#
# 1 17.5840 29.5496 26.1089 0.0000 0.0000 0.0000
# 2 29.5496 114.8997 69.9698 0.0000 0.0000 0.0000
# 3 26.1089 69.9698 127.1791 0.0000 0.0000 0.0000
# 4 0.0000 0.0000 0.0000 21.9275 0.0000 0.0000
# 5 0.0000 0.0000 0.0000 0.0000 7.8325 0.0000
# 6 0.0000 0.0000 0.0000 0.0000 0.0000 22.9160
#
#
#
# Elastic Compliance Matrix: (Units=1/GPa)
#
#
# Indices 1 2 3 4 5 6 
#
# 1 0.108625 -0.021589 -0.010422 0.000000 0.000000 0.000000
# 2 -0.021589 0.017379 -0.005129 0.000000 0.000000 0.000000
# 3 -0.010422 -0.005129 0.012825 0.000000 0.000000 0.000000
# 4 0.000000 0.000000 0.000000 0.045605 0.000000 0.000000
# 5 0.000000 0.000000 0.000000 0.000000 0.127673 0.000000
# 6 0.000000 0.000000 0.000000 0.000000 0.000000 0.043638
#
#
# Mechanical properties :
#
#
# Convention : Reuss Voigt Hill
#
# Bulk Modulus (GPa) = 15.49255 56.76883 36.13069
# Shear Modulus (GPa) = 11.07320 19.47084 15.27202
#
# Velocity S-wave (km/s) = 2.55167 3.38360 2.99665
# Velocity P-wave (km/s) = 4.21792 6.97459 5.76350
#
# Compressibility (1/GPa) = 0.06454714
#
# Stress axis : x y z
#
# Youngs Moduli (GPa) = 9.20599 57.54059 77.97564
#
# Poissons Ratio (x) = 1.24225 0.81268
# Poissons Ratio (y) = 0.19875 0.39996
# Poissons Ratio (z) = 0.09595 0.29514
#
# Static dielectric constant tensor:
#      x y z
#    x 1.570870 0.000000 0.000000 
#    y 0.000000 1.574500 0.000000 
#    z 0.000000 0.000000 1.566510 
# 
# From -- ./inp_files/18574.got.cif
#   From: 2010.05.17/outbox.cif.g08.bks.cpg/sg46_10_cif.got.tgz:18574.got - 2010.06.03 19:58:25.
