data_PCOD9378208
_publ_section_title
;
Structure prediction by ZEFSAII (Michael W. Deem and Ramdas Pophale) SiO2 
 PCOD9378208
Probable space group: I M A 2
;
_chemical_formula_sum "Si O2"
_cell_formula_units_Z 48
_cell_length_a 14.969164
_cell_length_b 8.970646
_cell_length_c 17.070749
_cell_angle_alpha 90.000000
_cell_angle_beta 90.000000
_cell_angle_gamma 90.000000
_cell_volume 2292.312603
_symmetry_space_group_name_H-M "I M A 2"
_symmetry_group_IT_number 46
_symmetry_cell_setting 'orthorhombic'
loop_
_space_group_symop_operation_xyz
x,y,z
-x,-y,z
1/2-x,y,z
1/2+x,-y,z
1/2+x,1/2+y,1/2+z
1/2-x,1/2-y,1/2+z
-x,1/2+y,1/2+z
x,1/2-y,1/2+z
loop_
_atom_site_type_symbol
_atom_site_label
_atom_site_fract_x
_atom_site_fract_y
_atom_site_fract_z
Si Si1 0.650225 0.410613 0.965130
Si Si2 0.919136 0.896692 0.061007
Si Si3 0.347385 0.249530 0.905274
Si Si4 0.026821 0.661553 0.844957
Si Si5 0.954185 0.362553 0.120527
Si Si6 0.851246 0.383209 0.695754
O O1 0.750000 0.360124 0.985842
O O2 0.659205 0.575755 0.928600
O O3 0.604516 0.293414 0.905224
O O4 0.587070 0.420694 0.039819
O O5 0.968937 0.758182 0.102425
O O6 0.869649 0.993687 0.128174
O O7 0.864261 0.839088 0.986459
O O8 0.000000 0.000000 0.031029
O O9 0.250000 0.207313 0.871316
O O10 0.436536 0.241806 0.850703
O O11 0.074520 0.618647 0.763959
O O12 0.000000 0.500000 0.878174
O O13 0.871634 0.278219 0.159732
O O14 0.000000 0.500000 0.164490
O O15 0.750000 0.400256 0.724976
#
# Coordination Sequence:
#
# PCOD9378208 Si02
#       6
#     8   8   8   8   8   8
#     4  10  18  31  60  91 115 150 209 260 300 362
#     4  10  20  36  60  91 128 168 199 257 328 381
#     4  10  19  34  61  92 117 153 208 264 314 374
#     4  10  19  37  57  87 122 167 208 262 316 368
#     4  11  19  37  60  88 122 163 205 258 315 371
#     4  11  24  39  60  91 129 167 211 262 325 393
#
# _framework density 20.939553
#
# number of rings (size 3 to 8) (size 9 to 14) (size 15 to 20)
#    0.000    1.667    3.333    3.500    0.000    0.667 
#    0.000    0.833    0.000    4.000    0.000    0.000 
#    0.000    0.000    0.000    0.000    0.000    0.000 
#
# Total GULP energy -133637.229531 kJ/mol
# GULP energy per Si atom -5568.217897 kJ/mol
# Density = 2.089189 g / cm^3
# Si number density = 20.939553 Si / 1000 Ang^3
#
#
#
# Elastic Constant Matrix: (Units=GPa)
#
#
# Indices 1 2 3 4 5 6 
#
# 1 172.7864 32.2232 59.0337 0.0000 0.0000 0.0000
# 2 32.2232 53.1023 -4.1396 0.0000 0.0000 0.0000
# 3 59.0337 -4.1396 48.7237 0.0000 0.0000 0.0000
# 4 0.0000 0.0000 0.0000 18.4082 0.0000 0.0000
# 5 0.0000 0.0000 0.0000 0.0000 100.0666 0.0000
# 6 0.0000 0.0000 0.0000 0.0000 0.0000 14.9448
#
#
#
# Elastic Compliance Matrix: (Units=1/GPa)
#
#
# Indices 1 2 3 4 5 6 
#
# 1 0.013338 -0.009416 -0.016961 0.000000 0.000000 0.000000
# 2 -0.009416 0.025604 0.013584 0.000000 0.000000 0.000000
# 3 -0.016961 0.013584 0.042227 0.000000 0.000000 0.000000
# 4 0.000000 0.000000 0.000000 0.054323 0.000000 0.000000
# 5 0.000000 0.000000 0.000000 0.000000 0.009993 0.000000
# 6 0.000000 0.000000 0.000000 0.000000 0.000000 0.066913
#
#
# Mechanical properties :
#
#
# Convention : Reuss Voigt Hill
#
# Bulk Modulus (GPa) = 17.99067 49.87187 33.93127
# Shear Modulus (GPa) = 19.49217 39.18360 29.33788
#
# Velocity S-wave (km/s) = 3.05434 4.33051 3.74715
# Velocity P-wave (km/s) = 4.58792 6.99094 5.91279
#
# Compressibility (1/GPa) = 0.05558436
#
# Stress axis : x y z
#
# Youngs Moduli (GPa) = 74.97269 39.05601 23.68129
#
# Poissons Ratio (x) = 0.36775 0.40165
# Poissons Ratio (y) = 0.70594 -0.32168
# Poissons Ratio (z) = 1.27158 -0.53053
#
# Static dielectric constant tensor:
#      x y z
#    x 1.685060 0.000000 0.000000 
#    y 0.000000 1.788380 0.000000 
#    z 0.000000 0.000000 1.843900 
# 
# From -- ./inp_files/19393.got.cif
#   From: 2010.05.17/outbox.cif.g08.bks.cpg/sg46_10_cif.got.tgz:19393.got - 2010.06.03 19:58:25.
