data_PCOD9378574
_publ_section_title
;
Structure prediction by ZEFSAII (Michael W. Deem and Ramdas Pophale) SiO2 
 PCOD9378574
Probable space group: I M A 2
;
_chemical_formula_sum "Si O2"
_cell_formula_units_Z 64
_cell_length_a 8.946560
_cell_length_b 21.154072
_cell_length_c 20.171193
_cell_angle_alpha 90.000000
_cell_angle_beta 90.000000
_cell_angle_gamma 90.000000
_cell_volume 3817.522820
_symmetry_space_group_name_H-M "I M A 2"
_symmetry_group_IT_number 46
_symmetry_cell_setting 'orthorhombic'
loop_
_space_group_symop_operation_xyz
x,y,z
-x,-y,z
1/2-x,y,z
1/2+x,-y,z
1/2+x,1/2+y,1/2+z
1/2-x,1/2-y,1/2+z
-x,1/2+y,1/2+z
x,1/2-y,1/2+z
loop_
_atom_site_type_symbol
_atom_site_label
_atom_site_fract_x
_atom_site_fract_y
_atom_site_fract_z
Si Si1 0.071521 0.260762 0.895910
Si Si2 0.428677 0.434085 0.674240
Si Si3 0.427748 0.734524 0.033221
Si Si4 0.430005 0.190248 0.254789
Si Si5 0.927732 0.385477 0.541457
Si Si6 0.069647 0.878188 0.893597
Si Si7 0.569439 0.191937 0.676790
Si Si8 0.570301 0.434388 0.254237
O O1 0.250000 0.255011 0.898540
O O2 0.030668 0.302901 0.832262
O O3 0.001149 0.191168 0.885927
O O4 0.010942 0.284649 0.966285
O O5 0.500000 0.500000 0.695909
O O6 0.250000 0.438528 0.675434
O O7 0.476140 0.375141 0.720308
O O8 0.483407 0.418936 0.599731
O O9 0.250000 0.727156 0.023313
O O10 0.453775 0.809641 0.045017
O O11 0.473298 0.698263 0.099735
O O12 0.250000 0.194799 0.249319
O O13 0.501007 0.249298 0.216365
O O14 0.750000 0.396376 0.550363
O O15 0.971079 0.404189 0.466350
O O16 0.250000 0.870653 0.893397
O O17 0.026437 0.919717 0.830492
O O18 0.750000 0.196812 0.680493
O O19 0.524741 0.126038 0.710444
O O20 0.500000 0.500000 0.232112
O O21 0.750000 0.438710 0.251843
#
# Coordination Sequence:
#
# PCOD9378574 Si02
#       8
#     8   8   8   8   8   8   8   8
#     4  10  19  31  51  79 107 135 167 211 264 311
#     4  11  23  37  52  73 104 139 175 216 260 310
#     4   9  18  32  52  79 106 133 170 215 257 308
#     4  10  21  35  53  79 107 134 171 218 263 308
#     4   9  17  31  51  75 103 135 172 212 253 303
#     4   9  18  33  51  73 104 140 177 212 249 301
#     4  10  19  34  57  79 102 137 178 216 258 308
#     4  10  21  35  52  75 105 141 177 215 259 306
#
# _framework density 16.764799
#
# number of rings (size 3 to 8) (size 9 to 14) (size 15 to 20)
#    0.000    2.250    2.500    1.500    0.000    5.000 
#    0.000    1.250    0.000    0.750    0.000    5.250 
#    0.000    0.000    0.000    0.000    0.000    0.000 
#
# Total GULP energy -178521.421894 kJ/mol
# GULP energy per Si atom -5578.794434 kJ/mol
# Density = 1.672664 g / cm^3
# Si number density = 16.764799 Si / 1000 Ang^3
#
#
#
# Elastic Constant Matrix: (Units=GPa)
#
#
# Indices 1 2 3 4 5 6 
#
# 1 16.5762 31.2989 31.4745 0.0000 0.0000 0.0000
# 2 31.2989 114.9391 68.9829 0.0000 0.0000 0.0000
# 3 31.4745 68.9829 123.3268 0.0000 0.0000 0.0000
# 4 0.0000 0.0000 0.0000 19.2052 0.0000 0.0000
# 5 0.0000 0.0000 0.0000 0.0000 18.6881 0.0000
# 6 0.0000 0.0000 0.0000 0.0000 0.0000 23.1320
#
#
#
# Elastic Compliance Matrix: (Units=1/GPa)
#
#
# Indices 1 2 3 4 5 6 
#
# 1 0.164269 -0.029461 -0.025445 0.000000 0.000000 0.000000
# 2 -0.029461 0.018381 -0.002762 0.000000 0.000000 0.000000
# 3 -0.025445 -0.002762 0.016147 0.000000 0.000000 0.000000
# 4 0.000000 0.000000 0.000000 0.052069 0.000000 0.000000
# 5 0.000000 0.000000 0.000000 0.000000 0.053510 0.000000
# 6 0.000000 0.000000 0.000000 0.000000 0.000000 0.043230
#
#
# Mechanical properties :
#
#
# Convention : Reuss Voigt Hill
#
# Bulk Modulus (GPa) = 11.98160 57.59495 34.78827
# Shear Modulus (GPa) = 10.18824 20.41078 15.29951
#
# Velocity S-wave (km/s) = 2.46786 3.49302 3.02420
# Velocity P-wave (km/s) = 3.90933 7.12022 5.74371
#
# Compressibility (1/GPa) = 0.08346131
#
# Stress axis : x y z
#
# Youngs Moduli (GPa) = 6.08759 54.40526 61.92911
#
# Poissons Ratio (x) = 1.60281 1.57576
# Poissons Ratio (y) = 0.17934 0.17108
# Poissons Ratio (z) = 0.15490 0.15029
#
# Static dielectric constant tensor:
#      x y z
#    x 1.562740 0.000000 0.000000 
#    y 0.000000 1.545160 0.000000 
#    z 0.000000 0.000000 1.582970 
# 
# From -- ./inp_files/21311.got.cif
#   From: 2010.05.17/outbox.cif.g08.bks.cpg/sg46_11_cif.got.tgz:21311.got - 2010.06.03 19:58:25.
