data_PCOD9378332
_publ_section_title
;
Structure prediction by ZEFSAII (Michael W. Deem and Ramdas Pophale) SiO2 
 PCOD9378332
Probable space group: I M A 2
;
_chemical_formula_sum "Si O2"
_cell_formula_units_Z 64
_cell_length_a 21.504541
_cell_length_b 15.564647
_cell_length_c 8.161360
_cell_angle_alpha 90.000000
_cell_angle_beta 90.000000
_cell_angle_gamma 90.000000
_cell_volume 2731.693617
_symmetry_space_group_name_H-M "I M A 2"
_symmetry_group_IT_number 46
_symmetry_cell_setting 'orthorhombic'
loop_
_space_group_symop_operation_xyz
x,y,z
-x,-y,z
1/2-x,y,z
1/2+x,-y,z
1/2+x,1/2+y,1/2+z
1/2-x,1/2-y,1/2+z
-x,1/2+y,1/2+z
x,1/2-y,1/2+z
loop_
_atom_site_type_symbol
_atom_site_label
_atom_site_fract_x
_atom_site_fract_y
_atom_site_fract_z
Si Si1 0.382158 0.368868 0.552130
Si Si2 0.366962 0.870434 0.449926
Si Si3 0.139945 0.691808 0.325062
Si Si4 0.679351 0.488384 0.388280
Si Si5 0.489528 0.366700 0.995678
Si Si6 0.002641 0.180279 0.878773
Si Si7 0.137427 0.049067 0.537066
Si Si8 0.322143 0.213442 0.366655
O O1 0.352289 0.462163 0.536922
O O2 0.454612 0.372865 0.503543
O O3 0.349020 0.304841 0.421632
O O4 0.362450 0.325147 0.719596
O O5 0.342828 0.791621 0.341728
O O6 0.360912 0.832906 0.634180
O O7 0.441291 0.885187 0.431601
O O8 0.336979 0.964761 0.443221
O O9 0.177924 0.614169 0.404108
O O10 0.071176 0.682192 0.405078
O O11 0.750000 0.516941 0.366669
O O12 0.641375 0.519360 0.226476
O O13 0.490424 0.348878 0.191562
O O14 0.433417 0.432875 0.980373
O O15 0.474170 0.276979 0.908488
O O16 0.171572 0.139230 0.505877
O O17 0.250000 0.221436 0.319775
#
# Coordination Sequence:
#
# PCOD9378332 Si02
#       8
#     8   8   8   8   8   8   8   8
#     4  12  23  40  60  85 120 161 203 249 302 367
#     4   9  20  37  62  86 117 156 196 253 309 359
#     4   9  21  39  62  87 120 153 199 258 309 360
#     4  11  23  41  62  87 118 162 210 252 301 366
#     4  10  18  34  57  89 122 157 196 241 298 363
#     4  10  19  35  59  89 121 156 198 240 304 360
#     4  11  21  37  60  88 121 158 203 247 298 367
#     4  12  25  39  57  86 124 165 203 245 298 368
#
# _framework density 23.428688999999999
#
# number of rings (size 3 to 8) (size 9 to 14) (size 15 to 20)
#    0.000    1.500    2.500    3.375    0.000    1.500 
#    0.000    3.125    2.750    0.000    0.000    0.000 
#    0.000    0.000    0.000    0.000    0.000    0.000 
#
# Total GULP energy -178772.342292 kJ/mol
# GULP energy per Si atom -5586.635697 kJ/mol
# Density = 2.337536 g / cm^3
# Si number density = 23.428689 Si / 1000 Ang^3
#
#
#
# Elastic Constant Matrix: (Units=GPa)
#
#
# Indices 1 2 3 4 5 6 
#
# 1 28.8201 2.3854 -0.6230 0.0000 0.0000 0.0000
# 2 2.3854 94.9801 -11.8133 0.0000 0.0000 0.0000
# 3 -0.6230 -11.8133 33.5066 0.0000 0.0000 0.0000
# 4 0.0000 0.0000 0.0000 26.2097 0.0000 0.0000
# 5 0.0000 0.0000 0.0000 0.0000 5.6053 0.0000
# 6 0.0000 0.0000 0.0000 0.0000 0.0000 24.4141
#
#
#
# Elastic Compliance Matrix: (Units=1/GPa)
#
#
# Indices 1 2 3 4 5 6 
#
# 1 0.034774 -0.000829 0.000354 0.000000 0.000000 0.000000
# 2 -0.000829 0.011031 0.003874 0.000000 0.000000 0.000000
# 3 0.000354 0.003874 0.031217 0.000000 0.000000 0.000000
# 4 0.000000 0.000000 0.000000 0.038154 0.000000 0.000000
# 5 0.000000 0.000000 0.000000 0.000000 0.178402 0.000000
# 6 0.000000 0.000000 0.000000 0.000000 0.000000 0.040960
#
#
# Mechanical properties :
#
#
# Convention : Reuss Voigt Hill
#
# Bulk Modulus (GPa) = 11.93032 15.24500 13.58766
# Shear Modulus (GPa) = 14.05754 22.40302 18.23028
#
# Velocity S-wave (km/s) = 2.45218 3.09564 2.79250
# Velocity P-wave (km/s) = 3.62226 4.39300 4.02612
#
# Compressibility (1/GPa) = 0.08382004
#
# Stress axis : x y z
#
# Youngs Moduli (GPa) = 28.75690 90.65236 32.03364
#
# Poissons Ratio (x) = 0.07518 -0.01135
# Poissons Ratio (y) = 0.02385 -0.12409
# Poissons Ratio (z) = -0.01019 -0.35117
#
# Static dielectric constant tensor:
#      x y z
#    x 1.902480 0.000000 0.000000 
#    y 0.000000 1.947420 0.000000 
#    z 0.000000 0.000000 1.925590 
# 
# From -- ./inp_files/7957.got.cif
#   From: 2010.05.17/outbox.cif.g08.bks.cpg/sg46_4_cif.got.tgz:7957.got - 2010.06.03 19:58:25.
