data_PCOD9378052
_publ_section_title
;
Structure prediction by ZEFSAII (Michael W. Deem and Ramdas Pophale) SiO2 
 PCOD9378052
Probable space group: I M A 2
;
_chemical_formula_sum "Si O2"
_cell_formula_units_Z 56
_cell_length_a 9.854573
_cell_length_b 18.723937
_cell_length_c 17.451767
_cell_angle_alpha 90.000000
_cell_angle_beta 90.000000
_cell_angle_gamma 90.000000
_cell_volume 3220.137291
_symmetry_space_group_name_H-M "I M A 2"
_symmetry_group_IT_number 46
_symmetry_cell_setting 'orthorhombic'
loop_
_space_group_symop_operation_xyz
x,y,z
-x,-y,z
1/2-x,y,z
1/2+x,-y,z
1/2+x,1/2+y,1/2+z
1/2-x,1/2-y,1/2+z
-x,1/2+y,1/2+z
x,1/2-y,1/2+z
loop_
_atom_site_type_symbol
_atom_site_label
_atom_site_fract_x
_atom_site_fract_y
_atom_site_fract_z
Si Si1 0.090565 0.203813 0.521620
Si Si2 0.903677 0.163528 0.381590
Si Si3 0.401251 0.805273 0.779555
Si Si4 0.911535 0.429400 0.732286
Si Si5 0.905964 0.564705 0.293314
Si Si6 0.602632 0.557953 0.108756
Si Si7 0.909498 0.290609 0.629590
O O1 0.250000 0.220046 0.509159
O O2 0.081272 0.137738 0.580534
O O3 0.014593 0.174352 0.446737
O O4 0.007171 0.268601 0.560178
O O5 0.750000 0.149670 0.411385
O O6 0.898590 0.238527 0.336472
O O7 0.936419 0.104615 0.316719
O O8 0.250000 0.839262 0.778166
O O9 0.514485 0.861306 0.804383
O O10 0.424268 0.769284 0.696490
O O11 0.750000 0.444378 0.727596
O O12 0.940311 0.366348 0.670540
O O13 0.000000 0.500000 0.720531
O O14 0.750000 0.564016 0.321006
O O15 0.900451 0.556916 0.200808
O O16 0.000000 0.500000 0.322896
O O17 0.500000 0.500000 0.078065
O O18 0.750000 0.534983 0.082096
O O19 0.750000 0.290707 0.606990
#
# Coordination Sequence:
#
# PCOD9378052 Si02
#       7
#     8   8   8   8   8   8   8
#     4  11  21  33  49  76 107 136 175 217 258 305
#     4   9  20  36  52  73 103 139 174 208 257 319
#     4   9  17  32  52  72  95 127 170 213 252 301
#     4   9  19  36  57  81 107 138 179 221 266 319
#     4  10  18  29  46  70  99 128 160 199 244 290
#     4   9  19  31  43  66  99 131 163 198 235 285
#     4   9  18  33  54  76 100 135 174 214 263 315
#
# _framework density 17.390564000000001
#
# number of rings (size 3 to 8) (size 9 to 14) (size 15 to 20)
#    0.000    2.571    1.429    2.571    0.000    4.000 
#    0.000    5.714    0.000    0.857    0.000    4.000 
#    0.000    0.000    0.000    0.000    0.000    0.000 
#
# Total GULP energy -155959.872971 kJ/mol
# GULP energy per Si atom -5569.995463 kJ/mol
# Density = 1.735098 g / cm^3
# Si number density = 17.390564 Si / 1000 Ang^3
#
#
#
# Elastic Constant Matrix: (Units=GPa)
#
#
# Indices 1 2 3 4 5 6 
#
# 1 112.3062 62.5887 27.4404 0.0000 0.0000 0.0000
# 2 62.5887 75.5843 -0.5608 0.0000 0.0000 0.0000
# 3 27.4404 -0.5608 19.3362 0.0000 0.0000 0.0000
# 4 0.0000 0.0000 0.0000 7.5333 0.0000 0.0000
# 5 0.0000 0.0000 0.0000 0.0000 10.5158 0.0000
# 6 0.0000 0.0000 0.0000 0.0000 0.0000 36.6806
#
#
#
# Elastic Compliance Matrix: (Units=1/GPa)
#
#
# Indices 1 2 3 4 5 6 
#
# 1 0.049505 -0.041524 -0.071459 0.000000 0.000000 0.000000
# 2 -0.041524 0.048062 0.060321 0.000000 0.000000 0.000000
# 3 -0.071459 0.060321 0.154874 0.000000 0.000000 0.000000
# 4 0.000000 0.000000 0.000000 0.132744 0.000000 0.000000
# 5 0.000000 0.000000 0.000000 0.000000 0.095095 0.000000
# 6 0.000000 0.000000 0.000000 0.000000 0.000000 0.027262
#
#
# Mechanical properties :
#
#
# Convention : Reuss Voigt Hill
#
# Bulk Modulus (GPa) = 6.79718 42.90704 24.85211
# Shear Modulus (GPa) = 7.55395 18.79650 13.17522
#
# Velocity S-wave (km/s) = 2.08642 3.29119 2.75545
# Velocity P-wave (km/s) = 3.11789 6.25849 4.94418
#
# Compressibility (1/GPa) = 0.14711985
#
# Stress axis : x y z
#
# Youngs Moduli (GPa) = 20.19979 20.80636 6.45684
#
# Poissons Ratio (x) = 0.86396 0.46140
# Poissons Ratio (y) = 0.83877 -0.38949
# Poissons Ratio (z) = 1.44345 -1.25507
#
# Static dielectric constant tensor:
#      x y z
#    x 1.621560 0.000000 0.000000 
#    y 0.000000 1.601570 0.000000 
#    z 0.000000 0.000000 1.587310 
# 
# From -- ./inp_files/18463.got.cif
#   From: 2010.05.17/outbox.cif.g08.bks.cpg/sg46_10_cif.got.tgz:18463.got - 2010.06.03 19:58:25.
