data_PCOD9378207
_publ_section_title
;
Structure prediction by ZEFSAII (Michael W. Deem and Ramdas Pophale) SiO2 
 PCOD9378207
Probable space group: I M A 2
;
_chemical_formula_sum "Si O2"
_cell_formula_units_Z 64
_cell_length_a 16.588662
_cell_length_b 14.893354
_cell_length_c 10.911502
_cell_angle_alpha 90.000000
_cell_angle_beta 90.000000
_cell_angle_gamma 90.000000
_cell_volume 2695.804583
_symmetry_space_group_name_H-M "I M A 2"
_symmetry_group_IT_number 46
_symmetry_cell_setting 'orthorhombic'
loop_
_space_group_symop_operation_xyz
x,y,z
-x,-y,z
1/2-x,y,z
1/2+x,-y,z
1/2+x,1/2+y,1/2+z
1/2-x,1/2-y,1/2+z
-x,1/2+y,1/2+z
x,1/2-y,1/2+z
loop_
_atom_site_type_symbol
_atom_site_label
_atom_site_fract_x
_atom_site_fract_y
_atom_site_fract_z
Si Si1 0.339997 0.654732 0.735520
Si Si2 0.095350 0.013245 0.364539
Si Si3 0.902380 0.991976 0.633029
Si Si4 0.661857 0.039325 0.980660
Si Si5 0.111704 0.369525 0.625107
Si Si6 0.972373 0.167288 0.945045
Si Si7 0.078884 0.810144 0.608562
Si Si8 0.409343 0.316826 0.221011
O O1 0.250000 0.684526 0.761755
O O2 0.368161 0.583168 0.833958
O O3 0.339753 0.597962 0.607265
O O4 0.393003 0.741700 0.712719
O O5 0.120194 0.044678 0.498091
O O6 0.113899 0.078616 0.253434
O O7 0.000000 0.000000 0.369443
O O8 0.869841 0.915571 0.723832
O O9 0.876709 0.095873 0.625556
O O10 0.000000 0.000000 0.652250
O O11 0.750000 0.052612 0.923310
O O12 0.653338 0.936366 0.027235
O O13 0.585340 0.083071 0.909513
O O14 0.137375 0.268730 0.665701
O O15 0.021589 0.362722 0.567756
O O16 0.042353 0.194478 0.849181
O O17 0.917709 0.252265 0.984169
O O18 0.983878 0.825835 0.625989
#
# Coordination Sequence:
#
# PCOD9378207 Si02
#       8
#     8   8   8   8   8   8   8   8
#     4   9  18  34  55  83 118 155 202 248 301 371
#     4  10  18  31  58  84 115 149 199 256 299 361
#     4   9  20  33  51  81 119 157 186 241 312 367
#     4   9  18  35  56  84 120 156 199 256 318 380
#     4  10  20  32  58  90 115 153 202 265 314 362
#     4  10  20  34  57  87 116 151 202 255 318 380
#     4   9  19  33  51  81 115 158 189 240 311 365
#     4  10  21  34  55  84 121 153 194 253 313 376
#
# _framework density 23.740594000000002
#
# number of rings (size 3 to 8) (size 9 to 14) (size 15 to 20)
#    0.000    2.500    0.000    3.375    8.750    3.000 
#    0.000    1.250    0.000    3.000    0.000    0.875 
#    0.000    0.000    0.000    0.000    0.000    0.000 
#
# Total GULP energy -178378.287307 kJ/mol
# GULP energy per Si atom -5574.321478 kJ/mol
# Density = 2.368656 g / cm^3
# Si number density = 23.740594 Si / 1000 Ang^3
#
#
#
# Elastic Constant Matrix: (Units=GPa)
#
#
# Indices 1 2 3 4 5 6 
#
# 1 36.8480 9.4935 -2.4246 0.0000 0.0000 0.0000
# 2 9.4935 169.3785 32.5985 0.0000 0.0000 0.0000
# 3 -2.4246 32.5985 86.1710 0.0000 0.0000 0.0000
# 4 0.0000 0.0000 0.0000 32.4730 0.0000 0.0000
# 5 0.0000 0.0000 0.0000 0.0000 37.3213 0.0000
# 6 0.0000 0.0000 0.0000 0.0000 0.0000 5.3407
#
#
#
# Elastic Compliance Matrix: (Units=1/GPa)
#
#
# Indices 1 2 3 4 5 6 
#
# 1 0.027709 -0.001837 0.001475 0.000000 0.000000 0.000000
# 2 -0.001837 0.006489 -0.002507 0.000000 0.000000 0.000000
# 3 0.001475 -0.002507 0.012595 0.000000 0.000000 0.000000
# 4 0.000000 0.000000 0.000000 0.030795 0.000000 0.000000
# 5 0.000000 0.000000 0.000000 0.000000 0.026794 0.000000
# 6 0.000000 0.000000 0.000000 0.000000 0.000000 0.187243
#
#
# Mechanical properties :
#
#
# Convention : Reuss Voigt Hill
#
# Bulk Modulus (GPa) = 24.35765 41.30358 32.83061
# Shear Modulus (GPa) = 16.07473 31.87566 23.97519
#
# Velocity S-wave (km/s) = 2.60494 3.66821 3.18131
# Velocity P-wave (km/s) = 4.39656 5.94783 5.23003
#
# Compressibility (1/GPa) = 0.04105486
#
# Stress axis : x y z
#
# Youngs Moduli (GPa) = 36.08962 154.09964 79.39933
#
# Poissons Ratio (x) = 0.28306 -0.11708
# Poissons Ratio (y) = 0.06629 0.19902
# Poissons Ratio (z) = -0.05322 0.38626
#
# Static dielectric constant tensor:
#      x y z
#    x 1.813700 0.000000 0.000000 
#    y 0.000000 1.996720 0.000000 
#    z 0.000000 0.000000 1.961410 
# 
# From -- ./inp_files/11946.got.cif
#   From: 2010.05.17/outbox.cif.g08.bks.cpg/sg46_6_cif.got.tgz:11946.got - 2010.06.03 19:58:25.
