data_PCOD9378736
_publ_section_title
;
Structure prediction by ZEFSAII (Michael W. Deem and Ramdas Pophale) SiO2 
 PCOD9378736
Probable space group: I M A 2
;
_chemical_formula_sum "Si O2"
_cell_formula_units_Z 52
_cell_length_a 9.450356
_cell_length_b 13.483789
_cell_length_c 17.241022
_cell_angle_alpha 90.000000
_cell_angle_beta 90.000000
_cell_angle_gamma 90.000000
_cell_volume 2196.964922
_symmetry_space_group_name_H-M "I M A 2"
_symmetry_group_IT_number 46
_symmetry_cell_setting 'orthorhombic'
loop_
_space_group_symop_operation_xyz
x,y,z
-x,-y,z
1/2-x,y,z
1/2+x,-y,z
1/2+x,1/2+y,1/2+z
1/2-x,1/2-y,1/2+z
-x,1/2+y,1/2+z
x,1/2-y,1/2+z
loop_
_atom_site_type_symbol
_atom_site_label
_atom_site_fract_x
_atom_site_fract_y
_atom_site_fract_z
Si Si1 0.416958 0.095317 0.846970
Si Si2 0.470079 0.370362 0.563310
Si Si3 0.409821 0.637698 0.724760
Si Si4 0.582220 0.674114 0.875459
Si Si5 0.750000 0.039466 0.019903
Si Si6 0.090028 0.140549 0.549065
Si Si7 0.591033 0.127026 0.694409
O O1 0.250000 0.075615 0.852714
O O2 0.444937 0.205960 0.879545
O O3 0.474502 0.100502 0.758873
O O4 0.500000 0.000000 0.879425
O O5 0.492727 0.396249 0.654172
O O6 0.368699 0.451007 0.527039
O O7 0.624883 0.376572 0.526028
O O8 0.409424 0.260204 0.558003
O O9 0.250000 0.594956 0.721966
O O10 0.485889 0.629919 0.807356
O O11 0.395996 0.754772 0.706285
O O12 0.750000 0.664880 0.856945
O O13 0.556093 0.624965 0.958704
O O14 0.250000 0.104764 0.565885
O O15 0.972885 0.105967 0.610176
O O16 0.750000 0.086060 0.707028
#
# Coordination Sequence:
#
# PCOD9378736 Si02
#       7
#     8   8   8   8   4   8   8
#     4  10  19  34  52  76 105 137 170 209 256 305
#     4  10  19  33  50  73 101 134 169 212 243 298
#     4   9  17  31  50  72  96 125 167 216 251 289
#     4   9  20  34  50  74 103 136 171 202 253 305
#     4  10  20  32  48  74 100 132 174 200 252 300
#     4  10  19  34  50  74 105 137 171 209 248 295
#     4   9  18  31  53  75  97 127 173 217 252 293
#
# _framework density 23.669017
#
# number of rings (size 3 to 8) (size 9 to 14) (size 15 to 20)
#    0.000    2.462    1.538    0.923    2.154    3.077 
#    2.769    0.000    0.000    0.000    4.000    0.000 
#    0.000    0.000    0.000    0.000    0.000    0.000 
#
# Total GULP energy -144845.515956 kJ/mol
# GULP energy per Si atom -5570.981383 kJ/mol
# Density = 2.361515 g / cm^3
# Si number density = 23.669017 Si / 1000 Ang^3
#
#
#
# Elastic Constant Matrix: (Units=GPa)
#
#
# Indices 1 2 3 4 5 6 
#
# 1 160.7635 1.6394 61.7145 0.0000 0.0000 0.0000
# 2 1.6394 55.5332 -10.7123 0.0000 0.0000 0.0000
# 3 61.7145 -10.7123 147.2295 0.0000 0.0000 0.0000
# 4 0.0000 0.0000 0.0000 7.5726 0.0000 0.0000
# 5 0.0000 0.0000 0.0000 0.0000 -11.4218 0.0000
# 6 0.0000 0.0000 0.0000 0.0000 0.0000 43.6118
#
#
#
# Elastic Compliance Matrix: (Units=1/GPa)
#
#
# Indices 1 2 3 4 5 6 
#
# 1 0.007451 -0.000834 -0.003184 0.000000 0.000000 0.000000
# 2 -0.000834 0.018357 0.001685 0.000000 0.000000 0.000000
# 3 -0.003184 0.001685 0.008249 0.000000 0.000000 0.000000
# 4 0.000000 0.000000 0.000000 0.132055 0.000000 0.000000
# 5 0.000000 0.000000 0.000000 0.000000 -0.087551 0.000000
# 6 0.000000 0.000000 0.000000 0.000000 0.000000 0.022930
#
#
# Mechanical properties :
#
#
# Convention : Reuss Voigt Hill
#
# Bulk Modulus (GPa) = 34.02317 52.08993 43.05655
# Shear Modulus (GPa) = 43.12082 28.67816 35.89949
#
# Velocity S-wave (km/s) = 4.27292 3.48463 3.89875
# Velocity P-wave (km/s) = 6.22491 6.18430 6.20464
#
# Compressibility (1/GPa) = 0.02939174
#
# Stress axis : x y z
#
# Youngs Moduli (GPa) = 134.20831 54.47528 121.22131
#
# Poissons Ratio (x) = 0.04544 0.38597
# Poissons Ratio (y) = 0.11195 -0.20429
# Poissons Ratio (z) = 0.42732 -0.09181
#
# Static dielectric constant tensor:
#      x y z
#    x 1.849140 0.000000 0.000000 
#    y 0.000000 1.940030 0.000000 
#    z 0.000000 0.000000 1.965760 
# 
# From -- ./inp_files/18289.got.cif
#   From: 2010.05.17/outbox.cif.g08.bks.cpg/sg46_10_cif.got.tgz:18289.got - 2010.06.03 19:58:25.
