data_PCOD9378137
_publ_section_title
;
Structure prediction by ZEFSAII (Michael W. Deem and Ramdas Pophale) SiO2 
 PCOD9378137
Probable space group: I M A 2
;
_chemical_formula_sum "Si O2"
_cell_formula_units_Z 52
_cell_length_a 14.109889
_cell_length_b 7.108269
_cell_length_c 21.206013
_cell_angle_alpha 90.000000
_cell_angle_beta 90.000000
_cell_angle_gamma 90.000000
_cell_volume 2126.897081
_symmetry_space_group_name_H-M "I M A 2"
_symmetry_group_IT_number 46
_symmetry_cell_setting 'orthorhombic'
loop_
_space_group_symop_operation_xyz
x,y,z
-x,-y,z
1/2-x,y,z
1/2+x,-y,z
1/2+x,1/2+y,1/2+z
1/2-x,1/2-y,1/2+z
-x,1/2+y,1/2+z
x,1/2-y,1/2+z
loop_
_atom_site_type_symbol
_atom_site_label
_atom_site_fract_x
_atom_site_fract_y
_atom_site_fract_z
Si Si1 0.358313 0.391353 0.618300
Si Si2 0.135483 0.232672 0.989666
Si Si3 0.026303 0.279272 0.865285
Si Si4 0.000000 0.500000 0.060814
Si Si5 0.142876 0.078513 0.253218
Si Si6 0.142021 0.947335 0.655172
Si Si7 0.144848 0.653195 0.298216
O O1 0.250000 0.457926 0.616512
O O2 0.391301 0.412429 0.546337
O O3 0.397606 0.466054 0.683958
O O4 0.357253 0.166564 0.634353
O O5 0.250000 0.252114 0.988945
O O6 0.093174 0.206513 0.920846
O O7 0.080046 0.415042 0.015769
O O8 0.933913 0.153593 0.852031
O O9 0.000000 0.500000 0.878611
O O10 0.081296 0.291448 0.798389
O O11 0.060788 0.633299 0.109018
O O12 0.250000 0.155859 0.246819
O O13 0.150793 0.877380 0.285965
O O14 0.250000 0.877049 0.646529
O O15 0.119574 0.927324 0.728987
O O16 0.250000 0.584256 0.315941
#
# Coordination Sequence:
#
# PCOD9378137 Si02
#       7
#     8   8   8   4   8   8   8
#     4   8  16  30  51  78 101 128 166 211 256 300
#     4  10  19  32  48  74 107 134 170 217 258 301
#     4  10  19  31  46  74 101 138 169 206 254 304
#     4  10  18  30  52  78 100 136 170 210 260 316
#     4   9  17  31  51  77 104 132 169 210 254 305
#     4   9  18  32  50  78 107 132 167 213 261 307
#     4   9  19  33  50  76 108 136 169 213 258 306
#
# _framework density 24.448763
#
# number of rings (size 3 to 8) (size 9 to 14) (size 15 to 20)
#    0.000    2.769    0.769    1.846    4.308    0.615 
#    0.000    0.000    0.000    0.000    8.000    0.000 
#    0.000    0.000    0.000    0.000    0.000    0.000 
#
# Total GULP energy -144994.509750 kJ/mol
# GULP energy per Si atom -5576.711913 kJ/mol
# Density = 2.439312 g / cm^3
# Si number density = 24.448763 Si / 1000 Ang^3
#
#
#
# Elastic Constant Matrix: (Units=GPa)
#
#
# Indices 1 2 3 4 5 6 
#
# 1 183.8013 24.7144 99.7703 0.0000 0.0000 0.0000
# 2 24.7144 52.0085 23.2373 0.0000 0.0000 0.0000
# 3 99.7703 23.2373 160.8957 0.0000 0.0000 0.0000
# 4 0.0000 0.0000 0.0000 26.9215 0.0000 0.0000
# 5 0.0000 0.0000 0.0000 0.0000 -58.9947 0.0000
# 6 0.0000 0.0000 0.0000 0.0000 0.0000 19.2747
#
#
#
# Elastic Compliance Matrix: (Units=1/GPa)
#
#
# Indices 1 2 3 4 5 6 
#
# 1 0.008351 -0.001769 -0.004923 0.000000 0.000000 0.000000
# 2 -0.001769 0.020929 -0.001926 0.000000 0.000000 0.000000
# 3 -0.004923 -0.001926 0.009546 0.000000 0.000000 0.000000
# 4 0.000000 0.000000 0.000000 0.037145 0.000000 0.000000
# 5 0.000000 0.000000 0.000000 0.000000 -0.016951 0.000000
# 6 0.000000 0.000000 0.000000 0.000000 0.000000 0.051881
#
#
# Mechanical properties :
#
#
# Convention : Reuss Voigt Hill
#
# Bulk Modulus (GPa) = 46.31661 76.90551 61.61106
# Shear Modulus (GPa) = 36.94609 14.03919 25.49264
#
# Velocity S-wave (km/s) = 3.89159 2.39891 3.23258
# Velocity P-wave (km/s) = 6.25924 6.26076 6.26000
#
# Compressibility (1/GPa) = 0.02159052
#
# Stress axis : x y z
#
# Youngs Moduli (GPa) = 119.75173 47.78154 104.75734
#
# Poissons Ratio (x) = 0.08451 0.51569
# Poissons Ratio (y) = 0.21181 0.20174
# Poissons Ratio (z) = 0.58950 0.09202
#
# Static dielectric constant tensor:
#      x y z
#    x 2.239170 0.000000 0.000000 
#    y 0.000000 2.036830 0.000000 
#    z 0.000000 0.000000 1.970510 
# 
# From -- ./inp_files/22083.got.cif
#   From: 2010.05.17/outbox.cif.g08.bks.cpg/sg46_12_cif.got.tgz:22083.got - 2010.06.03 19:58:25.
