data_PCOD9378662
_publ_section_title
;
Structure prediction by ZEFSAII (Michael W. Deem and Ramdas Pophale) SiO2 
 PCOD9378662
Probable space group: I M A 2
;
_chemical_formula_sum "Si O2"
_cell_formula_units_Z 48
_cell_length_a 16.406828
_cell_length_b 20.415848
_cell_length_c 8.455750
_cell_angle_alpha 90.000000
_cell_angle_beta 90.000000
_cell_angle_gamma 90.000000
_cell_volume 2832.332157
_symmetry_space_group_name_H-M "I M A 2"
_symmetry_group_IT_number 46
_symmetry_cell_setting 'orthorhombic'
loop_
_space_group_symop_operation_xyz
x,y,z
-x,-y,z
1/2-x,y,z
1/2+x,-y,z
1/2+x,1/2+y,1/2+z
1/2-x,1/2-y,1/2+z
-x,1/2+y,1/2+z
x,1/2-y,1/2+z
loop_
_atom_site_type_symbol
_atom_site_label
_atom_site_fract_x
_atom_site_fract_y
_atom_site_fract_z
Si Si1 0.840151 0.346805 0.665410
Si Si2 0.840211 0.722543 0.303574
Si Si3 0.994792 0.325854 0.254409
Si Si4 0.158040 0.350475 0.638333
Si Si5 0.504419 0.077680 0.038944
Si Si6 0.100351 0.725027 0.965635
O O1 0.750000 0.375476 0.642928
O O2 0.915705 0.394761 0.629147
O O3 0.850173 0.317487 0.840775
O O4 0.850522 0.283757 0.549928
O O5 0.750000 0.707226 0.242029
O O6 0.844541 0.695897 0.482000
O O7 0.850985 0.800178 0.283199
O O8 0.911841 0.686424 0.211121
O O9 0.988850 0.389353 0.364672
O O10 0.968641 0.264291 0.366299
O O11 0.938351 0.319701 0.102026
O O12 0.250000 0.379881 0.642724
O O13 0.079466 0.396163 0.618575
O O14 0.500000 0.000000 0.031762
#
# Coordination Sequence:
#
# PCOD9378662 Si02
#       6
#     8   8   8   8   8   8
#     4  10  19  32  52  77 102 128 161 207 256 303
#     4   9  15  24  42  70  94 114 145 189 243 290
#     4   9  16  29  48  70  99 128 158 201 251 299
#     4   9  17  29  48  71  95 119 149 194 243 289
#     4  10  21  34  47  68  98 138 176 198 229 283
#     4   9  17  30  51  76  98 121 154 205 265 308
#
# _framework density 16.947164999999998
#
# number of rings (size 3 to 8) (size 9 to 14) (size 15 to 20)
#    0.000    2.667    0.000    4.500    0.000    0.667 
#    0.000    1.667    0.000    0.000    0.000    9.333 
#    0.000    0.000    0.000    0.000    0.000    0.000 
#
# Total GULP energy -133651.233077 kJ/mol
# GULP energy per Si atom -5568.801378 kJ/mol
# Density = 1.690859 g / cm^3
# Si number density = 16.947165 Si / 1000 Ang^3
#
#
#
# Elastic Constant Matrix: (Units=GPa)
#
#
# Indices 1 2 3 4 5 6 
#
# 1 146.5304 59.2419 34.7960 0.0000 0.0000 0.0000
# 2 59.2419 88.0227 21.4405 0.0000 0.0000 0.0000
# 3 34.7960 21.4405 49.0923 0.0000 0.0000 0.0000
# 4 0.0000 0.0000 0.0000 11.6624 0.0000 0.0000
# 5 0.0000 0.0000 0.0000 0.0000 10.3540 0.0000
# 6 0.0000 0.0000 0.0000 0.0000 0.0000 9.0869
#
#
#
# Elastic Compliance Matrix: (Units=1/GPa)
#
#
# Indices 1 2 3 4 5 6 
#
# 1 0.010288 -0.005761 -0.004776 0.000000 0.000000 0.000000
# 2 -0.005761 0.015939 -0.002878 0.000000 0.000000 0.000000
# 3 -0.004776 -0.002878 0.025012 0.000000 0.000000 0.000000
# 4 0.000000 0.000000 0.000000 0.085746 0.000000 0.000000
# 5 0.000000 0.000000 0.000000 0.000000 0.096581 0.000000
# 6 0.000000 0.000000 0.000000 0.000000 0.000000 0.110049
#
#
# Mechanical properties :
#
#
# Convention : Reuss Voigt Hill
#
# Bulk Modulus (GPa) = 40.96811 57.17802 49.07307
# Shear Modulus (GPa) = 13.20725 17.43178 15.31952
#
# Velocity S-wave (km/s) = 2.79466 3.21065 3.00985
# Velocity P-wave (km/s) = 5.88557 6.89613 6.41080
#
# Compressibility (1/GPa) = 0.02440923
#
# Stress axis : x y z
#
# Youngs Moduli (GPa) = 97.20431 62.74013 39.98112
#
# Poissons Ratio (x) = 0.36142 0.19094
# Poissons Ratio (y) = 0.55995 0.11507
# Poissons Ratio (z) = 0.46424 0.18057
#
# Static dielectric constant tensor:
#      x y z
#    x 1.635540 0.000000 0.000000 
#    y 0.000000 1.531350 0.000000 
#    z 0.000000 0.000000 1.596010 
# 
# From -- ./inp_files/5798.got.cif
#   From: 2010.05.17/outbox.cif.g08.bks.cpg/sg46_3_cif.got.tgz:5798.got - 2010.06.03 19:58:25.
