data_PCOD9378951
_publ_section_title
;
Structure prediction by ZEFSAII (Michael W. Deem and Ramdas Pophale) SiO2 
 PCOD9378951
Probable space group: I M A 2
;
_chemical_formula_sum "Si O2"
_cell_formula_units_Z 64
_cell_length_a 8.635651
_cell_length_b 25.731731
_cell_length_c 15.379674
_cell_angle_alpha 90.000000
_cell_angle_beta 90.000000
_cell_angle_gamma 90.000000
_cell_volume 3417.521182
_symmetry_space_group_name_H-M "I M A 2"
_symmetry_group_IT_number 46
_symmetry_cell_setting 'orthorhombic'
loop_
_space_group_symop_operation_xyz
x,y,z
-x,-y,z
1/2-x,y,z
1/2+x,-y,z
1/2+x,1/2+y,1/2+z
1/2-x,1/2-y,1/2+z
-x,1/2+y,1/2+z
x,1/2-y,1/2+z
loop_
_atom_site_type_symbol
_atom_site_label
_atom_site_fract_x
_atom_site_fract_y
_atom_site_fract_z
Si Si1 0.068403 0.262161 0.343000
Si Si2 0.061342 0.105963 0.607935
Si Si3 0.436516 0.650582 0.811825
Si Si4 0.564540 0.557581 0.291538
Si Si5 0.563921 0.556850 0.926106
Si Si6 0.564550 0.167508 0.114839
Si Si7 0.931815 0.778512 0.635815
Si Si8 0.934822 0.362781 0.431436
O O1 0.250000 0.262489 0.365931
O O2 0.055282 0.277593 0.240893
O O3 0.000823 0.204353 0.351745
O O4 0.979193 0.305687 0.396650
O O5 0.250000 0.107524 0.610013
O O6 0.009874 0.080773 0.698684
O O7 0.014871 0.073200 0.523966
O O8 0.009479 0.165951 0.602548
O O9 0.250000 0.651456 0.814338
O O10 0.500111 0.601033 0.862318
O O11 0.489445 0.650328 0.710516
O O12 0.500000 0.500000 0.303168
O O13 0.750000 0.556132 0.289661
O O14 0.511347 0.595419 0.368336
O O15 0.500000 0.500000 0.905143
O O16 0.750000 0.556527 0.922791
O O17 0.750000 0.164885 0.115993
O O18 0.516991 0.227492 0.102613
O O19 0.510586 0.134916 0.031661
O O20 0.750000 0.773777 0.614108
O O21 0.750000 0.369266 0.428317
#
# Coordination Sequence:
#
# PCOD9378951 Si02
#       8
#     8   8   8   8   8   8   8   8
#     4  10  19  34  57  85 117 153 190 232 283 342
#     4   9  19  36  57  84 118 153 190 233 282 344
#     4  10  21  40  61  84 115 151 193 244 294 343
#     4  11  22  40  61  85 117 155 196 238 288 343
#     4  11  23  40  61  86 115 151 196 243 292 345
#     4   9  21  38  56  82 118 153 189 238 290 341
#     4   9  17  33  55  82 115 153 190 226 276 340
#     4  11  22  37  57  86 119 154 195 239 287 341
#
# _framework density 18.727022999999999
#
# number of rings (size 3 to 8) (size 9 to 14) (size 15 to 20)
#    0.000    2.000    1.250    2.250    1.750    2.000 
#    0.000    3.125    0.000    0.000    0.000    0.000 
#    0.000    0.000    0.000    0.000    0.000    0.000 
#
# Total GULP energy -178723.834314 kJ/mol
# GULP energy per Si atom -5585.119822 kJ/mol
# Density = 1.868440 g / cm^3
# Si number density = 18.727023 Si / 1000 Ang^3
#
#
#
# Elastic Constant Matrix: (Units=GPa)
#
#
# Indices 1 2 3 4 5 6 
#
# 1 34.3946 21.7479 19.8170 0.0000 0.0000 0.0000
# 2 21.7479 141.5447 68.1947 0.0000 0.0000 0.0000
# 3 19.8170 68.1947 96.4840 0.0001 0.0000 0.0000
# 4 0.0000 0.0000 0.0001 25.8903 0.0000 0.0000
# 5 0.0000 0.0000 0.0000 0.0000 20.4927 0.0000
# 6 0.0000 0.0000 0.0000 0.0000 0.0000 30.8856
#
#
#
# Elastic Compliance Matrix: (Units=1/GPa)
#
#
# Indices 1 2 3 4 5 6 
#
# 1 0.033690 -0.002794 -0.004945 0.000000 0.000000 0.000000
# 2 -0.002794 0.010945 -0.007162 0.000000 0.000000 0.000000
# 3 -0.004945 -0.007162 0.016442 0.000000 0.000000 0.000000
# 4 0.000000 0.000000 0.000000 0.038625 0.000000 0.000000
# 5 0.000000 0.000000 0.000000 0.000000 0.048798 0.000000
# 6 0.000000 0.000000 0.000000 0.000000 0.000000 0.032378
#
#
# Mechanical properties :
#
#
# Convention : Reuss Voigt Hill
#
# Bulk Modulus (GPa) = 31.97406 54.66030 43.31718
# Shear Modulus (GPa) = 22.61388 26.29796 24.45592
#
# Velocity S-wave (km/s) = 3.47876 3.75144 3.61767
# Velocity P-wave (km/s) = 5.76598 6.92933 6.37425
#
# Compressibility (1/GPa) = 0.03127536
#
# Stress axis : x y z
#
# Youngs Moduli (GPa) = 29.68239 91.36855 60.81984
#
# Poissons Ratio (x) = 0.25528 0.30075
# Poissons Ratio (y) = 0.08293 0.43558
# Poissons Ratio (z) = 0.14678 0.65436
#
# Static dielectric constant tensor:
#      x y z
#    x 1.631970 0.000000 0.000000 
#    y 0.000000 1.607440 0.000000 
#    z 0.000000 0.000000 1.676800 
# 
# From -- ./inp_files/14478.got.cif
#   From: 2010.05.17/outbox.cif.g08.bks.cpg/sg46_8_cif.got.tgz:14478.got - 2010.06.03 19:58:25.
