data_PCOD9378590
_publ_section_title
;
Structure prediction by ZEFSAII (Michael W. Deem and Ramdas Pophale) SiO2 
 PCOD9378590
Probable space group: I M A 2
;
_chemical_formula_sum "Si O2"
_cell_formula_units_Z 52
_cell_length_a 13.829060
_cell_length_b 22.193480
_cell_length_c 8.928103
_cell_angle_alpha 90.000000
_cell_angle_beta 90.000000
_cell_angle_gamma 90.000000
_cell_volume 2740.168433
_symmetry_space_group_name_H-M "I M A 2"
_symmetry_group_IT_number 46
_symmetry_cell_setting 'orthorhombic'
loop_
_space_group_symop_operation_xyz
x,y,z
-x,-y,z
1/2-x,y,z
1/2+x,-y,z
1/2+x,1/2+y,1/2+z
1/2-x,1/2-y,1/2+z
-x,1/2+y,1/2+z
x,1/2-y,1/2+z
loop_
_atom_site_type_symbol
_atom_site_label
_atom_site_fract_x
_atom_site_fract_y
_atom_site_fract_z
Si Si1 0.512564 0.242410 0.836820
Si Si2 0.638619 0.549595 0.196771
Si Si3 0.537730 0.660239 0.069813
Si Si4 0.357759 0.804801 0.095964
Si Si5 0.863526 0.426551 0.009172
Si Si6 0.000000 0.000000 0.933185
Si Si7 0.357906 0.555517 0.673448
O O1 0.454786 0.201262 0.719095
O O2 0.597764 0.271117 0.737754
O O3 0.456353 0.295548 0.926016
O O4 0.566138 0.203879 0.963244
O O5 0.750000 0.555739 0.247064
O O6 0.610902 0.604429 0.086625
O O7 0.559317 0.546377 0.328527
O O8 0.629605 0.484540 0.116202
O O9 0.432057 0.627905 0.060869
O O10 0.250000 0.782702 0.057122
O O11 0.351453 0.874061 0.138879
O O12 0.750000 0.408550 0.000626
O O13 0.895084 0.448120 0.843550
O O14 0.077539 0.971205 0.043724
O O15 0.250000 0.528753 0.670160
#
# Coordination Sequence:
#
# PCOD9378590 Si02
#       7
#     8   8   8   8   8   4   8
#     4  10  22  33  55  84 113 161 208 236 301 359
#     4  11  24  42  65  92 118 159 210 256 312 367
#     4  11  21  41  60  87 122 161 201 256 305 360
#     4  10  19  32  48  77 116 153 192 242 289 352
#     4  10  21  38  62  91 125 164 204 247 306 377
#     4  12  22  36  62  88 124 156 196 256 308 366
#     4  10  22  36  54  86 123 158 197 244 304 369
#
# _framework density 18.976937
#
# number of rings (size 3 to 8) (size 9 to 14) (size 15 to 20)
#    0.000    1.538    3.077    1.846    2.154    3.077 
#    0.000    0.769    0.000    0.000    0.000    0.000 
#    0.000    0.000    0.000    0.000    0.000    0.000 
#
# Total GULP energy -145049.154527 kJ/mol
# GULP energy per Si atom -5578.813636 kJ/mol
# Density = 1.893374 g / cm^3
# Si number density = 18.976937 Si / 1000 Ang^3
#
#
#
# Elastic Constant Matrix: (Units=GPa)
#
#
# Indices 1 2 3 4 5 6 
#
# 1 53.3582 11.5906 18.0468 0.0000 0.0000 0.0000
# 2 11.5906 56.9380 12.3212 0.0000 0.0001 0.0000
# 3 18.0468 12.3212 81.9134 0.0002 0.0003 0.0002
# 4 0.0000 0.0000 0.0002 26.4201 0.0000 0.0000
# 5 0.0000 0.0001 0.0003 0.0000 26.8235 0.0000
# 6 0.0000 0.0000 0.0002 0.0000 0.0000 7.6182
#
#
#
# Elastic Compliance Matrix: (Units=1/GPa)
#
#
# Indices 1 2 3 4 5 6 
#
# 1 0.020854 -0.003360 -0.004089 0.000000 0.000000 0.000000
# 2 -0.003360 0.018695 -0.002072 0.000000 0.000000 0.000000
# 3 -0.004089 -0.002072 0.013421 0.000000 0.000000 0.000000
# 4 0.000000 0.000000 0.000000 0.037850 0.000000 0.000000
# 5 0.000000 0.000000 0.000000 0.000000 0.037281 0.000000
# 6 0.000000 0.000000 0.000000 0.000000 0.000000 0.131265
#
#
# Mechanical properties :
#
#
# Convention : Reuss Voigt Hill
#
# Bulk Modulus (GPa) = 29.47439 30.68075 30.07757
# Shear Modulus (GPa) = 17.25822 22.18910 19.72366
#
# Velocity S-wave (km/s) = 3.01895 3.42316 3.22739
# Velocity P-wave (km/s) = 5.26474 5.64150 5.45637
#
# Compressibility (1/GPa) = 0.03392776
#
# Stress axis : x y z
#
# Youngs Moduli (GPa) = 47.95197 53.48929 74.51272
#
# Poissons Ratio (x) = 0.17974 0.30469
# Poissons Ratio (y) = 0.16113 0.15437
# Poissons Ratio (z) = 0.19608 0.11082
#
# Static dielectric constant tensor:
#      x y z
#    x 1.681490 0.000000 0.000000 
#    y 0.000000 1.676310 0.000000 
#    z 0.000000 0.000000 1.671780 
# 
# From -- ./inp_files/5861.got.cif
#   From: 2010.05.17/outbox.cif.g08.bks.cpg/sg46_3_cif.got.tgz:5861.got - 2010.06.03 19:58:25.
