data_PCOD9378089
_publ_section_title
;
Structure prediction by ZEFSAII (Michael W. Deem and Ramdas Pophale) SiO2 
 PCOD9378089
Probable space group: I M A 2
;
_chemical_formula_sum "Si O2"
_cell_formula_units_Z 64
_cell_length_a 8.596261
_cell_length_b 19.088603
_cell_length_c 27.216661
_cell_angle_alpha 90.000000
_cell_angle_beta 90.000000
_cell_angle_gamma 90.000000
_cell_volume 4465.998601
_symmetry_space_group_name_H-M "I M A 2"
_symmetry_group_IT_number 46
_symmetry_cell_setting 'orthorhombic'
loop_
_space_group_symop_operation_xyz
x,y,z
-x,-y,z
1/2-x,y,z
1/2+x,-y,z
1/2+x,1/2+y,1/2+z
1/2-x,1/2-y,1/2+z
-x,1/2+y,1/2+z
x,1/2-y,1/2+z
loop_
_atom_site_type_symbol
_atom_site_label
_atom_site_fract_x
_atom_site_fract_y
_atom_site_fract_z
Si Si1 0.064478 0.922252 0.233300
Si Si2 0.062522 0.331584 0.934376
Si Si3 0.437040 0.077591 0.341089
Si Si4 0.562545 0.839366 0.141717
Si Si5 0.937860 0.921872 0.530388
Si Si6 0.564793 0.212630 0.992634
Si Si7 0.064218 0.292847 0.087048
Si Si8 0.935756 0.077484 0.046963
O O1 0.250000 0.925035 0.234002
O O2 0.002011 0.903751 0.287453
O O3 0.005591 0.869806 0.191661
O O4 0.000000 0.000000 0.221845
O O5 0.250000 0.325638 0.935808
O O6 0.017287 0.367800 0.883376
O O7 0.990601 0.255407 0.945171
O O8 0.015979 0.383501 0.979309
O O9 0.250000 0.074315 0.338886
O O10 0.500000 0.000000 0.353338
O O11 0.750000 0.840992 0.143467
O O12 0.508625 0.759624 0.129604
O O13 0.507381 0.887790 0.096163
O O14 0.750000 0.923838 0.530854
O O15 0.992424 0.871243 0.575107
O O16 0.000000 0.000000 0.533036
O O17 0.750000 0.221842 0.998419
O O18 0.476612 0.251031 0.037311
O O19 0.530494 0.130786 0.001793
O O20 0.250000 0.297163 0.092043
O O21 0.750000 0.074756 0.053427
O O22 0.000000 0.000000 0.039568
#
# Coordination Sequence:
#
# PCOD9378089 Si02
#       8
#     8   8   8   8   8   8   8   8
#     4  11  21  32  44  60  83 109 138 174 209 244
#     4   9  18  30  43  58  81 111 141 169 202 243
#     4  10  19  31  45  62  83 109 141 175 207 242
#     4  10  18  30  46  60  78 109 142 173 207 245
#     4   9  16  26  39  59  83 108 136 165 197 235
#     4   9  17  27  41  60  81 104 136 172 203 237
#     4   8  16  29  42  56  79 108 137 167 203 243
#     4  10  19  29  41  61  85 110 139 171 204 243
#
# _framework density 14.330501999999999
#
# number of rings (size 3 to 8) (size 9 to 14) (size 15 to 20)
#    0.000    2.500    0.000    4.875    0.000    5.000 
#    0.000    0.000    0.000    0.000    0.000    0.000 
#    0.000    1.000    0.000    9.000    0.000    5.375 
#
# Total GULP energy -178211.890456 kJ/mol
# GULP energy per Si atom -5569.121577 kJ/mol
# Density = 1.429789 g / cm^3
# Si number density = 14.330502 Si / 1000 Ang^3
#
#
#
# Elastic Constant Matrix: (Units=GPa)
#
#
# Indices 1 2 3 4 5 6 
#
# 1 29.3491 23.5446 23.3157 0.0000 0.0000 0.0000
# 2 23.5446 106.2872 53.2302 0.0000 0.0000 0.0000
# 3 23.3157 53.2302 80.8670 0.0000 0.0000 0.0000
# 4 0.0000 0.0000 0.0000 27.3728 0.0000 0.0000
# 5 0.0000 0.0000 0.0000 0.0000 26.3326 0.0000
# 6 0.0000 0.0000 0.0000 0.0000 0.0000 21.2588
#
#
#
# Elastic Compliance Matrix: (Units=1/GPa)
#
#
# Indices 1 2 3 4 5 6 
#
# 1 0.046118 -0.005306 -0.009804 0.000000 0.000000 0.000000
# 2 -0.005306 0.014646 -0.008111 0.000000 0.000000 0.000000
# 3 -0.009804 -0.008111 0.020532 0.000000 0.000000 0.000000
# 4 0.000000 0.000000 0.000000 0.036533 0.000000 0.000000
# 5 0.000000 0.000000 0.000000 0.000000 0.037976 0.000000
# 6 0.000000 0.000000 0.000000 0.000000 0.000000 0.047039
#
#
# Mechanical properties :
#
#
# Convention : Reuss Voigt Hill
#
# Bulk Modulus (GPa) = 28.69140 46.29825 37.49482
# Shear Modulus (GPa) = 19.16428 22.75371 20.95900
#
# Velocity S-wave (km/s) = 3.66089 3.98902 3.82847
# Velocity P-wave (km/s) = 6.15907 7.32079 6.76491
#
# Compressibility (1/GPa) = 0.03485365
#
# Stress axis : x y z
#
# Youngs Moduli (GPa) = 21.68357 68.27909 48.70562
#
# Poissons Ratio (x) = 0.36228 0.47752
# Poissons Ratio (y) = 0.11505 0.39504
# Poissons Ratio (z) = 0.21259 0.55379
#
# Static dielectric constant tensor:
#      x y z
#    x 1.458690 0.000000 0.000000 
#    y 0.000000 1.489960 0.000000 
#    z 0.000000 0.000000 1.466570 
# 
# From -- ./inp_files/24399.got.cif
#   From: 2010.05.17/outbox.cif.g08.bks.cpg/sg46_13_cif.got.tgz:24399.got - 2010.06.03 19:58:25.
