data_PCOD9378133
_publ_section_title
;
Structure prediction by ZEFSAII (Michael W. Deem and Ramdas Pophale) SiO2 
 PCOD9378133
Probable space group: I M A 2
;
_chemical_formula_sum "Si O2"
_cell_formula_units_Z 64
_cell_length_a 11.531164
_cell_length_b 28.328625
_cell_length_c 10.206000
_cell_angle_alpha 90.000000
_cell_angle_beta 90.000000
_cell_angle_gamma 90.000000
_cell_volume 3333.912584
_symmetry_space_group_name_H-M "I M A 2"
_symmetry_group_IT_number 46
_symmetry_cell_setting 'orthorhombic'
loop_
_space_group_symop_operation_xyz
x,y,z
-x,-y,z
1/2-x,y,z
1/2+x,-y,z
1/2+x,1/2+y,1/2+z
1/2-x,1/2-y,1/2+z
-x,1/2+y,1/2+z
x,1/2-y,1/2+z
loop_
_atom_site_type_symbol
_atom_site_label
_atom_site_fract_x
_atom_site_fract_y
_atom_site_fract_z
Si Si1 0.123742 0.008085 0.902000
Si Si2 0.618173 0.230451 0.343041
Si Si3 0.974932 0.733538 0.103425
Si Si4 0.117779 0.387700 0.325706
Si Si5 0.120439 0.975076 0.202476
Si Si6 0.613629 0.870404 0.546104
Si Si7 0.538821 0.374531 0.789629
Si Si8 0.884163 0.834482 0.060811
O O1 0.250000 0.995448 0.841774
O O2 0.123092 0.064773 0.910326
O O3 0.000000 0.000000 0.833078
O O4 0.119323 0.983104 0.044181
O O5 0.750000 0.246091 0.330209
O O6 0.536453 0.258801 0.242664
O O7 0.571659 0.236048 0.489931
O O8 0.608395 0.174439 0.309568
O O9 0.907342 0.684880 0.080924
O O10 0.894679 0.779042 0.084116
O O11 0.250000 0.372041 0.298027
O O12 0.071685 0.395885 0.180013
O O13 0.063290 0.348875 0.419877
O O14 0.250000 0.992618 0.244548
O O15 0.108774 0.920687 0.246033
O O16 0.000000 0.000000 0.248963
O O17 0.750000 0.879144 0.518191
O O18 0.534693 0.882809 0.422067
O O19 0.450139 0.362210 0.673410
O O20 0.750000 0.848245 0.062226
#
# Coordination Sequence:
#
# PCOD9378133 Si02
#       8
#     8   8   8   8   8   8   8   8
#     4   9  17  31  54  80 104 132 169 216 269 323
#     4  10  20  35  52  72 104 143 189 236 278 329
#     4  10  20  32  51  77 104 144 187 227 278 325
#     4   9  18  32  52  76 104 141 176 213 265 324
#     4  10  20  35  57  84 111 138 177 229 282 336
#     4  10  20  35  53  77 114 149 180 222 275 337
#     4  10  21  34  53  80 108 145 184 225 280 336
#     4  10  18  30  51  80 111 140 182 230 269 320
#
# _framework density 19.196663999999998
#
# number of rings (size 3 to 8) (size 9 to 14) (size 15 to 20)
#    0.000    2.250    0.000    3.750    0.000    2.000 
#    0.000    4.375    0.000    9.750    0.000    0.000 
#    0.000    0.000    0.000    0.000    0.000    0.000 
#
# Total GULP energy -178151.845275 kJ/mol
# GULP energy per Si atom -5567.245165 kJ/mol
# Density = 1.915297 g / cm^3
# Si number density = 19.196664 Si / 1000 Ang^3
#
#
#
# Elastic Constant Matrix: (Units=GPa)
#
#
# Indices 1 2 3 4 5 6 
#
# 1 99.1830 10.8578 6.3195 -0.0001 0.0002 -0.0001
# 2 10.8578 49.6457 24.4319 0.0000 0.0000 -0.0001
# 3 6.3195 24.4319 90.0726 -0.0008 0.0025 -0.0010
# 4 -0.0001 0.0000 -0.0008 19.3273 0.0003 -0.0001
# 5 0.0002 0.0000 0.0025 0.0003 7.4916 0.0002
# 6 -0.0001 -0.0001 -0.0010 -0.0001 0.0002 16.8839
#
#
#
# Elastic Compliance Matrix: (Units=1/GPa)
#
#
# Indices 1 2 3 4 5 6 
#
# 1 0.010331 -0.002196 -0.000129 0.000000 0.000000 0.000000
# 2 -0.002196 0.023712 -0.006278 0.000000 0.000002 0.000000
# 3 -0.000129 -0.006278 0.012814 0.000001 -0.000004 0.000001
# 4 0.000000 0.000000 0.000001 0.051740 -0.000002 0.000000
# 5 0.000000 0.000002 -0.000004 -0.000002 0.133483 -0.000002
# 6 0.000000 0.000000 0.000001 0.000000 -0.000002 0.059228
#
#
# Mechanical properties :
#
#
# Convention : Reuss Voigt Hill
#
# Bulk Modulus (GPa) = 33.72492 35.79108 34.75800
# Shear Modulus (GPa) = 15.70359 21.89337 18.79848
#
# Velocity S-wave (km/s) = 2.86324 3.38076 3.13270
# Velocity P-wave (km/s) = 5.34201 5.82446 5.58844
#
# Compressibility (1/GPa) = 0.02965166
#
# Stress axis : x y z
#
# Youngs Moduli (GPa) = 96.79612 42.17194 78.03927
#
# Poissons Ratio (x) = 0.09260 0.01008
# Poissons Ratio (y) = 0.21255 0.48992
# Poissons Ratio (z) = 0.01251 0.26475
#
# Static dielectric constant tensor:
#      x y z
#    x 1.698840 0.000000 0.000000 
#    y 0.000000 1.682600 0.000000 
#    z 0.000000 0.000000 1.683750 
# 
# From -- ./inp_files/5031.got.cif
#   From: 2010.05.17/outbox.cif.g08.bks.cpg/sg46_3_cif.got.tgz:5031.got - 2010.06.03 19:58:25.
