data_PCOD9378347
_publ_section_title
;
Structure prediction by ZEFSAII (Michael W. Deem and Ramdas Pophale) SiO2 
 PCOD9378347
Probable space group: I M A 2
;
_chemical_formula_sum "Si O2"
_cell_formula_units_Z 64
_cell_length_a 18.680750
_cell_length_b 11.643744
_cell_length_c 16.237745
_cell_angle_alpha 90.000000
_cell_angle_beta 90.000000
_cell_angle_gamma 90.000000
_cell_volume 3531.934767
_symmetry_space_group_name_H-M "I M A 2"
_symmetry_group_IT_number 46
_symmetry_cell_setting 'orthorhombic'
loop_
_space_group_symop_operation_xyz
x,y,z
-x,-y,z
1/2-x,y,z
1/2+x,-y,z
1/2+x,1/2+y,1/2+z
1/2-x,1/2-y,1/2+z
-x,1/2+y,1/2+z
x,1/2-y,1/2+z
loop_
_atom_site_type_symbol
_atom_site_label
_atom_site_fract_x
_atom_site_fract_y
_atom_site_fract_z
Si Si1 0.834256 0.998354 0.670190
Si Si2 0.834222 0.922093 0.011656
Si Si3 0.836121 0.066591 0.852878
Si Si4 0.666676 0.322114 0.808409
Si Si5 0.933151 0.329033 0.069413
Si Si6 0.420408 0.510646 0.912820
Si Si7 0.831084 0.360648 0.613843
Si Si8 0.400743 0.321719 0.049277
O O1 0.750000 0.029629 0.658912
O O2 0.851723 0.884399 0.617800
O O3 0.848099 0.997029 0.767926
O O4 0.888170 0.093036 0.633030
O O5 0.750000 0.895103 0.997939
O O6 0.876003 0.805556 0.027987
O O7 0.838390 0.006772 0.089967
O O8 0.860817 0.995876 0.932651
O O9 0.750000 0.076679 0.862121
O O10 0.862807 0.198065 0.839470
O O11 0.750000 0.323459 0.830836
O O12 0.631655 0.435120 0.846650
O O13 0.661690 0.331772 0.709871
O O14 0.892363 0.209263 0.067801
O O15 0.017897 0.323065 0.083797
O O16 0.925405 0.392963 0.983274
O O17 0.500000 0.500000 0.877051
O O18 0.399043 0.397970 0.965101
O O19 0.750000 0.326003 0.587497
#
# Coordination Sequence:
#
# PCOD9378347 Si02
#       8
#     8   8   8   8   8   8   8   8
#     4  10  18  34  61  87 110 146 191 238 286 334
#     4  10  21  38  56  81 116 153 190 231 278 338
#     4   9  18  34  59  87 112 138 186 245 286 328
#     4  10  19  35  58  88 111 135 188 246 290 332
#     4  10  19  36  60  82 112 144 188 238 281 328
#     4   9  20  37  55  77 113 149 184 229 275 333
#     4  10  20  36  59  83 112 142 183 242 291 333
#     4  10  22  38  55  80 120 155 190 221 274 352
#
# _framework density 18.120379
#
# number of rings (size 3 to 8) (size 9 to 14) (size 15 to 20)
#    0.000    2.250    1.250    2.625    0.000    4.500 
#    4.500    1.250    2.750    0.000    0.000    0.000 
#    0.000    0.000    0.000    0.000    0.000    0.000 
#
# Total GULP energy -178319.875264 kJ/mol
# GULP energy per Si atom -5572.496102 kJ/mol
# Density = 1.807914 g / cm^3
# Si number density = 18.120379 Si / 1000 Ang^3
#
#
#
# Elastic Constant Matrix: (Units=GPa)
#
#
# Indices 1 2 3 4 5 6 
#
# 1 74.1651 49.1909 33.1321 0.0000 0.0000 0.0000
# 2 49.1909 117.5531 41.1071 0.0000 0.0000 0.0000
# 3 33.1321 41.1071 54.0345 0.0000 0.0000 0.0000
# 4 0.0000 0.0000 0.0000 23.0001 0.0000 0.0000
# 5 0.0000 0.0000 0.0000 0.0000 6.8624 0.0000
# 6 0.0000 0.0000 0.0000 0.0000 0.0000 88.7857
#
#
#
# Elastic Compliance Matrix: (Units=1/GPa)
#
#
# Indices 1 2 3 4 5 6 
#
# 1 0.021195 -0.005892 -0.008513 0.000000 0.000000 0.000000
# 2 -0.005892 0.013228 -0.006451 0.000000 0.000000 0.000000
# 3 -0.008513 -0.006451 0.028634 0.000000 0.000000 0.000000
# 4 0.000000 0.000000 0.000000 0.043478 0.000000 0.000000
# 5 0.000000 0.000000 0.000000 0.000000 0.145723 0.000000
# 6 0.000000 0.000000 0.000000 0.000000 0.000000 0.011263
#
#
# Mechanical properties :
#
#
# Convention : Reuss Voigt Hill
#
# Bulk Modulus (GPa) = 46.84972 54.73476 50.79224
# Shear Modulus (GPa) = 16.00782 31.88447 23.94614
#
# Velocity S-wave (km/s) = 2.97545 4.19930 3.63919
# Velocity P-wave (km/s) = 6.14128 7.33375 6.76385
#
# Compressibility (1/GPa) = 0.02134485
#
# Stress axis : x y z
#
# Youngs Moduli (GPa) = 47.18178 75.59714 34.92333
#
# Poissons Ratio (x) = 0.44542 0.29732
# Poissons Ratio (y) = 0.27799 0.22527
# Poissons Ratio (z) = 0.40168 0.48764
#
# Static dielectric constant tensor:
#      x y z
#    x 1.666930 0.000000 0.000000 
#    y 0.000000 1.640690 0.000000 
#    z 0.000000 0.000000 1.638420 
# 
# From -- ./inp_files/16784.got.cif
#   From: 2010.05.17/outbox.cif.g08.bks.cpg/sg46_9_cif.got.tgz:16784.got - 2010.06.03 19:58:25.
