data_PCOD9378472
_publ_section_title
;
Structure prediction by ZEFSAII (Michael W. Deem and Ramdas Pophale) SiO2 
 PCOD9378472
Probable space group: I M A 2
;
_chemical_formula_sum "Si O2"
_cell_formula_units_Z 56
_cell_length_a 8.796041
_cell_length_b 13.818531
_cell_length_c 30.018534
_cell_angle_alpha 90.000000
_cell_angle_beta 90.000000
_cell_angle_gamma 90.000000
_cell_volume 3648.703734
_symmetry_space_group_name_H-M "I M A 2"
_symmetry_group_IT_number 46
_symmetry_cell_setting 'orthorhombic'
loop_
_space_group_symop_operation_xyz
x,y,z
-x,-y,z
1/2-x,y,z
1/2+x,-y,z
1/2+x,1/2+y,1/2+z
1/2-x,1/2-y,1/2+z
-x,1/2+y,1/2+z
x,1/2-y,1/2+z
loop_
_atom_site_type_symbol
_atom_site_label
_atom_site_fract_x
_atom_site_fract_y
_atom_site_fract_z
Si Si1 0.068661 0.602103 0.406050
Si Si2 0.568400 0.898216 0.443645
Si Si3 0.931934 0.199489 0.356966
Si Si4 0.431807 0.891749 0.079261
Si Si5 0.931341 0.800024 0.992509
Si Si6 0.932071 0.391734 0.678254
Si Si7 0.431634 0.108735 0.269328
O O1 0.250000 0.594828 0.410105
O O2 0.033709 0.690972 0.372806
O O3 0.000000 0.500000 0.391695
O O4 0.999823 0.631886 0.453886
O O5 0.750000 0.905109 0.438472
O O6 0.494509 0.868675 0.396439
O O7 0.534836 0.809707 0.477119
O O8 0.500000 0.000000 0.458501
O O9 0.750000 0.188429 0.353579
O O10 0.009933 0.170020 0.311048
O O11 0.250000 0.898704 0.075133
O O12 0.465982 0.851460 0.128978
O O13 0.500000 0.000000 0.075691
O O14 0.498963 0.828118 0.039717
O O15 0.750000 0.812613 0.993462
O O16 0.750000 0.395627 0.683859
O O17 0.000000 0.500000 0.676624
O O18 0.007251 0.348475 0.722476
O O19 0.250000 0.102436 0.268656
O O20 0.500000 0.000000 0.273749
#
# Coordination Sequence:
#
# PCOD9378472 Si02
#       7
#     8   8   8   8   8   8   8
#     4  10  20  33  49  67  91 121 152 188 226 264
#     4  10  20  33  48  67  91 120 152 189 227 265
#     4  10  20  33  48  67  91 121 154 186 222 267
#     4  10  19  30  46  67  93 123 153 186 224 266
#     4  10  20  32  47  67  92 121 154 187 222 267
#     4   9  17  29  44  64  90 119 150 184 223 268
#     4  11  20  30  46  67  93 123 152 186 224 267
#
# _framework density 15.347916
#
# number of rings (size 3 to 8) (size 9 to 14) (size 15 to 20)
#    0.000    2.000    0.000    5.571    0.000    5.143 
#    0.000    0.000    0.000    0.000    0.000    1.000 
#    0.000    6.857    0.000    0.000    0.000    0.000 
#
# Total GULP energy -156212.708587 kJ/mol
# GULP energy per Si atom -5579.025307 kJ/mol
# Density = 1.531298 g / cm^3
# Si number density = 15.347916 Si / 1000 Ang^3
#
#
#
# Elastic Constant Matrix: (Units=GPa)
#
#
# Indices 1 2 3 4 5 6 
#
# 1 88.5421 41.9683 66.4412 0.0000 0.0000 0.0000
# 2 41.9683 70.6654 46.4326 0.0000 0.0000 0.0000
# 3 66.4412 46.4326 150.4603 0.0000 0.0000 0.0000
# 4 0.0000 0.0000 0.0000 8.9830 0.0000 0.0000
# 5 0.0000 0.0000 0.0000 0.0000 23.6387 0.0000
# 6 0.0000 0.0000 0.0000 0.0000 0.0000 24.1857
#
#
#
# Elastic Compliance Matrix: (Units=1/GPa)
#
#
# Indices 1 2 3 4 5 6 
#
# 1 0.019598 -0.007467 -0.006350 0.000000 0.000000 0.000000
# 2 -0.007467 0.020596 -0.003059 0.000000 0.000000 0.000000
# 3 -0.006350 -0.003059 0.010394 0.000000 0.000000 0.000000
# 4 0.000000 0.000000 0.000000 0.111322 0.000000 0.000000
# 5 0.000000 0.000000 0.000000 0.000000 0.042303 0.000000
# 6 0.000000 0.000000 0.000000 0.000000 0.000000 0.041347
#
#
# Mechanical properties :
#
#
# Convention : Reuss Voigt Hill
#
# Bulk Modulus (GPa) = 59.39302 68.81688 64.10495
# Shear Modulus (GPa) = 17.54855 21.68318 19.61587
#
# Velocity S-wave (km/s) = 3.38506 3.76277 3.57890
# Velocity P-wave (km/s) = 7.35255 7.98832 7.67702
#
# Compressibility (1/GPa) = 0.01683699
#
# Stress axis : x y z
#
# Youngs Moduli (GPa) = 51.02459 48.55407 96.20727
#
# Poissons Ratio (x) = 0.36256 0.61092
# Poissons Ratio (y) = 0.38100 0.29425
# Poissons Ratio (z) = 0.32401 0.14850
#
# Static dielectric constant tensor:
#      x y z
#    x 1.509520 0.000000 0.000000 
#    y 0.000000 1.511800 0.000000 
#    z 0.000000 0.000000 1.522250 
# 
# From -- ./inp_files/25253.got.cif
#   From: 2010.05.17/outbox.cif.g08.bks.cpg/sg46_13_cif.got.tgz:25253.got - 2010.06.03 19:58:25.
