data_PCOD9378288
_publ_section_title
;
Structure prediction by ZEFSAII (Michael W. Deem and Ramdas Pophale) SiO2 
 PCOD9378288
Probable space group: I M A 2
;
_chemical_formula_sum "Si O2"
_cell_formula_units_Z 64
_cell_length_a 17.009216
_cell_length_b 9.840791
_cell_length_c 20.645402
_cell_angle_alpha 90.000000
_cell_angle_beta 90.000000
_cell_angle_gamma 90.000000
_cell_volume 3455.712853
_symmetry_space_group_name_H-M "I M A 2"
_symmetry_group_IT_number 46
_symmetry_cell_setting 'orthorhombic'
loop_
_space_group_symop_operation_xyz
x,y,z
-x,-y,z
1/2-x,y,z
1/2+x,-y,z
1/2+x,1/2+y,1/2+z
1/2-x,1/2-y,1/2+z
-x,1/2+y,1/2+z
x,1/2-y,1/2+z
loop_
_atom_site_type_symbol
_atom_site_label
_atom_site_fract_x
_atom_site_fract_y
_atom_site_fract_z
Si Si1 0.344544 0.089147 0.612570
Si Si2 0.074602 0.898653 0.705669
Si Si3 0.077384 0.910424 0.244161
Si Si4 0.592430 0.466578 0.350175
Si Si5 0.655461 0.829051 0.208622
Si Si6 0.345455 0.441385 0.967045
Si Si7 0.155725 0.814330 0.378504
Si Si8 0.342921 0.252266 0.852920
O O1 0.250000 0.093706 0.611363
O O2 0.371334 0.219405 0.655230
O O3 0.374540 0.090000 0.538897
O O4 0.370493 0.951062 0.648215
O O5 0.060441 0.736412 0.711098
O O6 0.112339 0.936668 0.774977
O O7 0.000000 0.000000 0.700671
O O8 0.121102 0.879864 0.312279
O O9 0.129018 0.015001 0.201390
O O10 0.000000 0.000000 0.256559
O O11 0.500000 0.500000 0.354242
O O12 0.616375 0.331502 0.387000
O O13 0.640442 0.597741 0.370174
O O14 0.750000 0.824313 0.208963
O O15 0.626532 0.782318 0.280433
O O16 0.250000 0.426154 0.968987
O O17 0.361308 0.590806 0.939781
O O18 0.376638 0.343974 0.910177
O O19 0.250000 0.803413 0.370900
O O20 0.250000 0.279074 0.849811
#
# Coordination Sequence:
#
# PCOD9378288 Si02
#       8
#     8   8   8   8   8   8   8   8
#     4  10  20  36  58  81 108 146 188 228 277 340
#     4  10  21  36  53  78 112 145 185 227 283 338
#     4  11  22  33  56  83 113 146 185 239 288 334
#     4  10  21  33  54  83 113 143 184 239 279 332
#     4  10  19  33  56  84 110 140 186 236 280 336
#     4   9  19  35  56  81 110 145 182 225 279 337
#     4  10  20  35  55  82 115 147 186 234 286 337
#     4  10  18  33  56  80 108 142 182 228 282 332
#
# _framework density 18.520057000000001
#
# number of rings (size 3 to 8) (size 9 to 14) (size 15 to 20)
#    0.000    2.000    2.500    1.500    3.500    2.500 
#    0.000    3.125    0.000    6.000    0.000    0.000 
#    0.000    0.000    0.000    0.000    0.000    0.000 
#
# Total GULP energy -178397.547162 kJ/mol
# GULP energy per Si atom -5574.923349 kJ/mol
# Density = 1.847790 g / cm^3
# Si number density = 18.520057 Si / 1000 Ang^3
#
#
#
# Elastic Constant Matrix: (Units=GPa)
#
#
# Indices 1 2 3 4 5 6 
#
# 1 23.7794 26.1311 30.9771 0.0000 0.0000 0.0000
# 2 26.1311 165.2834 76.9281 0.0000 0.0000 0.0000
# 3 30.9771 76.9281 122.7494 0.0000 0.0000 0.0000
# 4 0.0000 0.0000 0.0000 19.8256 0.0000 0.0000
# 5 0.0000 0.0000 0.0000 0.0000 5.9854 0.0000
# 6 0.0000 0.0000 0.0000 0.0000 0.0000 31.5530
#
#
#
# Elastic Compliance Matrix: (Units=1/GPa)
#
#
# Indices 1 2 3 4 5 6 
#
# 1 0.064199 -0.003684 -0.013893 0.000000 0.000000 0.000000
# 2 -0.003684 0.008753 -0.004556 0.000000 0.000000 0.000000
# 3 -0.013893 -0.004556 0.014508 0.000000 0.000000 0.000000
# 4 0.000000 0.000000 0.000000 0.050440 0.000000 0.000000
# 5 0.000000 0.000000 0.000000 0.000000 0.167075 0.000000
# 6 0.000000 0.000000 0.000000 0.000000 0.000000 0.031693
#
#
# Mechanical properties :
#
#
# Convention : Reuss Voigt Hill
#
# Bulk Modulus (GPa) = 23.15073 64.43165 43.79119
# Shear Modulus (GPa) = 12.64765 23.32452 17.98609
#
# Velocity S-wave (km/s) = 2.61610 3.55268 3.11974
# Velocity P-wave (km/s) = 4.65326 7.18988 6.05588
#
# Compressibility (1/GPa) = 0.04319519
#
# Stress axis : x y z
#
# Youngs Moduli (GPa) = 15.57660 114.24482 68.92782
#
# Poissons Ratio (x) = 0.42084 0.95759
# Poissons Ratio (y) = 0.05738 0.31404
# Poissons Ratio (z) = 0.21640 0.52050
#
# Static dielectric constant tensor:
#      x y z
#    x 1.675760 0.000000 0.000000 
#    y 0.000000 1.661070 0.000000 
#    z 0.000000 0.000000 1.637660 
# 
# From -- ./inp_files/20270.got.cif
#   From: 2010.05.17/outbox.cif.g08.bks.cpg/sg46_11_cif.got.tgz:20270.got - 2010.06.03 19:58:25.
