data_PCOD9378399
_publ_section_title
;
Structure prediction by ZEFSAII (Michael W. Deem and Ramdas Pophale) SiO2 
 PCOD9378399
Probable space group: I M A 2
;
_chemical_formula_sum "Si O2"
_cell_formula_units_Z 52
_cell_length_a 20.030760
_cell_length_b 7.985869
_cell_length_c 15.062790
_cell_angle_alpha 90.000000
_cell_angle_beta 90.000000
_cell_angle_gamma 90.000000
_cell_volume 2409.489458
_symmetry_space_group_name_H-M "I M A 2"
_symmetry_group_IT_number 46
_symmetry_cell_setting 'orthorhombic'
loop_
_space_group_symop_operation_xyz
x,y,z
-x,-y,z
1/2-x,y,z
1/2+x,-y,z
1/2+x,1/2+y,1/2+z
1/2-x,1/2-y,1/2+z
-x,1/2+y,1/2+z
x,1/2-y,1/2+z
loop_
_atom_site_type_symbol
_atom_site_label
_atom_site_fract_x
_atom_site_fract_y
_atom_site_fract_z
Si Si1 0.023344 0.691815 0.698400
Si Si2 0.602772 0.904811 0.960211
Si Si3 0.250000 0.378086 0.150739
Si Si4 0.250000 0.106834 0.997433
Si Si5 0.387098 0.286937 0.138866
Si Si6 0.970912 0.241830 0.896453
Si Si7 0.750000 0.260855 0.063237
Si Si8 0.893593 0.135416 0.542811
O O1 0.050300 0.726448 0.796166
O O2 0.071852 0.752680 0.620135
O O3 0.000000 0.500000 0.690944
O O4 0.954419 0.794634 0.693564
O O5 0.549986 0.782407 0.911706
O O6 0.568437 0.080765 0.936396
O O7 0.603864 0.860366 0.065953
O O8 0.681681 0.899665 0.940785
O O9 0.317850 0.301351 0.192055
O O10 0.250000 0.583119 0.137878
O O11 0.250000 0.279448 0.054655
O O12 0.250000 0.944773 0.065701
O O13 0.383482 0.453605 0.081676
O O14 0.942167 0.380906 0.960557
O O15 0.679236 0.295955 0.017590
#
# Coordination Sequence:
#
# PCOD9378399 Si02
#       8
#     8   8   4   4   8   8   4   8
#     4  12  27  40  62  96 129 170 219 262 319 385
#     4  10  21  38  65  90 124 161 212 257 326 378
#     4   8  20  36  61  97 127 164 217 259 321 393
#     4  10  18  36  66  95 121 170 209 267 326 387
#     4  10  21  40  67  93 126 167 211 267 322 381
#     4  11  24  40  62  92 128 165 212 265 315 382
#     4  10  20  38  65  94 124 170 214 256 325 392
#     4  11  23  42  66  93 127 167 211 267 321 379
#
# _framework density 21.581336
#
# number of rings (size 3 to 8) (size 9 to 14) (size 15 to 20)
#    0.000    1.538    3.077    1.385    8.615    0.000 
#    0.000    2.308    0.000    0.000    0.000    0.000 
#    0.000    0.000    0.000    0.000    0.000    0.000 
#
# Total GULP energy -144813.957020 kJ/mol
# GULP energy per Si atom -5569.767578 kJ/mol
# Density = 2.153222 g / cm^3
# Si number density = 21.581336 Si / 1000 Ang^3
#
#
#
# Elastic Constant Matrix: (Units=GPa)
#
#
# Indices 1 2 3 4 5 6 
#
# 1 167.5599 24.7189 36.3920 0.0000 0.0000 0.0000
# 2 24.7189 88.9365 10.9488 0.0000 0.0000 0.0000
# 3 36.3920 10.9488 83.1364 0.0000 0.0000 0.0000
# 4 0.0000 0.0000 0.0000 6.5480 0.0000 0.0000
# 5 0.0000 0.0000 0.0000 0.0000 -65.4563 0.0000
# 6 0.0000 0.0000 0.0000 0.0000 0.0000 36.9542
#
#
#
# Elastic Compliance Matrix: (Units=1/GPa)
#
#
# Indices 1 2 3 4 5 6 
#
# 1 0.006798 -0.001548 -0.002772 0.000000 0.000000 0.000000
# 2 -0.001548 0.011782 -0.000874 0.000000 0.000000 0.000000
# 3 -0.002772 -0.000874 0.013357 0.000000 0.000000 0.000000
# 4 0.000000 0.000000 0.000000 0.152719 0.000000 0.000000
# 5 0.000000 0.000000 0.000000 0.000000 -0.015277 0.000000
# 6 0.000000 0.000000 0.000000 0.000000 0.000000 0.027061
#
#
# Mechanical properties :
#
#
# Convention : Reuss Voigt Hill
#
# Bulk Modulus (GPa) = 46.40619 53.75023 50.07821
# Shear Modulus (GPa) = 23.36324 13.44737 18.40531
#
# Velocity S-wave (km/s) = 3.29381 2.49891 2.92350
# Velocity P-wave (km/s) = 6.00126 5.76940 5.88648
#
# Compressibility (1/GPa) = 0.02154885
#
# Stress axis : x y z
#
# Youngs Moduli (GPa) = 147.09163 84.87604 74.86740
#
# Poissons Ratio (x) = 0.13141 0.20754
# Poissons Ratio (y) = 0.22774 0.06543
# Poissons Ratio (z) = 0.40775 0.07417
#
# Static dielectric constant tensor:
#      x y z
#    x 1.918190 0.000000 0.000000 
#    y 0.000000 1.897920 0.000000 
#    z 0.000000 0.000000 1.765000 
# 
# From -- ./inp_files/17064.got.cif
#   From: 2010.05.17/outbox.cif.g08.bks.cpg/sg46_9_cif.got.tgz:17064.got - 2010.06.03 19:58:25.
