data_PCOD9378657
_publ_section_title
;
Structure prediction by ZEFSAII (Michael W. Deem and Ramdas Pophale) SiO2 
 PCOD9378657
Probable space group: I M A 2
;
_chemical_formula_sum "Si O2"
_cell_formula_units_Z 64
_cell_length_a 8.951035
_cell_length_b 28.743992
_cell_length_c 14.907218
_cell_angle_alpha 90.000000
_cell_angle_beta 90.000000
_cell_angle_gamma 90.000000
_cell_volume 3835.455437
_symmetry_space_group_name_H-M "I M A 2"
_symmetry_group_IT_number 46
_symmetry_cell_setting 'orthorhombic'
loop_
_space_group_symop_operation_xyz
x,y,z
-x,-y,z
1/2-x,y,z
1/2+x,-y,z
1/2+x,1/2+y,1/2+z
1/2-x,1/2-y,1/2+z
-x,1/2+y,1/2+z
x,1/2-y,1/2+z
loop_
_atom_site_type_symbol
_atom_site_label
_atom_site_fract_x
_atom_site_fract_y
_atom_site_fract_z
Si Si1 0.569810 0.133163 0.606760
Si Si2 0.929866 0.862805 0.170037
Si Si3 0.426956 0.723775 0.992620
Si Si4 0.070173 0.049959 0.286717
Si Si5 0.428704 0.176413 0.984598
Si Si6 0.073678 0.780772 0.281931
Si Si7 0.929884 0.173968 0.793038
Si Si8 0.071118 0.050274 0.494807
O O1 0.750000 0.128572 0.600152
O O2 0.528817 0.180767 0.554721
O O3 0.530332 0.140437 0.711022
O O4 0.493168 0.089772 0.559249
O O5 0.750000 0.862982 0.172798
O O6 0.982143 0.909273 0.220600
O O7 0.986556 0.817945 0.223829
O O8 0.975076 0.856911 0.066466
O O9 0.250000 0.732952 0.006446
O O10 0.514520 0.771554 0.007900
O O11 0.447110 0.710456 0.888145
O O12 0.250000 0.046459 0.281178
O O13 0.032982 0.061540 0.390570
O O14 0.000000 0.000000 0.265742
O O15 0.250000 0.176762 0.977907
O O16 0.497778 0.163355 0.888668
O O17 0.250000 0.784462 0.261655
O O18 0.028042 0.727124 0.267019
O O19 0.750000 0.174157 0.803391
O O20 0.250000 0.047738 0.502049
O O21 0.000000 0.000000 0.514625
#
# Coordination Sequence:
#
# PCOD9378657 Si02
#       8
#     8   8   8   8   8   8   8   8
#     4  10  19  32  52  74  97 128 165 203 243 289
#     4  10  20  32  47  70  99 127 157 198 243 283
#     4   9  18  32  48  69 100 132 161 197 240 287
#     4   9  19  35  52  72  99 126 153 190 237 288
#     4  10  20  32  47  68  96 131 167 202 240 282
#     4   9  17  29  47  71  97 128 163 194 230 281
#     4   9  19  34  49  68  97 131 166 204 241 278
#     4  10  20  34  53  76 102 129 156 192 240 292
#
# _framework density 16.686415
#
# number of rings (size 3 to 8) (size 9 to 14) (size 15 to 20)
#    0.000    2.500    0.000    3.000    0.000    6.000 
#    0.000    0.000    0.000    0.750    0.000    3.500 
#    0.000    0.000    0.000    0.000    0.000    0.000 
#
# Total GULP energy -178528.091076 kJ/mol
# GULP energy per Si atom -5579.002846 kJ/mol
# Density = 1.664844 g / cm^3
# Si number density = 16.686415 Si / 1000 Ang^3
#
#
#
# Elastic Constant Matrix: (Units=GPa)
#
#
# Indices 1 2 3 4 5 6 
#
# 1 24.4721 38.7430 47.5215 0.0000 0.0000 0.0000
# 2 38.7430 103.4450 105.5784 0.0000 0.0000 0.0000
# 3 47.5215 105.5784 128.1140 -0.0001 0.0000 0.0000
# 4 0.0000 0.0000 -0.0001 29.5289 0.0000 0.0000
# 5 0.0000 0.0000 0.0000 0.0000 22.3185 0.0000
# 6 0.0000 0.0000 0.0000 0.0000 0.0000 25.7773
#
#
#
# Elastic Compliance Matrix: (Units=1/GPa)
#
#
# Indices 1 2 3 4 5 6 
#
# 1 0.146324 0.003732 -0.057352 0.000000 0.000000 0.000000
# 2 0.003732 0.060930 -0.051596 0.000000 0.000000 0.000000
# 3 -0.057352 -0.051596 0.071600 0.000000 0.000000 0.000000
# 4 0.000000 0.000000 0.000000 0.033865 0.000000 0.000000
# 5 0.000000 0.000000 0.000000 0.000000 0.044806 0.000000
# 6 0.000000 0.000000 0.000000 0.000000 0.000000 0.038794
#
#
# Mechanical properties :
#
#
# Convention : Reuss Voigt Hill
#
# Bulk Modulus (GPa) = 14.61533 71.07967 42.84750
# Shear Modulus (GPa) = 7.94209 19.80415 13.87312
#
# Velocity S-wave (km/s) = 2.18402 3.44880 2.88653
# Velocity P-wave (km/s) = 3.89073 7.65171 6.06986
#
# Compressibility (1/GPa) = 0.06842129
#
# Stress axis : x y z
#
# Youngs Moduli (GPa) = 6.83415 16.41239 13.96654
#
# Poissons Ratio (x) = -0.06126 0.80101
# Poissons Ratio (y) = -0.02551 0.72062
# Poissons Ratio (z) = 0.39195 0.84682
#
# Static dielectric constant tensor:
#      x y z
#    x 1.560200 0.000000 0.000000 
#    y 0.000000 1.533320 0.000000 
#    z 0.000000 0.000000 1.574370 
# 
# From -- ./inp_files/14450.got.cif
#   From: 2010.05.17/outbox.cif.g08.bks.cpg/sg46_8_cif.got.tgz:14450.got - 2010.06.03 19:58:25.
