data_PCOD9378589
_publ_section_title
;
Structure prediction by ZEFSAII (Michael W. Deem and Ramdas Pophale) SiO2 
 PCOD9378589
Probable space group: I M A 2
;
_chemical_formula_sum "Si O2"
_cell_formula_units_Z 48
_cell_length_a 7.672178
_cell_length_b 34.073897
_cell_length_c 7.220830
_cell_angle_alpha 90.000000
_cell_angle_beta 90.000000
_cell_angle_gamma 90.000000
_cell_volume 1887.676621
_symmetry_space_group_name_H-M "I M A 2"
_symmetry_group_IT_number 46
_symmetry_cell_setting 'orthorhombic'
loop_
_space_group_symop_operation_xyz
x,y,z
-x,-y,z
1/2-x,y,z
1/2+x,-y,z
1/2+x,1/2+y,1/2+z
1/2-x,1/2-y,1/2+z
-x,1/2+y,1/2+z
x,1/2-y,1/2+z
loop_
_atom_site_type_symbol
_atom_site_label
_atom_site_fract_x
_atom_site_fract_y
_atom_site_fract_z
Si Si1 0.040252 0.542441 0.802410
Si Si2 0.450837 0.874737 0.246696
Si Si3 0.446882 0.043114 0.734861
Si Si4 0.534886 0.625790 0.184795
Si Si5 0.556594 0.708618 0.236555
Si Si6 0.046263 0.794376 0.329121
O O1 0.250000 0.545407 0.822057
O O2 0.973753 0.582100 0.702388
O O3 0.000000 0.500000 0.717486
O O4 0.959947 0.541659 0.009361
O O5 0.250000 0.875706 0.188100
O O6 0.466687 0.874697 0.473179
O O7 0.518555 0.830786 0.202913
O O8 0.250000 0.047062 0.794184
O O9 0.530870 0.085395 0.776757
O O10 0.500000 0.000000 0.797997
O O11 0.750000 0.626290 0.178917
O O12 0.478821 0.665992 0.284727
O O13 0.750000 0.712481 0.317199
O O14 0.461809 0.749759 0.262283
O O15 0.563340 0.704783 0.015202
O O16 0.250000 0.802267 0.369986
#
# Coordination Sequence:
#
# PCOD9378589 Si02
#       6
#     8   8   8   8   8   8
#     4   9  14  20  30  47  71 101 133 166 202 246
#     4   8  15  25  37  53  77 107 139 172 211 254
#     4   9  14  20  30  47  71 101 133 166 202 246
#     4   8  15  25  37  53  77 107 139 172 211 254
#     4  10  19  32  48  67  90 119 152 188 226 267
#     4  10  19  32  48  67  90 119 152 188 226 267
#
# _framework density 25.428080999999999
#
# number of rings (size 3 to 8) (size 9 to 14) (size 15 to 20)
#    0.000    3.000    0.000    3.000    0.000    2.667 
#    0.000    0.000    0.000    0.000    0.000    0.000 
#    0.000    1.333    0.000   15.333    0.000    9.000 
#
# Total GULP energy -133683.907320 kJ/mol
# GULP energy per Si atom -5570.162805 kJ/mol
# Density = 2.537021 g / cm^3
# Si number density = 25.428081 Si / 1000 Ang^3
#
#
#
# Elastic Constant Matrix: (Units=GPa)
#
#
# Indices 1 2 3 4 5 6 
#
# 1 73.3536 23.6630 -7.3711 0.0048 0.0006 0.0008
# 2 23.6630 322.0278 1.2165 -0.0021 -0.0007 0.0004
# 3 -7.3711 1.2165 75.2769 -0.0031 -0.0003 -0.0020
# 4 0.0048 -0.0021 -0.0031 -1.3055 -0.0006 0.0006
# 5 0.0006 -0.0007 -0.0003 -0.0006 4.8106 0.0000
# 6 0.0008 0.0004 -0.0020 0.0006 0.0000 29.4610
#
#
#
# Elastic Compliance Matrix: (Units=1/GPa)
#
#
# Indices 1 2 3 4 5 6 
#
# 1 0.014109 -0.001042 0.001398 0.000050 -0.000002 0.000000
# 2 -0.001042 0.003182 -0.000153 -0.000009 0.000001 0.000000
# 3 0.001398 -0.000153 0.013424 -0.000027 0.000001 0.000001
# 4 0.000050 -0.000009 -0.000027 -0.765995 -0.000103 0.000014
# 5 -0.000002 0.000001 0.000001 -0.000103 0.207875 0.000000
# 6 0.000000 0.000000 0.000001 0.000014 0.000000 0.033943
#
#
# Mechanical properties :
#
#
# Convention : Reuss Voigt Hill
#
# Bulk Modulus (GPa) = 32.13242 56.18614 44.15928
# Shear Modulus (GPa) = -10.34139 36.80320 13.23090
#
# Velocity S-wave (km/s) = -2.01885 3.80853 2.28354
# Velocity P-wave (km/s) = 2.68881 6.44080 4.93526
#
# Compressibility (1/GPa) = 0.03112122
#
# Stress axis : x y z
#
# Youngs Moduli (GPa) = 70.87542 314.22104 74.49513
#
# Poissons Ratio (x) = 0.32743 -0.10417
# Poissons Ratio (y) = 0.07386 0.01143
# Poissons Ratio (z) = -0.09911 0.04822
#
# Static dielectric constant tensor:
#      x y z
#    x 1.991490 0.000000 0.000000 
#    y 0.000000 2.224300 -0.000020 
#    z 0.000000 -0.000020 2.182160 
# 
# From -- ./inp_files/9568.got.cif
#   From: 2010.05.17/outbox.cif.g08.bks.cpg/sg46_5_cif.got.tgz:9568.got - 2010.06.03 19:58:25.
