data_PCOD9378062
_publ_section_title
;
Structure prediction by ZEFSAII (Michael W. Deem and Ramdas Pophale) SiO2 
 PCOD9378062
Probable space group: I M A 2
;
_chemical_formula_sum "Si O2"
_cell_formula_units_Z 56
_cell_length_a 8.008423
_cell_length_b 21.488188
_cell_length_c 14.350192
_cell_angle_alpha 90.000000
_cell_angle_beta 90.000000
_cell_angle_gamma 90.000000
_cell_volume 2469.474301
_symmetry_space_group_name_H-M "I M A 2"
_symmetry_group_IT_number 46
_symmetry_cell_setting 'orthorhombic'
loop_
_space_group_symop_operation_xyz
x,y,z
-x,-y,z
1/2-x,y,z
1/2+x,-y,z
1/2+x,1/2+y,1/2+z
1/2-x,1/2-y,1/2+z
-x,1/2+y,1/2+z
x,1/2-y,1/2+z
loop_
_atom_site_type_symbol
_atom_site_label
_atom_site_fract_x
_atom_site_fract_y
_atom_site_fract_z
Si Si1 0.048120 0.067450 0.043730
Si Si2 0.060506 0.664800 0.998961
Si Si3 0.949714 0.755679 0.841200
Si Si4 0.060904 0.931116 0.330480
Si Si5 0.452274 0.102031 0.840897
Si Si6 0.060424 0.162604 0.188062
Si Si7 0.447139 0.568040 0.137449
O O1 0.250000 0.071046 0.046502
O O2 0.984112 0.128945 0.097946
O O3 0.990534 0.070984 0.936891
O O4 0.000000 0.000000 0.084254
O O5 0.250000 0.684392 0.021540
O O6 0.979141 0.630171 0.087618
O O7 0.064029 0.608237 0.924888
O O8 0.982985 0.720540 0.938872
O O9 0.750000 0.755820 0.830091
O O10 0.008754 0.826133 0.841941
O O11 0.018794 0.717005 0.751670
O O12 0.250000 0.930734 0.292192
O O13 0.940925 0.894918 0.260370
O O14 0.000000 0.000000 0.347044
O O15 0.250000 0.100658 0.840130
O O16 0.513884 0.071305 0.746467
O O17 0.250000 0.181744 0.164100
O O18 0.500000 0.500000 0.101250
O O19 0.250000 0.572059 0.122622
#
# Coordination Sequence:
#
# PCOD9378062 Si02
#       7
#     8   8   8   8   8   8   8
#     4  10  21  36  54  77 107 140 178 222 268 318
#     4   9  20  36  54  79 112 145 180 224 275 331
#     4   9  19  36  59  85 112 144 182 222 273 331
#     4  10  18  29  47  73 105 139 174 217 267 322
#     4  10  22  39  58  82 111 146 188 234 278 328
#     4   9  18  33  52  76 106 139 175 218 266 323
#     4  11  23  39  59  84 113 149 191 237 287 337
#
# _framework density 22.67689
#
# number of rings (size 3 to 8) (size 9 to 14) (size 15 to 20)
#    0.000    2.286    0.000    2.143    0.000    6.857 
#    0.000    2.857    0.000    0.000    0.000    0.000 
#    0.000    0.000    0.000    0.000    0.000    0.000 
#
# Total GULP energy -156221.415683 kJ/mol
# GULP energy per Si atom -5579.336274 kJ/mol
# Density = 2.262528 g / cm^3
# Si number density = 22.676890 Si / 1000 Ang^3
#
#
#
# Elastic Constant Matrix: (Units=GPa)
#
#
# Indices 1 2 3 4 5 6 
#
# 1 31.1411 2.0560 -0.9142 0.0000 0.0000 0.0000
# 2 2.0560 115.0774 11.6168 0.0000 0.0000 0.0000
# 3 -0.9142 11.6168 87.2661 0.0000 0.0000 0.0000
# 4 0.0000 0.0000 0.0000 31.6942 0.0000 0.0000
# 5 0.0000 0.0000 0.0000 0.0000 19.4990 0.0000
# 6 0.0000 0.0000 0.0000 0.0000 0.0000 11.1114
#
#
#
# Elastic Compliance Matrix: (Units=1/GPa)
#
#
# Indices 1 2 3 4 5 6 
#
# 1 0.032165 -0.000617 0.000419 0.000000 0.000000 0.000000
# 2 -0.000617 0.008820 -0.001181 0.000000 0.000000 0.000000
# 3 0.000419 -0.001181 0.011621 0.000000 0.000000 0.000000
# 4 0.000000 0.000000 0.000000 0.031551 0.000000 0.000000
# 5 0.000000 0.000000 0.000000 0.000000 0.051285 0.000000
# 6 0.000000 0.000000 0.000000 0.000000 0.000000 0.089998
#
#
# Mechanical properties :
#
#
# Convention : Reuss Voigt Hill
#
# Bulk Modulus (GPa) = 20.06066 28.77797 24.41931
# Shear Modulus (GPa) = 20.42376 27.17598 23.79987
#
# Velocity S-wave (km/s) = 3.00433 3.46555 3.24315
# Velocity P-wave (km/s) = 4.57167 5.36016 4.98154
#
# Compressibility (1/GPa) = 0.04984882
#
# Stress axis : x y z
#
# Youngs Moduli (GPa) = 31.08973 113.37867 86.05295
#
# Poissons Ratio (x) = 0.06995 -0.03606
# Poissons Ratio (y) = 0.01918 0.10159
# Poissons Ratio (z) = -0.01303 0.13385
#
# Static dielectric constant tensor:
#      x y z
#    x 1.852200 0.000000 0.000000 
#    y 0.000000 1.834300 0.000000 
#    z 0.000000 0.000000 1.891980 
# 
# From -- ./inp_files/14143.got.cif
#   From: 2010.05.17/outbox.cif.g08.bks.cpg/sg46_8_cif.got.tgz:14143.got - 2010.06.03 19:58:25.
