data_PCOD9378026
_publ_section_title
;
Structure prediction by ZEFSAII (Michael W. Deem and Ramdas Pophale) SiO2 
 PCOD9378026
Probable space group: I M A 2
;
_chemical_formula_sum "Si O2"
_cell_formula_units_Z 64
_cell_length_a 8.645062
_cell_length_b 27.282694
_cell_length_c 18.934506
_cell_angle_alpha 90.000000
_cell_angle_beta 90.000000
_cell_angle_gamma 90.000000
_cell_volume 4465.903589
_symmetry_space_group_name_H-M "I M A 2"
_symmetry_group_IT_number 46
_symmetry_cell_setting 'orthorhombic'
loop_
_space_group_symop_operation_xyz
x,y,z
-x,-y,z
1/2-x,y,z
1/2+x,-y,z
1/2+x,1/2+y,1/2+z
1/2-x,1/2-y,1/2+z
-x,1/2+y,1/2+z
x,1/2-y,1/2+z
loop_
_atom_site_type_symbol
_atom_site_label
_atom_site_fract_x
_atom_site_fract_y
_atom_site_fract_z
Si Si1 0.937033 0.852843 0.562220
Si Si2 0.071905 0.195713 0.425387
Si Si3 0.935831 0.053331 0.640961
Si Si4 0.434297 0.743014 0.140607
Si Si5 0.928191 0.798075 0.013089
Si Si6 0.062910 0.254685 0.296937
Si Si7 0.064092 0.848047 0.881116
Si Si8 0.935963 0.052887 0.805326
O O1 0.750000 0.850519 0.562255
O O2 0.994459 0.842622 0.481806
O O3 0.994579 0.903631 0.593842
O O4 0.999336 0.808215 0.610117
O O5 0.250000 0.181185 0.412903
O O6 0.072011 0.246891 0.469042
O O7 0.005278 0.211439 0.349828
O O8 0.750000 0.053840 0.636740
O O9 0.980900 0.061480 0.723325
O O10 0.000000 0.000000 0.620759
O O11 0.250000 0.739843 0.143577
O O12 0.502880 0.751294 0.218049
O O13 0.485795 0.785010 0.085420
O O14 0.750000 0.811038 0.026575
O O15 0.006950 0.836352 0.960169
O O16 0.250000 0.255190 0.298521
O O17 0.003649 0.305825 0.330085
O O18 0.250000 0.845087 0.878528
O O19 0.014130 0.901145 0.852539
O O20 0.750000 0.050744 0.807331
O O21 0.000000 0.000000 0.827173
#
# Coordination Sequence:
#
# PCOD9378026 Si02
#       8
#     8   8   8   8   8   8   8   8
#     4  10  18  30  46  63  83 112 146 179 215 259
#     4   7  14  27  42  59  80 105 138 173 206 246
#     4  10  19  31  44  62  86 114 146 181 216 251
#     4  11  20  29  42  63  88 114 144 181 217 253
#     4   9  17  30  44  60  82 112 145 175 209 256
#     4  10  18  29  44  62  85 116 147 176 210 257
#     4  10  18  29  44  64  87 112 142 180 219 255
#     4   9  19  31  43  59  83 111 143 179 214 249
#
# _framework density 14.330807
#
# number of rings (size 3 to 8) (size 9 to 14) (size 15 to 20)
#    0.000    2.500    0.000    5.250    0.000    2.500 
#    0.000    1.875    0.000    0.000    0.000    0.000 
#    0.000    1.000    0.000    7.250    0.000    3.500 
#
# Total GULP energy -178279.712900 kJ/mol
# GULP energy per Si atom -5571.241028 kJ/mol
# Density = 1.429819 g / cm^3
# Si number density = 14.330807 Si / 1000 Ang^3
#
#
#
# Elastic Constant Matrix: (Units=GPa)
#
#
# Indices 1 2 3 4 5 6 
#
# 1 64.0672 31.0818 36.2055 0.0000 0.0000 0.0000
# 2 31.0818 98.6180 67.8204 0.0000 0.0000 0.0000
# 3 36.2055 67.8204 122.2325 0.0000 0.0000 0.0000
# 4 0.0000 0.0000 0.0000 27.5418 0.0000 0.0000
# 5 0.0000 0.0000 0.0000 0.0000 20.3834 0.0000
# 6 0.0000 0.0000 0.0000 0.0000 0.0000 20.5430
#
#
#
# Elastic Compliance Matrix: (Units=1/GPa)
#
#
# Indices 1 2 3 4 5 6 
#
# 1 0.019470 -0.003509 -0.003820 0.000000 0.000000 0.000000
# 2 -0.003509 0.017029 -0.008409 0.000000 0.000000 0.000000
# 3 -0.003820 -0.008409 0.013978 0.000000 0.000000 0.000000
# 4 0.000000 0.000000 0.000000 0.036309 0.000000 0.000000
# 5 0.000000 0.000000 0.000000 0.000000 0.049060 0.000000
# 6 0.000000 0.000000 0.000000 0.000000 0.000000 0.048678
#
#
# Mechanical properties :
#
#
# Convention : Reuss Voigt Hill
#
# Bulk Modulus (GPa) = 52.62975 61.68146 57.15561
# Shear Modulus (GPa) = 22.48868 23.68097 23.08483
#
# Velocity S-wave (km/s) = 3.96568 4.06945 4.01790
# Velocity P-wave (km/s) = 7.60088 8.07559 7.84183
#
# Compressibility (1/GPa) = 0.01900066
#
# Stress axis : x y z
#
# Youngs Moduli (GPa) = 51.36152 58.72247 71.53927
#
# Poissons Ratio (x) = 0.20609 0.27326
# Poissons Ratio (y) = 0.18025 0.60158
# Poissons Ratio (z) = 0.19619 0.49380
#
# Static dielectric constant tensor:
#      x y z
#    x 1.484870 0.000000 0.000000 
#    y 0.000000 1.453390 0.000000 
#    z 0.000000 0.000000 1.484810 
# 
# From -- ./inp_files/18669.got.cif
#   From: 2010.05.17/outbox.cif.g08.bks.cpg/sg46_10_cif.got.tgz:18669.got - 2010.06.03 19:58:25.
