data_PCOD9378906
_publ_section_title
;
Structure prediction by ZEFSAII (Michael W. Deem and Ramdas Pophale) SiO2 
 PCOD9378906
Probable space group: I M A 2
;
_chemical_formula_sum "Si O2"
_cell_formula_units_Z 40
_cell_length_a 8.725643
_cell_length_b 28.802571
_cell_length_c 9.633751
_cell_angle_alpha 90.000000
_cell_angle_beta 90.000000
_cell_angle_gamma 90.000000
_cell_volume 2421.163473
_symmetry_space_group_name_H-M "I M A 2"
_symmetry_group_IT_number 46
_symmetry_cell_setting 'orthorhombic'
loop_
_space_group_symop_operation_xyz
x,y,z
-x,-y,z
1/2-x,y,z
1/2+x,-y,z
1/2+x,1/2+y,1/2+z
1/2-x,1/2-y,1/2+z
-x,1/2+y,1/2+z
x,1/2-y,1/2+z
loop_
_atom_site_type_symbol
_atom_site_label
_atom_site_fract_x
_atom_site_fract_y
_atom_site_fract_z
Si Si1 0.067484 0.709812 0.509260
Si Si2 0.930927 0.860329 0.805423
Si Si3 0.567465 0.364467 0.015815
Si Si4 0.567006 0.708829 0.816703
Si Si5 0.069242 0.050646 0.649835
O O1 0.250000 0.713460 0.517964
O O2 0.017187 0.662328 0.433066
O O3 0.995013 0.712754 0.661133
O O4 0.001971 0.750317 0.411324
O O5 0.750000 0.849608 0.810996
O O6 0.949066 0.915916 0.785005
O O7 0.001771 0.842089 0.659414
O O8 0.750000 0.360333 0.011877
O O9 0.515386 0.418029 0.033494
O O10 0.490789 0.338675 0.887685
O O11 0.750000 0.711253 0.818103
O O12 0.250000 0.048335 0.620049
O O13 0.000000 0.000000 0.664933
#
# Coordination Sequence:
#
# PCOD9378906 Si02
#       5
#     8   8   8   8   8
#     4  12  24  38  56  80 109 145 188 231 277 329
#     4   9  19  35  54  80 111 144 182 224 275 328
#     4  10  19  34  55  81 111 142 183 229 274 324
#     4  12  24  39  56  77 110 149 186 227 279 333
#     4   9  18  32  56  85 114 145 186 230 279 329
#
# _framework density 16.520982
#
# number of rings (size 3 to 8) (size 9 to 14) (size 15 to 20)
#    1.200    0.400    0.000    7.200    0.000    0.000 
#    0.000    0.000    0.000    1.200    0.000    5.600 
#    0.000    0.000    0.000    0.000    0.000    0.000 
#
# Total GULP energy -111486.506741 kJ/mol
# GULP energy per Si atom -5574.325337 kJ/mol
# Density = 1.648338 g / cm^3
# Si number density = 16.520982 Si / 1000 Ang^3
#
#
#
# Elastic Constant Matrix: (Units=GPa)
#
#
# Indices 1 2 3 4 5 6 
#
# 1 164.4751 52.5502 51.2785 0.0000 0.0000 0.0000
# 2 52.5502 99.1766 47.6092 0.0000 0.0000 0.0000
# 3 51.2785 47.6092 111.7749 0.0001 0.0003 0.0000
# 4 0.0000 0.0000 0.0001 19.0146 0.0000 0.0000
# 5 0.0000 0.0000 0.0003 0.0000 34.7461 0.0000
# 6 0.0000 0.0000 0.0000 0.0000 0.0000 32.6217
#
#
#
# Elastic Compliance Matrix: (Units=1/GPa)
#
#
# Indices 1 2 3 4 5 6 
#
# 1 0.007752 -0.003017 -0.002271 0.000000 0.000000 0.000000
# 2 -0.003017 0.013849 -0.004515 0.000000 0.000000 0.000000
# 3 -0.002271 -0.004515 0.011911 0.000000 0.000000 0.000000
# 4 0.000000 0.000000 0.000000 0.052591 0.000000 0.000000
# 5 0.000000 0.000000 0.000000 0.000000 0.028780 0.000000
# 6 0.000000 0.000000 0.000000 0.000000 0.000000 0.030654
#
#
# Mechanical properties :
#
#
# Convention : Reuss Voigt Hill
#
# Bulk Modulus (GPa) = 71.90961 75.36694 73.63827
# Shear Modulus (GPa) = 29.44991 32.20907 30.82949
#
# Velocity S-wave (km/s) = 4.22664 4.42020 4.32450
# Velocity P-wave (km/s) = 8.21219 8.47165 8.34293
#
# Compressibility (1/GPa) = 0.01390635
#
# Stress axis : x y z
#
# Youngs Moduli (GPa) = 128.99777 72.20753 83.95293
#
# Poissons Ratio (x) = 0.21787 0.19068
# Poissons Ratio (y) = 0.38922 0.37901
# Poissons Ratio (z) = 0.29298 0.32599
#
# Static dielectric constant tensor:
#      x y z
#    x 1.540000 0.000000 0.000000 
#    y 0.000000 1.579410 0.000000 
#    z 0.000000 0.000000 1.537100 
# 
# From -- ./inp_files/3679.got.cif
#   From: 2010.05.17/outbox.cif.g08.bks.cpg/sg46_2_cif.got.tgz:3679.got - 2010.06.03 19:58:25.
