data_PCOD9378311
_publ_section_title
;
Structure prediction by ZEFSAII (Michael W. Deem and Ramdas Pophale) SiO2 
 PCOD9378311
Probable space group: I M A 2
;
_chemical_formula_sum "Si O2"
_cell_formula_units_Z 64
_cell_length_a 14.288846
_cell_length_b 11.539214
_cell_length_c 18.230422
_cell_angle_alpha 90.000000
_cell_angle_beta 90.000000
_cell_angle_gamma 90.000000
_cell_volume 3005.869385
_symmetry_space_group_name_H-M "I M A 2"
_symmetry_group_IT_number 46
_symmetry_cell_setting 'orthorhombic'
loop_
_space_group_symop_operation_xyz
x,y,z
-x,-y,z
1/2-x,y,z
1/2+x,-y,z
1/2+x,1/2+y,1/2+z
1/2-x,1/2-y,1/2+z
-x,1/2+y,1/2+z
x,1/2-y,1/2+z
loop_
_atom_site_type_symbol
_atom_site_label
_atom_site_fract_x
_atom_site_fract_y
_atom_site_fract_z
Si Si1 0.982562 0.119462 0.326280
Si Si2 0.350324 0.925248 0.458875
Si Si3 0.362507 0.968627 0.935101
Si Si4 0.636022 0.731852 0.407958
Si Si5 0.143899 0.700044 0.554693
Si Si6 0.357010 0.353453 0.060668
Si Si7 0.861668 0.328917 0.286492
Si Si8 0.479735 0.870422 0.651452
O O1 0.930109 0.076052 0.399688
O O2 0.907564 0.202252 0.287869
O O3 0.073774 0.194075 0.350607
O O4 0.000000 0.000000 0.283481
O O5 0.250000 0.952571 0.423094
O O6 0.347449 0.797242 0.491309
O O7 0.359682 0.016805 0.524849
O O8 0.250000 0.976030 0.945092
O O9 0.377980 0.884708 0.866153
O O10 0.392546 0.096980 0.911149
O O11 0.396458 0.911289 0.011408
O O12 0.750000 0.742083 0.396700
O O13 0.613476 0.779471 0.489472
O O14 0.250000 0.676918 0.582123
O O15 0.083807 0.772221 0.612797
O O16 0.250000 0.329148 0.077150
O O17 0.416544 0.324921 0.132859
O O18 0.750000 0.331446 0.271355
O O19 0.924848 0.393575 0.226446
O O20 0.500000 0.000000 0.621307
#
# Coordination Sequence:
#
# PCOD9378311 Si02
#       8
#     8   8   8   8   8   8   8   8
#     4  12  23  37  66  96 130 172 221 273 337 402
#     4  10  18  33  59  93 125 156 207 277 333 380
#     4   9  20  40  65  94 129 170 211 266 335 399
#     4  10  22  38  61  99 136 167 213 275 340 398
#     4  10  19  36  64  95 124 160 213 270 326 388
#     4  10  21  38  61  93 133 168 213 278 333 386
#     4  11  26  46  65  94 137 177 221 275 333 400
#     4  12  25  39  62  95 131 176 224 272 327 389
#
# _framework density 21.291675999999999
#
# number of rings (size 3 to 8) (size 9 to 14) (size 15 to 20)
#    0.000    1.500    3.750    1.500    1.750    1.000 
#    0.000    1.875    0.000    1.500    0.000    0.000 
#    0.000    0.000    0.000    0.000    0.000    0.000 
#
# Total GULP energy -178201.825182 kJ/mol
# GULP energy per Si atom -5568.807037 kJ/mol
# Density = 2.124321 g / cm^3
# Si number density = 21.291676 Si / 1000 Ang^3
#
#
#
# Elastic Constant Matrix: (Units=GPa)
#
#
# Indices 1 2 3 4 5 6 
#
# 1 81.5998 15.9865 30.7534 0.0000 0.0000 0.0000
# 2 15.9865 112.1237 -0.7208 0.0000 0.0000 0.0000
# 3 30.7534 -0.7208 28.1536 0.0000 0.0000 0.0000
# 4 0.0000 0.0000 0.0000 7.1875 0.0000 0.0000
# 5 0.0000 0.0000 0.0000 0.0000 33.7086 0.0000
# 6 0.0000 0.0000 0.0000 0.0000 0.0000 27.5551
#
#
#
# Elastic Compliance Matrix: (Units=1/GPa)
#
#
# Indices 1 2 3 4 5 6 
#
# 1 0.021980 -0.003289 -0.024094 0.000000 0.000000 0.000000
# 2 -0.003289 0.009412 0.003833 0.000000 0.000000 0.000000
# 3 -0.024094 0.003833 0.061936 0.000000 0.000000 0.000000
# 4 0.000000 0.000000 0.000000 0.139131 0.000000 0.000000
# 5 0.000000 0.000000 0.000000 0.000000 0.029666 0.000000
# 6 0.000000 0.000000 0.000000 0.000000 0.000000 0.036291
#
#
# Mechanical properties :
#
#
# Convention : Reuss Voigt Hill
#
# Bulk Modulus (GPa) = 21.63090 34.87949 28.25520
# Shear Modulus (GPa) = 13.85335 25.41411 19.63373
#
# Velocity S-wave (km/s) = 2.55354 3.45862 3.03996
# Velocity P-wave (km/s) = 4.34459 5.68918 5.06173
#
# Compressibility (1/GPa) = 0.04623016
#
# Stress axis : x y z
#
# Youngs Moduli (GPa) = 45.49669 106.24436 16.14571
#
# Poissons Ratio (x) = 0.34941 0.38901
# Poissons Ratio (y) = 0.14963 -0.06189
# Poissons Ratio (z) = 1.09617 -0.40728
#
# Static dielectric constant tensor:
#      x y z
#    x 1.874940 0.000000 0.000000 
#    y 0.000000 1.857800 0.000000 
#    z 0.000000 0.000000 1.801490 
# 
# From -- ./inp_files/19635.got.cif
#   From: 2010.05.17/outbox.cif.g08.bks.cpg/sg46_10_cif.got.tgz:19635.got - 2010.06.03 19:58:25.
