data_PCOD9378785
_publ_section_title
;
Structure prediction by ZEFSAII (Michael W. Deem and Ramdas Pophale) SiO2 
 PCOD9378785
Probable space group: I M A 2
;
_chemical_formula_sum "Si O2"
_cell_formula_units_Z 48
_cell_length_a 32.069175
_cell_length_b 9.263940
_cell_length_c 8.764484
_cell_angle_alpha 90.000000
_cell_angle_beta 90.000000
_cell_angle_gamma 90.000000
_cell_volume 2603.813496
_symmetry_space_group_name_H-M "I M A 2"
_symmetry_group_IT_number 46
_symmetry_cell_setting 'orthorhombic'
loop_
_space_group_symop_operation_xyz
x,y,z
-x,-y,z
1/2-x,y,z
1/2+x,-y,z
1/2+x,1/2+y,1/2+z
1/2-x,1/2-y,1/2+z
-x,1/2+y,1/2+z
x,1/2-y,1/2+z
loop_
_atom_site_type_symbol
_atom_site_label
_atom_site_fract_x
_atom_site_fract_y
_atom_site_fract_z
Si Si1 0.378033 0.563288 0.184250
Si Si2 0.166297 0.371579 0.810302
Si Si3 0.454880 0.064222 0.170973
Si Si4 0.112624 0.871237 0.326386
Si Si5 0.297300 0.386333 0.132177
Si Si6 0.081452 0.193157 0.859591
O O1 0.382430 0.705411 0.285164
O O2 0.331312 0.498905 0.195032
O O3 0.408305 0.437102 0.244110
O O4 0.387107 0.602107 0.008101
O O5 0.149856 0.527827 0.760483
O O6 0.187443 0.271246 0.685788
O O7 0.124335 0.287179 0.868809
O O8 0.197305 0.390108 0.950741
O O9 0.452710 0.197643 0.290289
O O10 0.500000 0.000000 0.136629
O O11 0.428219 0.936700 0.247657
O O12 0.432296 0.126139 0.019980
O O13 0.250000 0.413430 0.179418
#
# Coordination Sequence:
#
# PCOD9378785 Si02
#       6
#     8   8   8   8   8   8
#     4  10  21  37  59  79 110 150 185 222 272 336
#     4   9  18  34  57  77 104 142 181 220 268 331
#     4  11  23  38  59  86 112 141 183 232 273 317
#     4  10  20  37  57  81 108 146 187 223 273 334
#     4  10  19  33  53  81 108 139 182 230 272 317
#     4  10  20  39  59  80 111 148 183 219 270 333
#
# _framework density 18.434501000000001
#
# number of rings (size 3 to 8) (size 9 to 14) (size 15 to 20)
#    0.000    2.000    0.000    6.500    0.000    4.000 
#    0.000    5.833    0.000    0.000    0.000    0.000 
#    0.000    0.000    0.000    0.000    0.000    0.000 
#
# Total GULP energy -133938.620551 kJ/mol
# GULP energy per Si atom -5580.775856 kJ/mol
# Density = 1.839254 g / cm^3
# Si number density = 18.434501 Si / 1000 Ang^3
#
#
#
# Elastic Constant Matrix: (Units=GPa)
#
#
# Indices 1 2 3 4 5 6 
#
# 1 54.3935 7.0305 -1.1056 0.0000 0.0000 0.0000
# 2 7.0305 103.7993 4.3926 0.0000 0.0000 0.0000
# 3 -1.1056 4.3926 30.4820 0.0000 0.0000 0.0000
# 4 0.0000 0.0000 0.0000 33.6778 0.0000 0.0000
# 5 0.0000 0.0000 0.0000 0.0000 12.8815 0.0000
# 6 0.0000 0.0000 0.0000 0.0000 0.0000 8.7819
#
#
#
# Elastic Compliance Matrix: (Units=1/GPa)
#
#
# Indices 1 2 3 4 5 6 
#
# 1 0.018569 -0.001294 0.000860 0.000000 0.000000 0.000000
# 2 -0.001294 0.009783 -0.001457 0.000000 0.000000 0.000000
# 3 0.000860 -0.001457 0.033047 0.000000 0.000000 0.000000
# 4 0.000000 0.000000 0.000000 0.029693 0.000000 0.000000
# 5 0.000000 0.000000 0.000000 0.000000 0.077631 0.000000
# 6 0.000000 0.000000 0.000000 0.000000 0.000000 0.113870
#
#
# Mechanical properties :
#
#
# Convention : Reuss Voigt Hill
#
# Bulk Modulus (GPa) = 17.35562 23.25665 20.30614
# Shear Modulus (GPa) = 16.36224 22.95874 19.66049
#
# Velocity S-wave (km/s) = 2.98247 3.53288 3.26928
# Velocity P-wave (km/s) = 4.61469 5.41155 5.02893
#
# Compressibility (1/GPa) = 0.05761823
#
# Stress axis : x y z
#
# Youngs Moduli (GPa) = 53.85237 102.21526 30.25955
#
# Poissons Ratio (x) = 0.13228 -0.02602
# Poissons Ratio (y) = 0.06969 0.04408
# Poissons Ratio (z) = -0.04631 0.14890
#
# Static dielectric constant tensor:
#      x y z
#    x 1.637750 0.000000 0.000000 
#    y 0.000000 1.622990 0.000000 
#    z 0.000000 0.000000 1.644920 
# 
# From -- ./inp_files/8380.got.cif
#   From: 2010.05.17/outbox.cif.g08.bks.cpg/sg46_5_cif.got.tgz:8380.got - 2010.06.03 19:58:25.
