data_PCOD9378863
_publ_section_title
;
Structure prediction by ZEFSAII (Michael W. Deem and Ramdas Pophale) SiO2 
 PCOD9378863
Probable space group: I M A 2
;
_chemical_formula_sum "Si O2"
_cell_formula_units_Z 48
_cell_length_a 9.160066
_cell_length_b 22.988553
_cell_length_c 11.677374
_cell_angle_alpha 90.000000
_cell_angle_beta 90.000000
_cell_angle_gamma 90.000000
_cell_volume 2458.982446
_symmetry_space_group_name_H-M "I M A 2"
_symmetry_group_IT_number 46
_symmetry_cell_setting 'orthorhombic'
loop_
_space_group_symop_operation_xyz
x,y,z
-x,-y,z
1/2-x,y,z
1/2+x,-y,z
1/2+x,1/2+y,1/2+z
1/2-x,1/2-y,1/2+z
-x,1/2+y,1/2+z
x,1/2-y,1/2+z
loop_
_atom_site_type_symbol
_atom_site_label
_atom_site_fract_x
_atom_site_fract_y
_atom_site_fract_z
Si Si1 0.077578 0.765297 0.110490
Si Si2 0.583041 0.649587 0.772722
Si Si3 0.084220 0.443495 0.567861
Si Si4 0.577223 0.358338 0.407633
Si Si5 0.425246 0.062441 0.472778
Si Si6 0.575980 0.848972 0.664877
O O1 0.250000 0.754719 0.123715
O O2 0.016044 0.798843 0.222963
O O3 0.989504 0.705896 0.097111
O O4 0.055364 0.806543 0.000023
O O5 0.750000 0.669976 0.795413
O O6 0.589019 0.603454 0.668890
O O7 0.529388 0.611523 0.879932
O O8 0.250000 0.457285 0.534240
O O9 0.000000 0.500000 0.609752
O O10 0.994809 0.414940 0.464788
O O11 0.750000 0.365546 0.391845
O O12 0.498830 0.347259 0.288214
O O13 0.250000 0.055596 0.459373
O O14 0.455424 0.091724 0.595764
O O15 0.500000 0.000000 0.457547
O O16 0.750000 0.843126 0.674270
#
# Coordination Sequence:
#
# PCOD9378863 Si02
#       6
#     8   8   8   8   8   8
#     4  10  22  39  61  90 119 151 198 251 307 359
#     4   9  19  37  60  89 121 155 197 244 300 360
#     4  10  19  33  57  86 117 153 194 241 296 352
#     4  10  22  40  59  84 117 151 197 248 297 356
#     4  10  23  41  61  89 122 162 205 247 299 360
#     4  11  24  40  60  86 120 160 201 245 301 366
#
# _framework density 19.520268999999999
#
# number of rings (size 3 to 8) (size 9 to 14) (size 15 to 20)
#    0.000    2.000    0.000    2.500    2.333    5.333 
#    0.000    1.667    0.000    0.000    0.000    0.000 
#    0.000    0.000    0.000    0.000    0.000    0.000 
#
# Total GULP energy -134024.221193 kJ/mol
# GULP energy per Si atom -5584.342550 kJ/mol
# Density = 1.947584 g / cm^3
# Si number density = 19.520269 Si / 1000 Ang^3
#
#
#
# Elastic Constant Matrix: (Units=GPa)
#
#
# Indices 1 2 3 4 5 6 
#
# 1 79.2586 27.0833 43.0372 0.0001 0.0000 0.0000
# 2 27.0833 56.0650 12.8956 0.0000 0.0000 0.0000
# 3 43.0372 12.8956 77.5988 0.0002 0.0000 -0.0001
# 4 0.0001 0.0000 0.0002 15.8044 0.0000 -0.0001
# 5 0.0000 0.0000 0.0000 0.0000 28.3995 0.0000
# 6 0.0000 0.0000 -0.0001 -0.0001 0.0000 29.2586
#
#
#
# Elastic Compliance Matrix: (Units=1/GPa)
#
#
# Indices 1 2 3 4 5 6 
#
# 1 0.020824 -0.007697 -0.010270 0.000000 0.000000 0.000000
# 2 -0.007697 0.021390 0.000714 0.000000 0.000000 0.000000
# 3 -0.010270 0.000714 0.018464 0.000000 0.000000 0.000000
# 4 0.000000 0.000000 0.000000 0.063273 0.000000 0.000000
# 5 0.000000 0.000000 0.000000 0.000000 0.035212 0.000000
# 6 0.000000 0.000000 0.000000 0.000000 0.000000 0.034178
#
#
# Mechanical properties :
#
#
# Convention : Reuss Voigt Hill
#
# Bulk Modulus (GPa) = 38.20829 42.10607 40.15718
# Shear Modulus (GPa) = 21.13530 23.35291 22.24411
#
# Velocity S-wave (km/s) = 3.29407 3.46257 3.37937
# Velocity P-wave (km/s) = 5.83815 6.13214 5.98695
#
# Compressibility (1/GPa) = 0.02617233
#
# Stress axis : x y z
#
# Youngs Moduli (GPa) = 48.02244 46.74994 54.15967
#
# Poissons Ratio (x) = 0.35984 0.55621
# Poissons Ratio (y) = 0.36963 -0.03868
# Poissons Ratio (z) = 0.49319 -0.03339
#
# Static dielectric constant tensor:
#      x y z
#    x 1.658500 0.000000 0.000000 
#    y 0.000000 1.686690 0.000000 
#    z 0.000000 0.000000 1.695930 
# 
# From -- ./inp_files/9297.got.cif
#   From: 2010.05.17/outbox.cif.g08.bks.cpg/sg46_5_cif.got.tgz:9297.got - 2010.06.03 19:58:25.
