data_PCOD9378802
_publ_section_title
;
Structure prediction by ZEFSAII (Michael W. Deem and Ramdas Pophale) SiO2 
 PCOD9378802
Probable space group: I M A 2
;
_chemical_formula_sum "Si O2"
_cell_formula_units_Z 64
_cell_length_a 15.815451
_cell_length_b 8.658861
_cell_length_c 24.887381
_cell_angle_alpha 90.000000
_cell_angle_beta 90.000000
_cell_angle_gamma 90.000000
_cell_volume 3408.172324
_symmetry_space_group_name_H-M "I M A 2"
_symmetry_group_IT_number 46
_symmetry_cell_setting 'orthorhombic'
loop_
_space_group_symop_operation_xyz
x,y,z
-x,-y,z
1/2-x,y,z
1/2+x,-y,z
1/2+x,1/2+y,1/2+z
1/2-x,1/2-y,1/2+z
-x,1/2+y,1/2+z
x,1/2-y,1/2+z
loop_
_atom_site_type_symbol
_atom_site_label
_atom_site_fract_x
_atom_site_fract_y
_atom_site_fract_z
Si Si1 0.846674 0.680654 0.550100
Si Si2 0.648537 0.691636 0.931438
Si Si3 0.848606 0.192320 0.046927
Si Si4 0.147398 0.663787 0.933156
Si Si5 0.500864 0.311904 0.624883
Si Si6 0.918713 0.887719 0.833800
Si Si7 0.993507 0.184714 0.248565
Si Si8 0.344999 0.803489 0.820006
O O1 0.750000 0.723124 0.564771
O O2 0.865681 0.748210 0.491518
O O3 0.849766 0.494315 0.545138
O O4 0.916806 0.734200 0.592413
O O5 0.750000 0.698657 0.921502
O O6 0.620815 0.513735 0.928603
O O7 0.602795 0.796382 0.887643
O O8 0.750000 0.238703 0.056180
O O9 0.915060 0.239244 0.092882
O O10 0.878331 0.258261 0.989254
O O11 0.250000 0.667728 0.934528
O O12 0.122125 0.751784 0.878988
O O13 0.500000 0.500000 0.624957
O O14 0.499972 0.263580 0.686832
O O15 0.937690 0.767809 0.786239
O O16 0.847241 0.011463 0.819283
O O17 0.000000 0.000000 0.839374
O O18 0.904912 0.235940 0.274476
O O19 0.000000 0.000000 0.251253
O O20 0.250000 0.744721 0.814090
#
# Coordination Sequence:
#
# PCOD9378802 Si02
#       8
#     8   8   8   8   8   8   8   8
#     4   9  18  33  53  77 107 142 178 218 266 322
#     4  10  19  33  54  81 110 137 173 221 271 322
#     4   9  17  32  55  81 108 139 175 216 266 325
#     4   9  18  32  52  81 112 139 171 217 271 324
#     4   9  19  35  55  77 103 139 183 225 265 316
#     4  10  21  35  53  77 108 143 179 219 268 325
#     4  10  21  38  56  79 110 141 182 233 276 318
#     4  10  20  36  57  79 108 146 184 221 268 328
#
# _framework density 18.778393999999999
#
# number of rings (size 3 to 8) (size 9 to 14) (size 15 to 20)
#    0.000    2.500    0.000    1.875    0.000    6.000 
#    0.000   10.625    0.000    1.500    0.000    0.000 
#    0.000    0.000    0.000    0.000    0.000    0.000 
#
# Total GULP energy -178529.565388 kJ/mol
# GULP energy per Si atom -5579.048918 kJ/mol
# Density = 1.873565 g / cm^3
# Si number density = 18.778394 Si / 1000 Ang^3
#
#
#
# Elastic Constant Matrix: (Units=GPa)
#
#
# Indices 1 2 3 4 5 6 
#
# 1 80.5585 28.5289 79.0076 0.0000 0.0000 0.0000
# 2 28.5289 65.6836 54.3375 0.0000 0.0000 0.0000
# 3 79.0076 54.3375 170.8329 0.0000 0.0000 0.0000
# 4 0.0000 0.0000 0.0000 27.0073 0.0000 0.0000
# 5 0.0000 0.0000 0.0000 0.0000 18.0443 0.0000
# 6 0.0000 0.0000 0.0000 0.0000 0.0000 16.9874
#
#
#
# Elastic Compliance Matrix: (Units=1/GPa)
#
#
# Indices 1 2 3 4 5 6 
#
# 1 0.022841 -0.001604 -0.010054 0.000000 0.000000 0.000000
# 2 -0.001604 0.020774 -0.005866 0.000000 0.000000 0.000000
# 3 -0.010054 -0.005866 0.012369 0.000000 0.000000 0.000000
# 4 0.000000 0.000000 0.000000 0.037027 0.000000 0.000000
# 5 0.000000 0.000000 0.000000 0.000000 0.055419 0.000000
# 6 0.000000 0.000000 0.000000 0.000000 0.000000 0.058867
#
#
# Mechanical properties :
#
#
# Convention : Reuss Voigt Hill
#
# Bulk Modulus (GPa) = 47.76117 71.20256 59.48187
# Shear Modulus (GPa) = 20.05428 22.75454 21.40441
#
# Velocity S-wave (km/s) = 3.27149 3.48478 3.37982
# Velocity P-wave (km/s) = 6.30551 7.36147 6.85386
#
# Compressibility (1/GPa) = 0.02093751
#
# Stress axis : x y z
#
# Youngs Moduli (GPa) = 43.78005 48.13784 80.84668
#
# Poissons Ratio (x) = 0.07721 0.81281
# Poissons Ratio (y) = 0.07022 0.47423
# Poissons Ratio (z) = 0.44015 0.28237
#
# Static dielectric constant tensor:
#      x y z
#    x 1.687960 0.000000 0.000000 
#    y 0.000000 1.650430 0.000000 
#    z 0.000000 0.000000 1.612730 
# 
# From -- ./inp_files/22270.got.cif
#   From: 2010.05.17/outbox.cif.g08.bks.cpg/sg46_12_cif.got.tgz:22270.got - 2010.06.03 19:58:25.
