data_PCOD9378438
_publ_section_title
;
Structure prediction by ZEFSAII (Michael W. Deem and Ramdas Pophale) SiO2 
 PCOD9378438
Probable space group: I M A 2
;
_chemical_formula_sum "Si O2"
_cell_formula_units_Z 64
_cell_length_a 8.898980
_cell_length_b 26.717271
_cell_length_c 18.771373
_cell_angle_alpha 90.000000
_cell_angle_beta 90.000000
_cell_angle_gamma 90.000000
_cell_volume 4463.015199
_symmetry_space_group_name_H-M "I M A 2"
_symmetry_group_IT_number 46
_symmetry_cell_setting 'orthorhombic'
loop_
_space_group_symop_operation_xyz
x,y,z
-x,-y,z
1/2-x,y,z
1/2+x,-y,z
1/2+x,1/2+y,1/2+z
1/2-x,1/2-y,1/2+z
-x,1/2+y,1/2+z
x,1/2-y,1/2+z
loop_
_atom_site_type_symbol
_atom_site_label
_atom_site_fract_x
_atom_site_fract_y
_atom_site_fract_z
Si Si1 0.569183 0.256453 0.204520
Si Si2 0.922817 0.304619 0.572249
Si Si3 0.428924 0.246953 0.859680
Si Si4 0.070127 0.053075 0.707137
Si Si5 0.429591 0.946229 0.861727
Si Si6 0.927603 0.643897 0.445123
Si Si7 0.929161 0.651494 0.118097
Si Si8 0.576915 0.301134 0.986927
O O1 0.750000 0.260601 0.203412
O O2 0.528174 0.210409 0.151769
O O3 0.508797 0.249919 0.283779
O O4 0.499509 0.306522 0.170024
O O5 0.750000 0.322316 0.573096
O O6 0.924157 0.251245 0.530978
O O7 0.023392 0.341020 0.524884
O O8 0.250000 0.251333 0.851794
O O9 0.459779 0.192635 0.895719
O O10 0.490497 0.288433 0.914489
O O11 0.250000 0.048286 0.716399
O O12 0.040226 0.097321 0.651611
O O13 0.996498 0.065899 0.783451
O O14 0.000000 0.000000 0.685031
O O15 0.250000 0.949700 0.858045
O O16 0.481668 0.902974 0.915023
O O17 0.500000 0.000000 0.881555
O O18 0.750000 0.634113 0.441470
O O19 0.750000 0.659102 0.115269
O O20 0.998367 0.660000 0.040035
O O21 0.750000 0.314371 0.973451
#
# Coordination Sequence:
#
# PCOD9378438 Si02
#       8
#     8   8   8   8   8   8   8   8
#     4  10  19  29  43  63  87 115 147 179 211 253
#     4   8  16  29  42  59  82 109 141 175 210 248
#     4  10  19  29  43  63  88 116 145 178 214 253
#     4  10  20  32  45  62  85 112 144 181 216 252
#     4  11  21  32  46  62  84 112 143 180 216 251
#     4  10  19  30  44  62  84 112 145 177 212 254
#     4  10  19  30  44  62  85 113 145 179 216 256
#     4   9  17  29  44  61  83 111 143 177 212 253
#
# _framework density 14.340082000000001
#
# number of rings (size 3 to 8) (size 9 to 14) (size 15 to 20)
#    0.000    2.250    0.000    5.625    0.000   10.000 
#    0.000    0.000    0.000    0.000    0.000    0.000 
#    0.000    1.000    0.000    7.000    0.000    4.875 
#
# Total GULP energy -178445.317777 kJ/mol
# GULP energy per Si atom -5576.416181 kJ/mol
# Density = 1.430744 g / cm^3
# Si number density = 14.340082 Si / 1000 Ang^3
#
#
#
# Elastic Constant Matrix: (Units=GPa)
#
#
# Indices 1 2 3 4 5 6 
#
# 1 86.1965 51.3919 48.1468 0.0000 0.0000 0.0000
# 2 51.3919 70.8862 45.8010 0.0000 0.0000 0.0000
# 3 48.1468 45.8010 95.6568 0.0001 0.0000 0.0000
# 4 0.0000 0.0000 0.0001 23.0107 0.0000 0.0000
# 5 0.0000 0.0000 0.0000 0.0000 27.2683 0.0000
# 6 0.0000 0.0000 0.0000 0.0000 0.0000 20.8507
#
#
#
# Elastic Compliance Matrix: (Units=1/GPa)
#
#
# Indices 1 2 3 4 5 6 
#
# 1 0.021950 -0.012706 -0.004964 0.000000 0.000000 0.000000
# 2 -0.012706 0.027781 -0.006907 0.000000 0.000000 0.000000
# 3 -0.004964 -0.006907 0.016260 0.000000 0.000000 0.000000
# 4 0.000000 0.000000 0.000000 0.043458 0.000000 0.000000
# 5 0.000000 0.000000 0.000000 0.000000 0.036673 0.000000
# 6 0.000000 0.000000 0.000000 0.000000 0.000000 0.047960
#
#
# Mechanical properties :
#
#
# Convention : Reuss Voigt Hill
#
# Bulk Modulus (GPa) = 59.39255 60.37988 59.88621
# Shear Modulus (GPa) = 20.09265 21.38593 20.73929
#
# Velocity S-wave (km/s) = 3.74726 3.86598 3.80708
# Velocity P-wave (km/s) = 7.76078 7.88193 7.82159
#
# Compressibility (1/GPa) = 0.01683713
#
# Stress axis : x y z
#
# Youngs Moduli (GPa) = 45.55857 35.99552 61.50196
#
# Poissons Ratio (x) = 0.45735 0.30532
# Poissons Ratio (y) = 0.57886 0.42477
# Poissons Ratio (z) = 0.22617 0.24861
#
# Static dielectric constant tensor:
#      x y z
#    x 1.479440 0.000000 0.000000 
#    y 0.000000 1.453970 0.000000 
#    z 0.000000 0.000000 1.469560 
# 
# From -- ./inp_files/18637.got.cif
#   From: 2010.05.17/outbox.cif.g08.bks.cpg/sg46_10_cif.got.tgz:18637.got - 2010.06.03 19:58:25.
