data_PCOD9378848
_publ_section_title
;
Structure prediction by ZEFSAII (Michael W. Deem and Ramdas Pophale) SiO2 
 PCOD9378848
Probable space group: I M A 2
;
_chemical_formula_sum "Si O2"
_cell_formula_units_Z 48
_cell_length_a 8.758633
_cell_length_b 29.010717
_cell_length_c 10.542569
_cell_angle_alpha 90.000000
_cell_angle_beta 90.000000
_cell_angle_gamma 90.000000
_cell_volume 2678.805881
_symmetry_space_group_name_H-M "I M A 2"
_symmetry_group_IT_number 46
_symmetry_cell_setting 'orthorhombic'
loop_
_space_group_symop_operation_xyz
x,y,z
-x,-y,z
1/2-x,y,z
1/2+x,-y,z
1/2+x,1/2+y,1/2+z
1/2-x,1/2-y,1/2+z
-x,1/2+y,1/2+z
x,1/2-y,1/2+z
loop_
_atom_site_type_symbol
_atom_site_label
_atom_site_fract_x
_atom_site_fract_y
_atom_site_fract_z
Si Si1 0.566943 0.194605 0.238060
Si Si2 0.066930 0.297179 0.238224
Si Si3 0.433907 0.646931 0.475120
Si Si4 0.433843 0.353604 0.985132
Si Si5 0.433321 0.048379 0.593818
Si Si6 0.433001 0.548209 0.377069
O O1 0.750000 0.197557 0.240186
O O2 0.498878 0.245838 0.237643
O O3 0.509883 0.167419 0.361206
O O4 0.519729 0.168206 0.109596
O O5 0.250000 0.295455 0.243198
O O6 0.022422 0.324185 0.109827
O O7 0.006258 0.324715 0.359812
O O8 0.250000 0.650556 0.464885
O O9 0.473806 0.593150 0.458372
O O10 0.250000 0.350725 0.972720
O O11 0.474215 0.406849 0.011839
O O12 0.250000 0.045523 0.602442
O O13 0.499723 0.054872 0.735583
O O14 0.500000 0.000000 0.545310
O O15 0.500000 0.500000 0.426118
O O16 0.250000 0.544744 0.368270
#
# Coordination Sequence:
#
# PCOD9378848 Si02
#       6
#     8   8   8   8   8   8
#     4  11  24  39  56  81 115 151 189 231 279 334
#     4  11  22  38  60  84 111 146 190 235 279 331
#     4  10  22  39  58  84 114 148 189 231 277 334
#     4  10  22  39  58  84 115 148 189 231 276 334
#     4  10  19  34  56  85 114 142 184 230 277 331
#     4  10  19  33  56  84 113 143 183 230 278 330
#
# _framework density 17.918431999999999
#
# number of rings (size 3 to 8) (size 9 to 14) (size 15 to 20)
#    0.000    1.667    1.667    4.000    0.000    7.333 
#    0.000    0.833    0.000    4.000    0.000    0.000 
#    0.000    0.000    0.000    0.000    0.000    0.000 
#
# Total GULP energy -134079.036576 kJ/mol
# GULP energy per Si atom -5586.626524 kJ/mol
# Density = 1.787765 g / cm^3
# Si number density = 17.918432 Si / 1000 Ang^3
#
#
#
# Elastic Constant Matrix: (Units=GPa)
#
#
# Indices 1 2 3 4 5 6 
#
# 1 43.8982 60.2270 46.7067 0.0001 0.0000 0.0000
# 2 60.2270 209.4047 102.6892 -0.0006 0.0000 -0.0001
# 3 46.7067 102.6892 148.3969 -0.0029 0.0000 -0.0004
# 4 0.0001 -0.0006 -0.0029 -15.0915 0.0000 0.0004
# 5 0.0000 0.0000 0.0000 0.0000 26.2023 0.0000
# 6 0.0000 -0.0001 -0.0004 0.0004 0.0000 27.9401
#
#
#
# Elastic Compliance Matrix: (Units=1/GPa)
#
#
# Indices 1 2 3 4 5 6 
#
# 1 0.042430 -0.008559 -0.007432 0.000002 0.000000 0.000000
# 2 -0.008559 0.008955 -0.003503 0.000000 0.000000 0.000000
# 3 -0.007432 -0.003503 0.011502 -0.000002 0.000000 0.000000
# 4 0.000002 0.000000 -0.000002 -0.066263 0.000000 0.000001
# 5 0.000000 0.000000 0.000000 0.000000 0.038165 0.000000
# 6 0.000000 0.000000 0.000000 0.000001 0.000000 0.035791
#
#
# Mechanical properties :
#
#
# Convention : Reuss Voigt Hill
#
# Bulk Modulus (GPa) = 41.84218 91.21618 66.52918
# Shear Modulus (GPa) = 42.54161 20.61532 31.57846
#
# Velocity S-wave (km/s) = 4.87784 3.39560 4.20258
# Velocity P-wave (km/s) = 7.42473 8.14802 7.79477
#
# Compressibility (1/GPa) = 0.02389933
#
# Stress axis : x y z
#
# Youngs Moduli (GPa) = 23.56846 111.67261 86.94370
#
# Poissons Ratio (x) = 0.95578 0.64615
# Poissons Ratio (y) = 0.20172 0.30455
# Poissons Ratio (z) = 0.17516 0.39117
#
# Static dielectric constant tensor:
#      x y z
#    x 1.604700 0.000000 0.000000 
#    y 0.000000 1.614700 0.000000 
#    z 0.000000 0.000000 1.575730 
# 
# From -- ./inp_files/3922.got.cif
#   From: 2010.05.17/outbox.cif.g08.bks.cpg/sg46_2_cif.got.tgz:3922.got - 2010.06.03 19:58:25.
