data_PCOD9378947
_publ_section_title
;
Structure prediction by ZEFSAII (Michael W. Deem and Ramdas Pophale) SiO2 
 PCOD9378947
Probable space group: I M A 2
;
_chemical_formula_sum "Si O2"
_cell_formula_units_Z 64
_cell_length_a 8.738447
_cell_length_b 20.062248
_cell_length_c 21.122998
_cell_angle_alpha 90.000000
_cell_angle_beta 90.000000
_cell_angle_gamma 90.000000
_cell_volume 3703.133843
_symmetry_space_group_name_H-M "I M A 2"
_symmetry_group_IT_number 46
_symmetry_cell_setting 'orthorhombic'
loop_
_space_group_symop_operation_xyz
x,y,z
-x,-y,z
1/2-x,y,z
1/2+x,-y,z
1/2+x,1/2+y,1/2+z
1/2-x,1/2-y,1/2+z
-x,1/2+y,1/2+z
x,1/2-y,1/2+z
loop_
_atom_site_type_symbol
_atom_site_label
_atom_site_fract_x
_atom_site_fract_y
_atom_site_fract_z
Si Si1 0.433848 0.791677 0.187820
Si Si2 0.567484 0.791349 0.805645
Si Si3 0.566713 0.071257 0.764729
Si Si4 0.936230 0.211613 0.564023
Si Si5 0.931184 0.928714 0.231018
Si Si6 0.566572 0.429652 0.115026
Si Si7 0.566536 0.289565 0.923017
Si Si8 0.068371 0.071517 0.382952
O O1 0.250000 0.788223 0.191772
O O2 0.502300 0.748488 0.245148
O O3 0.483710 0.759580 0.121165
O O4 0.488881 0.867045 0.196885
O O5 0.750000 0.790426 0.803436
O O6 0.505103 0.866423 0.800874
O O7 0.509681 0.753992 0.868278
O O8 0.750000 0.072021 0.770639
O O9 0.528932 0.078675 0.689695
O O10 0.500000 0.000000 0.785105
O O11 0.750000 0.209984 0.565160
O O12 0.988389 0.136165 0.578985
O O13 0.980889 0.232401 0.493558
O O14 0.750000 0.927291 0.219817
O O15 0.955248 0.921445 0.306924
O O16 0.000000 0.000000 0.212389
O O17 0.500000 0.500000 0.092819
O O18 0.750000 0.432855 0.110150
O O19 0.750000 0.285376 0.917017
O O20 0.515351 0.366186 0.914462
O O21 0.250000 0.073555 0.394969
O O22 0.000000 0.000000 0.402013
#
# Coordination Sequence:
#
# PCOD9378947 Si02
#       8
#     8   8   8   8   8   8   8   8
#     4  11  20  36  60  83 110 145 184 231 281 326
#     4  12  23  36  55  83 114 146 188 231 273 327
#     4  10  19  34  57  84 113 144 181 227 281 329
#     4   9  20  37  55  79 110 146 187 228 274 332
#     4  10  20  34  54  83 114 143 181 226 276 330
#     4   9  17  32  51  76 109 144 181 221 263 320
#     4  11  22  37  57  79 110 150 188 229 280 327
#     4  10  20  34  52  77 112 148 187 227 269 326
#
# _framework density 17.282658999999999
#
# number of rings (size 3 to 8) (size 9 to 14) (size 15 to 20)
#    0.000    1.750    2.500    3.000    0.000    2.000 
#    0.000    5.000    0.000    0.750    0.000    3.500 
#    0.000    0.000    0.000    0.000    0.000    0.000 
#
# Total GULP energy -178722.481051 kJ/mol
# GULP energy per Si atom -5585.077533 kJ/mol
# Density = 1.724332 g / cm^3
# Si number density = 17.282659 Si / 1000 Ang^3
#
#
#
# Elastic Constant Matrix: (Units=GPa)
#
#
# Indices 1 2 3 4 5 6 
#
# 1 66.3071 46.3919 45.7327 0.0000 0.0000 0.0000
# 2 46.3919 133.4333 67.9086 0.0000 0.0000 0.0000
# 3 45.7327 67.9086 107.9253 0.0000 0.0000 0.0000
# 4 0.0000 0.0000 0.0000 18.2951 0.0000 0.0000
# 5 0.0000 0.0000 0.0000 0.0000 -10.6188 0.0000
# 6 0.0000 0.0000 0.0000 0.0000 0.0000 34.6030
#
#
#
# Elastic Compliance Matrix: (Units=1/GPa)
#
#
# Indices 1 2 3 4 5 6 
#
# 1 0.022985 -0.004464 -0.006931 0.000000 0.000000 0.000000
# 2 -0.004464 0.011892 -0.005591 0.000000 0.000000 0.000000
# 3 -0.006931 -0.005591 0.015721 0.000000 0.000000 0.000000
# 4 0.000000 0.000000 0.000000 0.054659 0.000000 0.000000
# 5 0.000000 0.000000 0.000000 0.000000 -0.094172 0.000000
# 6 0.000000 0.000000 0.000000 0.000000 0.000000 0.028899
#
#
# Mechanical properties :
#
#
# Convention : Reuss Voigt Hill
#
# Bulk Modulus (GPa) = 60.14838 69.74803 64.94820
# Shear Modulus (GPa) = 62.89541 18.29803 40.59672
#
# Velocity S-wave (km/s) = 6.03914 3.25737 4.85189
# Velocity P-wave (km/s) = 9.13819 7.38865 8.30959
#
# Compressibility (1/GPa) = 0.01662555
#
# Stress axis : x y z
#
# Youngs Moduli (GPa) = 43.50686 84.09112 63.61104
#
# Poissons Ratio (x) = 0.37538 0.44088
# Poissons Ratio (y) = 0.19422 0.35565
# Poissons Ratio (z) = 0.30154 0.47015
#
# Static dielectric constant tensor:
#      x y z
#    x 1.576880 0.000000 0.000000 
#    y 0.000000 1.573450 0.000000 
#    z 0.000000 0.000000 1.583640 
# 
# From -- ./inp_files/21327.got.cif
#   From: 2010.05.17/outbox.cif.g08.bks.cpg/sg46_11_cif.got.tgz:21327.got - 2010.06.03 19:58:25.
