data_PCOD9378024
_publ_section_title
;
Structure prediction by ZEFSAII (Michael W. Deem and Ramdas Pophale) SiO2 
 PCOD9378024
Probable space group: I M A 2
;
_chemical_formula_sum "Si O2"
_cell_formula_units_Z 64
_cell_length_a 8.930753
_cell_length_b 23.509173
_cell_length_c 13.765377
_cell_angle_alpha 90.000000
_cell_angle_beta 90.000000
_cell_angle_gamma 90.000000
_cell_volume 2890.104460
_symmetry_space_group_name_H-M "I M A 2"
_symmetry_group_IT_number 46
_symmetry_cell_setting 'orthorhombic'
loop_
_space_group_symop_operation_xyz
x,y,z
-x,-y,z
1/2-x,y,z
1/2+x,-y,z
1/2+x,1/2+y,1/2+z
1/2-x,1/2-y,1/2+z
-x,1/2+y,1/2+z
x,1/2-y,1/2+z
loop_
_atom_site_type_symbol
_atom_site_label
_atom_site_fract_x
_atom_site_fract_y
_atom_site_fract_z
Si Si1 0.917560 0.299741 0.646520
Si Si2 0.420217 0.185882 0.635836
Si Si3 0.917077 0.179393 0.914135
Si Si4 0.433261 0.086696 0.376537
Si Si5 0.429652 0.942399 0.961172
Si Si6 0.569079 0.941596 0.595519
Si Si7 0.426263 0.415135 0.665959
Si Si8 0.082640 0.291294 0.903845
O O1 0.750000 0.311112 0.685171
O O2 0.906285 0.307434 0.529634
O O3 0.972097 0.236295 0.670250
O O4 0.039207 0.347611 0.671840
O O5 0.250000 0.189887 0.674703
O O6 0.472295 0.119924 0.642164
O O7 0.408661 0.199957 0.520325
O O8 0.750000 0.179661 0.873090
O O9 0.980938 0.115677 0.908270
O O10 0.010911 0.231950 0.877329
O O11 0.250000 0.089072 0.379485
O O12 0.477506 0.061972 0.480884
O O13 0.471165 0.061199 0.271790
O O14 0.497122 0.150851 0.373447
O O15 0.250000 0.943734 0.958052
O O16 0.481426 0.936929 0.073674
O O17 0.500000 0.000000 0.920995
O O18 0.750000 0.944418 0.599218
O O19 0.500000 0.000000 0.636072
O O20 0.250000 0.425016 0.649243
O O21 0.250000 0.291564 0.864422
#
# Coordination Sequence:
#
# PCOD9378024 Si02
#       8
#     8   8   8   8   8   8   8   8
#     4   9  16  26  40  59  81 101 129 170 210 246
#     4   8  14  25  41  58  76 101 132 166 206 249
#     4   8  15  26  39  57  79  99 123 163 209 246
#     4   8  16  29  42  58  81 110 142 173 200 235
#     4  10  20  32  43  58  82 110 143 177 206 239
#     4   9  17  29  42  58  82 110 142 175 205 240
#     4  10  18  29  44  59  81 113 144 171 203 240
#     4   8  13  24  42  59  75  98 130 165 201 241
#
# _framework density 22.144527
#
# number of rings (size 3 to 8) (size 9 to 14) (size 15 to 20)
#    0.000    3.250    0.000    3.375    0.000    4.500 
#    0.000    5.625    0.000    0.000    0.000    0.000 
#    0.000    1.000    0.000    8.500    0.000    6.625 
#
# Total GULP energy -178304.583732 kJ/mol
# GULP energy per Si atom -5572.018242 kJ/mol
# Density = 2.209413 g / cm^3
# Si number density = 22.144527 Si / 1000 Ang^3
#
#
#
# Elastic Constant Matrix: (Units=GPa)
#
#
# Indices 1 2 3 4 5 6 
#
# 1 32.3249 38.3196 -1.1677 0.0000 0.0000 0.0000
# 2 38.3196 205.1140 -10.2842 0.0000 0.0000 0.0000
# 3 -1.1677 -10.2842 32.4020 0.0000 0.0000 0.0000
# 4 0.0000 0.0000 0.0000 -11.3421 0.0000 0.0000
# 5 0.0000 0.0000 0.0000 0.0000 -3.3180 0.0000
# 6 0.0000 0.0000 0.0000 0.0000 0.0000 25.8021
#
#
#
# Elastic Compliance Matrix: (Units=1/GPa)
#
#
# Indices 1 2 3 4 5 6 
#
# 1 0.039764 -0.007476 -0.000940 0.000000 0.000000 0.000000
# 2 -0.007476 0.006360 0.001749 0.000000 0.000000 0.000000
# 3 -0.000940 0.001749 0.031384 0.000000 0.000000 0.000000
# 4 0.000000 0.000000 0.000000 -0.088167 0.000000 0.000000
# 5 0.000000 0.000000 0.000000 0.000000 -0.301384 0.000000
# 6 0.000000 0.000000 0.000000 0.000000 0.000000 0.038757
#
#
# Mechanical properties :
#
#
# Convention : Reuss Voigt Hill
#
# Bulk Modulus (GPa) = 15.58254 35.95292 25.76773
# Shear Modulus (GPa) = -20.95888 18.42662 -1.26613
#
# Velocity S-wave (km/s) = -3.07979 2.88776 -0.75697
# Velocity P-wave (km/s) = 2.36534 5.23351 3.30112
#
# Compressibility (1/GPa) = 0.06417438
#
# Stress axis : x y z
#
# Youngs Moduli (GPa) = 25.14816 157.24024 31.86384
#
# Poissons Ratio (x) = 1.17552 0.02994
# Poissons Ratio (y) = 0.18801 -0.05573
# Poissons Ratio (z) = 0.02363 -0.27503
#
# Static dielectric constant tensor:
#      x y z
#    x 1.770470 0.000000 0.000000 
#    y 0.000000 1.852430 0.000000 
#    z 0.000000 0.000000 1.881940 
# 
# From -- ./inp_files/21504.got.cif
#   From: 2010.05.17/outbox.cif.g08.bks.cpg/sg46_11_cif.got.tgz:21504.got - 2010.06.03 19:58:25.
