data_PCOD9378188
_publ_section_title
;
Structure prediction by ZEFSAII (Michael W. Deem and Ramdas Pophale) SiO2 
 PCOD9378188
Probable space group: I M A 2
;
_chemical_formula_sum "Si O2"
_cell_formula_units_Z 64
_cell_length_a 8.800816
_cell_length_b 23.684081
_cell_length_c 19.623312
_cell_angle_alpha 90.000000
_cell_angle_beta 90.000000
_cell_angle_gamma 90.000000
_cell_volume 4090.268220
_symmetry_space_group_name_H-M "I M A 2"
_symmetry_group_IT_number 46
_symmetry_cell_setting 'orthorhombic'
loop_
_space_group_symop_operation_xyz
x,y,z
-x,-y,z
1/2-x,y,z
1/2+x,-y,z
1/2+x,1/2+y,1/2+z
1/2-x,1/2-y,1/2+z
-x,1/2+y,1/2+z
x,1/2-y,1/2+z
loop_
_atom_site_type_symbol
_atom_site_label
_atom_site_fract_x
_atom_site_fract_y
_atom_site_fract_z
Si Si1 0.567446 0.257119 0.268410
Si Si2 0.930786 0.339250 0.491701
Si Si3 0.431037 0.061471 0.906550
Si Si4 0.931565 0.062212 0.626580
Si Si5 0.932447 0.266778 0.616816
Si Si6 0.931489 0.278817 0.915298
Si Si7 0.930465 0.659614 0.039399
Si Si8 0.432437 0.382335 0.262687
O O1 0.750000 0.266793 0.271830
O O2 0.534203 0.227308 0.196510
O O3 0.525553 0.222549 0.336025
O O4 0.487017 0.317804 0.268317
O O5 0.750000 0.349513 0.489379
O O6 0.973061 0.318890 0.567772
O O7 0.961768 0.284175 0.444765
O O8 0.014599 0.393066 0.461905
O O9 0.250000 0.057791 0.907532
O O10 0.476653 0.085183 0.831953
O O11 0.500000 0.000000 0.917797
O O12 0.750000 0.060223 0.627413
O O13 0.989743 0.103601 0.567201
O O14 0.991253 0.088865 0.697419
O O15 0.000000 0.000000 0.619118
O O16 0.750000 0.257917 0.608943
O O17 0.013990 0.211206 0.587630
O O18 0.750000 0.288257 0.921920
O O19 0.017650 0.322279 0.963855
O O20 0.750000 0.654029 0.043744
O O21 0.250000 0.384275 0.255346
#
# Coordination Sequence:
#
# PCOD9378188 Si02
#       8
#     8   8   8   8   8   8   8   8
#     4  10  18  31  53  76 102 138 172 204 248 300
#     4   9  17  31  49  71  99 129 167 207 249 294
#     4  11  23  35  49  69  97 133 174 211 250 295
#     4  12  24  38  54  72  99 135 175 214 252 302
#     4   9  18  32  51  75 100 132 167 206 252 304
#     4   9  18  32  51  74 100 134 169 205 251 300
#     4  11  21  33  50  74 101 133 169 211 254 297
#     4  11  22  34  48  73 104 136 173 210 248 296
#
# _framework density 15.646896999999999
#
# number of rings (size 3 to 8) (size 9 to 14) (size 15 to 20)
#    0.000    1.750    2.500    4.125    0.000    5.000 
#    0.000    0.000    0.000    0.000    0.000    0.875 
#    0.000    4.000    0.000    0.000    0.000    0.000 
#
# Total GULP energy -178640.953173 kJ/mol
# GULP energy per Si atom -5582.529787 kJ/mol
# Density = 1.561128 g / cm^3
# Si number density = 15.646897 Si / 1000 Ang^3
#
#
#
# Elastic Constant Matrix: (Units=GPa)
#
#
# Indices 1 2 3 4 5 6 
#
# 1 61.7578 45.7642 51.5626 0.0000 0.0000 0.0000
# 2 45.7642 91.9001 64.6923 0.0000 0.0000 0.0000
# 3 51.5626 64.6923 136.2593 0.0000 0.0000 0.0000
# 4 0.0000 0.0000 0.0000 15.3331 0.0000 0.0000
# 5 0.0000 0.0000 0.0000 0.0000 19.5689 0.0000
# 6 0.0000 0.0000 0.0000 0.0000 0.0000 26.3608
#
#
#
# Elastic Compliance Matrix: (Units=1/GPa)
#
#
# Indices 1 2 3 4 5 6 
#
# 1 0.028701 -0.009984 -0.006121 0.000000 0.000000 0.000000
# 2 -0.009984 0.019816 -0.005630 0.000000 0.000000 0.000000
# 3 -0.006121 -0.005630 0.012328 0.000000 0.000000 0.000000
# 4 0.000000 0.000000 0.000000 0.065218 0.000000 0.000000
# 5 0.000000 0.000000 0.000000 0.000000 0.051102 0.000000
# 6 0.000000 0.000000 0.000000 0.000000 0.000000 0.037935
#
#
# Mechanical properties :
#
#
# Convention : Reuss Voigt Hill
#
# Bulk Modulus (GPa) = 57.55105 68.21727 62.88416
# Shear Modulus (GPa) = 18.91343 20.77910 19.84626
#
# Velocity S-wave (km/s) = 3.48050 3.64813 3.56530
# Velocity P-wave (km/s) = 7.28099 7.83822 7.56474
#
# Compressibility (1/GPa) = 0.01737588
#
# Stress axis : x y z
#
# Youngs Moduli (GPa) = 34.84212 50.46307 81.11409
#
# Poissons Ratio (x) = 0.50381 0.49649
# Poissons Ratio (y) = 0.34785 0.45670
# Poissons Ratio (z) = 0.21326 0.28413
#
# Static dielectric constant tensor:
#      x y z
#    x 1.524310 0.000000 0.000000 
#    y 0.000000 1.485440 0.000000 
#    z 0.000000 0.000000 1.539410 
# 
# From -- ./inp_files/21455.got.cif
#   From: 2010.05.17/outbox.cif.g08.bks.cpg/sg46_11_cif.got.tgz:21455.got - 2010.06.03 19:58:25.
