data_PCOD9378606
_publ_section_title
;
Structure prediction by ZEFSAII (Michael W. Deem and Ramdas Pophale) SiO2 
 PCOD9378606
Probable space group: I M A 2
;
_chemical_formula_sum "Si O2"
_cell_formula_units_Z 48
_cell_length_a 10.458478
_cell_length_b 25.647599
_cell_length_c 9.932145
_cell_angle_alpha 90.000000
_cell_angle_beta 90.000000
_cell_angle_gamma 90.000000
_cell_volume 2664.147423
_symmetry_space_group_name_H-M "I M A 2"
_symmetry_group_IT_number 46
_symmetry_cell_setting 'orthorhombic'
loop_
_space_group_symop_operation_xyz
x,y,z
-x,-y,z
1/2-x,y,z
1/2+x,-y,z
1/2+x,1/2+y,1/2+z
1/2-x,1/2-y,1/2+z
-x,1/2+y,1/2+z
x,1/2-y,1/2+z
loop_
_atom_site_type_symbol
_atom_site_label
_atom_site_fract_x
_atom_site_fract_y
_atom_site_fract_z
Si Si1 0.405843 0.950751 0.228990
Si Si2 0.398484 0.670544 0.222782
Si Si3 0.250000 0.183940 0.488924
Si Si4 0.474249 0.637609 0.937784
Si Si5 0.029486 0.789440 0.195874
Si Si6 0.104145 0.627323 0.493268
Si Si7 0.250000 0.268766 0.709933
O O1 0.250000 0.960402 0.227041
O O2 0.439340 0.914208 0.356752
O O3 0.500000 0.000000 0.232540
O O4 0.443715 0.916183 0.097340
O O5 0.250000 0.679796 0.254186
O O6 0.456241 0.727797 0.203096
O O7 0.457340 0.639300 0.348859
O O8 0.410102 0.640763 0.082604
O O9 0.124000 0.149464 0.465216
O O10 0.250000 0.213802 0.631674
O O11 0.250000 0.229331 0.373201
O O12 0.431509 0.684290 0.836980
O O13 0.878889 0.798853 0.171424
O O14 0.101316 0.818500 0.076418
O O15 0.250000 0.611355 0.467340
#
# Coordination Sequence:
#
# PCOD9378606 Si02
#       7
#     8   8   4   8   8   8   4
#     4  10  22  42  66  84 107 138 184 238 291 344
#     4  11  20  31  52  80 113 149 182 221 271 326
#     4  10  20  34  52  78 120 154 192 226 266 326
#     4  10  21  35  55  81 114 145 189 229 277 326
#     4  10  19  32  49  77 113 153 187 218 261 319
#     4   9  20  36  54  81 109 143 184 229 272 328
#     4  10  20  30  46  74 110 160 180 226 256 310
#
# _framework density 18.017021
#
# number of rings (size 3 to 8) (size 9 to 14) (size 15 to 20)
#    0.000    2.000    1.667    2.000    3.500    3.333 
#    1.500    0.833    0.000    0.000    0.000    0.000 
#    0.000    0.000    0.000    0.000    0.000    0.000 
#
# Total GULP energy -133679.962708 kJ/mol
# GULP energy per Si atom -5569.998446 kJ/mol
# Density = 1.797601 g / cm^3
# Si number density = 18.017021 Si / 1000 Ang^3
#
#
#
# Elastic Constant Matrix: (Units=GPa)
#
#
# Indices 1 2 3 4 5 6 
#
# 1 66.9142 25.9009 18.0948 0.0000 -0.0001 -0.0017
# 2 25.9009 109.2050 59.0194 0.0000 0.0002 0.0006
# 3 18.0948 59.0194 126.9590 -0.0006 -0.0028 -0.0110
# 4 0.0000 0.0000 -0.0006 3.7530 -0.0004 -0.0015
# 5 -0.0001 0.0002 -0.0028 -0.0004 10.0814 -0.0062
# 6 -0.0017 0.0006 -0.0110 -0.0015 -0.0062 45.5698
#
#
#
# Elastic Compliance Matrix: (Units=1/GPa)
#
#
# Indices 1 2 3 4 5 6 
#
# 1 0.016503 -0.003530 -0.000711 0.000000 0.000000 0.000001
# 2 -0.003530 0.012985 -0.005533 -0.000001 -0.000002 -0.000002
# 3 -0.000711 -0.005533 0.010550 0.000002 0.000003 0.000003
# 4 0.000000 -0.000001 0.000002 0.266455 0.000012 0.000009
# 5 0.000000 -0.000002 0.000003 0.000012 0.099193 0.000013
# 6 0.000001 -0.000002 0.000003 0.000009 0.000013 0.021944
#
#
# Mechanical properties :
#
#
# Convention : Reuss Voigt Hill
#
# Bulk Modulus (GPa) = 48.80506 56.56760 52.68633
# Shear Modulus (GPa) = 11.01303 25.21838 18.11571
#
# Velocity S-wave (km/s) = 2.47504 3.74531 3.17437
# Velocity P-wave (km/s) = 5.94263 7.08294 6.53770
#
# Compressibility (1/GPa) = 0.02048968
#
# Stress axis : x y z
#
# Youngs Moduli (GPa) = 60.59454 77.01434 94.78609
#
# Poissons Ratio (x) = 0.27184 0.06741
# Poissons Ratio (y) = 0.21389 0.52446
# Poissons Ratio (z) = 0.04310 0.42612
#
# Static dielectric constant tensor:
#      x y z
#    x 1.690610 0.000000 0.000000 
#    y 0.000000 1.588780 0.000000 
#    z 0.000000 0.000000 1.657910 
# 
# From -- ./inp_files/4732.got.cif
#   From: 2010.05.17/outbox.cif.g08.bks.cpg/sg46_3_cif.got.tgz:4732.got - 2010.06.03 19:58:25.
