data_PCOD9378537
_publ_section_title
;
Structure prediction by ZEFSAII (Michael W. Deem and Ramdas Pophale) SiO2 
 PCOD9378537
Probable space group: I M A 2
;
_chemical_formula_sum "Si O2"
_cell_formula_units_Z 56
_cell_length_a 8.965988
_cell_length_b 15.424834
_cell_length_c 19.913526
_cell_angle_alpha 90.000000
_cell_angle_beta 90.000000
_cell_angle_gamma 90.000000
_cell_volume 2754.018274
_symmetry_space_group_name_H-M "I M A 2"
_symmetry_group_IT_number 46
_symmetry_cell_setting 'orthorhombic'
loop_
_space_group_symop_operation_xyz
x,y,z
-x,-y,z
1/2-x,y,z
1/2+x,-y,z
1/2+x,1/2+y,1/2+z
1/2-x,1/2-y,1/2+z
-x,1/2+y,1/2+z
x,1/2-y,1/2+z
loop_
_atom_site_type_symbol
_atom_site_label
_atom_site_fract_x
_atom_site_fract_y
_atom_site_fract_z
Si Si1 0.577484 0.676726 0.039140
Si Si2 0.081341 0.084309 0.196432
Si Si3 0.072541 0.756794 0.255190
Si Si4 0.571174 0.220279 0.404174
Si Si5 0.069165 0.404985 0.182308
Si Si6 0.578250 0.415673 0.419014
Si Si7 0.086826 0.116156 0.044169
O O1 0.750000 0.652472 0.029485
O O2 0.524813 0.627055 0.106325
O O3 0.571822 0.780048 0.053352
O O4 0.495672 0.668631 0.967160
O O5 0.250000 0.095841 0.222675
O O6 0.093283 0.074407 0.116495
O O7 0.983612 0.169869 0.205173
O O8 0.000000 0.000000 0.225234
O O9 0.250000 0.741993 0.252975
O O10 0.037716 0.801748 0.327322
O O11 0.992293 0.667078 0.234664
O O12 0.750000 0.221499 0.413526
O O13 0.515869 0.320605 0.403536
O O14 0.250000 0.406929 0.185432
O O15 0.000000 0.500000 0.194284
O O16 0.500000 0.500000 0.389495
O O17 0.750000 0.417226 0.400844
O O18 0.548928 0.416118 0.498981
O O19 0.250000 0.101208 0.009962
#
# Coordination Sequence:
#
# PCOD9378537 Si02
#       7
#     8   8   8   8   8   8   8
#     4   9  18  36  60  86 116 152 197 247 301 360
#     4  11  22  37  57  85 118 152 193 242 296 359
#     4  11  23  41  62  88 123 164 207 256 312 372
#     4   9  21  38  57  82 114 153 201 250 305 368
#     4  11  23  41  64  95 128 165 214 266 318 379
#     4  10  19  31  48  75 109 144 183 229 280 343
#     4   9  17  32  53  79 111 143 179 227 279 338
#
# _framework density 20.333922999999999
#
# number of rings (size 3 to 8) (size 9 to 14) (size 15 to 20)
#    0.000    2.000    1.429    2.143    0.000    5.714 
#    0.000    2.143    0.000    1.714    0.000    0.000 
#    0.000    0.000    0.000    0.000    0.000    0.000 
#
# Total GULP energy -156008.946444 kJ/mol
# GULP energy per Si atom -5571.748087 kJ/mol
# Density = 2.028764 g / cm^3
# Si number density = 20.333923 Si / 1000 Ang^3
#
#
#
# Elastic Constant Matrix: (Units=GPa)
#
#
# Indices 1 2 3 4 5 6 
#
# 1 60.6781 16.4288 24.0369 0.0000 0.0000 0.0000
# 2 16.4288 62.2517 -9.2723 0.0000 0.0000 0.0000
# 3 24.0369 -9.2723 69.8299 0.0000 0.0000 0.0000
# 4 0.0000 0.0000 0.0000 7.9445 0.0000 0.0000
# 5 0.0000 0.0000 0.0000 0.0000 21.7940 0.0000
# 6 0.0000 0.0000 0.0000 0.0000 0.0000 26.2259
#
#
#
# Elastic Compliance Matrix: (Units=1/GPa)
#
#
# Indices 1 2 3 4 5 6 
#
# 1 0.021694 -0.006976 -0.008394 0.000000 0.000000 0.000000
# 2 -0.006976 0.018631 0.004875 0.000000 0.000000 0.000000
# 3 -0.008394 0.004875 0.017857 0.000000 0.000000 0.000000
# 4 0.000000 0.000000 0.000000 0.125873 0.000000 0.000000
# 5 0.000000 0.000000 0.000000 0.000000 0.045884 0.000000
# 6 0.000000 0.000000 0.000000 0.000000 0.000000 0.038130
#
#
# Mechanical properties :
#
#
# Convention : Reuss Voigt Hill
#
# Bulk Modulus (GPa) = 26.88642 28.34959 27.61800
# Shear Modulus (GPa) = 16.58615 21.96397 19.27506
#
# Velocity S-wave (km/s) = 2.85912 3.29015 3.08218
# Velocity P-wave (km/s) = 4.91433 5.32970 5.12622
#
# Compressibility (1/GPa) = 0.03719350
#
# Stress axis : x y z
#
# Youngs Moduli (GPa) = 46.09538 53.67440 55.99992
#
# Poissons Ratio (x) = 0.37441 0.47005
# Poissons Ratio (y) = 0.32154 -0.27300
# Poissons Ratio (z) = 0.38692 -0.26166
#
# Static dielectric constant tensor:
#      x y z
#    x 1.743500 0.000000 0.000000 
#    y 0.000000 1.754290 0.000000 
#    z 0.000000 0.000000 1.797640 
# 
# From -- ./inp_files/21044.got.cif
#   From: 2010.05.17/outbox.cif.g08.bks.cpg/sg46_11_cif.got.tgz:21044.got - 2010.06.03 19:58:25.
