data_PCOD9378247
_publ_section_title
;
Structure prediction by ZEFSAII (Michael W. Deem and Ramdas Pophale) SiO2 
 PCOD9378247
Probable space group: I M A 2
;
_chemical_formula_sum "Si O2"
_cell_formula_units_Z 52
_cell_length_a 12.124232
_cell_length_b 25.580245
_cell_length_c 9.500227
_cell_angle_alpha 90.000000
_cell_angle_beta 90.000000
_cell_angle_gamma 90.000000
_cell_volume 2946.408239
_symmetry_space_group_name_H-M "I M A 2"
_symmetry_group_IT_number 46
_symmetry_cell_setting 'orthorhombic'
loop_
_space_group_symop_operation_xyz
x,y,z
-x,-y,z
1/2-x,y,z
1/2+x,-y,z
1/2+x,1/2+y,1/2+z
1/2-x,1/2-y,1/2+z
-x,1/2+y,1/2+z
x,1/2-y,1/2+z
loop_
_atom_site_type_symbol
_atom_site_label
_atom_site_fract_x
_atom_site_fract_y
_atom_site_fract_z
Si Si1 0.620976 0.169366 0.035200
Si Si2 0.750000 0.613392 0.105849
Si Si3 0.484912 0.362547 0.791818
Si Si4 0.250000 0.165495 0.293844
Si Si5 0.518663 0.938586 0.549694
Si Si6 0.750000 0.775308 0.667786
Si Si7 0.009487 0.222796 0.536436
Si Si8 0.120722 0.859808 0.720820
O O1 0.750000 0.181158 0.054231
O O2 0.573893 0.139167 0.169704
O O3 0.553204 0.223022 0.022105
O O4 0.607596 0.139217 0.888376
O O5 0.861162 0.579516 0.108114
O O6 0.750000 0.663147 0.211501
O O7 0.750000 0.642920 0.953189
O O8 0.362366 0.356510 0.728526
O O9 0.491116 0.411851 0.895692
O O10 0.496604 0.311911 0.894674
O O11 0.250000 0.228257 0.280083
O O12 0.427600 0.910975 0.646990
O O13 0.500000 0.000000 0.544592
O O14 0.864422 0.768586 0.582956
O O15 0.949135 0.187938 0.655186
O O16 0.250000 0.852489 0.688331
#
# Coordination Sequence:
#
# PCOD9378247 Si02
#       8
#     8   4   8   4   8   4   8   8
#     4  11  23  36  52  80 120 156 185 232 279 341
#     4  10  20  38  56  91 120 139 199 246 278 356
#     4  10  20  37  56  84 115 146 198 232 279 348
#     4  10  18  32  54  82 122 150 173 237 288 346
#     4  10  22  41  64  85 108 147 193 253 291 329
#     4  12  18  32  56  85 122 151 178 235 290 348
#     4  11  20  34  56  82 117 157 191 227 275 340
#     4  10  22  38  55  83 114 149 194 232 281 342
#
# _framework density 17.648606000000001
#
# number of rings (size 3 to 8) (size 9 to 14) (size 15 to 20)
#    0.000    1.538    6.154    1.385    1.077    4.308 
#    0.000    1.538    0.000    0.000    0.000    0.000 
#    0.000    0.000    0.000    0.000    0.000    0.000 
#
# Total GULP energy -145085.214249 kJ/mol
# GULP energy per Si atom -5580.200548 kJ/mol
# Density = 1.760844 g / cm^3
# Si number density = 17.648606 Si / 1000 Ang^3
#
#
#
# Elastic Constant Matrix: (Units=GPa)
#
#
# Indices 1 2 3 4 5 6 
#
# 1 145.1075 50.3019 60.4982 0.0000 -0.0001 0.0000
# 2 50.3019 127.0839 32.0363 0.0000 -0.0003 0.0001
# 3 60.4982 32.0363 70.4103 0.0002 -0.0004 0.0002
# 4 0.0000 0.0000 0.0002 6.1090 -0.0001 0.0000
# 5 -0.0001 -0.0003 -0.0004 -0.0001 15.5337 -0.0001
# 6 0.0000 0.0001 0.0002 0.0000 -0.0001 15.9771
#
#
#
# Elastic Compliance Matrix: (Units=1/GPa)
#
#
# Indices 1 2 3 4 5 6 
#
# 1 0.011297 -0.002287 -0.008666 0.000000 0.000000 0.000000
# 2 -0.002287 0.009351 -0.002290 0.000000 0.000000 0.000000
# 3 -0.008666 -0.002290 0.022691 -0.000001 0.000001 0.000000
# 4 0.000000 0.000000 -0.000001 0.163693 0.000001 0.000000
# 5 0.000000 0.000000 0.000001 0.000001 0.064376 0.000000
# 6 0.000000 0.000000 0.000000 0.000000 0.000000 0.062589
#
#
# Mechanical properties :
#
#
# Convention : Reuss Voigt Hill
#
# Bulk Modulus (GPa) = 59.33649 69.80828 64.57238
# Shear Modulus (GPa) = 13.65738 20.84165 17.24951
#
# Velocity S-wave (km/s) = 2.78483 3.44018 3.12971
# Velocity P-wave (km/s) = 6.63585 7.44448 7.05176
#
# Compressibility (1/GPa) = 0.01685304
#
# Stress axis : x y z
#
# Youngs Moduli (GPa) = 88.51545 106.93744 44.07087
#
# Poissons Ratio (x) = 0.24457 0.38194
# Poissons Ratio (y) = 0.20244 0.10091
# Poissons Ratio (z) = 0.76712 0.24486
#
# Static dielectric constant tensor:
#      x y z
#    x 1.621030 0.000000 0.000000 
#    y 0.000000 1.580010 0.000000 
#    z 0.000000 0.000000 1.621430 
# 
# From -- ./inp_files/4891.got.cif
#   From: 2010.05.17/outbox.cif.g08.bks.cpg/sg46_3_cif.got.tgz:4891.got - 2010.06.03 19:58:25.
