data_PCOD9379668
_publ_section_title
;
Structure prediction by ZEFSAII (Michael W. Deem and Ramdas Pophale) SiO2 
 PCOD9379668
Probable space group: I M A 2
;
_chemical_formula_sum "Si O2"
_cell_formula_units_Z 56
_cell_length_a 33.194801
_cell_length_b 5.339759
_cell_length_c 14.744271
_cell_angle_alpha 90.000000
_cell_angle_beta 90.000000
_cell_angle_gamma 90.000000
_cell_volume 2613.455023
_symmetry_space_group_name_H-M "I M A 2"
_symmetry_group_IT_number 46
_symmetry_cell_setting 'orthorhombic'
loop_
_space_group_symop_operation_xyz
x,y,z
-x,-y,z
1/2-x,y,z
1/2+x,-y,z
1/2+x,1/2+y,1/2+z
1/2-x,1/2-y,1/2+z
-x,1/2+y,1/2+z
x,1/2-y,1/2+z
loop_
_atom_site_type_symbol
_atom_site_label
_atom_site_fract_x
_atom_site_fract_y
_atom_site_fract_z
Si Si1 0.975569 0.253275 0.709220
Si Si2 0.334081 0.118981 0.688182
Si Si3 0.750000 0.426951 0.136800
Si Si4 0.902007 0.323130 0.078053
Si Si5 0.835274 0.930810 0.020591
Si Si6 0.379587 0.262190 0.863897
Si Si7 0.571929 0.256956 0.882483
Si Si8 0.750000 0.565959 0.520893
O O1 0.933964 0.265201 0.653272
O O2 0.966514 0.256211 0.817173
O O3 0.000000 0.500000 0.684940
O O4 0.000000 0.000000 0.687208
O O5 0.292651 0.963220 0.687561
O O6 0.324530 0.349564 0.621991
O O7 0.347917 0.192194 0.787131
O O8 0.373697 0.008281 0.637205
O O9 0.750000 0.152557 0.095423
O O10 0.750000 0.646983 0.058549
O O11 0.867745 0.145250 0.034678
O O12 0.929985 0.352935 0.987126
O O13 0.792739 0.982069 0.972420
O O14 0.857235 0.721195 0.960471
O O15 0.399532 0.525943 0.840928
O O16 0.409924 0.024590 0.873114
#
# Coordination Sequence:
#
# PCOD9379668 Si02
#       8
#     8   8   4   8   8   8   8   4
#     4  12  28  45  68  99 131 168 212 278 340 395
#     4  11  21  40  65  94 136 174 226 265 325 383
#     4  10  22  35  60  95 131 179 212 275 314 373
#     4  11  23  42  72  94 128 174 220 260 332 403
#     4  10  22  39  65  98 134 179 222 270 323 387
#     4  11  23  37  68  96 127 175 225 264 318 386
#     4  11  24  44  66  97 128 167 218 270 324 398
#     4  10  20  37  60  91 139 171 218 265 326 361
#
# _framework density 21.427572999999999
#
# number of rings (size 3 to 8) (size 9 to 14) (size 15 to 20)
#    0.000    1.143    4.286    1.714    2.000    1.714 
#    0.000    0.000    0.000    3.429    0.000    0.000 
#    0.000    0.000    0.000    0.000    0.000    0.000 
#
# Total GULP energy -155872.822577 kJ/mol
# GULP energy per Si atom -5566.886521 kJ/mol
# Density = 2.137880 g / cm^3
# Si number density = 21.427573 Si / 1000 Ang^3
#
#
#
# Elastic Constant Matrix: (Units=GPa)
#
#
# Indices 1 2 3 4 5 6 
#
# 1 84.9817 46.3960 16.4240 0.0000 0.0000 0.0000
# 2 46.3960 67.8671 10.4550 0.0000 0.0000 0.0000
# 3 16.4240 10.4550 82.9393 0.0000 0.0000 0.0000
# 4 0.0000 0.0000 0.0000 11.2002 0.0000 0.0000
# 5 0.0000 0.0000 0.0000 0.0000 9.7371 0.0000
# 6 0.0000 0.0000 0.0000 0.0000 0.0000 31.0294
#
#
#
# Elastic Compliance Matrix: (Units=1/GPa)
#
#
# Indices 1 2 3 4 5 6 
#
# 1 0.019155 -0.012758 -0.002185 0.000000 0.000000 0.000000
# 2 -0.012758 0.023524 -0.000439 0.000000 0.000000 0.000000
# 3 -0.002185 -0.000439 0.012545 0.000000 0.000000 0.000000
# 4 0.000000 0.000000 0.000000 0.089284 0.000000 0.000000
# 5 0.000000 0.000000 0.000000 0.000000 0.102700 0.000000
# 6 0.000000 0.000000 0.000000 0.000000 0.000000 0.032228
#
#
# Mechanical properties :
#
#
# Convention : Reuss Voigt Hill
#
# Bulk Modulus (GPa) = 40.88311 42.48200 41.68256
# Shear Modulus (GPa) = 15.70585 21.22756 18.46670
#
# Velocity S-wave (km/s) = 2.71029 3.15090 2.93886
# Velocity P-wave (km/s) = 5.37729 5.75382 5.56874
#
# Compressibility (1/GPa) = 0.02445998
#
# Stress axis : x y z
#
# Youngs Moduli (GPa) = 52.20585 42.50926 79.71305
#
# Poissons Ratio (x) = 0.54235 0.17416
# Poissons Ratio (y) = 0.66606 0.03499
# Poissons Ratio (z) = 0.11406 0.01866
#
# Static dielectric constant tensor:
#      x y z
#    x 1.943260 0.000000 0.000000 
#    y 0.000000 1.816000 0.000000 
#    z 0.000000 0.000000 1.786170 
# 
# From -- ./inp_files/17707.got.cif
#   From: 2010.05.17/outbox.cif.g08.bks.cpg/sg46_9_cif.got.tgz:17707.got - 2010.06.03 19:58:25.
