data_PCOD9379092
_publ_section_title
;
Structure prediction by ZEFSAII (Michael W. Deem and Ramdas Pophale) SiO2 
 PCOD9379092
Probable space group: I M A 2
;
_chemical_formula_sum "Si O2"
_cell_formula_units_Z 32
_cell_length_a 5.505716
_cell_length_b 19.024922
_cell_length_c 12.401139
_cell_angle_alpha 90.000000
_cell_angle_beta 90.000000
_cell_angle_gamma 90.000000
_cell_volume 1298.967442
_symmetry_space_group_name_H-M "I M A 2"
_symmetry_group_IT_number 46
_symmetry_cell_setting 'orthorhombic'
loop_
_space_group_symop_operation_xyz
x,y,z
-x,-y,z
1/2-x,y,z
1/2+x,-y,z
1/2+x,1/2+y,1/2+z
1/2-x,1/2-y,1/2+z
-x,1/2+y,1/2+z
x,1/2-y,1/2+z
loop_
_atom_site_type_symbol
_atom_site_label
_atom_site_fract_x
_atom_site_fract_y
_atom_site_fract_z
Si Si1 0.750000 0.067964 0.966130
Si Si2 0.750000 0.655818 0.810354
Si Si3 0.750000 0.980715 0.400094
Si Si4 0.750000 0.906257 0.950251
Si Si5 0.250000 0.698305 0.101055
Si Si6 0.250000 0.252713 0.989998
Si Si7 0.250000 0.536250 0.143150
Si Si8 0.750000 0.154446 0.189473
O O1 0.513435 0.088953 0.898139
O O2 0.750000 0.985638 0.001958
O O3 0.750000 0.115090 0.074204
O O4 0.750000 0.602596 0.912052
O O5 0.750000 0.732871 0.861685
O O6 0.504561 0.638986 0.747267
O O7 0.500000 0.000000 0.342571
O O8 0.750000 0.020454 0.513373
O O9 0.750000 0.831359 0.011169
O O10 0.499465 0.714499 0.035272
O O11 0.250000 0.620245 0.147438
O O12 0.250000 0.761199 0.185478
O O13 0.500000 0.500000 0.183185
#
# Coordination Sequence:
#
# PCOD9379092 Si02
#       8
#     4   4   4   4   4   4   4   4
#     4  10  20  38  58  88 126 152 218 250 303 365
#     4  12  26  39  59  92 138 162 197 255 331 382
#     4  10  19  38  52  81 122 160 203 236 301 374
#     4  10  19  36  62  87 116 162 216 260 287 357
#     4  12  23  40  69  88 124 167 224 260 294 372
#     4  12  21  40  64  92 120 169 219 260 302 366
#     4  10  20  36  62  89 113 150 210 265 297 342
#     4  12  24  43  58  97 131 170 197 252 327 380
#
# _framework density 24.634952999999999
#
# number of rings (size 3 to 8) (size 9 to 14) (size 15 to 20)
#    0.000    1.000    2.500    6.750    0.000    0.000 
#   13.500    0.000    0.000    0.000   19.500    0.000 
#    0.000    0.000    0.000    0.000    0.000    0.000 
#
# Total GULP energy -89218.680100 kJ/mol
# GULP energy per Si atom -5576.167506 kJ/mol
# Density = 2.457888 g / cm^3
# Si number density = 24.634953 Si / 1000 Ang^3
#
#
#
# Elastic Constant Matrix: (Units=GPa)
#
#
# Indices 1 2 3 4 5 6 
#
# 1 298.5799 56.1692 30.6366 0.0000 0.0000 0.0000
# 2 56.1692 169.6767 36.8040 0.0000 0.0000 0.0000
# 3 30.6366 36.8040 52.9116 0.0000 0.0000 0.0000
# 4 0.0000 0.0000 0.0000 30.7083 0.0000 0.0000
# 5 0.0000 0.0000 0.0000 0.0000 -34.9007 0.0000
# 6 0.0000 0.0000 0.0000 0.0000 0.0000 21.9224
#
#
#
# Elastic Compliance Matrix: (Units=1/GPa)
#
#
# Indices 1 2 3 4 5 6 
#
# 1 0.003671 -0.000888 -0.001508 0.000000 0.000000 0.000000
# 2 -0.000888 0.007156 -0.004463 0.000000 0.000000 0.000000
# 3 -0.001508 -0.004463 0.022877 0.000000 0.000000 0.000000
# 4 0.000000 0.000000 0.000000 0.032564 0.000000 0.000000
# 5 0.000000 0.000000 0.000000 0.000000 -0.028653 0.000000
# 6 0.000000 0.000000 0.000000 0.000000 0.000000 0.045615
#
#
# Mechanical properties :
#
#
# Convention : Reuss Voigt Hill
#
# Bulk Modulus (GPa) = 50.03619 85.37643 67.70631
# Shear Modulus (GPa) = 48.25777 30.04991 39.15384
#
# Velocity S-wave (km/s) = 4.43076 3.49636 3.99100
# Velocity P-wave (km/s) = 6.82134 7.14362 6.98434
#
# Compressibility (1/GPa) = 0.01998554
#
# Stress axis : x y z
#
# Youngs Moduli (GPa) = 272.40670 139.74998 43.71239
#
# Poissons Ratio (x) = 0.12412 0.06591
# Poissons Ratio (y) = 0.24195 0.19509
# Poissons Ratio (z) = 0.41072 0.62370
#
# Static dielectric constant tensor:
#      x y z
#    x 2.086920 0.000000 0.000000 
#    y 0.000000 1.988040 0.000000 
#    z 0.000000 0.000000 1.938020 
# 
# From -- ./inp_files/13311.got.cif
#   From: 2010.05.17/outbox.cif.g08.bks.cpg/sg46_7_cif.got.tgz:13311.got - 2010.06.03 19:58:25.
