data_PCOD9379705
_publ_section_title
;
Structure prediction by ZEFSAII (Michael W. Deem and Ramdas Pophale) SiO2 
 PCOD9379705
Probable space group: I M A 2
;
_chemical_formula_sum "Si O2"
_cell_formula_units_Z 64
_cell_length_a 14.304366
_cell_length_b 21.944609
_cell_length_c 9.469136
_cell_angle_alpha 90.000000
_cell_angle_beta 90.000000
_cell_angle_gamma 90.000000
_cell_volume 2972.397005
_symmetry_space_group_name_H-M "I M A 2"
_symmetry_group_IT_number 46
_symmetry_cell_setting 'orthorhombic'
loop_
_space_group_symop_operation_xyz
x,y,z
-x,-y,z
1/2-x,y,z
1/2+x,-y,z
1/2+x,1/2+y,1/2+z
1/2-x,1/2-y,1/2+z
-x,1/2+y,1/2+z
x,1/2-y,1/2+z
loop_
_atom_site_type_symbol
_atom_site_label
_atom_site_fract_x
_atom_site_fract_y
_atom_site_fract_z
Si Si1 0.511037 0.744663 0.872570
Si Si2 0.856477 0.766545 0.140556
Si Si3 0.640460 0.358815 0.894735
Si Si4 0.506838 0.069728 0.188278
Si Si5 0.638633 0.942355 0.437937
Si Si6 0.851920 0.627204 0.198239
Si Si7 0.357992 0.947512 0.651296
Si Si8 0.481020 0.615697 0.377611
O O1 0.570573 0.707602 0.753924
O O2 0.422926 0.701476 0.901609
O O3 0.470552 0.812397 0.836325
O O4 0.585515 0.758483 0.997212
O O5 0.750000 0.791450 0.124801
O O6 0.845850 0.699341 0.207900
O O7 0.750000 0.348384 0.859850
O O8 0.593580 0.406882 0.784624
O O9 0.635757 0.389554 0.048082
O O10 0.419605 0.067121 0.297218
O O11 0.500000 0.000000 0.135546
O O12 0.513576 0.108510 0.045062
O O13 0.750000 0.947434 0.409164
O O14 0.617624 0.885168 0.538559
O O15 0.611400 0.997534 0.545447
O O16 0.750000 0.600069 0.213216
O O17 0.918660 0.599547 0.312593
O O18 0.250000 0.959010 0.685061
O O19 0.411792 0.928932 0.793180
#
# Coordination Sequence:
#
# PCOD9379705 Si02
#       8
#     8   8   8   8   8   8   8   8
#     4  11  22  41  63  94 134 180 231 282 348 413
#     4  10  20  37  62  93 131 168 215 276 340 410
#     4  11  24  45  70  95 132 187 245 295 337 411
#     4  12  25  40  64 100 138 177 220 285 362 419
#     4  10  21  41  68  94 122 165 220 270 330 411
#     4   9  20  37  61  91 122 163 211 263 322 398
#     4  10  22  42  67  91 121 170 228 278 326 395
#     4  11  25  39  60  97 135 171 218 278 353 413
#
# _framework density 21.531445000000001
#
# number of rings (size 3 to 8) (size 9 to 14) (size 15 to 20)
#    0.000    1.500    1.250    4.125    1.750    2.000 
#    0.000    6.250    0.000    0.000    0.000    0.000 
#    0.000    0.000    0.000    0.000    0.000    0.000 
#
# Total GULP energy -178417.041320 kJ/mol
# GULP energy per Si atom -5575.532541 kJ/mol
# Density = 2.148244 g / cm^3
# Si number density = 21.531445 Si / 1000 Ang^3
#
#
#
# Elastic Constant Matrix: (Units=GPa)
#
#
# Indices 1 2 3 4 5 6 
#
# 1 115.4969 24.4322 56.8395 0.0000 0.0000 0.0000
# 2 24.4322 84.5598 9.7631 0.0000 0.0000 0.0000
# 3 56.8395 9.7631 123.5577 0.0001 -0.0001 0.0000
# 4 0.0000 0.0000 0.0001 29.3978 0.0000 0.0000
# 5 0.0000 0.0000 -0.0001 0.0000 -21.1669 0.0000
# 6 0.0000 0.0000 0.0000 0.0000 0.0000 22.5487
#
#
#
# Elastic Compliance Matrix: (Units=1/GPa)
#
#
# Indices 1 2 3 4 5 6 
#
# 1 0.011820 -0.002813 -0.005215 0.000000 0.000000 0.000000
# 2 -0.002813 0.012604 0.000298 0.000000 0.000000 0.000000
# 3 -0.005215 0.000298 0.010469 0.000000 0.000000 0.000000
# 4 0.000000 0.000000 0.000000 0.034016 0.000000 0.000000
# 5 0.000000 0.000000 0.000000 0.000000 -0.047244 0.000000
# 6 0.000000 0.000000 0.000000 0.000000 0.000000 0.044348
#
#
# Mechanical properties :
#
#
# Convention : Reuss Voigt Hill
#
# Bulk Modulus (GPa) = 51.45896 56.18713 53.82305
# Shear Modulus (GPa) = 56.84932 21.66122 39.25527
#
# Velocity S-wave (km/s) = 5.14395 3.17523 4.27448
# Velocity P-wave (km/s) = 7.69621 6.29244 7.02946
#
# Compressibility (1/GPa) = 0.01943296
#
# Stress axis : x y z
#
# Youngs Moduli (GPa) = 84.60351 79.33788 95.52081
#
# Poissons Ratio (x) = 0.22318 0.49815
# Poissons Ratio (y) = 0.23799 -0.02848
# Poissons Ratio (z) = 0.44122 -0.02365
#
# Static dielectric constant tensor:
#      x y z
#    x 1.837190 0.000000 0.000000 
#    y 0.000000 1.867750 0.000000 
#    z 0.000000 0.000000 1.790780 
# 
# From -- ./inp_files/6123.got.cif
#   From: 2010.05.17/outbox.cif.g08.bks.cpg/sg46_4_cif.got.tgz:6123.got - 2010.06.03 19:58:25.
