data_PCOD9379806
_publ_section_title
;
Structure prediction by ZEFSAII (Michael W. Deem and Ramdas Pophale) SiO2 
 PCOD9379806
Probable space group: I M A 2
;
_chemical_formula_sum "Si O2"
_cell_formula_units_Z 56
_cell_length_a 13.786252
_cell_length_b 9.259745
_cell_length_c 21.388299
_cell_angle_alpha 90.000000
_cell_angle_beta 90.000000
_cell_angle_gamma 90.000000
_cell_volume 2730.369893
_symmetry_space_group_name_H-M "I M A 2"
_symmetry_group_IT_number 46
_symmetry_cell_setting 'orthorhombic'
loop_
_space_group_symop_operation_xyz
x,y,z
-x,-y,z
1/2-x,y,z
1/2+x,-y,z
1/2+x,1/2+y,1/2+z
1/2-x,1/2-y,1/2+z
-x,1/2+y,1/2+z
x,1/2-y,1/2+z
loop_
_atom_site_type_symbol
_atom_site_label
_atom_site_fract_x
_atom_site_fract_y
_atom_site_fract_z
Si Si1 0.359657 0.862370 0.335650
Si Si2 0.987117 0.296283 0.532812
Si Si3 0.863625 0.716832 0.432689
Si Si4 0.863749 0.892823 0.237788
Si Si5 0.864418 0.541639 0.600232
Si Si6 0.965782 0.838370 0.802783
Si Si7 0.141142 0.550393 0.978756
O O1 0.250000 0.825802 0.316772
O O2 0.436543 0.744917 0.318767
O O3 0.362468 0.880079 0.409846
O O4 0.385135 0.008623 0.298290
O O5 0.908255 0.409630 0.559881
O O6 0.934747 0.143354 0.519607
O O7 0.045489 0.348534 0.470837
O O8 0.076342 0.313765 0.581504
O O9 0.750000 0.672844 0.442843
O O10 0.890820 0.688405 0.360516
O O11 0.870505 0.881908 0.459364
O O12 0.750000 0.860641 0.238843
O O13 0.920683 0.744277 0.243843
O O14 0.882503 0.979230 0.174009
O O15 0.750000 0.556678 0.589469
O O16 0.000000 0.000000 0.793408
O O17 0.250000 0.566931 0.004944
#
# Coordination Sequence:
#
# PCOD9379806 Si02
#       7
#     8   8   8   8   8   8   8
#     4  10  21  38  67  98 127 166 217 274 339 403
#     4  11  22  36  61  97 126 174 224 275 320 383
#     4  11  23  40  63  96 135 179 216 264 334 406
#     4  10  22  45  74  96 124 172 228 282 334 406
#     4  10  24  43  65  93 129 176 229 276 325 390
#     4  12  25  38  64 104 137 168 214 278 348 407
#     4  10  20  38  64  96 132 167 213 272 330 399
#
# _framework density 20.51004
#
# number of rings (size 3 to 8) (size 9 to 14) (size 15 to 20)
#    0.000    1.429    2.857    2.143    6.000    1.143 
#    0.000    2.857    0.000    0.000    0.000    0.000 
#    0.000    0.000    0.000    0.000    0.000    0.000 
#
# Total GULP energy -156058.700922 kJ/mol
# GULP energy per Si atom -5573.525033 kJ/mol
# Density = 2.046336 g / cm^3
# Si number density = 20.510040 Si / 1000 Ang^3
#
#
#
# Elastic Constant Matrix: (Units=GPa)
#
#
# Indices 1 2 3 4 5 6 
#
# 1 146.3355 52.3642 20.6321 0.0000 0.0000 0.0000
# 2 52.3642 97.1757 14.8394 0.0000 0.0000 0.0000
# 3 20.6321 14.8394 46.7949 0.0000 0.0000 0.0000
# 4 0.0000 0.0000 0.0000 -2.1811 0.0000 0.0000
# 5 0.0000 0.0000 0.0000 0.0000 150.2107 0.0000
# 6 0.0000 0.0000 0.0000 0.0000 0.0000 -14.7589
#
#
#
# Elastic Compliance Matrix: (Units=1/GPa)
#
#
# Indices 1 2 3 4 5 6 
#
# 1 0.008731 -0.004327 -0.002478 0.000000 0.000000 0.000000
# 2 -0.004327 0.012958 -0.002202 0.000000 0.000000 0.000000
# 3 -0.002478 -0.002202 0.023160 0.000000 0.000000 0.000000
# 4 0.000000 0.000000 0.000000 -0.458477 0.000000 0.000000
# 5 0.000000 0.000000 0.000000 0.000000 0.006657 0.000000
# 6 0.000000 0.000000 0.000000 0.000000 0.000000 -0.067756
#
#
# Mechanical properties :
#
#
# Convention : Reuss Voigt Hill
#
# Bulk Modulus (GPa) = 37.26029 51.77528 44.51778
# Shear Modulus (GPa) = -11.16651 40.15216 14.49283
#
# Velocity S-wave (km/s) = -2.33586 4.42937 2.66112
# Velocity P-wave (km/s) = 3.30625 7.17341 5.58521
#
# Compressibility (1/GPa) = 0.02683822
#
# Stress axis : x y z
#
# Youngs Moduli (GPa) = 114.53289 77.17096 43.17708
#
# Poissons Ratio (x) = 0.33388 0.10697
# Poissons Ratio (y) = 0.49553 0.09506
# Poissons Ratio (z) = 0.28377 0.16991
#
# Static dielectric constant tensor:
#      x y z
#    x 1.751620 0.000000 0.000000 
#    y 0.000000 1.983330 0.000000 
#    z 0.000000 0.000000 1.777960 
# 
# From -- ./inp_files/22018.got.cif
#   From: 2010.05.17/outbox.cif.g08.bks.cpg/sg46_12_cif.got.tgz:22018.got - 2010.06.03 19:58:25.
