data_PCOD9379869
_publ_section_title
;
Structure prediction by ZEFSAII (Michael W. Deem and Ramdas Pophale) SiO2 
 PCOD9379869
Probable space group: I M A 2
;
_chemical_formula_sum "Si O2"
_cell_formula_units_Z 60
_cell_length_a 18.882662
_cell_length_b 27.656799
_cell_length_c 5.292497
_cell_angle_alpha 90.000000
_cell_angle_beta 90.000000
_cell_angle_gamma 90.000000
_cell_volume 2763.921812
_symmetry_space_group_name_H-M "I M A 2"
_symmetry_group_IT_number 46
_symmetry_cell_setting 'orthorhombic'
loop_
_space_group_symop_operation_xyz
x,y,z
-x,-y,z
1/2-x,y,z
1/2+x,-y,z
1/2+x,1/2+y,1/2+z
1/2-x,1/2-y,1/2+z
-x,1/2+y,1/2+z
x,1/2-y,1/2+z
loop_
_atom_site_type_symbol
_atom_site_label
_atom_site_fract_x
_atom_site_fract_y
_atom_site_fract_z
Si Si1 0.500000 0.000000 0.911021
Si Si2 0.324072 0.543441 0.145629
Si Si3 0.604047 0.613957 0.796348
Si Si4 0.871179 0.941360 0.782239
Si Si5 0.165709 0.281289 0.723905
Si Si6 0.335423 0.724885 0.161576
Si Si7 0.942343 0.419424 0.781332
Si Si8 0.328693 0.865971 0.998394
O O1 0.549950 0.964150 0.758284
O O2 0.454450 0.963794 0.085476
O O3 0.250000 0.550223 0.993848
O O4 0.395523 0.555830 0.998013
O O5 0.325609 0.489226 0.247040
O O6 0.321581 0.582319 0.366621
O O7 0.631917 0.583295 0.555596
O O8 0.621571 0.669614 0.747963
O O9 0.520290 0.602482 0.822698
O O10 0.639992 0.595723 0.054893
O O11 0.250000 0.293121 0.728885
O O12 0.151245 0.253335 0.462921
O O13 0.250000 0.728638 0.145603
O O14 0.360980 0.762037 0.380906
O O15 0.349139 0.672682 0.283372
O O16 0.891848 0.375589 0.689956
O O17 0.250000 0.851724 0.099753
#
# Coordination Sequence:
#
# PCOD9379869 Si02
#       8
#     4   8   8   8   8   8   8   8
#     4  10  20  40  60  84 122 176 224 262 322 392
#     4  11  23  38  60  91 132 178 221 268 320 386
#     4  11  25  40  69  96 132 168 217 268 330 393
#     4  11  22  40  59  95 127 173 212 269 319 387
#     4  10  22  45  74 101 131 169 213 268 338 408
#     4   9  19  36  57  79 106 145 195 251 307 356
#     4  11  22  39  59  89 126 174 221 264 319 386
#     4  10  22  38  59  86 121 165 217 267 313 375
#
# _framework density 21.708283000000002
#
# number of rings (size 3 to 8) (size 9 to 14) (size 15 to 20)
#    0.000    1.600    1.333    3.600    3.733    1.600 
#    0.000    1.333    0.000    0.000    0.000    0.000 
#    0.000    0.000    0.000    0.000    0.000    0.000 
#
# Total GULP energy -167525.989599 kJ/mol
# GULP energy per Si atom -5584.199653 kJ/mol
# Density = 2.165887 g / cm^3
# Si number density = 21.708283 Si / 1000 Ang^3
#
#
#
# Elastic Constant Matrix: (Units=GPa)
#
#
# Indices 1 2 3 4 5 6 
#
# 1 68.7272 41.3978 25.4631 0.0000 0.0000 0.0000
# 2 41.3978 89.2516 7.3067 0.0000 0.0000 0.0000
# 3 25.4631 7.3067 73.2175 0.0000 0.0000 0.0000
# 4 0.0000 0.0000 0.0000 37.9466 0.0000 0.0000
# 5 0.0000 0.0000 0.0000 0.0000 17.1582 0.0000
# 6 0.0000 0.0000 0.0000 0.0000 0.0000 27.9783
#
#
#
# Elastic Compliance Matrix: (Units=1/GPa)
#
#
# Indices 1 2 3 4 5 6 
#
# 1 0.023356 -0.010252 -0.007099 0.000000 0.000000 0.000000
# 2 -0.010252 0.015797 0.001989 0.000000 0.000000 0.000000
# 3 -0.007099 0.001989 0.015928 0.000000 0.000000 0.000000
# 4 0.000000 0.000000 0.000000 0.026353 0.000000 0.000000
# 5 0.000000 0.000000 0.000000 0.000000 0.058281 0.000000
# 6 0.000000 0.000000 0.000000 0.000000 0.000000 0.035742
#
#
# Mechanical properties :
#
#
# Convention : Reuss Voigt Hill
#
# Bulk Modulus (GPa) = 41.05768 42.17016 41.61392
# Shear Modulus (GPa) = 23.33170 27.08521 25.20846
#
# Velocity S-wave (km/s) = 3.28195 3.53610 3.41139
# Velocity P-wave (km/s) = 5.77200 6.01165 5.89305
#
# Compressibility (1/GPa) = 0.02435598
#
# Stress axis : x y z
#
# Youngs Moduli (GPa) = 42.81572 63.30440 62.78074
#
# Poissons Ratio (x) = 0.64900 0.44571
# Poissons Ratio (y) = 0.43895 -0.12487
# Poissons Ratio (z) = 0.30397 -0.12591
#
# Static dielectric constant tensor:
#      x y z
#    x 1.838700 0.000000 0.000000 
#    y 0.000000 1.767350 0.000000 
#    z 0.000000 0.000000 1.824470 
# 
# From -- ./inp_files/1797.got.cif
#   From: 2010.05.17/outbox.cif.g08.bks.cpg/sg46_1_cif.got.tgz:1797.got - 2010.06.03 19:58:25.
