data_PCOD9379189
_publ_section_title
;
Structure prediction by ZEFSAII (Michael W. Deem and Ramdas Pophale) SiO2 
 PCOD9379189
Probable space group: I M A 2
;
_chemical_formula_sum "Si O2"
_cell_formula_units_Z 64
_cell_length_a 8.987810
_cell_length_b 13.722758
_cell_length_c 23.418479
_cell_angle_alpha 90.000000
_cell_angle_beta 90.000000
_cell_angle_gamma 90.000000
_cell_volume 2888.377627
_symmetry_space_group_name_H-M "I M A 2"
_symmetry_group_IT_number 46
_symmetry_cell_setting 'orthorhombic'
loop_
_space_group_symop_operation_xyz
x,y,z
-x,-y,z
1/2-x,y,z
1/2+x,-y,z
1/2+x,1/2+y,1/2+z
1/2-x,1/2-y,1/2+z
-x,1/2+y,1/2+z
x,1/2-y,1/2+z
loop_
_atom_site_type_symbol
_atom_site_label
_atom_site_fract_x
_atom_site_fract_y
_atom_site_fract_z
Si Si1 0.074900 0.099868 0.440350
Si Si2 0.429625 0.404330 0.767972
Si Si3 0.429503 0.692913 0.410079
Si Si4 0.419138 0.138174 0.666804
Si Si5 0.915607 0.140138 0.032141
Si Si6 0.084073 0.872738 0.554500
Si Si7 0.928616 0.819645 0.794670
Si Si8 0.416613 0.129287 0.144226
O O1 0.250000 0.102470 0.428145
O O2 0.997310 0.198031 0.417076
O O3 0.040368 0.099978 0.508325
O O4 0.000000 0.000000 0.419584
O O5 0.500000 0.500000 0.795501
O O6 0.250000 0.412307 0.768119
O O7 0.462843 0.296558 0.791025
O O8 0.491610 0.401525 0.703106
O O9 0.250000 0.699479 0.410608
O O10 0.476371 0.635574 0.467757
O O11 0.488510 0.646364 0.351567
O O12 0.250000 0.099110 0.661596
O O13 0.532268 0.102898 0.618391
O O14 0.468096 0.133081 0.733172
O O15 0.407739 0.253648 0.652205
O O16 0.750000 0.098409 0.032769
O O17 0.904823 0.256034 0.045925
O O18 0.009092 0.103602 0.085060
O O19 0.250000 0.911386 0.541382
O O20 0.750000 0.829242 0.800478
O O21 0.250000 0.090108 0.143968
#
# Coordination Sequence:
#
# PCOD9379189 Si02
#       8
#     8   8   8   8   8   8   8   8
#     4  11  21  33  47  62  84 115 149 182 217 255
#     4   9  18  30  42  59  83 111 144 178 208 244
#     4  10  20  32  44  62  87 114 147 182 215 254
#     4   8  14  26  43  61  81 107 139 175 215 255
#     4   8  15  26  40  59  81 103 131 170 212 254
#     4   9  16  27  43  64  86 106 134 173 217 261
#     4   9  18  31  44  60  85 117 152 184 213 249
#     4   8  14  25  41  59  78 101 132 170 210 250
#
# _framework density 22.157768999999998
#
# number of rings (size 3 to 8) (size 9 to 14) (size 15 to 20)
#    0.000    3.000    0.000    4.125    0.000    5.500 
#    0.000    3.750    0.000    0.000    0.000    0.000 
#    0.000    1.000    0.000    9.000    0.000    7.500 
#
# Total GULP energy -178452.616968 kJ/mol
# GULP energy per Si atom -5576.644280 kJ/mol
# Density = 2.210734 g / cm^3
# Si number density = 22.157769 Si / 1000 Ang^3
#
#
#
# Elastic Constant Matrix: (Units=GPa)
#
#
# Indices 1 2 3 4 5 6 
#
# 1 51.7893 -0.3175 44.5858 0.0000 0.0000 0.0000
# 2 -0.3175 31.9018 -10.2650 0.0000 0.0000 0.0000
# 3 44.5858 -10.2650 201.0715 0.0000 0.0000 0.0000
# 4 0.0000 0.0000 0.0000 -11.0870 0.0000 0.0000
# 5 0.0000 0.0000 0.0000 0.0000 24.3020 0.0000
# 6 0.0000 0.0000 0.0000 0.0000 0.0000 9.9438
#
#
#
# Elastic Compliance Matrix: (Units=1/GPa)
#
#
# Indices 1 2 3 4 5 6 
#
# 1 0.023935 -0.001494 -0.005384 0.000000 0.000000 0.000000
# 2 -0.001494 0.031963 0.001963 0.000000 0.000000 0.000000
# 3 -0.005384 0.001963 0.006267 0.000000 0.000000 0.000000
# 4 0.000000 0.000000 0.000000 -0.090196 0.000000 0.000000
# 5 0.000000 0.000000 0.000000 0.000000 0.041149 0.000000
# 6 0.000000 0.000000 0.000000 0.000000 0.000000 0.100566
#
#
# Mechanical properties :
#
#
# Convention : Reuss Voigt Hill
#
# Bulk Modulus (GPa) = 19.10741 39.19659 29.15200
# Shear Modulus (GPa) = 35.47165 21.34906 28.41035
#
# Velocity S-wave (km/s) = 4.00542 3.10740 3.58465
# Velocity P-wave (km/s) = 5.48026 5.53198 5.50618
#
# Compressibility (1/GPa) = 0.05233572
#
# Stress axis : x y z
#
# Youngs Moduli (GPa) = 41.78050 31.28624 159.55763
#
# Poissons Ratio (x) = 0.04674 0.85899
# Poissons Ratio (y) = 0.06242 -0.31322
# Poissons Ratio (z) = 0.22493 -0.06142
#
# Static dielectric constant tensor:
#      x y z
#    x 1.759550 0.000000 0.000000 
#    y 0.000000 1.866950 0.000000 
#    z 0.000000 0.000000 1.854870 
# 
# From -- ./inp_files/18661.got.cif
#   From: 2010.05.17/outbox.cif.g08.bks.cpg/sg46_10_cif.got.tgz:18661.got - 2010.06.03 19:58:25.
