data_PCOD9379118
_publ_section_title
;
Structure prediction by ZEFSAII (Michael W. Deem and Ramdas Pophale) SiO2 
 PCOD9379118
Probable space group: I M A 2
;
_chemical_formula_sum "Si O2"
_cell_formula_units_Z 48
_cell_length_a 15.701554
_cell_length_b 18.685285
_cell_length_c 8.681232
_cell_angle_alpha 90.000000
_cell_angle_beta 90.000000
_cell_angle_gamma 90.000000
_cell_volume 2546.969393
_symmetry_space_group_name_H-M "I M A 2"
_symmetry_group_IT_number 46
_symmetry_cell_setting 'orthorhombic'
loop_
_space_group_symop_operation_xyz
x,y,z
-x,-y,z
1/2-x,y,z
1/2+x,-y,z
1/2+x,1/2+y,1/2+z
1/2-x,1/2-y,1/2+z
-x,1/2+y,1/2+z
x,1/2-y,1/2+z
loop_
_atom_site_type_symbol
_atom_site_label
_atom_site_fract_x
_atom_site_fract_y
_atom_site_fract_z
Si Si1 0.904673 0.948282 0.134720
Si Si2 0.250000 0.348614 0.659870
Si Si3 0.939731 0.798846 0.579741
Si Si4 0.649372 0.106203 0.049978
Si Si5 0.750000 0.726566 0.965589
Si Si6 0.000756 0.580637 0.316408
Si Si7 0.514247 0.165063 0.255659
O O1 0.829246 0.897923 0.182605
O O2 0.979111 0.916743 0.242727
O O3 0.867766 0.027428 0.121991
O O4 0.939902 0.929138 0.965064
O O5 0.250000 0.310924 0.496316
O O6 0.250000 0.286980 0.785179
O O7 0.839946 0.802776 0.531721
O O8 0.965422 0.859564 0.702364
O O9 0.999037 0.809398 0.429107
O O10 0.959460 0.721185 0.653165
O O11 0.750000 0.117218 0.025344
O O12 0.606017 0.160779 0.172253
O O13 0.591262 0.104328 0.893769
O O14 0.000000 0.500000 0.246529
#
# Coordination Sequence:
#
# PCOD9379118 Si02
#       7
#     8   4   8   8   4   8   8
#     4  10  19  37  60  87 123 154 196 239 294 353
#     4  12  22  34  56  96 122 157 195 238 286 358
#     4  12  23  40  60  90 122 157 195 241 301 358
#     4  10  21  40  64  87 113 159 208 246 289 350
#     4  12  24  36  58  92 124 155 193 236 290 364
#     4   9  22  40  60  88 118 159 191 243 304 350
#     4  11  22  38  60  87 122 157 195 246 299 352
#
# _framework density 18.845927
#
# number of rings (size 3 to 8) (size 9 to 14) (size 15 to 20)
#    0.000    1.333    4.167    3.500    2.333    1.333 
#    1.500    4.167    0.000    0.000    0.000    0.000 
#    0.000    0.000    0.000    0.000    0.000    0.000 
#
# Total GULP energy -133675.249308 kJ/mol
# GULP energy per Si atom -5569.802055 kJ/mol
# Density = 1.880303 g / cm^3
# Si number density = 18.845927 Si / 1000 Ang^3
#
#
#
# Elastic Constant Matrix: (Units=GPa)
#
#
# Indices 1 2 3 4 5 6 
#
# 1 133.3236 0.6491 21.3355 0.0000 0.0000 0.0000
# 2 0.6491 39.0559 20.1245 0.0000 0.0000 0.0000
# 3 21.3355 20.1245 57.4930 0.0000 0.0000 0.0000
# 4 0.0000 0.0000 0.0000 28.9929 0.0000 0.0000
# 5 0.0000 0.0000 0.0000 0.0000 16.8407 0.0000
# 6 0.0000 0.0000 0.0000 0.0000 0.0000 -15.8882
#
#
#
# Elastic Compliance Matrix: (Units=1/GPa)
#
#
# Indices 1 2 3 4 5 6 
#
# 1 0.008068 0.001719 -0.003595 0.000000 0.000000 0.000000
# 2 0.001719 0.031605 -0.011700 0.000000 0.000000 0.000000
# 3 -0.003595 -0.011700 0.022823 0.000000 0.000000 0.000000
# 4 0.000000 0.000000 0.000000 0.034491 0.000000 0.000000
# 5 0.000000 0.000000 0.000000 0.000000 0.059380 0.000000
# 6 0.000000 0.000000 0.000000 0.000000 0.000000 -0.062940
#
#
# Mechanical properties :
#
#
# Convention : Reuss Voigt Hill
#
# Bulk Modulus (GPa) = 28.29586 34.89895 31.59740
# Shear Modulus (GPa) = 37.77523 18.50664 28.14094
#
# Velocity S-wave (km/s) = 4.48194 3.13708 3.86840
# Velocity P-wave (km/s) = 6.46766 5.62849 6.06261
#
# Compressibility (1/GPa) = 0.03534086
#
# Stress axis : x y z
#
# Youngs Moduli (GPa) = 123.95353 31.64083 43.81502
#
# Poissons Ratio (x) = -0.05438 0.15753
# Poissons Ratio (y) = -0.21302 0.51266
# Poissons Ratio (z) = 0.44566 0.37021
#
# Static dielectric constant tensor:
#      x y z
#    x 1.715310 0.000000 0.000000 
#    y 0.000000 1.705120 0.000000 
#    z 0.000000 0.000000 1.650970 
# 
# From -- ./inp_files/5729.got.cif
#   From: 2010.05.17/outbox.cif.g08.bks.cpg/sg46_3_cif.got.tgz:5729.got - 2010.06.03 19:58:25.
