data_PCOD9379950
_publ_section_title
;
Structure prediction by ZEFSAII (Michael W. Deem and Ramdas Pophale) SiO2 
 PCOD9379950
Probable space group: I M A 2
;
_chemical_formula_sum "Si O2"
_cell_formula_units_Z 40
_cell_length_a 14.473561
_cell_length_b 12.651688
_cell_length_c 9.563109
_cell_angle_alpha 90.000000
_cell_angle_beta 90.000000
_cell_angle_gamma 90.000000
_cell_volume 1751.148494
_symmetry_space_group_name_H-M "I M A 2"
_symmetry_group_IT_number 46
_symmetry_cell_setting 'orthorhombic'
loop_
_space_group_symop_operation_xyz
x,y,z
-x,-y,z
1/2-x,y,z
1/2+x,-y,z
1/2+x,1/2+y,1/2+z
1/2-x,1/2-y,1/2+z
-x,1/2+y,1/2+z
x,1/2-y,1/2+z
loop_
_atom_site_type_symbol
_atom_site_label
_atom_site_fract_x
_atom_site_fract_y
_atom_site_fract_z
Si Si1 0.851480 0.788468 0.298670
Si Si2 0.109479 0.510745 0.678766
Si Si3 0.469808 0.278105 0.056789
Si Si4 0.146353 0.805633 0.395525
Si Si5 0.940200 0.092797 0.901464
O O1 0.750000 0.738618 0.300132
O O2 0.929164 0.723074 0.212157
O O3 0.888944 0.812766 0.452721
O O4 0.846960 0.900778 0.222693
O O5 0.142048 0.608310 0.773640
O O6 0.124743 0.536620 0.516152
O O7 0.000000 0.500000 0.709535
O O8 0.490923 0.158389 0.005234
O O9 0.566375 0.331580 0.010466
O O10 0.250000 0.800717 0.453013
O O11 0.116552 0.689747 0.335574
O O12 0.000000 0.000000 0.828787
#
# Coordination Sequence:
#
# PCOD9379950 Si02
#       5
#     8   8   8   8   8
#     4  12  23  39  67  93 123 169 211 258 317 379
#     4  11  17  39  63  89 123 168 214 260 310 375
#     4  10  21  40  60  92 130 156 208 266 304 372
#     4  10  21  33  58  91 125 164 206 263 316 367
#     4   9  18  36  60  84 120 159 204 254 315 359
#
# _framework density 22.842151000000001
#
# number of rings (size 3 to 8) (size 9 to 14) (size 15 to 20)
#    1.200    0.400    6.000    1.200    0.000    1.600 
#    0.000    0.000    8.800    0.000    0.000    0.000 
#    0.000    0.000    0.000    0.000    0.000    0.000 
#
# Total GULP energy -111404.581062 kJ/mol
# GULP energy per Si atom -5570.229053 kJ/mol
# Density = 2.279016 g / cm^3
# Si number density = 22.842151 Si / 1000 Ang^3
#
#
#
# Elastic Constant Matrix: (Units=GPa)
#
#
# Indices 1 2 3 4 5 6 
#
# 1 160.7592 -4.5999 18.2382 0.0000 0.0000 0.0000
# 2 -4.5999 42.9852 -5.7057 0.0000 0.0000 0.0000
# 3 18.2382 -5.7057 67.1537 0.0000 0.0000 0.0000
# 4 0.0000 0.0000 0.0000 31.2854 0.0000 0.0000
# 5 0.0000 0.0000 0.0000 0.0000 -22.9742 0.0000
# 6 0.0000 0.0000 0.0000 0.0000 0.0000 13.8096
#
#
#
# Elastic Compliance Matrix: (Units=1/GPa)
#
#
# Indices 1 2 3 4 5 6 
#
# 1 0.006427 0.000461 -0.001706 0.000000 0.000000 0.000000
# 2 0.000461 0.023562 0.001877 0.000000 0.000000 0.000000
# 3 -0.001706 0.001877 0.015514 0.000000 0.000000 0.000000
# 4 0.000000 0.000000 0.000000 0.031964 0.000000 0.000000
# 5 0.000000 0.000000 0.000000 0.000000 -0.043527 0.000000
# 6 0.000000 0.000000 0.000000 0.000000 0.000000 0.072414
#
#
# Mechanical properties :
#
#
# Convention : Reuss Voigt Hill
#
# Bulk Modulus (GPa) = 21.38268 31.86261 26.62265
# Shear Modulus (GPa) = 41.43194 21.95517 31.69356
#
# Velocity S-wave (km/s) = 4.26354 3.10364 3.72896
# Velocity P-wave (km/s) = 5.79814 5.17907 5.49732
#
# Compressibility (1/GPa) = 0.04676682
#
# Stress axis : x y z
#
# Youngs Moduli (GPa) = 155.58700 42.44067 64.45754
#
# Poissons Ratio (x) = -0.01958 0.10999
# Poissons Ratio (y) = -0.07177 -0.12097
# Poissons Ratio (z) = 0.26549 -0.07965
#
# Static dielectric constant tensor:
#      x y z
#    x 1.975670 0.000000 0.000000 
#    y 0.000000 1.884590 0.000000 
#    z 0.000000 0.000000 1.922920 
# 
# From -- ./inp_files/5424.got.cif
#   From: 2010.05.17/outbox.cif.g08.bks.cpg/sg46_3_cif.got.tgz:5424.got - 2010.06.03 19:58:25.
