data_PCOD9379333
_publ_section_title
;
Structure prediction by ZEFSAII (Michael W. Deem and Ramdas Pophale) SiO2 
 PCOD9379333
Probable space group: I M A 2
;
_chemical_formula_sum "Si O2"
_cell_formula_units_Z 64
_cell_length_a 8.810527
_cell_length_b 25.608160
_cell_length_c 15.352563
_cell_angle_alpha 90.000000
_cell_angle_beta 90.000000
_cell_angle_gamma 90.000000
_cell_volume 3463.866529
_symmetry_space_group_name_H-M "I M A 2"
_symmetry_group_IT_number 46
_symmetry_cell_setting 'orthorhombic'
loop_
_space_group_symop_operation_xyz
x,y,z
-x,-y,z
1/2-x,y,z
1/2+x,-y,z
1/2+x,1/2+y,1/2+z
1/2-x,1/2-y,1/2+z
-x,1/2+y,1/2+z
x,1/2-y,1/2+z
loop_
_atom_site_type_symbol
_atom_site_label
_atom_site_fract_x
_atom_site_fract_y
_atom_site_fract_z
Si Si1 0.567555 0.647168 0.430910
Si Si2 0.568731 0.334820 0.619316
Si Si3 0.932350 0.137989 0.306068
Si Si4 0.432154 0.614094 0.133631
Si Si5 0.072825 0.224310 0.605969
Si Si6 0.931494 0.443040 0.312188
Si Si7 0.572224 0.763369 0.397920
Si Si8 0.566412 0.442223 0.953214
O O1 0.750000 0.645684 0.429246
O O2 0.511974 0.647692 0.530716
O O3 0.498238 0.599382 0.378433
O O4 0.519897 0.703304 0.390020
O O5 0.750000 0.338398 0.608386
O O6 0.520381 0.366301 0.705479
O O7 0.521815 0.274583 0.635177
O O8 0.750000 0.137044 0.307337
O O9 0.985951 0.092820 0.371458
O O10 0.984441 0.193625 0.343584
O O11 0.250000 0.622064 0.131673
O O12 0.511915 0.669951 0.142304
O O13 0.469071 0.577118 0.214870
O O14 0.477289 0.586983 0.042774
O O15 0.250000 0.231813 0.627228
O O16 0.058695 0.222964 0.500608
O O17 0.750000 0.444909 0.320450
O O18 0.000000 0.500000 0.326936
O O19 0.750000 0.765665 0.374712
O O20 0.500000 0.500000 0.950688
O O21 0.750000 0.445053 0.951854
#
# Coordination Sequence:
#
# PCOD9379333 Si02
#       8
#     8   8   8   8   8   8   8   8
#     4  10  22  41  61  86 117 153 196 247 301 354
#     4  10  21  37  58  85 118 157 196 243 295 350
#     4  10  21  36  57  84 117 154 195 239 288 344
#     4  10  21  37  58  85 118 156 195 235 290 352
#     4  10  20  34  54  84 119 156 194 236 288 346
#     4  11  24  41  62  88 116 154 201 249 300 355
#     4   9  19  34  54  83 116 150 190 233 286 346
#     4  10  21  38  58  83 116 154 194 238 284 342
#
# _framework density 18.476462000000001
#
# number of rings (size 3 to 8) (size 9 to 14) (size 15 to 20)
#    0.000    2.000    1.250    2.625    1.750    5.500 
#    0.000    0.625    0.000    1.500    0.000    0.000 
#    0.000    0.000    0.000    0.000    0.000    0.000 
#
# Total GULP energy -178733.508992 kJ/mol
# GULP energy per Si atom -5585.422156 kJ/mol
# Density = 1.843441 g / cm^3
# Si number density = 18.476462 Si / 1000 Ang^3
#
#
#
# Elastic Constant Matrix: (Units=GPa)
#
#
# Indices 1 2 3 4 5 6 
#
# 1 26.5833 29.5297 24.6636 0.0000 0.0000 0.0000
# 2 29.5297 119.8112 55.5587 0.0000 0.0000 0.0000
# 3 24.6636 55.5587 86.8663 0.0000 0.0001 0.0000
# 4 0.0000 0.0000 0.0000 27.3196 0.0000 0.0000
# 5 0.0000 0.0000 0.0001 0.0000 6.1735 0.0000
# 6 0.0000 0.0000 0.0000 0.0000 0.0000 34.0813
#
#
#
# Elastic Compliance Matrix: (Units=1/GPa)
#
#
# Indices 1 2 3 4 5 6 
#
# 1 0.057685 -0.009415 -0.010356 0.000000 0.000000 0.000000
# 2 -0.009415 0.013402 -0.005899 0.000000 0.000000 0.000000
# 3 -0.010356 -0.005899 0.018225 0.000000 0.000000 0.000000
# 4 0.000000 0.000000 0.000000 0.036604 0.000000 0.000000
# 5 0.000000 0.000000 0.000000 0.000000 0.161982 0.000000
# 6 0.000000 0.000000 0.000000 0.000000 0.000000 0.029342
#
#
# Mechanical properties :
#
#
# Convention : Reuss Voigt Hill
#
# Bulk Modulus (GPa) = 26.33534 50.30720 38.32127
# Shear Modulus (GPa) = 13.11518 21.74880 17.43199
#
# Velocity S-wave (km/s) = 2.66716 3.43462 3.07493
# Velocity P-wave (km/s) = 4.87538 6.55863 5.77863
#
# Compressibility (1/GPa) = 0.03797180
#
# Stress axis : x y z
#
# Youngs Moduli (GPa) = 17.33557 74.61367 54.86897
#
# Poissons Ratio (x) = 0.70249 0.56825
# Poissons Ratio (y) = 0.16321 0.32366
# Poissons Ratio (z) = 0.17954 0.44013
#
# Static dielectric constant tensor:
#      x y z
#    x 1.615000 0.000000 0.000000 
#    y 0.000000 1.600230 0.000000 
#    z 0.000000 0.000000 1.653880 
# 
# From -- ./inp_files/14465.got.cif
#   From: 2010.05.17/outbox.cif.g08.bks.cpg/sg46_8_cif.got.tgz:14465.got - 2010.06.03 19:58:25.
