data_PCOD9379886
_publ_section_title
;
Structure prediction by ZEFSAII (Michael W. Deem and Ramdas Pophale) SiO2 
 PCOD9379886
Probable space group: I M A 2
;
_chemical_formula_sum "Si O2"
_cell_formula_units_Z 48
_cell_length_a 18.724305
_cell_length_b 9.457803
_cell_length_c 13.262307
_cell_angle_alpha 90.000000
_cell_angle_beta 90.000000
_cell_angle_gamma 90.000000
_cell_volume 2348.632397
_symmetry_space_group_name_H-M "I M A 2"
_symmetry_group_IT_number 46
_symmetry_cell_setting 'orthorhombic'
loop_
_space_group_symop_operation_xyz
x,y,z
-x,-y,z
1/2-x,y,z
1/2+x,-y,z
1/2+x,1/2+y,1/2+z
1/2-x,1/2-y,1/2+z
-x,1/2+y,1/2+z
x,1/2-y,1/2+z
loop_
_atom_site_type_symbol
_atom_site_label
_atom_site_fract_x
_atom_site_fract_y
_atom_site_fract_z
Si Si1 0.917862 0.021512 0.959140
Si Si2 0.060538 0.735002 0.800979
Si Si3 0.571994 0.692608 0.936493
Si Si4 0.168843 0.294928 0.765692
Si Si5 0.832430 0.417778 0.655093
Si Si6 0.951069 0.865229 0.665431
O O1 0.901225 0.856868 0.939795
O O2 0.916641 0.119985 0.859152
O O3 0.000000 0.000000 0.992853
O O4 0.872518 0.093362 0.047831
O O5 0.126852 0.660145 0.747119
O O6 0.004626 0.746318 0.707526
O O7 0.932537 0.638182 0.048846
O O8 0.493389 0.674039 0.886667
O O9 0.630317 0.631149 0.860885
O O10 0.250000 0.256014 0.787856
O O11 0.167190 0.415021 0.680050
O O12 0.121202 0.164951 0.726117
O O13 0.750000 0.371180 0.648656
O O14 0.000000 0.000000 0.687385
#
# Coordination Sequence:
#
# PCOD9379886 Si02
#       6
#     8   8   8   8   8   8
#     4  10  20  40  65  92 118 169 220 264 323 394
#     4  10  21  37  61  90 123 157 215 272 315 382
#     4  10  21  36  65  90 118 168 212 262 327 389
#     4  10  23  41  61  91 130 173 219 269 330 400
#     4  11  24  40  61  92 131 175 217 268 340 401
#     4  11  22  39  64  96 125 159 220 276 328 388
#
# _framework density 20.437427
#
# number of rings (size 3 to 8) (size 9 to 14) (size 15 to 20)
#    0.000    1.667    1.667    4.500    4.667    2.000 
#    0.000    2.500    0.000    0.000    0.000    0.000 
#    0.000    0.000    0.000    0.000    0.000    0.000 
#
# Total GULP energy -133636.229538 kJ/mol
# GULP energy per Si atom -5568.176231 kJ/mol
# Density = 2.039091 g / cm^3
# Si number density = 20.437427 Si / 1000 Ang^3
#
#
#
# Elastic Constant Matrix: (Units=GPa)
#
#
# Indices 1 2 3 4 5 6 
#
# 1 150.9348 31.1935 69.0548 0.0000 0.0000 0.0000
# 2 31.1935 37.8568 19.4818 0.0000 0.0000 0.0000
# 3 69.0548 19.4818 145.2719 0.0000 0.0000 0.0000
# 4 0.0000 0.0000 0.0000 27.8618 0.0000 0.0000
# 5 0.0000 0.0000 0.0000 0.0000 16.1082 0.0000
# 6 0.0000 0.0000 0.0000 0.0000 0.0000 21.1434
#
#
#
# Elastic Compliance Matrix: (Units=1/GPa)
#
#
# Indices 1 2 3 4 5 6 
#
# 1 0.009573 -0.005957 -0.003752 0.000000 0.000000 0.000000
# 2 -0.005957 0.032081 -0.001470 0.000000 0.000000 0.000000
# 3 -0.003752 -0.001470 0.008864 0.000000 0.000000 0.000000
# 4 0.000000 0.000000 0.000000 0.035891 0.000000 0.000000
# 5 0.000000 0.000000 0.000000 0.000000 0.062080 0.000000
# 6 0.000000 0.000000 0.000000 0.000000 0.000000 0.047296
#
#
# Mechanical properties :
#
#
# Convention : Reuss Voigt Hill
#
# Bulk Modulus (GPa) = 35.51229 63.72483 49.61856
# Shear Modulus (GPa) = 21.97503 27.31156 24.64330
#
# Velocity S-wave (km/s) = 3.28263 3.65958 3.47622
# Velocity P-wave (km/s) = 5.63750 7.00748 6.35949
#
# Compressibility (1/GPa) = 0.02815927
#
# Stress axis : x y z
#
# Youngs Moduli (GPa) = 104.46062 31.17124 112.81406
#
# Poissons Ratio (x) = 0.18570 0.42323
# Poissons Ratio (y) = 0.62231 0.16588
# Poissons Ratio (z) = 0.39189 0.04583
#
# Static dielectric constant tensor:
#      x y z
#    x 1.737450 0.000000 0.000000 
#    y 0.000000 1.853730 0.000000 
#    z 0.000000 0.000000 1.723830 
# 
# From -- ./inp_files/11783.got.cif
#   From: 2010.05.17/outbox.cif.g08.bks.cpg/sg46_6_cif.got.tgz:11783.got - 2010.06.03 19:58:25.
