data_PCOD9379045
_publ_section_title
;
Structure prediction by ZEFSAII (Michael W. Deem and Ramdas Pophale) SiO2 
 PCOD9379045
Probable space group: I M A 2
;
_chemical_formula_sum "Si O2"
_cell_formula_units_Z 56
_cell_length_a 13.665966
_cell_length_b 12.281263
_cell_length_c 15.612551
_cell_angle_alpha 90.000000
_cell_angle_beta 90.000000
_cell_angle_gamma 90.000000
_cell_volume 2620.337534
_symmetry_space_group_name_H-M "I M A 2"
_symmetry_group_IT_number 46
_symmetry_cell_setting 'orthorhombic'
loop_
_space_group_symop_operation_xyz
x,y,z
-x,-y,z
1/2-x,y,z
1/2+x,-y,z
1/2+x,1/2+y,1/2+z
1/2-x,1/2-y,1/2+z
-x,1/2+y,1/2+z
x,1/2-y,1/2+z
loop_
_atom_site_type_symbol
_atom_site_label
_atom_site_fract_x
_atom_site_fract_y
_atom_site_fract_z
Si Si1 0.865938 0.622275 0.442970
Si Si2 0.631806 0.606125 0.759698
Si Si3 0.450254 0.355502 0.942994
Si Si4 0.131323 0.356981 0.252919
Si Si5 0.865304 0.504190 0.094178
Si Si6 0.868411 0.035247 0.095437
Si Si7 0.365123 0.773262 0.530425
O O1 0.750000 0.603942 0.438205
O O2 0.885292 0.748425 0.461784
O O3 0.906905 0.609272 0.346716
O O4 0.900775 0.543890 0.518254
O O5 0.750000 0.599418 0.774347
O O6 0.576710 0.597786 0.850144
O O7 0.609689 0.730874 0.731663
O O8 0.605465 0.519754 0.686163
O O9 0.417217 0.442027 0.013258
O O10 0.560726 0.310394 0.955355
O O11 0.250000 0.363064 0.257169
O O12 0.098540 0.436424 0.178731
O O13 0.750000 0.527218 0.084651
O O14 0.874546 0.374202 0.095569
O O15 0.750000 0.035486 0.095881
O O16 0.896057 0.159324 0.073171
O O17 0.250000 0.765937 0.504553
#
# Coordination Sequence:
#
# PCOD9379045 Si02
#       7
#     8   8   8   8   8   8   8
#     4   9  17  32  61  96 123 152 198 262 325 376
#     4   9  17  32  61 101 128 148 196 264 329 385
#     4  11  20  34  62  92 124 155 206 266 324 367
#     4   8  15  29  55  92 121 145 188 249 319 374
#     4  10  19  35  61  87 119 159 202 259 315 372
#     4   9  18  36  61  89 128 169 205 253 316 388
#     4  10  23  40  59  84 122 175 221 248 301 388
#
# _framework density 21.371293000000001
#
# number of rings (size 3 to 8) (size 9 to 14) (size 15 to 20)
#    0.000    2.571    0.000    3.429    0.000    2.857 
#    0.000    1.429   34.571    6.857    0.000    1.000 
#    0.000    0.000    0.000    0.000    0.000    0.000 
#
# Total GULP energy -156281.120908 kJ/mol
# GULP energy per Si atom -5581.468604 kJ/mol
# Density = 2.132265 g / cm^3
# Si number density = 21.371293 Si / 1000 Ang^3
#
#
#
# Elastic Constant Matrix: (Units=GPa)
#
#
# Indices 1 2 3 4 5 6 
#
# 1 92.1370 38.8440 43.3216 0.0000 0.0000 0.0000
# 2 38.8440 164.6885 121.3711 0.0000 0.0000 0.0000
# 3 43.3216 121.3711 144.7987 0.0000 0.0000 0.0000
# 4 0.0000 0.0000 0.0000 79.9175 0.0000 0.0000
# 5 0.0000 0.0000 0.0000 0.0000 -26.2935 0.0000
# 6 0.0000 0.0000 0.0000 0.0000 0.0000 25.9403
#
#
#
# Elastic Compliance Matrix: (Units=1/GPa)
#
#
# Indices 1 2 3 4 5 6 
#
# 1 0.012646 -0.000509 -0.003357 0.000000 0.000000 0.000000
# 2 -0.000509 0.015905 -0.013179 0.000000 0.000000 0.000000
# 3 -0.003357 -0.013179 0.018958 0.000000 0.000000 0.000000
# 4 0.000000 0.000000 0.000000 0.012513 0.000000 0.000000
# 5 0.000000 0.000000 0.000000 0.000000 -0.038032 0.000000
# 6 0.000000 0.000000 0.000000 0.000000 0.000000 0.038550
#
#
# Mechanical properties :
#
#
# Convention : Reuss Voigt Hill
#
# Bulk Modulus (GPa) = 74.52492 89.85526 82.19009
# Shear Modulus (GPa) = 50.45248 29.11870 39.78559
#
# Velocity S-wave (km/s) = 4.86404 3.69523 4.31935
# Velocity P-wave (km/s) = 8.15428 7.76804 7.96350
#
# Compressibility (1/GPa) = 0.01341833
#
# Stress axis : x y z
#
# Youngs Moduli (GPa) = 79.07402 62.87368 52.74910
#
# Poissons Ratio (x) = 0.03197 0.17710
# Poissons Ratio (y) = 0.04021 0.69520
# Poissons Ratio (z) = 0.26548 0.82864
#
# Static dielectric constant tensor:
#      x y z
#    x 1.820450 0.000000 0.000000 
#    y 0.000000 1.751910 0.000000 
#    z 0.000000 0.000000 1.760050 
# 
# From -- ./inp_files/15983.got.cif
#   From: 2010.05.17/outbox.cif.g08.bks.cpg/sg46_8_cif.got.tgz:15983.got - 2010.06.03 19:58:25.
