data_PCOD9379071
_publ_section_title
;
Structure prediction by ZEFSAII (Michael W. Deem and Ramdas Pophale) SiO2 
 PCOD9379071
Probable space group: I M A 2
;
_chemical_formula_sum "Si O2"
_cell_formula_units_Z 64
_cell_length_a 16.459729
_cell_length_b 9.188092
_cell_length_c 22.532709
_cell_angle_alpha 90.000000
_cell_angle_beta 90.000000
_cell_angle_gamma 90.000000
_cell_volume 3407.700545
_symmetry_space_group_name_H-M "I M A 2"
_symmetry_group_IT_number 46
_symmetry_cell_setting 'orthorhombic'
loop_
_space_group_symop_operation_xyz
x,y,z
-x,-y,z
1/2-x,y,z
1/2+x,-y,z
1/2+x,1/2+y,1/2+z
1/2-x,1/2-y,1/2+z
-x,1/2+y,1/2+z
x,1/2-y,1/2+z
loop_
_atom_site_type_symbol
_atom_site_label
_atom_site_fract_x
_atom_site_fract_y
_atom_site_fract_z
Si Si1 0.845812 0.994363 0.656900
Si Si2 0.946459 0.146763 0.327381
Si Si3 0.845132 0.504529 0.727999
Si Si4 0.072692 0.802933 0.144301
Si Si5 0.346257 0.664986 0.948460
Si Si6 0.585947 0.581821 0.031626
Si Si7 0.558853 0.792503 0.741119
Si Si8 0.519667 0.339939 0.511487
O O1 0.750000 0.977599 0.667806
O O2 0.870814 0.910158 0.595836
O O3 0.898402 0.935149 0.713167
O O4 0.868147 0.162691 0.643931
O O5 0.883059 0.105557 0.275878
O O6 0.894734 0.168001 0.386448
O O7 0.005659 0.274741 0.301784
O O8 0.000000 0.000000 0.335155
O O9 0.750000 0.494860 0.726972
O O10 0.882254 0.447048 0.666629
O O11 0.873673 0.666176 0.743868
O O12 0.032593 0.831976 0.081736
O O13 0.003045 0.760627 0.190553
O O14 0.250000 0.686676 0.942169
O O15 0.363479 0.516498 0.985624
O O16 0.395090 0.785131 0.985616
O O17 0.500000 0.500000 0.043611
O O18 0.555393 0.729802 0.000902
O O19 0.500000 0.500000 0.490440
#
# Coordination Sequence:
#
# PCOD9379071 Si02
#       8
#     8   8   8   8   8   8   8   8
#     4  12  21  33  54  87 121 152 194 251 306 358
#     4   9  19  37  62  84 113 160 208 246 301 367
#     4  10  20  34  54  85 116 148 193 246 298 346
#     4  11  20  35  55  78 116 162 196 232 293 378
#     4  11  22  39  64  92 118 154 212 271 313 359
#     4  10  19  36  59  84 119 160 202 243 300 376
#     4  10  20  36  56  81 114 154 195 241 293 370
#     4  11  22  38  59  85 123 166 207 244 308 386
#
# _framework density 18.780992000000001
#
# number of rings (size 3 to 8) (size 9 to 14) (size 15 to 20)
#    0.000    1.500    3.750    4.875    0.000    0.500 
#    0.000    3.750    0.000    0.000    0.000    1.750 
#    0.000    0.000    0.000    0.000    0.000    0.000 
#
# Total GULP energy -178449.821593 kJ/mol
# GULP energy per Si atom -5576.556925 kJ/mol
# Density = 1.873825 g / cm^3
# Si number density = 18.780992 Si / 1000 Ang^3
#
#
#
# Elastic Constant Matrix: (Units=GPa)
#
#
# Indices 1 2 3 4 5 6 
#
# 1 111.4542 17.4925 25.3384 0.0000 0.0000 0.0000
# 2 17.4925 70.1900 5.1936 0.0000 0.0000 0.0000
# 3 25.3384 5.1936 65.5559 0.0000 0.0000 0.0000
# 4 0.0000 0.0000 0.0000 12.0976 0.0000 0.0000
# 5 0.0000 0.0000 0.0000 0.0000 26.6188 0.0000
# 6 0.0000 0.0000 0.0000 0.0000 0.0000 18.7958
#
#
#
# Elastic Compliance Matrix: (Units=1/GPa)
#
#
# Indices 1 2 3 4 5 6 
#
# 1 0.010181 -0.002259 -0.003756 0.000000 0.000000 0.000000
# 2 -0.002259 0.014832 -0.000302 0.000000 0.000000 0.000000
# 3 -0.003756 -0.000302 0.016730 0.000000 0.000000 0.000000
# 4 0.000000 0.000000 0.000000 0.082661 0.000000 0.000000
# 5 0.000000 0.000000 0.000000 0.000000 0.037567 0.000000
# 6 0.000000 0.000000 0.000000 0.000000 0.000000 0.053203
#
#
# Mechanical properties :
#
#
# Convention : Reuss Voigt Hill
#
# Bulk Modulus (GPa) = 34.35397 38.13880 36.24638
# Shear Modulus (GPa) = 21.05153 24.78081 22.91617
#
# Velocity S-wave (km/s) = 3.35161 3.63638 3.49690
# Velocity P-wave (km/s) = 5.77142 6.16297 5.97041
#
# Compressibility (1/GPa) = 0.02910872
#
# Stress axis : x y z
#
# Youngs Moduli (GPa) = 98.22402 67.41985 59.77338
#
# Poissons Ratio (x) = 0.15232 0.22451
# Poissons Ratio (y) = 0.22192 0.01804
# Poissons Ratio (z) = 0.36894 0.02035
#
# Static dielectric constant tensor:
#      x y z
#    x 1.630930 0.000000 0.000000 
#    y 0.000000 1.724740 0.000000 
#    z 0.000000 0.000000 1.694620 
# 
# From -- ./inp_files/23669.got.cif
#   From: 2010.05.17/outbox.cif.g08.bks.cpg/sg46_12_cif.got.tgz:23669.got - 2010.06.03 19:58:25.
