data_PCOD9379682
_publ_section_title
;
Structure prediction by ZEFSAII (Michael W. Deem and Ramdas Pophale) SiO2 
 PCOD9379682
Probable space group: I M A 2
;
_chemical_formula_sum "Si O2"
_cell_formula_units_Z 64
_cell_length_a 8.544224
_cell_length_b 14.457416
_cell_length_c 25.004791
_cell_angle_alpha 90.000000
_cell_angle_beta 90.000000
_cell_angle_gamma 90.000000
_cell_volume 3088.776839
_symmetry_space_group_name_H-M "I M A 2"
_symmetry_group_IT_number 46
_symmetry_cell_setting 'orthorhombic'
loop_
_space_group_symop_operation_xyz
x,y,z
-x,-y,z
1/2-x,y,z
1/2+x,-y,z
1/2+x,1/2+y,1/2+z
1/2-x,1/2-y,1/2+z
-x,1/2+y,1/2+z
x,1/2-y,1/2+z
loop_
_atom_site_type_symbol
_atom_site_label
_atom_site_fract_x
_atom_site_fract_y
_atom_site_fract_z
Si Si1 0.938350 0.394785 0.285440
Si Si2 0.935731 0.603986 0.054792
Si Si3 0.561851 0.394207 0.168131
Si Si4 0.938616 0.605272 0.599006
Si Si5 0.935347 0.276982 0.500416
Si Si6 0.937406 0.784437 0.887293
Si Si7 0.561283 0.603305 0.832451
Si Si8 0.438946 0.394547 0.714894
O O1 0.750000 0.394811 0.288095
O O2 0.983389 0.354817 0.226465
O O3 0.000000 0.500000 0.287185
O O4 0.007691 0.342092 0.336023
O O5 0.750000 0.600765 0.054103
O O6 0.000000 0.500000 0.048412
O O7 0.990622 0.642116 0.112930
O O8 0.997088 0.674488 0.010529
O O9 0.500000 0.500000 0.169692
O O10 0.750000 0.393631 0.163787
O O11 0.750000 0.605480 0.597239
O O12 0.989909 0.644884 0.657470
O O13 0.000000 0.500000 0.596074
O O14 0.002973 0.661356 0.549182
O O15 0.750000 0.273655 0.501901
O O16 0.992027 0.315075 0.443475
O O17 0.750000 0.788006 0.890381
O O18 0.988263 0.678676 0.875535
O O19 0.500000 0.500000 0.840871
O O20 0.750000 0.599519 0.832381
O O21 0.509555 0.639327 0.773357
O O22 0.500000 0.500000 0.714237
O O23 0.250000 0.393637 0.714852
#
# Coordination Sequence:
#
# PCOD9379682 Si02
#       8
#     8   8   8   8   8   8   8   8
#     4  10  21  38  61  89 120 155 193 237 291 348
#     4  11  22  39  63  90 120 154 193 239 294 352
#     4   9  17  32  56  88 122 153 189 232 285 349
#     4  10  20  37  61  89 120 153 190 234 287 346
#     4  12  26  43  60  82 114 153 201 250 295 348
#     4  11  24  41  59  83 115 152 199 247 290 343
#     4   9  19  36  59  86 116 149 184 226 278 334
#     4   8  15  30  54  85 117 147 180 221 274 336
#
# _framework density 20.720175999999999
#
# number of rings (size 3 to 8) (size 9 to 14) (size 15 to 20)
#    0.000    2.000    0.000    4.500    0.000    5.000 
#    0.000    5.000    0.000    0.000    0.000    0.000 
#    0.000    0.000    0.000    0.000    0.000    0.000 
#
# Total GULP energy -178680.920971 kJ/mol
# GULP energy per Si atom -5583.778780 kJ/mol
# Density = 2.067302 g / cm^3
# Si number density = 20.720176 Si / 1000 Ang^3
#
#
#
# Elastic Constant Matrix: (Units=GPa)
#
#
# Indices 1 2 3 4 5 6 
#
# 1 86.7290 1.5853 26.1253 0.0000 0.0000 0.0000
# 2 1.5853 41.5281 7.5388 0.0000 0.0000 0.0000
# 3 26.1253 7.5388 104.0327 0.0000 0.0000 0.0000
# 4 0.0000 0.0000 0.0000 17.7348 0.0000 0.0000
# 5 0.0000 0.0000 0.0000 0.0000 25.1710 0.0000
# 6 0.0000 0.0000 0.0000 0.0000 0.0000 25.4652
#
#
#
# Elastic Compliance Matrix: (Units=1/GPa)
#
#
# Indices 1 2 3 4 5 6 
#
# 1 0.012474 0.000094 -0.003139 0.000000 0.000000 0.000000
# 2 0.000094 0.024402 -0.001792 0.000000 0.000000 0.000000
# 3 -0.003139 -0.001792 0.010531 0.000000 0.000000 0.000000
# 4 0.000000 0.000000 0.000000 0.056386 0.000000 0.000000
# 5 0.000000 0.000000 0.000000 0.000000 0.039728 0.000000
# 6 0.000000 0.000000 0.000000 0.000000 0.000000 0.039269
#
#
# Mechanical properties :
#
#
# Convention : Reuss Voigt Hill
#
# Bulk Modulus (GPa) = 26.50300 33.64315 30.07308
# Shear Modulus (GPa) = 24.38520 26.81024 25.59772
#
# Velocity S-wave (km/s) = 3.43429 3.60101 3.51864
# Velocity P-wave (km/s) = 5.34271 5.79326 5.57254
#
# Compressibility (1/GPa) = 0.03773158
#
# Stress axis : x y z
#
# Youngs Moduli (GPa) = 80.16593 40.98059 94.96150
#
# Poissons Ratio (x) = -0.00384 0.29812
# Poissons Ratio (y) = -0.00751 0.17015
# Poissons Ratio (z) = 0.25167 0.07343
#
# Static dielectric constant tensor:
#      x y z
#    x 1.699010 0.000000 0.000000 
#    y 0.000000 1.762830 0.000000 
#    z 0.000000 0.000000 1.765400 
# 
# From -- ./inp_files/23200.got.cif
#   From: 2010.05.17/outbox.cif.g08.bks.cpg/sg46_12_cif.got.tgz:23200.got - 2010.06.03 19:58:25.
