data_PCOD9379411
_publ_section_title
;
Structure prediction by ZEFSAII (Michael W. Deem and Ramdas Pophale) SiO2 
 PCOD9379411
Probable space group: I M A 2
;
_chemical_formula_sum "Si O2"
_cell_formula_units_Z 52
_cell_length_a 13.982808
_cell_length_b 6.845546
_cell_length_c 19.011980
_cell_angle_alpha 90.000000
_cell_angle_beta 90.000000
_cell_angle_gamma 90.000000
_cell_volume 1819.825877
_symmetry_space_group_name_H-M "I M A 2"
_symmetry_group_IT_number 46
_symmetry_cell_setting 'orthorhombic'
loop_
_space_group_symop_operation_xyz
x,y,z
-x,-y,z
1/2-x,y,z
1/2+x,-y,z
1/2+x,1/2+y,1/2+z
1/2-x,1/2-y,1/2+z
-x,1/2+y,1/2+z
x,1/2-y,1/2+z
loop_
_atom_site_type_symbol
_atom_site_label
_atom_site_fract_x
_atom_site_fract_y
_atom_site_fract_z
Si Si1 0.614969 0.006806 0.739370
Si Si2 0.386112 0.052139 0.204882
Si Si3 0.885733 0.524474 0.394010
Si Si4 0.386112 0.447862 0.548795
Si Si5 0.750000 0.301514 0.126839
Si Si6 0.385031 0.993195 0.514308
Si Si7 0.885733 0.524474 0.859667
O O1 0.635885 0.784169 0.714514
O O2 0.641708 0.065541 0.819408
O O3 0.666711 0.151945 0.566016
O O4 0.500000 0.000000 0.736013
O O5 0.345611 0.999636 0.126839
O O6 0.333290 0.651946 0.187662
O O7 0.352585 0.978240 0.281304
O O8 0.500000 0.000000 0.201730
O O9 0.852586 0.478238 0.472373
O O10 0.864723 0.750000 0.376839
O O11 0.000000 0.500000 0.397900
O O12 0.500000 0.500000 0.551946
O O13 0.364114 0.215832 0.539162
O O14 0.358294 0.934460 0.434270
O O15 0.500000 0.000000 0.517668
O O16 0.000000 0.500000 0.855776
#
# Coordination Sequence:
#
# PCOD9379411 Si02
#       7
#     8   8   8   8   4   8   8
#     4  10  20  35  54  75 106 137 176 216 259 304
#     4   9  16  29  53  79 103 131 173 207 256 309
#     4   8  15  28  47  74  99 132 167 207 251 306
#     4   9  16  29  53  79 103 131 173 207 256 309
#     4  12  22  32  52  80 106 136 174 222 258 306
#     4  10  20  35  54  75 106 137 176 216 259 304
#     4   8  15  28  47  74  99 132 167 207 251 306
#
# _framework density 28.574161
#
# number of rings (size 3 to 8) (size 9 to 14) (size 15 to 20)
#    0.000    2.769    1.538    0.462    0.000    0.000 
#    0.000    6.923    0.000    3.692    0.000   96.923 
#    0.000    0.000    0.000    0.000    0.000    0.000 
#
# Total GULP energy -144889.432487 kJ/mol
# GULP energy per Si atom -5572.670480 kJ/mol
# Density = 2.850912 g / cm^3
# Si number density = 28.574161 Si / 1000 Ang^3
#
#
#
# Elastic Constant Matrix: (Units=GPa)
#
#
# Indices 1 2 3 4 5 6 
#
# 1 197.3017 -36.5452 32.3671 0.0000 0.0000 0.0000
# 2 -36.5452 133.9584 65.0475 0.0000 0.0000 0.0000
# 3 32.3671 65.0475 435.9054 0.0000 0.0000 0.0000
# 4 0.0000 0.0000 0.0000 58.8374 0.0000 0.0000
# 5 0.0000 0.0000 0.0000 0.0000 78.5377 0.0000
# 6 0.0000 0.0000 0.0000 0.0000 0.0000 -274.0496
#
#
#
# Elastic Compliance Matrix: (Units=1/GPa)
#
#
# Indices 1 2 3 4 5 6 
#
# 1 0.005521 0.001839 -0.000684 0.000000 0.000000 0.000000
# 2 0.001839 0.008660 -0.001429 0.000000 0.000000 0.000000
# 3 -0.000684 -0.001429 0.002558 0.000000 0.000000 0.000000
# 4 0.000000 0.000000 0.000000 0.016996 0.000000 0.000000
# 5 0.000000 0.000000 0.000000 0.000000 0.012733 0.000000
# 6 0.000000 0.000000 0.000000 0.000000 0.000000 -0.003649
#
#
# Mechanical properties :
#
#
# Convention : Reuss Voigt Hill
#
# Bulk Modulus (GPa) = 61.76502 98.76715 80.26609
# Shear Modulus (GPa) = 102.53148 19.75152 61.14150
#
# Velocity S-wave (km/s) = 5.99671 2.63199 4.63076
# Velocity P-wave (km/s) = 8.34326 6.62395 7.53282
#
# Compressibility (1/GPa) = 0.01619039
#
# Stress axis : x y z
#
# Youngs Moduli (GPa) = 181.12071 115.46818 390.91408
#
# Poissons Ratio (x) = -0.21229 0.26751
# Poissons Ratio (y) = -0.33299 0.55856
# Poissons Ratio (z) = 0.12394 0.16499
#
# Static dielectric constant tensor:
#      x y z
#    x 2.121890 0.000000 0.000000 
#    y 0.000000 2.400640 0.000000 
#    z 0.000000 0.000000 2.145210 
# 
# From -- ./inp_files/19556.got.cif
#   From: 2010.05.17/outbox.cif.g08.bks.cpg/sg46_10_cif.got.tgz:19556.got - 2010.06.03 19:58:25.
