data_PCOD9379625
_publ_section_title
;
Structure prediction by ZEFSAII (Michael W. Deem and Ramdas Pophale) SiO2 
 PCOD9379625
Probable space group: I M A 2
;
_chemical_formula_sum "Si O2"
_cell_formula_units_Z 48
_cell_length_a 7.596892
_cell_length_b 27.934272
_cell_length_c 9.826139
_cell_angle_alpha 90.000000
_cell_angle_beta 90.000000
_cell_angle_gamma 90.000000
_cell_volume 2085.240798
_symmetry_space_group_name_H-M "I M A 2"
_symmetry_group_IT_number 46
_symmetry_cell_setting 'orthorhombic'
loop_
_space_group_symop_operation_xyz
x,y,z
-x,-y,z
1/2-x,y,z
1/2+x,-y,z
1/2+x,1/2+y,1/2+z
1/2-x,1/2-y,1/2+z
-x,1/2+y,1/2+z
x,1/2-y,1/2+z
loop_
_atom_site_type_symbol
_atom_site_label
_atom_site_fract_x
_atom_site_fract_y
_atom_site_fract_z
Si Si1 0.464378 0.194210 0.921930
Si Si2 0.461525 0.053847 0.250745
Si Si3 0.448084 0.130206 0.462313
Si Si4 0.963320 0.916039 0.955039
Si Si5 0.965877 0.722307 0.118118
Si Si6 0.050607 0.553117 0.161359
O O1 0.250000 0.194517 0.920640
O O2 0.518301 0.139428 0.943512
O O3 0.521952 0.213644 0.773765
O O4 0.519103 0.228579 0.045468
O O5 0.250000 0.058256 0.252541
O O6 0.529995 0.096988 0.345302
O O7 0.500000 0.000000 0.297676
O O8 0.523605 0.061261 0.096561
O O9 0.250000 0.143187 0.415875
O O10 0.527703 0.178769 0.521082
O O11 0.438628 0.094146 0.590214
O O12 0.750000 0.917744 0.951616
O O13 0.031389 0.942949 0.822818
O O14 0.750000 0.720709 0.120182
O O15 0.250000 0.562816 0.121602
O O16 0.000000 0.500000 0.118125
#
# Coordination Sequence:
#
# PCOD9379625 Si02
#       6
#     8   8   8   8   8   8
#     4   9  17  29  51  83 115 145 182 230 281 331
#     4  10  22  36  55  80 112 148 187 230 281 338
#     4  10  20  37  57  84 118 150 186 236 286 337
#     4  10  20  37  57  84 118 150 186 236 286 337
#     4   9  17  29  51  83 115 145 182 230 281 331
#     4  12  24  38  59  84 110 148 193 238 289 346
#
# _framework density 23.018923999999998
#
# number of rings (size 3 to 8) (size 9 to 14) (size 15 to 20)
#    0.000    2.000    1.667    2.500    2.333    4.000 
#    0.000    0.000    0.000    1.000    0.000    0.000 
#    0.000    0.000    0.000    0.000    0.000    0.000 
#
# Total GULP energy -134149.377277 kJ/mol
# GULP energy per Si atom -5589.557387 kJ/mol
# Density = 2.296653 g / cm^3
# Si number density = 23.018924 Si / 1000 Ang^3
#
#
#
# Elastic Constant Matrix: (Units=GPa)
#
#
# Indices 1 2 3 4 5 6 
#
# 1 63.3092 -2.8243 -3.3359 0.0003 0.0000 0.0000
# 2 -2.8243 97.4412 5.5376 0.0007 0.0002 0.0001
# 3 -3.3359 5.5376 96.6069 0.0018 0.0002 0.0003
# 4 0.0003 0.0007 0.0018 42.1059 0.0001 0.0001
# 5 0.0000 0.0002 0.0002 0.0001 6.1060 0.0001
# 6 0.0000 0.0001 0.0003 0.0001 0.0001 7.5850
#
#
#
# Elastic Compliance Matrix: (Units=1/GPa)
#
#
# Indices 1 2 3 4 5 6 
#
# 1 0.015842 0.000429 0.000522 0.000000 0.000000 0.000000
# 2 0.000429 0.010308 -0.000576 0.000000 0.000000 0.000000
# 3 0.000522 -0.000576 0.010402 0.000000 0.000000 0.000000
# 4 0.000000 0.000000 0.000000 0.023750 0.000000 0.000000
# 5 0.000000 0.000000 0.000000 0.000000 0.163772 -0.000001
# 6 0.000000 0.000000 0.000000 0.000000 -0.000001 0.131839
#
#
# Mechanical properties :
#
#
# Convention : Reuss Voigt Hill
#
# Bulk Modulus (GPa) = 26.80678 28.45692 27.63185
# Shear Modulus (GPa) = 13.60189 28.35804 20.97996
#
# Velocity S-wave (km/s) = 2.43348 3.51371 3.02225
# Velocity P-wave (km/s) = 4.42341 5.37130 4.92023
#
# Compressibility (1/GPa) = 0.03730400
#
# Stress axis : x y z
#
# Youngs Moduli (GPa) = 63.12267 97.01404 96.13272
#
# Poissons Ratio (x) = -0.04167 -0.05022
# Poissons Ratio (y) = -0.02711 0.05537
# Poissons Ratio (z) = -0.03298 0.05588
#
# Static dielectric constant tensor:
#      x y z
#    x 1.922270 0.000000 0.000000 
#    y 0.000000 1.793150 0.000000 
#    z 0.000000 0.000000 1.842860 
# 
# From -- ./inp_files/3895.got.cif
#   From: 2010.05.17/outbox.cif.g08.bks.cpg/sg46_2_cif.got.tgz:3895.got - 2010.06.03 19:58:25.
