data_PCOD9379612
_publ_section_title
;
Structure prediction by ZEFSAII (Michael W. Deem and Ramdas Pophale) SiO2 
 PCOD9379612
Probable space group: I M A 2
;
_chemical_formula_sum "Si O2"
_cell_formula_units_Z 64
_cell_length_a 14.671636
_cell_length_b 9.203263
_cell_length_c 21.642899
_cell_angle_alpha 90.000000
_cell_angle_beta 90.000000
_cell_angle_gamma 90.000000
_cell_volume 2922.374095
_symmetry_space_group_name_H-M "I M A 2"
_symmetry_group_IT_number 46
_symmetry_cell_setting 'orthorhombic'
loop_
_space_group_symop_operation_xyz
x,y,z
-x,-y,z
1/2-x,y,z
1/2+x,-y,z
1/2+x,1/2+y,1/2+z
1/2-x,1/2-y,1/2+z
-x,1/2+y,1/2+z
x,1/2-y,1/2+z
loop_
_atom_site_type_symbol
_atom_site_label
_atom_site_fract_x
_atom_site_fract_y
_atom_site_fract_z
Si Si1 0.352085 0.337840 0.283800
Si Si2 0.519234 0.656292 0.536572
Si Si3 0.642093 0.563961 0.418769
Si Si4 0.856065 0.143158 0.491273
Si Si5 0.356895 0.752430 0.360296
Si Si6 0.524922 0.335068 0.741457
Si Si7 0.350510 0.385360 0.078247
Si Si8 0.400076 0.931433 0.692103
O O1 0.250000 0.286241 0.271023
O O2 0.367765 0.339471 0.357097
O O3 0.428581 0.245735 0.250354
O O4 0.360384 0.501333 0.255631
O O5 0.500000 0.500000 0.565134
O O6 0.580442 0.619549 0.475155
O O7 0.427396 0.741035 0.518097
O O8 0.576269 0.759473 0.581537
O O9 0.750000 0.560550 0.435719
O O10 0.617971 0.402852 0.392445
O O11 0.750000 0.181570 0.505586
O O12 0.864253 0.138390 0.417835
O O13 0.874762 0.986371 0.520226
O O14 0.250000 0.743022 0.341880
O O15 0.420417 0.808087 0.305563
O O16 0.500000 0.500000 0.728339
O O17 0.586478 0.240783 0.694090
O O18 0.250000 0.322648 0.070245
O O19 0.349421 0.496524 0.135197
O O20 0.500000 0.000000 0.687308
#
# Coordination Sequence:
#
# PCOD9379612 Si02
#       8
#     8   8   8   8   8   8   8   8
#     4  10  21  38  64  94 130 178 225 270 323 398
#     4  12  23  37  65  95 133 171 219 283 343 399
#     4  10  20  36  62  97 135 176 223 269 333 406
#     4  10  22  39  59  89 134 182 225 272 331 408
#     4  10  20  37  62  95 137 178 222 272 335 406
#     4  11  24  39  64 101 136 172 217 282 342 401
#     4  11  25  45  67  94 128 176 231 277 334 406
#     4  10  21  42  69  90 123 169 223 269 326 398
#
# _framework density 21.900001
#
# number of rings (size 3 to 8) (size 9 to 14) (size 15 to 20)
#    0.000    1.500    2.500    2.625    0.000    3.500 
#    0.000    8.125    0.000    1.500    0.000    0.000 
#    0.000    0.000    0.000    0.000    0.000    0.000 
#
# Total GULP energy -178821.861015 kJ/mol
# GULP energy per Si atom -5588.183157 kJ/mol
# Density = 2.185016 g / cm^3
# Si number density = 21.900001 Si / 1000 Ang^3
#
#
#
# Elastic Constant Matrix: (Units=GPa)
#
#
# Indices 1 2 3 4 5 6 
#
# 1 99.0507 49.8413 17.5668 0.0000 0.0000 0.0000
# 2 49.8413 129.8395 33.4041 0.0000 0.0000 0.0000
# 3 17.5668 33.4041 58.5234 0.0000 0.0000 0.0000
# 4 0.0000 0.0000 0.0000 26.5468 0.0000 0.0000
# 5 0.0000 0.0000 0.0000 0.0000 16.6352 0.0000
# 6 0.0000 0.0000 0.0000 0.0000 0.0000 28.8157
#
#
#
# Elastic Compliance Matrix: (Units=1/GPa)
#
#
# Indices 1 2 3 4 5 6 
#
# 1 0.012584 -0.004523 -0.001196 0.000000 0.000000 0.000000
# 2 -0.004523 0.010653 -0.004723 0.000000 0.000000 0.000000
# 3 -0.001196 -0.004723 0.020142 0.000000 0.000000 0.000000
# 4 0.000000 0.000000 0.000000 0.037669 0.000000 0.000000
# 5 0.000000 0.000000 0.000000 0.000000 0.060113 0.000000
# 6 0.000000 0.000000 0.000000 0.000000 0.000000 0.034703
#
#
# Mechanical properties :
#
#
# Convention : Reuss Voigt Hill
#
# Bulk Modulus (GPa) = 44.45291 54.33752 49.39522
# Shear Modulus (GPa) = 24.48024 26.83964 25.65994
#
# Velocity S-wave (km/s) = 3.34701 3.50459 3.42670
# Velocity P-wave (km/s) = 5.93960 6.42197 6.18549
#
# Compressibility (1/GPa) = 0.02249571
#
# Stress axis : x y z
#
# Youngs Moduli (GPa) = 79.46747 93.86931 49.64781
#
# Poissons Ratio (x) = 0.42456 0.05936
# Poissons Ratio (y) = 0.35942 0.23449
# Poissons Ratio (z) = 0.09501 0.44334
#
# Static dielectric constant tensor:
#      x y z
#    x 1.800800 0.000000 0.000000 
#    y 0.000000 1.820350 0.000000 
#    z 0.000000 0.000000 1.848820 
# 
# From -- ./inp_files/23676.got.cif
#   From: 2010.05.17/outbox.cif.g08.bks.cpg/sg46_12_cif.got.tgz:23676.got - 2010.06.03 19:58:25.
