data_PCOD9379076
_publ_section_title
;
Structure prediction by ZEFSAII (Michael W. Deem and Ramdas Pophale) SiO2 
 PCOD9379076
Probable space group: I M A 2
;
_chemical_formula_sum "Si O2"
_cell_formula_units_Z 64
_cell_length_a 14.100065
_cell_length_b 12.253338
_cell_length_c 19.625644
_cell_angle_alpha 90.000000
_cell_angle_beta 90.000000
_cell_angle_gamma 90.000000
_cell_volume 3390.778688
_symmetry_space_group_name_H-M "I M A 2"
_symmetry_group_IT_number 46
_symmetry_cell_setting 'orthorhombic'
loop_
_space_group_symop_operation_xyz
x,y,z
-x,-y,z
1/2-x,y,z
1/2+x,-y,z
1/2+x,1/2+y,1/2+z
1/2-x,1/2-y,1/2+z
-x,1/2+y,1/2+z
x,1/2-y,1/2+z
loop_
_atom_site_type_symbol
_atom_site_label
_atom_site_fract_x
_atom_site_fract_y
_atom_site_fract_z
Si Si1 0.355147 0.687365 0.806040
Si Si2 0.863615 0.063265 0.560767
Si Si3 0.359070 0.265350 0.652053
Si Si4 0.950421 0.671215 0.024600
Si Si5 0.635888 0.606764 0.278253
Si Si6 0.136040 0.884949 0.715851
Si Si7 0.603041 0.546375 0.756530
Si Si8 0.449738 0.282348 0.871249
O O1 0.250000 0.722908 0.828754
O O2 0.389959 0.767338 0.745149
O O3 0.347178 0.564968 0.778266
O O4 0.437865 0.697250 0.861238
O O5 0.750000 0.079536 0.551417
O O6 0.891558 0.085914 0.639469
O O7 0.937740 0.141214 0.522105
O O8 0.893267 0.940185 0.541928
O O9 0.250000 0.246318 0.631014
O O10 0.424705 0.253167 0.585996
O O11 0.384094 0.172185 0.707815
O O12 0.363443 0.378384 0.694298
O O13 0.921829 0.709336 0.949542
O O14 0.750000 0.613979 0.288658
O O15 0.607933 0.481929 0.266355
O O16 0.582463 0.668884 0.338052
O O17 0.250000 0.886807 0.713829
O O18 0.500000 0.500000 0.738837
O O19 0.597376 0.624814 0.822844
#
# Coordination Sequence:
#
# PCOD9379076 Si02
#       8
#     8   8   8   8   8   8   8   8
#     4  10  21  36  59  84 116 153 192 239 286 343
#     4  10  22  36  56  87 122 151 188 241 300 357
#     4  10  19  36  60  86 114 149 192 240 291 342
#     4  11  23  35  58  87 120 157 193 238 297 351
#     4   9  18  35  59  86 114 143 186 243 290 334
#     4   9  18  35  60  90 111 140 192 241 291 345
#     4   9  20  36  59  83 116 149 195 240 284 344
#     4  10  23  37  53  88 117 149 196 232 288 349
#
# _framework density 18.87472
#
# number of rings (size 3 to 8) (size 9 to 14) (size 15 to 20)
#    0.000    2.250    1.250    0.750   10.500    2.500 
#    0.000    0.000    2.750    0.000    0.000    0.000 
#    0.000    0.000    0.000    0.000    0.000    0.000 
#
# Total GULP energy -178464.620720 kJ/mol
# GULP energy per Si atom -5577.019398 kJ/mol
# Density = 1.883176 g / cm^3
# Si number density = 18.874720 Si / 1000 Ang^3
#
#
#
# Elastic Constant Matrix: (Units=GPa)
#
#
# Indices 1 2 3 4 5 6 
#
# 1 82.0261 -1.4726 24.0783 0.0000 0.0000 0.0000
# 2 -1.4726 58.7602 36.8155 0.0000 0.0000 0.0000
# 3 24.0783 36.8155 125.2693 0.0000 0.0000 0.0000
# 4 0.0000 0.0000 0.0000 14.2717 0.0000 0.0000
# 5 0.0000 0.0000 0.0000 0.0000 9.7351 0.0000
# 6 0.0000 0.0000 0.0000 0.0000 0.0000 38.0018
#
#
#
# Elastic Compliance Matrix: (Units=1/GPa)
#
#
# Indices 1 2 3 4 5 6 
#
# 1 0.013180 0.002350 -0.003224 0.000000 0.000000 0.000000
# 2 0.002350 0.021278 -0.006705 0.000000 0.000000 0.000000
# 3 -0.003224 -0.006705 0.010573 0.000000 0.000000 0.000000
# 4 0.000000 0.000000 0.000000 0.070069 0.000000 0.000000
# 5 0.000000 0.000000 0.000000 0.000000 0.102721 0.000000
# 6 0.000000 0.000000 0.000000 0.000000 0.000000 0.026315
#
#
# Mechanical properties :
#
#
# Convention : Reuss Voigt Hill
#
# Bulk Modulus (GPa) = 33.47479 42.76646 38.12062
# Shear Modulus (GPa) = 18.57005 26.17736 22.37370
#
# Velocity S-wave (km/s) = 3.14005 3.72815 3.44667
# Velocity P-wave (km/s) = 5.56061 6.42179 6.00665
#
# Compressibility (1/GPa) = 0.02987323
#
# Stress axis : x y z
#
# Youngs Moduli (GPa) = 75.87340 46.99624 94.57949
#
# Poissons Ratio (x) = -0.11045 0.30493
# Poissons Ratio (y) = -0.17832 0.63418
# Poissons Ratio (z) = 0.24462 0.31512
#
# Static dielectric constant tensor:
#      x y z
#    x 1.805190 0.000000 0.000000 
#    y 0.000000 1.661170 0.000000 
#    z 0.000000 0.000000 1.632630 
# 
# From -- ./inp_files/19620.got.cif
#   From: 2010.05.17/outbox.cif.g08.bks.cpg/sg46_10_cif.got.tgz:19620.got - 2010.06.03 19:58:25.
