data_PCOD9379947
_publ_section_title
;
Structure prediction by ZEFSAII (Michael W. Deem and Ramdas Pophale) SiO2 
 PCOD9379947
Probable space group: I M A 2
;
_chemical_formula_sum "Si O2"
_cell_formula_units_Z 64
_cell_length_a 17.296808
_cell_length_b 8.758657
_cell_length_c 23.885506
_cell_angle_alpha 90.000000
_cell_angle_beta 90.000000
_cell_angle_gamma 90.000000
_cell_volume 3618.577928
_symmetry_space_group_name_H-M "I M A 2"
_symmetry_group_IT_number 46
_symmetry_cell_setting 'orthorhombic'
loop_
_space_group_symop_operation_xyz
x,y,z
-x,-y,z
1/2-x,y,z
1/2+x,-y,z
1/2+x,1/2+y,1/2+z
1/2-x,1/2-y,1/2+z
-x,1/2+y,1/2+z
x,1/2-y,1/2+z
loop_
_atom_site_type_symbol
_atom_site_label
_atom_site_fract_x
_atom_site_fract_y
_atom_site_fract_z
Si Si1 0.659582 0.151056 0.682880
Si Si2 0.486762 0.820033 0.505569
Si Si3 0.072055 0.890100 0.789986
Si Si4 0.516069 0.678896 0.875924
Si Si5 0.839948 0.814006 0.815726
Si Si6 0.159981 0.211551 0.685260
Si Si7 0.573441 0.604640 0.591805
Si Si8 0.159695 0.689286 0.563863
O O1 0.750000 0.173231 0.697593
O O2 0.605834 0.191914 0.735277
O O3 0.644469 0.240922 0.625854
O O4 0.648059 0.969164 0.674457
O O5 0.503228 0.782784 0.440918
O O6 0.543084 0.724099 0.545848
O O7 0.399731 0.772301 0.522353
O O8 0.500000 0.000000 0.514036
O O9 0.040928 0.776032 0.836587
O O10 0.136021 0.007232 0.813944
O O11 0.000000 0.000000 0.773720
O O12 0.500000 0.500000 0.868584
O O13 0.601874 0.725456 0.856023
O O14 0.750000 0.795817 0.829298
O O15 0.852765 0.761334 0.751270
O O16 0.250000 0.245446 0.673251
O O17 0.106403 0.309271 0.645367
O O18 0.500000 0.500000 0.606775
O O19 0.636841 0.488526 0.566946
O O20 0.250000 0.711790 0.550934
#
# Coordination Sequence:
#
# PCOD9379947 Si02
#       8
#     8   8   8   8   8   8   8   8
#     4   9  18  33  53  79 110 141 174 212 258 318
#     4  10  22  41  58  74 103 144 187 225 263 316
#     4   9  18  32  55  80 107 142 179 216 259 314
#     4  10  22  39  56  78 107 140 181 227 271 314
#     4   9  19  36  57  81 110 143 179 217 261 317
#     4   9  17  32  53  78 109 143 177 212 257 318
#     4  10  21  33  52  80 109 139 175 220 270 316
#     4  10  21  36  55  82 113 140 173 221 273 319
#
# _framework density 17.686506000000001
#
# number of rings (size 3 to 8) (size 9 to 14) (size 15 to 20)
#    0.000    2.500    0.000    2.250    0.000   12.500 
#    0.000    9.375    0.000    0.000    0.000    0.000 
#    0.000    0.000    0.000    0.000    0.000    0.000 
#
# Total GULP energy -178563.977908 kJ/mol
# GULP energy per Si atom -5580.124310 kJ/mol
# Density = 1.764625 g / cm^3
# Si number density = 17.686506 Si / 1000 Ang^3
#
#
#
# Elastic Constant Matrix: (Units=GPa)
#
#
# Indices 1 2 3 4 5 6 
#
# 1 114.9158 61.8839 97.5977 0.0000 0.0000 0.0000
# 2 61.8839 61.3497 71.1234 0.0000 0.0000 0.0000
# 3 97.5977 71.1234 128.0861 0.0000 0.0000 0.0000
# 4 0.0000 0.0000 0.0000 24.5161 0.0000 0.0000
# 5 0.0000 0.0000 0.0000 0.0000 19.6108 0.0000
# 6 0.0000 0.0000 0.0000 0.0000 0.0000 14.6385
#
#
#
# Elastic Compliance Matrix: (Units=1/GPa)
#
#
# Indices 1 2 3 4 5 6 
#
# 1 0.026425 -0.009297 -0.014972 0.000000 0.000000 0.000000
# 2 -0.009297 0.049024 -0.020138 0.000000 0.000000 0.000000
# 3 -0.014972 -0.020138 0.030398 0.000000 0.000000 0.000000
# 4 0.000000 0.000000 0.000000 0.040790 0.000000 0.000000
# 5 0.000000 0.000000 0.000000 0.000000 0.050992 0.000000
# 6 0.000000 0.000000 0.000000 0.000000 0.000000 0.068313
#
#
# Mechanical properties :
#
#
# Convention : Reuss Voigt Hill
#
# Bulk Modulus (GPa) = 58.71315 85.06243 71.88779
# Shear Modulus (GPa) = 13.87218 16.66950 15.27084
#
# Velocity S-wave (km/s) = 2.80364 3.07334 2.94158
# Velocity P-wave (km/s) = 6.61432 7.79698 7.22987
#
# Compressibility (1/GPa) = 0.01703196
#
# Stress axis : x y z
#
# Youngs Moduli (GPa) = 37.84365 20.39803 32.89722
#
# Poissons Ratio (x) = 0.18965 0.49254
# Poissons Ratio (y) = 0.35184 0.66248
# Poissons Ratio (z) = 0.56660 0.41077
#
# Static dielectric constant tensor:
#      x y z
#    x 1.614330 0.000000 0.000000 
#    y 0.000000 1.601220 0.000000 
#    z 0.000000 0.000000 1.578860 
# 
# From -- ./inp_files/22236.got.cif
#   From: 2010.05.17/outbox.cif.g08.bks.cpg/sg46_12_cif.got.tgz:22236.got - 2010.06.03 19:58:25.
