data_PCOD9379114
_publ_section_title
;
Structure prediction by ZEFSAII (Michael W. Deem and Ramdas Pophale) SiO2 
 PCOD9379114
Probable space group: I M A 2
;
_chemical_formula_sum "Si O2"
_cell_formula_units_Z 40
_cell_length_a 14.463847
_cell_length_b 11.407782
_cell_length_c 11.883812
_cell_angle_alpha 90.000000
_cell_angle_beta 90.000000
_cell_angle_gamma 90.000000
_cell_volume 1960.833893
_symmetry_space_group_name_H-M "I M A 2"
_symmetry_group_IT_number 46
_symmetry_cell_setting 'orthorhombic'
loop_
_space_group_symop_operation_xyz
x,y,z
-x,-y,z
1/2-x,y,z
1/2+x,-y,z
1/2+x,1/2+y,1/2+z
1/2-x,1/2-y,1/2+z
-x,1/2+y,1/2+z
x,1/2-y,1/2+z
loop_
_atom_site_type_symbol
_atom_site_label
_atom_site_fract_x
_atom_site_fract_y
_atom_site_fract_z
Si Si1 0.645429 0.037007 0.938500
Si Si2 0.023861 0.164904 0.840211
Si Si3 0.853037 0.691692 0.139770
Si Si4 0.891627 0.533194 0.674581
Si Si5 0.084604 0.081704 0.414568
O O1 0.750000 0.037940 0.897457
O O2 0.578866 0.127794 0.874453
O O3 0.592766 0.914872 0.914192
O O4 0.646413 0.047825 0.074225
O O5 0.062592 0.143659 0.715153
O O6 0.039550 0.300129 0.864595
O O7 0.750000 0.672407 0.189156
O O8 0.867946 0.832626 0.139176
O O9 0.857601 0.628212 0.019768
O O10 0.864172 0.524474 0.806385
O O11 0.000000 0.500000 0.675010
O O12 0.000000 0.000000 0.451506
#
# Coordination Sequence:
#
# PCOD9379114 Si02
#       5
#     8   8   8   8   8
#     4  11  20  36  65  89 114 156 207 255 302 361
#     4  10  22  39  58  89 126 155 204 258 304 357
#     4  11  22  37  61  92 125 161 206 253 304 367
#     4  10  19  37  59  89 124 158 198 257 310 354
#     4  10  22  37  60  85 127 166 194 247 318 360
#
# _framework density 20.399484000000001
#
# number of rings (size 3 to 8) (size 9 to 14) (size 15 to 20)
#    0.000    1.600    4.000    1.200    2.800    4.000 
#    0.000    1.000    0.000   25.200    0.000    0.000 
#    0.000    0.000    0.000    0.000    0.000    0.000 
#
# Total GULP energy -111405.425055 kJ/mol
# GULP energy per Si atom -5570.271253 kJ/mol
# Density = 2.035305 g / cm^3
# Si number density = 20.399484 Si / 1000 Ang^3
#
#
#
# Elastic Constant Matrix: (Units=GPa)
#
#
# Indices 1 2 3 4 5 6 
#
# 1 144.1133 21.3510 30.2755 0.0000 0.0000 0.0000
# 2 21.3510 37.9650 3.3429 0.0000 0.0000 0.0000
# 3 30.2755 3.3429 97.2824 0.0000 0.0000 0.0000
# 4 0.0000 0.0000 0.0000 28.2094 0.0000 0.0000
# 5 0.0000 0.0000 0.0000 0.0000 3.6056 0.0000
# 6 0.0000 0.0000 0.0000 0.0000 0.0000 -16.7342
#
#
#
# Elastic Compliance Matrix: (Units=1/GPa)
#
#
# Indices 1 2 3 4 5 6 
#
# 1 0.008078 -0.004335 -0.002365 0.000000 0.000000 0.000000
# 2 -0.004335 0.028746 0.000361 0.000000 0.000000 0.000000
# 3 -0.002365 0.000361 0.011003 0.000000 0.000000 0.000000
# 4 0.000000 0.000000 0.000000 0.035449 0.000000 0.000000
# 5 0.000000 0.000000 0.000000 0.000000 0.277349 0.000000
# 6 0.000000 0.000000 0.000000 0.000000 0.000000 -0.059758
#
#
# Mechanical properties :
#
#
# Convention : Reuss Voigt Hill
#
# Bulk Modulus (GPa) = 28.44949 43.25548 35.85248
# Shear Modulus (GPa) = 15.37227 17.97558 16.67392
#
# Velocity S-wave (km/s) = 2.74809 2.97168 2.86207
# Velocity P-wave (km/s) = 4.90365 5.74672 5.34184
#
# Compressibility (1/GPa) = 0.03515002
#
# Stress axis : x y z
#
# Youngs Moduli (GPa) = 123.79239 34.78736 90.88453
#
# Poissons Ratio (x) = 0.15079 0.21495
# Poissons Ratio (y) = 0.53661 -0.03283
# Poissons Ratio (z) = 0.29277 -0.01257
#
# Static dielectric constant tensor:
#      x y z
#    x 1.708450 0.000000 0.000000 
#    y 0.000000 1.720340 0.000000 
#    z 0.000000 0.000000 1.839750 
# 
# From -- ./inp_files/10906.got.cif
#   From: 2010.05.17/outbox.cif.g08.bks.cpg/sg46_6_cif.got.tgz:10906.got - 2010.06.03 19:58:25.
