data_PCOD9379528
_publ_section_title
;
Structure prediction by ZEFSAII (Michael W. Deem and Ramdas Pophale) SiO2 
 PCOD9379528
Probable space group: I M A 2
;
_chemical_formula_sum "Si O2"
_cell_formula_units_Z 64
_cell_length_a 9.041019
_cell_length_b 24.608121
_cell_length_c 14.056715
_cell_angle_alpha 90.000000
_cell_angle_beta 90.000000
_cell_angle_gamma 90.000000
_cell_volume 3127.372948
_symmetry_space_group_name_H-M "I M A 2"
_symmetry_group_IT_number 46
_symmetry_cell_setting 'orthorhombic'
loop_
_space_group_symop_operation_xyz
x,y,z
-x,-y,z
1/2-x,y,z
1/2+x,-y,z
1/2+x,1/2+y,1/2+z
1/2-x,1/2-y,1/2+z
-x,1/2+y,1/2+z
x,1/2-y,1/2+z
loop_
_atom_site_type_symbol
_atom_site_label
_atom_site_fract_x
_atom_site_fract_y
_atom_site_fract_z
Si Si1 0.572946 0.555684 0.811600
Si Si2 0.070576 0.395509 0.222680
Si Si3 0.072528 0.554647 0.399859
Si Si4 0.579169 0.165229 0.997385
Si Si5 0.929628 0.892935 0.504200
Si Si6 0.419948 0.273730 0.996053
Si Si7 0.921227 0.161893 0.227009
Si Si8 0.079249 0.227961 0.727495
O O1 0.500000 0.500000 0.776226
O O2 0.750000 0.552931 0.803218
O O3 0.531603 0.564652 0.922887
O O4 0.513175 0.609828 0.760807
O O5 0.250000 0.399993 0.229923
O O6 0.029592 0.333276 0.250973
O O7 0.988703 0.435361 0.293899
O O8 0.026694 0.404599 0.112600
O O9 0.250000 0.550636 0.401397
O O10 0.023265 0.608118 0.457479
O O11 0.000000 0.500000 0.438972
O O12 0.750000 0.170134 0.969177
O O13 0.496813 0.219025 0.962511
O O14 0.572214 0.163345 0.111891
O O15 0.750000 0.888731 0.506326
O O16 0.985443 0.832947 0.473395
O O17 0.250000 0.272739 0.965618
O O18 0.422195 0.271924 0.111644
O O19 0.750000 0.156603 0.255451
O O20 0.987465 0.219823 0.260117
O O21 0.250000 0.234301 0.756020
#
# Coordination Sequence:
#
# PCOD9379528 Si02
#       8
#     8   8   8   8   8   8   8   8
#     4  11  23  39  56  77 107 142 184 228 269 317
#     4   9  18  36  60  84 111 143 178 217 264 317
#     4  11  24  40  55  76 106 141 185 229 270 318
#     4   9  20  37  55  78 110 142 173 218 271 319
#     4   8  17  35  58  82 110 142 175 215 262 316
#     4   8  14  29  55  83 107 136 175 213 257 318
#     4  10  20  36  57  81 110 143 179 221 269 318
#     4   8  15  30  54  83 112 141 174 213 262 321
#
# _framework density 20.464459999999999
#
# number of rings (size 3 to 8) (size 9 to 14) (size 15 to 20)
#    0.000    2.750    0.000    2.625    0.000    4.000 
#    0.000   10.625    0.000    0.000    0.000    0.000 
#    0.000    0.000    0.000    0.000    0.000    0.000 
#
# Total GULP energy -178611.649181 kJ/mol
# GULP energy per Si atom -5581.614037 kJ/mol
# Density = 2.041788 g / cm^3
# Si number density = 20.464460 Si / 1000 Ang^3
#
#
#
# Elastic Constant Matrix: (Units=GPa)
#
#
# Indices 1 2 3 4 5 6 
#
# 1 49.3260 39.3450 2.0001 0.0000 0.0000 0.0000
# 2 39.3450 110.7409 1.1556 0.0000 0.0000 0.0000
# 3 2.0001 1.1556 23.2223 0.0000 0.0000 0.0000
# 4 0.0000 0.0000 0.0000 27.0874 0.0000 0.0000
# 5 0.0000 0.0000 0.0000 0.0000 12.8216 0.0000
# 6 0.0000 0.0000 0.0000 0.0000 0.0000 27.9693
#
#
#
# Elastic Compliance Matrix: (Units=1/GPa)
#
#
# Indices 1 2 3 4 5 6 
#
# 1 0.028378 -0.010062 -0.001943 0.000000 0.000000 0.000000
# 2 -0.010062 0.012603 0.000240 0.000000 0.000000 0.000000
# 3 -0.001943 0.000240 0.043217 0.000000 0.000000 0.000000
# 4 0.000000 0.000000 0.000000 0.036918 0.000000 0.000000
# 5 0.000000 0.000000 0.000000 0.000000 0.077993 0.000000
# 6 0.000000 0.000000 0.000000 0.000000 0.000000 0.035754
#
#
# Mechanical properties :
#
#
# Convention : Reuss Voigt Hill
#
# Bulk Modulus (GPa) = 16.48370 29.81007 23.14688
# Shear Modulus (GPa) = 17.94578 22.96156 20.45367
#
# Velocity S-wave (km/s) = 2.96450 3.35329 3.16487
# Velocity P-wave (km/s) = 4.44859 5.43977 4.96896
#
# Compressibility (1/GPa) = 0.06066600
#
# Stress axis : x y z
#
# Youngs Moduli (GPa) = 35.23826 79.34890 23.13881
#
# Poissons Ratio (x) = 0.79842 0.04497
# Poissons Ratio (y) = 0.35457 -0.00554
# Poissons Ratio (z) = 0.06848 -0.01900
#
# Static dielectric constant tensor:
#      x y z
#    x 1.690310 0.000000 0.000000 
#    y 0.000000 1.726210 0.000000 
#    z 0.000000 0.000000 1.768950 
# 
# From -- ./inp_files/14532.got.cif
#   From: 2010.05.17/outbox.cif.g08.bks.cpg/sg46_8_cif.got.tgz:14532.got - 2010.06.03 19:58:25.
