data_PCOD9379676
_publ_section_title
;
Structure prediction by ZEFSAII (Michael W. Deem and Ramdas Pophale) SiO2 
 PCOD9379676
Probable space group: I M A 2
;
_chemical_formula_sum "Si O2"
_cell_formula_units_Z 60
_cell_length_a 9.667353
_cell_length_b 26.640815
_cell_length_c 12.347724
_cell_angle_alpha 90.000000
_cell_angle_beta 90.000000
_cell_angle_gamma 90.000000
_cell_volume 3180.108936
_symmetry_space_group_name_H-M "I M A 2"
_symmetry_group_IT_number 46
_symmetry_cell_setting 'orthorhombic'
loop_
_space_group_symop_operation_xyz
x,y,z
-x,-y,z
1/2-x,y,z
1/2+x,-y,z
1/2+x,1/2+y,1/2+z
1/2-x,1/2-y,1/2+z
-x,1/2+y,1/2+z
x,1/2-y,1/2+z
loop_
_atom_site_type_symbol
_atom_site_label
_atom_site_fract_x
_atom_site_fract_y
_atom_site_fract_z
Si Si1 0.084809 0.918673 0.593280
Si Si2 0.408408 0.692083 0.042205
Si Si3 0.597685 0.924291 0.247468
Si Si4 0.406032 0.833561 0.291958
Si Si5 0.912146 0.785249 0.115154
Si Si6 0.500000 0.500000 0.912507
Si Si7 0.415907 0.950186 0.839220
Si Si8 0.091523 0.394676 0.508110
O O1 0.250000 0.915235 0.583578
O O2 0.034354 0.861328 0.584905
O O3 0.052936 0.939235 0.712773
O O4 0.040307 0.955669 0.496484
O O5 0.250000 0.700459 0.083454
O O6 0.507936 0.738146 0.066264
O O7 0.399135 0.684437 0.914124
O O8 0.750000 0.899411 0.257060
O O9 0.475432 0.888327 0.287286
O O10 0.575574 0.928436 0.117798
O O11 0.598854 0.972604 0.324803
O O12 0.250000 0.834648 0.246538
O O13 0.507781 0.798341 0.225039
O O14 0.750000 0.775054 0.130261
O O15 0.923727 0.836859 0.045957
O O16 0.250000 0.954969 0.851405
O O17 0.500000 0.000000 0.869452
O O18 0.479847 0.908380 0.918105
O O19 0.250000 0.401979 0.469235
#
# Coordination Sequence:
#
# PCOD9379676 Si02
#       8
#     8   8   8   8   8   4   8   8
#     4  10  22  40  59  87 125 161 203 250 297 361
#     4  10  21  39  61  88 121 158 202 249 301 366
#     4  10  22  37  60  91 122 157 201 254 304 361
#     4  10  20  37  61  86 119 159 197 246 304 365
#     4  10  22  40  62  89 122 156 200 256 308 361
#     4  12  20  38  62  90 126 162 202 242 314 364
#     4  11  23  40  62  88 121 162 205 250 298 356
#     4   9  21  42  60  86 123 157 201 253 301 357
#
# _framework density 18.867277999999999
#
# number of rings (size 3 to 8) (size 9 to 14) (size 15 to 20)
#    0.000    1.867    2.000    2.400    0.933    5.333 
#    0.000    5.333    0.000    0.000    0.000    0.000 
#    0.000    0.000    0.000    0.000    0.000    0.000 
#
# Total GULP energy -167171.853770 kJ/mol
# GULP energy per Si atom -5572.395126 kJ/mol
# Density = 1.882434 g / cm^3
# Si number density = 18.867278 Si / 1000 Ang^3
#
#
#
# Elastic Constant Matrix: (Units=GPa)
#
#
# Indices 1 2 3 4 5 6 
#
# 1 107.8189 48.2540 41.9167 0.0001 -0.0002 0.0000
# 2 48.2540 71.8374 34.2937 0.0002 -0.0005 0.0000
# 3 41.9167 34.2937 66.1438 0.0008 -0.0016 -0.0001
# 4 0.0001 0.0002 0.0008 22.8857 0.0001 0.0000
# 5 -0.0002 -0.0005 -0.0016 0.0001 7.1255 0.0000
# 6 0.0000 0.0000 -0.0001 0.0000 0.0000 31.4406
#
#
#
# Elastic Compliance Matrix: (Units=1/GPa)
#
#
# Indices 1 2 3 4 5 6 
#
# 1 0.014653 -0.007189 -0.005559 0.000000 -0.000001 0.000000
# 2 -0.007189 0.022026 -0.006864 0.000000 0.000000 0.000000
# 3 -0.005559 -0.006864 0.022200 -0.000001 0.000004 0.000000
# 4 0.000000 0.000000 -0.000001 0.043695 -0.000001 0.000000
# 5 -0.000001 0.000000 0.000004 -0.000001 0.140342 0.000000
# 6 0.000000 0.000000 0.000000 0.000000 0.000000 0.031806
#
#
# Mechanical properties :
#
#
# Convention : Reuss Voigt Hill
#
# Bulk Modulus (GPa) = 50.87587 54.96988 52.92287
# Shear Modulus (GPa) = 15.60069 20.37941 17.99005
#
# Velocity S-wave (km/s) = 2.87865 3.29012 3.09124
# Velocity P-wave (km/s) = 6.17029 6.60541 6.39156
#
# Compressibility (1/GPa) = 0.01965568
#
# Stress axis : x y z
#
# Youngs Moduli (GPa) = 68.24362 45.40070 45.04498
#
# Poissons Ratio (x) = 0.32639 0.25039
# Poissons Ratio (y) = 0.49062 0.30919
# Poissons Ratio (z) = 0.37935 0.31163
#
# Static dielectric constant tensor:
#      x y z
#    x 1.662030 0.000000 0.000000 
#    y 0.000000 1.698250 0.000000 
#    z 0.000000 0.000000 1.648840 
# 
# From -- ./inp_files/9536.got.cif
#   From: 2010.05.17/outbox.cif.g08.bks.cpg/sg46_5_cif.got.tgz:9536.got - 2010.06.03 19:58:25.
