data_PCOD9379695
_publ_section_title
;
Structure prediction by ZEFSAII (Michael W. Deem and Ramdas Pophale) SiO2 
 PCOD9379695
Probable space group: I M A 2
;
_chemical_formula_sum "Si O2"
_cell_formula_units_Z 64
_cell_length_a 14.514201
_cell_length_b 23.912163
_cell_length_c 8.741159
_cell_angle_alpha 90.000000
_cell_angle_beta 90.000000
_cell_angle_gamma 90.000000
_cell_volume 3033.758566
_symmetry_space_group_name_H-M "I M A 2"
_symmetry_group_IT_number 46
_symmetry_cell_setting 'orthorhombic'
loop_
_space_group_symop_operation_xyz
x,y,z
-x,-y,z
1/2-x,y,z
1/2+x,-y,z
1/2+x,1/2+y,1/2+z
1/2-x,1/2-y,1/2+z
-x,1/2+y,1/2+z
x,1/2-y,1/2+z
loop_
_atom_site_type_symbol
_atom_site_label
_atom_site_fract_x
_atom_site_fract_y
_atom_site_fract_z
Si Si1 0.536854 0.768426 0.043870
Si Si2 0.642501 0.686811 0.249522
Si Si3 0.647605 0.293664 0.039065
Si Si4 0.648692 0.087899 0.358712
Si Si5 0.597951 0.026437 0.653009
Si Si6 0.853912 0.569058 0.387023
Si Si7 0.358315 0.864556 0.831032
Si Si8 0.492163 0.615326 0.608751
O O1 0.588886 0.715506 0.113107
O O2 0.435420 0.746980 0.002920
O O3 0.533601 0.823588 0.153175
O O4 0.593687 0.789424 0.899675
O O5 0.750000 0.701231 0.244071
O O6 0.634069 0.620388 0.268220
O O7 0.750000 0.268971 0.017286
O O8 0.637288 0.311808 0.217020
O O9 0.643776 0.350941 0.940628
O O10 0.750000 0.084545 0.282816
O O11 0.645292 0.041249 0.492114
O O12 0.562580 0.085050 0.244156
O O13 0.593854 0.086048 0.735079
O O14 0.500000 0.000000 0.617522
O O15 0.639611 0.986020 0.783167
O O16 0.750000 0.573444 0.452054
O O17 0.931246 0.578527 0.518264
O O18 0.250000 0.877013 0.851755
O O19 0.413940 0.865948 0.987155
#
# Coordination Sequence:
#
# PCOD9379695 Si02
#       8
#     8   8   8   8   8   8   8   8
#     4  11  21  36  59  86 123 162 199 248 296 351
#     4  10  22  38  60  87 117 156 205 253 301 350
#     4   9  19  35  57  87 121 164 206 239 281 354
#     4  10  22  39  60  89 128 161 193 245 308 365
#     4  11  21  40  67  89 115 155 203 252 301 363
#     4  10  21  40  66  92 117 156 212 257 295 356
#     4  10  20  37  62  89 120 157 202 245 294 360
#     4  11  22  38  58  92 122 163 198 246 309 359
#
# _framework density 21.095945
#
# number of rings (size 3 to 8) (size 9 to 14) (size 15 to 20)
#    0.000    1.750    1.250    4.875    1.750    1.500 
#    2.250    3.125    0.000    1.500    0.000    0.000 
#    0.000    0.000    0.000    0.000    0.000    0.000 
#
# Total GULP energy -178644.205085 kJ/mol
# GULP energy per Si atom -5582.631409 kJ/mol
# Density = 2.104793 g / cm^3
# Si number density = 21.095945 Si / 1000 Ang^3
#
#
#
# Elastic Constant Matrix: (Units=GPa)
#
#
# Indices 1 2 3 4 5 6 
#
# 1 144.8710 37.1254 29.6337 -0.0001 0.0003 0.0001
# 2 37.1254 45.3517 16.4007 -0.0001 -0.0008 0.0001
# 3 29.6337 16.4007 45.1676 0.0005 -0.0026 0.0000
# 4 -0.0001 -0.0001 0.0005 22.4790 -0.0012 0.0001
# 5 0.0003 -0.0008 -0.0026 -0.0012 23.3568 -0.0002
# 6 0.0001 0.0001 0.0000 0.0001 -0.0002 19.4239
#
#
#
# Elastic Compliance Matrix: (Units=1/GPa)
#
#
# Indices 1 2 3 4 5 6 
#
# 1 0.009278 -0.006209 -0.003832 0.000000 -0.000001 0.000000
# 2 -0.006209 0.029538 -0.006652 0.000000 0.000000 0.000000
# 3 -0.003832 -0.006652 0.027070 -0.000001 0.000003 0.000000
# 4 0.000000 0.000000 -0.000001 0.044486 0.000002 0.000000
# 5 -0.000001 0.000000 0.000003 0.000002 0.042814 0.000000
# 6 0.000000 0.000000 0.000000 0.000000 0.000000 0.051483
#
#
# Mechanical properties :
#
#
# Convention : Reuss Voigt Hill
#
# Bulk Modulus (GPa) = 30.77042 44.63443 37.70243
# Shear Modulus (GPa) = 20.08934 23.20063 21.64498
#
# Velocity S-wave (km/s) = 3.08926 3.31987 3.20664
# Velocity P-wave (km/s) = 5.22899 5.99159 5.62323
#
# Compressibility (1/GPa) = 0.03249875
#
# Stress axis : x y z
#
# Youngs Moduli (GPa) = 107.78462 33.85457 36.94189
#
# Poissons Ratio (x) = 0.21020 0.14158
# Poissons Ratio (y) = 0.66922 0.24574
# Poissons Ratio (z) = 0.41308 0.22520
#
# Static dielectric constant tensor:
#      x y z
#    x 1.773890 0.000000 0.000000 
#    y 0.000000 1.789200 0.000000 
#    z 0.000000 0.000000 1.752900 
# 
# From -- ./inp_files/6067.got.cif
#   From: 2010.05.17/outbox.cif.g08.bks.cpg/sg46_4_cif.got.tgz:6067.got - 2010.06.03 19:58:25.
