data_PCOD9379798
_publ_section_title
;
Structure prediction by ZEFSAII (Michael W. Deem and Ramdas Pophale) SiO2 
 PCOD9379798
Probable space group: I M A 2
;
_chemical_formula_sum "Si O2"
_cell_formula_units_Z 28
_cell_length_a 11.079736
_cell_length_b 10.997151
_cell_length_c 9.332652
_cell_angle_alpha 90.000000
_cell_angle_beta 90.000000
_cell_angle_gamma 90.000000
_cell_volume 1137.141928
_symmetry_space_group_name_H-M "I M A 2"
_symmetry_group_IT_number 46
_symmetry_cell_setting 'orthorhombic'
loop_
_space_group_symop_operation_xyz
x,y,z
-x,-y,z
1/2-x,y,z
1/2+x,-y,z
1/2+x,1/2+y,1/2+z
1/2-x,1/2-y,1/2+z
-x,1/2+y,1/2+z
x,1/2-y,1/2+z
loop_
_atom_site_type_symbol
_atom_site_label
_atom_site_fract_x
_atom_site_fract_y
_atom_site_fract_z
Si Si1 0.385639 0.226935 0.184790
Si Si2 0.882428 0.148166 0.789636
Si Si3 0.500000 0.000000 0.033491
Si Si4 0.122467 0.472026 0.008735
O O1 0.250000 0.226255 0.248653
O O2 0.500236 0.267558 0.279082
O O3 0.380101 0.334396 0.065857
O O4 0.423531 0.099300 0.118760
O O5 0.750000 0.207532 0.794661
O O6 0.881858 0.058971 0.650555
O O7 0.905655 0.068443 0.929600
O O8 0.250000 0.497321 0.936061
O O9 0.000000 0.500000 0.926253
#
# Coordination Sequence:
#
# PCOD9379798 Si02
#       4
#     8   8   4   8
#     4  10  21  36  59  92 127 163 208 258 310 374
#     4  10  20  38  64  91 125 165 209 260 311 370
#     4  12  22  36  66  98 122 166 212 254 318 376
#     4   8  14  30  54  80 112 153 192 241 295 347
#
# _framework density 24.623135000000001
#
# number of rings (size 3 to 8) (size 9 to 14) (size 15 to 20)
#    0.000    2.286    4.286    0.857    0.000    3.429 
#    0.000    0.000    9.429    0.000    0.000    0.000 
#    0.000    0.000    0.000    0.000    0.000    0.000 
#
# Total GULP energy -78260.265884 kJ/mol
# GULP energy per Si atom -5590.018992 kJ/mol
# Density = 2.456709 g / cm^3
# Si number density = 24.623135 Si / 1000 Ang^3
#
#
#
# Elastic Constant Matrix: (Units=GPa)
#
#
# Indices 1 2 3 4 5 6 
#
# 1 308.9786 69.0355 40.3150 0.0000 0.0000 0.0000
# 2 69.0355 117.2735 44.4121 0.0000 0.0000 0.0000
# 3 40.3150 44.4121 54.6051 0.0000 0.0000 0.0000
# 4 0.0000 0.0000 0.0000 -7.2857 0.0000 0.0000
# 5 0.0000 0.0000 0.0000 0.0000 1.2880 0.0000
# 6 0.0000 0.0000 0.0000 0.0000 0.0000 19.4608
#
#
#
# Elastic Compliance Matrix: (Units=1/GPa)
#
#
# Indices 1 2 3 4 5 6 
#
# 1 0.003802 -0.001698 -0.001426 0.000000 0.000000 0.000000
# 2 -0.001698 0.013081 -0.009386 0.000000 0.000000 0.000000
# 3 -0.001426 -0.009386 0.027000 0.000000 0.000000 0.000000
# 4 0.000000 0.000000 0.000000 -0.137256 0.000000 0.000000
# 5 0.000000 0.000000 0.000000 0.000000 0.776392 0.000000
# 6 0.000000 0.000000 0.000000 0.000000 0.000000 0.051385
#
#
# Mechanical properties :
#
#
# Convention : Reuss Voigt Hill
#
# Bulk Modulus (GPa) = 53.01217 87.59803 70.30510
# Shear Modulus (GPa) = 6.52988 24.49895 15.51442
#
# Velocity S-wave (km/s) = 1.63024 3.15772 2.51285
# Velocity P-wave (km/s) = 5.01196 6.99626 6.08553
#
# Compressibility (1/GPa) = 0.01886359
#
# Stress axis : x y z
#
# Youngs Moduli (GPa) = 263.02492 76.44655 37.03768
#
# Poissons Ratio (x) = 0.12981 0.05281
# Poissons Ratio (y) = 0.44665 0.34762
# Poissons Ratio (z) = 0.37503 0.71749
#
# Static dielectric constant tensor:
#      x y z
#    x 2.003010 0.000000 0.000000 
#    y 0.000000 1.963310 0.000000 
#    z 0.000000 0.000000 1.927250 
# 
# From -- ./inp_files/9935.got.cif
#   From: 2010.05.17/outbox.cif.g08.bks.cpg/sg46_5_cif.got.tgz:9935.got - 2010.06.03 19:58:25.
