data_PCOD9379681
_publ_section_title
;
Structure prediction by ZEFSAII (Michael W. Deem and Ramdas Pophale) SiO2 
 PCOD9379681
Probable space group: I M A 2
;
_chemical_formula_sum "Si O2"
_cell_formula_units_Z 52
_cell_length_a 27.559420
_cell_length_b 5.991195
_cell_length_c 14.527695
_cell_angle_alpha 90.000000
_cell_angle_beta 90.000000
_cell_angle_gamma 90.000000
_cell_volume 2398.723788
_symmetry_space_group_name_H-M "I M A 2"
_symmetry_group_IT_number 46
_symmetry_cell_setting 'orthorhombic'
loop_
_space_group_symop_operation_xyz
x,y,z
-x,-y,z
1/2-x,y,z
1/2+x,-y,z
1/2+x,1/2+y,1/2+z
1/2-x,1/2-y,1/2+z
-x,1/2+y,1/2+z
x,1/2-y,1/2+z
loop_
_atom_site_type_symbol
_atom_site_label
_atom_site_fract_x
_atom_site_fract_y
_atom_site_fract_z
Si Si1 0.114840 0.593465 0.934560
Si Si2 0.088691 0.747654 0.742610
Si Si3 0.194118 0.238934 0.345002
Si Si4 0.198589 0.880694 0.990159
Si Si5 0.000000 0.000000 0.160925
Si Si6 0.567127 0.630685 0.097096
Si Si7 0.158836 0.405926 0.656072
O O1 0.095422 0.750208 0.852296
O O2 0.151093 0.408642 0.890379
O O3 0.151459 0.730883 0.998158
O O4 0.073554 0.495172 0.000380
O O5 0.137275 0.632129 0.702082
O O6 0.045061 0.576038 0.722287
O O7 0.073576 0.966198 0.685133
O O8 0.250000 0.152639 0.352784
O O9 0.194222 0.474073 0.397547
O O10 0.180127 0.243937 0.237829
O O11 0.250000 0.757935 0.988930
O O12 0.197016 0.041222 0.077622
O O13 0.980114 0.787225 0.104304
O O14 0.613856 0.789802 0.105719
#
# Coordination Sequence:
#
# PCOD9379681 Si02
#       7
#     8   8   8   8   4   8   8
#     4  11  22  39  66  93 124 173 213 264 332 385
#     4  10  22  42  65  89 130 163 213 265 326 399
#     4  10  21  37  57  87 129 170 219 268 313 376
#     4  11  21  36  58  93 130 167 220 265 311 378
#     4  10  24  44  66  96 128 164 210 274 328 400
#     4  11  21  42  69  93 131 166 215 267 334 399
#     4  10  20  37  61  88 123 176 211 262 324 379
#
# _framework density 21.678194999999999
#
# number of rings (size 3 to 8) (size 9 to 14) (size 15 to 20)
#    0.000    1.538    3.077    2.308    0.000    0.000 
#    2.769    0.000    0.000    0.000    0.000    0.000 
#    0.000    0.000    0.000    0.000    0.000    0.000 
#
# Total GULP energy -145107.538046 kJ/mol
# GULP energy per Si atom -5581.059156 kJ/mol
# Density = 2.162885 g / cm^3
# Si number density = 21.678195 Si / 1000 Ang^3
#
#
#
# Elastic Constant Matrix: (Units=GPa)
#
#
# Indices 1 2 3 4 5 6 
#
# 1 91.4585 8.2278 26.5074 0.0000 0.0000 0.0000
# 2 8.2278 32.1377 12.7316 0.0000 0.0000 0.0000
# 3 26.5074 12.7316 115.3286 0.0000 0.0000 0.0000
# 4 0.0000 0.0000 0.0000 24.1643 0.0000 0.0000
# 5 0.0000 0.0000 0.0000 0.0000 23.5994 0.0000
# 6 0.0000 0.0000 0.0000 0.0000 0.0000 -6.1336
#
#
#
# Elastic Compliance Matrix: (Units=1/GPa)
#
#
# Indices 1 2 3 4 5 6 
#
# 1 0.011841 -0.002043 -0.002496 0.000000 0.000000 0.000000
# 2 -0.002043 0.032891 -0.003162 0.000000 0.000000 0.000000
# 3 -0.002496 -0.003162 0.009594 0.000000 0.000000 0.000000
# 4 0.000000 0.000000 0.000000 0.041383 0.000000 0.000000
# 5 0.000000 0.000000 0.000000 0.000000 0.042374 0.000000
# 6 0.000000 0.000000 0.000000 0.000000 0.000000 -0.163037
#
#
# Mechanical properties :
#
#
# Convention : Reuss Voigt Hill
#
# Bulk Modulus (GPa) = 25.69002 37.09538 31.39270
# Shear Modulus (GPa) = 1461.09321 21.08989 741.09155
#
# Velocity S-wave (km/s) = 25.98952 3.12246 18.50952
# Velocity P-wave (km/s) = 30.20734 5.49078 21.70981
#
# Compressibility (1/GPa) = 0.03892562
#
# Stress axis : x y z
#
# Youngs Moduli (GPa) = 84.45145 30.40302 104.23623
#
# Poissons Ratio (x) = 0.06210 0.26018
# Poissons Ratio (y) = 0.17251 0.32954
# Poissons Ratio (z) = 0.21080 0.09612
#
# Static dielectric constant tensor:
#      x y z
#    x 1.776250 0.000000 0.000000 
#    y 0.000000 1.843580 0.000000 
#    z 0.000000 0.000000 1.775030 
# 
# From -- ./inp_files/17678.got.cif
#   From: 2010.05.17/outbox.cif.g08.bks.cpg/sg46_9_cif.got.tgz:17678.got - 2010.06.03 19:58:25.
