data_PCOD9379380
_publ_section_title
;
Structure prediction by ZEFSAII (Michael W. Deem and Ramdas Pophale) SiO2 
 PCOD9379380
Probable space group: I M A 2
;
_chemical_formula_sum "Si O2"
_cell_formula_units_Z 48
_cell_length_a 15.507927
_cell_length_b 7.222841
_cell_length_c 16.864363
_cell_angle_alpha 90.000000
_cell_angle_beta 90.000000
_cell_angle_gamma 90.000000
_cell_volume 1888.999071
_symmetry_space_group_name_H-M "I M A 2"
_symmetry_group_IT_number 46
_symmetry_cell_setting 'orthorhombic'
loop_
_space_group_symop_operation_xyz
x,y,z
-x,-y,z
1/2-x,y,z
1/2+x,-y,z
1/2+x,1/2+y,1/2+z
1/2-x,1/2-y,1/2+z
-x,1/2+y,1/2+z
x,1/2-y,1/2+z
loop_
_atom_site_type_symbol
_atom_site_label
_atom_site_fract_x
_atom_site_fract_y
_atom_site_fract_z
Si Si1 0.653149 0.073912 0.050770
Si Si2 0.590726 0.911583 0.217521
Si Si3 0.477284 0.783310 0.934432
Si Si4 0.649663 0.960659 0.671031
Si Si5 0.846495 0.662512 0.989730
Si Si6 0.656104 0.225840 0.295900
O O1 0.750000 0.152348 0.061663
O O2 0.616454 0.987761 0.131208
O O3 0.661255 0.885785 0.999640
O O4 0.585166 0.214032 0.011943
O O5 0.657445 0.009877 0.274946
O O6 0.500000 0.000000 0.237495
O O7 0.592622 0.692326 0.215427
O O8 0.416188 0.748542 0.860705
O O9 0.500000 0.000000 0.928105
O O10 0.563133 0.657342 0.941848
O O11 0.750000 0.908469 0.683642
O O12 0.637511 0.928171 0.576978
O O13 0.637521 0.155801 0.715328
O O14 0.750000 0.597871 0.962895
O O15 0.750000 0.288739 0.325157
#
# Coordination Sequence:
#
# PCOD9379380 Si02
#       6
#     8   8   8   8   8   8
#     4   9  16  32  59  88 119 163 213 260 315 388
#     4  11  22  37  65  91 129 171 221 275 335 403
#     4  10  20  34  58  91 129 170 218 268 335 403
#     4   9  19  38  65  95 125 164 220 283 334 395
#     4   8  15  32  60  89 121 166 219 271 329 395
#     4  11  24  40  65  97 133 174 223 282 343 403
#
# _framework density 25.410281999999999
#
# number of rings (size 3 to 8) (size 9 to 14) (size 15 to 20)
#    0.000    2.333    0.000    5.500    2.333    0.667 
#    0.000    0.000    3.667    0.000    0.000    0.000 
#    0.000    0.000    0.000    0.000    0.000    0.000 
#
# Total GULP energy -134137.530165 kJ/mol
# GULP energy per Si atom -5589.063757 kJ/mol
# Density = 2.535245 g / cm^3
# Si number density = 25.410282 Si / 1000 Ang^3
#
#
#
# Elastic Constant Matrix: (Units=GPa)
#
#
# Indices 1 2 3 4 5 6 
#
# 1 176.1272 32.6870 58.5145 0.0000 0.0000 0.0000
# 2 32.6870 93.0451 16.2074 0.0000 0.0000 0.0000
# 3 58.5145 16.2074 57.1112 0.0000 0.0000 0.0000
# 4 0.0000 0.0000 0.0000 26.5836 0.0000 0.0000
# 5 0.0000 0.0000 0.0000 0.0000 35.7506 0.0000
# 6 0.0000 0.0000 0.0000 0.0000 0.0000 20.8247
#
#
#
# Elastic Compliance Matrix: (Units=1/GPa)
#
#
# Indices 1 2 3 4 5 6 
#
# 1 0.008830 -0.001605 -0.008591 0.000000 0.000000 0.000000
# 2 -0.001605 0.011598 -0.001647 0.000000 0.000000 0.000000
# 3 -0.008591 -0.001647 0.026779 0.000000 0.000000 0.000000
# 4 0.000000 0.000000 0.000000 0.037617 0.000000 0.000000
# 5 0.000000 0.000000 0.000000 0.000000 0.027972 0.000000
# 6 0.000000 0.000000 0.000000 0.000000 0.000000 0.048020
#
#
# Mechanical properties :
#
#
# Convention : Reuss Voigt Hill
#
# Bulk Modulus (GPa) = 42.51514 60.12235 51.31875
# Shear Modulus (GPa) = 25.99519 31.22341 28.60930
#
# Velocity S-wave (km/s) = 3.20194 3.50919 3.35908
# Velocity P-wave (km/s) = 5.51703 6.33492 5.94007
#
# Compressibility (1/GPa) = 0.02352103
#
# Stress axis : x y z
#
# Youngs Moduli (GPa) = 113.25090 86.21962 37.34215
#
# Poissons Ratio (x) = 0.13842 0.32082
# Poissons Ratio (y) = 0.18182 0.06148
# Poissons Ratio (z) = 0.97297 0.14196
#
# Static dielectric constant tensor:
#      x y z
#    x 2.067110 0.000000 0.000000 
#    y 0.000000 1.987090 0.000000 
#    z 0.000000 0.000000 2.004270 
# 
# From -- ./inp_files/19415.got.cif
#   From: 2010.05.17/outbox.cif.g08.bks.cpg/sg46_10_cif.got.tgz:19415.got - 2010.06.03 19:58:25.
