data_PCOD9379436
_publ_section_title
;
Structure prediction by ZEFSAII (Michael W. Deem and Ramdas Pophale) SiO2 
 PCOD9379436
Probable space group: I M A 2
;
_chemical_formula_sum "Si O2"
_cell_formula_units_Z 64
_cell_length_a 26.994968
_cell_length_b 8.040874
_cell_length_c 13.373858
_cell_angle_alpha 90.000000
_cell_angle_beta 90.000000
_cell_angle_gamma 90.000000
_cell_volume 2902.971562
_symmetry_space_group_name_H-M "I M A 2"
_symmetry_group_IT_number 46
_symmetry_cell_setting 'orthorhombic'
loop_
_space_group_symop_operation_xyz
x,y,z
-x,-y,z
1/2-x,y,z
1/2+x,-y,z
1/2+x,1/2+y,1/2+z
1/2-x,1/2-y,1/2+z
-x,1/2+y,1/2+z
x,1/2-y,1/2+z
loop_
_atom_site_type_symbol
_atom_site_label
_atom_site_fract_x
_atom_site_fract_y
_atom_site_fract_z
Si Si1 0.352561 0.862371 0.573180
Si Si2 0.355316 0.018728 0.775152
Si Si3 0.195271 0.139134 0.965861
Si Si4 0.895233 0.994174 0.072783
Si Si5 0.304251 0.516154 0.881972
Si Si6 0.549583 0.406903 0.378345
Si Si7 0.052400 0.535176 0.962522
Si Si8 0.103340 0.109108 0.280075
O O1 0.371373 0.675780 0.585864
O O2 0.401746 0.961913 0.537727
O O3 0.332802 0.945631 0.674035
O O4 0.316306 0.872331 0.478292
O O5 0.319489 0.022786 0.871466
O O6 0.374205 0.208173 0.767015
O O7 0.405108 0.918023 0.801176
O O8 0.250000 0.098421 0.004344
O O9 0.196095 0.327537 0.925200
O O10 0.151414 0.121950 0.045263
O O11 0.920242 0.942035 0.175556
O O12 0.931530 0.998217 0.978480
O O13 0.250000 0.552380 0.839256
O O14 0.350374 0.513700 0.806331
O O15 0.500000 0.500000 0.343674
O O16 0.545953 0.215452 0.410792
O O17 0.066835 0.408101 0.873829
O O18 0.000000 0.500000 0.012219
#
# Coordination Sequence:
#
# PCOD9379436 Si02
#       8
#     8   8   8   8   8   8   8   8
#     4  10  21  36  54  79 110 141 176 219 266 317
#     4  10  20  35  56  80 108 142 178 218 265 316
#     4   9  19  36  56  78 105 139 180 222 264 314
#     4  10  21  36  54  79 110 141 176 219 266 317
#     4   9  19  36  56  78 105 139 180 222 264 314
#     4  10  21  37  56  78 106 139 177 221 266 315
#     4  10  21  37  56  78 106 139 177 221 266 315
#     4  10  20  35  56  80 108 142 178 218 265 316
#
# _framework density 22.046375000000001
#
# number of rings (size 3 to 8) (size 9 to 14) (size 15 to 20)
#    0.000    2.250    0.000    2.250    0.000    6.500 
#    0.000    5.000    0.000    0.000    0.000    0.000 
#    0.000    0.000    0.000    0.000    0.000    0.000 
#
# Total GULP energy -178773.689465 kJ/mol
# GULP energy per Si atom -5586.677796 kJ/mol
# Density = 2.199620 g / cm^3
# Si number density = 22.046375 Si / 1000 Ang^3
#
#
#
# Elastic Constant Matrix: (Units=GPa)
#
#
# Indices 1 2 3 4 5 6 
#
# 1 56.4507 -7.7615 -12.7165 0.0000 0.0000 0.0000
# 2 -7.7615 42.3490 0.1641 0.0000 0.0000 0.0000
# 3 -12.7165 0.1641 50.2165 0.0000 0.0000 0.0000
# 4 0.0000 0.0000 0.0000 23.6684 0.0000 0.0000
# 5 0.0000 0.0000 0.0000 0.0000 3.0752 0.0000
# 6 0.0000 0.0000 0.0000 0.0000 0.0000 17.0355
#
#
#
# Elastic Compliance Matrix: (Units=1/GPa)
#
#
# Indices 1 2 3 4 5 6 
#
# 1 0.019296 0.003518 0.004875 0.000000 0.000000 0.000000
# 2 0.003518 0.024255 0.000812 0.000000 0.000000 0.000000
# 3 0.004875 0.000812 0.021146 0.000000 0.000000 0.000000
# 4 0.000000 0.000000 0.000000 0.042251 0.000000 0.000000
# 5 0.000000 0.000000 0.000000 0.000000 0.325183 0.000000
# 6 0.000000 0.000000 0.000000 0.000000 0.000000 0.058701
#
#
# Mechanical properties :
#
#
# Convention : Reuss Voigt Hill
#
# Bulk Modulus (GPa) = 12.03293 12.04315 12.03804
# Shear Modulus (GPa) = 9.99750 20.04448 15.02099
#
# Velocity S-wave (km/s) = 2.13181 3.01856 2.61307
# Velocity P-wave (km/s) = 3.39549 4.19803 3.81790
#
# Compressibility (1/GPa) = 0.08310529
#
# Stress axis : x y z
#
# Youngs Moduli (GPa) = 51.82312 41.22888 47.29110
#
# Poissons Ratio (x) = -0.14503 -0.23054
# Poissons Ratio (y) = -0.18230 -0.03838
# Poissons Ratio (z) = -0.25264 -0.03346
#
# Static dielectric constant tensor:
#      x y z
#    x 1.799240 0.000000 0.000000 
#    y 0.000000 1.833180 0.000000 
#    z 0.000000 0.000000 1.775830 
# 
# From -- ./inp_files/13221.got.cif
#   From: 2010.05.17/outbox.cif.g08.bks.cpg/sg46_7_cif.got.tgz:13221.got - 2010.06.03 19:58:25.
