data_PCOD9379080
_publ_section_title
;
Structure prediction by ZEFSAII (Michael W. Deem and Ramdas Pophale) SiO2 
 PCOD9379080
Probable space group: I M A 2
;
_chemical_formula_sum "Si O2"
_cell_formula_units_Z 32
_cell_length_a 15.589507
_cell_length_b 5.047304
_cell_length_c 17.838501
_cell_angle_alpha 90.000000
_cell_angle_beta 90.000000
_cell_angle_gamma 90.000000
_cell_volume 1403.622113
_symmetry_space_group_name_H-M "I M A 2"
_symmetry_group_IT_number 46
_symmetry_cell_setting 'orthorhombic'
loop_
_space_group_symop_operation_xyz
x,y,z
-x,-y,z
1/2-x,y,z
1/2+x,-y,z
1/2+x,1/2+y,1/2+z
1/2-x,1/2-y,1/2+z
-x,1/2+y,1/2+z
x,1/2-y,1/2+z
loop_
_atom_site_type_symbol
_atom_site_label
_atom_site_fract_x
_atom_site_fract_y
_atom_site_fract_z
Si Si1 0.347963 0.355388 0.282730
Si Si2 0.353810 0.640238 0.531634
Si Si3 0.354504 0.364615 0.940664
Si Si4 0.092162 0.631828 0.699047
O O1 0.250000 0.445842 0.296538
O O2 0.384737 0.239716 0.360361
O O3 0.396033 0.606995 0.248763
O O4 0.347013 0.107328 0.226127
O O5 0.250000 0.654836 0.536227
O O6 0.377304 0.348079 0.504160
O O7 0.390051 0.703181 0.612986
O O8 0.382931 0.848824 0.468551
O O9 0.250000 0.373685 0.935384
O O10 0.000000 0.500000 0.706954
#
# Coordination Sequence:
#
# PCOD9379080 Si02
#       4
#     8   8   8   8
#     4  11  22  41  66  92 122 168 219 264 313 377
#     4  10  19  36  60  88 119 159 206 255 306 367
#     4   9  19  35  61  91 117 149 206 265 304 353
#     4  12  25  40  60  93 134 170 206 260 321 381
#
# _framework density 22.798158999999998
#
# number of rings (size 3 to 8) (size 9 to 14) (size 15 to 20)
#    0.000    1.500    0.000    6.000    0.000    6.000 
#    0.000    5.000    0.000    0.000    0.000    0.000 
#    0.000    0.000    0.000    0.000    0.000    0.000 
#
# Total GULP energy -89533.974091 kJ/mol
# GULP energy per Si atom -5595.873381 kJ/mol
# Density = 2.274627 g / cm^3
# Si number density = 22.798159 Si / 1000 Ang^3
#
#
#
# Elastic Constant Matrix: (Units=GPa)
#
#
# Indices 1 2 3 4 5 6 
#
# 1 43.0763 12.2777 13.7148 0.0000 0.0000 0.0000
# 2 12.2777 112.2435 14.1826 0.0000 0.0000 0.0000
# 3 13.7148 14.1826 93.1322 0.0000 0.0000 0.0000
# 4 0.0000 0.0000 0.0000 41.7397 0.0000 0.0000
# 5 0.0000 0.0000 0.0000 0.0000 4.2274 0.0000
# 6 0.0000 0.0000 0.0000 0.0000 0.0000 26.9189
#
#
#
# Elastic Compliance Matrix: (Units=1/GPa)
#
#
# Indices 1 2 3 4 5 6 
#
# 1 0.024929 -0.002307 -0.003320 0.000000 0.000000 0.000000
# 2 -0.002307 0.009298 -0.001076 0.000000 0.000000 0.000000
# 3 -0.003320 -0.001076 0.011390 0.000000 0.000000 0.000000
# 4 0.000000 0.000000 0.000000 0.023958 0.000000 0.000000
# 5 0.000000 0.000000 0.000000 0.000000 0.236554 0.000000
# 6 0.000000 0.000000 0.000000 0.000000 0.000000 0.037149
#
#
# Mechanical properties :
#
#
# Convention : Reuss Voigt Hill
#
# Bulk Modulus (GPa) = 31.04578 36.53359 33.78969
# Shear Modulus (GPa) = 13.60837 28.46231 21.03534
#
# Velocity S-wave (km/s) = 2.44582 3.53717 3.04086
# Velocity P-wave (km/s) = 4.65008 5.72204 5.21368
#
# Compressibility (1/GPa) = 0.03221050
#
# Stress axis : x y z
#
# Youngs Moduli (GPa) = 40.11356 107.55499 87.79507
#
# Poissons Ratio (x) = 0.24817 0.29146
# Poissons Ratio (y) = 0.09256 0.09448
# Poissons Ratio (z) = 0.13317 0.11574
#
# Static dielectric constant tensor:
#      x y z
#    x 1.897210 0.000000 0.000000 
#    y 0.000000 1.789060 0.000000 
#    z 0.000000 0.000000 1.815860 
# 
# From -- ./inp_files/16233.got.cif
#   From: 2010.05.17/outbox.cif.g08.bks.cpg/sg46_9_cif.got.tgz:16233.got - 2010.06.03 19:58:25.
