data_PCOD9379402
_publ_section_title
;
Structure prediction by ZEFSAII (Michael W. Deem and Ramdas Pophale) SiO2 
 PCOD9379402
Probable space group: I M A 2
;
_chemical_formula_sum "Si O2"
_cell_formula_units_Z 48
_cell_length_a 8.441858
_cell_length_b 9.549313
_cell_length_c 32.494543
_cell_angle_alpha 90.000000
_cell_angle_beta 90.000000
_cell_angle_gamma 90.000000
_cell_volume 2619.513281
_symmetry_space_group_name_H-M "I M A 2"
_symmetry_group_IT_number 46
_symmetry_cell_setting 'orthorhombic'
loop_
_space_group_symop_operation_xyz
x,y,z
-x,-y,z
1/2-x,y,z
1/2+x,-y,z
1/2+x,1/2+y,1/2+z
1/2-x,1/2-y,1/2+z
-x,1/2+y,1/2+z
x,1/2-y,1/2+z
loop_
_atom_site_type_symbol
_atom_site_label
_atom_site_fract_x
_atom_site_fract_y
_atom_site_fract_z
Si Si1 0.559591 0.658131 0.755840
Si Si2 0.061324 0.841050 0.166432
Si Si3 0.941644 0.840565 0.833189
Si Si4 0.558277 0.659994 0.512641
Si Si5 0.940132 0.841495 0.590601
Si Si6 0.941042 0.660192 0.422639
O O1 0.500000 0.500000 0.761384
O O2 0.750000 0.658334 0.754648
O O3 0.497129 0.706856 0.711454
O O4 0.504065 0.751459 0.794147
O O5 0.250000 0.843933 0.165974
O O6 0.998642 0.741427 0.130655
O O7 0.000000 0.000000 0.160201
O O8 0.750000 0.841511 0.832672
O O9 0.992932 0.781503 0.878161
O O10 0.000000 0.000000 0.829955
O O11 0.500000 0.500000 0.517531
O O12 0.750000 0.656565 0.513251
O O13 0.504024 0.757017 0.550045
O O14 0.506955 0.715605 0.467348
O O15 0.750000 0.841770 0.590561
O O16 0.000000 0.000000 0.590363
O O17 0.750000 0.662110 0.422682
O O18 0.000000 0.500000 0.422429
#
# Coordination Sequence:
#
# PCOD9379402 Si02
#       6
#     8   8   8   8   8   8
#     4  10  20  35  53  76 104 136 172 212 254 303
#     4  11  22  38  59  80 102 134 173 216 259 309
#     4   9  18  31  51  76 104 135 170 210 254 301
#     4   9  18  32  54  78 102 133 172 212 253 301
#     4  11  23  38  54  77 107 139 172 213 262 312
#     4   8  14  28  48  73 101 131 167 209 250 294
#
# _framework density 18.324014999999999
#
# number of rings (size 3 to 8) (size 9 to 14) (size 15 to 20)
#    0.000    2.333    0.000    4.000    0.000    4.667 
#    0.000    2.500    0.000    0.000    0.000    0.000 
#    0.000    0.000    0.000    0.000    0.000    0.000 
#
# Total GULP energy -133814.629093 kJ/mol
# GULP energy per Si atom -5575.609546 kJ/mol
# Density = 1.828231 g / cm^3
# Si number density = 18.324015 Si / 1000 Ang^3
#
#
#
# Elastic Constant Matrix: (Units=GPa)
#
#
# Indices 1 2 3 4 5 6 
#
# 1 47.8304 18.8043 37.5283 0.0000 0.0000 0.0000
# 2 18.8043 75.3538 101.9046 0.0000 0.0000 0.0000
# 3 37.5283 101.9046 240.2350 0.0000 0.0000 0.0000
# 4 0.0000 0.0000 0.0000 31.1465 0.0000 0.0000
# 5 0.0000 0.0000 0.0000 0.0000 29.2443 0.0000
# 6 0.0000 0.0000 0.0000 0.0000 0.0000 25.5100
#
#
#
# Elastic Compliance Matrix: (Units=1/GPa)
#
#
# Indices 1 2 3 4 5 6 
#
# 1 0.023976 -0.002153 -0.002832 0.000000 0.000000 0.000000
# 2 -0.002153 0.031320 -0.012949 0.000000 0.000000 0.000000
# 3 -0.002832 -0.012949 0.010098 0.000000 0.000000 0.000000
# 4 0.000000 0.000000 0.000000 0.032106 0.000000 0.000000
# 5 0.000000 0.000000 0.000000 0.000000 0.034195 0.000000
# 6 0.000000 0.000000 0.000000 0.000000 0.000000 0.039200
#
#
# Mechanical properties :
#
#
# Convention : Reuss Voigt Hill
#
# Bulk Modulus (GPa) = 33.86988 75.54375 54.70681
# Shear Modulus (GPa) = 23.08352 30.85896 26.97124
#
# Velocity S-wave (km/s) = 3.55313 4.10820 3.84071
# Velocity P-wave (km/s) = 5.94618 7.98869 7.04188
#
# Compressibility (1/GPa) = 0.02952476
#
# Stress axis : x y z
#
# Youngs Moduli (GPa) = 41.70883 31.92877 99.03124
#
# Poissons Ratio (x) = 0.06875 0.28046
# Poissons Ratio (y) = 0.08981 1.28236
# Poissons Ratio (z) = 0.11812 0.41345
#
# Static dielectric constant tensor:
#      x y z
#    x 1.619260 0.000000 0.000000 
#    y 0.000000 1.572680 0.000000 
#    z 0.000000 0.000000 1.683090 
# 
# From -- ./inp_files/25002.got.cif
#   From: 2010.05.17/outbox.cif.g08.bks.cpg/sg46_13_cif.got.tgz:25002.got - 2010.06.03 19:58:25.
