data_PCOD9379512
_publ_section_title
;
Structure prediction by ZEFSAII (Michael W. Deem and Ramdas Pophale) SiO2 
 PCOD9379512
Probable space group: I M A 2
;
_chemical_formula_sum "Si O2"
_cell_formula_units_Z 64
_cell_length_a 25.253799
_cell_length_b 13.222070
_cell_length_c 9.190029
_cell_angle_alpha 90.000000
_cell_angle_beta 90.000000
_cell_angle_gamma 90.000000
_cell_volume 3068.619591
_symmetry_space_group_name_H-M "I M A 2"
_symmetry_group_IT_number 46
_symmetry_cell_setting 'orthorhombic'
loop_
_space_group_symop_operation_xyz
x,y,z
-x,-y,z
1/2-x,y,z
1/2+x,-y,z
1/2+x,1/2+y,1/2+z
1/2-x,1/2-y,1/2+z
-x,1/2+y,1/2+z
x,1/2-y,1/2+z
loop_
_atom_site_type_symbol
_atom_site_label
_atom_site_fract_x
_atom_site_fract_y
_atom_site_fract_z
Si Si1 0.605678 0.999676 0.972060
Si Si2 0.957346 0.821158 0.016579
Si Si3 0.440376 0.681198 0.009193
Si Si4 0.615499 0.327517 0.708249
Si Si5 0.896346 0.003127 0.644846
Si Si6 0.810583 0.874182 0.148809
Si Si7 0.894623 0.727946 0.244139
Si Si8 0.689652 0.452357 0.894229
O O1 0.550591 0.937241 0.973103
O O2 0.615188 0.039667 0.809961
O O3 0.653691 0.925531 0.022615
O O4 0.603997 0.083806 0.094349
O O5 0.913212 0.772682 0.909774
O O6 0.011089 0.759228 0.013865
O O7 0.934717 0.808841 0.176290
O O8 0.425706 0.674221 0.840577
O O9 0.393148 0.729644 0.108092
O O10 0.444739 0.569547 0.079243
O O11 0.668777 0.358182 0.795325
O O12 0.849616 0.023368 0.528004
O O13 0.903790 0.882588 0.672328
O O14 0.750000 0.860616 0.102967
O O15 0.837252 0.771002 0.205917
O O16 0.812255 0.952367 0.283986
O O17 0.750000 0.436714 0.941612
#
# Coordination Sequence:
#
# PCOD9379512 Si02
#       8
#     8   8   8   8   8   8   8   8
#     4   9  20  38  59  86 122 152 190 249 300 349
#     4  10  21  37  57  81 114 155 196 242 297 356
#     4  11  22  38  60  83 113 156 203 242 292 355
#     4  10  21  39  61  87 115 150 196 248 295 346
#     4  10  21  36  56  85 120 153 192 246 296 348
#     4   9  18  35  60  87 119 161 198 234 293 362
#     4  10  20  36  55  85 122 152 193 246 295 350
#     4   9  19  37  60  87 119 156 198 243 296 355
#
# _framework density 20.856283000000001
#
# number of rings (size 3 to 8) (size 9 to 14) (size 15 to 20)
#    0.000    2.250    0.000    2.250    0.000    3.000 
#    0.000   16.250    0.000    3.000    0.000    0.000 
#    0.000    0.000    0.000    0.000    0.000    0.000 
#
# Total GULP energy -178233.296182 kJ/mol
# GULP energy per Si atom -5569.790506 kJ/mol
# Density = 2.080881 g / cm^3
# Si number density = 20.856283 Si / 1000 Ang^3
#
#
#
# Elastic Constant Matrix: (Units=GPa)
#
#
# Indices 1 2 3 4 5 6 
#
# 1 57.8703 28.3094 6.1328 0.0000 0.0000 0.0000
# 2 28.3094 64.2163 8.8938 0.0000 0.0000 0.0000
# 3 6.1328 8.8938 113.4465 0.0000 0.0000 0.0000
# 4 0.0000 0.0000 0.0000 33.5993 0.0000 0.0000
# 5 0.0000 0.0000 0.0000 0.0000 12.3956 0.0000
# 6 0.0000 0.0000 0.0000 0.0000 0.0000 12.9415
#
#
#
# Elastic Compliance Matrix: (Units=1/GPa)
#
#
# Indices 1 2 3 4 5 6 
#
# 1 0.022052 -0.009661 -0.000435 0.000000 0.000000 0.000000
# 2 -0.009661 0.019976 -0.001044 0.000000 0.000000 0.000000
# 3 -0.000435 -0.001044 0.008920 0.000000 0.000000 0.000000
# 4 0.000000 0.000000 0.000000 0.029763 0.000000 0.000000
# 5 0.000000 0.000000 0.000000 0.000000 0.080674 0.000000
# 6 0.000000 0.000000 0.000000 0.000000 0.000000 0.077271
#
#
# Mechanical properties :
#
#
# Convention : Reuss Voigt Hill
#
# Bulk Modulus (GPa) = 34.88127 35.80057 35.34092
# Shear Modulus (GPa) = 18.48484 24.60041 21.54262
#
# Velocity S-wave (km/s) = 2.98030 3.43814 3.21738
# Velocity P-wave (km/s) = 5.34825 5.74140 5.54831
#
# Compressibility (1/GPa) = 0.02866868
#
# Stress axis : x y z
#
# Youngs Moduli (GPa) = 45.34665 50.05972 112.10695
#
# Poissons Ratio (x) = 0.48365 0.04873
# Poissons Ratio (y) = 0.43811 0.11701
# Poissons Ratio (z) = 0.01971 0.05225
#
# Static dielectric constant tensor:
#      x y z
#    x 1.789410 0.000000 0.000000 
#    y 0.000000 1.824740 0.000000 
#    z 0.000000 0.000000 1.723730 
# 
# From -- ./inp_files/7977.got.cif
#   From: 2010.05.17/outbox.cif.g08.bks.cpg/sg46_4_cif.got.tgz:7977.got - 2010.06.03 19:58:25.
