data_PCOD9379148
_publ_section_title
;
Structure prediction by ZEFSAII (Michael W. Deem and Ramdas Pophale) SiO2 
 PCOD9379148
Probable space group: I M A 2
;
_chemical_formula_sum "Si O2"
_cell_formula_units_Z 28
_cell_length_a 13.127896
_cell_length_b 9.771628
_cell_length_c 8.661269
_cell_angle_alpha 90.000000
_cell_angle_beta 90.000000
_cell_angle_gamma 90.000000
_cell_volume 1111.075522
_symmetry_space_group_name_H-M "I M A 2"
_symmetry_group_IT_number 46
_symmetry_cell_setting 'orthorhombic'
loop_
_space_group_symop_operation_xyz
x,y,z
-x,-y,z
1/2-x,y,z
1/2+x,-y,z
1/2+x,1/2+y,1/2+z
1/2-x,1/2-y,1/2+z
-x,1/2+y,1/2+z
x,1/2-y,1/2+z
loop_
_atom_site_type_symbol
_atom_site_label
_atom_site_fract_x
_atom_site_fract_y
_atom_site_fract_z
Si Si1 0.113430 0.548625 0.614930
Si Si2 0.000000 0.500000 0.056861
Si Si3 0.364116 0.191016 0.338372
Si Si4 0.078457 0.685114 0.301938
O O1 0.000000 0.500000 0.588455
O O2 0.848842 0.593287 0.688815
O O3 0.134153 0.622892 0.451244
O O4 0.118398 0.666865 0.745844
O O5 0.919760 0.413192 0.156088
O O6 0.074023 0.403731 0.958016
O O7 0.250000 0.237077 0.383620
O O8 0.453508 0.302874 0.317491
#
# Coordination Sequence:
#
# PCOD9379148 Si02
#       4
#     8   4   8   8
#     4  10  19  38  63  90 127 173 210 263 328 382
#     4  12  22  40  66  96 138 172 210 272 336 386
#     4  11  24  43  68  98 130 169 223 276 321 386
#     4  11  20  39  68  92 128 179 213 260 333 389
#
# _framework density 25.200807999999999
#
# number of rings (size 3 to 8) (size 9 to 14) (size 15 to 20)
#    0.000    1.143    8.571    0.000    0.000    1.143 
#    0.000    7.143    0.000    0.000    0.000    0.000 
#    0.000    0.000    0.000    0.000    0.000    0.000 
#
# Total GULP energy -78001.453248 kJ/mol
# GULP energy per Si atom -5571.532375 kJ/mol
# Density = 2.514345 g / cm^3
# Si number density = 25.200808 Si / 1000 Ang^3
#
#
#
# Elastic Constant Matrix: (Units=GPa)
#
#
# Indices 1 2 3 4 5 6 
#
# 1 121.9905 -10.3493 23.0595 0.0000 0.0000 0.0000
# 2 -10.3493 49.1908 16.7114 0.0000 0.0000 0.0000
# 3 23.0595 16.7114 125.6453 0.0000 0.0000 0.0000
# 4 0.0000 0.0000 0.0000 57.2629 0.0000 0.0000
# 5 0.0000 0.0000 0.0000 0.0000 -2.4892 0.0000
# 6 0.0000 0.0000 0.0000 0.0000 0.0000 105.2881
#
#
#
# Elastic Compliance Matrix: (Units=1/GPa)
#
#
# Indices 1 2 3 4 5 6 
#
# 1 0.008778 0.002507 -0.001944 0.000000 0.000000 0.000000
# 2 0.002507 0.022007 -0.003387 0.000000 0.000000 0.000000
# 3 -0.001944 -0.003387 0.008766 0.000000 0.000000 0.000000
# 4 0.000000 0.000000 0.000000 0.017463 0.000000 0.000000
# 5 0.000000 0.000000 0.000000 0.000000 -0.401742 0.000000
# 6 0.000000 0.000000 0.000000 0.000000 0.000000 0.009498
#
#
# Mechanical properties :
#
#
# Convention : Reuss Voigt Hill
#
# Bulk Modulus (GPa) = 29.49641 39.51886 34.50763
# Shear Modulus (GPa) = -15.70942 49.83937 17.06497
#
# Velocity S-wave (km/s) = -2.49945 4.45195 2.60505
# Velocity P-wave (km/s) = 1.84399 6.49169 4.77192
#
# Compressibility (1/GPa) = 0.03390244
#
# Stress axis : x y z
#
# Youngs Moduli (GPa) = 113.92613 45.43963 114.07339
#
# Poissons Ratio (x) = -0.11393 0.22181
# Poissons Ratio (y) = -0.28565 0.38639
# Poissons Ratio (z) = 0.22152 0.15391
#
# Static dielectric constant tensor:
#      x y z
#    x 1.606200 0.000000 0.000000 
#    y 0.000000 2.027950 0.000000 
#    z 0.000000 0.000000 2.084190 
# 
# From -- ./inp_files/5175.got.cif
#   From: 2010.05.17/outbox.cif.g08.bks.cpg/sg46_3_cif.got.tgz:5175.got - 2010.06.03 19:58:25.
