data_PCOD9379418
_publ_section_title
;
Structure prediction by ZEFSAII (Michael W. Deem and Ramdas Pophale) SiO2 
 PCOD9379418
Probable space group: I M A 2
;
_chemical_formula_sum "Si O2"
_cell_formula_units_Z 52
_cell_length_a 13.217272
_cell_length_b 17.905903
_cell_length_c 12.552133
_cell_angle_alpha 90.000000
_cell_angle_beta 90.000000
_cell_angle_gamma 90.000000
_cell_volume 2970.678050
_symmetry_space_group_name_H-M "I M A 2"
_symmetry_group_IT_number 46
_symmetry_cell_setting 'orthorhombic'
loop_
_space_group_symop_operation_xyz
x,y,z
-x,-y,z
1/2-x,y,z
1/2+x,-y,z
1/2+x,1/2+y,1/2+z
1/2-x,1/2-y,1/2+z
-x,1/2+y,1/2+z
x,1/2-y,1/2+z
loop_
_atom_site_type_symbol
_atom_site_label
_atom_site_fract_x
_atom_site_fract_y
_atom_site_fract_z
Si Si1 0.369487 0.122909 0.271200
Si Si2 0.058803 0.116151 0.511181
Si Si3 0.371067 0.876224 0.032075
Si Si4 0.131991 0.641628 0.281896
Si Si5 0.134685 0.959013 0.581009
Si Si6 0.502542 0.746609 0.652389
Si Si7 0.500000 0.000000 0.153750
O O1 0.250000 0.117527 0.254249
O O2 0.393943 0.128256 0.396192
O O3 0.417513 0.192869 0.209098
O O4 0.427916 0.051112 0.225797
O O5 0.943029 0.085919 0.506235
O O6 0.055967 0.191758 0.578386
O O7 0.113906 0.046853 0.569606
O O8 0.250000 0.876840 0.052578
O O9 0.424863 0.803646 0.083435
O O10 0.428443 0.946596 0.083465
O O11 0.386727 0.876572 0.904760
O O12 0.250000 0.663296 0.271674
O O13 0.116281 0.572427 0.200257
O O14 0.061366 0.707605 0.239672
O O15 0.250000 0.942892 0.552287
#
# Coordination Sequence:
#
# PCOD9379418 Si02
#       7
#     8   8   8   8   8   8   4
#     4  11  23  38  55  76 104 137 174 216 262 314
#     4  10  20  35  55  78 106 138 174 216 261 306
#     4  10  20  35  56  79 106 140 174 214 262 308
#     4   9  18  34  56  82 109 138 175 216 257 303
#     4   9  18  33  55  81 107 136 174 218 259 303
#     4  10  21  36  53  78 108 140 175 214 257 309
#     4  10  22  38  56  78 104 134 174 218 264 312
#
# _framework density 17.504421000000001
#
# number of rings (size 3 to 8) (size 9 to 14) (size 15 to 20)
#    0.000    2.154    0.000    3.231    0.000    4.308 
#    0.000    3.846    0.000    4.615    0.000    0.000 
#    0.000    0.000    0.000    0.000    0.000    0.000 
#
# Total GULP energy -145082.508938 kJ/mol
# GULP energy per Si atom -5580.096498 kJ/mol
# Density = 1.746458 g / cm^3
# Si number density = 17.504421 Si / 1000 Ang^3
#
#
#
# Elastic Constant Matrix: (Units=GPa)
#
#
# Indices 1 2 3 4 5 6 
#
# 1 129.2968 61.2040 71.1129 0.0000 0.0000 0.0000
# 2 61.2040 130.5894 62.0857 0.0000 0.0000 0.0000
# 3 71.1129 62.0857 96.1941 0.0000 0.0000 0.0000
# 4 0.0000 0.0000 0.0000 14.5765 0.0000 0.0000
# 5 0.0000 0.0000 0.0000 0.0000 28.3643 0.0000
# 6 0.0000 0.0000 0.0000 0.0000 0.0000 10.7730
#
#
#
# Elastic Compliance Matrix: (Units=1/GPa)
#
#
# Indices 1 2 3 4 5 6 
#
# 1 0.013488 -0.002281 -0.008499 0.000000 0.000000 0.000000
# 2 -0.002281 0.011433 -0.005693 0.000000 0.000000 0.000000
# 3 -0.008499 -0.005693 0.020353 0.000000 0.000000 0.000000
# 4 0.000000 0.000000 0.000000 0.068603 0.000000 0.000000
# 5 0.000000 0.000000 0.000000 0.000000 0.035256 0.000000
# 6 0.000000 0.000000 0.000000 0.000000 0.000000 0.092825
#
#
# Mechanical properties :
#
#
# Convention : Reuss Voigt Hill
#
# Bulk Modulus (GPa) = 81.11383 82.76506 81.93945
# Shear Modulus (GPa) = 17.92018 21.52129 19.72074
#
# Velocity S-wave (km/s) = 3.20308 3.51019 3.36015
# Velocity P-wave (km/s) = 7.75366 7.98834 7.87188
#
# Compressibility (1/GPa) = 0.01232835
#
# Stress axis : x y z
#
# Youngs Moduli (GPa) = 74.13736 87.46450 49.13182
#
# Poissons Ratio (x) = 0.19949 0.41759
# Poissons Ratio (y) = 0.16910 0.27971
# Poissons Ratio (z) = 0.63013 0.49794
#
# Static dielectric constant tensor:
#      x y z
#    x 1.590270 0.000000 0.000000 
#    y 0.000000 1.583440 0.000000 
#    z 0.000000 0.000000 1.571340 
# 
# From -- ./inp_files/11227.got.cif
#   From: 2010.05.17/outbox.cif.g08.bks.cpg/sg46_6_cif.got.tgz:11227.got - 2010.06.03 19:58:25.
