data_PCOD9379603
_publ_section_title
;
Structure prediction by ZEFSAII (Michael W. Deem and Ramdas Pophale) SiO2 
 PCOD9379603
Probable space group: I M A 2
;
_chemical_formula_sum "Si O2"
_cell_formula_units_Z 64
_cell_length_a 13.666362
_cell_length_b 12.449678
_cell_length_c 18.940027
_cell_angle_alpha 90.000000
_cell_angle_beta 90.000000
_cell_angle_gamma 90.000000
_cell_volume 3222.490406
_symmetry_space_group_name_H-M "I M A 2"
_symmetry_group_IT_number 46
_symmetry_cell_setting 'orthorhombic'
loop_
_space_group_symop_operation_xyz
x,y,z
-x,-y,z
1/2-x,y,z
1/2+x,-y,z
1/2+x,1/2+y,1/2+z
1/2-x,1/2-y,1/2+z
-x,1/2+y,1/2+z
x,1/2-y,1/2+z
loop_
_atom_site_type_symbol
_atom_site_label
_atom_site_fract_x
_atom_site_fract_y
_atom_site_fract_z
Si Si1 0.575114 0.855173 0.443480
Si Si2 0.969562 0.882533 0.732888
Si Si3 0.640466 0.287088 0.757143
Si Si4 0.437457 0.271685 0.092504
Si Si5 0.365222 0.368174 0.379652
Si Si6 0.861983 0.091312 0.402681
Si Si7 0.362397 0.673721 0.598321
Si Si8 0.132330 0.447810 0.530369
O O1 0.602402 0.837095 0.525419
O O2 0.613012 0.755984 0.397618
O O3 0.456665 0.856748 0.439784
O O4 0.619088 0.964921 0.413332
O O5 0.914996 0.821336 0.668751
O O6 0.911198 0.898664 0.805306
O O7 0.061076 0.806948 0.754165
O O8 0.000000 0.000000 0.706113
O O9 0.750000 0.240318 0.762914
O O10 0.627933 0.367900 0.822115
O O11 0.635035 0.347745 0.682347
O O12 0.555966 0.264174 0.087285
O O13 0.402340 0.149547 0.080205
O O14 0.250000 0.385734 0.375195
O O15 0.402143 0.428422 0.450140
O O16 0.750000 0.117711 0.425176
O O17 0.250000 0.702436 0.579927
O O18 0.392143 0.565996 0.557546
O O19 0.250000 0.441609 0.529643
#
# Coordination Sequence:
#
# PCOD9379603 Si02
#       8
#     8   8   8   8   8   8   8   8
#     4  10  21  37  60  87 120 153 189 243 296 349
#     4  11  24  39  58  83 114 158 200 239 285 352
#     4   9  19  39  61  87 118 146 187 245 298 344
#     4  10  22  37  58  83 122 156 193 238 289 350
#     4  10  21  39  59  84 117 152 193 242 292 348
#     4  10  20  36  61  89 115 151 193 237 294 349
#     4   9  18  35  61  90 118 150 191 243 293 342
#     4   9  19  37  60  87 116 150 193 243 296 344
#
# _framework density 19.860416000000001
#
# number of rings (size 3 to 8) (size 9 to 14) (size 15 to 20)
#    0.000    2.250    1.250    0.750    1.750    5.000 
#    2.250    1.250    0.000    0.000    0.000    0.000 
#    0.000    0.000    0.000    0.000    0.000    0.000 
#
# Total GULP energy -178464.332263 kJ/mol
# GULP energy per Si atom -5577.010383 kJ/mol
# Density = 1.981521 g / cm^3
# Si number density = 19.860416 Si / 1000 Ang^3
#
#
#
# Elastic Constant Matrix: (Units=GPa)
#
#
# Indices 1 2 3 4 5 6 
#
# 1 43.8340 7.6865 14.5502 0.0000 0.0000 0.0000
# 2 7.6865 43.4450 27.7476 0.0000 0.0000 0.0000
# 3 14.5502 27.7476 78.3436 0.0000 0.0000 0.0000
# 4 0.0000 0.0000 0.0000 14.8603 0.0000 0.0000
# 5 0.0000 0.0000 0.0000 0.0000 26.2632 0.0000
# 6 0.0000 0.0000 0.0000 0.0000 0.0000 13.6395
#
#
#
# Elastic Compliance Matrix: (Units=1/GPa)
#
#
# Indices 1 2 3 4 5 6 
#
# 1 0.024426 -0.001841 -0.003885 0.000000 0.000000 0.000000
# 2 -0.001841 0.029885 -0.010243 0.000000 0.000000 0.000000
# 3 -0.003885 -0.010243 0.017114 0.000000 0.000000 0.000000
# 4 0.000000 0.000000 0.000000 0.067293 0.000000 0.000000
# 5 0.000000 0.000000 0.000000 0.000000 0.038076 0.000000
# 6 0.000000 0.000000 0.000000 0.000000 0.000000 0.073316
#
#
# Mechanical properties :
#
#
# Convention : Reuss Voigt Hill
#
# Bulk Modulus (GPa) = 25.32384 29.51012 27.41698
# Shear Modulus (GPa) = 16.93717 18.66181 17.79949
#
# Velocity S-wave (km/s) = 2.92346 3.06869 2.99696
# Velocity P-wave (km/s) = 4.91671 5.23898 5.08040
#
# Compressibility (1/GPa) = 0.03948848
#
# Stress axis : x y z
#
# Youngs Moduli (GPa) = 40.94078 33.46146 58.43337
#
# Poissons Ratio (x) = 0.06159 0.22698
# Poissons Ratio (y) = 0.07535 0.59852
# Poissons Ratio (z) = 0.15903 0.34274
#
# Static dielectric constant tensor:
#      x y z
#    x 1.740150 0.000000 0.000000 
#    y 0.000000 1.674060 0.000000 
#    z 0.000000 0.000000 1.697420 
# 
# From -- ./inp_files/19617.got.cif
#   From: 2010.05.17/outbox.cif.g08.bks.cpg/sg46_10_cif.got.tgz:19617.got - 2010.06.03 19:58:25.
