data_PCOD9379579
_publ_section_title
;
Structure prediction by ZEFSAII (Michael W. Deem and Ramdas Pophale) SiO2 
 PCOD9379579
Probable space group: I M A 2
;
_chemical_formula_sum "Si O2"
_cell_formula_units_Z 64
_cell_length_a 8.723158
_cell_length_b 31.613249
_cell_length_c 12.167649
_cell_angle_alpha 90.000000
_cell_angle_beta 90.000000
_cell_angle_gamma 90.000000
_cell_volume 3355.440514
_symmetry_space_group_name_H-M "I M A 2"
_symmetry_group_IT_number 46
_symmetry_cell_setting 'orthorhombic'
loop_
_space_group_symop_operation_xyz
x,y,z
-x,-y,z
1/2-x,y,z
1/2+x,-y,z
1/2+x,1/2+y,1/2+z
1/2-x,1/2-y,1/2+z
-x,1/2+y,1/2+z
x,1/2-y,1/2+z
loop_
_atom_site_type_symbol
_atom_site_label
_atom_site_fract_x
_atom_site_fract_y
_atom_site_fract_z
Si Si1 0.566321 0.875669 0.157380
Si Si2 0.434954 0.373520 0.402591
Si Si3 0.068232 0.068049 0.517549
Si Si4 0.434833 0.044427 0.764007
Si Si5 0.566513 0.297877 0.791800
Si Si6 0.065940 0.798304 0.759163
Si Si7 0.431771 0.544132 0.786683
Si Si8 0.432098 0.839725 0.525334
O O1 0.750000 0.878435 0.163156
O O2 0.511739 0.832408 0.214177
O O3 0.496837 0.915398 0.222483
O O4 0.518637 0.876433 0.029732
O O5 0.250000 0.372659 0.398462
O O6 0.486237 0.414891 0.334069
O O7 0.496163 0.331328 0.344942
O O8 0.250000 0.061130 0.503963
O O9 0.019216 0.050601 0.636456
O O10 0.980975 0.048808 0.413965
O O11 0.030233 0.117807 0.518761
O O12 0.250000 0.043254 0.767375
O O13 0.500000 0.000000 0.805213
O O14 0.750000 0.299451 0.771675
O O15 0.513074 0.249924 0.773550
O O16 0.540679 0.311834 0.917484
O O17 0.250000 0.798562 0.773014
O O18 0.031950 0.814916 0.636781
O O19 0.500000 0.500000 0.743962
O O20 0.250000 0.543622 0.778475
O O21 0.250000 0.850899 0.526791
#
# Coordination Sequence:
#
# PCOD9379579 Si02
#       8
#     8   8   8   8   8   8   8   8
#     4  11  24  42  63  88 120 159 206 252 301 361
#     4  10  23  43  61  85 122 159 200 254 304 356
#     4  11  21  37  62  91 124 159 199 246 301 359
#     4  10  22  39  60  87 119 155 194 244 299 355
#     4  10  22  39  61  90 124 159 200 252 304 357
#     4  10  22  38  62  92 122 161 204 248 300 362
#     4  12  25  42  64  91 124 159 200 249 301 359
#     4  10  20  36  59  90 124 159 200 251 304 355
#
# _framework density 19.073501
#
# number of rings (size 3 to 8) (size 9 to 14) (size 15 to 20)
#    0.000    1.500    2.500    2.250    1.750    4.500 
#    0.000    1.250    0.000    0.000    0.000    0.000 
#    0.000    0.000    0.000    0.000    0.000    0.000 
#
# Total GULP energy -178870.317999 kJ/mol
# GULP energy per Si atom -5589.697437 kJ/mol
# Density = 1.903009 g / cm^3
# Si number density = 19.073501 Si / 1000 Ang^3
#
#
#
# Elastic Constant Matrix: (Units=GPa)
#
#
# Indices 1 2 3 4 5 6 
#
# 1 39.9129 42.6676 43.6923 -0.0003 -0.0001 0.0000
# 2 42.6676 179.1317 71.9267 0.0001 -0.0001 0.0000
# 3 43.6923 71.9267 135.5454 0.0002 -0.0004 0.0000
# 4 -0.0003 0.0001 0.0002 57.8119 0.0005 -0.0001
# 5 -0.0001 -0.0001 -0.0004 0.0005 4.5983 0.0001
# 6 0.0000 0.0000 0.0000 -0.0001 0.0001 35.0854
#
#
#
# Elastic Compliance Matrix: (Units=1/GPa)
#
#
# Indices 1 2 3 4 5 6 
#
# 1 0.043222 -0.005974 -0.010763 0.000000 0.000000 0.000000
# 2 -0.005974 0.007920 -0.002277 0.000000 0.000000 0.000000
# 3 -0.010763 -0.002277 0.012055 0.000000 0.000001 0.000000
# 4 0.000000 0.000000 0.000000 0.017297 -0.000002 0.000000
# 5 0.000000 0.000000 0.000001 -0.000002 0.217474 -0.000001
# 6 0.000000 0.000000 0.000000 0.000000 -0.000001 0.028502
#
#
# Mechanical properties :
#
#
# Convention : Reuss Voigt Hill
#
# Bulk Modulus (GPa) = 39.72883 74.57367 57.15125
# Shear Modulus (GPa) = 13.40890 32.58600 22.99745
#
# Velocity S-wave (km/s) = 2.65431 4.13782 3.47613
# Velocity P-wave (km/s) = 5.50167 7.87475 6.79264
#
# Compressibility (1/GPa) = 0.02517064
#
# Stress axis : x y z
#
# Youngs Moduli (GPa) = 23.13626 126.26878 82.95243
#
# Poissons Ratio (x) = 0.75429 0.89278
# Poissons Ratio (y) = 0.13821 0.18888
# Poissons Ratio (z) = 0.24900 0.28751
#
# Static dielectric constant tensor:
#      x y z
#    x 1.647530 0.000000 0.000000 
#    y 0.000000 1.638580 0.000000 
#    z 0.000000 0.000000 1.648130 
# 
# From -- ./inp_files/9688.got.cif
#   From: 2010.05.17/outbox.cif.g08.bks.cpg/sg46_5_cif.got.tgz:9688.got - 2010.06.03 19:58:25.
