data_PCOD9379154
_publ_section_title
;
Structure prediction by ZEFSAII (Michael W. Deem and Ramdas Pophale) SiO2 
 PCOD9379154
Probable space group: I M A 2
;
_chemical_formula_sum "Si O2"
_cell_formula_units_Z 64
_cell_length_a 16.172413
_cell_length_b 17.108661
_cell_length_c 9.833221
_cell_angle_alpha 90.000000
_cell_angle_beta 90.000000
_cell_angle_gamma 90.000000
_cell_volume 2720.737512
_symmetry_space_group_name_H-M "I M A 2"
_symmetry_group_IT_number 46
_symmetry_cell_setting 'orthorhombic'
loop_
_space_group_symop_operation_xyz
x,y,z
-x,-y,z
1/2-x,y,z
1/2+x,-y,z
1/2+x,1/2+y,1/2+z
1/2-x,1/2-y,1/2+z
-x,1/2+y,1/2+z
x,1/2-y,1/2+z
loop_
_atom_site_type_symbol
_atom_site_label
_atom_site_fract_x
_atom_site_fract_y
_atom_site_fract_z
Si Si1 0.351084 0.995405 0.524360
Si Si2 0.590954 0.259004 0.719644
Si Si3 0.648916 0.504595 0.334370
Si Si4 0.349018 0.080230 0.263460
Si Si5 0.844549 0.177683 0.477475
Si Si6 0.155451 0.177683 0.881255
Si Si7 0.909045 0.759004 0.139086
Si Si8 0.849018 0.419770 0.595271
O O1 0.250000 0.995950 0.525971
O O2 0.375764 0.910642 0.467669
O O3 0.379838 0.000000 0.679365
O O4 0.376471 0.061696 0.417904
O O5 0.651136 0.203757 0.633587
O O6 0.606600 0.264115 0.879503
O O7 0.500000 0.233072 0.679365
O O8 0.606781 0.346455 0.662712
O O9 0.750000 0.504051 0.332759
O O10 0.624235 0.589359 0.391061
O O11 0.623530 0.438305 0.440826
O O12 0.250000 0.096249 0.263323
O O13 0.393219 0.153545 0.196018
O O14 0.361076 0.000000 0.179365
O O15 0.750000 0.179036 0.429263
O O16 0.250000 0.179036 0.929467
O O17 0.151137 0.203757 0.725143
O O18 0.106600 0.235885 0.979227
O O19 0.750000 0.403751 0.595409
#
# Coordination Sequence:
#
# PCOD9379154 Si02
#       8
#     8   8   8   8   8   8   8   8
#     4   9  19  36  62  94 122 154 212 277 314 357
#     4  12  26  42  63  93 137 170 208 268 339 390
#     4   9  19  36  62  94 122 154 212 277 314 357
#     4  10  19  38  65  91 120 163 218 267 310 376
#     4  11  23  43  67  94 125 171 225 264 312 390
#     4  11  23  43  67  94 125 171 225 264 312 390
#     4  12  26  42  63  93 137 170 208 268 339 390
#     4  10  19  38  65  91 120 163 218 267 310 376
#
# _framework density 23.523033000000002
#
# number of rings (size 3 to 8) (size 9 to 14) (size 15 to 20)
#    0.000    1.500    2.500    3.000    3.500    0.500 
#    0.000    0.000    0.000    0.000    0.000    0.000 
#    0.000    0.000    0.000    0.000    0.000    0.000 
#
# Total GULP energy -179038.785554 kJ/mol
# GULP energy per Si atom -5594.962049 kJ/mol
# Density = 2.346949 g / cm^3
# Si number density = 23.523033 Si / 1000 Ang^3
#
#
#
# Elastic Constant Matrix: (Units=GPa)
#
#
# Indices 1 2 3 4 5 6 
#
# 1 34.5780 -9.1639 -0.9887 0.0000 0.0000 0.0000
# 2 -9.1639 47.0967 -11.0189 0.0000 0.0000 0.0000
# 3 -0.9887 -11.0189 108.6684 0.0000 0.0000 0.0000
# 4 0.0000 0.0000 0.0000 33.0909 0.0000 0.0000
# 5 0.0000 0.0000 0.0000 0.0000 17.8082 0.0000
# 6 0.0000 0.0000 0.0000 0.0000 0.0000 47.9459
#
#
#
# Elastic Compliance Matrix: (Units=1/GPa)
#
#
# Indices 1 2 3 4 5 6 
#
# 1 0.030579 0.006161 0.000903 0.000000 0.000000 0.000000
# 2 0.006161 0.022990 0.002387 0.000000 0.000000 0.000000
# 3 0.000903 0.002387 0.009453 0.000000 0.000000 0.000000
# 4 0.000000 0.000000 0.000000 0.030220 0.000000 0.000000
# 5 0.000000 0.000000 0.000000 0.000000 0.056154 0.000000
# 6 0.000000 0.000000 0.000000 0.000000 0.000000 0.020857
#
#
# Mechanical properties :
#
#
# Convention : Reuss Voigt Hill
#
# Bulk Modulus (GPa) = 12.20637 16.44444 14.32541
# Shear Modulus (GPa) = 27.98653 33.86998 30.92825
#
# Velocity S-wave (km/s) = 3.45302 3.79867 3.62996
# Velocity P-wave (km/s) = 4.59327 5.12307 4.86539
#
# Compressibility (1/GPa) = 0.08192443
#
# Stress axis : x y z
#
# Youngs Moduli (GPa) = 32.70241 43.49667 105.79109
#
# Poissons Ratio (x) = -0.26799 -0.09553
# Poissons Ratio (y) = -0.20149 -0.25255
# Poissons Ratio (z) = -0.02953 -0.10384
#
# Static dielectric constant tensor:
#      x y z
#    x 1.879260 0.000000 0.000000 
#    y 0.000000 1.854430 0.000000 
#    z 0.000000 0.000000 1.901830 
# 
# From -- ./inp_files/7550.got.cif
#   From: 2010.05.17/outbox.cif.g08.bks.cpg/sg46_4_cif.got.tgz:7550.got - 2010.06.03 19:58:25.
