data_PCOD9379993
_publ_section_title
;
Structure prediction by ZEFSAII (Michael W. Deem and Ramdas Pophale) SiO2 
 PCOD9379993
Probable space group: I M A 2
;
_chemical_formula_sum "Si O2"
_cell_formula_units_Z 48
_cell_length_a 8.770436
_cell_length_b 30.990240
_cell_length_c 10.049007
_cell_angle_alpha 90.000000
_cell_angle_beta 90.000000
_cell_angle_gamma 90.000000
_cell_volume 2731.299166
_symmetry_space_group_name_H-M "I M A 2"
_symmetry_group_IT_number 46
_symmetry_cell_setting 'orthorhombic'
loop_
_space_group_symop_operation_xyz
x,y,z
-x,-y,z
1/2-x,y,z
1/2+x,-y,z
1/2+x,1/2+y,1/2+z
1/2-x,1/2-y,1/2+z
-x,1/2+y,1/2+z
x,1/2-y,1/2+z
loop_
_atom_site_type_symbol
_atom_site_label
_atom_site_fract_x
_atom_site_fract_y
_atom_site_fract_z
Si Si1 0.932624 0.285578 0.564480
Si Si2 0.431558 0.953609 0.560265
Si Si3 0.433249 0.953120 0.870089
Si Si4 0.067854 0.117747 0.368046
Si Si5 0.433555 0.217252 0.358169
Si Si6 0.933205 0.620387 0.558392
O O1 0.750000 0.285127 0.567630
O O2 0.995893 0.250856 0.460665
O O3 0.999645 0.275853 0.710812
O O4 0.992791 0.333281 0.527400
O O5 0.250000 0.956403 0.553647
O O6 0.474110 0.945384 0.714794
O O7 0.489221 0.915849 0.465310
O O8 0.500000 0.000000 0.521583
O O9 0.250000 0.953554 0.881732
O O10 0.500000 0.000000 0.906343
O O11 0.503635 0.916325 0.962271
O O12 0.250000 0.113207 0.381430
O O13 0.028947 0.167717 0.397115
O O14 0.029130 0.110088 0.212819
O O15 0.250000 0.221116 0.353823
O O16 0.750000 0.623841 0.548303
#
# Coordination Sequence:
#
# PCOD9379993 Si02
#       6
#     8   8   8   8   8   8
#     4  11  22  37  58  85 114 145 185 234 279 326
#     4  10  21  36  56  80 109 142 179 222 270 322
#     4  10  21  37  56  81 110 143 183 227 274 327
#     4   9  20  37  57  80 107 140 181 222 266 321
#     4  10  21  39  59  81 112 150 187 226 276 336
#     4  10  21  38  58  81 110 146 184 225 275 332
#
# _framework density 17.574052999999999
#
# number of rings (size 3 to 8) (size 9 to 14) (size 15 to 20)
#    0.000    2.000    0.000    4.500    0.000    8.000 
#    0.000    3.333    0.000    0.000    0.000    0.000 
#    0.000    0.000    0.000    0.000    0.000    0.000 
#
# Total GULP energy -134046.978366 kJ/mol
# GULP energy per Si atom -5585.290765 kJ/mol
# Density = 1.753405 g / cm^3
# Si number density = 17.574053 Si / 1000 Ang^3
#
#
#
# Elastic Constant Matrix: (Units=GPa)
#
#
# Indices 1 2 3 4 5 6 
#
# 1 92.9939 82.9058 65.5740 0.0000 -0.0001 0.0000
# 2 82.9058 179.9315 130.7611 0.0001 0.0000 0.0000
# 3 65.5740 130.7611 111.2245 0.0002 0.0002 0.0000
# 4 0.0000 0.0001 0.0002 43.4370 0.0001 0.0000
# 5 -0.0001 0.0000 0.0002 0.0001 33.9768 0.0001
# 6 0.0000 0.0000 0.0000 0.0000 0.0001 37.3967
#
#
#
# Elastic Compliance Matrix: (Units=1/GPa)
#
#
# Indices 1 2 3 4 5 6 
#
# 1 0.018852 -0.004183 -0.006197 0.000000 0.000000 0.000000
# 2 -0.004183 0.039093 -0.043493 0.000000 0.000000 0.000000
# 3 -0.006197 -0.043493 0.063777 0.000000 0.000000 0.000000
# 4 0.000000 0.000000 0.000000 0.023022 0.000000 0.000000
# 5 0.000000 0.000000 0.000000 0.000000 0.029432 0.000000
# 6 0.000000 0.000000 0.000000 0.000000 0.000000 0.026740
#
#
# Mechanical properties :
#
#
# Convention : Reuss Voigt Hill
#
# Bulk Modulus (GPa) = 71.55186 104.73687 88.14436
# Shear Modulus (GPa) = 15.95807 29.95603 22.95705
#
# Velocity S-wave (km/s) = 3.01665 4.13311 3.61820
# Velocity P-wave (km/s) = 7.27574 9.08315 8.22922
#
# Compressibility (1/GPa) = 0.01397588
#
# Stress axis : x y z
#
# Youngs Moduli (GPa) = 53.04390 25.58021 15.67960
#
# Poissons Ratio (x) = 0.10700 0.09717
# Poissons Ratio (y) = 0.22188 0.68196
# Poissons Ratio (z) = 0.32871 1.11257
#
# Static dielectric constant tensor:
#      x y z
#    x 1.585680 0.000000 0.000000 
#    y 0.000000 1.568790 0.000000 
#    z 0.000000 0.000000 1.580140 
# 
# From -- ./inp_files/3890.got.cif
#   From: 2010.05.17/outbox.cif.g08.bks.cpg/sg46_2_cif.got.tgz:3890.got - 2010.06.03 19:58:25.
