data_PCOD9379514
_publ_section_title
;
Structure prediction by ZEFSAII (Michael W. Deem and Ramdas Pophale) SiO2 
 PCOD9379514
Probable space group: I M A 2
;
_chemical_formula_sum "Si O2"
_cell_formula_units_Z 52
_cell_length_a 13.911076
_cell_length_b 19.638095
_cell_length_c 9.085398
_cell_angle_alpha 90.000000
_cell_angle_beta 90.000000
_cell_angle_gamma 90.000000
_cell_volume 2482.012915
_symmetry_space_group_name_H-M "I M A 2"
_symmetry_group_IT_number 46
_symmetry_cell_setting 'orthorhombic'
loop_
_space_group_symop_operation_xyz
x,y,z
-x,-y,z
1/2-x,y,z
1/2+x,-y,z
1/2+x,1/2+y,1/2+z
1/2-x,1/2-y,1/2+z
-x,1/2+y,1/2+z
x,1/2-y,1/2+z
loop_
_atom_site_type_symbol
_atom_site_label
_atom_site_fract_x
_atom_site_fract_y
_atom_site_fract_z
Si Si1 0.864055 0.996857 0.675390
Si Si2 0.359049 0.954880 0.996121
Si Si3 0.520899 0.162700 0.136696
Si Si4 0.635313 0.666291 0.161142
Si Si5 0.000000 0.500000 0.929535
Si Si6 0.858419 0.579836 0.715063
Si Si7 0.973907 0.761516 0.399203
O O1 0.750000 0.004818 0.656116
O O2 0.882998 0.915096 0.676933
O O3 0.891722 0.030193 0.830707
O O4 0.922149 0.030847 0.542298
O O5 0.250000 0.927804 0.991661
O O6 0.425961 0.904995 0.087858
O O7 0.355539 0.025816 0.083049
O O8 0.406124 0.147401 0.149820
O O9 0.541390 0.192467 0.296281
O O10 0.536180 0.217170 0.010755
O O11 0.750000 0.676216 0.169283
O O12 0.583336 0.709849 0.290181
O O13 0.595037 0.693371 0.004181
O O14 0.935051 0.549815 0.830999
O O15 0.750000 0.588143 0.773439
#
# Coordination Sequence:
#
# PCOD9379514 Si02
#       7
#     8   8   8   8   4   8   8
#     4  10  23  38  59  93 127 163 210 263 322 381
#     4  10  22  42  67  92 119 162 215 263 319 379
#     4  11  22  43  62  89 125 164 205 262 310 370
#     4  10  20  36  55  87 127 165 207 254 301 372
#     4  12  22  34  60  90 132 164 196 252 322 374
#     4  11  23  39  64  97 128 164 206 254 321 386
#     4  10  23  35  60  88 121 168 213 243 308 373
#
# _framework density 20.950737
#
# number of rings (size 3 to 8) (size 9 to 14) (size 15 to 20)
#    0.000    1.538    1.538    2.769    4.308    6.154 
#    0.000    0.769    0.000    0.000    0.000    0.000 
#    0.000    0.000    0.000    0.000    0.000    0.000 
#
# Total GULP energy -145244.425057 kJ/mol
# GULP energy per Si atom -5586.324041 kJ/mol
# Density = 2.090305 g / cm^3
# Si number density = 20.950737 Si / 1000 Ang^3
#
#
#
# Elastic Constant Matrix: (Units=GPa)
#
#
# Indices 1 2 3 4 5 6 
#
# 1 72.2908 7.9668 27.9456 0.0000 0.0000 0.0000
# 2 7.9668 38.0495 14.7097 0.0000 0.0000 0.0000
# 3 27.9456 14.7097 131.5032 0.0000 0.0000 0.0000
# 4 0.0000 0.0000 0.0000 40.5111 0.0000 0.0000
# 5 0.0000 0.0000 0.0000 0.0000 23.6433 0.0000
# 6 0.0000 0.0000 0.0000 0.0000 0.0000 3.4307
#
#
#
# Elastic Compliance Matrix: (Units=1/GPa)
#
#
# Indices 1 2 3 4 5 6 
#
# 1 0.015219 -0.002024 -0.003008 0.000000 0.000000 0.000000
# 2 -0.002024 0.027739 -0.002673 0.000000 0.000000 0.000000
# 3 -0.003008 -0.002673 0.008543 0.000000 0.000000 0.000000
# 4 0.000000 0.000000 0.000000 0.024685 0.000000 0.000000
# 5 0.000000 0.000000 0.000000 0.000000 0.042295 0.000000
# 6 0.000000 0.000000 0.000000 0.000000 0.000000 0.291484
#
#
# Mechanical properties :
#
#
# Convention : Reuss Voigt Hill
#
# Bulk Modulus (GPa) = 27.70743 38.12087 32.91415
# Shear Modulus (GPa) = 11.43111 26.26512 18.84812
#
# Velocity S-wave (km/s) = 2.33838 3.54455 3.00265
# Velocity P-wave (km/s) = 4.53260 5.91496 5.26931
#
# Compressibility (1/GPa) = 0.03609140
#
# Stress axis : x y z
#
# Youngs Moduli (GPa) = 65.70842 36.05097 117.06150
#
# Poissons Ratio (x) = 0.07296 0.35209
# Poissons Ratio (y) = 0.13297 0.31287
# Poissons Ratio (z) = 0.19763 0.09635
#
# Static dielectric constant tensor:
#      x y z
#    x 1.766870 0.000000 0.000000 
#    y 0.000000 1.769380 0.000000 
#    z 0.000000 0.000000 1.785130 
# 
# From -- ./inp_files/5885.got.cif
#   From: 2010.05.17/outbox.cif.g08.bks.cpg/sg46_3_cif.got.tgz:5885.got - 2010.06.03 19:58:25.
