data_PCOD9379727
_publ_section_title
;
Structure prediction by ZEFSAII (Michael W. Deem and Ramdas Pophale) SiO2 
 PCOD9379727
Probable space group: I M A 2
;
_chemical_formula_sum "Si O2"
_cell_formula_units_Z 64
_cell_length_a 23.867040
_cell_length_b 14.187178
_cell_length_c 9.272013
_cell_angle_alpha 90.000000
_cell_angle_beta 90.000000
_cell_angle_gamma 90.000000
_cell_volume 3139.558722
_symmetry_space_group_name_H-M "I M A 2"
_symmetry_group_IT_number 46
_symmetry_cell_setting 'orthorhombic'
loop_
_space_group_symop_operation_xyz
x,y,z
-x,-y,z
1/2-x,y,z
1/2+x,-y,z
1/2+x,1/2+y,1/2+z
1/2-x,1/2-y,1/2+z
-x,1/2+y,1/2+z
x,1/2-y,1/2+z
loop_
_atom_site_type_symbol
_atom_site_label
_atom_site_fract_x
_atom_site_fract_y
_atom_site_fract_z
Si Si1 0.812368 0.571259 0.331280
Si Si2 0.853505 0.133697 0.761591
Si Si3 0.313065 0.558268 0.827533
Si Si4 0.188134 0.373656 0.656154
Si Si5 0.538633 0.645128 0.989582
Si Si6 0.097552 0.270887 0.247025
Si Si7 0.421542 0.571267 0.016410
Si Si8 0.185984 0.697875 0.560173
O O1 0.750000 0.604044 0.286590
O O2 0.821343 0.465765 0.274812
O O3 0.813392 0.571791 0.504878
O O4 0.862138 0.641483 0.287066
O O5 0.910809 0.103445 0.681269
O O6 0.825941 0.209648 0.654715
O O7 0.853135 0.178460 0.921846
O O8 0.250000 0.576356 0.884372
O O9 0.317253 0.448563 0.784825
O O10 0.363604 0.584507 0.931204
O O11 0.318673 0.615519 0.678717
O O12 0.250000 0.329159 0.666733
O O13 0.139003 0.299176 0.662317
O O14 0.571379 0.710380 0.876495
O O15 0.473284 0.630885 0.954883
O O16 0.563341 0.539085 0.001011
O O17 0.548774 0.692261 0.144153
O O18 0.250000 0.699185 0.504362
#
# Coordination Sequence:
#
# PCOD9379727 Si02
#       8
#     8   8   8   8   8   8   8   8
#     4  11  22  38  65 103 145 179 218 281 352 420
#     4  12  24  41  65  92 137 179 226 279 343 406
#     4  10  21  40  69 101 138 178 222 281 345 411
#     4  10  20  37  65 103 144 177 220 276 341 420
#     4  11  26  44  70  91 136 181 234 287 330 398
#     4  12  22  44  69 102 131 187 229 278 344 413
#     4  11  25  47  64  98 135 179 230 289 338 396
#     4  11  23  39  63  98 135 176 220 272 337 413
#
# _framework density 20.38503
#
# number of rings (size 3 to 8) (size 9 to 14) (size 15 to 20)
#    0.000    1.000    5.000    2.250    0.000    4.500 
#    0.000    0.000    0.000    4.500    0.000    0.000 
#    0.000    0.000    0.000    0.000    0.000    0.000 
#
# Total GULP energy -178695.755519 kJ/mol
# GULP energy per Si atom -5584.242360 kJ/mol
# Density = 2.033863 g / cm^3
# Si number density = 20.385030 Si / 1000 Ang^3
#
#
#
# Elastic Constant Matrix: (Units=GPa)
#
#
# Indices 1 2 3 4 5 6 
#
# 1 113.1827 43.4888 47.0113 0.0000 0.0000 0.0000
# 2 43.4888 112.9632 39.4086 0.0000 0.0000 0.0000
# 3 47.0113 39.4086 74.9150 0.0000 0.0000 0.0000
# 4 0.0000 0.0000 0.0000 40.6798 0.0000 0.0000
# 5 0.0000 0.0000 0.0000 0.0000 27.6535 0.0000
# 6 0.0000 0.0000 0.0000 0.0000 0.0000 12.3831
#
#
#
# Elastic Compliance Matrix: (Units=1/GPa)
#
#
# Indices 1 2 3 4 5 6 
#
# 1 0.012521 -0.002547 -0.006518 0.000000 0.000000 0.000000
# 2 -0.002547 0.011360 -0.004378 0.000000 0.000000 0.000000
# 3 -0.006518 -0.004378 0.019741 0.000000 0.000000 0.000000
# 4 0.000000 0.000000 0.000000 0.024582 0.000000 0.000000
# 5 0.000000 0.000000 0.000000 0.000000 0.036162 0.000000
# 6 0.000000 0.000000 0.000000 0.000000 0.000000 0.080756
#
#
# Mechanical properties :
#
#
# Convention : Reuss Voigt Hill
#
# Bulk Modulus (GPa) = 59.74324 62.31982 61.03153
# Shear Modulus (GPa) = 22.97948 27.55343 25.26645
#
# Velocity S-wave (km/s) = 3.36113 3.68047 3.52442
# Velocity P-wave (km/s) = 6.66588 6.97846 6.82396
#
# Compressibility (1/GPa) = 0.01673830
#
# Stress axis : x y z
#
# Youngs Moduli (GPa) = 79.86651 88.02741 50.65489
#
# Poissons Ratio (x) = 0.22417 0.33015
# Poissons Ratio (y) = 0.20339 0.22176
# Poissons Ratio (z) = 0.52054 0.38537
#
# Static dielectric constant tensor:
#      x y z
#    x 1.720710 0.000000 0.000000 
#    y 0.000000 1.748030 0.000000 
#    z 0.000000 0.000000 1.733370 
# 
# From -- ./inp_files/7963.got.cif
#   From: 2010.05.17/outbox.cif.g08.bks.cpg/sg46_4_cif.got.tgz:7963.got - 2010.06.03 19:58:25.
