data_PCOD9379848
_publ_section_title
;
Structure prediction by ZEFSAII (Michael W. Deem and Ramdas Pophale) SiO2 
 PCOD9379848
Probable space group: I M A 2
;
_chemical_formula_sum "Si O2"
_cell_formula_units_Z 64
_cell_length_a 22.570083
_cell_length_b 10.025451
_cell_length_c 13.529492
_cell_angle_alpha 90.000000
_cell_angle_beta 90.000000
_cell_angle_gamma 90.000000
_cell_volume 3061.389336
_symmetry_space_group_name_H-M "I M A 2"
_symmetry_group_IT_number 46
_symmetry_cell_setting 'orthorhombic'
loop_
_space_group_symop_operation_xyz
x,y,z
-x,-y,z
1/2-x,y,z
1/2+x,-y,z
1/2+x,1/2+y,1/2+z
1/2-x,1/2-y,1/2+z
-x,1/2+y,1/2+z
x,1/2-y,1/2+z
loop_
_atom_site_type_symbol
_atom_site_label
_atom_site_fract_x
_atom_site_fract_y
_atom_site_fract_z
Si Si1 0.320431 0.261237 0.655550
Si Si2 0.820645 0.502687 0.525775
Si Si3 0.575322 0.379694 0.213619
Si Si4 0.442755 0.588183 0.981224
Si Si5 0.999873 0.158030 0.893278
Si Si6 0.184026 0.745041 0.143714
Si Si7 0.878316 0.629528 0.337268
Si Si8 0.317492 0.485553 0.007986
O O1 0.250000 0.270926 0.666613
O O2 0.344736 0.397094 0.609153
O O3 0.344916 0.225876 0.762890
O O4 0.330086 0.147295 0.571960
O O5 0.750000 0.515008 0.524827
O O6 0.833216 0.353894 0.561687
O O7 0.841626 0.550837 0.419501
O O8 0.559408 0.406507 0.100690
O O9 0.520809 0.333325 0.279450
O O10 0.630146 0.276028 0.218422
O O11 0.596025 0.515096 0.265813
O O12 0.500000 0.500000 0.950644
O O13 0.377872 0.528642 0.950224
O O14 0.456982 0.740096 0.948675
O O15 0.068143 0.199636 0.895170
O O16 0.000000 0.000000 0.924044
O O17 0.250000 0.777491 0.183766
O O18 0.188304 0.603988 0.088210
O O19 0.250000 0.473129 0.962460
#
# Coordination Sequence:
#
# PCOD9379848 Si02
#       8
#     8   8   8   8   8   8   8   8
#     4  10  20  39  63  94 131 171 214 267 333 403
#     4  10  23  37  62  99 131 165 218 276 330 396
#     4  10  22  39  63  88 121 164 211 267 321 384
#     4  11  22  41  67  89 128 168 211 277 331 384
#     4  10  25  41  59  90 124 162 223 260 318 403
#     4   9  18  37  61  91 122 160 210 267 328 387
#     4  11  21  38  67  90 125 172 221 259 323 407
#     4   9  19  36  64  92 121 166 218 260 327 400
#
# _framework density 20.905539999999998
#
# number of rings (size 3 to 8) (size 9 to 14) (size 15 to 20)
#    0.000    2.000    2.500    1.500    8.750    0.500 
#    2.250    1.250    0.000    0.000    0.000    0.000 
#    0.000    0.000    0.000    0.000    0.000    0.000 
#
# Total GULP energy -178320.357689 kJ/mol
# GULP energy per Si atom -5572.511178 kJ/mol
# Density = 2.085796 g / cm^3
# Si number density = 20.905540 Si / 1000 Ang^3
#
#
#
# Elastic Constant Matrix: (Units=GPa)
#
#
# Indices 1 2 3 4 5 6 
#
# 1 118.8263 27.5427 13.8574 0.0000 0.0000 0.0000
# 2 27.5427 38.0321 3.9342 0.0000 0.0000 0.0000
# 3 13.8574 3.9342 35.3777 0.0000 0.0000 0.0000
# 4 0.0000 0.0000 0.0000 22.5484 0.0000 0.0000
# 5 0.0000 0.0000 0.0000 0.0000 21.3487 0.0000
# 6 0.0000 0.0000 0.0000 0.0000 0.0000 95.1638
#
#
#
# Elastic Compliance Matrix: (Units=1/GPa)
#
#
# Indices 1 2 3 4 5 6 
#
# 1 0.010481 -0.007249 -0.003299 0.000000 0.000000 0.000000
# 2 -0.007249 0.031613 -0.000676 0.000000 0.000000 0.000000
# 3 -0.003299 -0.000676 0.029634 0.000000 0.000000 0.000000
# 4 0.000000 0.000000 0.000000 0.044349 0.000000 0.000000
# 5 0.000000 0.000000 0.000000 0.000000 0.046841 0.000000
# 6 0.000000 0.000000 0.000000 0.000000 0.000000 0.010508
#
#
# Mechanical properties :
#
#
# Convention : Reuss Voigt Hill
#
# Bulk Modulus (GPa) = 20.29249 31.43383 25.86316
# Shear Modulus (GPa) = 23.55154 37.60565 30.57860
#
# Velocity S-wave (km/s) = 3.36008 4.24587 3.82868
# Velocity P-wave (km/s) = 4.97809 6.25343 5.65184
#
# Compressibility (1/GPa) = 0.04927932
#
# Stress axis : x y z
#
# Youngs Moduli (GPa) = 95.41476 31.63252 33.74522
#
# Poissons Ratio (x) = 0.22929 0.11133
# Poissons Ratio (y) = 0.69163 0.02282
# Poissons Ratio (z) = 0.31478 0.02139
#
# Static dielectric constant tensor:
#      x y z
#    x 1.851080 0.000000 0.000000 
#    y 0.000000 1.789950 0.000000 
#    z 0.000000 0.000000 1.719340 
# 
# From -- ./inp_files/17407.got.cif
#   From: 2010.05.17/outbox.cif.g08.bks.cpg/sg46_9_cif.got.tgz:17407.got - 2010.06.03 19:58:25.
