data_PCOD9379954
_publ_section_title
;
Structure prediction by ZEFSAII (Michael W. Deem and Ramdas Pophale) SiO2 
 PCOD9379954
Probable space group: I M A 2
;
_chemical_formula_sum "Si O2"
_cell_formula_units_Z 48
_cell_length_a 7.488178
_cell_length_b 9.384214
_cell_length_c 33.112903
_cell_angle_alpha 90.000000
_cell_angle_beta 90.000000
_cell_angle_gamma 90.000000
_cell_volume 2326.865708
_symmetry_space_group_name_H-M "I M A 2"
_symmetry_group_IT_number 46
_symmetry_cell_setting 'orthorhombic'
loop_
_space_group_symop_operation_xyz
x,y,z
-x,-y,z
1/2-x,y,z
1/2+x,-y,z
1/2+x,1/2+y,1/2+z
1/2-x,1/2-y,1/2+z
-x,1/2+y,1/2+z
x,1/2-y,1/2+z
loop_
_atom_site_type_symbol
_atom_site_label
_atom_site_fract_x
_atom_site_fract_y
_atom_site_fract_z
Si Si1 0.035587 0.331231 0.583810
Si Si2 0.535887 0.667699 0.740985
Si Si3 0.964004 0.667346 0.830363
Si Si4 0.536373 0.669696 0.495960
Si Si5 0.535640 0.668401 0.408456
Si Si6 0.035791 0.167253 0.662579
O O1 0.250000 0.315049 0.582846
O O2 0.967421 0.280809 0.539682
O O3 0.966564 0.244745 0.622232
O O4 0.000000 0.500000 0.588395
O O5 0.500000 0.500000 0.734699
O O6 0.750000 0.684995 0.742098
O O7 0.467410 0.708259 0.785694
O O8 0.466469 0.758891 0.703472
O O9 0.750000 0.687668 0.829561
O O10 0.034995 0.752641 0.868865
O O11 0.000000 0.500000 0.835466
O O12 0.500000 0.500000 0.495847
O O13 0.750000 0.690912 0.495966
O O14 0.467766 0.721567 0.452381
O O15 0.500000 0.500000 0.405436
O O16 0.750000 0.687143 0.409085
O O17 0.250000 0.187321 0.662627
O O18 0.000000 0.000000 0.662027
#
# Coordination Sequence:
#
# PCOD9379954 Si02
#       6
#     8   8   8   8   8   8
#     4   9  17  30  49  70  90 116 152 189 223 263
#     4   9  18  33  51  69  89 116 152 189 223 264
#     4   9  18  32  48  67  92 120 150 185 224 266
#     4   8  14  26  44  65  89 116 147 184 222 259
#     4   9  17  29  46  68  93 120 150 185 224 265
#     4  10  21  34  47  67  95 122 148 182 225 271
#
# _framework density 20.628608
#
# number of rings (size 3 to 8) (size 9 to 14) (size 15 to 20)
#    0.000    3.000    0.000    0.500    0.000    2.667 
#    0.000    0.833    0.000    0.000    0.000    0.000 
#    0.000    0.000    0.000    0.000    0.000    0.000 
#
# Total GULP energy -133772.689910 kJ/mol
# GULP energy per Si atom -5573.862080 kJ/mol
# Density = 2.058166 g / cm^3
# Si number density = 20.628608 Si / 1000 Ang^3
#
#
#
# Elastic Constant Matrix: (Units=GPa)
#
#
# Indices 1 2 3 4 5 6 
#
# 1 61.9570 -5.7079 14.8329 0.0000 0.0000 0.0000
# 2 -5.7079 68.7515 111.1209 0.0000 0.0000 0.0000
# 3 14.8329 111.1209 296.3068 0.0000 0.0000 0.0000
# 4 0.0000 0.0000 0.0000 31.1394 0.0000 0.0000
# 5 0.0000 0.0000 0.0000 0.0000 5.4410 0.0000
# 6 0.0000 0.0000 0.0000 0.0000 0.0000 20.1729
#
#
#
# Elastic Compliance Matrix: (Units=1/GPa)
#
#
# Indices 1 2 3 4 5 6 
#
# 1 0.017692 0.007363 -0.003647 0.000000 0.000000 0.000000
# 2 0.007363 0.039994 -0.015367 0.000000 0.000000 0.000000
# 3 -0.003647 -0.015367 0.009320 0.000000 0.000000 0.000000
# 4 0.000000 0.000000 0.000000 0.032114 0.000000 0.000000
# 5 0.000000 0.000000 0.000000 0.000000 0.183791 0.000000
# 6 0.000000 0.000000 0.000000 0.000000 0.000000 0.049572
#
#
# Mechanical properties :
#
#
# Convention : Reuss Voigt Hill
#
# Bulk Modulus (GPa) = 22.88098 74.16747 48.52422
# Shear Modulus (GPa) = 13.50069 31.80194 22.65131
#
# Velocity S-wave (km/s) = 2.56103 3.93064 3.31728
# Velocity P-wave (km/s) = 4.45658 7.52540 6.18436
#
# Compressibility (1/GPa) = 0.04370443
#
# Stress axis : x y z
#
# Youngs Moduli (GPa) = 56.52366 25.00397 107.29179
#
# Poissons Ratio (x) = -0.18411 0.39130
# Poissons Ratio (y) = -0.41621 1.64875
# Poissons Ratio (z) = 0.20615 0.38424
#
# Static dielectric constant tensor:
#      x y z
#    x 1.745480 0.000000 0.000000 
#    y 0.000000 1.656570 0.000000 
#    z 0.000000 0.000000 1.813750 
# 
# From -- ./inp_files/24477.got.cif
#   From: 2010.05.17/outbox.cif.g08.bks.cpg/sg46_13_cif.got.tgz:24477.got - 2010.06.03 19:58:25.
