data_PCOD9379856
_publ_section_title
;
Structure prediction by ZEFSAII (Michael W. Deem and Ramdas Pophale) SiO2 
 PCOD9379856
Probable space group: I M A 2
;
_chemical_formula_sum "Si O2"
_cell_formula_units_Z 64
_cell_length_a 35.231116
_cell_length_b 9.237352
_cell_length_c 10.283730
_cell_angle_alpha 90.000000
_cell_angle_beta 90.000000
_cell_angle_gamma 90.000000
_cell_volume 3346.759919
_symmetry_space_group_name_H-M "I M A 2"
_symmetry_group_IT_number 46
_symmetry_cell_setting 'orthorhombic'
loop_
_space_group_symop_operation_xyz
x,y,z
-x,-y,z
1/2-x,y,z
1/2+x,-y,z
1/2+x,1/2+y,1/2+z
1/2-x,1/2-y,1/2+z
-x,1/2+y,1/2+z
x,1/2-y,1/2+z
loop_
_atom_site_type_symbol
_atom_site_label
_atom_site_fract_x
_atom_site_fract_y
_atom_site_fract_z
Si Si1 0.152299 0.657703 0.214110
Si Si2 0.327388 0.193038 0.968422
Si Si3 0.205300 0.108573 0.696828
Si Si4 0.413086 0.933849 0.527150
Si Si5 0.855620 0.024696 0.154730
Si Si6 0.590746 0.369028 0.442402
Si Si7 0.956584 0.948216 0.772710
Si Si8 0.900821 0.694575 0.837689
O O1 0.187843 0.551141 0.216343
O O2 0.128491 0.607677 0.085321
O O3 0.160935 0.829379 0.218631
O O4 0.124262 0.627879 0.335262
O O5 0.303840 0.188172 0.834590
O O6 0.371086 0.208829 0.920485
O O7 0.314837 0.315143 0.072240
O O8 0.326589 0.045882 0.052563
O O9 0.250000 0.107769 0.674404
O O10 0.425454 0.792329 0.449122
O O11 0.437721 0.969167 0.652012
O O12 0.414893 0.071871 0.435510
O O13 0.873106 0.894648 0.240019
O O14 0.891646 0.089149 0.079153
O O15 0.559023 0.481310 0.403984
O O16 0.935260 0.789581 0.776660
O O17 0.000000 0.000000 0.765354
#
# Coordination Sequence:
#
# PCOD9379856 Si02
#       8
#     8   8   8   8   8   8   8   8
#     4  10  20  39  65  93 121 164 218 270 316 384
#     4  12  22  41  67  97 127 172 226 270 322 403
#     4  12  25  42  63  97 140 175 210 277 351 398
#     4  10  21  39  65  88 119 161 216 269 313 377
#     4  11  21  36  70  97 116 161 231 276 313 380
#     4  10  20  40  64  88 120 163 211 264 316 382
#     4  11  25  40  58  93 133 163 205 266 337 400
#     4  12  21  39  70  96 119 167 228 272 318 386
#
# _framework density 19.122973999999999
#
# number of rings (size 3 to 8) (size 9 to 14) (size 15 to 20)
#    0.000    1.000    6.250    1.875    0.000    1.000 
#    0.000    1.250    0.000    0.000    0.000    0.000 
#    0.000    0.000    0.000    0.000    0.000    0.000 
#
# Total GULP energy -178245.605104 kJ/mol
# GULP energy per Si atom -5570.175160 kJ/mol
# Density = 1.907945 g / cm^3
# Si number density = 19.122974 Si / 1000 Ang^3
#
#
#
# Elastic Constant Matrix: (Units=GPa)
#
#
# Indices 1 2 3 4 5 6 
#
# 1 68.6701 37.9648 22.4114 0.0000 0.0000 0.0000
# 2 37.9648 115.5761 23.6744 0.0000 0.0000 0.0000
# 3 22.4114 23.6744 61.4024 0.0000 0.0000 0.0000
# 4 0.0000 0.0000 0.0000 39.2030 0.0000 0.0000
# 5 0.0000 0.0000 0.0000 0.0000 16.3490 0.0000
# 6 0.0000 0.0000 0.0000 0.0000 0.0000 15.7874
#
#
#
# Elastic Compliance Matrix: (Units=1/GPa)
#
#
# Indices 1 2 3 4 5 6 
#
# 1 0.019080 -0.005256 -0.004937 0.000000 0.000000 0.000000
# 2 -0.005256 0.010842 -0.002262 0.000000 0.000000 0.000000
# 3 -0.004937 -0.002262 0.018960 0.000000 0.000000 0.000000
# 4 0.000000 0.000000 0.000000 0.025508 0.000000 0.000000
# 5 0.000000 0.000000 0.000000 0.000000 0.061166 0.000000
# 6 0.000000 0.000000 0.000000 0.000000 0.000000 0.063342
#
#
# Mechanical properties :
#
#
# Convention : Reuss Voigt Hill
#
# Bulk Modulus (GPa) = 41.71643 45.97220 43.84432
# Shear Modulus (GPa) = 21.57046 25.04108 23.30577
#
# Velocity S-wave (km/s) = 3.36219 3.62259 3.49482
# Velocity P-wave (km/s) = 6.07739 6.44904 6.26597
#
# Compressibility (1/GPa) = 0.02397137
#
# Stress axis : x y z
#
# Youngs Moduli (GPa) = 52.41209 92.23283 52.74195
#
# Poissons Ratio (x) = 0.48477 0.26041
# Poissons Ratio (y) = 0.27548 0.11930
# Poissons Ratio (z) = 0.25878 0.20862
#
# Static dielectric constant tensor:
#      x y z
#    x 1.656360 0.000000 0.000000 
#    y 0.000000 1.750660 0.000000 
#    z 0.000000 0.000000 1.713170 
# 
# From -- ./inp_files/13215.got.cif
#   From: 2010.05.17/outbox.cif.g08.bks.cpg/sg46_7_cif.got.tgz:13215.got - 2010.06.03 19:58:25.
