data_PCOD9379322
_publ_section_title
;
Structure prediction by ZEFSAII (Michael W. Deem and Ramdas Pophale) SiO2 
 PCOD9379322
Probable space group: I M A 2
;
_chemical_formula_sum "Si O2"
_cell_formula_units_Z 64
_cell_length_a 12.303106
_cell_length_b 23.578828
_cell_length_c 12.685696
_cell_angle_alpha 90.000000
_cell_angle_beta 90.000000
_cell_angle_gamma 90.000000
_cell_volume 3680.029329
_symmetry_space_group_name_H-M "I M A 2"
_symmetry_group_IT_number 46
_symmetry_cell_setting 'orthorhombic'
loop_
_space_group_symop_operation_xyz
x,y,z
-x,-y,z
1/2-x,y,z
1/2+x,-y,z
1/2+x,1/2+y,1/2+z
1/2-x,1/2-y,1/2+z
-x,1/2+y,1/2+z
x,1/2-y,1/2+z
loop_
_atom_site_type_symbol
_atom_site_label
_atom_site_fract_x
_atom_site_fract_y
_atom_site_fract_z
Si Si1 0.621417 0.346569 0.524600
Si Si2 0.879333 0.846900 0.526692
Si Si3 0.998716 0.250000 0.897922
Si Si4 0.378583 0.653431 0.771245
Si Si5 0.462148 0.436651 0.433672
Si Si6 0.879333 0.653100 0.269152
Si Si7 0.874485 0.528088 0.647922
Si Si8 0.037851 0.436651 0.862173
O O1 0.750000 0.348313 0.512904
O O2 0.573595 0.290582 0.470864
O O3 0.593674 0.347335 0.647922
O O4 0.566362 0.400823 0.471277
O O5 0.750000 0.841259 0.526563
O O6 0.930505 0.792197 0.469673
O O7 0.917074 0.851152 0.647922
O O8 0.911170 0.901965 0.458302
O O9 0.069495 0.207803 0.826172
O O10 0.926405 0.290582 0.824981
O O11 0.250000 0.651687 0.782941
O O12 0.433637 0.599177 0.824567
O O13 0.500000 0.500000 0.406152
O O14 0.411169 0.401965 0.337542
O O15 0.383327 0.439516 0.536317
O O16 0.750000 0.658741 0.269282
O O17 0.750000 0.500678 0.647923
O O18 0.883327 0.560484 0.759528
O O19 0.000000 0.500000 0.647922
O O20 0.000000 0.500000 0.889693
#
# Coordination Sequence:
#
# PCOD9379322 Si02
#       8
#     8   8   8   8   8   8   8   8
#     4  10  20  34  54  80 110 144 184 230 282 340
#     4  10  21  37  57  80 108 145 187 234 288 346
#     4  10  20  36  56  78 108 140 186 234 288 336
#     4  10  20  34  54  80 110 144 184 230 282 340
#     4  10  21  36  55  82 115 148 188 231 285 341
#     4  10  21  37  57  80 108 145 187 234 288 346
#     4  10  20  34  54  82 114 150 190 236 285 334
#     4  10  21  36  55  82 115 148 188 231 285 341
#
# _framework density 17.391165999999998
#
# number of rings (size 3 to 8) (size 9 to 14) (size 15 to 20)
#    0.000    2.000    1.250    2.250    0.000    5.500 
#    0.000    0.000    0.000    6.750    0.000    0.000 
#    0.000    0.000    0.000    0.000    0.000    0.000 
#
# Total GULP energy -178347.981843 kJ/mol
# GULP energy per Si atom -5573.374433 kJ/mol
# Density = 1.735158 g / cm^3
# Si number density = 17.391166 Si / 1000 Ang^3
#
#
#
# Elastic Constant Matrix: (Units=GPa)
#
#
# Indices 1 2 3 4 5 6 
#
# 1 64.0928 30.0861 36.2487 -0.0001 0.0000 0.0000
# 2 30.0861 112.3845 33.7136 0.0002 0.0000 0.0000
# 3 36.2487 33.7136 110.2151 0.0002 0.0000 0.0000
# 4 -0.0001 0.0002 0.0002 21.5144 0.0000 0.0000
# 5 0.0000 0.0000 0.0000 0.0000 24.2194 0.0000
# 6 0.0000 0.0000 0.0000 0.0000 0.0000 8.7459
#
#
#
# Elastic Compliance Matrix: (Units=1/GPa)
#
#
# Indices 1 2 3 4 5 6 
#
# 1 0.020561 -0.003827 -0.005592 0.000000 0.000000 0.000000
# 2 -0.003827 0.010509 -0.001956 0.000000 0.000000 0.000000
# 3 -0.005592 -0.001956 0.011511 0.000000 0.000000 0.000000
# 4 0.000000 0.000000 0.000000 0.046480 0.000000 0.000000
# 5 0.000000 0.000000 0.000000 0.000000 0.041289 0.000000
# 6 0.000000 0.000000 0.000000 0.000000 0.000000 0.114339
#
#
# Mechanical properties :
#
#
# Convention : Reuss Voigt Hill
#
# Bulk Modulus (GPa) = 50.42446 54.08769 52.25608
# Shear Modulus (GPa) = 18.24486 23.33888 20.79187
#
# Velocity S-wave (km/s) = 3.24248 3.66730 3.46141
# Velocity P-wave (km/s) = 6.56319 7.00716 6.78881
#
# Compressibility (1/GPa) = 0.01983164
#
# Stress axis : x y z
#
# Youngs Moduli (GPa) = 48.63496 95.15376 86.87651
#
# Poissons Ratio (x) = 0.36415 0.48580
# Poissons Ratio (y) = 0.18612 0.16993
# Poissons Ratio (z) = 0.27196 0.18612
#
# Static dielectric constant tensor:
#      x y z
#    x 1.592480 0.000000 0.000000 
#    y 0.000000 1.584950 0.000000 
#    z 0.000000 0.000000 1.592030 
# 
# From -- ./inp_files/10529.got.cif
#   From: 2010.05.17/outbox.cif.g08.bks.cpg/sg46_6_cif.got.tgz:10529.got - 2010.06.03 19:58:25.
