data_PCOD9379019
_publ_section_title
;
Structure prediction by ZEFSAII (Michael W. Deem and Ramdas Pophale) SiO2 
 PCOD9379019
Probable space group: I M A 2
;
_chemical_formula_sum "Si O2"
_cell_formula_units_Z 64
_cell_length_a 8.803058
_cell_length_b 20.952334
_cell_length_c 19.929696
_cell_angle_alpha 90.000000
_cell_angle_beta 90.000000
_cell_angle_gamma 90.000000
_cell_volume 3675.925035
_symmetry_space_group_name_H-M "I M A 2"
_symmetry_group_IT_number 46
_symmetry_cell_setting 'orthorhombic'
loop_
_space_group_symop_operation_xyz
x,y,z
-x,-y,z
1/2-x,y,z
1/2+x,-y,z
1/2+x,1/2+y,1/2+z
1/2-x,1/2-y,1/2+z
-x,1/2+y,1/2+z
x,1/2-y,1/2+z
loop_
_atom_site_type_symbol
_atom_site_label
_atom_site_fract_x
_atom_site_fract_y
_atom_site_fract_z
Si Si1 0.429996 0.767767 0.597480
Si Si2 0.069437 0.266897 0.954034
Si Si3 0.071433 0.885624 0.102037
Si Si4 0.432457 0.193350 0.735248
Si Si5 0.430776 0.068028 0.238680
Si Si6 0.567209 0.566421 0.315779
Si Si7 0.431433 0.687661 0.817076
Si Si8 0.568945 0.885540 0.960039
O O1 0.250000 0.779831 0.597552
O O2 0.502689 0.785406 0.526217
O O3 0.451166 0.691160 0.606705
O O4 0.510673 0.802275 0.659198
O O5 0.250000 0.277700 0.951053
O O6 0.044469 0.190291 0.947813
O O7 0.987699 0.301994 0.892940
O O8 0.250000 0.899021 0.110395
O O9 0.979041 0.917728 0.161833
O O10 0.015763 0.904809 0.027993
O O11 0.250000 0.199881 0.738488
O O12 0.476139 0.127176 0.770918
O O13 0.506805 0.251919 0.775220
O O14 0.250000 0.067610 0.244279
O O15 0.500084 0.124411 0.283668
O O16 0.500000 0.000000 0.258246
O O17 0.500000 0.500000 0.291402
O O18 0.750000 0.563396 0.316040
O O19 0.517811 0.579073 0.392702
O O20 0.250000 0.685877 0.813355
O O21 0.750000 0.894600 0.969178
#
# Coordination Sequence:
#
# PCOD9379019 Si02
#       8
#     8   8   8   8   8   8   8   8
#     4  10  20  34  55  87 119 147 187 237 287 339
#     4  10  19  35  58  84 115 151 190 233 287 341
#     4  10  20  34  53  82 116 150 191 233 279 338
#     4  11  21  37  59  84 113 151 194 237 286 344
#     4  12  25  41  60  82 114 154 194 237 288 343
#     4  10  22  38  55  80 113 150 194 236 282 338
#     4  12  23  37  59  88 117 148 191 240 288 340
#     4   9  18  34  53  77 112 154 195 233 277 337
#
# _framework density 17.410582999999999
#
# number of rings (size 3 to 8) (size 9 to 14) (size 15 to 20)
#    0.000    1.500    2.500    3.750    0.000    3.500 
#    0.000    1.250    0.000    0.750    0.000    3.500 
#    0.000    0.000    0.000    0.000    0.000    0.000 
#
# Total GULP energy -178848.455726 kJ/mol
# GULP energy per Si atom -5589.014241 kJ/mol
# Density = 1.737096 g / cm^3
# Si number density = 17.410583 Si / 1000 Ang^3
#
#
#
# Elastic Constant Matrix: (Units=GPa)
#
#
# Indices 1 2 3 4 5 6 
#
# 1 107.0355 65.2568 58.5252 0.0000 0.0000 0.0000
# 2 65.2568 114.1686 68.4205 0.0000 0.0000 0.0000
# 3 58.5252 68.4205 127.7773 0.0000 0.0000 0.0000
# 4 0.0000 0.0000 0.0000 16.9124 0.0000 0.0000
# 5 0.0000 0.0000 0.0000 0.0000 35.2666 0.0000
# 6 0.0000 0.0000 0.0000 0.0000 0.0000 25.6182
#
#
#
# Elastic Compliance Matrix: (Units=1/GPa)
#
#
# Indices 1 2 3 4 5 6 
#
# 1 0.015293 -0.006690 -0.003422 0.000000 0.000000 0.000000
# 2 -0.006690 0.015825 -0.005409 0.000000 0.000000 0.000000
# 3 -0.003422 -0.005409 0.012290 0.000000 0.000000 0.000000
# 4 0.000000 0.000000 0.000000 0.059128 0.000000 0.000000
# 5 0.000000 0.000000 0.000000 0.000000 0.028355 0.000000
# 6 0.000000 0.000000 0.000000 0.000000 0.000000 0.039035
#
#
# Mechanical properties :
#
#
# Convention : Reuss Voigt Hill
#
# Bulk Modulus (GPa) = 80.87834 81.48738 81.18286
# Shear Modulus (GPa) = 24.37946 26.01135 25.19540
#
# Velocity S-wave (km/s) = 3.74607 3.86942 3.80825
# Velocity P-wave (km/s) = 8.07868 8.17730 8.12814
#
# Compressibility (1/GPa) = 0.01236425
#
# Stress axis : x y z
#
# Youngs Moduli (GPa) = 65.39082 63.19203 81.36679
#
# Poissons Ratio (x) = 0.42277 0.27844
# Poissons Ratio (y) = 0.43748 0.44014
# Poissons Ratio (z) = 0.22377 0.34183
#
# Static dielectric constant tensor:
#      x y z
#    x 1.577740 0.000000 0.000000 
#    y 0.000000 1.579110 0.000000 
#    z 0.000000 0.000000 1.581760 
# 
# From -- ./inp_files/18524.got.cif
#   From: 2010.05.17/outbox.cif.g08.bks.cpg/sg46_10_cif.got.tgz:18524.got - 2010.06.03 19:58:25.
