data_PCOD9379156
_publ_section_title
;
Structure prediction by ZEFSAII (Michael W. Deem and Ramdas Pophale) SiO2 
 PCOD9379156
Probable space group: I M A 2
;
_chemical_formula_sum "Si O2"
_cell_formula_units_Z 48
_cell_length_a 17.356359
_cell_length_b 9.101473
_cell_length_c 15.292773
_cell_angle_alpha 90.000000
_cell_angle_beta 90.000000
_cell_angle_gamma 90.000000
_cell_volume 2415.775384
_symmetry_space_group_name_H-M "I M A 2"
_symmetry_group_IT_number 46
_symmetry_cell_setting 'orthorhombic'
loop_
_space_group_symop_operation_xyz
x,y,z
-x,-y,z
1/2-x,y,z
1/2+x,-y,z
1/2+x,1/2+y,1/2+z
1/2-x,1/2-y,1/2+z
-x,1/2+y,1/2+z
x,1/2-y,1/2+z
loop_
_atom_site_type_symbol
_atom_site_label
_atom_site_fract_x
_atom_site_fract_y
_atom_site_fract_z
Si Si1 0.583756 0.571894 0.509570
Si Si2 0.009245 0.828764 0.506532
Si Si3 0.594690 0.147511 0.864902
Si Si4 0.376161 0.824661 0.667586
Si Si5 0.250000 0.584047 0.718611
Si Si6 0.750000 0.179920 0.407292
Si Si7 0.750000 0.870899 0.079324
Si Si8 0.750000 0.980370 0.582964
O O1 0.500000 0.500000 0.542636
O O2 0.569327 0.743570 0.523884
O O3 0.587075 0.509690 0.411240
O O4 0.670996 0.553087 0.543999
O O5 0.038378 0.756879 0.416691
O O6 0.067240 0.797454 0.586634
O O7 0.000000 0.000000 0.498278
O O8 0.585200 0.144044 0.761255
O O9 0.676791 0.215432 0.893419
O O10 0.322107 0.683284 0.686099
O O11 0.323108 0.961512 0.638496
O O12 0.250000 0.576263 0.822627
O O13 0.250000 0.422447 0.679608
O O14 0.750000 0.082472 0.494891
O O15 0.750000 0.694560 0.067297
#
# Coordination Sequence:
#
# PCOD9379156 Si02
#       8
#     8   8   8   8   4   4   4   4
#     4  10  23  39  65  97 130 173 223 265 330 390
#     4  11  22  39  61  89 130 171 215 271 337 394
#     4  10  21  40  64  92 121 169 223 268 323 404
#     4  10  21  40  67  88 124 174 217 265 331 403
#     4   9  20  37  63  94 121 161 218 262 325 401
#     4  10  19  38  66  88 125 169 210 269 338 394
#     4  12  23  41  63 100 136 166 217 289 319 387
#     4  11  22  38  66  96 128 174 221 264 346 396
#
# _framework density 19.869396999999999
#
# number of rings (size 3 to 8) (size 9 to 14) (size 15 to 20)
#    0.000    1.667    1.667    4.000    2.333    2.000 
#    3.000    5.833    0.000    0.000    0.000    0.000 
#    0.000    0.000    0.000    0.000    0.000    0.000 
#
# Total GULP energy -133641.119610 kJ/mol
# GULP energy per Si atom -5568.379984 kJ/mol
# Density = 1.982417 g / cm^3
# Si number density = 19.869397 Si / 1000 Ang^3
#
#
#
# Elastic Constant Matrix: (Units=GPa)
#
#
# Indices 1 2 3 4 5 6 
#
# 1 97.0879 12.6547 37.1518 0.0000 0.0000 0.0000
# 2 12.6547 84.5867 43.7321 0.0000 0.0000 0.0000
# 3 37.1518 43.7321 141.7410 0.0000 0.0000 0.0000
# 4 0.0000 0.0000 0.0000 21.0795 0.0000 0.0000
# 5 0.0000 0.0000 0.0000 0.0000 10.4520 0.0000
# 6 0.0000 0.0000 0.0000 0.0000 0.0000 13.7176
#
#
#
# Elastic Compliance Matrix: (Units=1/GPa)
#
#
# Indices 1 2 3 4 5 6 
#
# 1 0.011451 -0.000192 -0.002942 0.000000 0.000000 0.000000
# 2 -0.000192 0.014069 -0.004291 0.000000 0.000000 0.000000
# 3 -0.002942 -0.004291 0.009150 0.000000 0.000000 0.000000
# 4 0.000000 0.000000 0.000000 0.047439 0.000000 0.000000
# 5 0.000000 0.000000 0.000000 0.000000 0.095675 0.000000
# 6 0.000000 0.000000 0.000000 0.000000 0.000000 0.072899
#
#
# Mechanical properties :
#
#
# Convention : Reuss Voigt Hill
#
# Bulk Modulus (GPa) = 50.45222 56.72141 53.58682
# Shear Modulus (GPa) = 18.37290 24.37495 21.37393
#
# Velocity S-wave (km/s) = 3.04416 3.50631 3.28338
# Velocity P-wave (km/s) = 6.14841 6.70831 6.43445
#
# Compressibility (1/GPa) = 0.01982073
#
# Stress axis : x y z
#
# Youngs Moduli (GPa) = 87.33000 71.07750 109.28887
#
# Poissons Ratio (x) = 0.01365 0.32154
# Poissons Ratio (y) = 0.01677 0.46890
# Poissons Ratio (z) = 0.25694 0.30496
#
# Static dielectric constant tensor:
#      x y z
#    x 1.800960 0.000000 0.000000 
#    y 0.000000 1.720720 0.000000 
#    z 0.000000 0.000000 1.676430 
# 
# From -- ./inp_files/16598.got.cif
#   From: 2010.05.17/outbox.cif.g08.bks.cpg/sg46_9_cif.got.tgz:16598.got - 2010.06.03 19:58:25.
