data_PCOD9379498
_publ_section_title
;
Structure prediction by ZEFSAII (Michael W. Deem and Ramdas Pophale) SiO2 
 PCOD9379498
Probable space group: I M A 2
;
_chemical_formula_sum "Si O2"
_cell_formula_units_Z 56
_cell_length_a 20.791883
_cell_length_b 13.137684
_cell_length_c 8.818869
_cell_angle_alpha 90.000000
_cell_angle_beta 90.000000
_cell_angle_gamma 90.000000
_cell_volume 2408.937463
_symmetry_space_group_name_H-M "I M A 2"
_symmetry_group_IT_number 46
_symmetry_cell_setting 'orthorhombic'
loop_
_space_group_symop_operation_xyz
x,y,z
-x,-y,z
1/2-x,y,z
1/2+x,-y,z
1/2+x,1/2+y,1/2+z
1/2-x,1/2-y,1/2+z
-x,1/2+y,1/2+z
x,1/2-y,1/2+z
loop_
_atom_site_type_symbol
_atom_site_label
_atom_site_fract_x
_atom_site_fract_y
_atom_site_fract_z
Si Si1 0.675400 0.131975 0.069590
Si Si2 0.321483 0.204992 0.775119
Si Si3 0.822242 0.549917 0.802410
Si Si4 0.430833 0.966037 0.507108
Si Si5 0.384062 0.682802 0.246894
Si Si6 0.094402 0.281337 0.541121
Si Si7 0.996508 0.685368 0.789884
O O1 0.750000 0.135587 0.023985
O O2 0.665508 0.026025 0.160335
O O3 0.660334 0.225557 0.184273
O O4 0.633611 0.150097 0.917555
O O5 0.250000 0.165434 0.745797
O O6 0.318338 0.329085 0.772611
O O7 0.373832 0.192628 0.644359
O O8 0.349243 0.171511 0.937168
O O9 0.750000 0.521038 0.858934
O O10 0.880623 0.535547 0.917476
O O11 0.387053 0.910025 0.630750
O O12 0.458195 0.895342 0.370755
O O13 0.500000 0.000000 0.576394
O O14 0.455850 0.727759 0.233132
O O15 0.049988 0.347946 0.652898
O O16 0.047094 0.233519 0.419375
#
# Coordination Sequence:
#
# PCOD9379498 Si02
#       7
#     8   8   8   8   8   8   8
#     4  11  22  40  66  94 125 170 211 257 320 379
#     4  10  21  40  63  90 121 161 216 267 319 386
#     4  10  23  43  63  89 127 168 212 266 323 380
#     4  12  24  41  65  94 129 171 211 259 321 383
#     4  12  22  40  62  91 129 159 212 262 304 378
#     4  10  20  35  61  88 119 159 203 258 321 374
#     4  11  20  37  59  88 124 158 203 255 310 371
#
# _framework density 23.246765
#
# number of rings (size 3 to 8) (size 9 to 14) (size 15 to 20)
#    0.000    1.143    4.286    2.571    0.000    2.286 
#    2.571    0.000    0.000    6.857    0.000    0.000 
#    0.000    0.000    0.000    0.000    0.000    0.000 
#
# Total GULP energy -156356.103455 kJ/mol
# GULP energy per Si atom -5584.146552 kJ/mol
# Density = 2.319385 g / cm^3
# Si number density = 23.246765 Si / 1000 Ang^3
#
#
#
# Elastic Constant Matrix: (Units=GPa)
#
#
# Indices 1 2 3 4 5 6 
#
# 1 91.8103 -0.1380 10.9368 0.0000 0.0000 0.0000
# 2 -0.1380 60.0645 17.4835 0.0000 0.0000 0.0000
# 3 10.9368 17.4835 75.7049 0.0000 0.0000 0.0000
# 4 0.0000 0.0000 0.0000 36.3644 0.0000 0.0000
# 5 0.0000 0.0000 0.0000 0.0000 32.1311 0.0000
# 6 0.0000 0.0000 0.0000 0.0000 0.0000 22.6520
#
#
#
# Elastic Compliance Matrix: (Units=1/GPa)
#
#
# Indices 1 2 3 4 5 6 
#
# 1 0.011098 0.000528 -0.001725 0.000000 0.000000 0.000000
# 2 0.000528 0.017874 -0.004204 0.000000 0.000000 0.000000
# 3 -0.001725 -0.004204 0.014429 0.000000 0.000000 0.000000
# 4 0.000000 0.000000 0.000000 0.027499 0.000000 0.000000
# 5 0.000000 0.000000 0.000000 0.000000 0.031122 0.000000
# 6 0.000000 0.000000 0.000000 0.000000 0.000000 0.044146
#
#
# Mechanical properties :
#
#
# Convention : Reuss Voigt Hill
#
# Bulk Modulus (GPa) = 30.67651 31.57157 31.12404
# Shear Modulus (GPa) = 29.79055 31.51602 30.65328
#
# Velocity S-wave (km/s) = 3.58368 3.68600 3.63520
# Velocity P-wave (km/s) = 5.50893 5.63258 5.57110
#
# Compressibility (1/GPa) = 0.03259824
#
# Stress axis : x y z
#
# Youngs Moduli (GPa) = 90.10361 55.94815 69.30345
#
# Poissons Ratio (x) = -0.02952 0.11956
# Poissons Ratio (y) = -0.04755 0.29135
# Poissons Ratio (z) = 0.15545 0.23521
#
# Static dielectric constant tensor:
#      x y z
#    x 1.902420 0.000000 0.000000 
#    y 0.000000 1.925350 0.000000 
#    z 0.000000 0.000000 1.905190 
# 
# From -- ./inp_files/7416.got.cif
#   From: 2010.05.17/outbox.cif.g08.bks.cpg/sg46_4_cif.got.tgz:7416.got - 2010.06.03 19:58:25.
