data_PCOD9379077
_publ_section_title
;
Structure prediction by ZEFSAII (Michael W. Deem and Ramdas Pophale) SiO2 
 PCOD9379077
Probable space group: I M A 2
;
_chemical_formula_sum "Si O2"
_cell_formula_units_Z 56
_cell_length_a 8.533251
_cell_length_b 20.831096
_cell_length_c 15.752095
_cell_angle_alpha 90.000000
_cell_angle_beta 90.000000
_cell_angle_gamma 90.000000
_cell_volume 2800.044691
_symmetry_space_group_name_H-M "I M A 2"
_symmetry_group_IT_number 46
_symmetry_cell_setting 'orthorhombic'
loop_
_space_group_symop_operation_xyz
x,y,z
-x,-y,z
1/2-x,y,z
1/2+x,-y,z
1/2+x,1/2+y,1/2+z
1/2-x,1/2-y,1/2+z
-x,1/2+y,1/2+z
x,1/2-y,1/2+z
loop_
_atom_site_type_symbol
_atom_site_label
_atom_site_fract_x
_atom_site_fract_y
_atom_site_fract_z
Si Si1 0.933544 0.066054 0.344470
Si Si2 0.566755 0.314774 0.600349
Si Si3 0.932651 0.569154 0.681302
Si Si4 0.565466 0.071295 0.688579
Si Si5 0.930117 0.886695 0.512528
Si Si6 0.067420 0.760137 0.430856
Si Si7 0.559272 0.288873 0.245379
O O1 0.750000 0.067658 0.360841
O O2 0.979544 0.105721 0.261446
O O3 0.032653 0.073500 0.428433
O O4 0.000000 0.000000 0.308026
O O5 0.750000 0.328826 0.620673
O O6 0.461306 0.377181 0.610953
O O7 0.563077 0.294176 0.502098
O O8 0.517034 0.256363 0.664512
O O9 0.750000 0.561385 0.702430
O O10 0.000000 0.500000 0.651538
O O11 0.750000 0.068081 0.703839
O O12 0.533489 0.087703 0.589556
O O13 0.504465 0.136953 0.733822
O O14 0.500000 0.000000 0.707836
O O15 0.750000 0.891175 0.537953
O O16 0.974116 0.817086 0.476476
O O17 0.250000 0.781817 0.421983
O O18 0.011953 0.739748 0.337204
O O19 0.750000 0.291062 0.245432
#
# Coordination Sequence:
#
# PCOD9379077 Si02
#       7
#     8   8   8   8   8   8   8
#     4  11  21  35  54  79 113 151 190 235 290 358
#     4  10  19  36  60  87 118 157 199 246 302 364
#     4  11  22  37  57  84 117 155 196 245 300 362
#     4  11  22  40  61  87 121 165 210 260 315 377
#     4  12  23  36  55  86 120 155 197 251 309 367
#     4  10  20  37  62  88 115 156 204 251 303 367
#     4   9  19  37  62  89 119 158 206 251 304 369
#
# _framework density 19.999680000000001
#
# number of rings (size 3 to 8) (size 9 to 14) (size 15 to 20)
#    0.000    1.429    1.429    6.429    0.000    1.714 
#    0.000    2.143    0.000    1.714    0.000    0.000 
#    0.000    0.000    0.000    0.000    0.000    0.000 
#
# Total GULP energy -155995.226292 kJ/mol
# GULP energy per Si atom -5571.258082 kJ/mol
# Density = 1.995416 g / cm^3
# Si number density = 19.999680 Si / 1000 Ang^3
#
#
#
# Elastic Constant Matrix: (Units=GPa)
#
#
# Indices 1 2 3 4 5 6 
#
# 1 35.7841 22.4836 5.2032 0.0000 0.0000 0.0000
# 2 22.4836 110.0046 21.3337 0.0000 0.0000 0.0000
# 3 5.2032 21.3337 68.9007 0.0000 0.0000 0.0000
# 4 0.0000 0.0000 0.0000 33.5636 0.0000 0.0000
# 5 0.0000 0.0000 0.0000 0.0000 18.2369 0.0000
# 6 0.0000 0.0000 0.0000 0.0000 0.0000 30.3636
#
#
#
# Elastic Compliance Matrix: (Units=1/GPa)
#
#
# Indices 1 2 3 4 5 6 
#
# 1 0.032074 -0.006475 -0.000417 0.000000 0.000000 0.000000
# 2 -0.006475 0.010978 -0.002910 0.000000 0.000000 0.000000
# 3 -0.000417 -0.002910 0.015446 0.000000 0.000000 0.000000
# 4 0.000000 0.000000 0.000000 0.029794 0.000000 0.000000
# 5 0.000000 0.000000 0.000000 0.000000 0.054834 0.000000
# 6 0.000000 0.000000 0.000000 0.000000 0.000000 0.032934
#
#
# Mechanical properties :
#
#
# Convention : Reuss Voigt Hill
#
# Bulk Modulus (GPa) = 25.71087 34.74782 30.22934
# Shear Modulus (GPa) = 23.96588 27.47743 25.72166
#
# Velocity S-wave (km/s) = 3.46542 3.71063 3.59012
# Velocity P-wave (km/s) = 5.37548 5.98082 5.68621
#
# Compressibility (1/GPa) = 0.03889406
#
# Stress axis : x y z
#
# Youngs Moduli (GPa) = 31.17782 91.08919 64.74059
#
# Poissons Ratio (x) = 0.58976 0.02702
# Poissons Ratio (y) = 0.20186 0.18841
# Poissons Ratio (z) = 0.01301 0.26509
#
# Static dielectric constant tensor:
#      x y z
#    x 1.718690 0.000000 0.000000 
#    y 0.000000 1.372150 0.000000 
#    z 0.000000 0.000000 1.757900 
# 
# From -- ./inp_files/14195.got.cif
#   From: 2010.05.17/outbox.cif.g08.bks.cpg/sg46_8_cif.got.tgz:14195.got - 2010.06.03 19:58:25.
