data_PCOD9379066
_publ_section_title
;
Structure prediction by ZEFSAII (Michael W. Deem and Ramdas Pophale) SiO2 
 PCOD9379066
Probable space group: I M A 2
;
_chemical_formula_sum "Si O2"
_cell_formula_units_Z 48
_cell_length_a 32.938584
_cell_length_b 9.262590
_cell_length_c 8.987750
_cell_angle_alpha 90.000000
_cell_angle_beta 90.000000
_cell_angle_gamma 90.000000
_cell_volume 2742.131956
_symmetry_space_group_name_H-M "I M A 2"
_symmetry_group_IT_number 46
_symmetry_cell_setting 'orthorhombic'
loop_
_space_group_symop_operation_xyz
x,y,z
-x,-y,z
1/2-x,y,z
1/2+x,-y,z
1/2+x,1/2+y,1/2+z
1/2-x,1/2-y,1/2+z
-x,1/2+y,1/2+z
x,1/2-y,1/2+z
loop_
_atom_site_type_symbol
_atom_site_label
_atom_site_fract_x
_atom_site_fract_y
_atom_site_fract_z
Si Si1 0.838325 0.359181 0.372530
Si Si2 0.365390 0.417367 0.827665
Si Si3 0.201907 0.603091 0.691513
Si Si4 0.080060 0.819565 0.357648
Si Si5 0.377230 0.391384 0.181863
Si Si6 0.043594 0.572279 0.160637
O O1 0.815342 0.394112 0.524242
O O2 0.811892 0.250479 0.272635
O O3 0.880757 0.275579 0.409211
O O4 0.849056 0.499588 0.275800
O O5 0.321785 0.477855 0.779206
O O6 0.398390 0.540933 0.783578
O O7 0.373914 0.268473 0.745343
O O8 0.367550 0.399441 0.006083
O O9 0.250000 0.587178 0.693569
O O10 0.053023 0.714902 0.257190
O O11 0.053577 0.878628 0.493031
O O12 0.422407 0.454257 0.201496
O O13 0.000000 0.500000 0.177860
#
# Coordination Sequence:
#
# PCOD9379066 Si02
#       6
#     8   8   8   8   8   8
#     4  10  19  36  59  80 108 145 184 220 270 334
#     4  10  20  37  58  79 109 147 185 223 271 335
#     4  11  21  35  56  84 110 141 183 231 274 319
#     4   9  19  37  57  78 109 147 179 215 267 331
#     4  10  21  37  58  81 108 147 186 221 272 334
#     4  10  21  36  56  84 111 139 182 230 270 315
#
# _framework density 17.504628
#
# number of rings (size 3 to 8) (size 9 to 14) (size 15 to 20)
#    0.000    2.000    0.000    6.500    0.000    4.000 
#    0.000    5.833    0.000    0.000    0.000    0.000 
#    0.000    0.000    0.000    0.000    0.000    0.000 
#
# Total GULP energy -133947.654897 kJ/mol
# GULP energy per Si atom -5581.152287 kJ/mol
# Density = 1.746479 g / cm^3
# Si number density = 17.504628 Si / 1000 Ang^3
#
#
#
# Elastic Constant Matrix: (Units=GPa)
#
#
# Indices 1 2 3 4 5 6 
#
# 1 125.7682 79.3198 71.9201 0.0000 0.0000 0.0000
# 2 79.3198 158.2582 61.2598 0.0000 0.0000 0.0000
# 3 71.9201 61.2598 94.3795 0.0000 0.0000 0.0000
# 4 0.0000 0.0000 0.0000 33.0895 0.0000 0.0000
# 5 0.0000 0.0000 0.0000 0.0000 9.5707 0.0000
# 6 0.0000 0.0000 0.0000 0.0000 0.0000 14.2137
#
#
#
# Elastic Compliance Matrix: (Units=1/GPa)
#
#
# Indices 1 2 3 4 5 6 
#
# 1 0.016136 -0.004444 -0.009411 0.000000 0.000000 0.000000
# 2 -0.004444 0.009663 -0.002885 0.000000 0.000000 0.000000
# 3 -0.009411 -0.002885 0.019640 0.000000 0.000000 0.000000
# 4 0.000000 0.000000 0.000000 0.030221 0.000000 0.000000
# 5 0.000000 0.000000 0.000000 0.000000 0.104486 0.000000
# 6 0.000000 0.000000 0.000000 0.000000 0.000000 0.070354
#
#
# Mechanical properties :
#
#
# Convention : Reuss Voigt Hill
#
# Bulk Modulus (GPa) = 83.63312 89.26725 86.45018
# Shear Modulus (GPa) = 17.36298 22.43519 19.89909
#
# Velocity S-wave (km/s) = 3.15287 3.58393 3.37529
# Velocity P-wave (km/s) = 7.81893 8.26034 8.04266
#
# Compressibility (1/GPa) = 0.01195699
#
# Stress axis : x y z
#
# Youngs Moduli (GPa) = 61.97323 103.48448 50.91614
#
# Poissons Ratio (x) = 0.45993 0.47919
# Poissons Ratio (y) = 0.27544 0.14692
# Poissons Ratio (z) = 0.58325 0.29860
#
# Static dielectric constant tensor:
#      x y z
#    x 1.573370 0.000000 0.000000 
#    y 0.000000 1.589230 0.000000 
#    z 0.000000 0.000000 1.594830 
# 
# From -- ./inp_files/8372.got.cif
#   From: 2010.05.17/outbox.cif.g08.bks.cpg/sg46_5_cif.got.tgz:8372.got - 2010.06.03 19:58:25.
