data_PCOD9379453
_publ_section_title
;
Structure prediction by ZEFSAII (Michael W. Deem and Ramdas Pophale) SiO2 
 PCOD9379453
Probable space group: I M A 2
;
_chemical_formula_sum "Si O2"
_cell_formula_units_Z 48
_cell_length_a 14.964978
_cell_length_b 7.846661
_cell_length_c 14.628435
_cell_angle_alpha 90.000000
_cell_angle_beta 90.000000
_cell_angle_gamma 90.000000
_cell_volume 1717.745578
_symmetry_space_group_name_H-M "I M A 2"
_symmetry_group_IT_number 46
_symmetry_cell_setting 'orthorhombic'
loop_
_space_group_symop_operation_xyz
x,y,z
-x,-y,z
1/2-x,y,z
1/2+x,-y,z
1/2+x,1/2+y,1/2+z
1/2-x,1/2-y,1/2+z
-x,1/2+y,1/2+z
x,1/2-y,1/2+z
loop_
_atom_site_type_symbol
_atom_site_label
_atom_site_fract_x
_atom_site_fract_y
_atom_site_fract_z
Si Si1 0.604573 0.528083 0.709910
Si Si2 0.405223 0.894757 0.390634
Si Si3 0.359611 0.969496 0.662066
Si Si4 0.643516 0.863586 0.831566
Si Si5 0.852051 0.797193 0.509521
Si Si6 0.645513 0.151997 0.037033
O O1 0.500000 0.500000 0.699614
O O2 0.632223 0.389310 0.787605
O O3 0.629704 0.697931 0.766420
O O4 0.637259 0.510437 0.605427
O O5 0.404626 0.717824 0.446091
O O6 0.500000 0.000000 0.389141
O O7 0.347328 0.026598 0.449781
O O8 0.250000 0.981176 0.662150
O O9 0.391682 0.990260 0.765281
O O10 0.396713 0.126447 0.600244
O O11 0.381669 0.797402 0.610494
O O12 0.750000 0.885475 0.843795
O O13 0.608720 0.832948 0.934030
O O14 0.750000 0.752405 0.528430
O O15 0.750000 0.164324 0.013547
#
# Coordination Sequence:
#
# PCOD9379453 Si02
#       6
#     8   8   8   8   8   8
#     4  10  21  35  52  78 111 145 185 233 287 343
#     4   9  18  33  53  76 105 145 187 226 277 343
#     4   8  15  28  47  72  97 124 168 218 262 314
#     4   9  16  29  49  70  97 136 178 221 270 329
#     4   8  14  26  45  67  93 130 174 215 261 325
#     4  10  20  35  57  83 109 144 191 241 289 340
#
# _framework density 27.943601000000001
#
# number of rings (size 3 to 8) (size 9 to 14) (size 15 to 20)
#    0.000    3.000    0.000    2.000    0.000    4.667 
#    0.000    1.667    0.000    5.000    0.000    0.000 
#    0.000    0.000    0.000    0.000    0.000    0.000 
#
# Total GULP energy -133971.187718 kJ/mol
# GULP energy per Si atom -5582.132822 kJ/mol
# Density = 2.788000 g / cm^3
# Si number density = 27.943601 Si / 1000 Ang^3
#
#
#
# Elastic Constant Matrix: (Units=GPa)
#
#
# Indices 1 2 3 4 5 6 
#
# 1 106.7433 -14.9801 2.6397 0.0000 0.0000 0.0000
# 2 -14.9801 82.6360 7.4021 0.0000 0.0000 0.0000
# 3 2.6397 7.4021 223.7342 0.0000 0.0000 0.0000
# 4 0.0000 0.0000 0.0000 52.8478 0.0000 0.0000
# 5 0.0000 0.0000 0.0000 0.0000 21.4273 0.0000
# 6 0.0000 0.0000 0.0000 0.0000 0.0000 -0.6588
#
#
#
# Elastic Compliance Matrix: (Units=1/GPa)
#
#
# Indices 1 2 3 4 5 6 
#
# 1 0.009619 0.001759 -0.000172 0.000000 0.000000 0.000000
# 2 0.001759 0.012459 -0.000433 0.000000 0.000000 0.000000
# 3 -0.000172 -0.000433 0.004486 0.000000 0.000000 0.000000
# 4 0.000000 0.000000 0.000000 0.018922 0.000000 0.000000
# 5 0.000000 0.000000 0.000000 0.000000 0.046669 0.000000
# 6 0.000000 0.000000 0.000000 0.000000 0.000000 -1.517873
#
#
# Mechanical properties :
#
#
# Convention : Reuss Voigt Hill
#
# Bulk Modulus (GPa) = 34.63405 44.80410 39.71907
# Shear Modulus (GPa) = -3.52509 42.59338 19.53414
#
# Velocity S-wave (km/s) = -1.12439 3.90842 2.64684
# Velocity P-wave (km/s) = 3.27651 6.03624 4.85653
#
# Compressibility (1/GPa) = 0.02887332
#
# Stress axis : x y z
#
# Youngs Moduli (GPa) = 103.95667 80.26364 222.91880
#
# Poissons Ratio (x) = -0.14120 0.03827
# Poissons Ratio (y) = -0.18288 0.09651
# Poissons Ratio (z) = 0.01785 0.03475
#
# Static dielectric constant tensor:
#      x y z
#    x 2.073490 0.000000 0.000000 
#    y 0.000000 2.446670 0.000000 
#    z 0.000000 0.000000 2.218740 
# 
# From -- ./inp_files/16630.got.cif
#   From: 2010.05.17/outbox.cif.g08.bks.cpg/sg46_9_cif.got.tgz:16630.got - 2010.06.03 19:58:25.
