data_PCOD9379476
_publ_section_title
;
Structure prediction by ZEFSAII (Michael W. Deem and Ramdas Pophale) SiO2 
 PCOD9379476
Probable space group: I M A 2
;
_chemical_formula_sum "Si O2"
_cell_formula_units_Z 64
_cell_length_a 14.892250
_cell_length_b 17.168424
_cell_length_c 10.852151
_cell_angle_alpha 90.000000
_cell_angle_beta 90.000000
_cell_angle_gamma 90.000000
_cell_volume 2774.639576
_symmetry_space_group_name_H-M "I M A 2"
_symmetry_group_IT_number 46
_symmetry_cell_setting 'orthorhombic'
loop_
_space_group_symop_operation_xyz
x,y,z
-x,-y,z
1/2-x,y,z
1/2+x,-y,z
1/2+x,1/2+y,1/2+z
1/2-x,1/2-y,1/2+z
-x,1/2+y,1/2+z
x,1/2-y,1/2+z
loop_
_atom_site_type_symbol
_atom_site_label
_atom_site_fract_x
_atom_site_fract_y
_atom_site_fract_z
Si Si1 0.359644 0.673738 0.901090
Si Si2 0.852158 0.008766 0.313688
Si Si3 0.649197 0.597872 0.170446
Si Si4 0.139459 0.151122 0.413481
Si Si5 0.141703 0.328297 0.422021
Si Si6 0.640620 0.209915 0.681326
Si Si7 0.903888 0.456139 0.282685
Si Si8 0.395386 0.484177 0.546215
O O1 0.250000 0.672610 0.900420
O O2 0.391687 0.584162 0.881855
O O3 0.385858 0.721360 0.777016
O O4 0.385255 0.710182 0.035097
O O5 0.750000 0.003563 0.361098
O O6 0.890500 0.921283 0.329622
O O7 0.850582 0.019187 0.166843
O O8 0.750000 0.629922 0.163535
O O9 0.611489 0.631791 0.295594
O O10 0.651605 0.505798 0.183861
O O11 0.605451 0.623654 0.046503
O O12 0.250000 0.155151 0.402302
O O13 0.108791 0.240203 0.409223
O O14 0.250000 0.325899 0.428525
O O15 0.116542 0.390949 0.526732
O O16 0.750000 0.205359 0.684010
O O17 0.600700 0.132088 0.743090
O O18 0.865918 0.473511 0.419408
O O19 0.000000 0.500000 0.278495
O O20 0.500000 0.500000 0.559866
#
# Coordination Sequence:
#
# PCOD9379476 Si02
#       8
#     8   8   8   8   8   8   8   8
#     4   9  20  36  59  94 127 153 199 254 307 362
#     4  10  20  35  58  85 118 158 199 250 305 356
#     4   9  17  32  54  80 109 141 185 235 289 351
#     4   9  18  31  54  85 117 146 184 242 298 350
#     4   9  18  32  55  87 113 146 192 236 292 362
#     4  10  20  37  64  94 123 156 199 253 305 362
#     4  10  21  37  58  79 116 155 200 247 300 355
#     4  10  22  38  56  78 120 157 201 250 300 353
#
# _framework density 23.066058999999999
#
# number of rings (size 3 to 8) (size 9 to 14) (size 15 to 20)
#    0.000    2.500    0.000    1.500    3.500    3.500 
#    0.000    3.750    5.500    0.000    0.000    0.000 
#    0.000    0.000    0.000    0.000    0.000    0.000 
#
# Total GULP energy -178329.938475 kJ/mol
# GULP energy per Si atom -5572.810577 kJ/mol
# Density = 2.301356 g / cm^3
# Si number density = 23.066059 Si / 1000 Ang^3
#
#
#
# Elastic Constant Matrix: (Units=GPa)
#
#
# Indices 1 2 3 4 5 6 
#
# 1 54.0862 12.8029 3.6414 0.0000 0.0000 0.0000
# 2 12.8029 143.3615 53.4128 0.0000 0.0000 0.0000
# 3 3.6414 53.4128 112.6673 0.0000 0.0000 0.0000
# 4 0.0000 0.0000 0.0000 17.3973 0.0000 0.0000
# 5 0.0000 0.0000 0.0000 0.0000 24.1369 0.0000
# 6 0.0000 0.0000 0.0000 0.0000 0.0000 -21.1163
#
#
#
# Elastic Compliance Matrix: (Units=1/GPa)
#
#
# Indices 1 2 3 4 5 6 
#
# 1 0.018893 -0.001773 0.000230 0.000000 0.000000 0.000000
# 2 -0.001773 0.008638 -0.004038 0.000000 0.000000 0.000000
# 3 0.000230 -0.004038 0.010782 0.000000 0.000000 0.000000
# 4 0.000000 0.000000 0.000000 0.057480 0.000000 0.000000
# 5 0.000000 0.000000 0.000000 0.000000 0.041430 0.000000
# 6 0.000000 0.000000 0.000000 0.000000 0.000000 -0.047357
#
#
# Mechanical properties :
#
#
# Convention : Reuss Voigt Hill
#
# Bulk Modulus (GPa) = 36.82959 49.98101 43.40530
# Shear Modulus (GPa) = 45.42150 20.10076 32.76113
#
# Velocity S-wave (km/s) = 4.44237 2.95522 3.77280
# Velocity P-wave (km/s) = 6.50496 5.77582 6.15121
#
# Compressibility (1/GPa) = 0.02715208
#
# Stress axis : x y z
#
# Youngs Moduli (GPa) = 52.92911 115.76641 92.74304
#
# Poissons Ratio (x) = 0.20524 -0.02132
# Poissons Ratio (y) = 0.09384 0.37448
# Poissons Ratio (z) = -0.01217 0.46744
#
# Static dielectric constant tensor:
#      x y z
#    x 1.893380 0.000000 0.000000 
#    y 0.000000 1.933920 0.000000 
#    z 0.000000 0.000000 1.876960 
# 
# From -- ./inp_files/11953.got.cif
#   From: 2010.05.17/outbox.cif.g08.bks.cpg/sg46_6_cif.got.tgz:11953.got - 2010.06.03 19:58:25.
