data_PCOD9379759
_publ_section_title
;
Structure prediction by ZEFSAII (Michael W. Deem and Ramdas Pophale) SiO2 
 PCOD9379759
Probable space group: I M A 2
;
_chemical_formula_sum "Si O2"
_cell_formula_units_Z 60
_cell_length_a 15.144582
_cell_length_b 12.451303
_cell_length_c 16.787920
_cell_angle_alpha 90.000000
_cell_angle_beta 90.000000
_cell_angle_gamma 90.000000
_cell_volume 3165.694369
_symmetry_space_group_name_H-M "I M A 2"
_symmetry_group_IT_number 46
_symmetry_cell_setting 'orthorhombic'
loop_
_space_group_symop_operation_xyz
x,y,z
-x,-y,z
1/2-x,y,z
1/2+x,-y,z
1/2+x,1/2+y,1/2+z
1/2-x,1/2-y,1/2+z
-x,1/2+y,1/2+z
x,1/2-y,1/2+z
loop_
_atom_site_type_symbol
_atom_site_label
_atom_site_fract_x
_atom_site_fract_y
_atom_site_fract_z
Si Si1 0.925608 0.589545 0.100220
Si Si2 0.348855 0.151579 0.437209
Si Si3 0.350626 0.403521 0.457462
Si Si4 0.446396 0.737255 0.663035
Si Si5 0.446226 0.103142 0.276622
Si Si6 0.150204 0.562430 0.222369
Si Si7 0.000000 0.500000 0.344809
Si Si8 0.854174 0.015556 0.127987
O O1 0.858001 0.544485 0.166731
O O2 0.000000 0.500000 0.107143
O O3 0.972063 0.702853 0.119896
O O4 0.892156 0.589852 0.010522
O O5 0.250000 0.110865 0.429702
O O6 0.348856 0.275594 0.462934
O O7 0.391089 0.143663 0.350644
O O8 0.250000 0.435693 0.430265
O O9 0.432210 0.434238 0.400535
O O10 0.364600 0.456195 0.543830
O O11 0.487369 0.694101 0.745599
O O12 0.372043 0.828482 0.673898
O O13 0.406349 0.628824 0.625385
O O14 0.500000 0.000000 0.305915
O O15 0.392238 0.057894 0.199926
O O16 0.250000 0.567860 0.254062
O O17 0.070700 0.557748 0.286507
O O18 0.750000 0.034419 0.141800
#
# Coordination Sequence:
#
# PCOD9379759 Si02
#       8
#     8   8   8   8   8   8   4   8
#     4  10  21  38  59  87 115 156 201 244 305 365
#     4  11  22  37  56  85 119 153 197 251 301 352
#     4  10  24  39  59  91 122 156 199 248 304 365
#     4  10  20  38  61  88 115 161 201 244 306 362
#     4  10  21  36  61  88 116 159 204 248 302 357
#     4  11  22  40  63  90 121 158 204 252 302 366
#     4  12  22  40  60  86 120 160 190 250 304 356
#     4  10  21  39  61  90 122 158 204 251 303 364
#
# _framework density 18.953187
#
# number of rings (size 3 to 8) (size 9 to 14) (size 15 to 20)
#    0.000    1.600    2.000    3.600    4.667    0.000 
#    0.000    1.333    0.000    0.000    0.000    0.000 
#    0.000    0.000    0.000    0.000    0.000    0.000 
#
# Total GULP energy -167230.465468 kJ/mol
# GULP energy per Si atom -5574.348849 kJ/mol
# Density = 1.891005 g / cm^3
# Si number density = 18.953187 Si / 1000 Ang^3
#
#
#
# Elastic Constant Matrix: (Units=GPa)
#
#
# Indices 1 2 3 4 5 6 
#
# 1 108.5592 28.9590 32.4125 0.0000 0.0000 0.0000
# 2 28.9590 72.5592 32.9228 0.0000 0.0000 0.0000
# 3 32.4125 32.9228 74.0160 0.0000 0.0000 0.0000
# 4 0.0000 0.0000 0.0000 12.6448 0.0000 0.0000
# 5 0.0000 0.0000 0.0000 0.0000 19.8548 0.0000
# 6 0.0000 0.0000 0.0000 0.0000 0.0000 18.1068
#
#
#
# Elastic Compliance Matrix: (Units=1/GPa)
#
#
# Indices 1 2 3 4 5 6 
#
# 1 0.011024 -0.002768 -0.003596 0.000000 0.000000 0.000000
# 2 -0.002768 0.017962 -0.006777 0.000000 0.000000 0.000000
# 3 -0.003596 -0.006777 0.018100 0.000000 0.000000 0.000000
# 4 0.000000 0.000000 0.000000 0.079084 0.000000 0.000000
# 5 0.000000 0.000000 0.000000 0.000000 0.050366 0.000000
# 6 0.000000 0.000000 0.000000 0.000000 0.000000 0.055228
#
#
# Mechanical properties :
#
#
# Convention : Reuss Voigt Hill
#
# Bulk Modulus (GPa) = 48.07137 49.30255 48.68696
# Shear Modulus (GPa) = 18.86935 20.84395 19.85665
#
# Velocity S-wave (km/s) = 3.15870 3.31986 3.24028
# Velocity P-wave (km/s) = 6.22266 6.38471 6.30421
#
# Compressibility (1/GPa) = 0.02080240
#
# Stress axis : x y z
#
# Youngs Moduli (GPa) = 90.71419 55.67407 55.24851
#
# Poissons Ratio (x) = 0.15410 0.19868
# Poissons Ratio (y) = 0.25109 0.37444
# Poissons Ratio (z) = 0.32623 0.37732
#
# Static dielectric constant tensor:
#      x y z
#    x 1.701500 0.000000 0.000000 
#    y 0.000000 1.661490 0.000000 
#    z 0.000000 0.000000 1.665850 
# 
# From -- ./inp_files/19576.got.cif
#   From: 2010.05.17/outbox.cif.g08.bks.cpg/sg46_10_cif.got.tgz:19576.got - 2010.06.03 19:58:25.
