data_PCOD9379234
_publ_section_title
;
Structure prediction by ZEFSAII (Michael W. Deem and Ramdas Pophale) SiO2 
 PCOD9379234
Probable space group: I M A 2
;
_chemical_formula_sum "Si O2"
_cell_formula_units_Z 64
_cell_length_a 8.861295
_cell_length_b 15.192800
_cell_length_c 27.456216
_cell_angle_alpha 90.000000
_cell_angle_beta 90.000000
_cell_angle_gamma 90.000000
_cell_volume 3696.372226
_symmetry_space_group_name_H-M "I M A 2"
_symmetry_group_IT_number 46
_symmetry_cell_setting 'orthorhombic'
loop_
_space_group_symop_operation_xyz
x,y,z
-x,-y,z
1/2-x,y,z
1/2+x,-y,z
1/2+x,1/2+y,1/2+z
1/2-x,1/2-y,1/2+z
-x,1/2+y,1/2+z
x,1/2-y,1/2+z
loop_
_atom_site_type_symbol
_atom_site_label
_atom_site_fract_x
_atom_site_fract_y
_atom_site_fract_z
Si Si1 0.070020 0.594603 0.880000
Si Si2 0.931341 0.592925 0.330854
Si Si3 0.568631 0.907569 0.717990
Si Si4 0.429197 0.905315 0.989777
Si Si5 0.071192 0.905757 0.105364
Si Si6 0.068759 0.219090 0.184229
Si Si7 0.930405 0.094987 0.265161
Si Si8 0.568823 0.728087 0.414303
O O1 0.250000 0.592044 0.885797
O O2 0.036977 0.609857 0.822390
O O3 0.000000 0.500000 0.892899
O O4 0.999675 0.675055 0.909677
O O5 0.750000 0.586325 0.332232
O O6 0.977469 0.606659 0.274645
O O7 0.976180 0.671980 0.366193
O O8 0.000000 0.500000 0.347366
O O9 0.750000 0.914248 0.717211
O O10 0.524075 0.821402 0.687990
O O11 0.500000 0.000000 0.701514
O O12 0.250000 0.907165 0.980595
O O13 0.506102 0.828083 0.959285
O O14 0.500000 0.000000 0.976402
O O15 0.453677 0.892924 0.047650
O O16 0.250000 0.908184 0.114491
O O17 0.995874 0.830222 0.137346
O O18 0.000000 0.000000 0.118895
O O19 0.250000 0.213733 0.184878
O O20 0.004290 0.168263 0.231227
O O21 0.750000 0.093304 0.258409
O O22 0.000000 0.000000 0.252120
O O23 0.750000 0.732596 0.416204
#
# Coordination Sequence:
#
# PCOD9379234 Si02
#       8
#     8   8   8   8   8   8   8   8
#     4  10  21  36  53  74 103 139 178 218 258 303
#     4   9  18  31  47  71 103 136 169 204 245 294
#     4   9  19  34  50  70  99 135 171 208 248 291
#     4  10  21  37  56  79 107 136 168 209 258 312
#     4  10  21  37  56  78 105 135 167 208 257 310
#     4  11  21  33  52  76 103 135 172 214 259 310
#     4  10  20  33  50  74 105 140 175 212 254 303
#     4  11  21  33  53  78 105 138 174 213 257 307
#
# _framework density 17.314274000000001
#
# number of rings (size 3 to 8) (size 9 to 14) (size 15 to 20)
#    0.000    2.000    0.000    3.750    0.000    7.000 
#    0.000    2.500    0.000    0.750    0.000    1.750 
#    0.000    0.000    0.000    0.000    0.000    0.000 
#
# Total GULP energy -178737.546869 kJ/mol
# GULP energy per Si atom -5585.548340 kJ/mol
# Density = 1.727487 g / cm^3
# Si number density = 17.314274 Si / 1000 Ang^3
#
#
#
# Elastic Constant Matrix: (Units=GPa)
#
#
# Indices 1 2 3 4 5 6 
#
# 1 63.8184 66.8294 44.5162 0.0000 0.0000 0.0000
# 2 66.8294 176.6672 70.6311 0.0000 0.0000 0.0000
# 3 44.5162 70.6311 56.9954 0.0000 0.0000 0.0000
# 4 0.0000 0.0000 0.0000 26.8200 0.0000 0.0000
# 5 0.0000 0.0000 0.0000 0.0000 24.6392 0.0000
# 6 0.0000 0.0000 0.0000 0.0000 0.0000 33.2085
#
#
#
# Elastic Compliance Matrix: (Units=1/GPa)
#
#
# Indices 1 2 3 4 5 6 
#
# 1 0.036333 -0.004754 -0.022487 0.000000 0.000000 0.000000
# 2 -0.004754 0.011841 -0.010960 0.000000 0.000000 0.000000
# 3 -0.022487 -0.010960 0.048691 0.000000 0.000000 0.000000
# 4 0.000000 0.000000 0.000000 0.037286 0.000000 0.000000
# 5 0.000000 0.000000 0.000000 0.000000 0.040586 0.000000
# 6 0.000000 0.000000 0.000000 0.000000 0.000000 0.030113
#
#
# Mechanical properties :
#
#
# Convention : Reuss Voigt Hill
#
# Bulk Modulus (GPa) = 48.86910 73.49271 61.18090
# Shear Modulus (GPa) = 17.35680 24.63384 20.99532
#
# Velocity S-wave (km/s) = 3.16959 3.77602 3.48602
# Velocity P-wave (km/s) = 6.45609 7.84536 7.18438
#
# Compressibility (1/GPa) = 0.02046283
#
# Stress axis : x y z
#
# Youngs Moduli (GPa) = 27.52306 84.45552 20.53770
#
# Poissons Ratio (x) = 0.40149 0.46183
# Poissons Ratio (y) = 0.13084 0.22510
# Poissons Ratio (z) = 0.61890 0.92566
#
# Static dielectric constant tensor:
#      x y z
#    x 1.577820 0.000000 0.000000 
#    y 0.000000 1.567100 0.000000 
#    z 0.000000 0.000000 1.584640 
# 
# From -- ./inp_files/23213.got.cif
#   From: 2010.05.17/outbox.cif.g08.bks.cpg/sg46_12_cif.got.tgz:23213.got - 2010.06.03 19:58:25.
