data_PCOD9379207
_publ_section_title
;
Structure prediction by ZEFSAII (Michael W. Deem and Ramdas Pophale) SiO2 
 PCOD9379207
Probable space group: I M A 2
;
_chemical_formula_sum "Si O2"
_cell_formula_units_Z 48
_cell_length_a 26.112118
_cell_length_b 11.454167
_cell_length_c 8.463783
_cell_angle_alpha 90.000000
_cell_angle_beta 90.000000
_cell_angle_gamma 90.000000
_cell_volume 2531.454527
_symmetry_space_group_name_H-M "I M A 2"
_symmetry_group_IT_number 46
_symmetry_cell_setting 'orthorhombic'
loop_
_space_group_symop_operation_xyz
x,y,z
-x,-y,z
1/2-x,y,z
1/2+x,-y,z
1/2+x,1/2+y,1/2+z
1/2-x,1/2-y,1/2+z
-x,1/2+y,1/2+z
x,1/2-y,1/2+z
loop_
_atom_site_type_symbol
_atom_site_label
_atom_site_fract_x
_atom_site_fract_y
_atom_site_fract_z
Si Si1 0.535545 0.896739 0.224460
Si Si2 0.141578 0.100799 0.736205
Si Si3 0.517972 0.275872 0.014843
Si Si4 0.250000 0.397989 0.340325
Si Si5 0.858271 0.632597 0.858521
Si Si6 0.250000 0.132376 0.217711
Si Si7 0.447981 0.574718 0.297784
O O1 0.507676 0.856372 0.384300
O O2 0.593811 0.924703 0.266495
O O3 0.500000 0.000000 0.160737
O O4 0.528306 0.787456 0.108311
O O5 0.196878 0.048483 0.782586
O O6 0.137773 0.228904 0.816883
O O7 0.138047 0.115176 0.546610
O O8 0.097778 0.016441 0.800450
O O9 0.550260 0.173738 0.931864
O O10 0.550487 0.352885 0.134610
O O11 0.250000 0.270349 0.257607
O O12 0.250000 0.384158 0.529524
O O13 0.803160 0.589439 0.794649
O O14 0.500000 0.500000 0.301794
#
# Coordination Sequence:
#
# PCOD9379207 Si02
#       7
#     8   8   8   4   8   4   8
#     4  11  21  34  53  77 108 143 177 217 264 323
#     4  11  21  35  57  81 114 148 183 227 280 335
#     4  10  22  36  51  79 111 140 182 222 266 322
#     4  10  20  34  52  78 109 146 186 226 279 338
#     4  11  20  33  53  81 114 147 181 223 276 338
#     4  10  20  32  50  78 115 146 178 228 283 334
#     4  11  22  37  57  81 111 148 182 225 276 326
#
# _framework density 18.961431999999999
#
# number of rings (size 3 to 8) (size 9 to 14) (size 15 to 20)
#    0.000    1.333    0.000   10.500    0.000    4.000 
#    0.000    0.000    0.000    1.000    0.000    4.667 
#    0.000    0.000    0.000    0.000    0.000    0.000 
#
# Total GULP energy -134124.788736 kJ/mol
# GULP energy per Si atom -5588.532864 kJ/mol
# Density = 1.891827 g / cm^3
# Si number density = 18.961432 Si / 1000 Ang^3
#
#
#
# Elastic Constant Matrix: (Units=GPa)
#
#
# Indices 1 2 3 4 5 6 
#
# 1 153.6695 31.7748 14.2119 0.0000 0.0000 0.0000
# 2 31.7748 50.3591 14.9269 0.0000 0.0000 0.0000
# 3 14.2119 14.9269 77.8062 0.0000 0.0000 0.0000
# 4 0.0000 0.0000 0.0000 93.8628 0.0000 0.0000
# 5 0.0000 0.0000 0.0000 0.0000 6.0325 0.0000
# 6 0.0000 0.0000 0.0000 0.0000 0.0000 26.1697
#
#
#
# Elastic Compliance Matrix: (Units=1/GPa)
#
#
# Indices 1 2 3 4 5 6 
#
# 1 0.007501 -0.004588 -0.000490 0.000000 0.000000 0.000000
# 2 -0.004588 0.023861 -0.003740 0.000000 0.000000 0.000000
# 3 -0.000490 -0.003740 0.013659 0.000000 0.000000 0.000000
# 4 0.000000 0.000000 0.000000 0.010654 0.000000 0.000000
# 5 0.000000 0.000000 0.000000 0.000000 0.165770 0.000000
# 6 0.000000 0.000000 0.000000 0.000000 0.000000 0.038212
#
#
# Mechanical properties :
#
#
# Convention : Reuss Voigt Hill
#
# Bulk Modulus (GPa) = 36.51440 44.85132 40.68286
# Shear Modulus (GPa) = 17.45680 39.94107 28.69894
#
# Velocity S-wave (km/s) = 3.03751 4.59457 3.89465
# Velocity P-wave (km/s) = 5.62147 7.20084 6.45961
#
# Compressibility (1/GPa) = 0.02738646
#
# Stress axis : x y z
#
# Youngs Moduli (GPa) = 133.30760 41.90999 73.20978
#
# Poissons Ratio (x) = 0.19228 0.03587
# Poissons Ratio (y) = 0.61160 0.27377
# Poissons Ratio (z) = 0.06532 0.15673
#
# Static dielectric constant tensor:
#      x y z
#    x 1.693070 0.000000 0.000000 
#    y 0.000000 1.620270 0.000000 
#    z 0.000000 0.000000 1.690610 
# 
# From -- ./inp_files/8156.got.cif
#   From: 2010.05.17/outbox.cif.g08.bks.cpg/sg46_5_cif.got.tgz:8156.got - 2010.06.03 19:58:25.
