data_PCOD9379166
_publ_section_title
;
Structure prediction by ZEFSAII (Michael W. Deem and Ramdas Pophale) SiO2 
 PCOD9379166
Probable space group: I M A 2
;
_chemical_formula_sum "Si O2"
_cell_formula_units_Z 64
_cell_length_a 17.925372
_cell_length_b 12.311446
_cell_length_c 14.651435
_cell_angle_alpha 90.000000
_cell_angle_beta 90.000000
_cell_angle_gamma 90.000000
_cell_volume 3233.384890
_symmetry_space_group_name_H-M "I M A 2"
_symmetry_group_IT_number 46
_symmetry_cell_setting 'orthorhombic'
loop_
_space_group_symop_operation_xyz
x,y,z
-x,-y,z
1/2-x,y,z
1/2+x,-y,z
1/2+x,1/2+y,1/2+z
1/2-x,1/2-y,1/2+z
-x,1/2+y,1/2+z
x,1/2-y,1/2+z
loop_
_atom_site_type_symbol
_atom_site_label
_atom_site_fract_x
_atom_site_fract_y
_atom_site_fract_z
Si Si1 0.554778 0.735335 0.522070
Si Si2 0.663135 0.865348 0.397056
Si Si3 0.974850 0.877441 0.676020
Si Si4 0.336547 0.329503 0.275090
Si Si5 0.943568 0.211124 0.851705
Si Si6 0.662254 0.947840 0.110149
Si Si7 0.165820 0.523983 0.408466
Si Si8 0.839033 0.415281 0.796212
O O1 0.614177 0.817306 0.477167
O O2 0.504886 0.803425 0.591624
O O3 0.499158 0.707664 0.438786
O O4 0.601409 0.644809 0.580765
O O5 0.750000 0.845818 0.416900
O O6 0.646323 0.792711 0.306859
O O7 0.651793 0.989669 0.371284
O O8 0.886455 0.871289 0.693396
O O9 0.008081 0.822271 0.765226
O O10 0.000000 0.000000 0.666495
O O11 0.250000 0.335943 0.252515
O O12 0.350474 0.406439 0.363523
O O13 0.887225 0.113132 0.868395
O O14 0.895242 0.318587 0.825314
O O15 0.750000 0.908536 0.120603
O O16 0.645499 0.023480 0.198515
O O17 0.661376 0.018401 0.017354
O O18 0.250000 0.550188 0.382072
O O19 0.750000 0.383875 0.794456
#
# Coordination Sequence:
#
# PCOD9379166 Si02
#       8
#     8   8   8   8   8   8   8   8
#     4  12  26  40  65  99 132 173 213 280 337 391
#     4  10  20  40  66  93 127 169 214 266 331 391
#     4  12  26  44  61  95 134 171 219 267 326 392
#     4  10  19  39  67  94 122 165 218 269 326 380
#     4  12  26  44  65  94 138 181 212 263 336 409
#     4  10  21  42  72 102 125 163 234 290 325 385
#     4  10  20  39  69  95 123 169 224 276 319 382
#     4  10  24  44  68  95 134 180 224 273 330 403
#
# _framework density 19.793499000000001
#
# number of rings (size 3 to 8) (size 9 to 14) (size 15 to 20)
#    0.000    1.250    3.750    1.500    3.500    2.000 
#    0.000    0.000    0.000    0.000    0.000    0.000 
#    0.000    0.000    0.000    0.000    0.000    0.000 
#
# Total GULP energy -178522.866683 kJ/mol
# GULP energy per Si atom -5578.839584 kJ/mol
# Density = 1.974845 g / cm^3
# Si number density = 19.793499 Si / 1000 Ang^3
#
#
#
# Elastic Constant Matrix: (Units=GPa)
#
#
# Indices 1 2 3 4 5 6 
#
# 1 78.9257 55.4467 25.2739 0.0000 0.0000 0.0000
# 2 55.4467 87.8038 9.6023 0.0000 0.0000 0.0000
# 3 25.2739 9.6023 55.2858 0.0000 0.0000 0.0000
# 4 0.0000 0.0000 0.0000 -0.5592 0.0000 0.0000
# 5 0.0000 0.0000 0.0000 0.0000 18.6800 0.0000
# 6 0.0000 0.0000 0.0000 0.0000 0.0000 12.8173
#
#
#
# Elastic Compliance Matrix: (Units=1/GPa)
#
#
# Indices 1 2 3 4 5 6 
#
# 1 0.026949 -0.015974 -0.009545 0.000000 0.000000 0.000000
# 2 -0.015974 0.021078 0.003641 0.000000 0.000000 0.000000
# 3 -0.009545 0.003641 0.021819 0.000000 0.000000 0.000000
# 4 0.000000 0.000000 0.000000 -1.788353 0.000000 0.000000
# 5 0.000000 0.000000 0.000000 0.000000 0.053533 0.000000
# 6 0.000000 0.000000 0.000000 0.000000 0.000000 0.078019
#
#
# Mechanical properties :
#
#
# Convention : Reuss Voigt Hill
#
# Bulk Modulus (GPa) = 38.32795 44.74015 41.53405
# Shear Modulus (GPa) = -3.25838 14.96713 5.85437
#
# Velocity S-wave (km/s) = -1.28443 2.75283 1.72167
# Velocity P-wave (km/s) = 4.14804 5.72334 4.99814
#
# Compressibility (1/GPa) = 0.02609062
#
# Stress axis : x y z
#
# Youngs Moduli (GPa) = 37.10772 47.44292 45.83180
#
# Poissons Ratio (x) = 0.75784 0.43747
# Poissons Ratio (y) = 0.59275 -0.16690
# Poissons Ratio (z) = 0.35420 -0.17276
#
# Static dielectric constant tensor:
#      x y z
#    x 1.731710 0.000000 0.000000 
#    y 0.000000 1.697200 0.000000 
#    z 0.000000 0.000000 1.753360 
# 
# From -- ./inp_files/16787.got.cif
#   From: 2010.05.17/outbox.cif.g08.bks.cpg/sg46_9_cif.got.tgz:16787.got - 2010.06.03 19:58:25.
