data_PCOD9379199
_publ_section_title
;
Structure prediction by ZEFSAII (Michael W. Deem and Ramdas Pophale) SiO2 
 PCOD9379199
Probable space group: I M A 2
;
_chemical_formula_sum "Si O2"
_cell_formula_units_Z 64
_cell_length_a 8.658191
_cell_length_b 15.107921
_cell_length_c 27.935391
_cell_angle_alpha 90.000000
_cell_angle_beta 90.000000
_cell_angle_gamma 90.000000
_cell_volume 3654.152111
_symmetry_space_group_name_H-M "I M A 2"
_symmetry_group_IT_number 46
_symmetry_cell_setting 'orthorhombic'
loop_
_space_group_symop_operation_xyz
x,y,z
-x,-y,z
1/2-x,y,z
1/2+x,-y,z
1/2+x,1/2+y,1/2+z
1/2-x,1/2-y,1/2+z
-x,1/2+y,1/2+z
x,1/2-y,1/2+z
loop_
_atom_site_type_symbol
_atom_site_label
_atom_site_fract_x
_atom_site_fract_y
_atom_site_fract_z
Si Si1 0.934193 0.594752 0.849170
Si Si2 0.935208 0.774947 0.163350
Si Si3 0.934559 0.095390 0.242434
Si Si4 0.935629 0.404131 0.015920
Si Si5 0.935072 0.404603 0.470741
Si Si6 0.935571 0.096688 0.626201
Si Si7 0.064833 0.404030 0.576768
Si Si8 0.436658 0.778776 0.429118
O O1 0.750000 0.589241 0.846332
O O2 0.000000 0.500000 0.866637
O O3 0.003220 0.608812 0.796257
O O4 0.986861 0.671488 0.884886
O O5 0.750000 0.774206 0.167077
O O6 0.978116 0.830175 0.115470
O O7 0.005843 0.828120 0.207689
O O8 0.998497 0.676097 0.157695
O O9 0.750000 0.091799 0.242811
O O10 0.000000 0.000000 0.225968
O O11 0.750000 0.408163 0.015825
O O12 0.984553 0.386375 0.070672
O O13 0.000000 0.500000 0.001912
O O14 0.982711 0.330762 0.977629
O O15 0.750000 0.408977 0.473331
O O16 0.978817 0.323625 0.436391
O O17 0.000000 0.500000 0.456156
O O18 0.997279 0.385541 0.524211
O O19 0.750000 0.095879 0.628177
O O20 0.000000 0.000000 0.639244
O O21 0.250000 0.409148 0.573669
O O22 0.000000 0.500000 0.591735
O O23 0.250000 0.784737 0.424646
#
# Coordination Sequence:
#
# PCOD9379199 Si02
#       8
#     8   8   8   8   8   8   8   8
#     4  11  22  37  57  81 109 138 168 209 258 313
#     4  11  22  35  53  79 107 139 179 220 262 314
#     4  11  22  38  59  82 109 139 170 210 260 315
#     4   9  18  31  48  72 104 138 174 213 257 307
#     4  10  20  34  52  73 104 141 179 221 261 304
#     4  10  20  35  53  75 105 143 182 222 265 309
#     4  10  20  32  49  74 107 142 177 216 259 309
#     4  10  20  34  52  76 104 138 177 217 260 309
#
# _framework density 17.514323999999998
#
# number of rings (size 3 to 8) (size 9 to 14) (size 15 to 20)
#    0.000    1.750    0.000    6.750    0.000    7.000 
#    0.000    0.000    0.000    0.750    0.000    3.500 
#    0.000    0.000    0.000    0.000    0.000    0.000 
#
# Total GULP energy -178789.831990 kJ/mol
# GULP energy per Si atom -5587.182250 kJ/mol
# Density = 1.747446 g / cm^3
# Si number density = 17.514324 Si / 1000 Ang^3
#
#
#
# Elastic Constant Matrix: (Units=GPa)
#
#
# Indices 1 2 3 4 5 6 
#
# 1 84.5269 59.7653 39.9560 0.0000 0.0000 0.0000
# 2 59.7653 152.8295 81.4249 0.0000 0.0000 0.0000
# 3 39.9560 81.4249 71.5182 0.0000 0.0000 0.0000
# 4 0.0000 0.0000 0.0000 28.3216 0.0000 0.0000
# 5 0.0000 0.0000 0.0000 0.0000 25.5391 0.0000
# 6 0.0000 0.0000 0.0000 0.0000 0.0000 28.4210
#
#
#
# Elastic Compliance Matrix: (Units=1/GPa)
#
#
# Indices 1 2 3 4 5 6 
#
# 1 0.017002 -0.004037 -0.004903 0.000000 0.000000 0.000000
# 2 -0.004037 0.017590 -0.017772 0.000000 0.000000 0.000000
# 3 -0.004903 -0.017772 0.036955 0.000000 0.000000 0.000000
# 4 0.000000 0.000000 0.000000 0.035309 0.000000 0.000000
# 5 0.000000 0.000000 0.000000 0.000000 0.039156 0.000000
# 6 0.000000 0.000000 0.000000 0.000000 0.000000 0.035185
#
#
# Mechanical properties :
#
#
# Convention : Reuss Voigt Hill
#
# Bulk Modulus (GPa) = 55.17272 74.57411 64.87342
# Shear Modulus (GPa) = 20.77605 24.97155 22.87380
#
# Velocity S-wave (km/s) = 3.44791 3.78005 3.61779
# Velocity P-wave (km/s) = 6.88626 7.85640 7.38727
#
# Compressibility (1/GPa) = 0.01812490
#
# Stress axis : x y z
#
# Youngs Moduli (GPa) = 58.81521 56.84996 27.05989
#
# Poissons Ratio (x) = 0.22948 0.13268
# Poissons Ratio (y) = 0.23741 0.48090
# Poissons Ratio (z) = 0.28838 1.01031
#
# Static dielectric constant tensor:
#      x y z
#    x 1.586370 0.000000 0.000000 
#    y 0.000000 1.593140 0.000000 
#    z 0.000000 0.000000 1.581630 
# 
# From -- ./inp_files/23239.got.cif
#   From: 2010.05.17/outbox.cif.g08.bks.cpg/sg46_12_cif.got.tgz:23239.got - 2010.06.03 19:58:25.
