data_PCOD9379763
_publ_section_title
;
Structure prediction by ZEFSAII (Michael W. Deem and Ramdas Pophale) SiO2 
 PCOD9379763
Probable space group: I M A 2
;
_chemical_formula_sum "Si O2"
_cell_formula_units_Z 40
_cell_length_a 13.895735
_cell_length_b 22.010381
_cell_length_c 5.158674
_cell_angle_alpha 90.000000
_cell_angle_beta 90.000000
_cell_angle_gamma 90.000000
_cell_volume 1577.782618
_symmetry_space_group_name_H-M "I M A 2"
_symmetry_group_IT_number 46
_symmetry_cell_setting 'orthorhombic'
loop_
_space_group_symop_operation_xyz
x,y,z
-x,-y,z
1/2-x,y,z
1/2+x,-y,z
1/2+x,1/2+y,1/2+z
1/2-x,1/2-y,1/2+z
-x,1/2+y,1/2+z
x,1/2-y,1/2+z
loop_
_atom_site_type_symbol
_atom_site_label
_atom_site_fract_x
_atom_site_fract_y
_atom_site_fract_z
Si Si1 0.861925 0.542823 0.991240
Si Si2 0.032690 0.430089 0.496288
Si Si3 0.422895 0.709162 0.077348
Si Si4 0.145629 0.288699 0.117666
Si Si5 0.359081 0.907078 0.314507
O O1 0.750000 0.542067 0.045417
O O2 0.889321 0.575418 0.724076
O O3 0.887857 0.470949 0.952814
O O4 0.916238 0.575626 0.223584
O O5 0.000000 0.500000 0.495161
O O6 0.937469 0.395116 0.588606
O O7 0.403409 0.757241 0.846784
O O8 0.536121 0.691247 0.067853
O O9 0.365160 0.648326 0.012563
O O10 0.250000 0.320514 0.067016
O O11 0.148423 0.268284 0.417215
O O12 0.250000 0.914729 0.215929
#
# Coordination Sequence:
#
# PCOD9379763 Si02
#       5
#     8   8   8   8   8
#     4  10  21  39  64  92 124 160 202 263 337 402
#     4  10  20  38  61  89 121 157 206 262 319 392
#     4  10  22  39  60  89 128 173 224 273 311 366
#     4   8  14  28  51  75 103 145 196 252 313 363
#     4  10  23  42  66  95 132 181 224 264 328 393
#
# _framework density 25.352034
#
# number of rings (size 3 to 8) (size 9 to 14) (size 15 to 20)
#    0.000    2.400    0.000    2.400    0.000    6.400 
#    0.000    9.000    0.000   12.000    0.000    0.000 
#    0.000    0.000    0.000    0.000    0.000    0.000 
#
# Total GULP energy -111844.876567 kJ/mol
# GULP energy per Si atom -5592.243828 kJ/mol
# Density = 2.529433 g / cm^3
# Si number density = 25.352034 Si / 1000 Ang^3
#
#
#
# Elastic Constant Matrix: (Units=GPa)
#
#
# Indices 1 2 3 4 5 6 
#
# 1 120.5765 3.2904 34.7626 0.0000 0.0000 0.0000
# 2 3.2904 98.6421 37.8792 0.0000 0.0001 0.0000
# 3 34.7626 37.8792 145.1650 0.0001 -0.0003 0.0000
# 4 0.0000 0.0000 0.0001 18.4054 0.0000 0.0000
# 5 0.0000 0.0001 -0.0003 0.0000 5.1160 0.0000
# 6 0.0000 0.0000 0.0000 0.0000 0.0000 24.7617
#
#
#
# Elastic Compliance Matrix: (Units=1/GPa)
#
#
# Indices 1 2 3 4 5 6 
#
# 1 0.008939 0.000582 -0.002292 0.000000 0.000000 0.000000
# 2 0.000582 0.011305 -0.003089 0.000000 0.000000 0.000000
# 3 -0.002292 -0.003089 0.008244 0.000000 0.000001 0.000000
# 4 0.000000 0.000000 0.000000 0.054332 0.000000 0.000000
# 5 0.000000 0.000000 0.000001 0.000000 0.195466 0.000000
# 6 0.000000 0.000000 0.000000 0.000000 0.000000 0.040385
#
#
# Mechanical properties :
#
#
# Convention : Reuss Voigt Hill
#
# Bulk Modulus (GPa) = 52.94402 57.36087 55.15244
# Shear Modulus (GPa) = 14.94481 28.88672 21.91577
#
# Velocity S-wave (km/s) = 2.43058 3.37920 2.94336
# Velocity P-wave (km/s) = 5.36711 6.15631 5.77521
#
# Compressibility (1/GPa) = 0.01888787
#
# Stress axis : x y z
#
# Youngs Moduli (GPa) = 111.87550 88.46026 121.30383
#
# Poissons Ratio (x) = -0.05150 0.27808
# Poissons Ratio (y) = -0.06513 0.37473
# Poissons Ratio (z) = 0.25646 0.27327
#
# Static dielectric constant tensor:
#      x y z
#    x 2.035640 0.000000 0.000000 
#    y 0.000000 2.054180 0.000000 
#    z 0.000000 0.000000 1.977560 
# 
# From -- ./inp_files/1218.got.cif
#   From: 2010.05.17/outbox.cif.g08.bks.cpg/sg46_1_cif.got.tgz:1218.got - 2010.06.03 19:58:25.
