data_PCOD9379977
_publ_section_title
;
Structure prediction by ZEFSAII (Michael W. Deem and Ramdas Pophale) SiO2 
 PCOD9379977
Probable space group: I M A 2
;
_chemical_formula_sum "Si O2"
_cell_formula_units_Z 36
_cell_length_a 12.244129
_cell_length_b 27.461307
_cell_length_c 5.237991
_cell_angle_alpha 90.000000
_cell_angle_beta 90.000000
_cell_angle_gamma 90.000000
_cell_volume 1761.220970
_symmetry_space_group_name_H-M "I M A 2"
_symmetry_group_IT_number 46
_symmetry_cell_setting 'orthorhombic'
loop_
_space_group_symop_operation_xyz
x,y,z
-x,-y,z
1/2-x,y,z
1/2+x,-y,z
1/2+x,1/2+y,1/2+z
1/2-x,1/2-y,1/2+z
-x,1/2+y,1/2+z
x,1/2-y,1/2+z
loop_
_atom_site_type_symbol
_atom_site_label
_atom_site_fract_x
_atom_site_fract_y
_atom_site_fract_z
Si Si1 0.250000 0.216109 0.492321
Si Si2 0.038292 0.945040 0.236393
Si Si3 0.126240 0.717351 0.641980
Si Si4 0.540490 0.649510 0.903226
Si Si5 0.872190 0.099730 0.722427
O O1 0.250000 0.245866 0.756701
O O2 0.144401 0.181492 0.467961
O O3 0.114838 0.937237 0.483498
O O4 0.942311 0.905135 0.293363
O O5 0.098435 0.927321 0.982056
O O6 0.000000 0.000000 0.214253
O O7 0.250000 0.697422 0.662662
O O8 0.114451 0.743748 0.371871
O O9 0.035680 0.677480 0.701359
O O10 0.461833 0.640013 0.146280
O O11 0.750000 0.119681 0.728382
#
# Coordination Sequence:
#
# PCOD9379977 Si02
#       5
#     4   8   8   8   8
#     4  12  28  46  72  98 132 190 244 286 344 410
#     4  10  23  42  65  97 141 174 222 270 345 411
#     4  10  21  35  58  91 123 159 200 259 324 386
#     4  10  25  42  67  93 137 171 228 275 335 405
#     4  10  22  40  69  99 132 171 221 278 351 399
#
# _framework density 20.440366000000001
#
# number of rings (size 3 to 8) (size 9 to 14) (size 15 to 20)
#    1.333    0.444    0.000    3.333    6.222    0.000 
#    4.000    0.000    0.000    0.000    0.000    0.000 
#    0.000    0.000    0.000    0.000    0.000    0.000 
#
# Total GULP energy -100474.067532 kJ/mol
# GULP energy per Si atom -5581.892641 kJ/mol
# Density = 2.039384 g / cm^3
# Si number density = 20.440366 Si / 1000 Ang^3
#
#
#
# Elastic Constant Matrix: (Units=GPa)
#
#
# Indices 1 2 3 4 5 6 
#
# 1 120.1047 77.7247 32.0595 -0.0013 -0.0191 0.0096
# 2 77.7247 120.1779 34.5099 -0.0177 -0.0558 0.0024
# 3 32.0595 34.5099 146.3212 -0.1055 0.0683 -0.0658
# 4 -0.0013 -0.0177 -0.1055 21.9249 0.0602 -0.0196
# 5 -0.0191 -0.0558 0.0683 0.0602 -16.2138 0.0469
# 6 0.0096 0.0024 -0.0658 -0.0196 0.0469 3.9966
#
#
#
# Elastic Compliance Matrix: (Units=1/GPa)
#
#
# Indices 1 2 3 4 5 6 
#
# 1 0.014463 -0.009057 -0.001033 -0.000011 0.000010 -0.000046
# 2 -0.009057 0.014598 -0.001458 0.000004 -0.000046 -0.000011
# 3 -0.001033 -0.001458 0.007405 0.000034 0.000038 0.000125
# 4 -0.000011 0.000004 0.000034 0.045610 0.000170 0.000223
# 5 0.000010 -0.000046 0.000038 0.000170 -0.061673 0.000726
# 6 -0.000046 -0.000011 0.000125 0.000223 0.000726 0.250210
#
#
# Mechanical properties :
#
#
# Convention : Reuss Voigt Hill
#
# Bulk Modulus (GPa) = 74.80374 75.02133 74.91253
# Shear Modulus (GPa) = 16.76920 18.09551 17.43236
#
# Velocity S-wave (km/s) = 2.86736 2.97860 2.92351
# Velocity P-wave (km/s) = 6.90202 6.97220 6.93720
#
# Compressibility (1/GPa) = 0.01336832
#
# Stress axis : x y z
#
# Youngs Moduli (GPa) = 69.14094 68.50425 135.05180
#
# Poissons Ratio (x) = 0.62048 0.13948
# Poissons Ratio (y) = 0.62624 0.19695
# Poissons Ratio (z) = 0.07141 0.09990
#
# Static dielectric constant tensor:
#      x y z
#    x 1.712120 0.000010 0.000000 
#    y 0.000010 1.753490 -0.000020 
#    z 0.000000 -0.000020 1.742020 
# 
# From -- ./inp_files/902.got.cif
#   From: 2010.05.17/outbox.cif.g08.bks.cpg/sg46_1_cif.got.tgz:902.got - 2010.06.03 19:58:25.
