data_PCOD9379909
_publ_section_title
;
Structure prediction by ZEFSAII (Michael W. Deem and Ramdas Pophale) SiO2 
 PCOD9379909
Probable space group: I M A 2
;
_chemical_formula_sum "Si O2"
_cell_formula_units_Z 48
_cell_length_a 14.753005
_cell_length_b 9.373400
_cell_length_c 14.270219
_cell_angle_alpha 90.000000
_cell_angle_beta 90.000000
_cell_angle_gamma 90.000000
_cell_volume 1973.368894
_symmetry_space_group_name_H-M "I M A 2"
_symmetry_group_IT_number 46
_symmetry_cell_setting 'orthorhombic'
loop_
_space_group_symop_operation_xyz
x,y,z
-x,-y,z
1/2-x,y,z
1/2+x,-y,z
1/2+x,1/2+y,1/2+z
1/2-x,1/2-y,1/2+z
-x,1/2+y,1/2+z
x,1/2-y,1/2+z
loop_
_atom_site_type_symbol
_atom_site_label
_atom_site_fract_x
_atom_site_fract_y
_atom_site_fract_z
Si Si1 0.925236 0.887224 0.093010
Si Si2 0.445678 0.860167 0.606036
Si Si3 0.250000 0.845042 0.893156
Si Si4 0.750000 0.369652 0.073139
Si Si5 0.750000 0.647269 0.292885
Si Si6 0.606298 0.617239 0.795623
Si Si7 0.086899 0.658142 0.883872
Si Si8 0.750000 0.697974 0.067153
O O1 0.883204 0.944989 0.189977
O O2 0.840455 0.797116 0.047193
O O3 0.992449 0.769043 0.133709
O O4 0.000000 0.000000 0.048511
O O5 0.341283 0.858053 0.633238
O O6 0.440407 0.846511 0.492634
O O7 0.500000 0.000000 0.633251
O O8 0.154257 0.784021 0.859054
O O9 0.250000 0.007806 0.857979
O O10 0.250000 0.765015 0.998483
O O11 0.750000 0.532868 0.030758
O O12 0.836943 0.742848 0.314089
O O13 0.750000 0.654363 0.178414
O O14 0.504297 0.653171 0.825253
O O15 0.636545 0.489010 0.861489
#
# Coordination Sequence:
#
# PCOD9379909 Si02
#       8
#     8   8   4   4   4   8   8   4
#     4  11  23  42  64  99 134 169 222 282 331 390
#     4  11  21  40  67  92 126 174 224 266 324 409
#     4  10  23  39  63  96 132 160 221 274 316 390
#     4  10  22  42  63  92 126 177 228 254 335 414
#     4  10  23  39  61 104 131 160 213 287 326 376
#     4  10  20  41  66  91 127 172 217 258 336 397
#     4  10  20  41  67  90 121 176 219 256 327 406
#     4  10  22  40  69  94 135 181 224 267 349 414
#
# _framework density 24.323886999999999
#
# number of rings (size 3 to 8) (size 9 to 14) (size 15 to 20)
#    0.000    1.667    5.000    0.500    0.000    2.667 
#    6.000    0.833    0.000    0.000    0.000    0.000 
#    0.000    0.000    0.000    0.000    0.000    0.000 
#
# Total GULP energy -133730.157033 kJ/mol
# GULP energy per Si atom -5572.089876 kJ/mol
# Density = 2.426853 g / cm^3
# Si number density = 24.323887 Si / 1000 Ang^3
#
#
#
# Elastic Constant Matrix: (Units=GPa)
#
#
# Indices 1 2 3 4 5 6 
#
# 1 156.1301 38.3957 -26.0611 0.0000 0.0000 0.0000
# 2 38.3957 130.1368 -7.8639 0.0000 0.0000 0.0000
# 3 -26.0611 -7.8639 58.0586 0.0000 0.0000 0.0000
# 4 0.0000 0.0000 0.0000 9.8808 0.0000 0.0000
# 5 0.0000 0.0000 0.0000 0.0000 9.5104 0.0000
# 6 0.0000 0.0000 0.0000 0.0000 0.0000 57.5882
#
#
#
# Elastic Compliance Matrix: (Units=1/GPa)
#
#
# Indices 1 2 3 4 5 6 
#
# 1 0.007407 -0.002001 0.003054 0.000000 0.000000 0.000000
# 2 -0.002001 0.008288 0.000225 0.000000 0.000000 0.000000
# 3 0.003054 0.000225 0.018625 0.000000 0.000000 0.000000
# 4 0.000000 0.000000 0.000000 0.101207 0.000000 0.000000
# 5 0.000000 0.000000 0.000000 0.000000 0.105148 0.000000
# 6 0.000000 0.000000 0.000000 0.000000 0.000000 0.017365
#
#
# Mechanical properties :
#
#
# Convention : Reuss Voigt Hill
#
# Bulk Modulus (GPa) = 27.11881 39.25186 33.18533
# Shear Modulus (GPa) = 18.67233 38.05287 28.36260
#
# Velocity S-wave (km/s) = 2.77366 3.95957 3.41844
# Velocity P-wave (km/s) = 4.62935 6.08904 5.40867
#
# Compressibility (1/GPa) = 0.03687477
#
# Stress axis : x y z
#
# Youngs Moduli (GPa) = 135.01366 120.65508 53.69097
#
# Poissons Ratio (x) = 0.24140 -0.16395
# Poissons Ratio (y) = 0.27013 -0.01205
# Poissons Ratio (z) = -0.41229 -0.02709
#
# Static dielectric constant tensor:
#      x y z
#    x 1.762890 0.000000 0.000000 
#    y 0.000000 2.141920 0.000000 
#    z 0.000000 0.000000 1.988490 
# 
# From -- ./inp_files/19465.got.cif
#   From: 2010.05.17/outbox.cif.g08.bks.cpg/sg46_10_cif.got.tgz:19465.got - 2010.06.03 19:58:25.
