data_PCOD9379664
_publ_section_title
;
Structure prediction by ZEFSAII (Michael W. Deem and Ramdas Pophale) SiO2 
 PCOD9379664
Probable space group: I M A 2
;
_chemical_formula_sum "Si O2"
_cell_formula_units_Z 64
_cell_length_a 21.066224
_cell_length_b 16.580329
_cell_length_c 8.826225
_cell_angle_alpha 90.000000
_cell_angle_beta 90.000000
_cell_angle_gamma 90.000000
_cell_volume 3082.867335
_symmetry_space_group_name_H-M "I M A 2"
_symmetry_group_IT_number 46
_symmetry_cell_setting 'orthorhombic'
loop_
_space_group_symop_operation_xyz
x,y,z
-x,-y,z
1/2-x,y,z
1/2+x,-y,z
1/2+x,1/2+y,1/2+z
1/2-x,1/2-y,1/2+z
-x,1/2+y,1/2+z
x,1/2-y,1/2+z
loop_
_atom_site_type_symbol
_atom_site_label
_atom_site_fract_x
_atom_site_fract_y
_atom_site_fract_z
Si Si1 0.442281 0.060204 0.351010
Si Si2 0.176500 0.636671 0.437243
Si Si3 0.142149 0.242171 0.153767
Si Si4 0.031815 0.709178 0.902718
Si Si5 0.376585 0.730197 0.158031
Si Si6 0.076263 0.004504 0.010874
Si Si7 0.182170 0.127932 0.432815
Si Si8 0.433103 0.164174 0.882086
O O1 0.475957 0.147568 0.362717
O O2 0.416597 0.037219 0.183437
O O3 0.378141 0.069335 0.446894
O O4 0.500000 0.000000 0.391144
O O5 0.250000 0.609628 0.447654
O O6 0.160874 0.670618 0.269155
O O7 0.165233 0.712689 0.550323
O O8 0.124085 0.568873 0.481117
O O9 0.171407 0.184429 0.282353
O O10 0.085004 0.291529 0.229443
O O11 0.183439 0.310866 0.074186
O O12 0.113192 0.193412 0.015262
O O13 0.081587 0.712666 0.766894
O O14 0.002173 0.799437 0.922771
O O15 0.071465 0.686553 0.051397
O O16 0.083155 0.070898 0.879262
O O17 0.000000 0.000000 0.007894
O O18 0.250000 0.086245 0.418294
#
# Coordination Sequence:
#
# PCOD9379664 Si02
#       8
#     8   8   8   8   8   8   8   8
#     4  11  22  38  61  90 129 172 220 274 330 392
#     4  11  24  45  69  97 135 179 227 281 349 419
#     4  10  20  37  60  90 119 169 222 267 313 401
#     4  11  19  37  66  95 129 167 222 277 341 395
#     4  10  22  39  67 100 121 168 224 281 328 409
#     4  11  22  39  62  98 133 166 216 277 338 400
#     4  11  22  39  60  89 126 169 221 269 327 400
#     4  11  19  36  62  91 126 168 211 272 331 396
#
# _framework density 20.759896000000001
#
# number of rings (size 3 to 8) (size 9 to 14) (size 15 to 20)
#    0.000    1.250    3.750    5.250    0.000    0.500 
#    2.250    1.250    0.000    0.750    0.000    0.000 
#    0.000    0.000    0.000    0.000    0.000    0.000 
#
# Total GULP energy -178328.453370 kJ/mol
# GULP energy per Si atom -5572.764168 kJ/mol
# Density = 2.071265 g / cm^3
# Si number density = 20.759896 Si / 1000 Ang^3
#
#
#
# Elastic Constant Matrix: (Units=GPa)
#
#
# Indices 1 2 3 4 5 6 
#
# 1 136.4026 40.3747 24.4318 0.0000 0.0000 0.0000
# 2 40.3747 76.7677 20.2696 0.0000 0.0000 0.0000
# 3 24.4318 20.2696 57.7263 0.0000 0.0000 0.0000
# 4 0.0000 0.0000 0.0000 16.5325 0.0000 0.0000
# 5 0.0000 0.0000 0.0000 0.0000 -12.2311 0.0000
# 6 0.0000 0.0000 0.0000 0.0000 0.0000 24.5733
#
#
#
# Elastic Compliance Matrix: (Units=1/GPa)
#
#
# Indices 1 2 3 4 5 6 
#
# 1 0.008965 -0.004092 -0.002357 0.000000 0.000000 0.000000
# 2 -0.004092 0.016226 -0.003965 0.000000 0.000000 0.000000
# 3 -0.002357 -0.003965 0.019713 0.000000 0.000000 0.000000
# 4 0.000000 0.000000 0.000000 0.060487 0.000000 0.000000
# 5 0.000000 0.000000 0.000000 0.000000 -0.081759 0.000000
# 6 0.000000 0.000000 0.000000 0.000000 0.000000 0.040695
#
#
# Mechanical properties :
#
#
# Convention : Reuss Voigt Hill
#
# Bulk Modulus (GPa) = 41.53923 49.00542 45.27233
# Shear Modulus (GPa) = 53.65895 18.16297 35.91096
#
# Velocity S-wave (km/s) = 5.08955 2.96109 4.16363
# Velocity P-wave (km/s) = 7.38856 5.94540 6.70592
#
# Compressibility (1/GPa) = 0.02407363
#
# Stress axis : x y z
#
# Youngs Moduli (GPa) = 111.54723 61.63073 50.72766
#
# Poissons Ratio (x) = 0.25222 0.11958
# Poissons Ratio (y) = 0.45651 0.20115
# Poissons Ratio (z) = 0.26294 0.24438
#
# Static dielectric constant tensor:
#      x y z
#    x 1.892850 0.000000 0.000000 
#    y 0.000000 1.820860 0.000000 
#    z 0.000000 0.000000 1.777770 
# 
# From -- ./inp_files/7543.got.cif
#   From: 2010.05.17/outbox.cif.g08.bks.cpg/sg46_4_cif.got.tgz:7543.got - 2010.06.03 19:58:25.
