data_PCOD9379858
_publ_section_title
;
Structure prediction by ZEFSAII (Michael W. Deem and Ramdas Pophale) SiO2 
 PCOD9379858
Probable space group: I M A 2
;
_chemical_formula_sum "Si O2"
_cell_formula_units_Z 32
_cell_length_a 16.618557
_cell_length_b 13.633611
_cell_length_c 5.237391
_cell_angle_alpha 90.000000
_cell_angle_beta 90.000000
_cell_angle_gamma 90.000000
_cell_volume 1186.640610
_symmetry_space_group_name_H-M "I M A 2"
_symmetry_group_IT_number 46
_symmetry_cell_setting 'orthorhombic'
loop_
_space_group_symop_operation_xyz
x,y,z
-x,-y,z
1/2-x,y,z
1/2+x,-y,z
1/2+x,1/2+y,1/2+z
1/2-x,1/2-y,1/2+z
-x,1/2+y,1/2+z
x,1/2-y,1/2+z
loop_
_atom_site_type_symbol
_atom_site_label
_atom_site_fract_x
_atom_site_fract_y
_atom_site_fract_z
Si Si1 0.842378 0.315057 0.455300
Si Si2 0.750000 0.667384 0.442123
Si Si3 0.250000 0.035121 0.445168
Si Si4 0.074260 0.202790 0.965342
Si Si5 0.414376 0.508399 0.725727
O O1 0.750000 0.354224 0.470743
O O2 0.850323 0.234206 0.679571
O O3 0.903232 0.400958 0.532480
O O4 0.750000 0.592000 0.208430
O O5 0.668713 0.729531 0.430544
O O6 0.750000 0.603449 0.696253
O O7 0.163125 0.983626 0.410419
O O8 0.038404 0.269115 0.191949
O O9 0.081350 0.091207 0.057795
O O10 0.500000 0.500000 0.867555
#
# Coordination Sequence:
#
# PCOD9379858 Si02
#       5
#     8   4   4   8   8
#     4  10  23  46  74 102 138 191 250 307 361 426
#     4  10  20  39  66  95 135 184 229 279 358 447
#     4  10  22  43  66  99 139 184 241 295 362 445
#     4  11  23  41  65 101 144 189 233 292 371 455
#     4  11  25  46  74 108 149 197 252 318 379 444
#
# _framework density 26.966885000000001
#
# number of rings (size 3 to 8) (size 9 to 14) (size 15 to 20)
#    0.000    1.500    1.250    3.750    0.000    8.000 
#    0.000   17.500    0.000    0.000    0.000    0.000 
#    0.000    0.000    0.000    0.000    0.000    0.000 
#
# Total GULP energy -89609.413918 kJ/mol
# GULP energy per Si atom -5600.588370 kJ/mol
# Density = 2.690551 g / cm^3
# Si number density = 26.966885 Si / 1000 Ang^3
#
#
#
# Elastic Constant Matrix: (Units=GPa)
#
#
# Indices 1 2 3 4 5 6 
#
# 1 183.3576 10.3328 -3.3971 0.0000 0.0000 0.0000
# 2 10.3328 126.4331 33.7105 0.0000 0.0000 0.0000
# 3 -3.3971 33.7105 154.1221 0.0000 0.0000 0.0000
# 4 0.0000 0.0000 0.0000 37.3496 0.0000 0.0000
# 5 0.0000 0.0000 0.0000 0.0000 2.6626 0.0000
# 6 0.0000 0.0000 0.0000 0.0000 0.0000 17.1537
#
#
#
# Elastic Compliance Matrix: (Units=1/GPa)
#
#
# Indices 1 2 3 4 5 6 
#
# 1 0.005487 -0.000510 0.000233 0.000000 0.000000 0.000000
# 2 -0.000510 0.008447 -0.001859 0.000000 0.000000 0.000000
# 3 0.000233 -0.001859 0.006900 0.000000 0.000000 0.000000
# 4 0.000000 0.000000 0.000000 0.026774 0.000000 0.000000
# 5 0.000000 0.000000 0.000000 0.000000 0.375575 0.000000
# 6 0.000000 0.000000 0.000000 0.000000 0.000000 0.058296
#
#
# Mechanical properties :
#
#
# Convention : Reuss Voigt Hill
#
# Bulk Modulus (GPa) = 60.38510 60.57837 60.48173
# Shear Modulus (GPa) = 10.17765 39.65096 24.91431
#
# Velocity S-wave (km/s) = 1.94482 3.83868 3.04285
# Velocity P-wave (km/s) = 5.24252 6.49308 5.90102
#
# Compressibility (1/GPa) = 0.01656038
#
# Stress axis : x y z
#
# Youngs Moduli (GPa) = 182.25234 118.39037 144.92660
#
# Poissons Ratio (x) = 0.06043 -0.03371
# Poissons Ratio (y) = 0.09303 0.26938
# Poissons Ratio (z) = -0.04239 0.22006
#
# Static dielectric constant tensor:
#      x y z
#    x 2.266770 0.000000 0.000000 
#    y 0.000000 2.074860 0.000000 
#    z 0.000000 0.000000 2.057620 
# 
# From -- ./inp_files/1530.got.cif
#   From: 2010.05.17/outbox.cif.g08.bks.cpg/sg46_1_cif.got.tgz:1530.got - 2010.06.03 19:58:25.
