data_PCOD9379378
_publ_section_title
;
Structure prediction by ZEFSAII (Michael W. Deem and Ramdas Pophale) SiO2 
 PCOD9379378
Probable space group: I M A 2
;
_chemical_formula_sum "Si O2"
_cell_formula_units_Z 48
_cell_length_a 12.003890
_cell_length_b 16.061826
_cell_length_c 10.775043
_cell_angle_alpha 90.000000
_cell_angle_beta 90.000000
_cell_angle_gamma 90.000000
_cell_volume 2077.475620
_symmetry_space_group_name_H-M "I M A 2"
_symmetry_group_IT_number 46
_symmetry_cell_setting 'orthorhombic'
loop_
_space_group_symop_operation_xyz
x,y,z
-x,-y,z
1/2-x,y,z
1/2+x,-y,z
1/2+x,1/2+y,1/2+z
1/2-x,1/2-y,1/2+z
-x,1/2+y,1/2+z
x,1/2-y,1/2+z
loop_
_atom_site_type_symbol
_atom_site_label
_atom_site_fract_x
_atom_site_fract_y
_atom_site_fract_z
Si Si1 0.124613 0.392106 0.109350
Si Si2 0.377153 0.526067 0.896417
Si Si3 0.750000 0.112821 0.832919
Si Si4 0.750000 0.051044 0.119554
Si Si5 0.250000 0.734988 0.665501
Si Si6 0.488398 0.621354 0.348148
Si Si7 0.938401 0.208489 0.473949
Si Si8 0.000000 0.000000 0.073439
O O1 0.250000 0.362769 0.109916
O O2 0.081348 0.397870 0.248793
O O3 0.120334 0.476422 0.027971
O O4 0.048337 0.325125 0.040543
O O5 0.500000 0.500000 0.841128
O O6 0.250000 0.505091 0.847627
O O7 0.386153 0.624745 0.916768
O O8 0.750000 0.086227 0.976150
O O9 0.750000 0.209044 0.788693
O O10 0.872162 0.085844 0.790612
O O11 0.626066 0.009541 0.131481
O O12 0.750000 0.138222 0.190841
O O13 0.144386 0.757073 0.579224
O O14 0.470238 0.718703 0.378340
O O15 0.509814 0.578491 0.480025
#
# Coordination Sequence:
#
# PCOD9379378 Si02
#       8
#     8   8   4   4   4   8   8   4
#     4  10  23  38  54  90 126 160 197 245 312 378
#     4   9  19  33  55  85 121 157 195 243 302 361
#     4  10  20  34  58  90 113 144 194 257 301 349
#     4  10  22  40  56  92 122 156 204 247 316 367
#     4  12  18  34  60  86 115 150 206 260 295 352
#     4  11  22  36  58  91 122 155 200 252 311 359
#     4  11  20  36  58  87 120 162 202 253 303 361
#     4  10  22  36  54  86 122 156 196 248 302 368
#
# _framework density 23.104963999999999
#
# number of rings (size 3 to 8) (size 9 to 14) (size 15 to 20)
#    0.000    1.667    5.833    0.000    4.667    0.667 
#    0.000    0.000    0.000    0.000   26.000    0.000 
#    0.000    0.000    0.000    0.000    0.000    0.000 
#
# Total GULP energy -133935.757296 kJ/mol
# GULP energy per Si atom -5580.656554 kJ/mol
# Density = 2.305238 g / cm^3
# Si number density = 23.104964 Si / 1000 Ang^3
#
#
#
# Elastic Constant Matrix: (Units=GPa)
#
#
# Indices 1 2 3 4 5 6 
#
# 1 248.7859 61.9145 79.2932 0.0000 0.0000 0.0000
# 2 61.9145 129.6857 33.6807 0.0000 0.0000 0.0000
# 3 79.2932 33.6807 58.9481 0.0000 0.0000 0.0000
# 4 0.0000 0.0000 0.0000 14.5154 0.0000 0.0000
# 5 0.0000 0.0000 0.0000 0.0000 64.2795 0.0000
# 6 0.0000 0.0000 0.0000 0.0000 0.0000 23.4161
#
#
#
# Elastic Compliance Matrix: (Units=1/GPa)
#
#
# Indices 1 2 3 4 5 6 
#
# 1 0.007162 -0.001077 -0.009018 0.000000 0.000000 0.000000
# 2 -0.001077 0.009217 -0.003817 0.000000 0.000000 0.000000
# 3 -0.009018 -0.003817 0.031276 0.000000 0.000000 0.000000
# 4 0.000000 0.000000 0.000000 0.068892 0.000000 0.000000
# 5 0.000000 0.000000 0.000000 0.000000 0.015557 0.000000
# 6 0.000000 0.000000 0.000000 0.000000 0.000000 0.042706
#
#
# Mechanical properties :
#
#
# Convention : Reuss Voigt Hill
#
# Bulk Modulus (GPa) = 50.43063 87.46627 68.94845
# Shear Modulus (GPa) = 23.89554 37.94430 30.91992
#
# Velocity S-wave (km/s) = 3.21941 4.05687 3.66216
# Velocity P-wave (km/s) = 5.97441 7.73838 6.91289
#
# Compressibility (1/GPa) = 0.01982922
#
# Stress axis : x y z
#
# Youngs Moduli (GPa) = 139.62810 108.50078 31.97358
#
# Poissons Ratio (x) = 0.11686 0.28835
# Poissons Ratio (y) = 0.15039 0.12205
# Poissons Ratio (z) = 1.25921 0.41416
#
# Static dielectric constant tensor:
#      x y z
#    x 1.899400 0.000000 0.000000 
#    y 0.000000 1.842600 0.000000 
#    z 0.000000 0.000000 1.962060 
# 
# From -- ./inp_files/15202.got.cif
#   From: 2010.05.17/outbox.cif.g08.bks.cpg/sg46_8_cif.got.tgz:15202.got - 2010.06.03 19:58:25.
