data_PCOD9379098
_publ_section_title
;
Structure prediction by ZEFSAII (Michael W. Deem and Ramdas Pophale) SiO2 
 PCOD9379098
Probable space group: I M A 2
;
_chemical_formula_sum "Si O2"
_cell_formula_units_Z 48
_cell_length_a 16.050295
_cell_length_b 9.748376
_cell_length_c 15.357389
_cell_angle_alpha 90.000000
_cell_angle_beta 90.000000
_cell_angle_gamma 90.000000
_cell_volume 2402.883282
_symmetry_space_group_name_H-M "I M A 2"
_symmetry_group_IT_number 46
_symmetry_cell_setting 'orthorhombic'
loop_
_space_group_symop_operation_xyz
x,y,z
-x,-y,z
1/2-x,y,z
1/2+x,-y,z
1/2+x,1/2+y,1/2+z
1/2-x,1/2-y,1/2+z
-x,1/2+y,1/2+z
x,1/2-y,1/2+z
loop_
_atom_site_type_symbol
_atom_site_label
_atom_site_fract_x
_atom_site_fract_y
_atom_site_fract_z
Si Si1 0.901981 0.824650 0.357770
Si Si2 0.086842 0.028483 0.946476
Si Si3 0.750000 0.146671 0.608861
Si Si4 0.750000 0.897750 0.233734
Si Si5 0.075460 0.752749 0.868137
Si Si6 0.412187 0.951555 0.512513
Si Si7 0.750000 0.212350 0.282237
Si Si8 0.250000 0.971592 0.057483
O O1 0.899078 0.679312 0.408039
O O2 0.831224 0.840980 0.284634
O O3 0.997034 0.818627 0.321005
O O4 0.894356 0.943753 0.431382
O O5 0.075049 0.916256 0.870016
O O6 0.000000 0.000000 0.997380
O O7 0.166932 0.991733 0.001805
O O8 0.667804 0.070403 0.572792
O O9 0.750000 0.164841 0.712708
O O10 0.750000 0.307754 0.580263
O O11 0.750000 0.061512 0.243230
O O12 0.750000 0.902773 0.128870
O O13 0.069550 0.693610 0.965951
O O14 0.165891 0.715711 0.835777
O O15 0.500000 0.000000 0.553690
#
# Coordination Sequence:
#
# PCOD9379098 Si02
#       8
#     8   8   4   4   8   8   4   4
#     4  10  21  37  61  89 117 151 206 250 299 351
#     4  10  21  39  62  89 117 157 205 249 301 358
#     4  11  22  38  59  93 122 159 203 242 310 369
#     4  11  22  37  55  92 122 155 195 250 308 357
#     4  10  19  38  62  85 112 158 201 247 294 358
#     4  10  19  36  63  87 115 154 203 254 292 352
#     4  11  22  36  59  89 120 155 201 246 306 361
#     4  11  22  39  59  88 126 163 197 244 310 373
#
# _framework density 19.976002000000001
#
# number of rings (size 3 to 8) (size 9 to 14) (size 15 to 20)
#    0.000    1.667    3.333    2.000    0.000    0.000 
#    6.000    5.833    0.000    0.000    0.000    0.000 
#    0.000    0.000    0.000    0.000    0.000    0.000 
#
# Total GULP energy -133609.046044 kJ/mol
# GULP energy per Si atom -5567.043585 kJ/mol
# Density = 1.993054 g / cm^3
# Si number density = 19.976002 Si / 1000 Ang^3
#
#
#
# Elastic Constant Matrix: (Units=GPa)
#
#
# Indices 1 2 3 4 5 6 
#
# 1 218.1975 27.2866 57.1518 0.0000 0.0000 0.0000
# 2 27.2866 104.1486 17.5428 0.0000 0.0000 0.0000
# 3 57.1518 17.5428 35.8936 0.0000 0.0000 0.0000
# 4 0.0000 0.0000 0.0000 16.6774 0.0000 0.0000
# 5 0.0000 0.0000 0.0000 0.0000 -0.7811 0.0000
# 6 0.0000 0.0000 0.0000 0.0000 0.0000 30.1942
#
#
#
# Elastic Compliance Matrix: (Units=1/GPa)
#
#
# Indices 1 2 3 4 5 6 
#
# 1 0.007862 0.000053 -0.012544 0.000000 0.000000 0.000000
# 2 0.000053 0.010463 -0.005199 0.000000 0.000000 0.000000
# 3 -0.012544 -0.005199 0.050375 0.000000 0.000000 0.000000
# 4 0.000000 0.000000 0.000000 0.059961 0.000000 0.000000
# 5 0.000000 0.000000 0.000000 0.000000 -1.280298 0.000000
# 6 0.000000 0.000000 0.000000 0.000000 0.000000 0.033119
#
#
# Mechanical properties :
#
#
# Convention : Reuss Voigt Hill
#
# Bulk Modulus (GPa) = 30.01144 62.46690 46.23917
# Shear Modulus (GPa) = -4.66404 26.30201 10.81898
#
# Velocity S-wave (km/s) = -1.52967 3.63255 2.32975
# Velocity P-wave (km/s) = 3.45493 6.99519 5.51676
#
# Compressibility (1/GPa) = 0.03332063
#
# Stress axis : x y z
#
# Youngs Moduli (GPa) = 127.19287 95.57133 19.85119
#
# Poissons Ratio (x) = -0.00508 0.24902
# Poissons Ratio (y) = -0.00676 0.10320
# Poissons Ratio (z) = 1.59556 0.49683
#
# Static dielectric constant tensor:
#      x y z
#    x 1.745200 0.000000 0.000000 
#    y 0.000000 1.729690 0.000000 
#    z 0.000000 0.000000 1.761090 
# 
# From -- ./inp_files/19477.got.cif
#   From: 2010.05.17/outbox.cif.g08.bks.cpg/sg46_10_cif.got.tgz:19477.got - 2010.06.03 19:58:25.
