data_PCOD9379227
_publ_section_title
;
Structure prediction by ZEFSAII (Michael W. Deem and Ramdas Pophale) SiO2 
 PCOD9379227
Probable space group: I M A 2
;
_chemical_formula_sum "Si O2"
_cell_formula_units_Z 64
_cell_length_a 11.450049
_cell_length_b 11.586455
_cell_length_c 19.168617
_cell_angle_alpha 90.000000
_cell_angle_beta 90.000000
_cell_angle_gamma 90.000000
_cell_volume 2543.013727
_symmetry_space_group_name_H-M "I M A 2"
_symmetry_group_IT_number 46
_symmetry_cell_setting 'orthorhombic'
loop_
_space_group_symop_operation_xyz
x,y,z
-x,-y,z
1/2-x,y,z
1/2+x,-y,z
1/2+x,1/2+y,1/2+z
1/2-x,1/2-y,1/2+z
-x,1/2+y,1/2+z
x,1/2-y,1/2+z
loop_
_atom_site_type_symbol
_atom_site_label
_atom_site_fract_x
_atom_site_fract_y
_atom_site_fract_z
Si Si1 0.877146 0.980825 0.247130
Si Si2 0.123534 0.377057 0.543117
Si Si3 0.123175 0.784082 0.314920
Si Si4 0.875149 0.766478 0.347955
Si Si5 0.125179 0.680812 0.162716
Si Si6 0.124728 0.853009 0.031400
Si Si7 0.625438 0.557921 0.975495
Si Si8 0.624493 0.664497 0.130775
O O1 0.750000 0.001076 0.213337
O O2 0.874960 0.855148 0.282035
O O3 0.885106 0.075978 0.310680
O O4 0.000000 0.000000 0.208240
O O5 0.250000 0.348660 0.510459
O O6 0.124878 0.513466 0.555014
O O7 0.118765 0.301911 0.613803
O O8 0.006431 0.343409 0.500970
O O9 0.250000 0.753512 0.345104
O O10 0.128155 0.752339 0.233427
O O11 0.008372 0.721634 0.344466
O O12 0.750000 0.700841 0.344319
O O13 0.870608 0.845363 0.416462
O O14 0.250000 0.614771 0.158897
O O15 0.996764 0.625683 0.163839
O O16 0.125378 0.763650 0.095377
O O17 0.250000 0.835889 0.994419
O O18 0.500000 0.500000 0.967961
O O19 0.750000 0.490337 0.969419
O O20 0.626137 0.609329 0.053545
O O21 0.750000 0.643461 0.165478
#
# Coordination Sequence:
#
# PCOD9379227 Si02
#       8
#     8   8   8   8   8   8   8   8
#     4   8  13  22  33  48  72 100 132 169 202 234
#     4   8  13  23  36  51  74 104 137 172 206 241
#     4   9  16  26  39  57  84 116 145 177 211 249
#     4   9  17  29  42  60  84 111 147 187 223 261
#     4   9  17  28  41  60  89 123 155 182 211 256
#     4   8  13  22  35  52  75 108 145 172 193 233
#     4  10  20  33  50  67  84 112 153 199 241 281
#     4   9  18  31  43  60  85 113 147 189 231 270
#
# _framework density 25.166989999999998
#
# number of rings (size 3 to 8) (size 9 to 14) (size 15 to 20)
#    0.000    3.250    0.000    1.125    0.000    2.500 
#   13.500    0.000    0.000    0.000    0.000    0.000 
#    0.000    0.000    8.500    0.000   75.000    0.000 
#
# Total GULP energy -178275.238512 kJ/mol
# GULP energy per Si atom -5571.101203 kJ/mol
# Density = 2.510971 g / cm^3
# Si number density = 25.166990 Si / 1000 Ang^3
#
#
#
# Elastic Constant Matrix: (Units=GPa)
#
#
# Indices 1 2 3 4 5 6 
#
# 1 369.3268 11.2108 14.7929 0.0000 0.0000 0.0000
# 2 11.2108 57.5053 4.6019 0.0000 0.0000 0.0000
# 3 14.7929 4.6019 55.4240 0.0000 0.0000 0.0000
# 4 0.0000 0.0000 0.0000 10.7512 0.0000 0.0000
# 5 0.0000 0.0000 0.0000 0.0000 59.0673 0.0000
# 6 0.0000 0.0000 0.0000 0.0000 0.0000 -43.5536
#
#
#
# Elastic Compliance Matrix: (Units=1/GPa)
#
#
# Indices 1 2 3 4 5 6 
#
# 1 0.002750 -0.000481 -0.000694 0.000000 0.000000 0.000000
# 2 -0.000481 0.017590 -0.001332 0.000000 0.000000 0.000000
# 3 -0.000694 -0.001332 0.018339 0.000000 0.000000 0.000000
# 4 0.000000 0.000000 0.000000 0.093013 0.000000 0.000000
# 5 0.000000 0.000000 0.000000 0.000000 0.016930 0.000000
# 6 0.000000 0.000000 0.000000 0.000000 0.000000 -0.022960
#
#
# Mechanical properties :
#
#
# Convention : Reuss Voigt Hill
#
# Bulk Modulus (GPa) = 29.70461 60.38525 45.04493
# Shear Modulus (GPa) = 35.23695 35.36300 35.29998
#
# Velocity S-wave (km/s) = 3.74588 3.75258 3.74923
# Velocity P-wave (km/s) = 5.52607 6.54383 6.05637
#
# Compressibility (1/GPa) = 0.03366481
#
# Stress axis : x y z
#
# Youngs Moduli (GPa) = 363.63401 56.85045 54.52975
#
# Poissons Ratio (x) = 0.02732 0.03785
# Poissons Ratio (y) = 0.17476 0.07265
# Poissons Ratio (z) = 0.25239 0.07574
#
# Static dielectric constant tensor:
#      x y z
#    x 2.141490 0.000000 0.000000 
#    y 0.000000 1.999110 0.000000 
#    z 0.000000 0.000000 1.914270 
# 
# From -- ./inp_files/19023.got.cif
#   From: 2010.05.17/outbox.cif.g08.bks.cpg/sg46_10_cif.got.tgz:19023.got - 2010.06.03 19:58:25.
