data_PCOD9379458
_publ_section_title
;
Structure prediction by ZEFSAII (Michael W. Deem and Ramdas Pophale) SiO2 
 PCOD9379458
Probable space group: I M A 2
;
_chemical_formula_sum "Si O2"
_cell_formula_units_Z 36
_cell_length_a 14.799638
_cell_length_b 6.807001
_cell_length_c 12.596653
_cell_angle_alpha 90.000000
_cell_angle_beta 90.000000
_cell_angle_gamma 90.000000
_cell_volume 1269.001318
_symmetry_space_group_name_H-M "I M A 2"
_symmetry_group_IT_number 46
_symmetry_cell_setting 'orthorhombic'
loop_
_space_group_symop_operation_xyz
x,y,z
-x,-y,z
1/2-x,y,z
1/2+x,-y,z
1/2+x,1/2+y,1/2+z
1/2-x,1/2-y,1/2+z
-x,1/2+y,1/2+z
x,1/2-y,1/2+z
loop_
_atom_site_type_symbol
_atom_site_label
_atom_site_fract_x
_atom_site_fract_y
_atom_site_fract_z
Si Si1 0.105829 0.976870 0.968650
Si Si2 0.500000 0.500000 0.114563
Si Si3 0.146038 0.974884 0.432136
Si Si4 0.852726 0.581371 0.245267
Si Si5 0.356513 0.609706 0.706489
O O1 0.144560 0.761822 0.944593
O O2 0.147556 0.102655 0.873013
O O3 0.119088 0.986439 0.094694
O O4 0.000000 0.000000 0.951192
O O5 0.551284 0.650165 0.197358
O O6 0.578757 0.537659 0.024117
O O7 0.250000 0.037188 0.447675
O O8 0.109683 0.995770 0.312498
O O9 0.750000 0.633456 0.209053
O O10 0.867413 0.347853 0.210220
O O11 0.250000 0.586951 0.717107
#
# Coordination Sequence:
#
# PCOD9379458 Si02
#       5
#     8   4   8   8   8
#     4  11  20  33  56  89 113 143 187 233 281 334
#     4  12  20  34  58  90 108 148 194 232 280 334
#     4  10  22  38  59  85 114 150 190 233 279 334
#     4  10  20  35  57  85 113 146 190 235 278 330
#     4   9  18  35  57  81 111 147 185 229 281 331
#
# _framework density 28.368762
#
# number of rings (size 3 to 8) (size 9 to 14) (size 15 to 20)
#    0.000    1.778    3.333    4.000    1.556    0.000 
#    0.000    0.000    0.000    8.000    0.000    0.000 
#    0.000    0.000    0.000    0.000    0.000    0.000 
#
# Total GULP energy -100353.626919 kJ/mol
# GULP energy per Si atom -5575.201496 kJ/mol
# Density = 2.830419 g / cm^3
# Si number density = 28.368762 Si / 1000 Ang^3
#
#
#
# Elastic Constant Matrix: (Units=GPa)
#
#
# Indices 1 2 3 4 5 6 
#
# 1 207.0264 -9.0116 44.5880 0.0000 0.0000 0.0000
# 2 -9.0116 96.4588 8.5772 0.0000 0.0000 0.0000
# 3 44.5880 8.5772 242.5258 0.0000 0.0000 0.0000
# 4 0.0000 0.0000 0.0000 27.4696 0.0000 0.0000
# 5 0.0000 0.0000 0.0000 0.0000 48.6176 0.0000
# 6 0.0000 0.0000 0.0000 0.0000 0.0000 -2.3909
#
#
#
# Elastic Compliance Matrix: (Units=1/GPa)
#
#
# Indices 1 2 3 4 5 6 
#
# 1 0.005059 0.000557 -0.000950 0.000000 0.000000 0.000000
# 2 0.000557 0.010461 -0.000472 0.000000 0.000000 0.000000
# 3 -0.000950 -0.000472 0.004315 0.000000 0.000000 0.000000
# 4 0.000000 0.000000 0.000000 0.036404 0.000000 0.000000
# 5 0.000000 0.000000 0.000000 0.000000 0.020569 0.000000
# 6 0.000000 0.000000 0.000000 0.000000 0.000000 -0.418254
#
#
# Mechanical properties :
#
#
# Convention : Reuss Voigt Hill
#
# Bulk Modulus (GPa) = 55.23433 70.47980 62.85706
# Shear Modulus (GPa) = -14.98434 48.19641 16.60604
#
# Velocity S-wave (km/s) = -2.30075 4.12627 2.42205
# Velocity P-wave (km/s) = 3.52909 6.89925 5.47969
#
# Compressibility (1/GPa) = 0.01810468
#
# Stress axis : x y z
#
# Youngs Moduli (GPa) = 197.66293 95.59154 231.77112
#
# Poissons Ratio (x) = -0.05325 0.22014
# Poissons Ratio (y) = -0.11012 0.10949
# Poissons Ratio (z) = 0.18774 0.04516
#
# Static dielectric constant tensor:
#      x y z
#    x 2.818840 0.000000 0.000000 
#    y 0.000000 2.536150 0.000000 
#    z 0.000000 0.000000 2.349460 
# 
# From -- ./inp_files/14987.got.cif
#   From: 2010.05.17/outbox.cif.g08.bks.cpg/sg46_8_cif.got.tgz:14987.got - 2010.06.03 19:58:25.
