data_PCOD9379549
_publ_section_title
;
Structure prediction by ZEFSAII (Michael W. Deem and Ramdas Pophale) SiO2 
 PCOD9379549
Probable space group: I M A 2
;
_chemical_formula_sum "Si O2"
_cell_formula_units_Z 56
_cell_length_a 20.481913
_cell_length_b 16.484822
_cell_length_c 8.795769
_cell_angle_alpha 90.000000
_cell_angle_beta 90.000000
_cell_angle_gamma 90.000000
_cell_volume 2969.809514
_symmetry_space_group_name_H-M "I M A 2"
_symmetry_group_IT_number 46
_symmetry_cell_setting 'orthorhombic'
loop_
_space_group_symop_operation_xyz
x,y,z
-x,-y,z
1/2-x,y,z
1/2+x,-y,z
1/2+x,1/2+y,1/2+z
1/2-x,1/2-y,1/2+z
-x,1/2+y,1/2+z
x,1/2-y,1/2+z
loop_
_atom_site_type_symbol
_atom_site_label
_atom_site_fract_x
_atom_site_fract_y
_atom_site_fract_z
Si Si1 0.042328 0.571016 0.097750
Si Si2 0.824405 0.334681 0.773066
Si Si3 0.595660 0.717278 0.622528
Si Si4 0.014539 0.167645 0.846773
Si Si5 0.175471 0.164216 0.402695
Si Si6 0.323722 0.977403 0.492505
Si Si7 0.900957 0.253529 0.012207
O O1 0.056115 0.663409 0.035862
O O2 0.000000 0.500000 0.013259
O O3 0.999325 0.588971 0.246705
O O4 0.116988 0.540797 0.106924
O O5 0.750000 0.329110 0.718574
O O6 0.836264 0.425295 0.838322
O O7 0.876630 0.298505 0.655403
O O8 0.836313 0.281824 0.924488
O O9 0.546323 0.765534 0.733925
O O10 0.558988 0.662792 0.497263
O O11 0.635251 0.782739 0.523229
O O12 0.643099 0.671319 0.737380
O O13 0.945122 0.198073 0.906285
O O14 0.250000 0.193614 0.396681
O O15 0.174908 0.071722 0.455378
O O16 0.250000 0.955433 0.544427
#
# Coordination Sequence:
#
# PCOD9379549 Si02
#       7
#     8   8   8   8   8   8   8
#     4  11  22  37  61  86 122 154 204 244 305 364
#     4  10  20  36  58  84 114 155 202 244 297 359
#     4  10  21  34  63  87 118 158 201 255 314 362
#     4  11  20  38  56  84 121 152 201 247 298 364
#     4  10  20  39  62  90 120 157 208 256 308 379
#     4   9  21  39  61  88 122 160 203 254 308 368
#     4  11  20  37  58  83 115 154 195 246 294 353
#
# _framework density 18.856428999999999
#
# number of rings (size 3 to 8) (size 9 to 14) (size 15 to 20)
#    0.000    1.714    2.857    1.714    2.000    0.571 
#    2.571    0.000    0.000    0.857    0.000    0.000 
#    0.000    0.000    0.000    0.000    0.000    0.000 
#
# Total GULP energy -155873.062332 kJ/mol
# GULP energy per Si atom -5566.895083 kJ/mol
# Density = 1.881351 g / cm^3
# Si number density = 18.856429 Si / 1000 Ang^3
#
#
#
# Elastic Constant Matrix: (Units=GPa)
#
#
# Indices 1 2 3 4 5 6 
#
# 1 78.4503 5.2647 15.2791 0.0000 0.0000 0.0000
# 2 5.2647 36.4130 -8.8189 0.0000 0.0000 0.0000
# 3 15.2791 -8.8189 58.7190 0.0000 0.0000 0.0000
# 4 0.0000 0.0000 0.0000 9.8411 0.0000 0.0000
# 5 0.0000 0.0000 0.0000 0.0000 37.3706 0.0000
# 6 0.0000 0.0000 0.0000 0.0000 0.0000 30.0910
#
#
#
# Elastic Compliance Matrix: (Units=1/GPa)
#
#
# Indices 1 2 3 4 5 6 
#
# 1 0.013728 -0.002957 -0.004016 0.000000 0.000000 0.000000
# 2 -0.002957 0.029136 0.005146 0.000000 0.000000 0.000000
# 3 -0.004016 0.005146 0.018848 0.000000 0.000000 0.000000
# 4 0.000000 0.000000 0.000000 0.101614 0.000000 0.000000
# 5 0.000000 0.000000 0.000000 0.000000 0.026759 0.000000
# 6 0.000000 0.000000 0.000000 0.000000 0.000000 0.033233
#
#
# Mechanical properties :
#
#
# Convention : Reuss Voigt Hill
#
# Bulk Modulus (GPa) = 17.22476 21.89243 19.55859
# Shear Modulus (GPa) = 20.29828 26.25105 23.27467
#
# Velocity S-wave (km/s) = 3.28451 3.73521 3.51709
# Velocity P-wave (km/s) = 4.85165 5.49887 5.18537
#
# Compressibility (1/GPa) = 0.05805597
#
# Stress axis : x y z
#
# Youngs Moduli (GPa) = 72.84597 34.32123 53.05569
#
# Poissons Ratio (x) = 0.10150 0.21308
# Poissons Ratio (y) = 0.21544 -0.27300
# Poissons Ratio (z) = 0.29256 -0.17660
#
# Static dielectric constant tensor:
#      x y z
#    x 1.688540 0.000000 0.000000 
#    y 0.000000 1.648610 0.000000 
#    z 0.000000 0.000000 1.656800 
# 
# From -- ./inp_files/7423.got.cif
#   From: 2010.05.17/outbox.cif.g08.bks.cpg/sg46_4_cif.got.tgz:7423.got - 2010.06.03 19:58:25.
