data_PCOD9379429
_publ_section_title
;
Structure prediction by ZEFSAII (Michael W. Deem and Ramdas Pophale) SiO2 
 PCOD9379429
Probable space group: I M A 2
;
_chemical_formula_sum "Si O2"
_cell_formula_units_Z 64
_cell_length_a 8.695333
_cell_length_b 26.398692
_cell_length_c 14.579330
_cell_angle_alpha 90.000000
_cell_angle_beta 90.000000
_cell_angle_gamma 90.000000
_cell_volume 3346.618395
_symmetry_space_group_name_H-M "I M A 2"
_symmetry_group_IT_number 46
_symmetry_cell_setting 'orthorhombic'
loop_
_space_group_symop_operation_xyz
x,y,z
-x,-y,z
1/2-x,y,z
1/2+x,-y,z
1/2+x,1/2+y,1/2+z
1/2-x,1/2-y,1/2+z
-x,1/2+y,1/2+z
x,1/2-y,1/2+z
loop_
_atom_site_type_symbol
_atom_site_label
_atom_site_fract_x
_atom_site_fract_y
_atom_site_fract_z
Si Si1 0.433913 0.338648 0.406200
Si Si2 0.579795 0.686812 0.065829
Si Si3 0.921170 0.854100 0.366501
Si Si4 0.072322 0.716875 0.577435
Si Si5 0.434164 0.554433 0.334693
Si Si6 0.432107 0.553091 0.942003
Si Si7 0.565902 0.254324 0.784811
Si Si8 0.065283 0.083857 0.639990
O O1 0.250000 0.340392 0.399208
O O2 0.483432 0.320356 0.508810
O O3 0.501976 0.394201 0.382974
O O4 0.493803 0.294523 0.336060
O O5 0.750000 0.709511 0.085251
O O6 0.452341 0.727080 0.037512
O O7 0.537272 0.644996 0.141148
O O8 0.599495 0.654364 0.974627
O O9 0.750000 0.856773 0.324655
O O10 0.014298 0.905788 0.367099
O O11 0.013109 0.805688 0.333171
O O12 0.250000 0.701607 0.581237
O O13 0.017374 0.732102 0.680001
O O14 0.500000 0.500000 0.368515
O O15 0.250000 0.553914 0.340669
O O16 0.487962 0.560026 0.228870
O O17 0.500000 0.500000 0.912249
O O18 0.250000 0.552978 0.948601
O O19 0.496584 0.562798 0.045277
O O20 0.750000 0.247590 0.785432
O O21 0.250000 0.076514 0.641750
#
# Coordination Sequence:
#
# PCOD9379429 Si02
#       8
#     8   8   8   8   8   8   8   8
#     4  12  25  42  64  91 125 164 207 255 310 370
#     4   9  18  32  52  80 114 153 192 235 289 349
#     4  10  20  35  55  81 114 152 193 240 294 354
#     4  11  23  37  58  87 121 157 199 247 299 360
#     4  12  25  42  62  86 118 157 204 254 310 368
#     4  11  21  34  53  79 114 156 201 249 301 361
#     4  11  23  39  61  91 124 160 203 251 307 368
#     4  10  20  35  55  83 119 157 202 247 299 362
#
# _framework density 19.123783
#
# number of rings (size 3 to 8) (size 9 to 14) (size 15 to 20)
#    0.000    1.250    1.250    6.750    0.000    6.500 
#    0.000    0.000    0.000    0.750    0.000    0.000 
#    0.000    0.000    0.000    0.000    0.000    0.000 
#
# Total GULP energy -178343.065845 kJ/mol
# GULP energy per Si atom -5573.220808 kJ/mol
# Density = 1.908026 g / cm^3
# Si number density = 19.123783 Si / 1000 Ang^3
#
#
#
# Elastic Constant Matrix: (Units=GPa)
#
#
# Indices 1 2 3 4 5 6 
#
# 1 105.8380 48.9191 26.4771 0.0001 0.0000 0.0000
# 2 48.9191 141.0922 36.5469 0.0001 0.0000 0.0000
# 3 26.4771 36.5469 54.1553 -0.0001 -0.0001 0.0000
# 4 0.0001 0.0001 -0.0001 26.0565 0.0000 0.0000
# 5 0.0000 0.0000 -0.0001 0.0000 10.5030 0.0000
# 6 0.0000 0.0000 0.0000 0.0000 0.0000 25.5367
#
#
#
# Elastic Compliance Matrix: (Units=1/GPa)
#
#
# Indices 1 2 3 4 5 6 
#
# 1 0.011819 -0.003152 -0.003651 0.000000 0.000000 0.000000
# 2 -0.003152 0.009430 -0.004823 0.000000 0.000000 0.000000
# 3 -0.003651 -0.004823 0.023505 0.000000 0.000000 0.000000
# 4 0.000000 0.000000 0.000000 0.038378 0.000000 0.000000
# 5 0.000000 0.000000 0.000000 0.000000 0.095211 0.000000
# 6 0.000000 0.000000 0.000000 0.000000 0.000000 0.039159
#
#
# Mechanical properties :
#
#
# Convention : Reuss Voigt Hill
#
# Bulk Modulus (GPa) = 46.50750 58.33019 52.41884
# Shear Modulus (GPa) = 20.16776 25.02873 22.59824
#
# Velocity S-wave (km/s) = 3.25097 3.62162 3.44129
# Velocity P-wave (km/s) = 6.20191 6.93223 6.57722
#
# Compressibility (1/GPa) = 0.02150191
#
# Stress axis : x y z
#
# Youngs Moduli (GPa) = 84.61193 106.04919 42.54409
#
# Poissons Ratio (x) = 0.33426 0.15533
# Poissons Ratio (y) = 0.26670 0.20517
# Poissons Ratio (z) = 0.30893 0.51143
#
# Static dielectric constant tensor:
#      x y z
#    x 1.703290 0.000000 0.000000 
#    y 0.000000 1.741790 0.000000 
#    z 0.000000 0.000000 1.830420 
# 
# From -- ./inp_files/14524.got.cif
#   From: 2010.05.17/outbox.cif.g08.bks.cpg/sg46_8_cif.got.tgz:14524.got - 2010.06.03 19:58:25.
