data_PCOD9379658
_publ_section_title
;
Structure prediction by ZEFSAII (Michael W. Deem and Ramdas Pophale) SiO2 
 PCOD9379658
Probable space group: I M A 2
;
_chemical_formula_sum "Si O2"
_cell_formula_units_Z 48
_cell_length_a 16.566222
_cell_length_b 14.662307
_cell_length_c 8.268136
_cell_angle_alpha 90.000000
_cell_angle_beta 90.000000
_cell_angle_gamma 90.000000
_cell_volume 2008.322237
_symmetry_space_group_name_H-M "I M A 2"
_symmetry_group_IT_number 46
_symmetry_cell_setting 'orthorhombic'
loop_
_space_group_symop_operation_xyz
x,y,z
-x,-y,z
1/2-x,y,z
1/2+x,-y,z
1/2+x,1/2+y,1/2+z
1/2-x,1/2-y,1/2+z
-x,1/2+y,1/2+z
x,1/2-y,1/2+z
loop_
_atom_site_type_symbol
_atom_site_label
_atom_site_fract_x
_atom_site_fract_y
_atom_site_fract_z
Si Si1 0.345334 0.369913 0.683880
Si Si2 0.909585 0.696411 0.353275
Si Si3 0.842388 0.449630 0.827650
Si Si4 0.911371 0.363085 0.353868
Si Si5 0.843763 0.212525 0.526405
Si Si6 0.591315 0.527906 0.146628
O O1 0.250000 0.368971 0.727748
O O2 0.354567 0.334706 0.501634
O O3 0.393136 0.299269 0.798525
O O4 0.377512 0.473483 0.709661
O O5 0.897520 0.631799 0.196523
O O6 0.000291 0.669509 0.405737
O O7 0.750000 0.435756 0.779141
O O8 0.873650 0.349061 0.873834
O O9 0.849843 0.497864 0.004487
O O10 0.851914 0.317624 0.480700
O O11 0.899417 0.468404 0.311080
O O12 0.894353 0.317983 0.179216
O O13 0.750000 0.191177 0.557300
O O14 0.500000 0.500000 0.093268
#
# Coordination Sequence:
#
# PCOD9379658 Si02
#       6
#     8   8   8   8   8   8
#     4  11  23  38  57  85 115 150 192 235 282 336
#     4  11  22  38  58  82 114 151 190 236 283 335
#     4   9  20  37  57  81 112 147 187 231 283 338
#     4  10  21  38  58  84 115 149 190 234 281 336
#     4  10  20  37  60  87 116 150 188 232 282 336
#     4   9  20  38  58  81 112 149 189 230 281 337
#
# _framework density 23.900548000000001
#
# number of rings (size 3 to 8) (size 9 to 14) (size 15 to 20)
#    0.000    2.000    0.000    3.000    0.000    7.333 
#    0.000    5.833    0.000    0.000    0.000    0.000 
#    0.000    0.000    0.000    0.000    0.000    0.000 
#
# Total GULP energy -134033.148492 kJ/mol
# GULP energy per Si atom -5584.714521 kJ/mol
# Density = 2.384615 g / cm^3
# Si number density = 23.900548 Si / 1000 Ang^3
#
#
#
# Elastic Constant Matrix: (Units=GPa)
#
#
# Indices 1 2 3 4 5 6 
#
# 1 34.4660 23.1401 11.1724 0.0000 0.0000 0.0000
# 2 23.1401 55.4005 -7.0187 0.0000 0.0000 0.0000
# 3 11.1724 -7.0187 49.0540 0.0000 0.0000 0.0000
# 4 0.0000 0.0000 0.0000 37.8107 0.0000 0.0000
# 5 0.0000 0.0000 0.0000 0.0000 21.6735 0.0000
# 6 0.0000 0.0000 0.0000 0.0000 0.0000 24.9563
#
#
#
# Elastic Compliance Matrix: (Units=1/GPa)
#
#
# Indices 1 2 3 4 5 6 
#
# 1 0.048378 -0.022002 -0.014166 0.000000 0.000000 0.000000
# 2 -0.022002 0.028390 0.009073 0.000000 0.000000 0.000000
# 3 -0.014166 0.009073 0.024910 0.000000 0.000000 0.000000
# 4 0.000000 0.000000 0.000000 0.026448 0.000000 0.000000
# 5 0.000000 0.000000 0.000000 0.000000 0.046139 0.000000
# 6 0.000000 0.000000 0.000000 0.000000 0.000000 0.040070
#
#
# Mechanical properties :
#
#
# Convention : Reuss Voigt Hill
#
# Bulk Modulus (GPa) = 21.05799 21.50091 21.27945
# Shear Modulus (GPa) = 17.58368 24.32986 20.95677
#
# Velocity S-wave (km/s) = 2.71533 3.19401 2.96435
# Velocity P-wave (km/s) = 4.31977 4.75582 4.54303
#
# Compressibility (1/GPa) = 0.04748792
#
# Stress axis : x y z
#
# Youngs Moduli (GPa) = 20.67054 35.22409 40.14388
#
# Poissons Ratio (x) = 0.77499 0.56870
# Poissons Ratio (y) = 0.45479 -0.36423
# Poissons Ratio (z) = 0.29283 -0.31959
#
# Static dielectric constant tensor:
#      x y z
#    x 1.882450 0.000000 0.000000 
#    y 0.000000 1.946850 0.000000 
#    z 0.000000 0.000000 1.893200 
# 
# From -- ./inp_files/5715.got.cif
#   From: 2010.05.17/outbox.cif.g08.bks.cpg/sg46_3_cif.got.tgz:5715.got - 2010.06.03 19:58:25.
