data_PCOD9379379
_publ_section_title
;
Structure prediction by ZEFSAII (Michael W. Deem and Ramdas Pophale) SiO2 
 PCOD9379379
Probable space group: I M A 2
;
_chemical_formula_sum "Si O2"
_cell_formula_units_Z 60
_cell_length_a 9.321720
_cell_length_b 16.126116
_cell_length_c 20.991746
_cell_angle_alpha 90.000000
_cell_angle_beta 90.000000
_cell_angle_gamma 90.000000
_cell_volume 3155.545132
_symmetry_space_group_name_H-M "I M A 2"
_symmetry_group_IT_number 46
_symmetry_cell_setting 'orthorhombic'
loop_
_space_group_symop_operation_xyz
x,y,z
-x,-y,z
1/2-x,y,z
1/2+x,-y,z
1/2+x,1/2+y,1/2+z
1/2-x,1/2-y,1/2+z
-x,1/2+y,1/2+z
x,1/2-y,1/2+z
loop_
_atom_site_type_symbol
_atom_site_label
_atom_site_fract_x
_atom_site_fract_y
_atom_site_fract_z
Si Si1 0.411440 0.112569 0.647230
Si Si2 0.584925 0.243976 0.217420
Si Si3 0.412813 0.844784 0.843646
Si Si4 0.914777 0.917816 0.042327
Si Si5 0.576152 0.228998 0.976628
Si Si6 0.000000 0.500000 0.257432
Si Si7 0.913521 0.579015 0.695657
Si Si8 0.423128 0.918046 0.516758
O O1 0.250000 0.131831 0.625567
O O2 0.492378 0.190526 0.677709
O O3 0.400931 0.045113 0.704339
O O4 0.509209 0.087535 0.587570
O O5 0.750000 0.242035 0.194596
O O6 0.585832 0.274223 0.290108
O O7 0.506485 0.157821 0.212866
O O8 0.250000 0.865576 0.860825
O O9 0.475778 0.807835 0.908462
O O10 0.464981 0.925561 0.805733
O O11 0.750000 0.916653 0.018492
O O12 0.908211 0.924979 0.118733
O O13 0.000000 0.000000 0.018395
O O14 0.998392 0.833078 0.025733
O O15 0.750000 0.221485 0.982791
O O16 0.545933 0.327235 0.985810
O O17 0.750000 0.582937 0.718800
O O18 0.000000 0.500000 0.719683
O O19 0.250000 0.929118 0.518924
O O20 0.500000 0.000000 0.487400
#
# Coordination Sequence:
#
# PCOD9379379 Si02
#       8
#     8   8   8   8   8   4   8   8
#     4  11  21  34  57  87 121 150 185 239 302 364
#     4  10  20  35  56  81 113 151 189 233 290 347
#     4   9  20  38  57  79 115 155 194 237 284 346
#     4  10  21  36  56  84 116 152 190 235 287 344
#     4  10  22  40  59  82 115 158 202 244 292 349
#     4  10  20  34  58  90 120 154 194 238 302 356
#     4  10  20  35  56  82 113 146 188 238 290 344
#     4  11  23  38  60  86 116 155 199 249 305 358
#
# _framework density 19.014147999999999
#
# number of rings (size 3 to 8) (size 9 to 14) (size 15 to 20)
#    0.000    1.867    0.667    3.200    0.933    5.867 
#    0.000    4.000    0.000    1.600    0.000    0.000 
#    0.000    0.000    0.000    0.000    0.000    0.000 
#
# Total GULP energy -167087.436305 kJ/mol
# GULP energy per Si atom -5569.581210 kJ/mol
# Density = 1.897087 g / cm^3
# Si number density = 19.014148 Si / 1000 Ang^3
#
#
#
# Elastic Constant Matrix: (Units=GPa)
#
#
# Indices 1 2 3 4 5 6 
#
# 1 113.0808 77.2628 13.5994 0.0000 0.0000 0.0000
# 2 77.2628 142.2927 25.5980 0.0000 0.0000 0.0000
# 3 13.5994 25.5980 39.7600 0.0000 0.0000 0.0000
# 4 0.0000 0.0000 0.0000 16.2800 0.0000 0.0000
# 5 0.0000 0.0000 0.0000 0.0000 13.3954 0.0000
# 6 0.0000 0.0000 0.0000 0.0000 0.0000 -13.3321
#
#
#
# Elastic Compliance Matrix: (Units=1/GPa)
#
#
# Indices 1 2 3 4 5 6 
#
# 1 0.014060 -0.007656 0.000120 0.000000 0.000000 0.000000
# 2 -0.007656 0.012117 -0.005183 0.000000 0.000000 0.000000
# 3 0.000120 -0.005183 0.028446 0.000000 0.000000 0.000000
# 4 0.000000 0.000000 0.000000 0.061425 0.000000 0.000000
# 5 0.000000 0.000000 0.000000 0.000000 0.074652 0.000000
# 6 0.000000 0.000000 0.000000 0.000000 0.000000 -0.075007
#
#
# Mechanical properties :
#
#
# Convention : Reuss Voigt Hill
#
# Bulk Modulus (GPa) = 34.26253 58.67265 46.46759
# Shear Modulus (GPa) = 33.14350 15.18022 24.16186
#
# Velocity S-wave (km/s) = 4.17957 2.82860 3.56860
# Velocity P-wave (km/s) = 6.43042 6.44921 6.43982
#
# Compressibility (1/GPa) = 0.02918640
#
# Stress axis : x y z
#
# Youngs Moduli (GPa) = 71.12571 82.52842 35.15379
#
# Poissons Ratio (x) = 0.63182 -0.00422
# Poissons Ratio (y) = 0.54452 0.18219
# Poissons Ratio (z) = -0.00853 0.42771
#
# Static dielectric constant tensor:
#      x y z
#    x 1.675430 0.000000 0.000000 
#    y 0.000000 1.612700 0.000000 
#    z 0.000000 0.000000 1.677690 
# 
# From -- ./inp_files/23054.got.cif
#   From: 2010.05.17/outbox.cif.g08.bks.cpg/sg46_12_cif.got.tgz:23054.got - 2010.06.03 19:58:25.
