data_PCOD9379177
_publ_section_title
;
Structure prediction by ZEFSAII (Michael W. Deem and Ramdas Pophale) SiO2 
 PCOD9379177
Probable space group: I M A 2
;
_chemical_formula_sum "Si O2"
_cell_formula_units_Z 52
_cell_length_a 9.040631
_cell_length_b 13.002788
_cell_length_c 25.676346
_cell_angle_alpha 90.000000
_cell_angle_beta 90.000000
_cell_angle_gamma 90.000000
_cell_volume 3018.341984
_symmetry_space_group_name_H-M "I M A 2"
_symmetry_group_IT_number 46
_symmetry_cell_setting 'orthorhombic'
loop_
_space_group_symop_operation_xyz
x,y,z
-x,-y,z
1/2-x,y,z
1/2+x,-y,z
1/2+x,1/2+y,1/2+z
1/2-x,1/2-y,1/2+z
-x,1/2+y,1/2+z
x,1/2-y,1/2+z
loop_
_atom_site_type_symbol
_atom_site_label
_atom_site_fract_x
_atom_site_fract_y
_atom_site_fract_z
Si Si1 0.072244 0.392250 0.423640
Si Si2 0.413004 0.093282 0.328025
Si Si3 0.577074 0.291727 0.988017
Si Si4 0.000000 0.000000 0.429820
Si Si5 0.928379 0.113252 0.594315
Si Si6 0.072816 0.888903 0.709647
Si Si7 0.926795 0.305495 0.321992
O O1 0.250000 0.397457 0.423971
O O2 0.000000 0.500000 0.441807
O O3 0.015415 0.294775 0.457579
O O4 0.011983 0.372346 0.364982
O O5 0.250000 0.116017 0.306877
O O6 0.520537 0.189598 0.330505
O O7 0.500000 0.000000 0.300415
O O8 0.395985 0.054836 0.387510
O O9 0.750000 0.261779 0.985813
O O10 0.563420 0.406076 0.963027
O O11 0.528338 0.310771 0.047666
O O12 0.750000 0.101186 0.591127
O O13 0.966950 0.153289 0.652312
O O14 0.000000 0.000000 0.587952
O O15 0.250000 0.898897 0.710318
O O16 0.031976 0.831245 0.762506
O O17 0.000000 0.000000 0.712559
O O18 0.750000 0.316779 0.329067
#
# Coordination Sequence:
#
# PCOD9379177 Si02
#       7
#     8   8   8   4   8   8   8
#     4  12  25  39  56  78 109 145 186 227 272 325
#     4  10  20  32  49  74 107 140 172 214 265 320
#     4  11  21  35  57  82 113 144 176 220 270 326
#     4  10  20  30  54  80 114 140 168 216 266 322
#     4   9  18  33  53  80 109 138 173 215 265 317
#     4   9  19  34  52  75 105 140 176 218 263 310
#     4  11  21  34  53  77 108 143 181 221 265 318
#
# _framework density 17.228000999999999
#
# number of rings (size 3 to 8) (size 9 to 14) (size 15 to 20)
#    0.462    1.231    2.308    3.231    0.000    3.692 
#    0.000    0.000    0.000    0.923    0.000    0.000 
#    0.000    0.000    0.000    0.000    0.000    0.000 
#
# Total GULP energy -144775.310340 kJ/mol
# GULP energy per Si atom -5568.281167 kJ/mol
# Density = 1.718879 g / cm^3
# Si number density = 17.228001 Si / 1000 Ang^3
#
#
#
# Elastic Constant Matrix: (Units=GPa)
#
#
# Indices 1 2 3 4 5 6 
#
# 1 77.5866 28.3926 43.7547 0.0000 0.0000 0.0000
# 2 28.3926 91.2991 51.1765 0.0000 0.0000 0.0000
# 3 43.7547 51.1765 127.7535 0.0000 0.0000 0.0000
# 4 0.0000 0.0000 0.0000 13.5307 0.0000 0.0000
# 5 0.0000 0.0000 0.0000 0.0000 21.7065 0.0000
# 6 0.0000 0.0000 0.0000 0.0000 0.0000 -44.2920
#
#
#
# Elastic Compliance Matrix: (Units=1/GPa)
#
#
# Indices 1 2 3 4 5 6 
#
# 1 0.016411 -0.002519 -0.004612 0.000000 0.000000 0.000000
# 2 -0.002519 0.014511 -0.004950 0.000000 0.000000 0.000000
# 3 -0.004612 -0.004950 0.011390 0.000000 0.000000 0.000000
# 4 0.000000 0.000000 0.000000 0.073906 0.000000 0.000000
# 5 0.000000 0.000000 0.000000 0.000000 0.046069 0.000000
# 6 0.000000 0.000000 0.000000 0.000000 0.000000 -0.022577
#
#
# Mechanical properties :
#
#
# Convention : Reuss Voigt Hill
#
# Bulk Modulus (GPa) = 55.09337 60.36520 57.72929
# Shear Modulus (GPa) = 29.42518 9.74339 19.58428
#
# Velocity S-wave (km/s) = 4.13726 2.38072 3.37526
# Velocity P-wave (km/s) = 7.40749 6.53239 6.98367
#
# Compressibility (1/GPa) = 0.01815101
#
# Stress axis : x y z
#
# Youngs Moduli (GPa) = 60.93358 68.91274 87.79496
#
# Poissons Ratio (x) = 0.17356 0.40490
# Poissons Ratio (y) = 0.15346 0.43462
# Poissons Ratio (z) = 0.28102 0.34115
#
# Static dielectric constant tensor:
#      x y z
#    x 1.597530 0.000000 0.000000 
#    y 0.000000 1.579060 0.000000 
#    z 0.000000 0.000000 1.631090 
# 
# From -- ./inp_files/24172.got.cif
#   From: 2010.05.17/outbox.cif.g08.bks.cpg/sg46_13_cif.got.tgz:24172.got - 2010.06.03 19:58:25.
