data_PCOD9379850
_publ_section_title
;
Structure prediction by ZEFSAII (Michael W. Deem and Ramdas Pophale) SiO2 
 PCOD9379850
Probable space group: I M A 2
;
_chemical_formula_sum "Si O2"
_cell_formula_units_Z 40
_cell_length_a 26.111794
_cell_length_b 8.087110
_cell_length_c 8.937892
_cell_angle_alpha 90.000000
_cell_angle_beta 90.000000
_cell_angle_gamma 90.000000
_cell_volume 1887.405272
_symmetry_space_group_name_H-M "I M A 2"
_symmetry_group_IT_number 46
_symmetry_cell_setting 'orthorhombic'
loop_
_space_group_symop_operation_xyz
x,y,z
-x,-y,z
1/2-x,y,z
1/2+x,-y,z
1/2+x,1/2+y,1/2+z
1/2-x,1/2-y,1/2+z
-x,1/2+y,1/2+z
x,1/2-y,1/2+z
loop_
_atom_site_type_symbol
_atom_site_label
_atom_site_fract_x
_atom_site_fract_y
_atom_site_fract_z
Si Si1 0.653365 0.611074 0.420030
Si Si2 0.193748 0.804197 0.065953
Si Si3 0.153502 0.417101 0.757290
Si Si4 0.907511 0.377688 0.971808
Si Si5 0.444152 0.557689 0.290466
O O1 0.686946 0.444607 0.436314
O O2 0.639109 0.646958 0.592589
O O3 0.679846 0.767694 0.344588
O O4 0.601422 0.567547 0.333700
O O5 0.250000 0.730969 0.064178
O O6 0.184968 0.916583 0.215316
O O7 0.146688 0.681141 0.045056
O O8 0.106323 0.475359 0.858937
O O9 0.929541 0.226886 0.875287
O O10 0.942520 0.418451 0.112254
O O11 0.500000 0.500000 0.338993
#
# Coordination Sequence:
#
# PCOD9379850 Si02
#       5
#     8   8   8   8   8
#     4   9  21  39  59  92 124 161 200 264 311 374
#     4   9  21  38  61  90 123 166 210 254 320 379
#     4  10  20  39  64  84 130 160 202 260 318 364
#     4  11  21  43  62  91 128 164 212 270 303 389
#     4  11  23  41  63  91 125 165 215 259 321 378
#
# _framework density 21.193117999999998
#
# number of rings (size 3 to 8) (size 9 to 14) (size 15 to 20)
#    1.200    0.800    2.000    1.200    0.000    4.800 
#    0.000    2.000    0.000    0.000    0.000    0.000 
#    0.000    0.000    0.000    0.000    0.000    0.000 
#
# Total GULP energy -111508.872543 kJ/mol
# GULP energy per Si atom -5575.443627 kJ/mol
# Density = 2.114488 g / cm^3
# Si number density = 21.193118 Si / 1000 Ang^3
#
#
#
# Elastic Constant Matrix: (Units=GPa)
#
#
# Indices 1 2 3 4 5 6 
#
# 1 73.2584 -3.5374 4.2204 0.0000 0.0000 0.0000
# 2 -3.5374 46.4553 18.0195 0.0000 0.0000 0.0000
# 3 4.2204 18.0195 99.4191 0.0000 0.0000 0.0000
# 4 0.0000 0.0000 0.0000 31.3983 0.0000 0.0000
# 5 0.0000 0.0000 0.0000 0.0000 12.5738 0.0000
# 6 0.0000 0.0000 0.0000 0.0000 0.0000 5.8073
#
#
#
# Elastic Compliance Matrix: (Units=1/GPa)
#
#
# Indices 1 2 3 4 5 6 
#
# 1 0.013765 0.001371 -0.000833 0.000000 0.000000 0.000000
# 2 0.001371 0.023290 -0.004280 0.000000 0.000000 0.000000
# 3 -0.000833 -0.004280 0.010869 0.000000 0.000000 0.000000
# 4 0.000000 0.000000 0.000000 0.031849 0.000000 0.000000
# 5 0.000000 0.000000 0.000000 0.000000 0.079530 0.000000
# 6 0.000000 0.000000 0.000000 0.000000 0.000000 0.172196
#
#
# Mechanical properties :
#
#
# Convention : Reuss Voigt Hill
#
# Bulk Modulus (GPa) = 24.72681 28.50421 26.61551
# Shear Modulus (GPa) = 14.18590 23.31792 18.75191
#
# Velocity S-wave (km/s) = 2.59001 3.32061 2.97780
# Velocity P-wave (km/s) = 4.54279 5.30857 4.94054
#
# Compressibility (1/GPa) = 0.04044194
#
# Stress axis : x y z
#
# Youngs Moduli (GPa) = 72.65066 42.93605 92.00105
#
# Poissons Ratio (x) = -0.05887 0.07662
# Poissons Ratio (y) = -0.09962 0.39372
# Poissons Ratio (z) = 0.06051 0.18375
#
# Static dielectric constant tensor:
#      x y z
#    x 1.717390 0.000000 0.000000 
#    y 0.000000 1.806380 0.000000 
#    z 0.000000 0.000000 1.794960 
# 
# From -- ./inp_files/8090.got.cif
#   From: 2010.05.17/outbox.cif.g08.bks.cpg/sg46_5_cif.got.tgz:8090.got - 2010.06.03 19:58:25.
