data_PCOD9379577
_publ_section_title
;
Structure prediction by ZEFSAII (Michael W. Deem and Ramdas Pophale) SiO2 
 PCOD9379577
Probable space group: I M A 2
;
_chemical_formula_sum "Si O2"
_cell_formula_units_Z 40
_cell_length_a 8.625671
_cell_length_b 9.211933
_cell_length_c 26.666237
_cell_angle_alpha 90.000000
_cell_angle_beta 90.000000
_cell_angle_gamma 90.000000
_cell_volume 2118.875281
_symmetry_space_group_name_H-M "I M A 2"
_symmetry_group_IT_number 46
_symmetry_cell_setting 'orthorhombic'
loop_
_space_group_symop_operation_xyz
x,y,z
-x,-y,z
1/2-x,y,z
1/2+x,-y,z
1/2+x,1/2+y,1/2+z
1/2-x,1/2-y,1/2+z
-x,1/2+y,1/2+z
x,1/2-y,1/2+z
loop_
_atom_site_type_symbol
_atom_site_label
_atom_site_fract_x
_atom_site_fract_y
_atom_site_fract_z
Si Si1 0.564489 0.662724 0.738410
Si Si2 0.563748 0.664580 0.927977
Si Si3 0.435144 0.835245 0.643346
Si Si4 0.064750 0.662573 0.333594
Si Si5 0.564475 0.664229 0.039509
O O1 0.500000 0.500000 0.739723
O O2 0.750000 0.661244 0.738556
O O3 0.503225 0.743300 0.688867
O O4 0.503311 0.748291 0.786888
O O5 0.500000 0.500000 0.924309
O O6 0.750000 0.660666 0.922449
O O7 0.489315 0.760268 0.884672
O O8 0.528508 0.723989 0.984106
O O9 0.250000 0.839947 0.645774
O O10 0.488491 0.771557 0.589462
O O11 0.500000 0.000000 0.646846
O O12 0.250000 0.661095 0.330556
O O13 0.000000 0.500000 0.331910
O O14 0.500000 0.500000 0.037741
O O15 0.750000 0.661173 0.045682
#
# Coordination Sequence:
#
# PCOD9379577 Si02
#       5
#     8   8   8   8   8
#     4  12  25  43  63  86 116 150 191 237 289 345
#     4  10  20  36  59  88 120 155 195 238 285 338
#     4  11  21  36  59  88 120 155 195 238 286 338
#     4  12  25  42  62  86 116 151 192 238 290 344
#     4   9  17  31  54  84 117 153 194 237 282 335
#
# _framework density 18.877939000000001
#
# number of rings (size 3 to 8) (size 9 to 14) (size 15 to 20)
#    0.000    1.200    0.000    9.000    0.000    2.400 
#    0.000    1.000    0.000    4.800    0.000    0.000 
#    0.000    0.000    0.000    0.000    0.000    0.000 
#
# Total GULP energy -111793.188527 kJ/mol
# GULP energy per Si atom -5589.659426 kJ/mol
# Density = 1.883497 g / cm^3
# Si number density = 18.877939 Si / 1000 Ang^3
#
#
#
# Elastic Constant Matrix: (Units=GPa)
#
#
# Indices 1 2 3 4 5 6 
#
# 1 196.7633 63.8492 105.6516 0.0000 0.0000 0.0000
# 2 63.8492 112.6997 94.0798 0.0000 0.0000 0.0000
# 3 105.6516 94.0798 218.9907 0.0000 0.0000 0.0000
# 4 0.0000 0.0000 0.0000 35.1700 0.0000 0.0000
# 5 0.0000 0.0000 0.0000 0.0000 37.5349 0.0000
# 6 0.0000 0.0000 0.0000 0.0000 0.0000 32.2035
#
#
#
# Elastic Compliance Matrix: (Units=1/GPa)
#
#
# Indices 1 2 3 4 5 6 
#
# 1 0.007088 -0.001810 -0.002642 0.000000 0.000000 0.000000
# 2 -0.001810 0.014297 -0.005269 0.000000 0.000000 0.000000
# 3 -0.002642 -0.005269 0.008105 0.000000 0.000000 0.000000
# 4 0.000000 0.000000 0.000000 0.028433 0.000000 0.000000
# 5 0.000000 0.000000 0.000000 0.000000 0.026642 0.000000
# 6 0.000000 0.000000 0.000000 0.000000 0.000000 0.031053
#
#
# Mechanical properties :
#
#
# Convention : Reuss Voigt Hill
#
# Bulk Modulus (GPa) = 99.52486 117.29054 108.40770
# Shear Modulus (GPa) = 36.12487 38.63988 37.38237
#
# Velocity S-wave (km/s) = 4.37922 4.52910 4.45479
# Velocity P-wave (km/s) = 8.85464 9.46658 9.16572
#
# Compressibility (1/GPa) = 0.01004774
#
# Stress axis : x y z
#
# Youngs Moduli (GPa) = 141.07714 69.94491 123.38818
#
# Poissons Ratio (x) = 0.12662 0.32599
# Poissons Ratio (y) = 0.25539 0.65009
# Poissons Ratio (z) = 0.37273 0.36852
#
# Static dielectric constant tensor:
#      x y z
#    x 1.626140 0.000000 0.000000 
#    y 0.000000 1.614230 0.000000 
#    z 0.000000 0.000000 1.677280 
# 
# From -- ./inp_files/22735.got.cif
#   From: 2010.05.17/outbox.cif.g08.bks.cpg/sg46_12_cif.got.tgz:22735.got - 2010.06.03 19:58:25.
