data_PCOD9379142
_publ_section_title
;
Structure prediction by ZEFSAII (Michael W. Deem and Ramdas Pophale) SiO2 
 PCOD9379142
Probable space group: I M A 2
;
_chemical_formula_sum "Si O2"
_cell_formula_units_Z 48
_cell_length_a 15.690444
_cell_length_b 8.796198
_cell_length_c 19.291210
_cell_angle_alpha 90.000000
_cell_angle_beta 90.000000
_cell_angle_gamma 90.000000
_cell_volume 2662.500503
_symmetry_space_group_name_H-M "I M A 2"
_symmetry_group_IT_number 46
_symmetry_cell_setting 'orthorhombic'
loop_
_space_group_symop_operation_xyz
x,y,z
-x,-y,z
1/2-x,y,z
1/2+x,-y,z
1/2+x,1/2+y,1/2+z
1/2-x,1/2-y,1/2+z
-x,1/2+y,1/2+z
x,1/2-y,1/2+z
loop_
_atom_site_type_symbol
_atom_site_label
_atom_site_fract_x
_atom_site_fract_y
_atom_site_fract_z
Si Si1 0.152794 0.395352 0.196640
Si Si2 0.408623 0.066164 0.341654
Si Si3 0.750000 0.425063 0.088899
Si Si4 0.090842 0.067532 0.843720
Si Si5 0.250000 0.936098 0.092375
Si Si6 0.906789 0.562609 0.680612
Si Si7 0.750000 0.569901 0.438604
Si Si8 0.750000 0.938166 0.436228
O O1 0.250000 0.342117 0.216466
O O2 0.170092 0.506683 0.132512
O O3 0.114231 0.474451 0.264336
O O4 0.100090 0.245999 0.176876
O O5 0.412963 0.249225 0.343510
O O6 0.391271 0.022125 0.261646
O O7 0.333194 0.017233 0.392239
O O8 0.500000 0.000000 0.361888
O O9 0.750000 0.245262 0.090213
O O10 0.750000 0.489285 0.011779
O O11 0.166496 0.022328 0.895297
O O12 0.000000 0.000000 0.863256
O O13 0.333150 0.994929 0.132949
O O14 0.250000 0.002457 0.015032
O O15 0.000000 0.500000 0.662012
O O16 0.750000 0.754182 0.442859
#
# Coordination Sequence:
#
# PCOD9379142 Si02
#       8
#     8   8   4   8   4   8   4   4
#     4   9  18  39  61  80 118 151 185 226 293 340
#     4   9  20  36  58  87 110 141 188 233 287 339
#     4  10  23  36  56  84 112 158 189 232 292 334
#     4  10  20  36  62  87 112 145 191 235 283 347
#     4  12  23  38  56  82 120 148 201 242 278 338
#     4  10  20  37  63  88 110 148 194 240 282 338
#     4  10  21  38  58  80 112 160 189 232 284 340
#     4  10  19  38  60  74 112 160 185 218 294 350
#
# _framework density 18.028165000000001
#
# number of rings (size 3 to 8) (size 9 to 14) (size 15 to 20)
#    0.500    1.667    1.667    1.500    2.333    6.000 
#    0.000    5.833    0.000    0.000    0.000    0.000 
#    0.000    0.000    0.000    0.000    0.000    0.000 
#
# Total GULP energy -133883.195763 kJ/mol
# GULP energy per Si atom -5578.466490 kJ/mol
# Density = 1.798713 g / cm^3
# Si number density = 18.028165 Si / 1000 Ang^3
#
#
#
# Elastic Constant Matrix: (Units=GPa)
#
#
# Indices 1 2 3 4 5 6 
#
# 1 158.9915 44.8777 105.1951 0.0000 0.0000 0.0000
# 2 44.8777 44.6634 54.3894 0.0000 0.0000 0.0000
# 3 105.1951 54.3894 153.4461 0.0000 0.0000 0.0000
# 4 0.0000 0.0000 0.0000 19.4894 0.0000 0.0000
# 5 0.0000 0.0000 0.0000 0.0000 -1.4818 0.0000
# 6 0.0000 0.0000 0.0000 0.0000 0.0000 15.4468
#
#
#
# Elastic Compliance Matrix: (Units=1/GPa)
#
#
# Indices 1 2 3 4 5 6 
#
# 1 0.011820 -0.003534 -0.006850 0.000000 0.000000 0.000000
# 2 -0.003534 0.040450 -0.011915 0.000000 0.000000 0.000000
# 3 -0.006850 -0.011915 0.015436 0.000000 0.000000 0.000000
# 4 0.000000 0.000000 0.000000 0.051310 0.000000 0.000000
# 5 0.000000 0.000000 0.000000 0.000000 -0.674844 0.000000
# 6 0.000000 0.000000 0.000000 0.000000 0.000000 0.064739
#
#
# Mechanical properties :
#
#
# Convention : Reuss Voigt Hill
#
# Bulk Modulus (GPa) = 43.27577 85.11394 64.19486
# Shear Modulus (GPa) = -11.39502 16.86678 2.73588
#
# Velocity S-wave (km/s) = -2.51682 3.06204 1.23323
# Velocity P-wave (km/s) = 3.95105 7.73406 6.14111
#
# Compressibility (1/GPa) = 0.02310762
#
# Stress axis : x y z
#
# Youngs Moduli (GPa) = 84.60486 24.72169 64.78254
#
# Poissons Ratio (x) = 0.08738 0.44377
# Poissons Ratio (y) = 0.29904 0.77186
# Poissons Ratio (z) = 0.57956 0.29455
#
# Static dielectric constant tensor:
#      x y z
#    x 1.610660 0.000000 0.000000 
#    y 0.000000 1.603240 0.000000 
#    z 0.000000 0.000000 1.605060 
# 
# From -- ./inp_files/21923.got.cif
#   From: 2010.05.17/outbox.cif.g08.bks.cpg/sg46_11_cif.got.tgz:21923.got - 2010.06.03 19:58:25.
