data_PCOD9379707
_publ_section_title
;
Structure prediction by ZEFSAII (Michael W. Deem and Ramdas Pophale) SiO2 
 PCOD9379707
Probable space group: I M A 2
;
_chemical_formula_sum "Si O2"
_cell_formula_units_Z 48
_cell_length_a 13.643081
_cell_length_b 21.445144
_cell_length_c 7.950239
_cell_angle_alpha 90.000000
_cell_angle_beta 90.000000
_cell_angle_gamma 90.000000
_cell_volume 2326.063727
_symmetry_space_group_name_H-M "I M A 2"
_symmetry_group_IT_number 46
_symmetry_cell_setting 'orthorhombic'
loop_
_space_group_symop_operation_xyz
x,y,z
-x,-y,z
1/2-x,y,z
1/2+x,-y,z
1/2+x,1/2+y,1/2+z
1/2-x,1/2-y,1/2+z
-x,1/2+y,1/2+z
x,1/2-y,1/2+z
loop_
_atom_site_type_symbol
_atom_site_label
_atom_site_fract_x
_atom_site_fract_y
_atom_site_fract_z
Si Si1 0.634601 0.550460 0.078300
Si Si2 0.133708 0.910478 0.690035
Si Si3 0.022673 0.249783 0.519327
Si Si4 0.364856 0.330843 0.295504
Si Si5 0.631789 0.149721 0.048975
Si Si6 0.483004 0.626518 0.874096
O O1 0.750000 0.551015 0.030543
O O2 0.608837 0.482044 0.145217
O O3 0.622462 0.598459 0.233614
O O4 0.567835 0.577504 0.926597
O O5 0.250000 0.905243 0.682818
O O6 0.087101 0.872805 0.537315
O O7 0.105787 0.884720 0.873289
O O8 0.090412 0.308818 0.470747
O O9 0.075191 0.209359 0.661030
O O10 0.916015 0.280969 0.542325
O O11 0.021082 0.197459 0.371042
O O12 0.250000 0.316474 0.289142
O O13 0.750000 0.151256 0.067458
O O14 0.579619 0.115492 0.206577
#
# Coordination Sequence:
#
# PCOD9379707 Si02
#       6
#     8   8   8   8   8   8
#     4   9  20  40  65  91 121 161 211 261 319 380
#     4  10  22  42  66  91 123 167 212 263 320 375
#     4  11  21  39  55  90 129 159 214 256 314 388
#     4  10  20  37  63  87 120 162 200 260 321 377
#     4  11  24  40  62  94 131 170 216 265 317 383
#     4  11  22  40  63  91 129 169 212 259 317 383
#
# _framework density 20.635719999999999
#
# number of rings (size 3 to 8) (size 9 to 14) (size 15 to 20)
#    0.000    1.667    1.667    3.500    0.000    2.000 
#    0.000    6.667    0.000    7.000    0.000    0.000 
#    0.000    0.000    0.000    0.000    0.000    0.000 
#
# Total GULP energy -133850.665865 kJ/mol
# GULP energy per Si atom -5577.111078 kJ/mol
# Density = 2.058875 g / cm^3
# Si number density = 20.635720 Si / 1000 Ang^3
#
#
#
# Elastic Constant Matrix: (Units=GPa)
#
#
# Indices 1 2 3 4 5 6 
#
# 1 91.0792 32.1732 30.8706 0.0002 0.0001 0.0000
# 2 32.1732 88.3066 16.2279 -0.0002 -0.0001 0.0000
# 3 30.8706 16.2279 87.2539 -0.0008 -0.0004 -0.0002
# 4 0.0002 -0.0002 -0.0008 0.9395 0.0000 0.0000
# 5 0.0001 -0.0001 -0.0004 0.0000 38.4106 0.0000
# 6 0.0000 0.0000 -0.0002 0.0000 0.0000 29.7517
#
#
#
# Elastic Compliance Matrix: (Units=1/GPa)
#
#
# Indices 1 2 3 4 5 6 
#
# 1 0.013896 -0.004306 -0.004115 -0.000007 0.000000 0.000000
# 2 -0.004306 0.013059 -0.000905 0.000003 0.000000 0.000000
# 3 -0.004115 -0.000905 0.013085 0.000012 0.000000 0.000000
# 4 -0.000007 0.000003 0.000012 1.064372 -0.000001 0.000001
# 5 0.000000 0.000000 0.000000 -0.000001 0.026034 0.000000
# 6 0.000000 0.000000 0.000000 0.000001 0.000000 0.033612
#
#
# Mechanical properties :
#
#
# Convention : Reuss Voigt Hill
#
# Bulk Modulus (GPa) = 46.75900 47.24257 47.00079
# Shear Modulus (GPa) = 4.20224 26.31156 15.25690
#
# Velocity S-wave (km/s) = 1.42857 3.57466 2.72204
# Velocity P-wave (km/s) = 5.04277 6.32304 5.71885
#
# Compressibility (1/GPa) = 0.02138626
#
# Stress axis : x y z
#
# Youngs Moduli (GPa) = 71.96568 76.57262 76.42227
#
# Poissons Ratio (x) = 0.32975 0.31450
# Poissons Ratio (y) = 0.30991 0.06918
# Poissons Ratio (z) = 0.29616 0.06932
#
# Static dielectric constant tensor:
#      x y z
#    x 1.767560 0.000000 0.000000 
#    y 0.000000 1.742270 0.000000 
#    z 0.000000 0.000000 1.819850 
# 
# From -- ./inp_files/5699.got.cif
#   From: 2010.05.17/outbox.cif.g08.bks.cpg/sg46_3_cif.got.tgz:5699.got - 2010.06.03 19:58:25.
