data_PCOD9379545
_publ_section_title
;
Structure prediction by ZEFSAII (Michael W. Deem and Ramdas Pophale) SiO2 
 PCOD9379545
Probable space group: I M A 2
;
_chemical_formula_sum "Si O2"
_cell_formula_units_Z 52
_cell_length_a 16.584467
_cell_length_b 21.133375
_cell_length_c 8.168345
_cell_angle_alpha 90.000000
_cell_angle_beta 90.000000
_cell_angle_gamma 90.000000
_cell_volume 2862.888608
_symmetry_space_group_name_H-M "I M A 2"
_symmetry_group_IT_number 46
_symmetry_cell_setting 'orthorhombic'
loop_
_space_group_symop_operation_xyz
x,y,z
-x,-y,z
1/2-x,y,z
1/2+x,-y,z
1/2+x,1/2+y,1/2+z
1/2-x,1/2-y,1/2+z
-x,1/2+y,1/2+z
x,1/2-y,1/2+z
loop_
_atom_site_type_symbol
_atom_site_label
_atom_site_fract_x
_atom_site_fract_y
_atom_site_fract_z
Si Si1 0.750000 0.142519 0.158481
Si Si2 0.533798 0.572114 0.291227
Si Si3 0.081140 0.816873 0.669214
Si Si4 0.250000 0.947740 0.471815
Si Si5 0.591052 0.531876 0.971815
Si Si6 0.250000 0.857480 0.785149
Si Si7 0.966202 0.572114 0.652403
Si Si8 0.081140 0.683127 0.774416
O O1 0.750000 0.091500 0.303655
O O2 0.668806 0.181211 0.190601
O O3 0.750000 0.118134 0.971814
O O4 0.500000 0.500000 0.300881
O O5 0.465698 0.622537 0.240647
O O6 0.565359 0.587580 0.471815
O O7 0.594317 0.571241 0.138933
O O8 0.168806 0.818788 0.753029
O O9 0.042629 0.750000 0.721815
O O10 0.086718 0.821679 0.471815
O O11 0.250000 0.908499 0.639973
O O12 0.165418 0.984584 0.471816
O O13 0.500000 0.500000 0.971815
O O14 0.594318 0.571241 0.804696
O O15 0.000000 0.500000 0.642749
O O16 0.034302 0.622537 0.702983
#
# Coordination Sequence:
#
# PCOD9379545 Si02
#       8
#     4   8   8   4   8   4   8   8
#     4  12  23  37  53  81 126 170 208 249 296 369
#     4  10  20  36  58  82 114 154 199 255 305 353
#     4  12  23  38  57  85 123 165 213 255 306 377
#     4  12  24  38  64  94 122 174 212 250 320 370
#     4  10  20  36  58  84 122 158 202 257 306 357
#     4  12  23  37  53  81 126 170 208 249 296 369
#     4  10  20  36  58  82 114 154 199 255 305 353
#     4  12  23  38  57  85 123 165 213 255 306 377
#
# _framework density 18.163473
#
# number of rings (size 3 to 8) (size 9 to 14) (size 15 to 20)
#    0.000    0.923    3.077    6.923    0.000    3.692 
#    0.000    0.000    0.000    0.000    0.000    1.077 
#    0.000    0.000    0.000    0.000    0.000    0.000 
#
# Total GULP energy -144970.272232 kJ/mol
# GULP energy per Si atom -5575.779701 kJ/mol
# Density = 1.812213 g / cm^3
# Si number density = 18.163473 Si / 1000 Ang^3
#
#
#
# Elastic Constant Matrix: (Units=GPa)
#
#
# Indices 1 2 3 4 5 6 
#
# 1 50.8861 42.1061 21.8428 0.0000 0.0000 0.0000
# 2 42.1061 112.1556 32.6450 0.0000 0.0000 0.0000
# 3 21.8428 32.6450 212.5404 0.0000 0.0000 0.0000
# 4 0.0000 0.0000 0.0000 21.7455 0.0000 0.0000
# 5 0.0000 0.0000 0.0000 0.0000 -17.7282 0.0000
# 6 0.0000 0.0000 0.0000 0.0000 0.0000 71.9839
#
#
#
# Elastic Compliance Matrix: (Units=1/GPa)
#
#
# Indices 1 2 3 4 5 6 
#
# 1 0.028880 -0.010445 -0.001364 0.000000 0.000000 0.000000
# 2 -0.010445 0.013111 -0.000940 0.000000 0.000000 0.000000
# 3 -0.001364 -0.000940 0.004990 0.000000 0.000000 0.000000
# 4 0.000000 0.000000 0.000000 0.045987 0.000000 0.000000
# 5 0.000000 0.000000 0.000000 0.000000 -0.056407 0.000000
# 6 0.000000 0.000000 0.000000 0.000000 0.000000 0.013892
#
#
# Mechanical properties :
#
#
# Convention : Reuss Voigt Hill
#
# Bulk Modulus (GPa) = 46.55007 63.19665 54.87336
# Shear Modulus (GPa) = 60.15961 33.79946 46.97953
#
# Velocity S-wave (km/s) = 5.76135 4.31843 5.09127
# Velocity P-wave (km/s) = 8.36310 7.72878 8.05219
#
# Compressibility (1/GPa) = 0.02148224
#
# Stress axis : x y z
#
# Youngs Moduli (GPa) = 34.62569 76.26945 200.41836
#
# Poissons Ratio (x) = 0.79667 0.27330
# Poissons Ratio (y) = 0.36168 0.18846
# Poissons Ratio (z) = 0.04722 0.07172
#
# Static dielectric constant tensor:
#      x y z
#    x 1.589580 0.000000 0.000000 
#    y 0.000000 1.698580 0.000000 
#    z 0.000000 0.000000 1.698140 
# 
# From -- ./inp_files/6791.got.cif
#   From: 2010.05.17/outbox.cif.g08.bks.cpg/sg46_4_cif.got.tgz:6791.got - 2010.06.03 19:58:25.
