data_PCOD9379300
_publ_section_title
;
Structure prediction by ZEFSAII (Michael W. Deem and Ramdas Pophale) SiO2 
 PCOD9379300
Probable space group: I M A 2
;
_chemical_formula_sum "Si O2"
_cell_formula_units_Z 64
_cell_length_a 8.670244
_cell_length_b 21.044259
_cell_length_c 19.979783
_cell_angle_alpha 90.000000
_cell_angle_beta 90.000000
_cell_angle_gamma 90.000000
_cell_volume 3645.488436
_symmetry_space_group_name_H-M "I M A 2"
_symmetry_group_IT_number 46
_symmetry_cell_setting 'orthorhombic'
loop_
_space_group_symop_operation_xyz
x,y,z
-x,-y,z
1/2-x,y,z
1/2+x,-y,z
1/2+x,1/2+y,1/2+z
1/2-x,1/2-y,1/2+z
-x,1/2+y,1/2+z
x,1/2-y,1/2+z
loop_
_atom_site_type_symbol
_atom_site_label
_atom_site_fract_x
_atom_site_fract_y
_atom_site_fract_z
Si Si1 0.065212 0.568878 0.198080
Si Si2 0.563949 0.068579 0.542883
Si Si3 0.064424 0.931254 0.193869
Si Si4 0.435991 0.818119 0.446691
Si Si5 0.435765 0.318953 0.445770
Si Si6 0.063937 0.682937 0.791914
Si Si7 0.564321 0.931264 0.045206
Si Si8 0.434717 0.179503 0.790816
O O1 0.250000 0.567303 0.201156
O O2 0.018722 0.579458 0.120363
O O3 0.000000 0.500000 0.218362
O O4 0.002819 0.624843 0.244359
O O5 0.750000 0.066290 0.540484
O O6 0.510848 0.125392 0.494965
O O7 0.500000 0.000000 0.522128
O O8 0.250000 0.934432 0.191019
O O9 0.018596 0.875100 0.244216
O O10 0.999706 0.918756 0.119584
O O11 0.000000 0.000000 0.215178
O O12 0.250000 0.816369 0.448958
O O13 0.498424 0.749195 0.467090
O O14 0.481823 0.829017 0.369233
O O15 0.250000 0.315571 0.447066
O O16 0.483743 0.375965 0.494254
O O17 0.482820 0.330130 0.368534
O O18 0.250000 0.688231 0.789865
O O19 0.993293 0.750433 0.770960
O O20 0.750000 0.934011 0.047709
O O21 0.500000 0.000000 0.024174
O O22 0.250000 0.177771 0.787699
#
# Coordination Sequence:
#
# PCOD9379300 Si02
#       8
#     8   8   8   8   8   8   8   8
#     4  10  20  35  53  75 104 135 169 208 250 297
#     4   9  19  34  52  75 102 132 167 206 246 293
#     4  10  20  34  52  75 103 133 168 208 250 297
#     4   9  18  34  54  75 100 132 169 205 245 294
#     4   9  20  36  52  74 102 130 165 208 250 296
#     4   9  19  35  53  74 102 135 169 206 248 297
#     4  10  20  35  53  74 101 131 166 206 249 298
#     4  10  20  35  54  76 102 132 168 209 252 298
#
# _framework density 17.555947
#
# number of rings (size 3 to 8) (size 9 to 14) (size 15 to 20)
#    0.000    2.500    0.000    2.250    0.000    5.500 
#    0.000    5.000    0.000    0.000    0.000    0.000 
#    0.000    0.000    0.000    0.000    0.000    0.000 
#
# Total GULP energy -178542.486709 kJ/mol
# GULP energy per Si atom -5579.452710 kJ/mol
# Density = 1.751599 g / cm^3
# Si number density = 17.555947 Si / 1000 Ang^3
#
#
#
# Elastic Constant Matrix: (Units=GPa)
#
#
# Indices 1 2 3 4 5 6 
#
# 1 29.6133 46.2268 30.9734 0.0000 0.0000 0.0000
# 2 46.2268 210.0366 122.6221 0.0000 0.0000 0.0000
# 3 30.9734 122.6221 88.6938 0.0000 0.0000 0.0000
# 4 0.0000 0.0000 0.0000 44.1288 0.0000 0.0000
# 5 0.0000 0.0000 0.0000 0.0000 20.5622 0.0000
# 6 0.0000 0.0000 0.0000 0.0000 0.0000 34.4312
#
#
#
# Elastic Compliance Matrix: (Units=1/GPa)
#
#
# Indices 1 2 3 4 5 6 
#
# 1 0.054023 -0.004541 -0.012588 0.000000 0.000000 0.000000
# 2 -0.004541 0.025069 -0.033072 0.000000 0.000000 0.000000
# 3 -0.012588 -0.033072 0.061394 0.000000 0.000000 0.000000
# 4 0.000000 0.000000 0.000000 0.022661 0.000000 0.000000
# 5 0.000000 0.000000 0.000000 0.000000 0.048633 0.000000
# 6 0.000000 0.000000 0.000000 0.000000 0.000000 0.029043
#
#
# Mechanical properties :
#
#
# Convention : Reuss Voigt Hill
#
# Bulk Modulus (GPa) = 24.94773 80.88760 52.91766
# Shear Modulus (GPa) = 14.10096 28.39254 21.24675
#
# Velocity S-wave (km/s) = 2.83716 4.02588 3.48261
# Velocity P-wave (km/s) = 4.99739 8.23313 6.81023
#
# Compressibility (1/GPa) = 0.04008381
#
# Stress axis : x y z
#
# Youngs Moduli (GPa) = 18.51059 39.89070 16.28826
#
# Poissons Ratio (x) = 0.18115 0.20503
# Poissons Ratio (y) = 0.08406 0.53869
# Poissons Ratio (z) = 0.23300 1.31927
#
# Static dielectric constant tensor:
#      x y z
#    x 1.595720 0.000000 0.000000 
#    y 0.000000 1.567510 0.000000 
#    z 0.000000 0.000000 1.592410 
# 
# From -- ./inp_files/21278.got.cif
#   From: 2010.05.17/outbox.cif.g08.bks.cpg/sg46_11_cif.got.tgz:21278.got - 2010.06.03 19:58:25.
