data_PCOD9379254
_publ_section_title
;
Structure prediction by ZEFSAII (Michael W. Deem and Ramdas Pophale) SiO2 
 PCOD9379254
Probable space group: I M A 2
;
_chemical_formula_sum "Si O2"
_cell_formula_units_Z 64
_cell_length_a 8.635858
_cell_length_b 21.569196
_cell_length_c 16.264640
_cell_angle_alpha 90.000000
_cell_angle_beta 90.000000
_cell_angle_gamma 90.000000
_cell_volume 3029.590321
_symmetry_space_group_name_H-M "I M A 2"
_symmetry_group_IT_number 46
_symmetry_cell_setting 'orthorhombic'
loop_
_space_group_symop_operation_xyz
x,y,z
-x,-y,z
1/2-x,y,z
1/2+x,-y,z
1/2+x,1/2+y,1/2+z
1/2-x,1/2-y,1/2+z
-x,1/2+y,1/2+z
x,1/2-y,1/2+z
loop_
_atom_site_type_symbol
_atom_site_label
_atom_site_fract_x
_atom_site_fract_y
_atom_site_fract_z
Si Si1 0.936778 0.070258 0.893810
Si Si2 0.432363 0.064772 0.415263
Si Si3 0.437250 0.691551 0.137583
Si Si4 0.574158 0.253860 0.803930
Si Si5 0.437419 0.929896 0.069994
Si Si6 0.063693 0.568697 0.212071
Si Si7 0.427123 0.896710 0.249868
Si Si8 0.565520 0.797642 0.466583
O O1 0.750000 0.069432 0.893848
O O2 0.984414 0.093176 0.803466
O O3 0.987065 0.098532 0.981606
O O4 0.000000 0.000000 0.895157
O O5 0.250000 0.063240 0.427809
O O6 0.471253 0.069203 0.318006
O O7 0.491809 0.130906 0.450623
O O8 0.500000 0.000000 0.447896
O O9 0.250000 0.696805 0.135905
O O10 0.492172 0.720779 0.223452
O O11 0.482700 0.619213 0.144907
O O12 0.502585 0.721282 0.055349
O O13 0.750000 0.230353 0.816654
O O14 0.579736 0.325501 0.776718
O O15 0.490086 0.254952 0.891273
O O16 0.250000 0.930087 0.069848
O O17 0.485632 0.900368 0.156388
O O18 0.500000 0.000000 0.071888
O O19 0.250000 0.565302 0.211790
O O20 0.000000 0.500000 0.199550
O O21 0.250000 0.921405 0.253316
O O22 0.750000 0.798913 0.466714
#
# Coordination Sequence:
#
# PCOD9379254 Si02
#       8
#     8   8   8   8   8   8   8   8
#     4   8  14  26  42  62  93 131 166 206 254 306
#     4  10  20  33  51  77 108 145 185 225 277 334
#     4  10  21  38  60  87 113 145 188 234 283 336
#     4   9  19  38  59  81 109 144 186 233 283 331
#     4   9  16  25  40  65  96 132 171 213 261 315
#     4   9  18  33  53  79 110 143 180 223 276 333
#     4   9  17  30  48  72 103 138 179 226 276 328
#     4  10  22  39  59  83 113 150 188 232 285 335
#
# _framework density 21.124969
#
# number of rings (size 3 to 8) (size 9 to 14) (size 15 to 20)
#    0.000    2.750    0.000    1.125    0.000    4.500 
#    2.250    2.500    0.000    0.000    0.000    0.000 
#    0.000    0.000    0.000    0.000    0.000    0.000 
#
# Total GULP energy -178348.832419 kJ/mol
# GULP energy per Si atom -5573.401013 kJ/mol
# Density = 2.107689 g / cm^3
# Si number density = 21.124969 Si / 1000 Ang^3
#
#
#
# Elastic Constant Matrix: (Units=GPa)
#
#
# Indices 1 2 3 4 5 6 
#
# 1 14.8059 10.8489 24.0566 0.0000 0.0000 0.0000
# 2 10.8489 33.7673 25.2225 0.0000 0.0000 0.0000
# 3 24.0566 25.2225 156.5960 0.0000 0.0000 0.0000
# 4 0.0000 0.0000 0.0000 26.5775 0.0000 0.0000
# 5 0.0000 0.0000 0.0000 0.0000 14.0212 0.0000
# 6 0.0000 0.0000 0.0000 0.0000 0.0000 15.7154
#
#
#
# Elastic Compliance Matrix: (Units=1/GPa)
#
#
# Indices 1 2 3 4 5 6 
#
# 1 0.105564 -0.024785 -0.012225 0.000000 0.000000 0.000000
# 2 -0.024785 0.039484 -0.002552 0.000000 0.000000 0.000000
# 3 -0.012225 -0.002552 0.008675 0.000000 0.000000 0.000000
# 4 0.000000 0.000000 0.000000 0.037626 0.000000 0.000000
# 5 0.000000 0.000000 0.000000 0.000000 0.071320 0.000000
# 6 0.000000 0.000000 0.000000 0.000000 0.000000 0.063632
#
#
# Mechanical properties :
#
#
# Convention : Reuss Voigt Hill
#
# Bulk Modulus (GPa) = 13.40490 36.15835 24.78162
# Shear Modulus (GPa) = 11.62004 20.93224 16.27614
#
# Velocity S-wave (km/s) = 2.34788 3.15123 2.77874
# Velocity P-wave (km/s) = 3.70262 5.51307 4.69592
#
# Compressibility (1/GPa) = 0.07459958
#
# Stress axis : x y z
#
# Youngs Moduli (GPa) = 9.47289 25.32692 115.27453
#
# Poissons Ratio (x) = 0.62772 1.40923
# Poissons Ratio (y) = 0.23478 0.29419
# Poissons Ratio (z) = 0.11581 0.06464
#
# Static dielectric constant tensor:
#      x y z
#    x 1.727820 0.000000 0.000000 
#    y 0.000000 1.779460 0.000000 
#    z 0.000000 0.000000 1.801820 
# 
# From -- ./inp_files/14447.got.cif
#   From: 2010.05.17/outbox.cif.g08.bks.cpg/sg46_8_cif.got.tgz:14447.got - 2010.06.03 19:58:25.
