data_PCOD9379697
_publ_section_title
;
Structure prediction by ZEFSAII (Michael W. Deem and Ramdas Pophale) SiO2 
 PCOD9379697
Probable space group: I M A 2
;
_chemical_formula_sum "Si O2"
_cell_formula_units_Z 44
_cell_length_a 7.510108
_cell_length_b 17.729774
_cell_length_c 14.368230
_cell_angle_alpha 90.000000
_cell_angle_beta 90.000000
_cell_angle_gamma 90.000000
_cell_volume 1913.165997
_symmetry_space_group_name_H-M "I M A 2"
_symmetry_group_IT_number 46
_symmetry_cell_setting 'orthorhombic'
loop_
_space_group_symop_operation_xyz
x,y,z
-x,-y,z
1/2-x,y,z
1/2+x,-y,z
1/2+x,1/2+y,1/2+z
1/2-x,1/2-y,1/2+z
-x,1/2+y,1/2+z
x,1/2-y,1/2+z
loop_
_atom_site_type_symbol
_atom_site_label
_atom_site_fract_x
_atom_site_fract_y
_atom_site_fract_z
Si Si1 0.000000 0.000000 0.131940
Si Si2 0.531335 0.143432 0.240710
Si Si3 0.548312 0.887438 0.979567
Si Si4 0.538241 0.287070 0.937498
Si Si5 0.461048 0.921201 0.777254
Si Si6 0.466990 0.794685 0.637815
O O1 0.051972 0.065016 0.207012
O O2 0.938111 0.062287 0.053065
O O3 0.750000 0.134000 0.240912
O O4 0.473385 0.175843 0.341711
O O5 0.486609 0.209872 0.167529
O O6 0.750000 0.888564 0.016423
O O7 0.490924 0.802423 0.953757
O O8 0.547849 0.923880 0.877911
O O9 0.750000 0.297582 0.933263
O O10 0.470148 0.318775 0.035763
O O11 0.250000 0.911742 0.791080
O O12 0.527505 0.851418 0.717208
O O13 0.500000 0.000000 0.727686
O O14 0.250000 0.796814 0.636899
#
# Coordination Sequence:
#
# PCOD9379697 Si02
#       6
#     4   8   8   8   8   8
#     4  12  24  38  58  90 132 166 204 262 318 374
#     4  10  20  37  62  90 118 162 213 257 306 372
#     4  12  24  36  58  92 124 155 196 253 316 368
#     4  10  20  40  66  85 114 163 212 250 297 375
#     4  11  22  38  60  89 121 156 202 256 311 368
#     4   9  18  35  62  89 112 156 211 256 303 367
#
# _framework density 22.998526999999999
#
# number of rings (size 3 to 8) (size 9 to 14) (size 15 to 20)
#    0.000    1.455    4.545    1.636    0.000    1.455 
#    1.636    5.455    0.000    0.000    0.000    0.000 
#    0.000    0.000    0.000    0.000    0.000    0.000 
#
# Total GULP energy -122545.462572 kJ/mol
# GULP energy per Si atom -5570.248299 kJ/mol
# Density = 2.294618 g / cm^3
# Si number density = 22.998527 Si / 1000 Ang^3
#
#
#
# Elastic Constant Matrix: (Units=GPa)
#
#
# Indices 1 2 3 4 5 6 
#
# 1 90.0842 1.6306 21.0255 0.0000 0.0000 0.0000
# 2 1.6306 159.2190 84.7103 0.0000 0.0000 0.0000
# 3 21.0255 84.7103 193.6625 0.0000 0.0000 0.0000
# 4 0.0000 0.0000 0.0000 54.6937 0.0000 0.0000
# 5 0.0000 0.0000 0.0000 0.0000 0.2535 0.0000
# 6 0.0000 0.0000 0.0000 0.0000 0.0000 -2.9307
#
#
#
# Elastic Compliance Matrix: (Units=1/GPa)
#
#
# Indices 1 2 3 4 5 6 
#
# 1 0.011450 0.000709 -0.001553 0.000000 0.000000 0.000000
# 2 0.000709 0.008230 -0.003677 0.000000 0.000000 0.000000
# 3 -0.001553 -0.003677 0.006940 0.000000 0.000000 0.000000
# 4 0.000000 0.000000 0.000000 0.018284 0.000000 0.000000
# 5 0.000000 0.000000 0.000000 0.000000 3.944176 -0.000001
# 6 0.000000 0.000000 0.000000 0.000000 -0.000001 -0.341215
#
#
# Mechanical properties :
#
#
# Convention : Reuss Voigt Hill
#
# Bulk Modulus (GPa) = 56.88691 73.07761 64.98226
# Shear Modulus (GPa) = 1.36509 32.77660 17.07085
#
# Velocity S-wave (km/s) = 0.77126 3.77923 2.72740
# Velocity P-wave (km/s) = 5.05785 7.13353 6.18341
#
# Compressibility (1/GPa) = 0.01757874
#
# Stress axis : x y z
#
# Youngs Moduli (GPa) = 87.33288 121.51368 144.08197
#
# Poissons Ratio (x) = -0.08617 0.22381
# Poissons Ratio (y) = -0.06193 0.52974
# Poissons Ratio (z) = 0.13566 0.44677
#
# Static dielectric constant tensor:
#      x y z
#    x 2.031880 0.000000 0.000000 
#    y 0.000000 1.871650 0.000000 
#    z 0.000000 0.000000 1.877260 
# 
# From -- ./inp_files/13825.got.cif
#   From: 2010.05.17/outbox.cif.g08.bks.cpg/sg46_7_cif.got.tgz:13825.got - 2010.06.03 19:58:25.
