data_PCOD9379519
_publ_section_title
;
Structure prediction by ZEFSAII (Michael W. Deem and Ramdas Pophale) SiO2 
 PCOD9379519
Probable space group: I M A 2
;
_chemical_formula_sum "Si O2"
_cell_formula_units_Z 56
_cell_length_a 19.189751
_cell_length_b 15.429733
_cell_length_c 10.641543
_cell_angle_alpha 90.000000
_cell_angle_beta 90.000000
_cell_angle_gamma 90.000000
_cell_volume 3150.883564
_symmetry_space_group_name_H-M "I M A 2"
_symmetry_group_IT_number 46
_symmetry_cell_setting 'orthorhombic'
loop_
_space_group_symop_operation_xyz
x,y,z
-x,-y,z
1/2-x,y,z
1/2+x,-y,z
1/2+x,1/2+y,1/2+z
1/2-x,1/2-y,1/2+z
-x,1/2+y,1/2+z
x,1/2-y,1/2+z
loop_
_atom_site_type_symbol
_atom_site_label
_atom_site_fract_x
_atom_site_fract_y
_atom_site_fract_z
Si Si1 0.558366 0.750000 0.647300
Si Si2 0.330080 0.137162 0.035542
Si Si3 0.330080 0.362838 0.259058
Si Si4 0.531655 0.092614 0.248012
Si Si5 0.169432 0.506020 0.751304
Si Si6 0.330568 0.993980 0.543297
Si Si7 0.968345 0.407386 0.046588
O O1 0.612756 0.712202 0.545727
O O2 0.612756 0.787798 0.748873
O O3 0.508782 0.671422 0.686717
O O4 0.508783 0.828578 0.607883
O O5 0.250000 0.169221 0.045120
O O6 0.341085 0.071029 0.151056
O O7 0.336492 0.094987 0.897300
O O8 0.250000 0.330779 0.249480
O O9 0.341085 0.428971 0.143544
O O10 0.614068 0.081671 0.224380
O O11 0.521382 0.100240 0.397300
O O12 0.500000 0.000000 0.207785
O O13 0.250000 0.532949 0.742165
O O14 0.156963 0.477596 0.897300
O O15 0.250000 0.967051 0.552435
O O16 0.385932 0.918329 0.570220
O O17 0.000000 0.500000 0.086815
#
# Coordination Sequence:
#
# PCOD9379519 Si02
#       7
#     8   8   8   8   8   8   8
#     4  12  21  34  55  82 114 152 184 224 279 338
#     4  10  21  35  53  82 116 144 177 227 284 338
#     4  10  21  35  53  82 116 144 177 227 284 338
#     4  10  20  36  56  81 113 148 189 233 273 328
#     4   9  18  36  61  82 105 146 192 229 272 329
#     4   9  18  36  61  82 105 146 192 229 272 329
#     4  10  20  36  56  81 113 148 189 233 273 328
#
# _framework density 17.772793
#
# number of rings (size 3 to 8) (size 9 to 14) (size 15 to 20)
#    0.000    2.000    2.857    1.286    0.000    1.143 
#    0.000    7.857    0.000    0.000    0.000    0.000 
#    0.000    0.000    0.000    0.000    0.000    0.000 
#
# Total GULP energy -155982.869468 kJ/mol
# GULP energy per Si atom -5570.816767 kJ/mol
# Density = 1.773234 g / cm^3
# Si number density = 17.772793 Si / 1000 Ang^3
#
#
#
# Elastic Constant Matrix: (Units=GPa)
#
#
# Indices 1 2 3 4 5 6 
#
# 1 135.3752 71.1795 51.7998 0.0000 0.0000 0.0000
# 2 71.1795 105.3054 44.2471 0.0000 0.0000 0.0000
# 3 51.7998 44.2471 89.1027 0.0000 0.0000 0.0000
# 4 0.0000 0.0000 0.0000 10.9117 0.0000 0.0000
# 5 0.0000 0.0000 0.0000 0.0000 -3.0444 0.0000
# 6 0.0000 0.0000 0.0000 0.0000 0.0000 30.2293
#
#
#
# Elastic Compliance Matrix: (Units=1/GPa)
#
#
# Indices 1 2 3 4 5 6 
#
# 1 0.012428 -0.006779 -0.003858 0.000000 0.000000 0.000000
# 2 -0.006779 0.015698 -0.003854 0.000000 0.000000 0.000000
# 3 -0.003858 -0.003854 0.015380 0.000000 0.000000 0.000000
# 4 0.000000 0.000000 0.000000 0.091645 0.000000 0.000000
# 5 0.000000 0.000000 0.000000 0.000000 -0.328467 0.000000
# 6 0.000000 0.000000 0.000000 0.000000 0.000000 0.033080
#
#
# Mechanical properties :
#
#
# Convention : Reuss Voigt Hill
#
# Bulk Modulus (GPa) = 68.86102 73.80401 71.33251
# Shear Modulus (GPa) = -39.55322 18.45644 -10.54839
#
# Velocity S-wave (km/s) = -4.72263 3.22602 -2.43886
# Velocity P-wave (km/s) = 3.01524 7.44935 5.68263
#
# Compressibility (1/GPa) = 0.01452200
#
# Stress axis : x y z
#
# Youngs Moduli (GPa) = 80.46582 63.70289 65.01905
#
# Poissons Ratio (x) = 0.43184 0.25087
# Poissons Ratio (y) = 0.54548 0.25061
# Poissons Ratio (z) = 0.31047 0.24553
#
# Static dielectric constant tensor:
#      x y z
#    x 1.652480 0.000000 0.000000 
#    y 0.000000 1.579210 0.000000 
#    z 0.000000 0.000000 1.631860 
# 
# From -- ./inp_files/7424.got.cif
#   From: 2010.05.17/outbox.cif.g08.bks.cpg/sg46_4_cif.got.tgz:7424.got - 2010.06.03 19:58:25.
